=
 OpenBabel11062411053D

 64 70  0  0  1  0  0  0  0  0999 V2000
  180.4520  179.8170  137.5960 C   0  0  2  0  0  3  0  0  0  0  0  0
  181.1580  181.8860  138.0650 C   0  0  0  0  0  0  0  0  0  0  0  0
  181.9050  183.0940  137.9930 N   0  0  0  0  0  1  0  0  0  0  0  0
  181.3680  180.9030  137.2660 N   0  0  0  0  0  0  0  0  0  0  0  0
  179.4640  180.4430  138.6180 C   0  0  2  0  0  3  0  0  0  0  0  0
  180.0830  181.7090  138.9690 N   0  0  0  0  0  2  0  0  0  0  0  0
  180.0940  181.0370  141.4420 O   0  0  0  0  0  0  0  0  0  0  0  0
  178.9350  177.3020  141.2030 C   0  0  0  0  0  2  0  0  0  0  0  0
  180.0520  179.8950  141.0100 C   0  0  0  0  0  0  0  0  0  0  0  0
  179.1340  179.5780  139.8500 C   0  0  2  0  0  3  0  0  0  0  0  0
  180.8870  178.8320  141.6900 C   0  0  2  0  0  0  0  0  0  0  0  0
  180.3170  177.4220  141.8270 C   0  0  1  0  0  3  0  0  0  0  0  0
  180.3010  178.3760  143.0120 C   0  0  0  0  0  2  0  0  0  0  0  0
  179.0550  177.7870  139.4570 S   0  0  0  0  0  0  0  0  0  0  0  0
  183.1650  178.6910  142.7670 C   0  0  0  0  0  3  0  0  0  0  0  0
  184.4410  179.3580  140.3710 C   0  0  0  0  0  3  0  0  0  0  0  0
  182.3960  178.8990  141.6130 C   0  0  0  0  0  0  0  0  0  0  0  0
  185.1920  179.1540  141.5290 C   0  0  0  0  0  3  0  0  0  0  0  0
  183.0500  179.2340  140.4120 C   0  0  0  0  0  3  0  0  0  0  0  0
  184.5590  178.8190  142.7300 C   0  0  0  0  0  0  0  0  0  0  0  0
  185.3600  178.5950  143.9450 C   0  0  0  0  0  0  0  0  0  0  0  0
  186.5140  177.9930  143.8470 C   0  0  0  0  0  0  0  0  0  0  0  0
  187.6900  177.4260  143.7510 C   0  0  0  0  0  0  0  0  0  0  0  0
  188.2080  177.0780  142.3810 C   0  0  1  0  0  3  0  0  0  0  0  0
  188.4340  178.3130  141.5270 C   0  0  0  0  0  2  0  0  0  0  0  0
  190.2840  178.4320  143.1580 C   0  0  0  0  0  1  0  0  0  0  0  0
  189.6350  177.5710  142.0790 C   0  0  1  0  0  3  0  0  0  0  0  0
  188.3520  176.7570  146.0240 C   0  0  0  0  0  3  0  0  0  0  0  0
  188.6130  177.4230  144.9030 C   0  0  0  0  0  3  0  0  0  0  0  0
  190.5220  177.0380  146.9480 N   0  0  0  0  0  0  0  0  0  0  0  0
  189.2710  176.8070  147.1560 C   0  0  0  0  0  3  0  0  0  0  0  0
  191.4560  177.0640  148.0630 C   0  0  0  0  0  2  0  0  0  0  0  0
  192.4590  175.9720  147.9060 C   0  0  0  0  0  3  0  0  0  0  0  0
  192.3250  175.1400  147.0250 O   0  0  0  0  0  0  0  0  0  0  0  0
  184.9410  179.0460  145.2020 O   0  0  0  0  0  0  0  0  0  0  0  0
  185.3830  178.4610  146.4190 C   0  0  0  0  0  1  0  0  0  0  0  0
  181.2470  178.5960  138.1030 C   0  0  0  0  0  2  0  0  0  0  0  0
  181.6790  177.6450  136.9820 C   0  0  2  0  0  3  0  0  0  0  0  0
  180.7490  177.8060  135.7920 C   0  0  0  0  0  1  0  0  0  0  0  0
  181.6870  176.1860  137.4470 C   0  0  1  0  0  3  0  0  0  0  0  0
  181.7250  175.3480  136.3270 O   0  0  0  0  0  0  0  0  0  0  0  0
  181.4840  174.0680  136.8240 C   0  0  0  0  0  1  0  0  0  0  0  0
  182.8160  175.9370  138.2340 O   0  0  0  0  0  0  0  0  0  0  0  0
  183.6800  176.0770  135.5900 O   0  0  0  0  0  0  0  0  0  0  0  0
  185.1320  174.9920  137.4700 O   0  0  0  0  0  1  0  0  0  0  0  0
  184.1610  176.1240  137.2130 P   0  0  2  0  0  0  0  0  0  0  0  0
  184.9460  177.6230  137.5240 O   0  0  0  0  0  0  0  0  0  0  0  0
  186.2560  177.8910  137.1140 C   0  0  0  0  0  0  0  0  0  0  0  0
  186.9430  178.7660  137.7050 O   0  0  0  0  0  0  0  0  0  0  0  0
  186.5390  177.5700  134.7950 O   0  0  0  0  0  0  0  0  0  0  0  0
  186.8300  177.1840  135.9590 C   0  0  0  0  0  0  0  0  0  0  0  0
  187.7690  176.0150  136.1040 C   0  0  2  0  0  3  0  0  0  0  0  0
  190.9940  175.4340  137.8670 C   0  0  0  0  0  2  0  0  0  0  0  0
  189.5010  175.5580  137.9320 C   0  0  0  0  0  2  0  0  0  0  0  0
  191.2830  175.4090  136.3820 C   0  0  1  0  0  3  0  0  0  0  0  0
  189.1580  176.3410  136.6790 C   0  0  1  0  0  3  0  0  0  0  0  0
  190.2250  176.1470  135.6970 N   0  0  0  0  0  2  0  0  0  0  0  0
  192.9490  175.7600  134.6050 C   0  0  0  0  0  2  0  0  0  0  0  0
  193.6190  174.9260  135.6730 C   0  0  0  0  0  2  0  0  0  0  0  0
  192.6380  176.0150  136.0630 C   0  0  0  0  0  3  0  0  0  0  0  0
  187.8560  175.2760  134.9170 O   0  0  0  0  0  0  0  0  0  0  0  0
  187.1690  174.0900  135.1780 C   0  0  0  0  0  2  0  0  0  0  0  0
  189.2630  172.9760  134.5980 C   0  0  0  0  0  2  0  0  0  0  0  0
  188.1430  172.9680  135.3130 C   0  0  0  0  0  3  0  0  0  0  0  0
  1 37  1  1  0  0  0
  1  5  1  0  0  0  0
  2  6  1  0  0  0  0
  3  2  1  0  0  0  0
  4  1  1  0  0  0  0
  4  2  2  0  0  0  0
  5  6  1  1  0  0  0
  5 10  1  0  0  0  0
  9  7  2  0  0  0  0
  9 11  1  0  0  0  0
 10 14  1  6  0  0  0
 10  9  1  0  0  0  0
 11 17  1  6  0  0  0
 11 12  1  0  0  0  0
 11 13  1  0  0  0  0
 12  8  1  6  0  0  0
 12 13  1  0  0  0  0
 14  8  1  0  0  0  0
 16 19  2  0  0  0  0
 16 18  1  0  0  0  0
 17 15  2  0  0  0  0
 18 20  2  0  0  0  0
 19 17  1  0  0  0  0
 20 15  1  0  0  0  0
 20 21  1  0  0  0  0
 21 35  1  0  0  0  0
 22 21  2  0  0  0  0
 23 22  2  0  0  0  0
 23 29  1  0  0  0  0
 24 23  1  1  0  0  0
 25 27  1  0  0  0  0
 25 24  1  0  0  0  0
 27 24  1  0  0  0  0
 27 26  1  1  0  0  0
 28 31  1  0  0  0  0
 29 28  2  0  0  0  0
 30 31  2  0  0  0  0
 30 32  1  0  0  0  0
 33 32  1  0  0  0  0
 34 33  2  0  0  0  0
 35 36  1  0  0  0  0
 38 39  1  6  0  0  0
 38 40  1  0  0  0  0
 38 37  1  0  0  0  0
 40 41  1  6  0  0  0
 40 43  1  0  0  0  0
 41 42  1  0  0  0  0
 46 44  2  6  0  0  0
 46 45  1  0  0  0  0
 46 47  1  0  0  0  0
 46 43  1  0  0  0  0
 48 47  1  0  0  0  0
 48 49  2  0  0  0  0
 50 51  2  0  0  0  0
 51 52  1  0  0  0  0
 51 48  1  0  0  0  0
 52 61  1  6  0  0  0
 53 54  1  0  0  0  0
 55 60  1  1  0  0  0
 55 53  1  0  0  0  0
 56 52  1  6  0  0  0
 56 54  1  0  0  0  0
 57 55  1  0  0  0  0
 57 56  1  0  0  0  0
 58 59  1  0  0  0  0
 58 60  1  0  0  0  0
 59 60  1  0  0  0  0
 61 62  1  0  0  0  0
 62 64  1  0  0  0  0
 63 64  2  0  0  0  0
M  END
>  <MODEL>
1

>  <REMARK>
 VINA RESULT:      -6.6      0.000      0.000
  Name = 
  24 active torsions:
  status: ('A' for Active; 'I' for Inactive)
    1  A    between atoms: C_1  and  C_61
    2  A    between atoms: C_2  and  C_6
    3  A    between atoms: C_2  and  C_8
    4  A    between atoms: C_5  and  C_63
    5  A    between atoms: C_7  and  O_33
    6  A    between atoms: C_7  and  C_47
    7  A    between atoms: C_7  and  C_56
    8  A    between atoms: C_8  and  C_34
    9  A    between atoms: O_10  and  C_16
   10  A    between atoms: C_11  and  C_50
   11  A    between atoms: C_16  and  C_58
   12  A    between atoms: O_18  and  C_26
   13  A    between atoms: O_18  and  P_51
   14  A    between atoms: C_26  and  C_56
   15  A    between atoms: C_31  and  C_52
   16  A    between atoms: N_32  and  C_61
   17  A    between atoms: O_33  and  C_36
   18  A    between atoms: C_34  and  O_35
   19  A    between atoms: C_34  and  O_54
   20  A    between atoms: C_36  and  C_44
   21  A    between atoms: C_38  and  C_45
   22  A    between atoms: C_40  and  C_53
   23  A    between atoms: P_51  and  O_54
   24  A    between atoms: C_55  and  C_63
                            x       y       z     vdW  Elec       q    Type
                         _______ _______ _______ _____ _____    ______ ____

>  <TORSDO>
F 24

$$$$
=
 OpenBabel11062411053D

 64 70  0  0  1  0  0  0  0  0999 V2000
  188.1680  177.0140  141.9310 C   0  0  2  0  0  3  0  0  0  0  0  0
  190.3280  176.5680  142.2970 C   0  0  0  0  0  0  0  0  0  0  0  0
  191.5320  176.2540  142.9840 N   0  0  0  0  0  1  0  0  0  0  0  0
  189.2020  176.6840  142.9040 N   0  0  0  0  0  0  0  0  0  0  0  0
  188.8620  176.8360  140.5530 C   0  0  2  0  0  3  0  0  0  0  0  0
  190.2690  176.7020  140.8880 N   0  0  0  0  0  2  0  0  0  0  0  0
  186.2670  177.5860  139.3610 O   0  0  0  0  0  0  0  0  0  0  0  0
  189.1080  179.3630  137.3320 C   0  0  0  0  0  2  0  0  0  0  0  0
  187.3180  177.6910  138.7500 C   0  0  0  0  0  0  0  0  0  0  0  0
  188.5970  177.9460  139.5180 C   0  0  2  0  0  3  0  0  0  0  0  0
  187.2910  177.6100  137.2390 C   0  0  2  0  0  0  0  0  0  0  0  0
  188.2310  178.5040  136.4340 C   0  0  1  0  0  3  0  0  0  0  0  0
  186.7630  178.8740  136.5900 C   0  0  0  0  0  2  0  0  0  0  0  0
  190.0440  178.2640  138.4340 S   0  0  0  0  0  0  0  0  0  0  0  0
  187.8120  175.2200  136.6180 C   0  0  0  0  0  3  0  0  0  0  0  0
  185.4460  174.9900  135.1460 C   0  0  0  0  0  3  0  0  0  0  0  0
  186.9260  176.3060  136.5640 C   0  0  0  0  0  0  0  0  0  0  0  0
  186.3400  173.9200  135.2030 C   0  0  0  0  0  3  0  0  0  0  0  0
  185.7380  176.1780  135.8190 C   0  0  0  0  0  3  0  0  0  0  0  0
  187.5240  174.0290  135.9390 C   0  0  0  0  0  0  0  0  0  0  0  0
  188.4560  172.8920  136.0040 C   0  0  0  0  0  0  0  0  0  0  0  0
  189.6970  173.0610  135.6340 C   0  0  0  0  0  0  0  0  0  0  0  0
  190.9520  173.2320  135.3020 C   0  0  0  0  0  0  0  0  0  0  0  0
  191.4080  174.6150  134.9210 C   0  0  1  0  0  3  0  0  0  0  0  0
  190.4050  175.6790  135.3300 C   0  0  0  0  0  2  0  0  0  0  0  0
  191.3850  174.9970  137.4910 C   0  0  0  0  0  1  0  0  0  0  0  0
  191.7010  175.5550  136.1060 C   0  0  1  0  0  3  0  0  0  0  0  0
  193.1430  172.4710  136.1190 C   0  0  0  0  0  3  0  0  0  0  0  0
  191.9520  172.1890  135.6000 C   0  0  0  0  0  3  0  0  0  0  0  0
  195.0030  171.5760  137.2940 N   0  0  0  0  0  0  0  0  0  0  0  0
  194.1210  171.4180  136.3670 C   0  0  0  0  0  3  0  0  0  0  0  0
  196.0020  170.5470  137.5350 C   0  0  0  0  0  2  0  0  0  0  0  0
  197.2510  170.8700  136.7860 C   0  0  0  0  0  3  0  0  0  0  0  0
  197.5530  172.0320  136.5740 O   0  0  0  0  0  0  0  0  0  0  0  0
  188.0650  171.6410  136.4930 O   0  0  0  0  0  0  0  0  0  0  0  0
  188.1270  170.4540  135.7140 C   0  0  0  0  0  1  0  0  0  0  0  0
  187.6110  178.4250  142.2160 C   0  0  0  0  0  2  0  0  0  0  0  0
  186.7270  178.4870  143.4660 C   0  0  2  0  0  3  0  0  0  0  0  0
  187.2210  177.4800  144.4900 C   0  0  0  0  0  1  0  0  0  0  0  0
  185.2560  178.2180  143.1350 C   0  0  1  0  0  3  0  0  0  0  0  0
  184.5370  178.0680  144.3260 O   0  0  0  0  0  0  0  0  0  0  0  0
  184.5290  179.3350  144.9060 C   0  0  0  0  0  1  0  0  0  0  0  0
  184.7190  179.2920  142.4180 O   0  0  0  0  0  0  0  0  0  0  0  0
  182.0500  178.5910  142.7990 O   0  0  0  0  0  1  0  0  0  0  0  0
  183.5870  177.3370  141.1000 O   0  0  0  0  0  0  0  0  0  0  0  0
  183.3080  178.7100  141.6700 P   0  0  2  0  0  0  0  0  0  0  0  0
  182.8240  179.7620  140.3990 O   0  0  0  0  0  0  0  0  0  0  0  0
  183.3200  179.6530  139.0960 C   0  0  0  0  0  0  0  0  0  0  0  0
  184.3640  180.2720  138.7570 O   0  0  0  0  0  0  0  0  0  0  0  0
  183.2480  178.3330  137.1430 O   0  0  0  0  0  0  0  0  0  0  0  0
  182.6020  178.8500  138.0940 C   0  0  0  0  0  0  0  0  0  0  0  0
  181.1180  178.6040  138.1590 C   0  0  2  0  0  3  0  0  0  0  0  0
  179.6850  181.8840  139.1760 C   0  0  0  0  0  2  0  0  0  0  0  0
  179.8370  180.4160  139.4350 C   0  0  0  0  0  2  0  0  0  0  0  0
  180.6790  182.1530  138.0670 C   0  0  1  0  0  3  0  0  0  0  0  0
  180.2290  179.8570  138.0810 C   0  0  1  0  0  3  0  0  0  0  0  0
  180.8430  180.9250  137.2930 N   0  0  0  0  0  2  0  0  0  0  0  0
  181.0290  183.2380  135.8860 C   0  0  0  0  0  2  0  0  0  0  0  0
  181.3570  184.2670  136.9440 C   0  0  0  0  0  2  0  0  0  0  0  0
  180.2220  183.2850  137.1650 C   0  0  0  0  0  3  0  0  0  0  0  0
  180.7790  177.7900  139.2470 O   0  0  0  0  0  0  0  0  0  0  0  0
  179.9850  176.7770  138.7090 C   0  0  0  0  0  2  0  0  0  0  0  0
  180.0660  174.8140  140.1590 C   0  0  0  0  0  2  0  0  0  0  0  0
  179.4390  175.9330  139.8110 C   0  0  0  0  0  3  0  0  0  0  0  0
  1 37  1  1  0  0  0
  1  4  1  0  0  0  0
  2  4  2  0  0  0  0
  2  3  1  0  0  0  0
  5  6  1  1  0  0  0
  5  1  1  0  0  0  0
  6  2  1  0  0  0  0
  8 14  1  0  0  0  0
  9  7  2  0  0  0  0
  9 10  1  0  0  0  0
 10 14  1  6  0  0  0
 10  5  1  0  0  0  0
 11 17  1  6  0  0  0
 11  9  1  0  0  0  0
 12 13  1  6  0  0  0
 12 11  1  0  0  0  0
 12  8  1  0  0  0  0
 13 11  1  0  0  0  0
 16 18  2  0  0  0  0
 16 19  1  0  0  0  0
 17 15  1  0  0  0  0
 18 20  1  0  0  0  0
 19 17  2  0  0  0  0
 20 21  1  0  0  0  0
 20 15  2  0  0  0  0
 21 35  1  0  0  0  0
 22 21  2  0  0  0  0
 23 29  1  0  0  0  0
 23 22  2  0  0  0  0
 24 23  1  1  0  0  0
 24 25  1  0  0  0  0
 24 27  1  0  0  0  0
 25 27  1  0  0  0  0
 27 26  1  1  0  0  0
 28 31  1  0  0  0  0
 29 28  2  0  0  0  0
 30 32  1  0  0  0  0
 31 30  2  0  0  0  0
 33 32  1  0  0  0  0
 34 33  2  0  0  0  0
 36 35  1  0  0  0  0
 37 38  1  0  0  0  0
 38 39  1  1  0  0  0
 40 43  1  1  0  0  0
 40 38  1  0  0  0  0
 40 41  1  0  0  0  0
 41 42  1  0  0  0  0
 46 45  2  6  0  0  0
 46 43  1  0  0  0  0
 46 44  1  0  0  0  0
 47 46  1  0  0  0  0
 48 47  1  0  0  0  0
 49 48  2  0  0  0  0
 50 51  2  0  0  0  0
 51 48  1  0  0  0  0
 52 51  1  1  0  0  0
 52 61  1  0  0  0  0
 53 54  1  0  0  0  0
 55 60  1  6  0  0  0
 55 53  1  0  0  0  0
 56 52  1  1  0  0  0
 56 54  1  0  0  0  0
 57 55  1  0  0  0  0
 57 56  1  0  0  0  0
 58 59  1  0  0  0  0
 58 60  1  0  0  0  0
 59 60  1  0  0  0  0
 62 61  1  0  0  0  0
 62 64  1  0  0  0  0
 64 63  2  0  0  0  0
M  END
>  <MODEL>
2

>  <REMARK>
 VINA RESULT:      -6.3      3.164      9.781
  Name = 
  24 active torsions:
  status: ('A' for Active; 'I' for Inactive)
    1  A    between atoms: C_1  and  C_61
    2  A    between atoms: C_2  and  C_6
    3  A    between atoms: C_2  and  C_8
    4  A    between atoms: C_5  and  C_63
    5  A    between atoms: C_7  and  O_33
    6  A    between atoms: C_7  and  C_47
    7  A    between atoms: C_7  and  C_56
    8  A    between atoms: C_8  and  C_34
    9  A    between atoms: O_10  and  C_16
   10  A    between atoms: C_11  and  C_50
   11  A    between atoms: C_16  and  C_58
   12  A    between atoms: O_18  and  C_26
   13  A    between atoms: O_18  and  P_51
   14  A    between atoms: C_26  and  C_56
   15  A    between atoms: C_31  and  C_52
   16  A    between atoms: N_32  and  C_61
   17  A    between atoms: O_33  and  C_36
   18  A    between atoms: C_34  and  O_35
   19  A    between atoms: C_34  and  O_54
   20  A    between atoms: C_36  and  C_44
   21  A    between atoms: C_38  and  C_45
   22  A    between atoms: C_40  and  C_53
   23  A    between atoms: P_51  and  O_54
   24  A    between atoms: C_55  and  C_63
                            x       y       z     vdW  Elec       q    Type
                         _______ _______ _______ _____ _____    ______ ____

>  <TORSDO>
F 24

$$$$
=
 OpenBabel11062411053D

 64 71  0  0  1  0  0  0  0  0999 V2000
  185.4370  177.0930  136.0920 C   0  0  2  0  0  3  0  0  0  0  0  0
  183.4380  177.5040  135.1810 C   0  0  0  0  0  0  0  0  0  0  0  0
  182.2480  178.1940  134.8160 N   0  0  0  0  0  1  0  0  0  0  0  0
  184.3600  178.0540  135.8850 N   0  0  0  0  0  0  0  0  0  0  0  0
  185.0840  175.9080  135.1520 C   0  0  2  0  0  3  0  0  0  0  0  0
  183.7230  176.1910  134.7330 N   0  0  0  0  0  2  0  0  0  0  0  0
  183.4290  173.5260  134.5960 O   0  0  0  0  0  0  0  0  0  0  0  0
  185.6660  172.7640  137.7210 C   0  0  0  0  0  2  0  0  0  0  0  0
  183.9480  173.7190  135.6850 C   0  0  0  0  0  0  0  0  0  0  0  0
  185.2420  174.5000  135.7580 C   0  0  2  0  0  3  0  0  0  0  0  0
  183.2980  173.1230  136.9140 C   0  0  2  0  0  0  0  0  0  0  0  0
  184.1880  172.5840  138.0320 C   0  0  1  0  0  3  0  0  0  0  0  0
  183.5340  171.6300  137.0420 C   0  0  0  0  0  2  0  0  0  0  0  0
  185.9770  174.5310  137.4390 S   0  0  1  0  0  3  0  0  0  0  0  0
  181.5860  174.9640  137.1330 C   0  0  0  0  0  3  0  0  0  0  0  0
  179.8500  173.3060  138.5650 C   0  0  0  0  0  3  0  0  0  0  0  0
  181.9480  173.6300  137.3700 C   0  0  0  0  0  0  0  0  0  0  0  0
  179.5070  174.6370  138.3270 C   0  0  0  0  0  3  0  0  0  0  0  0
  181.0650  172.8050  138.0930 C   0  0  0  0  0  3  0  0  0  0  0  0
  180.3710  175.4710  137.6100 C   0  0  0  0  0  0  0  0  0  0  0  0
  179.9970  176.8710  137.3530 C   0  0  0  0  0  0  0  0  0  0  0  0
  180.4510  177.8080  138.1410 C   0  0  0  0  0  0  0  0  0  0  0  0
  180.9340  178.7580  138.9020 C   0  0  0  0  0  0  0  0  0  0  0  0
  181.9110  178.3810  139.9830 C   0  0  1  0  0  3  0  0  0  0  0  0
  182.0820  179.4890  141.0080 C   0  0  0  0  0  2  0  0  0  0  0  0
  179.8300  178.6170  141.5210 C   0  0  0  0  0  1  0  0  0  0  0  0
  181.3050  178.2460  141.3920 C   0  0  1  0  0  3  0  0  0  0  0  0
  180.7280  180.5640  137.2450 C   0  0  0  0  0  3  0  0  0  0  0  0
  180.7840  180.1740  138.5150 C   0  0  0  0  0  3  0  0  0  0  0  0
  180.7660  182.3430  135.6710 N   0  0  0  0  0  0  0  0  0  0  0  0
  180.6170  181.9760  136.8990 C   0  0  0  0  0  3  0  0  0  0  0  0
  180.6850  183.7500  135.3140 C   0  0  0  0  0  2  0  0  0  0  0  0
  179.2580  184.1770  135.2630 C   0  0  0  0  0  3  0  0  0  0  0  0
  178.9350  185.2820  135.6640 O   0  0  0  0  0  0  0  0  0  0  0  0
  179.2010  177.2360  136.2620 O   0  0  0  0  0  0  0  0  0  0  0  0
  179.3200  176.6280  134.9830 C   0  0  0  0  0  1  0  0  0  0  0  0
  185.5470  176.7430  137.5910 C   0  0  1  0  0  3  0  0  0  0  0  0
  186.1610  177.8660  138.4330 C   0  0  2  0  0  3  0  0  0  0  0  0
  185.2270  179.0630  138.4440 C   0  0  0  0  0  1  0  0  0  0  0  0
  187.5380  178.2810  137.9080 C   0  0  1  0  0  3  0  0  0  0  0  0
  187.3810  179.3090  136.9720 O   0  0  0  0  0  0  0  0  0  0  0  0
  187.9440  178.8180  135.7960 C   0  0  0  0  0  1  0  0  0  0  0  0
  188.3340  178.7480  138.9600 O   0  0  0  0  0  0  0  0  0  0  0  0
  190.7880  177.8150  139.8910 O   0  0  0  0  0  1  0  0  0  0  0  0
  189.1660  176.3110  138.5030 O   0  0  0  0  0  0  0  0  0  0  0  0
  189.1810  177.3990  139.5530 P   0  0  2  0  0  0  0  0  0  0  0  0
  188.4400  176.8090  140.9890 O   0  0  0  0  0  0  0  0  0  0  0  0
  188.1570  177.6270  142.0870 C   0  0  0  0  0  0  0  0  0  0  0  0
  188.1920  178.8810  141.9740 O   0  0  0  0  0  0  0  0  0  0  0  0
  187.9170  175.7780  143.5310 O   0  0  0  0  0  0  0  0  0  0  0  0
  187.8590  177.0300  143.3980 C   0  0  0  0  0  0  0  0  0  0  0  0
  187.4950  177.8550  144.6040 C   0  0  2  0  0  3  0  0  0  0  0  0
  189.3890  177.2770  147.7550 C   0  0  0  0  0  2  0  0  0  0  0  0
  188.1520  177.7830  147.0770 C   0  0  0  0  0  2  0  0  0  0  0  0
  190.1340  176.5650  146.6460 C   0  0  1  0  0  3  0  0  0  0  0  0
  188.6070  178.0330  145.6520 C   0  0  1  0  0  3  0  0  0  0  0  0
  189.7690  177.1890  145.3760 N   0  0  0  0  0  2  0  0  0  0  0  0
  192.2520  175.3670  146.2780 C   0  0  0  0  0  2  0  0  0  0  0  0
  192.0850  175.5100  147.7740 C   0  0  0  0  0  2  0  0  0  0  0  0
  191.6370  176.6260  146.8490 C   0  0  0  0  0  3  0  0  0  0  0  0
  186.2970  177.4170  145.1830 O   0  0  0  0  0  0  0  0  0  0  0  0
  185.5620  178.5800  145.4180 C   0  0  0  0  0  2  0  0  0  0  0  0
  183.3410  178.7270  144.4120 C   0  0  0  0  0  2  0  0  0  0  0  0
  184.6560  178.8390  144.2610 C   0  0  0  0  0  3  0  0  0  0  0  0
  1  4  1  1  0  0  0
  1 37  1  0  0  0  0
  2  4  2  0  0  0  0
  3  2  1  0  0  0  0
  5  6  1  1  0  0  0
  5 10  1  0  0  0  0
  5  1  1  0  0  0  0
  6  2  1  0  0  0  0
  7  9  2  0  0  0  0
  8 12  1  0  0  0  0
  9 11  1  0  0  0  0
 10  9  1  1  0  0  0
 10 14  1  0  0  0  0
 11 13  1  0  0  0  0
 11 17  1  1  0  0  0
 11 12  1  0  0  0  0
 12 13  1  6  0  0  0
 14 37  1  0  0  0  0
 14  8  1  1  0  0  0
 15 17  2  0  0  0  0
 15 20  1  0  0  0  0
 17 19  1  0  0  0  0
 18 16  1  0  0  0  0
 19 16  2  0  0  0  0
 20 18  2  0  0  0  0
 21 20  1  0  0  0  0
 21 22  2  0  0  0  0
 22 23  2  0  0  0  0
 24 23  1  6  0  0  0
 24 25  1  0  0  0  0
 24 27  1  0  0  0  0
 25 27  1  0  0  0  0
 27 26  1  6  0  0  0
 28 29  2  0  0  0  0
 29 23  1  0  0  0  0
 30 31  2  0  0  0  0
 31 28  1  0  0  0  0
 32 30  1  0  0  0  0
 33 32  1  0  0  0  0
 33 34  2  0  0  0  0
 35 21  1  0  0  0  0
 36 35  1  0  0  0  0
 37 38  1  6  0  0  0
 38 39  1  6  0  0  0
 40 41  1  6  0  0  0
 40 38  1  0  0  0  0
 40 43  1  0  0  0  0
 42 41  1  0  0  0  0
 43 46  1  0  0  0  0
 46 45  2  6  0  0  0
 46 44  1  0  0  0  0
 46 47  1  0  0  0  0
 47 48  1  0  0  0  0
 48 51  1  0  0  0  0
 49 48  2  0  0  0  0
 51 50  2  0  0  0  0
 52 51  1  6  0  0  0
 52 61  1  0  0  0  0
 54 53  1  0  0  0  0
 55 60  1  1  0  0  0
 55 53  1  0  0  0  0
 56 52  1  6  0  0  0
 56 54  1  0  0  0  0
 57 56  1  0  0  0  0
 57 55  1  0  0  0  0
 58 60  1  0  0  0  0
 58 59  1  0  0  0  0
 60 59  1  0  0  0  0
 61 62  1  0  0  0  0
 64 63  2  0  0  0  0
 64 62  1  0  0  0  0
M  END
>  <MODEL>
3

>  <REMARK>
 VINA RESULT:      -6.2      3.083      9.608
  Name = 
  24 active torsions:
  status: ('A' for Active; 'I' for Inactive)
    1  A    between atoms: C_1  and  C_61
    2  A    between atoms: C_2  and  C_6
    3  A    between atoms: C_2  and  C_8
    4  A    between atoms: C_5  and  C_63
    5  A    between atoms: C_7  and  O_33
    6  A    between atoms: C_7  and  C_47
    7  A    between atoms: C_7  and  C_56
    8  A    between atoms: C_8  and  C_34
    9  A    between atoms: O_10  and  C_16
   10  A    between atoms: C_11  and  C_50
   11  A    between atoms: C_16  and  C_58
   12  A    between atoms: O_18  and  C_26
   13  A    between atoms: O_18  and  P_51
   14  A    between atoms: C_26  and  C_56
   15  A    between atoms: C_31  and  C_52
   16  A    between atoms: N_32  and  C_61
   17  A    between atoms: O_33  and  C_36
   18  A    between atoms: C_34  and  O_35
   19  A    between atoms: C_34  and  O_54
   20  A    between atoms: C_36  and  C_44
   21  A    between atoms: C_38  and  C_45
   22  A    between atoms: C_40  and  C_53
   23  A    between atoms: P_51  and  O_54
   24  A    between atoms: C_55  and  C_63
                            x       y       z     vdW  Elec       q    Type
                         _______ _______ _______ _____ _____    ______ ____

>  <TORSDO>
F 24

$$$$
=
 OpenBabel11062411053D

 64 70  0  0  1  0  0  0  0  0999 V2000
  180.3770  180.0790  137.2140 C   0  0  2  0  0  3  0  0  0  0  0  0
  181.1750  182.0420  137.9270 C   0  0  0  0  0  0  0  0  0  0  0  0
  181.9640  183.2240  137.9890 N   0  0  0  0  0  1  0  0  0  0  0  0
  181.3220  181.1680  136.9970 N   0  0  0  0  0  0  0  0  0  0  0  0
  179.4460  180.5950  138.3460 C   0  0  2  0  0  3  0  0  0  0  0  0
  180.1230  181.7810  138.8390 N   0  0  0  0  0  2  0  0  0  0  0  0
  180.0930  180.8350  141.2170 O   0  0  0  0  0  0  0  0  0  0  0  0
  178.9310  177.1580  140.5250 C   0  0  0  0  0  2  0  0  0  0  0  0
  180.0480  179.7560  140.6480 C   0  0  0  0  0  0  0  0  0  0  0  0
  179.1230  179.5840  139.4620 C   0  0  2  0  0  3  0  0  0  0  0  0
  180.8870  178.6160  141.1860 C   0  0  2  0  0  0  0  0  0  0  0  0
  180.3170  177.2000  141.1500 C   0  0  1  0  0  3  0  0  0  0  0  0
  180.3080  178.0010  142.4450 C   0  0  0  0  0  2  0  0  0  0  0  0
  179.0410  177.8550  138.8510 S   0  0  0  0  0  0  0  0  0  0  0  0
  183.1690  178.3990  142.2410 C   0  0  0  0  0  3  0  0  0  0  0  0
  184.4350  179.2510  139.8980 C   0  0  0  0  0  3  0  0  0  0  0  0
  182.3950  178.6930  141.1080 C   0  0  0  0  0  0  0  0  0  0  0  0
  185.1910  178.9610  141.0350 C   0  0  0  0  0  3  0  0  0  0  0  0
  183.0440  179.1210  139.9350 C   0  0  0  0  0  3  0  0  0  0  0  0
  184.5620  178.5340  142.2090 C   0  0  0  0  0  0  0  0  0  0  0  0
  185.3680  178.2190  143.4000 C   0  0  0  0  0  0  0  0  0  0  0  0
  186.5670  177.7270  143.2480 C   0  0  0  0  0  0  0  0  0  0  0  0
  187.7870  177.2710  143.1030 C   0  0  0  0  0  0  0  0  0  0  0  0
  188.3420  177.1430  141.7100 C   0  0  1  0  0  3  0  0  0  0  0  0
  188.5650  178.4980  141.0590 C   0  0  0  0  0  2  0  0  0  0  0  0
  190.3740  178.3950  142.7360 C   0  0  0  0  0  1  0  0  0  0  0  0
  189.7660  177.6990  141.5220 C   0  0  1  0  0  3  0  0  0  0  0  0
  188.3880  177.7080  145.4480 C   0  0  0  0  0  3  0  0  0  0  0  0
  188.6970  177.1920  144.2620 C   0  0  0  0  0  3  0  0  0  0  0  0
  190.2470  176.7400  146.5640 N   0  0  0  0  0  0  0  0  0  0  0  0
  189.3280  177.6450  146.5610 C   0  0  0  0  0  3  0  0  0  0  0  0
  191.1750  176.6450  147.6800 C   0  0  0  0  0  2  0  0  0  0  0  0
  192.1640  175.5590  147.4230 C   0  0  0  0  0  3  0  0  0  0  0  0
  192.4770  175.2750  146.2790 O   0  0  0  0  0  0  0  0  0  0  0  0
  184.9030  178.4710  144.6960 O   0  0  0  0  0  0  0  0  0  0  0  0
  184.8130  179.7800  145.2420 C   0  0  0  0  0  1  0  0  0  0  0  0
  181.1410  178.7750  137.5240 C   0  0  0  0  0  2  0  0  0  0  0  0
  181.5150  177.9770  136.2710 C   0  0  2  0  0  3  0  0  0  0  0  0
  180.6510  178.4270  135.1050 C   0  0  0  0  0  1  0  0  0  0  0  0
  181.3550  176.4700  136.4890 C   0  0  1  0  0  3  0  0  0  0  0  0
  181.3460  175.8250  135.2470 O   0  0  0  0  0  0  0  0  0  0  0  0
  180.4790  174.7460  135.4050 C   0  0  0  0  0  1  0  0  0  0  0  0
  182.4240  175.9770  137.2440 O   0  0  0  0  0  0  0  0  0  0  0  0
  183.6840  177.7690  135.5240 O   0  0  0  0  0  1  0  0  0  0  0  0
  184.0280  175.1870  135.3350 O   0  0  0  0  0  0  0  0  0  0  0  0
  183.8310  176.2950  136.3460 P   0  0  2  0  0  0  0  0  0  0  0  0
  185.2020  176.3640  137.3820 O   0  0  0  0  0  0  0  0  0  0  0  0
  186.4690  176.7530  136.9380 C   0  0  0  0  0  0  0  0  0  0  0  0
  187.1120  177.6490  137.5480 O   0  0  0  0  0  0  0  0  0  0  0  0
  186.7000  176.5910  134.5960 O   0  0  0  0  0  0  0  0  0  0  0  0
  187.0460  176.1520  135.7260 C   0  0  0  0  0  0  0  0  0  0  0  0
  188.0510  175.0310  135.7720 C   0  0  2  0  0  3  0  0  0  0  0  0
  187.7230  171.3460  135.3690 C   0  0  0  0  0  2  0  0  0  0  0  0
  188.5900  172.5680  135.3290 C   0  0  0  0  0  2  0  0  0  0  0  0
  186.4320  171.8480  135.9780 C   0  0  1  0  0  3  0  0  0  0  0  0
  187.5970  173.7000  135.1490 C   0  0  1  0  0  3  0  0  0  0  0  0
  186.2950  173.2660  135.6550 N   0  0  0  0  0  2  0  0  0  0  0  0
  184.1420  172.0590  135.1010 C   0  0  0  0  0  2  0  0  0  0  0  0
  184.0460  171.2770  136.3900 C   0  0  0  0  0  2  0  0  0  0  0  0
  185.2310  171.0740  135.4650 C   0  0  0  0  0  3  0  0  0  0  0  0
  188.5650  174.8550  137.0620 O   0  0  0  0  0  0  0  0  0  0  0  0
  189.8860  175.3010  136.9910 C   0  0  0  0  0  2  0  0  0  0  0  0
  191.5220  176.2800  138.5160 C   0  0  0  0  0  2  0  0  0  0  0  0
  190.2520  175.9810  138.2670 C   0  0  0  0  0  3  0  0  0  0  0  0
  1 37  1  1  0  0  0
  1  5  1  0  0  0  0
  2  3  1  0  0  0  0
  2  6  1  0  0  0  0
  4  1  1  0  0  0  0
  4  2  2  0  0  0  0
  5  6  1  1  0  0  0
  5 10  1  0  0  0  0
  9 11  1  0  0  0  0
  9  7  2  0  0  0  0
 10 14  1  6  0  0  0
 10  9  1  0  0  0  0
 11 17  1  6  0  0  0
 11 13  1  0  0  0  0
 12  8  1  6  0  0  0
 12 11  1  0  0  0  0
 12 13  1  0  0  0  0
 14  8  1  0  0  0  0
 16 19  2  0  0  0  0
 16 18  1  0  0  0  0
 17 15  2  0  0  0  0
 18 20  2  0  0  0  0
 19 17  1  0  0  0  0
 20 15  1  0  0  0  0
 20 21  1  0  0  0  0
 21 35  1  0  0  0  0
 22 21  2  0  0  0  0
 23 22  2  0  0  0  0
 23 29  1  0  0  0  0
 24 23  1  1  0  0  0
 25 27  1  0  0  0  0
 25 24  1  0  0  0  0
 27 24  1  0  0  0  0
 27 26  1  1  0  0  0
 28 31  1  0  0  0  0
 29 28  2  0  0  0  0
 30 32  1  0  0  0  0
 31 30  2  0  0  0  0
 33 32  1  0  0  0  0
 34 33  2  0  0  0  0
 35 36  1  0  0  0  0
 38 39  1  6  0  0  0
 38 40  1  0  0  0  0
 38 37  1  0  0  0  0
 40 41  1  6  0  0  0
 40 43  1  0  0  0  0
 41 42  1  0  0  0  0
 44 46  1  0  0  0  0
 46 45  2  6  0  0  0
 46 43  1  0  0  0  0
 46 47  1  0  0  0  0
 48 47  1  0  0  0  0
 48 49  2  0  0  0  0
 50 51  2  0  0  0  0
 51 48  1  0  0  0  0
 52 51  1  1  0  0  0
 52 61  1  0  0  0  0
 53 55  1  0  0  0  0
 54 53  1  0  0  0  0
 55 60  1  6  0  0  0
 56 54  1  0  0  0  0
 56 57  1  0  0  0  0
 56 52  1  1  0  0  0
 57 55  1  0  0  0  0
 58 60  1  0  0  0  0
 58 59  1  0  0  0  0
 60 59  1  0  0  0  0
 62 61  1  0  0  0  0
 62 64  1  0  0  0  0
 64 63  2  0  0  0  0
M  END
>  <MODEL>
4

>  <REMARK>
 VINA RESULT:      -6.1      1.350      2.829
  Name = 
  24 active torsions:
  status: ('A' for Active; 'I' for Inactive)
    1  A    between atoms: C_1  and  C_61
    2  A    between atoms: C_2  and  C_6
    3  A    between atoms: C_2  and  C_8
    4  A    between atoms: C_5  and  C_63
    5  A    between atoms: C_7  and  O_33
    6  A    between atoms: C_7  and  C_47
    7  A    between atoms: C_7  and  C_56
    8  A    between atoms: C_8  and  C_34
    9  A    between atoms: O_10  and  C_16
   10  A    between atoms: C_11  and  C_50
   11  A    between atoms: C_16  and  C_58
   12  A    between atoms: O_18  and  C_26
   13  A    between atoms: O_18  and  P_51
   14  A    between atoms: C_26  and  C_56
   15  A    between atoms: C_31  and  C_52
   16  A    between atoms: N_32  and  C_61
   17  A    between atoms: O_33  and  C_36
   18  A    between atoms: C_34  and  O_35
   19  A    between atoms: C_34  and  O_54
   20  A    between atoms: C_36  and  C_44
   21  A    between atoms: C_38  and  C_45
   22  A    between atoms: C_40  and  C_53
   23  A    between atoms: P_51  and  O_54
   24  A    between atoms: C_55  and  C_63
                            x       y       z     vdW  Elec       q    Type
                         _______ _______ _______ _____ _____    ______ ____

>  <TORSDO>
F 24

$$$$
=
 OpenBabel11062411053D

 64 70  0  0  1  0  0  0  0  0999 V2000
  186.4840  177.9080  141.9310 C   0  0  2  0  0  3  0  0  0  0  0  0
  188.3780  177.5410  143.0620 C   0  0  0  0  0  0  0  0  0  0  0  0
  189.2800  177.3950  144.1520 N   0  0  0  0  0  1  0  0  0  0  0  0
  187.1360  177.8200  143.2330 N   0  0  0  0  0  0  0  0  0  0  0  0
  187.5480  177.3800  140.9300 C   0  0  2  0  0  3  0  0  0  0  0  0
  188.7660  177.3170  141.7190 N   0  0  0  0  0  2  0  0  0  0  0  0
  185.6250  177.6120  138.7010 O   0  0  0  0  0  0  0  0  0  0  0  0
  189.0480  179.1160  137.5300 C   0  0  0  0  0  2  0  0  0  0  0  0
  186.8320  177.6640  138.5270 C   0  0  0  0  0  0  0  0  0  0  0  0
  187.7160  178.1970  139.6350 C   0  0  2  0  0  3  0  0  0  0  0  0
  187.3920  177.2380  137.1870 C   0  0  2  0  0  0  0  0  0  0  0  0
  188.5790  178.0030  136.6060 C   0  0  1  0  0  3  0  0  0  0  0  0
  187.1690  178.2710  136.0990 C   0  0  0  0  0  2  0  0  0  0  0  0
  189.4720  178.3820  139.1370 S   0  0  0  0  0  0  0  0  0  0  0  0
  188.4640  175.1070  136.3620 C   0  0  0  0  0  3  0  0  0  0  0  0
  185.9940  173.8020  136.2450 C   0  0  0  0  0  3  0  0  0  0  0  0
  187.3050  175.7890  136.7640 C   0  0  0  0  0  0  0  0  0  0  0  0
  187.1540  173.1400  135.8430 C   0  0  0  0  0  3  0  0  0  0  0  0
  186.0680  175.1210  136.7010 C   0  0  0  0  0  3  0  0  0  0  0  0
  188.3930  173.7880  135.9000 C   0  0  0  0  0  0  0  0  0  0  0  0
  189.6130  173.0780  135.4840 C   0  0  0  0  0  0  0  0  0  0  0  0
  190.7630  173.4380  135.9860 C   0  0  0  0  0  0  0  0  0  0  0  0
  191.9150  173.7670  136.5150 C   0  0  0  0  0  0  0  0  0  0  0  0
  191.9360  174.8270  137.5830 C   0  0  1  0  0  3  0  0  0  0  0  0
  193.3490  175.2690  137.9200 C   0  0  0  0  0  2  0  0  0  0  0  0
  192.9820  176.2730  135.6950 C   0  0  0  0  0  1  0  0  0  0  0  0
  192.4580  176.2020  137.1260 C   0  0  1  0  0  3  0  0  0  0  0  0
  193.0100  171.6570  135.8810 C   0  0  0  0  0  3  0  0  0  0  0  0
  193.1010  172.9110  136.3130 C   0  0  0  0  0  3  0  0  0  0  0  0
  195.0780  170.7970  136.6730 N   0  0  0  0  0  0  0  0  0  0  0  0
  194.2010  170.8300  135.7270 C   0  0  0  0  0  3  0  0  0  0  0  0
  196.2840  169.9990  136.5240 C   0  0  0  0  0  2  0  0  0  0  0  0
  197.1120  170.5380  135.4080 C   0  0  0  0  0  3  0  0  0  0  0  0
  197.7960  171.5320  135.5790 O   0  0  0  0  0  0  0  0  0  0  0  0
  189.5750  171.9970  134.5970 O   0  0  0  0  0  0  0  0  0  0  0  0
  189.4530  170.6480  135.0280 C   0  0  0  0  0  1  0  0  0  0  0  0
  185.9990  179.3520  141.6840 C   0  0  0  0  0  2  0  0  0  0  0  0
  184.7720  179.7310  142.5200 C   0  0  2  0  0  3  0  0  0  0  0  0
  185.1490  179.7660  143.9910 C   0  0  0  0  0  1  0  0  0  0  0  0
  183.6120  178.7560  142.3010 C   0  0  1  0  0  3  0  0  0  0  0  0
  183.2730  178.1640  143.5220 O   0  0  0  0  0  0  0  0  0  0  0  0
  181.9410  178.5110  143.7370 C   0  0  0  0  0  1  0  0  0  0  0  0
  182.4960  179.4390  141.8070 O   0  0  0  0  0  0  0  0  0  0  0  0
  183.7430  179.2890  139.3210 O   0  0  0  0  0  0  0  0  0  0  0  0
  181.1820  179.7400  139.5650 O   0  0  0  0  0  1  0  0  0  0  0  0
  182.3230  178.9630  140.1850 P   0  0  2  0  0  0  0  0  0  0  0  0
  181.9800  177.2800  140.0860 O   0  0  0  0  0  0  0  0  0  0  0  0
  180.7000  176.7550  140.2870 C   0  0  0  0  0  0  0  0  0  0  0  0
  179.8650  177.3660  141.0070 O   0  0  0  0  0  0  0  0  0  0  0  0
  180.1510  174.4670  140.4520 O   0  0  0  0  0  0  0  0  0  0  0  0
  180.3290  175.4600  139.6960 C   0  0  0  0  0  0  0  0  0  0  0  0
  180.1380  175.2660  138.2150 C   0  0  2  0  0  3  0  0  0  0  0  0
  179.9620  172.4350  135.8060 C   0  0  0  0  0  2  0  0  0  0  0  0
  179.2780  173.5780  136.4930 C   0  0  0  0  0  2  0  0  0  0  0  0
  181.4170  172.6160  136.1810 C   0  0  1  0  0  3  0  0  0  0  0  0
  180.1280  173.8060  137.7280 C   0  0  1  0  0  3  0  0  0  0  0  0
  181.4750  173.2980  137.4720 N   0  0  0  0  0  2  0  0  0  0  0  0
  183.4490  171.4940  136.9990 C   0  0  0  0  0  2  0  0  0  0  0  0
  183.4560  171.3660  135.4930 C   0  0  0  0  0  2  0  0  0  0  0  0
  182.1470  171.2870  136.2560 C   0  0  0  0  0  3  0  0  0  0  0  0
  181.0240  176.0570  137.4750 O   0  0  0  0  0  0  0  0  0  0  0  0
  180.2470  177.1030  136.9760 C   0  0  0  0  0  2  0  0  0  0  0  0
  181.5960  176.6690  134.9860 C   0  0  0  0  0  2  0  0  0  0  0  0
  180.6610  177.4070  135.5750 C   0  0  0  0  0  3  0  0  0  0  0  0
  1 37  1  6  0  0  0
  1  4  1  0  0  0  0
  2  4  2  0  0  0  0
  2  3  1  0  0  0  0
  5  6  1  1  0  0  0
  5  1  1  0  0  0  0
  6  2  1  0  0  0  0
  8 14  1  0  0  0  0
  9  7  2  0  0  0  0
 10  9  1  6  0  0  0
 10  5  1  0  0  0  0
 11 17  1  6  0  0  0
 11  9  1  0  0  0  0
 12 13  1  6  0  0  0
 12 11  1  0  0  0  0
 12  8  1  0  0  0  0
 13 11  1  0  0  0  0
 14 10  1  0  0  0  0
 15 17  1  0  0  0  0
 16 19  1  0  0  0  0
 18 20  1  0  0  0  0
 18 16  2  0  0  0  0
 19 17  2  0  0  0  0
 20 15  2  0  0  0  0
 21 20  1  0  0  0  0
 21 22  2  0  0  0  0
 22 23  2  0  0  0  0
 24 23  1  6  0  0  0
 24 25  1  0  0  0  0
 27 26  1  6  0  0  0
 27 24  1  0  0  0  0
 27 25  1  0  0  0  0
 28 29  2  0  0  0  0
 29 23  1  0  0  0  0
 31 28  1  0  0  0  0
 31 30  2  0  0  0  0
 32 30  1  0  0  0  0
 33 34  2  0  0  0  0
 33 32  1  0  0  0  0
 35 36  1  0  0  0  0
 35 21  1  0  0  0  0
 37 38  1  0  0  0  0
 38 39  1  1  0  0  0
 40 43  1  1  0  0  0
 40 38  1  0  0  0  0
 40 41  1  0  0  0  0
 41 42  1  0  0  0  0
 45 46  1  0  0  0  0
 46 44  2  6  0  0  0
 46 43  1  0  0  0  0
 47 46  1  0  0  0  0
 47 48  1  0  0  0  0
 48 49  2  0  0  0  0
 51 48  1  0  0  0  0
 51 50  2  0  0  0  0
 52 61  1  6  0  0  0
 52 51  1  0  0  0  0
 53 55  1  0  0  0  0
 53 54  1  0  0  0  0
 54 56  1  0  0  0  0
 55 60  1  1  0  0  0
 55 57  1  0  0  0  0
 56 52  1  6  0  0  0
 57 56  1  0  0  0  0
 59 60  1  0  0  0  0
 59 58  1  0  0  0  0
 60 58  1  0  0  0  0
 62 61  1  0  0  0  0
 63 64  2  0  0  0  0
 64 62  1  0  0  0  0
M  END
>  <MODEL>
5

>  <REMARK>
 VINA RESULT:      -5.8      3.607      9.366
  Name = 
  24 active torsions:
  status: ('A' for Active; 'I' for Inactive)
    1  A    between atoms: C_1  and  C_61
    2  A    between atoms: C_2  and  C_6
    3  A    between atoms: C_2  and  C_8
    4  A    between atoms: C_5  and  C_63
    5  A    between atoms: C_7  and  O_33
    6  A    between atoms: C_7  and  C_47
    7  A    between atoms: C_7  and  C_56
    8  A    between atoms: C_8  and  C_34
    9  A    between atoms: O_10  and  C_16
   10  A    between atoms: C_11  and  C_50
   11  A    between atoms: C_16  and  C_58
   12  A    between atoms: O_18  and  C_26
   13  A    between atoms: O_18  and  P_51
   14  A    between atoms: C_26  and  C_56
   15  A    between atoms: C_31  and  C_52
   16  A    between atoms: N_32  and  C_61
   17  A    between atoms: O_33  and  C_36
   18  A    between atoms: C_34  and  O_35
   19  A    between atoms: C_34  and  O_54
   20  A    between atoms: C_36  and  C_44
   21  A    between atoms: C_38  and  C_45
   22  A    between atoms: C_40  and  C_53
   23  A    between atoms: P_51  and  O_54
   24  A    between atoms: C_55  and  C_63
                            x       y       z     vdW  Elec       q    Type
                         _______ _______ _______ _____ _____    ______ ____

>  <TORSDO>
F 24

$$$$
=
 OpenBabel11062411053D

 64 70  0  0  1  0  0  0  0  0999 V2000
  186.4310  174.8870  135.6370 C   0  0  2  0  0  3  0  0  0  0  0  0
  185.8460  173.7790  137.4890 C   0  0  0  0  0  0  0  0  0  0  0  0
  185.0860  173.3640  138.6170 N   0  0  0  0  0  1  0  0  0  0  0  0
  185.4300  174.6840  136.6780 N   0  0  0  0  0  0  0  0  0  0  0  0
  187.4470  173.7310  135.8480 C   0  0  2  0  0  3  0  0  0  0  0  0
  187.0760  173.1730  137.1370 N   0  0  0  0  0  2  0  0  0  0  0  0
  189.4870  173.4270  137.9620 O   0  0  0  0  0  0  0  0  0  0  0  0
  190.9740  175.7010  135.1400 C   0  0  0  0  0  2  0  0  0  0  0  0
  189.5210  174.3380  137.1500 C   0  0  0  0  0  0  0  0  0  0  0  0
  188.9350  174.1220  135.7720 C   0  0  2  0  0  3  0  0  0  0  0  0
  190.1960  175.6340  137.5430 C   0  0  2  0  0  0  0  0  0  0  0  0
  191.0010  176.3960  136.4930 C   0  0  1  0  0  3  0  0  0  0  0  0
  191.7090  175.5390  137.5330 C   0  0  0  0  0  2  0  0  0  0  0  0
  189.2410  175.5230  134.6260 S   0  0  0  0  0  0  0  0  0  0  0  0
  190.2070  176.5980  139.8760 C   0  0  0  0  0  3  0  0  0  0  0  0
  187.7770  177.9100  139.4450 C   0  0  0  0  0  3  0  0  0  0  0  0
  189.5860  176.5010  138.6220 C   0  0  0  0  0  0  0  0  0  0  0  0
  188.4030  177.9910  140.6890 C   0  0  0  0  0  3  0  0  0  0  0  0
  188.3620  177.1670  138.4180 C   0  0  0  0  0  3  0  0  0  0  0  0
  189.6200  177.3370  140.9100 C   0  0  0  0  0  0  0  0  0  0  0  0
  190.2810  177.4380  142.2220 C   0  0  0  0  0  0  0  0  0  0  0  0
  189.5520  177.4480  143.3040 C   0  0  0  0  0  0  0  0  0  0  0  0
  188.8300  177.4200  144.3970 C   0  0  0  0  0  0  0  0  0  0  0  0
  187.3430  177.2230  144.2670 C   0  0  1  0  0  3  0  0  0  0  0  0
  186.7480  176.5560  145.4950 C   0  0  0  0  0  2  0  0  0  0  0  0
  187.2620  178.8300  146.3070 C   0  0  0  0  0  1  0  0  0  0  0  0
  186.4890  178.0310  145.2620 C   0  0  1  0  0  3  0  0  0  0  0  0
  190.7060  176.7760  145.8510 C   0  0  0  0  0  3  0  0  0  0  0  0
  189.4750  177.2600  145.7140 C   0  0  0  0  0  3  0  0  0  0  0  0
  192.4950  176.1280  147.2730 N   0  0  0  0  0  0  0  0  0  0  0  0
  191.2980  176.5970  147.1720 C   0  0  0  0  0  3  0  0  0  0  0  0
  193.0900  175.9180  148.5830 C   0  0  0  0  0  2  0  0  0  0  0  0
  192.8750  177.1240  149.4340 C   0  0  0  0  0  3  0  0  0  0  0  0
  193.5190  177.2710  150.4580 O   0  0  0  0  0  0  0  0  0  0  0  0
  191.6730  177.4780  142.3480 O   0  0  0  0  0  0  0  0  0  0  0  0
  192.3460  178.4100  143.1850 C   0  0  0  0  0  1  0  0  0  0  0  0
  187.0150  176.3110  135.7410 C   0  0  0  0  0  2  0  0  0  0  0  0
  186.1280  177.3790  135.0910 C   0  0  2  0  0  3  0  0  0  0  0  0
  186.9340  178.6500  134.8810 C   0  0  0  0  0  1  0  0  0  0  0  0
  184.8890  177.6800  135.9380 C   0  0  1  0  0  3  0  0  0  0  0  0
  183.9190  176.7000  135.6960 O   0  0  0  0  0  0  0  0  0  0  0  0
  183.1910  177.1720  134.6060 C   0  0  0  0  0  1  0  0  0  0  0  0
  185.2170  177.6600  137.2980 O   0  0  0  0  0  0  0  0  0  0  0  0
  182.6210  178.6370  137.0370 O   0  0  0  0  0  0  0  0  0  0  0  0
  184.3010  179.6070  138.7850 O   0  0  0  0  0  1  0  0  0  0  0  0
  183.8820  178.3140  138.1210 P   0  0  2  0  0  0  0  0  0  0  0  0
  183.3230  177.2170  139.3230 O   0  0  0  0  0  0  0  0  0  0  0  0
  182.1220  176.5110  139.2040 C   0  0  0  0  0  0  0  0  0  0  0  0
  181.9950  175.6110  138.3320 O   0  0  0  0  0  0  0  0  0  0  0  0
  180.0350  176.0150  140.1840 O   0  0  0  0  0  0  0  0  0  0  0  0
  180.9790  176.8430  140.0690 C   0  0  0  0  0  0  0  0  0  0  0  0
  180.8880  178.1330  140.8390 C   0  0  2  0  0  3  0  0  0  0  0  0
  179.8450  181.5580  139.8250 C   0  0  0  0  0  2  0  0  0  0  0  0
  180.0920  180.5650  140.9190 C   0  0  0  0  0  2  0  0  0  0  0  0
  180.4030  180.8760  138.5950 C   0  0  1  0  0  3  0  0  0  0  0  0
  180.0100  179.2280  140.2080 C   0  0  1  0  0  3  0  0  0  0  0  0
  180.3100  179.4310  138.7910 N   0  0  0  0  0  2  0  0  0  0  0  0
  179.7550  180.1580  136.3310 C   0  0  0  0  0  2  0  0  0  0  0  0
  180.6180  181.3880  136.1690 C   0  0  0  0  0  2  0  0  0  0  0  0
  179.6560  181.2840  137.3370 C   0  0  0  0  0  3  0  0  0  0  0  0
  182.1560  178.6150  141.1850 O   0  0  0  0  0  0  0  0  0  0  0  0
  182.1550  178.6710  142.5800 C   0  0  0  0  0  2  0  0  0  0  0  0
  184.5820  178.6790  142.3100 C   0  0  0  0  0  2  0  0  0  0  0  0
  183.5320  178.9740  143.0680 C   0  0  0  0  0  3  0  0  0  0  0  0
  1 37  1  1  0  0  0
  1  5  1  0  0  0  0
  1  4  1  0  0  0  0
  2  3  1  0  0  0  0
  4  2  2  0  0  0  0
  5  6  1  1  0  0  0
  6  2  1  0  0  0  0
  9 11  1  0  0  0  0
  9  7  2  0  0  0  0
 10 14  1  6  0  0  0
 10  5  1  0  0  0  0
 10  9  1  0  0  0  0
 11 17  1  1  0  0  0
 12  8  1  6  0  0  0
 12 13  1  0  0  0  0
 12 11  1  0  0  0  0
 13 11  1  0  0  0  0
 14  8  1  0  0  0  0
 15 20  1  0  0  0  0
 16 18  1  0  0  0  0
 17 15  2  0  0  0  0
 18 20  2  0  0  0  0
 19 17  1  0  0  0  0
 19 16  2  0  0  0  0
 20 21  1  0  0  0  0
 21 35  1  0  0  0  0
 21 22  2  0  0  0  0
 22 23  2  0  0  0  0
 23 29  1  0  0  0  0
 24 23  1  1  0  0  0
 24 27  1  0  0  0  0
 24 25  1  0  0  0  0
 27 25  1  0  0  0  0
 27 26  1  1  0  0  0
 28 31  1  0  0  0  0
 29 28  2  0  0  0  0
 30 32  1  0  0  0  0
 31 30  2  0  0  0  0
 32 33  1  0  0  0  0
 33 34  2  0  0  0  0
 35 36  1  0  0  0  0
 38 39  1  1  0  0  0
 38 37  1  0  0  0  0
 38 40  1  0  0  0  0
 40 41  1  1  0  0  0
 40 43  1  0  0  0  0
 42 41  1  0  0  0  0
 43 46  1  0  0  0  0
 46 44  2  6  0  0  0
 46 45  1  0  0  0  0
 46 47  1  0  0  0  0
 48 47  1  0  0  0  0
 48 51  1  0  0  0  0
 49 48  2  0  0  0  0
 51 50  2  0  0  0  0
 52 51  1  6  0  0  0
 52 61  1  0  0  0  0
 53 54  1  0  0  0  0
 55 60  1  6  0  0  0
 55 57  1  0  0  0  0
 55 53  1  0  0  0  0
 56 52  1  1  0  0  0
 56 54  1  0  0  0  0
 57 56  1  0  0  0  0
 58 60  1  0  0  0  0
 59 58  1  0  0  0  0
 59 60  1  0  0  0  0
 61 62  1  0  0  0  0
 62 64  1  0  0  0  0
 63 64  2  0  0  0  0
M  END
>  <MODEL>
6

>  <REMARK>
 VINA RESULT:      -5.3      2.622      8.255
  Name = 
  24 active torsions:
  status: ('A' for Active; 'I' for Inactive)
    1  A    between atoms: C_1  and  C_61
    2  A    between atoms: C_2  and  C_6
    3  A    between atoms: C_2  and  C_8
    4  A    between atoms: C_5  and  C_63
    5  A    between atoms: C_7  and  O_33
    6  A    between atoms: C_7  and  C_47
    7  A    between atoms: C_7  and  C_56
    8  A    between atoms: C_8  and  C_34
    9  A    between atoms: O_10  and  C_16
   10  A    between atoms: C_11  and  C_50
   11  A    between atoms: C_16  and  C_58
   12  A    between atoms: O_18  and  C_26
   13  A    between atoms: O_18  and  P_51
   14  A    between atoms: C_26  and  C_56
   15  A    between atoms: C_31  and  C_52
   16  A    between atoms: N_32  and  C_61
   17  A    between atoms: O_33  and  C_36
   18  A    between atoms: C_34  and  O_35
   19  A    between atoms: C_34  and  O_54
   20  A    between atoms: C_36  and  C_44
   21  A    between atoms: C_38  and  C_45
   22  A    between atoms: C_40  and  C_53
   23  A    between atoms: P_51  and  O_54
   24  A    between atoms: C_55  and  C_63
                            x       y       z     vdW  Elec       q    Type
                         _______ _______ _______ _____ _____    ______ ____

>  <TORSDO>
F 24

$$$$
=
 OpenBabel11062411053D

 64 70  0  0  1  0  0  0  0  0999 V2000
  189.5320  176.3800  140.0570 C   0  0  2  0  0  3  0  0  0  0  0  0
  188.2190  178.1210  139.5660 C   0  0  0  0  0  0  0  0  0  0  0  0
  187.3770  178.9960  138.8250 N   0  0  0  0  0  1  0  0  0  0  0  0
  188.7140  177.0520  139.0540 N   0  0  0  0  0  0  0  0  0  0  0  0
  189.2310  177.1430  141.3760 C   0  0  2  0  0  3  0  0  0  0  0  0
  188.5090  178.3240  140.9360 N   0  0  0  0  0  2  0  0  0  0  0  0
  190.4450  175.4640  143.4810 O   0  0  0  0  0  0  0  0  0  0  0  0
  191.9710  179.0620  143.7500 C   0  0  0  0  0  2  0  0  0  0  0  0
  190.4520  176.6840  143.5360 C   0  0  0  0  0  0  0  0  0  0  0  0
  190.4540  177.4820  142.2490 C   0  0  2  0  0  3  0  0  0  0  0  0
  190.5090  177.3480  144.8940 C   0  0  2  0  0  0  0  0  0  0  0  0
  191.3270  178.6270  145.0570 C   0  0  1  0  0  3  0  0  0  0  0  0
  191.8870  177.2900  145.5230 C   0  0  0  0  0  2  0  0  0  0  0  0
  190.6570  179.2860  142.5160 S   0  0  0  0  0  0  0  0  0  0  0  0
  188.2000  178.0290  145.6540 C   0  0  0  0  0  3  0  0  0  0  0  0
  188.3160  176.3070  147.8530 C   0  0  0  0  0  3  0  0  0  0  0  0
  189.3340  177.2250  145.8400 C   0  0  0  0  0  0  0  0  0  0  0  0
  187.1960  177.1170  147.6590 C   0  0  0  0  0  3  0  0  0  0  0  0
  189.3810  176.3620  146.9510 C   0  0  0  0  0  3  0  0  0  0  0  0
  187.1330  177.9800  146.5590 C   0  0  0  0  0  0  0  0  0  0  0  0
  185.9440  178.8230  146.3550 C   0  0  0  0  0  0  0  0  0  0  0  0
  185.3010  178.7560  145.2210 C   0  0  0  0  0  0  0  0  0  0  0  0
  184.6280  178.6660  144.1010 C   0  0  0  0  0  0  0  0  0  0  0  0
  185.0670  177.6480  143.0820 C   0  0  1  0  0  3  0  0  0  0  0  0
  184.2630  177.7450  141.7970 C   0  0  0  0  0  2  0  0  0  0  0  0
  185.6910  179.7570  141.6980 C   0  0  0  0  0  1  0  0  0  0  0  0
  185.6980  178.2350  141.8050 C   0  0  1  0  0  3  0  0  0  0  0  0
  182.1690  178.6320  144.1660 C   0  0  0  0  0  3  0  0  0  0  0  0
  183.3020  179.3010  143.9730 C   0  0  0  0  0  3  0  0  0  0  0  0
  180.2140  179.1050  142.9030 N   0  0  0  0  0  0  0  0  0  0  0  0
  180.8760  179.2830  143.9960 C   0  0  0  0  0  3  0  0  0  0  0  0
  178.9360  179.7690  142.7060 C   0  0  0  0  0  2  0  0  0  0  0  0
  179.0820  180.8570  141.6970 C   0  0  0  0  0  3  0  0  0  0  0  0
  180.0350  180.8610  140.9360 O   0  0  0  0  0  0  0  0  0  0  0  0
  185.4530  179.6660  147.3580 O   0  0  0  0  0  0  0  0  0  0  0  0
  186.2630  180.6230  148.0270 C   0  0  0  0  0  1  0  0  0  0  0  0
  191.0100  176.3770  139.6130 C   0  0  0  0  0  2  0  0  0  0  0  0
  191.1950  176.6500  138.1170 C   0  0  2  0  0  3  0  0  0  0  0  0
  189.9160  177.2350  137.5440 C   0  0  0  0  0  1  0  0  0  0  0  0
  191.5780  175.3800  137.3510 C   0  0  1  0  0  3  0  0  0  0  0  0
  192.9110  175.0600  137.6310 O   0  0  0  0  0  0  0  0  0  0  0  0
  193.6650  175.9960  136.9260 C   0  0  0  0  0  1  0  0  0  0  0  0
  190.7660  174.3130  137.7500 O   0  0  0  0  0  0  0  0  0  0  0  0
  190.3520  172.3690  135.7990 O   0  0  0  0  0  1  0  0  0  0  0  0
  190.0480  174.9160  135.3090 O   0  0  0  0  0  0  0  0  0  0  0  0
  189.8490  173.8750  136.3880 P   0  0  2  0  0  0  0  0  0  0  0  0
  188.1780  173.7920  136.7910 O   0  0  0  0  0  0  0  0  0  0  0  0
  187.1630  174.0630  135.8690 C   0  0  0  0  0  0  0  0  0  0  0  0
  187.0630  173.3860  134.8110 O   0  0  0  0  0  0  0  0  0  0  0  0
  186.6640  176.2610  136.5630 O   0  0  0  0  0  0  0  0  0  0  0  0
  186.2250  175.1720  136.1050 C   0  0  0  0  0  0  0  0  0  0  0  0
  184.7520  175.0690  135.8110 C   0  0  2  0  0  3  0  0  0  0  0  0
  181.7220  177.2050  136.1320 C   0  0  0  0  0  2  0  0  0  0  0  0
  182.7460  176.5580  135.2500 C   0  0  0  0  0  2  0  0  0  0  0  0
  181.9830  176.5910  137.4900 C   0  0  1  0  0  3  0  0  0  0  0  0
  183.9070  176.2980  136.1910 C   0  0  1  0  0  3  0  0  0  0  0  0
  183.3940  176.2170  137.5580 N   0  0  0  0  0  2  0  0  0  0  0  0
  181.4030  176.7450  139.8760 C   0  0  0  0  0  2  0  0  0  0  0  0
  180.2250  177.2930  139.1040 C   0  0  0  0  0  2  0  0  0  0  0  0
  181.6380  177.5480  138.6160 C   0  0  0  0  0  3  0  0  0  0  0  0
  184.2080  173.8840  136.3210 O   0  0  0  0  0  0  0  0  0  0  0  0
  183.4350  173.3630  135.2820 C   0  0  0  0  0  2  0  0  0  0  0  0
  182.8610  171.6110  136.8830 C   0  0  0  0  0  2  0  0  0  0  0  0
  182.5080  172.3270  135.8210 C   0  0  0  0  0  3  0  0  0  0  0  0
  1 37  1  6  0  0  0
  1  5  1  0  0  0  0
  2  6  1  0  0  0  0
  3  2  1  0  0  0  0
  4  2  2  0  0  0  0
  4  1  1  0  0  0  0
  5  6  1  6  0  0  0
  5 10  1  0  0  0  0
  7  9  2  0  0  0  0
  9 11  1  0  0  0  0
 10 14  1  1  0  0  0
 10  9  1  0  0  0  0
 11 12  1  0  0  0  0
 11 13  1  0  0  0  0
 11 17  1  1  0  0  0
 12  8  1  6  0  0  0
 12 13  1  0  0  0  0
 14  8  1  0  0  0  0
 15 17  2  0  0  0  0
 15 20  1  0  0  0  0
 17 19  1  0  0  0  0
 18 16  1  0  0  0  0
 19 16  2  0  0  0  0
 20 18  2  0  0  0  0
 21 20  1  0  0  0  0
 21 35  1  0  0  0  0
 22 21  2  0  0  0  0
 23 22  2  0  0  0  0
 24 23  1  1  0  0  0
 25 27  1  0  0  0  0
 25 24  1  0  0  0  0
 27 26  1  1  0  0  0
 27 24  1  0  0  0  0
 29 23  1  0  0  0  0
 29 28  2  0  0  0  0
 30 31  2  0  0  0  0
 31 28  1  0  0  0  0
 32 30  1  0  0  0  0
 33 32  1  0  0  0  0
 34 33  2  0  0  0  0
 35 36  1  0  0  0  0
 38 39  1  6  0  0  0
 38 37  1  0  0  0  0
 40 41  1  1  0  0  0
 40 43  1  0  0  0  0
 40 38  1  0  0  0  0
 42 41  1  0  0  0  0
 44 46  1  0  0  0  0
 46 45  2  6  0  0  0
 46 47  1  0  0  0  0
 46 43  1  0  0  0  0
 48 51  1  0  0  0  0
 48 47  1  0  0  0  0
 49 48  2  0  0  0  0
 51 50  2  0  0  0  0
 52 51  1  1  0  0  0
 52 61  1  0  0  0  0
 53 55  1  0  0  0  0
 54 53  1  0  0  0  0
 54 56  1  0  0  0  0
 55 57  1  0  0  0  0
 55 60  1  1  0  0  0
 56 52  1  6  0  0  0
 56 57  1  0  0  0  0
 59 58  1  0  0  0  0
 60 59  1  0  0  0  0
 60 58  1  0  0  0  0
 62 64  1  0  0  0  0
 62 61  1  0  0  0  0
 64 63  2  0  0  0  0
M  END
>  <MODEL>
7

>  <REMARK>
 VINA RESULT:      -5.2      2.978      8.709
  Name = 
  24 active torsions:
  status: ('A' for Active; 'I' for Inactive)
    1  A    between atoms: C_1  and  C_61
    2  A    between atoms: C_2  and  C_6
    3  A    between atoms: C_2  and  C_8
    4  A    between atoms: C_5  and  C_63
    5  A    between atoms: C_7  and  O_33
    6  A    between atoms: C_7  and  C_47
    7  A    between atoms: C_7  and  C_56
    8  A    between atoms: C_8  and  C_34
    9  A    between atoms: O_10  and  C_16
   10  A    between atoms: C_11  and  C_50
   11  A    between atoms: C_16  and  C_58
   12  A    between atoms: O_18  and  C_26
   13  A    between atoms: O_18  and  P_51
   14  A    between atoms: C_26  and  C_56
   15  A    between atoms: C_31  and  C_52
   16  A    between atoms: N_32  and  C_61
   17  A    between atoms: O_33  and  C_36
   18  A    between atoms: C_34  and  O_35
   19  A    between atoms: C_34  and  O_54
   20  A    between atoms: C_36  and  C_44
   21  A    between atoms: C_38  and  C_45
   22  A    between atoms: C_40  and  C_53
   23  A    between atoms: P_51  and  O_54
   24  A    between atoms: C_55  and  C_63
                            x       y       z     vdW  Elec       q    Type
                         _______ _______ _______ _____ _____    ______ ____

>  <TORSDO>
F 24

$$$$
=
 OpenBabel11062411053D

 64 70  0  0  1  0  0  0  0  0999 V2000
  186.6730  175.1820  135.9540 C   0  0  2  0  0  3  0  0  0  0  0  0
  186.4290  173.4540  137.3510 C   0  0  0  0  0  0  0  0  0  0  0  0
  185.8530  172.5860  138.3190 N   0  0  0  0  0  1  0  0  0  0  0  0
  185.8260  174.5060  136.9290 N   0  0  0  0  0  0  0  0  0  0  0  0
  187.8290  174.1790  135.6860 C   0  0  2  0  0  3  0  0  0  0  0  0
  187.6710  173.1810  136.7290 N   0  0  0  0  0  2  0  0  0  0  0  0
  189.9950  173.7910  137.6550 O   0  0  0  0  0  0  0  0  0  0  0  0
  191.0230  176.7170  135.2620 C   0  0  0  0  0  2  0  0  0  0  0  0
  189.8670  174.8290  137.0240 C   0  0  0  0  0  0  0  0  0  0  0  0
  189.2460  174.7820  135.6440 C   0  0  2  0  0  3  0  0  0  0  0  0
  190.3820  176.1160  137.6310 C   0  0  2  0  0  0  0  0  0  0  0  0
  191.0250  177.1570  136.7170 C   0  0  1  0  0  3  0  0  0  0  0  0
  191.8920  176.2360  137.5650 C   0  0  0  0  0  2  0  0  0  0  0  0
  189.3050  176.3930  134.7670 S   0  0  0  0  0  0  0  0  0  0  0  0
  190.3520  176.5770  140.1120 C   0  0  0  0  0  3  0  0  0  0  0  0
  187.8040  177.7180  139.9620 C   0  0  0  0  0  3  0  0  0  0  0  0
  189.7170  176.6820  138.8660 C   0  0  0  0  0  0  0  0  0  0  0  0
  188.4460  177.6010  141.1960 C   0  0  0  0  0  3  0  0  0  0  0  0
  188.4340  177.2590  138.8030 C   0  0  0  0  0  3  0  0  0  0  0  0
  189.7210  177.0310  141.2760 C   0  0  0  0  0  0  0  0  0  0  0  0
  190.3960  176.9220  142.5800 C   0  0  0  0  0  0  0  0  0  0  0  0
  189.7890  177.3560  143.6510 C   0  0  0  0  0  0  0  0  0  0  0  0
  189.1710  177.7530  144.7350 C   0  0  0  0  0  0  0  0  0  0  0  0
  187.7570  178.2550  144.6100 C   0  0  1  0  0  3  0  0  0  0  0  0
  186.7400  177.1400  144.7860 C   0  0  0  0  0  2  0  0  0  0  0  0
  187.5860  177.4700  147.0810 C   0  0  0  0  0  1  0  0  0  0  0  0
  186.9140  178.1570  145.8960 C   0  0  1  0  0  3  0  0  0  0  0  0
  190.9540  176.9770  146.2420 C   0  0  0  0  0  3  0  0  0  0  0  0
  189.7130  177.4210  146.0670 C   0  0  0  0  0  3  0  0  0  0  0  0
  192.6850  176.3170  147.7270 N   0  0  0  0  0  0  0  0  0  0  0  0
  191.4430  176.6240  147.5700 C   0  0  0  0  0  3  0  0  0  0  0  0
  193.1830  175.9350  149.0390 C   0  0  0  0  0  2  0  0  0  0  0  0
  193.5880  177.1530  149.7990 C   0  0  0  0  0  3  0  0  0  0  0  0
  192.9880  178.2020  149.6370 O   0  0  0  0  0  0  0  0  0  0  0  0
  191.6540  176.3250  142.7140 O   0  0  0  0  0  0  0  0  0  0  0  0
  191.9300  175.3140  143.6740 C   0  0  0  0  0  1  0  0  0  0  0  0
  187.1030  176.5610  136.4970 C   0  0  0  0  0  2  0  0  0  0  0  0
  186.2960  177.7230  135.9090 C   0  0  2  0  0  3  0  0  0  0  0  0
  187.0510  179.0240  136.1200 C   0  0  0  0  0  1  0  0  0  0  0  0
  184.9030  177.8200  136.5350 C   0  0  1  0  0  3  0  0  0  0  0  0
  184.1480  176.7060  136.1510 O   0  0  0  0  0  0  0  0  0  0  0  0
  183.7770  176.9560  134.8320 C   0  0  0  0  0  1  0  0  0  0  0  0
  185.0010  177.8370  137.9310 O   0  0  0  0  0  0  0  0  0  0  0  0
  183.5370  179.9120  139.0740 O   0  0  0  0  0  0  0  0  0  0  0  0
  183.0820  177.4070  139.6550 O   0  0  0  0  0  1  0  0  0  0  0  0
  183.4770  178.3150  138.5120 P   0  0  2  0  0  0  0  0  0  0  0  0
  182.2970  178.2020  137.2660 O   0  0  0  0  0  0  0  0  0  0  0  0
  181.3590  179.2090  137.0170 C   0  0  0  0  0  0  0  0  0  0  0  0
  181.6120  180.1280  136.1940 O   0  0  0  0  0  0  0  0  0  0  0  0
  179.2860  178.2600  137.6230 O   0  0  0  0  0  0  0  0  0  0  0  0
  180.0820  179.2280  137.7490 C   0  0  0  0  0  0  0  0  0  0  0  0
  179.6830  180.3590  138.6600 C   0  0  2  0  0  3  0  0  0  0  0  0
  179.5280  184.0660  138.3720 C   0  0  0  0  0  2  0  0  0  0  0  0
  178.9350  182.7950  138.9020 C   0  0  0  0  0  2  0  0  0  0  0  0
  180.8650  183.6280  137.8160 C   0  0  1  0  0  3  0  0  0  0  0  0
  179.5070  181.7310  137.9860 C   0  0  1  0  0  3  0  0  0  0  0  0
  180.7550  182.2290  137.4090 N   0  0  0  0  0  2  0  0  0  0  0  0
  180.0630  185.1380  136.0460 C   0  0  0  0  0  2  0  0  0  0  0  0
  180.6890  183.9480  135.3550 C   0  0  0  0  0  2  0  0  0  0  0  0
  181.2920  184.4860  136.6380 C   0  0  0  0  0  3  0  0  0  0  0  0
  180.5170  180.4330  139.7830 O   0  0  0  0  0  0  0  0  0  0  0  0
  179.8580  179.7010  140.7720 C   0  0  0  0  0  2  0  0  0  0  0  0
  181.2820  179.2480  142.7040 C   0  0  0  0  0  2  0  0  0  0  0  0
  180.4130  180.0590  142.1100 C   0  0  0  0  0  3  0  0  0  0  0  0
  1 37  1  1  0  0  0
  1  4  1  0  0  0  0
  2  3  1  0  0  0  0
  4  2  2  0  0  0  0
  5  1  1  0  0  0  0
  5  6  1  1  0  0  0
  6  2  1  0  0  0  0
  9 11  1  0  0  0  0
  9  7  2  0  0  0  0
 10 14  1  1  0  0  0
 10  5  1  0  0  0  0
 10  9  1  0  0  0  0
 11 17  1  1  0  0  0
 12  8  1  6  0  0  0
 12 13  1  0  0  0  0
 12 11  1  0  0  0  0
 13 11  1  0  0  0  0
 14  8  1  0  0  0  0
 15 20  1  0  0  0  0
 16 18  1  0  0  0  0
 17 15  2  0  0  0  0
 18 20  2  0  0  0  0
 19 17  1  0  0  0  0
 19 16  2  0  0  0  0
 20 21  1  0  0  0  0
 21 35  1  0  0  0  0
 21 22  2  0  0  0  0
 22 23  2  0  0  0  0
 23 29  1  0  0  0  0
 24 23  1  1  0  0  0
 24 25  1  0  0  0  0
 24 27  1  0  0  0  0
 25 27  1  0  0  0  0
 27 26  1  1  0  0  0
 28 31  1  0  0  0  0
 29 28  2  0  0  0  0
 30 32  1  0  0  0  0
 31 30  2  0  0  0  0
 32 33  1  0  0  0  0
 34 33  2  0  0  0  0
 35 36  1  0  0  0  0
 38 39  1  1  0  0  0
 38 37  1  0  0  0  0
 38 40  1  0  0  0  0
 40 41  1  1  0  0  0
 40 43  1  0  0  0  0
 42 41  1  0  0  0  0
 43 46  1  0  0  0  0
 46 44  2  1  0  0  0
 46 45  1  0  0  0  0
 47 46  1  0  0  0  0
 48 47  1  0  0  0  0
 48 51  1  0  0  0  0
 49 48  2  0  0  0  0
 50 51  2  0  0  0  0
 52 51  1  6  0  0  0
 52 61  1  0  0  0  0
 53 54  1  0  0  0  0
 55 60  1  6  0  0  0
 55 53  1  0  0  0  0
 56 52  1  1  0  0  0
 56 54  1  0  0  0  0
 57 55  1  0  0  0  0
 57 56  1  0  0  0  0
 58 60  1  0  0  0  0
 59 58  1  0  0  0  0
 59 60  1  0  0  0  0
 61 62  1  0  0  0  0
 62 64  1  0  0  0  0
 64 63  2  0  0  0  0
M  END
>  <MODEL>
8

>  <REMARK>
 VINA RESULT:      -4.9      2.758      8.670
  Name = 
  24 active torsions:
  status: ('A' for Active; 'I' for Inactive)
    1  A    between atoms: C_1  and  C_61
    2  A    between atoms: C_2  and  C_6
    3  A    between atoms: C_2  and  C_8
    4  A    between atoms: C_5  and  C_63
    5  A    between atoms: C_7  and  O_33
    6  A    between atoms: C_7  and  C_47
    7  A    between atoms: C_7  and  C_56
    8  A    between atoms: C_8  and  C_34
    9  A    between atoms: O_10  and  C_16
   10  A    between atoms: C_11  and  C_50
   11  A    between atoms: C_16  and  C_58
   12  A    between atoms: O_18  and  C_26
   13  A    between atoms: O_18  and  P_51
   14  A    between atoms: C_26  and  C_56
   15  A    between atoms: C_31  and  C_52
   16  A    between atoms: N_32  and  C_61
   17  A    between atoms: O_33  and  C_36
   18  A    between atoms: C_34  and  O_35
   19  A    between atoms: C_34  and  O_54
   20  A    between atoms: C_36  and  C_44
   21  A    between atoms: C_38  and  C_45
   22  A    between atoms: C_40  and  C_53
   23  A    between atoms: P_51  and  O_54
   24  A    between atoms: C_55  and  C_63
                            x       y       z     vdW  Elec       q    Type
                         _______ _______ _______ _____ _____    ______ ____

>  <TORSDO>
F 24

$$$$
=
 OpenBabel11062411053D

 64 71  0  0  1  0  0  0  0  0999 V2000
  185.4510  177.0920  136.2780 C   0  0  2  0  0  3  0  0  0  0  0  0
  183.4950  177.4180  135.2460 C   0  0  0  0  0  0  0  0  0  0  0  0
  182.2980  178.0540  134.8160 N   0  0  0  0  0  1  0  0  0  0  0  0
  184.3410  178.0010  136.0170 N   0  0  0  0  0  0  0  0  0  0  0  0
  185.2200  175.9080  135.2990 C   0  0  2  0  0  3  0  0  0  0  0  0
  183.8750  176.1300  134.7970 N   0  0  0  0  0  2  0  0  0  0  0  0
  183.7340  173.4550  134.5940 O   0  0  0  0  0  0  0  0  0  0  0  0
  185.7930  172.7480  137.8500 C   0  0  0  0  0  2  0  0  0  0  0  0
  184.1680  173.6530  135.7180 C   0  0  0  0  0  0  0  0  0  0  0  0
  185.4110  174.4990  135.8910 C   0  0  2  0  0  3  0  0  0  0  0  0
  183.4690  173.0000  136.8900 C   0  0  2  0  0  0  0  0  0  0  0  0
  184.3100  172.4860  138.0570 C   0  0  1  0  0  3  0  0  0  0  0  0
  183.7740  171.5200  137.0100 C   0  0  0  0  0  2  0  0  0  0  0  0
  186.0290  174.5340  137.6190 S   0  0  1  0  0  3  0  0  0  0  0  0
  181.6200  174.7180  136.9370 C   0  0  0  0  0  3  0  0  0  0  0  0
  179.9460  173.0110  138.3850 C   0  0  0  0  0  3  0  0  0  0  0  0
  182.0670  173.4280  137.2620 C   0  0  0  0  0  0  0  0  0  0  0  0
  179.5180  174.2980  138.0600 C   0  0  0  0  0  3  0  0  0  0  0  0
  181.2140  172.5780  137.9910 C   0  0  0  0  0  3  0  0  0  0  0  0
  180.3520  175.1560  137.3350 C   0  0  0  0  0  0  0  0  0  0  0  0
  179.8890  176.5100  136.9860 C   0  0  0  0  0  0  0  0  0  0  0  0
  180.2130  177.5130  137.7560 C   0  0  0  0  0  0  0  0  0  0  0  0
  180.5670  178.5300  138.5010 C   0  0  0  0  0  0  0  0  0  0  0  0
  181.4920  178.2800  139.6610 C   0  0  1  0  0  3  0  0  0  0  0  0
  181.2240  179.2260  140.8190 C   0  0  0  0  0  2  0  0  0  0  0  0
  179.2830  177.7030  140.9010 C   0  0  0  0  0  1  0  0  0  0  0  0
  180.8070  177.7750  140.9450 C   0  0  1  0  0  3  0  0  0  0  0  0
  181.2590  180.6070  137.3800 C   0  0  0  0  0  3  0  0  0  0  0  0
  180.3360  179.9120  138.0370 C   0  0  0  0  0  3  0  0  0  0  0  0
  179.7980  182.3690  136.7450 N   0  0  0  0  0  0  0  0  0  0  0  0
  181.0080  181.9840  136.9680 C   0  0  0  0  0  3  0  0  0  0  0  0
  179.5340  183.7310  136.3080 C   0  0  0  0  0  2  0  0  0  0  0  0
  180.7220  184.5890  136.5830 C   0  0  0  0  0  3  0  0  0  0  0  0
  181.3080  185.1340  135.6630 O   0  0  0  0  0  0  0  0  0  0  0  0
  179.1460  176.7620  135.8280 O   0  0  0  0  0  0  0  0  0  0  0  0
  179.4420  177.8300  134.9390 C   0  0  0  0  0  1  0  0  0  0  0  0
  185.4820  176.7180  137.7750 C   0  0  1  0  0  3  0  0  0  0  0  0
  186.2570  177.7230  138.6350 C   0  0  2  0  0  3  0  0  0  0  0  0
  185.3620  178.9040  138.9680 C   0  0  0  0  0  1  0  0  0  0  0  0
  187.5270  178.2110  137.9330 C   0  0  1  0  0  3  0  0  0  0  0  0
  187.1960  179.2500  137.0560 O   0  0  0  0  0  0  0  0  0  0  0  0
  187.9170  178.9870  135.8930 C   0  0  0  0  0  1  0  0  0  0  0  0
  188.4440  178.6910  138.8740 O   0  0  0  0  0  0  0  0  0  0  0  0
  191.1150  178.0600  139.3470 O   0  0  0  0  0  1  0  0  0  0  0  0
  189.5490  176.5100  137.9460 O   0  0  0  0  0  0  0  0  0  0  0  0
  189.5540  177.4330  139.1440 P   0  0  2  0  0  0  0  0  0  0  0  0
  189.1200  176.5400  140.5480 O   0  0  0  0  0  0  0  0  0  0  0  0
  188.5950  177.1410  141.6960 C   0  0  0  0  0  0  0  0  0  0  0  0
  188.2620  178.3560  141.6850 O   0  0  0  0  0  0  0  0  0  0  0  0
  188.3460  175.1190  142.8830 O   0  0  0  0  0  0  0  0  0  0  0  0
  188.4690  176.3720  142.9440 C   0  0  0  0  0  0  0  0  0  0  0  0
  188.4900  177.0170  144.3040 C   0  0  2  0  0  3  0  0  0  0  0  0
  185.6720  178.8920  145.8490 C   0  0  0  0  0  2  0  0  0  0  0  0
  187.0860  178.4010  145.9350 C   0  0  0  0  0  2  0  0  0  0  0  0
  185.2760  178.5810  144.4220 C   0  0  1  0  0  3  0  0  0  0  0  0
  187.1170  177.2410  144.9600 C   0  0  1  0  0  3  0  0  0  0  0  0
  186.0550  177.4300  143.9720 N   0  0  0  0  0  2  0  0  0  0  0  0
  183.1430  179.4050  143.5130 C   0  0  0  0  0  2  0  0  0  0  0  0
  182.9890  179.3610  145.0160 C   0  0  0  0  0  2  0  0  0  0  0  0
  183.7910  178.2890  144.3020 C   0  0  0  0  0  3  0  0  0  0  0  0
  189.2680  178.1810  144.3080 O   0  0  0  0  0  0  0  0  0  0  0  0
  190.2840  177.9360  145.2320 C   0  0  0  0  0  2  0  0  0  0  0  0
  191.6830  178.1450  143.2410 C   0  0  0  0  0  2  0  0  0  0  0  0
  191.5830  177.7820  144.5150 C   0  0  0  0  0  3  0  0  0  0  0  0
  1  4  1  1  0  0  0
  1 37  1  0  0  0  0
  2  4  2  0  0  0  0
  3  2  1  0  0  0  0
  5  6  1  1  0  0  0
  5 10  1  0  0  0  0
  5  1  1  0  0  0  0
  6  2  1  0  0  0  0
  7  9  2  0  0  0  0
  8 12  1  0  0  0  0
  9 11  1  0  0  0  0
 10  9  1  1  0  0  0
 10 14  1  0  0  0  0
 11 13  1  0  0  0  0
 11 17  1  1  0  0  0
 11 12  1  0  0  0  0
 12 13  1  6  0  0  0
 14 37  1  0  0  0  0
 14  8  1  1  0  0  0
 15 17  2  0  0  0  0
 15 20  1  0  0  0  0
 17 19  1  0  0  0  0
 18 16  1  0  0  0  0
 19 16  2  0  0  0  0
 20 18  2  0  0  0  0
 21 20  1  0  0  0  0
 21 22  2  0  0  0  0
 22 23  2  0  0  0  0
 24 23  1  6  0  0  0
 24 25  1  0  0  0  0
 24 27  1  0  0  0  0
 25 27  1  0  0  0  0
 27 26  1  6  0  0  0
 28 29  2  0  0  0  0
 29 23  1  0  0  0  0
 30 31  2  0  0  0  0
 31 28  1  0  0  0  0
 32 33  1  0  0  0  0
 32 30  1  0  0  0  0
 34 33  2  0  0  0  0
 35 21  1  0  0  0  0
 36 35  1  0  0  0  0
 37 38  1  1  0  0  0
 38 39  1  6  0  0  0
 40 41  1  6  0  0  0
 40 38  1  0  0  0  0
 40 43  1  0  0  0  0
 42 41  1  0  0  0  0
 43 46  1  0  0  0  0
 46 45  2  6  0  0  0
 46 44  1  0  0  0  0
 46 47  1  0  0  0  0
 47 48  1  0  0  0  0
 48 51  1  0  0  0  0
 49 48  2  0  0  0  0
 50 51  2  0  0  0  0
 52 51  1  6  0  0  0
 52 61  1  0  0  0  0
 53 54  1  0  0  0  0
 55 60  1  1  0  0  0
 55 53  1  0  0  0  0
 56 52  1  6  0  0  0
 56 54  1  0  0  0  0
 57 55  1  0  0  0  0
 57 56  1  0  0  0  0
 58 60  1  0  0  0  0
 58 59  1  0  0  0  0
 60 59  1  0  0  0  0
 61 62  1  0  0  0  0
 63 64  2  0  0  0  0
 64 62  1  0  0  0  0
M  END
>  <MODEL>
9

>  <REMARK>
 VINA RESULT:      -4.7      3.238      9.630
  Name = 
  24 active torsions:
  status: ('A' for Active; 'I' for Inactive)
    1  A    between atoms: C_1  and  C_61
    2  A    between atoms: C_2  and  C_6
    3  A    between atoms: C_2  and  C_8
    4  A    between atoms: C_5  and  C_63
    5  A    between atoms: C_7  and  O_33
    6  A    between atoms: C_7  and  C_47
    7  A    between atoms: C_7  and  C_56
    8  A    between atoms: C_8  and  C_34
    9  A    between atoms: O_10  and  C_16
   10  A    between atoms: C_11  and  C_50
   11  A    between atoms: C_16  and  C_58
   12  A    between atoms: O_18  and  C_26
   13  A    between atoms: O_18  and  P_51
   14  A    between atoms: C_26  and  C_56
   15  A    between atoms: C_31  and  C_52
   16  A    between atoms: N_32  and  C_61
   17  A    between atoms: O_33  and  C_36
   18  A    between atoms: C_34  and  O_35
   19  A    between atoms: C_34  and  O_54
   20  A    between atoms: C_36  and  C_44
   21  A    between atoms: C_38  and  C_45
   22  A    between atoms: C_40  and  C_53
   23  A    between atoms: P_51  and  O_54
   24  A    between atoms: C_55  and  C_63
                            x       y       z     vdW  Elec       q    Type
                         _______ _______ _______ _____ _____    ______ ____

>  <TORSDO>
F 24

$$$$
