=
 OpenBabel11062416543D

 56 60  0  0  1  0  0  0  0  0999 V2000
  191.0920  175.6340  138.6220 N   0  0  0  0  0  0  0  0  0  0  0  0
  190.0300  175.4230  137.6970 C   0  0  0  0  0  0  0  0  0  0  0  0
  190.1080  174.5690  136.7760 O   0  0  0  0  0  0  0  0  0  0  0  0
  188.8790  176.3110  137.9450 C   0  0  0  0  0  0  0  0  0  0  0  0
  187.7040  176.3490  137.2700 C   0  0  0  0  0  0  0  0  0  0  0  0
  191.4660  177.1490  140.7760 S   0  0  0  0  0  0  0  0  0  0  0  0
  190.6300  176.6660  139.4830 C   0  0  0  0  0  0  0  0  0  0  0  0
  188.5230  177.9210  139.8400 C   0  0  0  0  0  2  0  0  0  0  0  0
  189.2930  177.1280  139.1020 C   0  0  0  0  0  0  0  0  0  0  0  0
  186.6410  177.3610  137.6390 C   0  0  1  0  0  3  0  0  0  0  0  0
  186.7840  178.6110  136.7890 C   0  0  0  0  0  1  0  0  0  0  0  0
  185.2200  176.8300  137.5180 C   0  0  0  0  0  2  0  0  0  0  0  0
  184.2130  177.9540  137.6910 C   0  0  0  0  0  2  0  0  0  0  0  0
  182.8200  177.4490  137.3550 C   0  0  1  0  0  3  0  0  0  0  0  0
  181.8170  178.2640  138.0250 N   0  0  0  0  0  2  0  0  0  0  0  0
  180.4960  177.8090  138.3470 C   0  0  0  0  0  0  0  0  0  0  0  0
  179.5930  178.6940  138.6210 N   0  0  0  0  0  2  0  0  0  0  0  0
  179.9330  175.5960  137.2940 C   0  0  0  0  0  3  0  0  0  0  0  0
  179.6380  174.2340  137.3960 C   0  0  0  0  0  3  0  0  0  0  0  0
  180.0920  175.7450  139.7010 C   0  0  0  0  0  3  0  0  0  0  0  0
  180.1530  176.3680  138.4440 C   0  0  0  0  0  0  0  0  0  0  0  0
  179.7950  174.3830  139.8050 C   0  0  0  0  0  0  0  0  0  0  0  0
  179.5650  173.6270  138.6520 C   0  0  0  0  0  3  0  0  0  0  0  0
  179.7340  173.7360  141.1420 C   0  0  0  0  0  1  0  0  0  0  0  0
  183.1780  176.1670  135.2020 C   0  0  0  0  0  1  0  0  0  0  0  0
  182.5640  177.3990  135.8480 C   0  0  0  0  0  2  0  0  0  0  0  0
  190.4710  176.5690  142.1610 C   0  0  0  0  0  2  0  0  0  0  0  0
  191.5650  176.4930  145.8740 C   0  0  0  0  0  2  0  0  0  0  0  0
  191.0870  177.0050  143.4790 C   0  0  2  0  0  3  0  0  0  0  0  0
  191.7450  175.5590  144.3490 S   0  0  0  0  0  0  0  0  0  0  0  0
  190.3490  177.3930  145.7150 C   0  0  1  0  0  3  0  0  0  0  0  0
  190.0680  177.6480  144.3030 N   0  0  0  0  0  0  0  0  0  0  0  0
  191.6530  179.4610  143.9590 C   0  0  0  0  0  1  0  0  0  0  0  0
  190.1910  179.0830  144.0950 C   0  0  0  0  0  2  0  0  0  0  0  0
  189.3800  176.3640  147.6860 O   0  0  0  0  0  1  0  0  0  0  0  0
  189.1020  176.8240  146.3930 C   0  0  1  0  0  3  0  0  0  0  0  0
  187.9420  177.8240  146.3870 C   0  0  2  0  0  3  0  0  0  0  0  0
  187.6650  178.2800  147.6770 O   0  0  0  0  0  1  0  0  0  0  0  0
  186.9110  176.8100  144.4630 F   0  0  0  0  0  0  0  0  0  0  0  0
  186.6780  177.2430  145.7580 C   0  0  2  0  0  3  0  0  0  0  0  0
  185.3330  178.4180  145.7840 S   0  0  0  0  0  0  0  0  0  0  0  0
  184.5810  178.2970  147.0800 O   0  0  0  0  0  0  0  0  0  0  0  0
  185.8960  179.8060  145.6590 O   0  0  0  0  0  0  0  0  0  0  0  0
  184.2710  178.0980  144.4530 N   0  0  0  0  0  2  0  0  0  0  0  0
  184.1450  179.3200  143.6730 C   0  0  2  0  0  3  0  0  0  0  0  0
  182.7000  179.5300  143.2690 C   0  0  0  0  0  2  0  0  0  0  0  0
  182.2740  178.5510  141.7890 S   0  0  0  0  0  0  0  0  0  0  0  0
  185.1470  179.2090  142.1680 S   0  0  0  0  0  0  0  0  0  0  0  0
  183.9820  178.0190  141.4560 C   0  0  0  0  0  2  0  0  0  0  0  0
  187.3660  175.1540  135.9540 S   0  0  0  0  0  0  0  0  0  0  0  0
  186.8510  173.8330  137.0960 C   0  0  0  0  0  2  0  0  0  0  0  0
  186.1310  172.7240  136.3450 C   0  0  0  0  0  2  0  0  0  0  0  0
  184.6420  173.0100  136.2680 C   0  0  0  0  0  2  0  0  0  0  0  0
  182.4500  172.0010  136.7900 C   0  0  0  0  0  2  0  0  0  0  0  0
  183.9020  172.0900  137.2150 C   0  0  0  0  0  3  0  0  0  0  0  0
  183.4080  170.8790  136.4480 C   0  0  0  0  0  2  0  0  0  0  0  0
  1  7  2  0  0  0  0
  2  4  1  0  0  0  0
  2  1  1  0  0  0  0
  3  2  2  0  0  0  0
  4  9  1  0  0  0  0
  5 10  1  0  0  0  0
  5  4  2  0  0  0  0
  6 27  1  0  0  0  0
  7  6  1  0  0  0  0
  9  7  1  0  0  0  0
  9  8  2  0  0  0  0
 10 11  1  6  0  0  0
 12 10  1  0  0  0  0
 12 13  1  0  0  0  0
 14 26  1  6  0  0  0
 14 13  1  0  0  0  0
 14 15  1  0  0  0  0
 15 16  1  0  0  0  0
 16 21  1  0  0  0  0
 16 17  2  0  0  0  0
 18 19  2  0  0  0  0
 18 21  1  0  0  0  0
 19 23  1  0  0  0  0
 20 22  1  0  0  0  0
 21 20  2  0  0  0  0
 22 24  1  0  0  0  0
 23 22  2  0  0  0  0
 25 26  1  0  0  0  0
 29 27  1  6  0  0  0
 29 32  1  0  0  0  0
 29 30  1  0  0  0  0
 30 28  1  0  0  0  0
 31 28  1  0  0  0  0
 31 36  1  6  0  0  0
 32 31  1  0  0  0  0
 33 34  1  0  0  0  0
 34 32  1  0  0  0  0
 36 35  1  1  0  0  0
 37 36  1  0  0  0  0
 37 38  1  1  0  0  0
 40 39  1  6  0  0  0
 40 41  1  0  0  0  0
 40 37  1  0  0  0  0
 41 42  2  0  0  0  0
 43 41  2  0  0  0  0
 44 41  1  0  0  0  0
 45 44  1  6  0  0  0
 46 45  1  0  0  0  0
 47 46  1  0  0  0  0
 48 45  1  0  0  0  0
 49 47  1  0  0  0  0
 49 48  1  0  0  0  0
 50 51  1  0  0  0  0
 50  5  1  0  0  0  0
 52 51  1  0  0  0  0
 53 52  1  0  0  0  0
 53 55  1  0  0  0  0
 54 55  1  0  0  0  0
 56 54  1  0  0  0  0
 56 55  1  0  0  0  0
M  END
>  <MODEL>
1

>  <REMARK>
 VINA RESULT:      -6.8      0.000      0.000
  Name = 
  21 active torsions:
  status: ('A' for Active; 'I' for Inactive)
    1  A    between atoms: C_1  and  C_12
    2  A    between atoms: C_1  and  C_45
    3  A    between atoms: N_6  and  C_39
    4  A    between atoms: C_9  and  C_18
    5  A    between atoms: C_9  and  C_37
    6  A    between atoms: C_11  and  N_28
    7  A    between atoms: C_12  and  C_27
    8  A    between atoms: C_14  and  C_20
    9  A    between atoms: C_15  and  C_40
   10  A    between atoms: C_15  and  C_54
   11  A    between atoms: C_18  and  C_52
   12  A    between atoms: C_20  and  S_46
   13  A    between atoms: C_22  and  C_39
   14  A    between atoms: C_22  and  C_54
   15  A    between atoms: C_25  and  C_48
   16  A    between atoms: N_28  and  S_31
   17  A    between atoms: C_29  and  N_42
   18  A    between atoms: S_31  and  C_52
   19  A    between atoms: C_39  and  C_56
   20  A    between atoms: C_40  and  S_55
   21  A    between atoms: C_45  and  S_55
                            x       y       z     vdW  Elec       q    Type
                         _______ _______ _______ _____ _____    ______ ____

>  <TORSDO>
F 21

$$$$
=
 OpenBabel11062416543D

 56 60  0  0  1  0  0  0  0  0999 V2000
  191.2480  175.5000  138.5640 N   0  0  0  0  0  0  0  0  0  0  0  0
  190.2430  175.2060  137.6010 C   0  0  0  0  0  0  0  0  0  0  0  0
  190.3340  174.2200  136.8230 O   0  0  0  0  0  0  0  0  0  0  0  0
  189.1330  176.1750  137.6250 C   0  0  0  0  0  0  0  0  0  0  0  0
  188.0130  176.1690  136.8630 C   0  0  0  0  0  0  0  0  0  0  0  0
  191.5610  177.3020  140.4960 S   0  0  0  0  0  0  0  0  0  0  0  0
  190.7910  176.6710  139.2270 C   0  0  0  0  0  0  0  0  0  0  0  0
  188.7420  178.0670  139.2320 C   0  0  0  0  0  2  0  0  0  0  0  0
  189.5140  177.1350  138.6790 C   0  0  0  0  0  0  0  0  0  0  0  0
  186.9880  177.2760  136.9960 C   0  0  1  0  0  3  0  0  0  0  0  0
  186.7350  177.9250  135.6480 C   0  0  0  0  0  1  0  0  0  0  0  0
  185.6650  176.8190  137.5920 C   0  0  0  0  0  2  0  0  0  0  0  0
  184.5050  177.2640  136.7190 C   0  0  0  0  0  2  0  0  0  0  0  0
  183.4230  177.8870  137.5840 C   0  0  1  0  0  3  0  0  0  0  0  0
  182.1180  177.3610  137.2110 N   0  0  0  0  0  2  0  0  0  0  0  0
  180.8970  178.1090  137.2920 C   0  0  0  0  0  0  0  0  0  0  0  0
  179.7780  177.4590  137.2680 N   0  0  0  0  0  2  0  0  0  0  0  0
  181.0370  180.2890  138.5370 C   0  0  0  0  0  3  0  0  0  0  0  0
  181.0410  181.6870  138.5570 C   0  0  0  0  0  3  0  0  0  0  0  0
  180.7350  180.3220  136.1390 C   0  0  0  0  0  3  0  0  0  0  0  0
  180.8740  179.5920  137.3300 C   0  0  0  0  0  0  0  0  0  0  0  0
  180.7380  181.7200  136.1570 C   0  0  0  0  0  0  0  0  0  0  0  0
  180.8880  182.4030  137.3680 C   0  0  0  0  0  3  0  0  0  0  0  0
  180.5900  182.4800  134.8880 C   0  0  0  0  0  1  0  0  0  0  0  0
  182.8310  176.5760  139.6670 C   0  0  0  0  0  1  0  0  0  0  0  0
  183.6830  177.6890  139.0780 C   0  0  0  0  0  2  0  0  0  0  0  0
  190.4390  176.9860  141.8700 C   0  0  0  0  0  2  0  0  0  0  0  0
  191.6480  176.4850  145.5140 C   0  0  0  0  0  2  0  0  0  0  0  0
  191.1310  177.2500  143.1950 C   0  0  2  0  0  3  0  0  0  0  0  0
  191.7030  175.6850  143.9040 S   0  0  0  0  0  0  0  0  0  0  0  0
  190.5010  177.4840  145.4850 C   0  0  1  0  0  3  0  0  0  0  0  0
  190.1930  177.8890  144.1140 N   0  0  0  0  0  0  0  0  0  0  0  0
  191.9070  179.6150  144.0870 C   0  0  0  0  0  1  0  0  0  0  0  0
  190.4200  179.3240  144.0310 C   0  0  0  0  0  2  0  0  0  0  0  0
  189.5330  175.9590  147.1030 O   0  0  0  0  0  1  0  0  0  0  0  0
  189.2370  176.9500  146.1600 C   0  0  1  0  0  3  0  0  0  0  0  0
  188.3940  178.0740  146.7670 C   0  0  2  0  0  3  0  0  0  0  0  0
  189.0080  178.6040  147.9040 O   0  0  0  0  0  1  0  0  0  0  0  0
  186.6790  176.4060  146.5070 F   0  0  0  0  0  0  0  0  0  0  0  0
  186.9760  177.6200  147.1040 C   0  0  2  0  0  3  0  0  0  0  0  0
  185.7670  178.8500  146.6410 S   0  0  0  0  0  0  0  0  0  0  0  0
  184.3830  178.3180  146.8890 O   0  0  0  0  0  0  0  0  0  0  0  0
  185.9850  180.0850  147.4700 O   0  0  0  0  0  0  0  0  0  0  0  0
  185.9590  179.2330  144.9620 N   0  0  0  0  0  2  0  0  0  0  0  0
  185.5390  178.0770  144.1850 C   0  0  2  0  0  3  0  0  0  0  0  0
  186.6830  177.5910  143.3190 C   0  0  0  0  0  2  0  0  0  0  0  0
  186.8140  178.5650  141.7820 S   0  0  0  0  0  0  0  0  0  0  0  0
  184.1530  178.5160  143.1040 S   0  0  0  0  0  0  0  0  0  0  0  0
  185.2610  179.4780  142.0420 C   0  0  0  0  0  2  0  0  0  0  0  0
  187.6960  174.8090  135.7120 S   0  0  0  0  0  0  0  0  0  0  0  0
  187.0140  173.7040  136.9900 C   0  0  0  0  0  2  0  0  0  0  0  0
  185.7340  173.0460  136.5030 C   0  0  0  0  0  2  0  0  0  0  0  0
  185.3250  173.6060  135.1530 C   0  0  0  0  0  2  0  0  0  0  0  0
  183.1560  173.0480  136.1940 C   0  0  0  0  0  2  0  0  0  0  0  0
  183.8790  173.2510  134.8770 C   0  0  0  0  0  3  0  0  0  0  0  0
  182.9850  174.3440  135.4290 C   0  0  0  0  0  2  0  0  0  0  0  0
  1  7  2  0  0  0  0
  2  4  1  0  0  0  0
  2  1  1  0  0  0  0
  3  2  2  0  0  0  0
  4  9  1  0  0  0  0
  5 10  1  0  0  0  0
  5  4  2  0  0  0  0
  6 27  1  0  0  0  0
  7  6  1  0  0  0  0
  9  7  1  0  0  0  0
  9  8  2  0  0  0  0
 10 11  1  6  0  0  0
 10 12  1  0  0  0  0
 13 12  1  0  0  0  0
 14 13  1  6  0  0  0
 14 26  1  0  0  0  0
 15 16  1  0  0  0  0
 15 14  1  0  0  0  0
 16 21  1  0  0  0  0
 17 16  2  0  0  0  0
 18 19  1  0  0  0  0
 20 22  2  0  0  0  0
 20 21  1  0  0  0  0
 21 18  2  0  0  0  0
 22 23  1  0  0  0  0
 23 19  2  0  0  0  0
 24 22  1  0  0  0  0
 26 25  1  0  0  0  0
 29 27  1  6  0  0  0
 29 30  1  0  0  0  0
 29 32  1  0  0  0  0
 30 28  1  0  0  0  0
 31 28  1  0  0  0  0
 31 36  1  6  0  0  0
 32 31  1  0  0  0  0
 34 33  1  0  0  0  0
 34 32  1  0  0  0  0
 36 37  1  0  0  0  0
 36 35  1  1  0  0  0
 37 40  1  0  0  0  0
 37 38  1  1  0  0  0
 40 39  1  6  0  0  0
 41 42  2  0  0  0  0
 41 40  1  0  0  0  0
 41 43  2  0  0  0  0
 44 41  1  0  0  0  0
 45 44  1  6  0  0  0
 46 45  1  0  0  0  0
 47 49  1  0  0  0  0
 47 46  1  0  0  0  0
 48 45  1  0  0  0  0
 49 48  1  0  0  0  0
 50  5  1  0  0  0  0
 50 51  1  0  0  0  0
 52 51  1  0  0  0  0
 53 52  1  0  0  0  0
 55 53  1  0  0  0  0
 55 56  1  0  0  0  0
 55 54  1  0  0  0  0
 56 54  1  0  0  0  0
M  END
>  <MODEL>
2

>  <REMARK>
 VINA RESULT:      -6.7      1.795      3.088
  Name = 
  21 active torsions:
  status: ('A' for Active; 'I' for Inactive)
    1  A    between atoms: C_1  and  C_12
    2  A    between atoms: C_1  and  C_45
    3  A    between atoms: N_6  and  C_39
    4  A    between atoms: C_9  and  C_18
    5  A    between atoms: C_9  and  C_37
    6  A    between atoms: C_11  and  N_28
    7  A    between atoms: C_12  and  C_27
    8  A    between atoms: C_14  and  C_20
    9  A    between atoms: C_15  and  C_40
   10  A    between atoms: C_15  and  C_54
   11  A    between atoms: C_18  and  C_52
   12  A    between atoms: C_20  and  S_46
   13  A    between atoms: C_22  and  C_39
   14  A    between atoms: C_22  and  C_54
   15  A    between atoms: C_25  and  C_48
   16  A    between atoms: N_28  and  S_31
   17  A    between atoms: C_29  and  N_42
   18  A    between atoms: S_31  and  C_52
   19  A    between atoms: C_39  and  C_56
   20  A    between atoms: C_40  and  S_55
   21  A    between atoms: C_45  and  S_55
                            x       y       z     vdW  Elec       q    Type
                         _______ _______ _______ _____ _____    ______ ____

>  <TORSDO>
F 21

$$$$
=
 OpenBabel11062416543D

 56 60  0  0  1  0  0  0  0  0999 V2000
  191.1510  175.5880  138.6140 N   0  0  0  0  0  0  0  0  0  0  0  0
  190.1270  175.3080  137.6670 C   0  0  0  0  0  0  0  0  0  0  0  0
  190.2130  174.3510  136.8550 O   0  0  0  0  0  0  0  0  0  0  0  0
  189.0030  176.2580  137.7520 C   0  0  0  0  0  0  0  0  0  0  0  0
  187.8630  176.2590  137.0180 C   0  0  0  0  0  0  0  0  0  0  0  0
  191.4860  177.3300  140.5970 S   0  0  0  0  0  0  0  0  0  0  0  0
  190.6930  176.7290  139.3270 C   0  0  0  0  0  0  0  0  0  0  0  0
  188.6230  178.0900  139.4290 C   0  0  0  0  0  2  0  0  0  0  0  0
  189.3950  177.1900  138.8270 C   0  0  0  0  0  0  0  0  0  0  0  0
  186.8260  177.3440  137.2140 C   0  0  1  0  0  3  0  0  0  0  0  0
  187.0540  178.4760  136.2280 C   0  0  0  0  0  1  0  0  0  0  0  0
  185.3910  176.8510  137.0890 C   0  0  0  0  0  2  0  0  0  0  0  0
  184.8390  177.1590  135.7090 C   0  0  0  0  0  2  0  0  0  0  0  0
  183.3820  176.7330  135.6340 C   0  0  1  0  0  3  0  0  0  0  0  0
  182.5490  177.8620  135.2450 N   0  0  0  0  0  2  0  0  0  0  0  0
  181.5940  178.4910  136.1090 C   0  0  0  0  0  0  0  0  0  0  0  0
  180.6840  179.2400  135.5740 N   0  0  0  0  0  2  0  0  0  0  0  0
  182.4860  179.2070  138.3480 C   0  0  0  0  0  3  0  0  0  0  0  0
  182.5170  179.1010  139.7420 C   0  0  0  0  0  3  0  0  0  0  0  0
  180.8420  177.4370  138.2490 C   0  0  0  0  0  3  0  0  0  0  0  0
  181.6570  178.3700  137.5870 C   0  0  0  0  0  0  0  0  0  0  0  0
  180.8730  177.3290  139.6420 C   0  0  0  0  0  0  0  0  0  0  0  0
  181.7130  178.1610  140.3890 C   0  0  0  0  0  3  0  0  0  0  0  0
  180.0050  176.3380  140.3300 C   0  0  0  0  0  1  0  0  0  0  0  0
  181.7820  174.9390  134.8420 C   0  0  0  0  0  1  0  0  0  0  0  0
  183.1680  175.5480  134.6930 C   0  0  0  0  0  2  0  0  0  0  0  0
  190.4040  176.9500  141.9870 C   0  0  0  0  0  2  0  0  0  0  0  0
  191.6510  176.4580  145.6190 C   0  0  0  0  0  2  0  0  0  0  0  0
  191.1140  177.2160  143.3020 C   0  0  2  0  0  3  0  0  0  0  0  0
  191.6800  175.6490  144.0130 S   0  0  0  0  0  0  0  0  0  0  0  0
  190.5140  177.4660  145.5980 C   0  0  1  0  0  3  0  0  0  0  0  0
  190.1930  177.8670  144.2290 N   0  0  0  0  0  0  0  0  0  0  0  0
  191.9210  179.5680  144.0290 C   0  0  0  0  0  1  0  0  0  0  0  0
  190.4330  179.3000  144.1360 C   0  0  0  0  0  2  0  0  0  0  0  0
  189.5550  175.9940  147.2700 O   0  0  0  0  0  1  0  0  0  0  0  0
  189.2530  176.9470  146.2910 C   0  0  1  0  0  3  0  0  0  0  0  0
  188.4000  178.0870  146.8560 C   0  0  2  0  0  3  0  0  0  0  0  0
  189.0020  178.6530  147.9810 O   0  0  0  0  0  1  0  0  0  0  0  0
  186.6680  176.4410  146.5720 F   0  0  0  0  0  0  0  0  0  0  0  0
  186.9810  177.6380  147.1940 C   0  0  2  0  0  3  0  0  0  0  0  0
  185.7790  178.8890  146.7690 S   0  0  0  0  0  0  0  0  0  0  0  0
  184.3950  178.3800  147.0610 O   0  0  0  0  0  0  0  0  0  0  0  0
  186.0450  180.1190  147.5900 O   0  0  0  0  0  0  0  0  0  0  0  0
  185.9250  179.2690  145.0850 N   0  0  0  0  0  2  0  0  0  0  0  0
  185.4880  178.1100  144.3220 C   0  0  2  0  0  3  0  0  0  0  0  0
  186.6210  177.6060  143.4500 C   0  0  0  0  0  2  0  0  0  0  0  0
  186.7480  178.5650  141.9040 S   0  0  0  0  0  0  0  0  0  0  0  0
  184.0980  178.5530  143.2480 S   0  0  0  0  0  0  0  0  0  0  0  0
  185.2050  179.4950  142.1680 C   0  0  0  0  0  2  0  0  0  0  0  0
  187.5380  174.9320  135.8310 S   0  0  0  0  0  0  0  0  0  0  0  0
  186.5470  173.9440  136.9970 C   0  0  0  0  0  2  0  0  0  0  0  0
  186.8290  172.4610  136.8200 C   0  0  0  0  0  2  0  0  0  0  0  0
  185.7410  171.8060  135.9880 C   0  0  0  0  0  2  0  0  0  0  0  0
  183.3060  171.8510  135.5840 C   0  0  0  0  0  2  0  0  0  0  0  0
  184.3920  172.0810  136.6160 C   0  0  0  0  0  3  0  0  0  0  0  0
  183.5830  170.7990  136.6380 C   0  0  0  0  0  2  0  0  0  0  0  0
  1  7  2  0  0  0  0
  2  4  1  0  0  0  0
  2  1  1  0  0  0  0
  3  2  2  0  0  0  0
  4  9  1  0  0  0  0
  5 10  1  0  0  0  0
  5  4  2  0  0  0  0
  6 27  1  0  0  0  0
  7  6  1  0  0  0  0
  9  7  1  0  0  0  0
  9  8  2  0  0  0  0
 10 11  1  6  0  0  0
 12 10  1  0  0  0  0
 13 12  1  0  0  0  0
 14 26  1  6  0  0  0
 14 13  1  0  0  0  0
 15 14  1  0  0  0  0
 15 16  1  0  0  0  0
 16 21  1  0  0  0  0
 17 16  2  0  0  0  0
 18 19  1  0  0  0  0
 19 23  2  0  0  0  0
 20 22  2  0  0  0  0
 21 20  1  0  0  0  0
 21 18  2  0  0  0  0
 22 24  1  0  0  0  0
 22 23  1  0  0  0  0
 26 25  1  0  0  0  0
 29 27  1  6  0  0  0
 29 30  1  0  0  0  0
 29 32  1  0  0  0  0
 30 28  1  0  0  0  0
 31 28  1  0  0  0  0
 31 36  1  6  0  0  0
 32 31  1  0  0  0  0
 33 34  1  0  0  0  0
 34 32  1  0  0  0  0
 36 37  1  0  0  0  0
 36 35  1  1  0  0  0
 37 40  1  0  0  0  0
 37 38  1  1  0  0  0
 40 39  1  6  0  0  0
 41 42  2  0  0  0  0
 41 40  1  0  0  0  0
 41 43  2  0  0  0  0
 44 41  1  0  0  0  0
 45 44  1  6  0  0  0
 46 45  1  0  0  0  0
 47 49  1  0  0  0  0
 47 46  1  0  0  0  0
 48 45  1  0  0  0  0
 49 48  1  0  0  0  0
 50 51  1  0  0  0  0
 50  5  1  0  0  0  0
 52 51  1  0  0  0  0
 53 55  1  0  0  0  0
 53 52  1  0  0  0  0
 54 55  1  0  0  0  0
 54 56  1  0  0  0  0
 55 56  1  0  0  0  0
M  END
>  <MODEL>
3

>  <REMARK>
 VINA RESULT:      -6.7      1.448      2.061
  Name = 
  21 active torsions:
  status: ('A' for Active; 'I' for Inactive)
    1  A    between atoms: C_1  and  C_12
    2  A    between atoms: C_1  and  C_45
    3  A    between atoms: N_6  and  C_39
    4  A    between atoms: C_9  and  C_18
    5  A    between atoms: C_9  and  C_37
    6  A    between atoms: C_11  and  N_28
    7  A    between atoms: C_12  and  C_27
    8  A    between atoms: C_14  and  C_20
    9  A    between atoms: C_15  and  C_40
   10  A    between atoms: C_15  and  C_54
   11  A    between atoms: C_18  and  C_52
   12  A    between atoms: C_20  and  S_46
   13  A    between atoms: C_22  and  C_39
   14  A    between atoms: C_22  and  C_54
   15  A    between atoms: C_25  and  C_48
   16  A    between atoms: N_28  and  S_31
   17  A    between atoms: C_29  and  N_42
   18  A    between atoms: S_31  and  C_52
   19  A    between atoms: C_39  and  C_56
   20  A    between atoms: C_40  and  S_55
   21  A    between atoms: C_45  and  S_55
                            x       y       z     vdW  Elec       q    Type
                         _______ _______ _______ _____ _____    ______ ____

>  <TORSDO>
F 21

$$$$
=
 OpenBabel11062416543D

 56 60  0  0  1  0  0  0  0  0999 V2000
  184.6720  178.2130  144.6850 N   0  0  0  0  0  0  0  0  0  0  0  0
  185.9870  177.6780  144.5840 C   0  0  0  0  0  0  0  0  0  0  0  0
  186.5450  177.0930  145.5490 O   0  0  0  0  0  0  0  0  0  0  0  0
  186.5900  177.9040  143.2580 C   0  0  0  0  0  0  0  0  0  0  0  0
  187.8090  177.5010  142.8240 C   0  0  0  0  0  0  0  0  0  0  0  0
  182.9730  179.4100  143.0250 S   0  0  0  0  0  0  0  0  0  0  0  0
  184.4110  178.7900  143.4130 C   0  0  0  0  0  0  0  0  0  0  0  0
  185.5310  178.8900  141.2040 C   0  0  0  0  0  2  0  0  0  0  0  0
  185.5560  178.6460  142.5110 C   0  0  0  0  0  0  0  0  0  0  0  0
  188.2840  177.8590  141.4320 C   0  0  1  0  0  3  0  0  0  0  0  0
  188.9930  179.2010  141.4450 C   0  0  0  0  0  1  0  0  0  0  0  0
  189.1980  176.8130  140.8090 C   0  0  0  0  0  2  0  0  0  0  0  0
  190.2730  177.4770  139.9670 C   0  0  0  0  0  2  0  0  0  0  0  0
  190.0620  177.1340  138.5020 C   0  0  1  0  0  3  0  0  0  0  0  0
  189.7230  175.7250  138.3620 N   0  0  0  0  0  2  0  0  0  0  0  0
  190.4380  174.8050  137.5270 C   0  0  0  0  0  0  0  0  0  0  0  0
  189.8640  173.6900  137.2120 N   0  0  0  0  0  2  0  0  0  0  0  0
  192.0900  175.7480  135.8830 C   0  0  0  0  0  3  0  0  0  0  0  0
  193.4040  176.0050  135.4820 C   0  0  0  0  0  3  0  0  0  0  0  0
  192.9100  174.6460  137.8720 C   0  0  0  0  0  3  0  0  0  0  0  0
  191.8290  175.0580  137.0760 C   0  0  0  0  0  0  0  0  0  0  0  0
  194.2250  174.9000  137.4710 C   0  0  0  0  0  0  0  0  0  0  0  0
  194.4720  175.5780  136.2740 C   0  0  0  0  0  3  0  0  0  0  0  0
  195.3600  174.4590  138.3240 C   0  0  0  0  0  1  0  0  0  0  0  0
  189.1520  178.0580  136.3290 C   0  0  0  0  0  1  0  0  0  0  0  0
  189.0030  178.0170  137.8420 C   0  0  0  0  0  2  0  0  0  0  0  0
  182.3300  178.2520  141.8040 C   0  0  0  0  0  2  0  0  0  0  0  0
  178.9310  178.4940  139.9660 C   0  0  0  0  0  2  0  0  0  0  0  0
  181.1360  178.8480  141.0800 C   0  0  2  0  0  3  0  0  0  0  0  0
  179.6390  177.9280  141.5190 S   0  0  0  0  0  0  0  0  0  0  0  0
  180.0680  178.5990  138.9610 C   0  0  1  0  0  3  0  0  0  0  0  0
  181.3520  178.7700  139.6390 N   0  0  0  0  0  0  0  0  0  0  0  0
  183.3270  179.8830  138.7550 C   0  0  0  0  0  1  0  0  0  0  0  0
  181.8920  180.0530  139.2150 C   0  0  0  0  0  2  0  0  0  0  0  0
  178.9490  177.2310  137.3010 O   0  0  0  0  0  1  0  0  0  0  0  0
  180.1380  177.3950  138.0210 C   0  0  1  0  0  3  0  0  0  0  0  0
  181.3550  177.4620  137.0950 C   0  0  2  0  0  3  0  0  0  0  0  0
  181.1050  178.2890  135.9970 O   0  0  0  0  0  1  0  0  0  0  0  0
  181.0560  175.0780  137.2160 F   0  0  0  0  0  0  0  0  0  0  0  0
  181.7990  176.0820  136.6180 C   0  0  2  0  0  3  0  0  0  0  0  0
  183.5420  175.8180  136.9060 S   0  0  0  0  0  0  0  0  0  0  0  0
  184.3270  176.9760  136.3560 O   0  0  0  0  0  0  0  0  0  0  0  0
  183.7800  175.7100  138.3860 O   0  0  0  0  0  0  0  0  0  0  0  0
  184.0320  174.3500  136.1280 N   0  0  0  0  0  2  0  0  0  0  0  0
  184.3350  173.3720  137.1620 C   0  0  2  0  0  3  0  0  0  0  0  0
  185.8040  173.0050  137.1130 C   0  0  0  0  0  2  0  0  0  0  0  0
  186.1320  171.7430  135.8360 S   0  0  0  0  0  0  0  0  0  0  0  0
  183.3630  171.8650  136.9050 S   0  0  0  0  0  0  0  0  0  0  0  0
  184.3770  171.4310  135.4690 C   0  0  0  0  0  2  0  0  0  0  0  0
  188.8670  176.4840  143.8830 S   0  0  0  0  0  0  0  0  0  0  0  0
  189.8450  177.8930  144.4960 C   0  0  0  0  0  2  0  0  0  0  0  0
  189.6600  178.0640  145.9950 C   0  0  0  0  0  2  0  0  0  0  0  0
  190.1840  176.8490  146.7400 C   0  0  0  0  0  2  0  0  0  0  0  0
  192.2520  175.9430  147.7390 C   0  0  0  0  0  2  0  0  0  0  0  0
  191.6930  176.7970  146.6190 C   0  0  0  0  0  3  0  0  0  0  0  0
  192.1200  175.3690  146.3440 C   0  0  0  0  0  2  0  0  0  0  0  0
  2  1  1  0  0  0  0
  2  3  2  0  0  0  0
  4  2  1  0  0  0  0
  5  4  2  0  0  0  0
  5 50  1  0  0  0  0
  6  7  1  0  0  0  0
  7  1  2  0  0  0  0
  8  9  2  0  0  0  0
  9  4  1  0  0  0  0
  9  7  1  0  0  0  0
 10 11  1  1  0  0  0
 10  5  1  0  0  0  0
 12 10  1  0  0  0  0
 13 12  1  0  0  0  0
 14 26  1  1  0  0  0
 14 13  1  0  0  0  0
 15 14  1  0  0  0  0
 16 15  1  0  0  0  0
 17 16  2  0  0  0  0
 18 21  1  0  0  0  0
 19 18  2  0  0  0  0
 19 23  1  0  0  0  0
 21 16  1  0  0  0  0
 21 20  2  0  0  0  0
 22 20  1  0  0  0  0
 22 24  1  0  0  0  0
 23 22  2  0  0  0  0
 25 26  1  0  0  0  0
 27  6  1  0  0  0  0
 28 30  1  0  0  0  0
 29 30  1  0  0  0  0
 29 27  1  1  0  0  0
 31 36  1  1  0  0  0
 31 32  1  0  0  0  0
 31 28  1  0  0  0  0
 32 29  1  0  0  0  0
 33 34  1  0  0  0  0
 34 32  1  0  0  0  0
 36 35  1  6  0  0  0
 37 38  1  6  0  0  0
 37 36  1  0  0  0  0
 40 41  1  0  0  0  0
 40 37  1  0  0  0  0
 40 39  1  1  0  0  0
 41 43  2  0  0  0  0
 42 41  2  0  0  0  0
 44 41  1  0  0  0  0
 45 44  1  6  0  0  0
 46 45  1  0  0  0  0
 47 46  1  0  0  0  0
 48 45  1  0  0  0  0
 49 47  1  0  0  0  0
 49 48  1  0  0  0  0
 50 51  1  0  0  0  0
 51 52  1  0  0  0  0
 52 53  1  0  0  0  0
 55 53  1  0  0  0  0
 55 54  1  0  0  0  0
 56 55  1  0  0  0  0
 56 54  1  0  0  0  0
M  END
>  <MODEL>
4

>  <REMARK>
 VINA RESULT:      -6.3      3.572     10.432
  Name = 
  21 active torsions:
  status: ('A' for Active; 'I' for Inactive)
    1  A    between atoms: C_1  and  C_12
    2  A    between atoms: C_1  and  C_45
    3  A    between atoms: N_6  and  C_39
    4  A    between atoms: C_9  and  C_18
    5  A    between atoms: C_9  and  C_37
    6  A    between atoms: C_11  and  N_28
    7  A    between atoms: C_12  and  C_27
    8  A    between atoms: C_14  and  C_20
    9  A    between atoms: C_15  and  C_40
   10  A    between atoms: C_15  and  C_54
   11  A    between atoms: C_18  and  C_52
   12  A    between atoms: C_20  and  S_46
   13  A    between atoms: C_22  and  C_39
   14  A    between atoms: C_22  and  C_54
   15  A    between atoms: C_25  and  C_48
   16  A    between atoms: N_28  and  S_31
   17  A    between atoms: C_29  and  N_42
   18  A    between atoms: S_31  and  C_52
   19  A    between atoms: C_39  and  C_56
   20  A    between atoms: C_40  and  S_55
   21  A    between atoms: C_45  and  S_55
                            x       y       z     vdW  Elec       q    Type
                         _______ _______ _______ _____ _____    ______ ____

>  <TORSDO>
F 21

$$$$
=
 OpenBabel11062416543D

 56 60  0  0  1  0  0  0  0  0999 V2000
  191.9290  176.9270  139.4100 N   0  0  0  0  0  0  0  0  0  0  0  0
  191.5590  177.4210  140.6920 C   0  0  0  0  0  0  0  0  0  0  0  0
  192.4160  177.7910  141.5370 O   0  0  0  0  0  0  0  0  0  0  0  0
  190.0990  177.4280  140.8970 C   0  0  0  0  0  0  0  0  0  0  0  0
  189.4190  177.8580  141.9870 C   0  0  0  0  0  0  0  0  0  0  0  0
  190.6280  176.1310  137.2300 S   0  0  0  0  0  0  0  0  0  0  0  0
  190.7000  176.6110  138.7690 C   0  0  0  0  0  0  0  0  0  0  0  0
  188.2830  176.8890  139.2460 C   0  0  0  0  0  2  0  0  0  0  0  0
  189.5540  176.8800  139.6400 C   0  0  0  0  0  0  0  0  0  0  0  0
  187.9090  177.7530  142.0400 C   0  0  1  0  0  3  0  0  0  0  0  0
  187.4410  177.6100  143.4770 C   0  0  0  0  0  1  0  0  0  0  0  0
  187.1900  178.9270  141.3920 C   0  0  0  0  0  2  0  0  0  0  0  0
  186.0640  179.4220  142.2830 C   0  0  0  0  0  2  0  0  0  0  0  0
  184.7250  179.1020  141.6410 C   0  0  1  0  0  3  0  0  0  0  0  0
  184.9250  178.6020  140.2880 N   0  0  0  0  0  2  0  0  0  0  0  0
  183.8940  178.5390  139.2940 C   0  0  0  0  0  0  0  0  0  0  0  0
  184.0810  177.7790  138.2640 N   0  0  0  0  0  2  0  0  0  0  0  0
  181.6240  179.0340  140.2550 C   0  0  0  0  0  3  0  0  0  0  0  0
  180.4810  179.8350  140.3400 C   0  0  0  0  0  3  0  0  0  0  0  0
  182.5450  180.5240  138.5880 C   0  0  0  0  0  3  0  0  0  0  0  0
  182.6630  179.3640  139.3720 C   0  0  0  0  0  0  0  0  0  0  0  0
  181.4020  181.3240  138.6710 C   0  0  0  0  0  0  0  0  0  0  0  0
  180.3680  180.9780  139.5460 C   0  0  0  0  0  3  0  0  0  0  0  0
  181.2910  182.5490  137.8360 C   0  0  0  0  0  1  0  0  0  0  0  0
  183.2360  178.7860  143.6630 C   0  0  0  0  0  1  0  0  0  0  0  0
  183.8990  178.1180  142.4690 C   0  0  0  0  0  2  0  0  0  0  0  0
  189.8510  177.5230  136.3900 C   0  0  0  0  0  2  0  0  0  0  0  0
  186.5020  176.5140  134.7300 C   0  0  0  0  0  2  0  0  0  0  0  0
  188.8640  177.0320  135.3460 C   0  0  2  0  0  3  0  0  0  0  0  0
  187.2940  177.9160  135.5310 S   0  0  0  0  0  0  0  0  0  0  0  0
  187.2730  175.2660  135.1310 C   0  0  1  0  0  3  0  0  0  0  0  0
  188.6420  175.6000  135.5220 N   0  0  0  0  0  0  0  0  0  0  0  0
  189.2600  173.4190  134.6380 C   0  0  0  0  0  1  0  0  0  0  0  0
  189.5310  174.9110  134.5980 C   0  0  0  0  0  2  0  0  0  0  0  0
  186.6390  175.1860  137.4710 O   0  0  0  0  0  1  0  0  0  0  0  0
  186.5920  174.4880  136.2580 C   0  0  1  0  0  3  0  0  0  0  0  0
  185.1600  174.0890  135.8920 C   0  0  2  0  0  3  0  0  0  0  0  0
  184.2670  175.1320  136.1460 O   0  0  0  0  0  1  0  0  0  0  0  0
  185.6170  171.7950  136.4580 F   0  0  0  0  0  0  0  0  0  0  0  0
  184.7050  172.8250  136.6180 C   0  0  2  0  0  3  0  0  0  0  0  0
  183.0840  172.3060  136.0790 S   0  0  0  0  0  0  0  0  0  0  0  0
  182.8030  172.8640  134.7110 O   0  0  0  0  0  0  0  0  0  0  0  0
  183.0450  170.8040  136.0250 O   0  0  0  0  0  0  0  0  0  0  0  0
  181.8990  172.8790  137.2050 N   0  0  0  0  0  2  0  0  0  0  0  0
  181.0150  173.7970  136.5010 C   0  0  2  0  0  3  0  0  0  0  0  0
  181.0320  175.1530  137.1780 C   0  0  0  0  0  2  0  0  0  0  0  0
  179.9110  175.1910  138.6170 S   0  0  0  0  0  0  0  0  0  0  0  0
  179.3160  173.1710  136.5200 S   0  0  0  0  0  0  0  0  0  0  0  0
  179.1700  173.5620  138.2830 C   0  0  0  0  0  2  0  0  0  0  0  0
  190.3000  178.6160  143.3750 S   0  0  0  0  0  0  0  0  0  0  0  0
  190.8040  177.0250  144.1040 C   0  0  0  0  0  2  0  0  0  0  0  0
  190.2080  176.8570  145.4920 C   0  0  0  0  0  2  0  0  0  0  0  0
  191.2160  177.2490  146.5570 C   0  0  0  0  0  2  0  0  0  0  0  0
  192.1090  174.9990  147.0420 C   0  0  0  0  0  2  0  0  0  0  0  0
  191.3010  176.1540  147.5990 C   0  0  0  0  0  3  0  0  0  0  0  0
  192.7480  175.9710  148.0110 C   0  0  0  0  0  2  0  0  0  0  0  0
  1  2  1  0  0  0  0
  2  4  1  0  0  0  0
  2  3  2  0  0  0  0
  4  5  2  0  0  0  0
  5 10  1  0  0  0  0
  5 50  1  0  0  0  0
  6  7  1  0  0  0  0
  7  1  2  0  0  0  0
  7  9  1  0  0  0  0
  8  9  2  0  0  0  0
  9  4  1  0  0  0  0
 10 11  1  1  0  0  0
 12 10  1  0  0  0  0
 12 13  1  0  0  0  0
 14 13  1  1  0  0  0
 14 26  1  0  0  0  0
 15 14  1  0  0  0  0
 16 21  1  0  0  0  0
 16 15  1  0  0  0  0
 17 16  2  0  0  0  0
 18 19  1  0  0  0  0
 20 22  2  0  0  0  0
 20 21  1  0  0  0  0
 21 18  2  0  0  0  0
 22 23  1  0  0  0  0
 23 19  2  0  0  0  0
 24 22  1  0  0  0  0
 26 25  1  0  0  0  0
 27  6  1  0  0  0  0
 28 31  1  0  0  0  0
 28 30  1  0  0  0  0
 29 32  1  0  0  0  0
 29 30  1  0  0  0  0
 29 27  1  1  0  0  0
 31 32  1  0  0  0  0
 31 36  1  1  0  0  0
 34 33  1  0  0  0  0
 34 32  1  0  0  0  0
 36 35  1  1  0  0  0
 37 38  1  1  0  0  0
 37 36  1  0  0  0  0
 37 40  1  0  0  0  0
 40 39  1  6  0  0  0
 41 40  1  0  0  0  0
 41 44  1  0  0  0  0
 42 41  2  0  0  0  0
 43 41  2  0  0  0  0
 45 48  1  0  0  0  0
 45 46  1  0  0  0  0
 45 44  1  1  0  0  0
 46 47  1  0  0  0  0
 48 49  1  0  0  0  0
 49 47  1  0  0  0  0
 50 51  1  0  0  0  0
 51 52  1  0  0  0  0
 52 53  1  0  0  0  0
 53 55  1  0  0  0  0
 54 55  1  0  0  0  0
 54 56  1  0  0  0  0
 55 56  1  0  0  0  0
M  END
>  <MODEL>
5

>  <REMARK>
 VINA RESULT:      -5.3      3.558      8.706
  Name = 
  21 active torsions:
  status: ('A' for Active; 'I' for Inactive)
    1  A    between atoms: C_1  and  C_12
    2  A    between atoms: C_1  and  C_45
    3  A    between atoms: N_6  and  C_39
    4  A    between atoms: C_9  and  C_18
    5  A    between atoms: C_9  and  C_37
    6  A    between atoms: C_11  and  N_28
    7  A    between atoms: C_12  and  C_27
    8  A    between atoms: C_14  and  C_20
    9  A    between atoms: C_15  and  C_40
   10  A    between atoms: C_15  and  C_54
   11  A    between atoms: C_18  and  C_52
   12  A    between atoms: C_20  and  S_46
   13  A    between atoms: C_22  and  C_39
   14  A    between atoms: C_22  and  C_54
   15  A    between atoms: C_25  and  C_48
   16  A    between atoms: N_28  and  S_31
   17  A    between atoms: C_29  and  N_42
   18  A    between atoms: S_31  and  C_52
   19  A    between atoms: C_39  and  C_56
   20  A    between atoms: C_40  and  S_55
   21  A    between atoms: C_45  and  S_55
                            x       y       z     vdW  Elec       q    Type
                         _______ _______ _______ _____ _____    ______ ____

>  <TORSDO>
F 21

$$$$
=
 OpenBabel11062416543D

 56 60  0  0  1  0  0  0  0  0999 V2000
  185.5220  177.8670  144.7150 N   0  0  0  0  0  0  0  0  0  0  0  0
  186.8010  177.3490  144.3650 C   0  0  0  0  0  0  0  0  0  0  0  0
  187.5330  176.7590  145.2020 O   0  0  0  0  0  0  0  0  0  0  0  0
  187.1450  177.5960  142.9530 C   0  0  0  0  0  0  0  0  0  0  0  0
  188.2660  177.2120  142.2960 C   0  0  0  0  0  0  0  0  0  0  0  0
  183.5330  179.0620  143.4140 S   0  0  0  0  0  0  0  0  0  0  0  0
  185.0240  178.4550  143.5200 C   0  0  0  0  0  0  0  0  0  0  0  0
  185.7140  178.5920  141.1440 C   0  0  0  0  0  2  0  0  0  0  0  0
  185.9830  178.3340  142.4200 C   0  0  0  0  0  0  0  0  0  0  0  0
  188.4720  177.5900  140.8440 C   0  0  1  0  0  3  0  0  0  0  0  0
  189.1570  178.9410  140.7430 C   0  0  0  0  0  1  0  0  0  0  0  0
  189.2650  176.5630  140.0490 C   0  0  0  0  0  2  0  0  0  0  0  0
  190.1350  177.2480  139.0100 C   0  0  0  0  0  2  0  0  0  0  0  0
  189.9380  176.5820  137.6590 C   0  0  1  0  0  3  0  0  0  0  0  0
  189.2200  175.3250  137.8200 N   0  0  0  0  0  2  0  0  0  0  0  0
  189.6330  174.0840  137.2340 C   0  0  0  0  0  0  0  0  0  0  0  0
  188.7660  173.1270  137.1500 N   0  0  0  0  0  2  0  0  0  0  0  0
  191.2990  173.1260  135.6120 C   0  0  0  0  0  3  0  0  0  0  0  0
  192.6160  172.9260  135.1880 C   0  0  0  0  0  3  0  0  0  0  0  0
  192.1010  174.3670  137.5250 C   0  0  0  0  0  3  0  0  0  0  0  0
  191.0280  173.8390  136.7890 C   0  0  0  0  0  0  0  0  0  0  0  0
  193.4190  174.1670  137.1030 C   0  0  0  0  0  0  0  0  0  0  0  0
  193.6760  173.4430  135.9350 C   0  0  0  0  0  3  0  0  0  0  0  0
  194.5450  174.7310  137.8920 C   0  0  0  0  0  1  0  0  0  0  0  0
  189.2270  178.9460  137.1000 C   0  0  0  0  0  1  0  0  0  0  0  0
  189.2250  177.4920  136.6570 C   0  0  0  0  0  2  0  0  0  0  0  0
  182.6860  177.9100  142.3170 C   0  0  0  0  0  2  0  0  0  0  0  0
  180.3390  179.2310  139.5370 C   0  0  0  0  0  2  0  0  0  0  0  0
  182.2200  178.6180  141.0580 C   0  0  2  0  0  3  0  0  0  0  0  0
  180.5590  179.2910  141.3210 S   0  0  0  0  0  0  0  0  0  0  0  0
  181.1190  178.0310  139.0230 C   0  0  1  0  0  3  0  0  0  0  0  0
  182.1920  177.6690  139.9490 N   0  0  0  0  0  0  0  0  0  0  0  0
  183.2230  178.6180  137.9600 C   0  0  0  0  0  1  0  0  0  0  0  0
  183.4470  177.8160  139.2270 C   0  0  0  0  0  2  0  0  0  0  0  0
  178.9340  177.0070  139.2600 O   0  0  0  0  0  1  0  0  0  0  0  0
  180.2290  176.8140  138.7660 C   0  0  1  0  0  3  0  0  0  0  0  0
  180.2160  176.4170  137.2880 C   0  0  2  0  0  3  0  0  0  0  0  0
  179.3420  177.2240  136.5580 O   0  0  0  0  0  1  0  0  0  0  0  0
  180.1790  174.1910  138.2000 F   0  0  0  0  0  0  0  0  0  0  0  0
  179.8610  174.9460  137.0840 C   0  0  2  0  0  3  0  0  0  0  0  0
  180.6580  174.2740  135.6340 S   0  0  0  0  0  0  0  0  0  0  0  0
  179.7500  173.2740  134.9750 O   0  0  0  0  0  0  0  0  0  0  0  0
  180.9500  175.3940  134.6750 O   0  0  0  0  0  0  0  0  0  0  0  0
  182.1390  173.5070  136.1030 N   0  0  0  0  0  2  0  0  0  0  0  0
  183.1440  174.5440  136.2890 C   0  0  2  0  0  3  0  0  0  0  0  0
  183.8780  174.7930  134.9860 C   0  0  0  0  0  2  0  0  0  0  0  0
  185.2040  173.5670  134.7250 S   0  0  0  0  0  0  0  0  0  0  0  0
  184.3540  174.0290  137.5350 S   0  0  0  0  0  0  0  0  0  0  0  0
  185.0600  172.8250  136.3810 C   0  0  0  0  0  2  0  0  0  0  0  0
  189.5120  176.1960  143.1270 S   0  0  0  0  0  0  0  0  0  0  0  0
  190.4790  177.6210  143.7200 C   0  0  0  0  0  2  0  0  0  0  0  0
  191.7740  177.1590  144.3680 C   0  0  0  0  0  2  0  0  0  0  0  0
  191.6500  177.1770  145.8810 C   0  0  0  0  0  2  0  0  0  0  0  0
  192.5510  176.0610  147.8910 C   0  0  0  0  0  2  0  0  0  0  0  0
  192.1500  175.8630  146.4430 C   0  0  0  0  0  3  0  0  0  0  0  0
  191.2240  175.4140  147.5570 C   0  0  0  0  0  2  0  0  0  0  0  0
  2  1  1  0  0  0  0
  2  3  2  0  0  0  0
  4  2  1  0  0  0  0
  5  4  2  0  0  0  0
  5 50  1  0  0  0  0
  6  7  1  0  0  0  0
  7  1  2  0  0  0  0
  8  9  2  0  0  0  0
  9  4  1  0  0  0  0
  9  7  1  0  0  0  0
 10 11  1  1  0  0  0
 10  5  1  0  0  0  0
 12 10  1  0  0  0  0
 13 12  1  0  0  0  0
 14 26  1  6  0  0  0
 14 15  1  0  0  0  0
 14 13  1  0  0  0  0
 16 15  1  0  0  0  0
 17 16  2  0  0  0  0
 18 21  1  0  0  0  0
 19 18  2  0  0  0  0
 19 23  1  0  0  0  0
 21 16  1  0  0  0  0
 21 20  2  0  0  0  0
 22 20  1  0  0  0  0
 22 24  1  0  0  0  0
 23 22  2  0  0  0  0
 26 25  1  0  0  0  0
 27  6  1  0  0  0  0
 28 30  1  0  0  0  0
 29 30  1  0  0  0  0
 29 27  1  1  0  0  0
 31 36  1  1  0  0  0
 31 28  1  0  0  0  0
 31 32  1  0  0  0  0
 32 29  1  0  0  0  0
 33 34  1  0  0  0  0
 34 32  1  0  0  0  0
 36 35  1  6  0  0  0
 37 38  1  6  0  0  0
 37 36  1  0  0  0  0
 40 37  1  0  0  0  0
 40 39  1  1  0  0  0
 41 44  1  0  0  0  0
 41 40  1  0  0  0  0
 42 41  2  0  0  0  0
 43 41  2  0  0  0  0
 45 44  1  6  0  0  0
 45 48  1  0  0  0  0
 46 45  1  0  0  0  0
 47 46  1  0  0  0  0
 47 49  1  0  0  0  0
 49 48  1  0  0  0  0
 50 51  1  0  0  0  0
 51 52  1  0  0  0  0
 52 53  1  0  0  0  0
 53 55  1  0  0  0  0
 55 56  1  0  0  0  0
 55 54  1  0  0  0  0
 56 54  1  0  0  0  0
M  END
>  <MODEL>
6

>  <REMARK>
 VINA RESULT:      -4.8      3.840     10.244
  Name = 
  21 active torsions:
  status: ('A' for Active; 'I' for Inactive)
    1  A    between atoms: C_1  and  C_12
    2  A    between atoms: C_1  and  C_45
    3  A    between atoms: N_6  and  C_39
    4  A    between atoms: C_9  and  C_18
    5  A    between atoms: C_9  and  C_37
    6  A    between atoms: C_11  and  N_28
    7  A    between atoms: C_12  and  C_27
    8  A    between atoms: C_14  and  C_20
    9  A    between atoms: C_15  and  C_40
   10  A    between atoms: C_15  and  C_54
   11  A    between atoms: C_18  and  C_52
   12  A    between atoms: C_20  and  S_46
   13  A    between atoms: C_22  and  C_39
   14  A    between atoms: C_22  and  C_54
   15  A    between atoms: C_25  and  C_48
   16  A    between atoms: N_28  and  S_31
   17  A    between atoms: C_29  and  N_42
   18  A    between atoms: S_31  and  C_52
   19  A    between atoms: C_39  and  C_56
   20  A    between atoms: C_40  and  S_55
   21  A    between atoms: C_45  and  S_55
                            x       y       z     vdW  Elec       q    Type
                         _______ _______ _______ _____ _____    ______ ____

>  <TORSDO>
F 21

$$$$
=
 OpenBabel11062416543D

 56 60  0  0  1  0  0  0  0  0999 V2000
  186.2370  178.2050  138.1110 N   0  0  0  0  0  0  0  0  0  0  0  0
  187.5840  178.1430  138.5660 C   0  0  0  0  0  0  0  0  0  0  0  0
  188.0330  178.9420  139.4300 O   0  0  0  0  0  0  0  0  0  0  0  0
  188.3550  177.0720  137.9100 C   0  0  0  0  0  0  0  0  0  0  0  0
  189.6470  176.7280  138.1320 C   0  0  0  0  0  0  0  0  0  0  0  0
  184.7210  176.7770  136.4550 S   0  0  0  0  0  0  0  0  0  0  0  0
  186.1250  177.1630  137.1510 C   0  0  0  0  0  0  0  0  0  0  0  0
  187.5420  175.3080  136.3160 C   0  0  0  0  0  2  0  0  0  0  0  0
  187.3940  176.4530  136.9760 C   0  0  0  0  0  0  0  0  0  0  0  0
  190.2930  175.6180  137.3310 C   0  0  1  0  0  3  0  0  0  0  0  0
  190.3620  175.9980  135.8630 C   0  0  0  0  0  1  0  0  0  0  0  0
  191.6850  175.2400  137.8190 C   0  0  0  0  0  2  0  0  0  0  0  0
  192.7380  176.1030  137.1480 C   0  0  0  0  0  2  0  0  0  0  0  0
  194.0430  175.3320  137.0470 C   0  0  1  0  0  3  0  0  0  0  0  0
  193.9110  174.0360  137.6980 N   0  0  0  0  0  2  0  0  0  0  0  0
  195.0120  173.2880  138.2310 C   0  0  0  0  0  0  0  0  0  0  0  0
  194.8380  172.0290  138.4710 N   0  0  0  0  0  2  0  0  0  0  0  0
  197.3530  173.9930  137.6460 C   0  0  0  0  0  3  0  0  0  0  0  0
  198.5600  174.6160  137.9760 C   0  0  0  0  0  3  0  0  0  0  0  0
  196.4870  174.5030  139.8450 C   0  0  0  0  0  3  0  0  0  0  0  0
  196.3080  173.9210  138.5790 C   0  0  0  0  0  0  0  0  0  0  0  0
  197.6940  175.1250  140.1770 C   0  0  0  0  0  0  0  0  0  0  0  0
  198.7320  175.1790  139.2430 C   0  0  0  0  0  3  0  0  0  0  0  0
  197.8700  175.7370  141.5200 C   0  0  0  0  0  1  0  0  0  0  0  0
  193.3840  174.7710  134.6680 C   0  0  0  0  0  1  0  0  0  0  0  0
  194.5160  175.1690  135.6020 C   0  0  0  0  0  2  0  0  0  0  0  0
  184.3350  175.1620  137.1550 C   0  0  0  0  0  2  0  0  0  0  0  0
  181.7440  173.7890  134.6260 C   0  0  0  0  0  2  0  0  0  0  0  0
  183.6940  174.2680  136.1080 C   0  0  2  0  0  3  0  0  0  0  0  0
  182.6970  175.2730  134.9790 S   0  0  0  0  0  0  0  0  0  0  0  0
  181.7100  172.9590  135.8990 C   0  0  1  0  0  3  0  0  0  0  0  0
  182.8410  173.2830  136.7670 N   0  0  0  0  0  0  0  0  0  0  0  0
  184.6690  171.9870  135.8190 C   0  0  0  0  0  1  0  0  0  0  0  0
  183.6270  172.0670  136.9170 C   0  0  0  0  0  2  0  0  0  0  0  0
  179.5940  171.9840  136.5750 O   0  0  0  0  0  1  0  0  0  0  0  0
  180.4030  173.1230  136.6760 C   0  0  1  0  0  3  0  0  0  0  0  0
  180.6500  173.5110  138.1360 C   0  0  2  0  0  3  0  0  0  0  0  0
  180.3810  172.4430  138.9930 O   0  0  0  0  0  1  0  0  0  0  0  0
  179.0470  175.1970  137.5190 F   0  0  0  0  0  0  0  0  0  0  0  0
  179.8380  174.7340  138.5570 C   0  0  2  0  0  3  0  0  0  0  0  0
  180.8910  176.0420  139.1640 S   0  0  0  0  0  0  0  0  0  0  0  0
  180.2240  176.7340  140.3200 O   0  0  0  0  0  0  0  0  0  0  0  0
  182.1940  175.4480  139.6210 O   0  0  0  0  0  0  0  0  0  0  0  0
  181.1840  177.1760  137.8880 N   0  0  0  0  0  2  0  0  0  0  0  0
  180.2910  178.3090  138.0780 C   0  0  2  0  0  3  0  0  0  0  0  0
  179.0120  178.0980  137.2930 C   0  0  0  0  0  2  0  0  0  0  0  0
  179.2210  178.5680  135.5420 S   0  0  0  0  0  0  0  0  0  0  0  0
  181.0750  179.8330  137.4900 S   0  0  0  0  0  0  0  0  0  0  0  0
  180.8730  179.2980  135.7720 C   0  0  0  0  0  2  0  0  0  0  0  0
  190.6030  177.5530  139.4290 S   0  0  0  0  0  0  0  0  0  0  0  0
  190.0850  176.3970  140.7380 C   0  0  0  0  0  2  0  0  0  0  0  0
  190.9460  176.5700  141.9780 C   0  0  0  0  0  2  0  0  0  0  0  0
  190.0920  176.5360  143.2320 C   0  0  0  0  0  2  0  0  0  0  0  0
  190.9780  178.4590  144.5020 C   0  0  0  0  0  2  0  0  0  0  0  0
  190.9290  176.9460  144.4250 C   0  0  0  0  0  3  0  0  0  0  0  0
  190.0540  177.6840  145.4180 C   0  0  0  0  0  2  0  0  0  0  0  0
  1  2  1  0  0  0  0
  2  3  2  0  0  0  0
  4  5  2  0  0  0  0
  4  2  1  0  0  0  0
  5 50  1  0  0  0  0
  6  7  1  0  0  0  0
  6 27  1  0  0  0  0
  7  1  2  0  0  0  0
  8  9  2  0  0  0  0
  9  7  1  0  0  0  0
  9  4  1  0  0  0  0
 10 11  1  6  0  0  0
 10 12  1  0  0  0  0
 10  5  1  0  0  0  0
 13 12  1  0  0  0  0
 14 26  1  6  0  0  0
 14 13  1  0  0  0  0
 14 15  1  0  0  0  0
 15 16  1  0  0  0  0
 16 17  2  0  0  0  0
 16 21  1  0  0  0  0
 18 19  2  0  0  0  0
 18 21  1  0  0  0  0
 19 23  1  0  0  0  0
 20 22  1  0  0  0  0
 21 20  2  0  0  0  0
 22 24  1  0  0  0  0
 23 22  2  0  0  0  0
 25 26  1  0  0  0  0
 28 30  1  0  0  0  0
 28 31  1  0  0  0  0
 29 32  1  0  0  0  0
 29 27  1  1  0  0  0
 30 29  1  0  0  0  0
 31 36  1  1  0  0  0
 31 32  1  0  0  0  0
 32 34  1  0  0  0  0
 33 34  1  0  0  0  0
 36 35  1  1  0  0  0
 36 37  1  0  0  0  0
 37 40  1  0  0  0  0
 37 38  1  1  0  0  0
 40 39  1  6  0  0  0
 40 41  1  0  0  0  0
 41 43  2  0  0  0  0
 41 42  2  0  0  0  0
 44 41  1  0  0  0  0
 45 44  1  6  0  0  0
 46 45  1  0  0  0  0
 47 49  1  0  0  0  0
 47 46  1  0  0  0  0
 48 45  1  0  0  0  0
 49 48  1  0  0  0  0
 50 51  1  0  0  0  0
 51 52  1  0  0  0  0
 52 53  1  0  0  0  0
 53 55  1  0  0  0  0
 54 56  1  0  0  0  0
 55 54  1  0  0  0  0
 55 56  1  0  0  0  0
M  END
>  <MODEL>
7

>  <REMARK>
 VINA RESULT:      -4.8      4.701     11.160
  Name = 
  21 active torsions:
  status: ('A' for Active; 'I' for Inactive)
    1  A    between atoms: C_1  and  C_12
    2  A    between atoms: C_1  and  C_45
    3  A    between atoms: N_6  and  C_39
    4  A    between atoms: C_9  and  C_18
    5  A    between atoms: C_9  and  C_37
    6  A    between atoms: C_11  and  N_28
    7  A    between atoms: C_12  and  C_27
    8  A    between atoms: C_14  and  C_20
    9  A    between atoms: C_15  and  C_40
   10  A    between atoms: C_15  and  C_54
   11  A    between atoms: C_18  and  C_52
   12  A    between atoms: C_20  and  S_46
   13  A    between atoms: C_22  and  C_39
   14  A    between atoms: C_22  and  C_54
   15  A    between atoms: C_25  and  C_48
   16  A    between atoms: N_28  and  S_31
   17  A    between atoms: C_29  and  N_42
   18  A    between atoms: S_31  and  C_52
   19  A    between atoms: C_39  and  C_56
   20  A    between atoms: C_40  and  S_55
   21  A    between atoms: C_45  and  S_55
                            x       y       z     vdW  Elec       q    Type
                         _______ _______ _______ _____ _____    ______ ____

>  <TORSDO>
F 21

$$$$
=
 OpenBabel11062416543D

 56 60  0  0  1  0  0  0  0  0999 V2000
  191.4670  177.0810  138.2240 N   0  0  0  0  0  0  0  0  0  0  0  0
  190.8710  176.3300  137.1720 C   0  0  0  0  0  0  0  0  0  0  0  0
  191.5530  175.8420  136.2330 O   0  0  0  0  0  0  0  0  0  0  0  0
  189.4090  176.2140  137.3160 C   0  0  0  0  0  0  0  0  0  0  0  0
  188.5490  175.5470  136.5090 C   0  0  0  0  0  0  0  0  0  0  0  0
  190.6080  178.2250  140.4660 S   0  0  0  0  0  0  0  0  0  0  0  0
  190.3850  177.4580  139.0650 C   0  0  0  0  0  0  0  0  0  0  0  0
  187.9580  176.9790  139.2190 C   0  0  0  0  0  2  0  0  0  0  0  0
  189.1050  176.9700  138.5460 C   0  0  0  0  0  0  0  0  0  0  0  0
  187.0610  175.5690  136.7890 C   0  0  1  0  0  3  0  0  0  0  0  0
  186.3820  176.6390  135.9540 C   0  0  0  0  0  1  0  0  0  0  0  0
  186.3730  174.2320  136.5510 C   0  0  0  0  0  2  0  0  0  0  0  0
  184.9820  174.4430  135.9770 C   0  0  0  0  0  2  0  0  0  0  0  0
  183.9400  173.9680  136.9750 C   0  0  1  0  0  3  0  0  0  0  0  0
  182.6040  174.1350  136.4220 N   0  0  0  0  0  2  0  0  0  0  0  0
  181.6010  174.9900  136.9870 C   0  0  0  0  0  0  0  0  0  0  0  0
  180.3700  174.8080  136.6320 N   0  0  0  0  0  2  0  0  0  0  0  0
  182.5530  175.8730  139.1410 C   0  0  0  0  0  3  0  0  0  0  0  0
  182.8870  176.9370  139.9840 C   0  0  0  0  0  3  0  0  0  0  0  0
  181.6740  177.4330  137.5160 C   0  0  0  0  0  3  0  0  0  0  0  0
  181.9340  176.1080  137.9040 C   0  0  0  0  0  0  0  0  0  0  0  0
  182.0070  178.4980  138.3590 C   0  0  0  0  0  0  0  0  0  0  0  0
  182.6110  178.2490  139.5950 C   0  0  0  0  0  3  0  0  0  0  0  0
  181.7260  179.8950  137.9360 C   0  0  0  0  0  1  0  0  0  0  0  0
  183.2390  171.5500  136.7070 C   0  0  0  0  0  1  0  0  0  0  0  0
  184.1690  172.5220  137.4170 C   0  0  0  0  0  2  0  0  0  0  0  0
  190.1620  176.9890  141.6990 C   0  0  0  0  0  2  0  0  0  0  0  0
  191.6290  176.3410  145.2230 C   0  0  0  0  0  2  0  0  0  0  0  0
  190.9730  177.1850  142.9670 C   0  0  2  0  0  3  0  0  0  0  0  0
  191.5060  175.5740  143.6010 S   0  0  0  0  0  0  0  0  0  0  0  0
  190.5460  177.4050  145.3050 C   0  0  1  0  0  3  0  0  0  0  0  0
  190.1530  177.8570  143.9710 N   0  0  0  0  0  0  0  0  0  0  0  0
  191.9390  179.5010  144.1300 C   0  0  0  0  0  1  0  0  0  0  0  0
  190.4580  179.2780  143.8930 C   0  0  0  0  0  2  0  0  0  0  0  0
  189.6570  176.1380  147.1720 O   0  0  0  0  0  1  0  0  0  0  0  0
  189.3110  176.9320  146.0720 C   0  0  1  0  0  3  0  0  0  0  0  0
  188.4080  178.0990  146.4800 C   0  0  2  0  0  3  0  0  0  0  0  0
  189.0740  178.9710  147.3440 O   0  0  0  0  0  1  0  0  0  0  0  0
  186.7450  176.3700  146.6670 F   0  0  0  0  0  0  0  0  0  0  0  0
  187.1030  177.6290  147.1190 C   0  0  2  0  0  3  0  0  0  0  0  0
  185.7770  178.7900  146.8300 S   0  0  0  0  0  0  0  0  0  0  0  0
  184.4620  178.1530  147.1810 O   0  0  0  0  0  0  0  0  0  0  0  0
  185.9940  180.0020  147.6940 O   0  0  0  0  0  0  0  0  0  0  0  0
  185.7810  179.2560  145.1620 N   0  0  0  0  0  2  0  0  0  0  0  0
  185.2950  178.1290  144.3790 C   0  0  2  0  0  3  0  0  0  0  0  0
  186.4300  177.5320  143.5700 C   0  0  0  0  0  2  0  0  0  0  0  0
  186.7140  178.4690  142.0300 S   0  0  0  0  0  0  0  0  0  0  0  0
  184.0030  178.6720  143.2310 S   0  0  0  0  0  0  0  0  0  0  0  0
  185.2370  179.5180  142.2100 C   0  0  0  0  0  2  0  0  0  0  0  0
  189.1690  174.5750  135.1140 S   0  0  0  0  0  0  0  0  0  0  0  0
  189.4390  173.0700  136.1040 C   0  0  0  0  0  2  0  0  0  0  0  0
  190.2100  172.0330  135.3050 C   0  0  0  0  0  2  0  0  0  0  0  0
  191.5870  172.5560  134.9390 C   0  0  0  0  0  2  0  0  0  0  0  0
  194.0120  172.1020  135.0360 C   0  0  0  0  0  2  0  0  0  0  0  0
  192.6400  171.5680  135.3940 C   0  0  0  0  0  3  0  0  0  0  0  0
  193.5040  172.2170  136.4580 C   0  0  0  0  0  2  0  0  0  0  0  0
  1  7  2  0  0  0  0
  2  4  1  0  0  0  0
  2  1  1  0  0  0  0
  3  2  2  0  0  0  0
  4  9  1  0  0  0  0
  5 10  1  0  0  0  0
  5  4  2  0  0  0  0
  6 27  1  0  0  0  0
  7  6  1  0  0  0  0
  9  7  1  0  0  0  0
  9  8  2  0  0  0  0
 10 11  1  6  0  0  0
 12 10  1  0  0  0  0
 13 12  1  0  0  0  0
 14 13  1  6  0  0  0
 14 26  1  0  0  0  0
 15 14  1  0  0  0  0
 15 16  1  0  0  0  0
 16 21  1  0  0  0  0
 17 16  2  0  0  0  0
 18 19  1  0  0  0  0
 20 21  1  0  0  0  0
 20 22  2  0  0  0  0
 21 18  2  0  0  0  0
 22 23  1  0  0  0  0
 23 19  2  0  0  0  0
 24 22  1  0  0  0  0
 25 26  1  0  0  0  0
 28 31  1  0  0  0  0
 29 27  1  6  0  0  0
 29 30  1  0  0  0  0
 29 32  1  0  0  0  0
 30 28  1  0  0  0  0
 31 36  1  6  0  0  0
 32 31  1  0  0  0  0
 34 32  1  0  0  0  0
 34 33  1  0  0  0  0
 36 37  1  0  0  0  0
 36 35  1  1  0  0  0
 37 40  1  0  0  0  0
 37 38  1  1  0  0  0
 40 39  1  6  0  0  0
 41 40  1  0  0  0  0
 41 42  2  0  0  0  0
 41 43  2  0  0  0  0
 44 41  1  0  0  0  0
 45 44  1  6  0  0  0
 46 45  1  0  0  0  0
 47 49  1  0  0  0  0
 47 46  1  0  0  0  0
 48 45  1  0  0  0  0
 49 48  1  0  0  0  0
 50 51  1  0  0  0  0
 50  5  1  0  0  0  0
 52 51  1  0  0  0  0
 53 52  1  0  0  0  0
 53 55  1  0  0  0  0
 54 55  1  0  0  0  0
 54 56  1  0  0  0  0
 55 56  1  0  0  0  0
M  END
>  <MODEL>
8

>  <REMARK>
 VINA RESULT:      -4.7      2.181      3.767
  Name = 
  21 active torsions:
  status: ('A' for Active; 'I' for Inactive)
    1  A    between atoms: C_1  and  C_12
    2  A    between atoms: C_1  and  C_45
    3  A    between atoms: N_6  and  C_39
    4  A    between atoms: C_9  and  C_18
    5  A    between atoms: C_9  and  C_37
    6  A    between atoms: C_11  and  N_28
    7  A    between atoms: C_12  and  C_27
    8  A    between atoms: C_14  and  C_20
    9  A    between atoms: C_15  and  C_40
   10  A    between atoms: C_15  and  C_54
   11  A    between atoms: C_18  and  C_52
   12  A    between atoms: C_20  and  S_46
   13  A    between atoms: C_22  and  C_39
   14  A    between atoms: C_22  and  C_54
   15  A    between atoms: C_25  and  C_48
   16  A    between atoms: N_28  and  S_31
   17  A    between atoms: C_29  and  N_42
   18  A    between atoms: S_31  and  C_52
   19  A    between atoms: C_39  and  C_56
   20  A    between atoms: C_40  and  S_55
   21  A    between atoms: C_45  and  S_55
                            x       y       z     vdW  Elec       q    Type
                         _______ _______ _______ _____ _____    ______ ____

>  <TORSDO>
F 21

$$$$
=
 OpenBabel11062416543D

 56 60  0  0  1  0  0  0  0  0999 V2000
  191.8860  177.2140  139.9720 N   0  0  0  0  0  0  0  0  0  0  0  0
  191.4670  177.5320  141.2950 C   0  0  0  0  0  0  0  0  0  0  0  0
  192.2830  177.8850  142.1860 O   0  0  0  0  0  0  0  0  0  0  0  0
  190.0110  177.3880  141.4770 C   0  0  0  0  0  0  0  0  0  0  0  0
  189.2890  177.6370  142.5970 C   0  0  0  0  0  0  0  0  0  0  0  0
  190.6740  176.5440  137.7020 S   0  0  0  0  0  0  0  0  0  0  0  0
  190.6950  176.8610  139.2830 C   0  0  0  0  0  0  0  0  0  0  0  0
  188.2600  176.8710  139.7510 C   0  0  0  0  0  2  0  0  0  0  0  0
  189.5240  176.9320  140.1610 C   0  0  0  0  0  0  0  0  0  0  0  0
  187.7950  177.3930  142.6160 C   0  0  1  0  0  3  0  0  0  0  0  0
  187.4150  176.5430  143.8150 C   0  0  0  0  0  1  0  0  0  0  0  0
  186.9660  178.6690  142.6200 C   0  0  0  0  0  2  0  0  0  0  0  0
  185.5530  178.3890  142.1370 C   0  0  0  0  0  2  0  0  0  0  0  0
  184.5730  179.2800  142.8820 C   0  0  1  0  0  3  0  0  0  0  0  0
  183.3290  178.5620  143.1240 N   0  0  0  0  0  2  0  0  0  0  0  0
  182.1630  178.6720  142.2970 C   0  0  0  0  0  0  0  0  0  0  0  0
  181.0310  178.2740  142.7790 N   0  0  0  0  0  2  0  0  0  0  0  0
  183.2810  178.7890  140.0470 C   0  0  0  0  0  3  0  0  0  0  0  0
  183.3140  179.2290  138.7210 C   0  0  0  0  0  3  0  0  0  0  0  0
  181.1930  179.9590  140.3850 C   0  0  0  0  0  3  0  0  0  0  0  0
  182.2260  179.1570  140.8960 C   0  0  0  0  0  0  0  0  0  0  0  0
  181.2260  180.4020  139.0590 C   0  0  0  0  0  0  0  0  0  0  0  0
  182.2890  180.0380  138.2280 C   0  0  0  0  0  3  0  0  0  0  0  0
  180.1260  181.2510  138.5320 C   0  0  0  0  0  1  0  0  0  0  0  0
  185.0180  178.8300  145.3330 C   0  0  0  0  0  1  0  0  0  0  0  0
  185.1520  179.8230  144.1880 C   0  0  0  0  0  2  0  0  0  0  0  0
  189.7790  177.9430  137.0030 C   0  0  0  0  0  2  0  0  0  0  0  0
  186.9030  176.9590  134.6060 C   0  0  0  0  0  2  0  0  0  0  0  0
  189.0540  177.5330  135.7340 C   0  0  2  0  0  3  0  0  0  0  0  0
  187.4100  178.2920  135.7030 S   0  0  0  0  0  0  0  0  0  0  0  0
  187.6840  175.7180  135.0080 C   0  0  1  0  0  3  0  0  0  0  0  0
  188.9210  176.0790  135.6990 N   0  0  0  0  0  0  0  0  0  0  0  0
  189.8420  174.0810  134.6600 C   0  0  0  0  0  1  0  0  0  0  0  0
  190.0240  175.5670  134.8980 C   0  0  0  0  0  2  0  0  0  0  0  0
  187.6270  174.2530  136.9390 O   0  0  0  0  0  1  0  0  0  0  0  0
  186.8680  174.7640  135.8800 C   0  0  1  0  0  3  0  0  0  0  0  0
  185.5710  175.4090  136.3760 C   0  0  2  0  0  3  0  0  0  0  0  0
  185.7650  176.0530  137.5990 O   0  0  0  0  0  1  0  0  0  0  0  0
  184.2790  173.6720  135.3250 F   0  0  0  0  0  0  0  0  0  0  0  0
  184.4280  174.4040  136.4910 C   0  0  2  0  0  3  0  0  0  0  0  0
  182.8910  175.2040  136.9210 S   0  0  0  0  0  0  0  0  0  0  0  0
  183.0580  175.9620  138.2090 O   0  0  0  0  0  0  0  0  0  0  0  0
  182.5150  176.1600  135.8230 O   0  0  0  0  0  0  0  0  0  0  0  0
  181.6540  174.0040  137.0980 N   0  0  0  0  0  2  0  0  0  0  0  0
  180.4220  174.5410  136.5390 C   0  0  2  0  0  3  0  0  0  0  0  0
  179.9300  175.6980  137.3860 C   0  0  0  0  0  2  0  0  0  0  0  0
  179.0010  175.1080  138.8410 S   0  0  0  0  0  0  0  0  0  0  0  0
  179.1360  173.2660  136.5130 S   0  0  0  0  0  0  0  0  0  0  0  0
  178.9730  173.3660  138.3150 C   0  0  0  0  0  2  0  0  0  0  0  0
  190.0910  178.3170  144.0700 S   0  0  0  0  0  0  0  0  0  0  0  0
  190.5190  176.6850  144.7590 C   0  0  0  0  0  2  0  0  0  0  0  0
  191.0030  176.8190  146.1930 C   0  0  0  0  0  2  0  0  0  0  0  0
  190.1090  177.7660  146.9740 C   0  0  0  0  0  2  0  0  0  0  0  0
  188.2160  177.9030  148.5530 C   0  0  0  0  0  2  0  0  0  0  0  0
  189.2140  176.9690  147.8980 C   0  0  0  0  0  3  0  0  0  0  0  0
  187.7880  177.0350  147.3880 C   0  0  0  0  0  2  0  0  0  0  0  0
  1  2  1  0  0  0  0
  2  4  1  0  0  0  0
  2  3  2  0  0  0  0
  4  5  2  0  0  0  0
  5 10  1  0  0  0  0
  5 50  1  0  0  0  0
  6  7  1  0  0  0  0
  7  1  2  0  0  0  0
  7  9  1  0  0  0  0
  8  9  2  0  0  0  0
  9  4  1  0  0  0  0
 10 12  1  0  0  0  0
 10 11  1  1  0  0  0
 13 12  1  0  0  0  0
 14 13  1  1  0  0  0
 14 15  1  0  0  0  0
 14 26  1  0  0  0  0
 16 17  2  0  0  0  0
 16 15  1  0  0  0  0
 18 21  1  0  0  0  0
 19 18  2  0  0  0  0
 20 21  2  0  0  0  0
 21 16  1  0  0  0  0
 22 20  1  0  0  0  0
 23 19  1  0  0  0  0
 23 22  2  0  0  0  0
 24 22  1  0  0  0  0
 26 25  1  0  0  0  0
 27  6  1  0  0  0  0
 28 31  1  0  0  0  0
 28 30  1  0  0  0  0
 29 27  1  1  0  0  0
 30 29  1  0  0  0  0
 31 32  1  0  0  0  0
 31 36  1  1  0  0  0
 32 29  1  0  0  0  0
 33 34  1  0  0  0  0
 34 32  1  0  0  0  0
 36 37  1  0  0  0  0
 36 35  1  1  0  0  0
 37 40  1  0  0  0  0
 37 38  1  1  0  0  0
 40 39  1  6  0  0  0
 40 41  1  0  0  0  0
 41 44  1  0  0  0  0
 41 42  2  0  0  0  0
 43 41  2  0  0  0  0
 45 44  1  1  0  0  0
 45 46  1  0  0  0  0
 46 47  1  0  0  0  0
 48 45  1  0  0  0  0
 48 49  1  0  0  0  0
 49 47  1  0  0  0  0
 50 51  1  0  0  0  0
 51 52  1  0  0  0  0
 52 53  1  0  0  0  0
 53 55  1  0  0  0  0
 55 54  1  0  0  0  0
 56 55  1  0  0  0  0
 56 54  1  0  0  0  0
M  END
>  <MODEL>
9

>  <REMARK>
 VINA RESULT:      -4.7      3.497      8.431
  Name = 
  21 active torsions:
  status: ('A' for Active; 'I' for Inactive)
    1  A    between atoms: C_1  and  C_12
    2  A    between atoms: C_1  and  C_45
    3  A    between atoms: N_6  and  C_39
    4  A    between atoms: C_9  and  C_18
    5  A    between atoms: C_9  and  C_37
    6  A    between atoms: C_11  and  N_28
    7  A    between atoms: C_12  and  C_27
    8  A    between atoms: C_14  and  C_20
    9  A    between atoms: C_15  and  C_40
   10  A    between atoms: C_15  and  C_54
   11  A    between atoms: C_18  and  C_52
   12  A    between atoms: C_20  and  S_46
   13  A    between atoms: C_22  and  C_39
   14  A    between atoms: C_22  and  C_54
   15  A    between atoms: C_25  and  C_48
   16  A    between atoms: N_28  and  S_31
   17  A    between atoms: C_29  and  N_42
   18  A    between atoms: S_31  and  C_52
   19  A    between atoms: C_39  and  C_56
   20  A    between atoms: C_40  and  S_55
   21  A    between atoms: C_45  and  S_55
                            x       y       z     vdW  Elec       q    Type
                         _______ _______ _______ _____ _____    ______ ____

>  <TORSDO>
F 21

$$$$
