=
 OpenBabel11062415243D

 48 55  0  0  1  0  0  0  0  0999 V2000
  186.0010  177.1760  143.2940 C   0  0  0  0  0  2  0  0  0  0  0  0
  192.8550  176.0510  137.0390 C   0  0  1  0  0  3  0  0  0  0  0  0
  184.1070  179.7300  139.1920 C   0  0  2  0  0  3  0  0  0  0  0  0
  183.7950  178.2930  142.5440 C   0  0  2  0  0  0  0  0  0  0  0  0
  181.9290  179.5280  137.8280 C   0  0  0  0  0  2  0  0  0  0  0  0
  183.4300  177.9780  141.0830 C   0  0  2  0  0  3  0  0  0  0  0  0
  187.1750  176.8760  136.5100 C   0  0  0  0  0  2  0  0  0  0  0  0
  189.0800  175.6300  137.2520 O   0  0  0  0  0  0  0  0  0  0  0  0
  192.0100  177.1450  139.5770 C   0  0  2  0  0  3  0  0  0  0  0  0
  182.5940  180.0470  139.1160 C   0  0  1  0  0  3  0  0  0  0  0  0
  184.4320  178.2970  138.7250 C   0  0  1  0  0  3  0  0  0  0  0  0
  189.7000  178.2700  143.4210 C   0  0  1  0  0  3  0  0  0  0  0  0
  179.5030  180.2690  138.2270 C   0  0  0  0  0  2  0  0  0  0  0  0
  185.3360  178.3990  142.6380 C   0  0  2  0  0  3  0  0  0  0  0  0
  190.0890  178.4090  141.6320 S   0  0  0  0  0  0  0  0  0  0  0  0
  187.4970  177.1880  143.1830 C   0  0  0  0  0  3  0  0  0  0  0  0
  180.7920  180.4630  137.4080 C   0  0  0  0  0  2  0  0  0  0  0  0
  185.7950  178.2560  138.0520 C   0  0  0  0  0  2  0  0  0  0  0  0
  179.6840  179.4270  139.4060 N   0  0  0  0  0  2  0  0  0  0  0  0
  194.2500  178.0570  139.6770 O   0  0  0  0  0  0  0  0  0  0  0  0
  191.4080  176.4040  137.4650 C   0  0  2  0  0  3  0  0  0  0  0  0
  193.4170  177.3480  139.0430 C   0  0  0  0  0  0  0  0  0  0  0  0
  188.2190  178.2210  143.6080 C   0  0  0  0  0  3  0  0  0  0  0  0
  192.0900  176.7100  140.9580 N   0  0  0  0  0  0  0  0  0  0  0  0
  191.2780  176.1740  138.8470 O   0  0  0  0  0  0  0  0  0  0  0  0
  191.3860  176.6910  143.2090 N   0  0  0  0  0  2  0  0  0  0  0  0
  191.3380  177.1970  141.8970 C   0  0  0  0  0  0  0  0  0  0  0  0
  190.3670  175.6020  136.6740 C   0  0  2  0  0  3  0  0  0  0  0  0
  190.3310  177.0900  144.0290 N   0  0  0  0  0  2  0  0  0  0  0  0
  183.3010  177.2600  143.3460 O   0  0  0  0  0  1  0  0  0  0  0  0
  186.0690  176.8520  137.5570 C   0  0  0  0  0  2  0  0  0  0  0  0
  181.8830  179.7260  140.3690 N   0  0  1  0  0  0  0  0  0  0  0  0
  186.0720  178.8640  141.0210 S   0  0  0  0  0  0  0  0  0  0  0  0
  190.3590  175.9870  135.2000 C   0  0  0  0  0  1  0  0  0  0  0  0
  180.4880  180.1760  140.3710 C   0  0  0  0  0  2  0  0  0  0  0  0
  188.5490  176.9310  137.1690 C   0  0  0  0  0  2  0  0  0  0  0  0
  184.4780  178.6350  140.2010 C   0  0  1  0  0  0  0  0  0  0  0  0
  181.9860  178.3040  140.6880 C   0  0  0  0  0  2  0  0  0  0  0  0
  193.7540  176.8650  137.7820 O   0  0  0  0  0  0  0  0  0  0  0  0
  193.1790  174.6330  137.2450 N   0  0  0  0  0  0  0  0  0  0  0  0
  194.1230  174.1470  138.2370 C   0  0  0  0  0  2  0  0  0  0  0  0
  194.6390  172.7980  137.7240 C   0  0  2  0  0  3  0  0  0  0  0  0
  193.0620  173.6670  136.2220 C   0  0  0  0  0  0  0  0  0  0  0  0
  192.4210  173.8650  135.1560 O   0  0  0  0  0  0  0  0  0  0  0  0
  193.8350  172.4380  136.4780 C   0  0  0  0  0  2  0  0  0  0  0  0
  194.4910  171.8200  138.6950 F   0  0  0  0  0  0  0  0  0  0  0  0
  182.1900  179.4700  144.1370 C   0  0  0  0  0  1  0  0  0  0  0  0
  183.1970  179.6250  143.0010 C   0  0  0  0  0  2  0  0  0  0  0  0
  2 40  1  1  0  0  0
  2 21  1  0  0  0  0
  2 39  1  0  0  0  0
  3 37  1  0  0  0  0
  4 14  1  0  0  0  0
  4 48  1  0  0  0  0
  4 30  1  0  0  0  0
  5 10  1  0  0  0  0
  6  4  1  0  0  0  0
  7 36  1  0  0  0  0
  7 31  1  0  0  0  0
  9 24  1  0  0  0  0
 10  3  1  0  0  0  0
 10 32  1  0  0  0  0
 11  3  1  0  0  0  0
 11 37  1  0  0  0  0
 12 23  1  0  0  0  0
 12 29  1  0  0  0  0
 13 19  1  0  0  0  0
 14  1  1  0  0  0  0
 15 27  1  0  0  0  0
 15 12  1  0  0  0  0
 16  1  1  0  0  0  0
 16 23  2  0  0  0  0
 17  5  1  0  0  0  0
 17 13  1  0  0  0  0
 18 11  1  0  0  0  0
 19 35  1  0  0  0  0
 21 25  1  0  0  0  0
 22  9  1  0  0  0  0
 22 20  2  0  0  0  0
 24 27  2  0  0  0  0
 25  9  1  0  0  0  0
 26 29  1  0  0  0  0
 27 26  1  0  0  0  0
 28  8  1  0  0  0  0
 28 21  1  0  0  0  0
 31 18  1  0  0  0  0
 32 35  1  0  0  0  0
 32 38  1  0  0  0  0
 33 14  1  0  0  0  0
 34 28  1  0  0  0  0
 36  8  1  0  0  0  0
 37 33  1  0  0  0  0
 37  6  1  0  0  0  0
 38  6  1  0  0  0  0
 39 22  1  0  0  0  0
 40 41  1  0  0  0  0
 42 41  1  0  0  0  0
 42 46  1  0  0  0  0
 43 45  1  0  0  0  0
 43 40  1  0  0  0  0
 44 43  2  0  0  0  0
 45 42  1  0  0  0  0
 48 47  1  0  0  0  0
M  END
>  <MODEL>
1

>  <REMARK>
 VINA RESULT:      -4.0      0.000      0.000
  Name = 
  2 active torsions:
  status: ('A' for Active; 'I' for Inactive)
    1  A    between atoms: C_2  and  N_4
    2  A    between atoms: C_5  and  C_45
                            x       y       z     vdW  Elec       q    Type
                         _______ _______ _______ _____ _____    ______ ____

>  <TORSDO>
F 2

$$$$
=
 OpenBabel11062415243D

 48 55  0  0  1  0  0  0  0  0999 V2000
  186.2860  178.6780  138.3780 C   0  0  0  0  0  2  0  0  0  0  0  0
  194.7770  174.9090  137.3450 C   0  0  1  0  0  3  0  0  0  0  0  0
  187.3000  177.0390  143.1970 C   0  0  2  0  0  3  0  0  0  0  0  0
  185.2860  178.8740  140.7520 C   0  0  2  0  0  0  0  0  0  0  0  0
  187.3730  178.2130  145.4910 C   0  0  0  0  0  2  0  0  0  0  0  0
  186.3510  179.1240  141.8330 C   0  0  2  0  0  3  0  0  0  0  0  0
  192.0800  177.2980  141.8450 C   0  0  0  0  0  2  0  0  0  0  0  0
  193.0010  177.3730  139.6360 O   0  0  0  0  0  0  0  0  0  0  0  0
  191.9690  174.8440  136.6650 C   0  0  2  0  0  3  0  0  0  0  0  0
  186.4880  177.6060  144.3870 C   0  0  1  0  0  3  0  0  0  0  0  0
  188.4570  177.9680  142.7790 C   0  0  1  0  0  3  0  0  0  0  0  0
  187.4650  175.7520  136.1530 C   0  0  1  0  0  3  0  0  0  0  0  0
  185.5750  179.0050  147.1440 C   0  0  0  0  0  2  0  0  0  0  0  0
  185.9040  177.9490  139.6770 C   0  0  2  0  0  3  0  0  0  0  0  0
  188.9320  175.1650  137.0890 S   0  0  0  0  0  0  0  0  0  0  0  0
  187.0810  177.8240  137.4340 C   0  0  0  0  0  3  0  0  0  0  0  0
  186.7200  178.0150  146.8610 C   0  0  0  0  0  2  0  0  0  0  0  0
  189.6340  177.1510  142.2700 C   0  0  0  0  0  2  0  0  0  0  0  0
  185.1590  179.7660  145.9690 N   0  0  0  0  0  2  0  0  0  0  0  0
  192.5510  172.8700  135.3900 O   0  0  0  0  0  0  0  0  0  0  0  0
  193.6040  175.4800  138.1790 C   0  0  2  0  0  3  0  0  0  0  0  0
  192.9520  173.8220  136.1200 C   0  0  0  0  0  0  0  0  0  0  0  0
  186.6370  176.6390  137.0260 C   0  0  0  0  0  3  0  0  0  0  0  0
  191.1670  175.3550  135.5700 N   0  0  0  0  0  0  0  0  0  0  0  0
  192.6080  175.9410  137.2980 O   0  0  0  0  0  0  0  0  0  0  0  0
  189.1490  176.0840  134.5940 N   0  0  0  0  0  2  0  0  0  0  0  0
  189.8810  175.5070  135.6470 C   0  0  0  0  0  0  0  0  0  0  0  0
  194.0640  176.6010  139.1210 C   0  0  2  0  0  3  0  0  0  0  0  0
  187.8460  176.4590  134.9230 N   0  0  0  0  0  2  0  0  0  0  0  0
  184.9170  180.1110  140.2140 O   0  0  0  0  0  1  0  0  0  0  0  0
  190.7760  178.0800  141.9160 C   0  0  0  0  0  2  0  0  0  0  0  0
  185.3530  178.4430  143.9530 N   0  0  1  0  0  0  0  0  0  0  0  0
  187.2600  176.9260  140.3790 S   0  0  0  0  0  0  0  0  0  0  0  0
  194.9920  176.0780  140.2090 C   0  0  0  0  0  1  0  0  0  0  0  0
  184.4790  178.8460  145.0590 C   0  0  0  0  0  2  0  0  0  0  0  0
  192.2190  176.5870  140.5020 C   0  0  0  0  0  2  0  0  0  0  0  0
  187.2170  177.8780  141.9140 C   0  0  1  0  0  0  0  0  0  0  0  0
  185.8090  179.5980  143.1850 C   0  0  0  0  0  2  0  0  0  0  0  0
  194.2790  173.8500  136.5360 O   0  0  0  0  0  0  0  0  0  0  0  0
  195.4220  175.9230  136.5000 N   0  0  0  0  0  0  0  0  0  0  0  0
  194.7200  177.0320  135.8770 C   0  0  0  0  0  2  0  0  0  0  0  0
  195.5400  177.4300  134.6460 C   0  0  2  0  0  3  0  0  0  0  0  0
  196.6030  175.6680  135.7680 C   0  0  0  0  0  0  0  0  0  0  0  0
  197.3480  174.6770  135.9860 O   0  0  0  0  0  0  0  0  0  0  0  0
  196.8340  176.6200  134.6680 C   0  0  0  0  0  2  0  0  0  0  0  0
  195.8190  178.7890  134.6660 F   0  0  0  0  0  0  0  0  0  0  0  0
  183.1500  177.5770  140.2520 C   0  0  0  0  0  1  0  0  0  0  0  0
  184.0510  178.1780  141.3270 C   0  0  0  0  0  2  0  0  0  0  0  0
  1 14  1  0  0  0  0
  2 40  1  6  0  0  0
  2 21  1  0  0  0  0
  3 10  1  0  0  0  0
  4 48  1  0  0  0  0
  4  6  1  0  0  0  0
  5 17  1  0  0  0  0
  6 37  1  0  0  0  0
  6 38  1  0  0  0  0
  7 31  1  0  0  0  0
  8 36  1  0  0  0  0
  9 25  1  0  0  0  0
 10  5  1  0  0  0  0
 11  3  1  0  0  0  0
 12 23  1  0  0  0  0
 12 15  1  0  0  0  0
 14 33  1  0  0  0  0
 14  4  1  0  0  0  0
 16  1  1  0  0  0  0
 17 13  1  0  0  0  0
 18 11  1  0  0  0  0
 19 13  1  0  0  0  0
 20 22  2  0  0  0  0
 21 28  1  0  0  0  0
 22 39  1  0  0  0  0
 22  9  1  0  0  0  0
 23 16  2  0  0  0  0
 24 27  2  0  0  0  0
 24  9  1  0  0  0  0
 25 21  1  0  0  0  0
 26 29  1  0  0  0  0
 26 27  1  0  0  0  0
 27 15  1  0  0  0  0
 28  8  1  0  0  0  0
 28 34  1  0  0  0  0
 29 12  1  0  0  0  0
 30  4  1  0  0  0  0
 31 18  1  0  0  0  0
 32 10  1  0  0  0  0
 32 35  1  0  0  0  0
 33 37  1  0  0  0  0
 35 19  1  0  0  0  0
 36  7  1  0  0  0  0
 37 11  1  0  0  0  0
 37  3  1  0  0  0  0
 38 32  1  0  0  0  0
 39  2  1  0  0  0  0
 41 40  1  0  0  0  0
 42 46  1  0  0  0  0
 42 45  1  0  0  0  0
 42 41  1  0  0  0  0
 43 44  2  0  0  0  0
 43 40  1  0  0  0  0
 45 43  1  0  0  0  0
 47 48  1  0  0  0  0
M  END
>  <MODEL>
2

>  <REMARK>
 VINA RESULT:      -3.7      3.054      5.951
  Name = 
  2 active torsions:
  status: ('A' for Active; 'I' for Inactive)
    1  A    between atoms: C_2  and  N_4
    2  A    between atoms: C_5  and  C_45
                            x       y       z     vdW  Elec       q    Type
                         _______ _______ _______ _____ _____    ______ ____

>  <TORSDO>
F 2

$$$$
=
 OpenBabel11062415243D

 48 55  0  0  1  0  0  0  0  0999 V2000
  188.1730  174.2040  136.0490 C   0  0  0  0  0  2  0  0  0  0  0  0
  182.4360  179.6700  141.0070 C   0  0  1  0  0  3  0  0  0  0  0  0
  191.5400  177.2360  138.5800 C   0  0  2  0  0  3  0  0  0  0  0  0
  190.7190  174.3710  136.4540 C   0  0  2  0  0  0  0  0  0  0  0  0
  193.5210  176.7550  140.1580 C   0  0  0  0  0  2  0  0  0  0  0  0
  191.0740  174.6970  137.9150 C   0  0  2  0  0  3  0  0  0  0  0  0
  187.8560  177.9010  141.8560 C   0  0  0  0  0  2  0  0  0  0  0  0
  185.5140  177.5030  141.5640 O   0  0  0  0  0  0  0  0  0  0  0  0
  183.3700  178.8190  138.4080 C   0  0  2  0  0  3  0  0  0  0  0  0
  193.0220  176.8030  138.7020 C   0  0  1  0  0  3  0  0  0  0  0  0
  190.6430  176.5680  139.6410 C   0  0  1  0  0  3  0  0  0  0  0  0
  185.4350  176.6600  134.8790 C   0  0  1  0  0  3  0  0  0  0  0  0
  195.9390  175.9730  139.7920 C   0  0  0  0  0  2  0  0  0  0  0  0
  189.4100  175.1170  136.1030 C   0  0  2  0  0  3  0  0  0  0  0  0
  185.3840  177.8330  136.2920 S   0  0  0  0  0  0  0  0  0  0  0  0
  186.8840  174.9630  135.9270 C   0  0  0  0  0  3  0  0  0  0  0  0
  195.0060  177.1200  140.2190 C   0  0  0  0  0  2  0  0  0  0  0  0
  189.5160  177.5050  140.0470 C   0  0  0  0  0  2  0  0  0  0  0  0
  195.2390  174.8530  139.1690 N   0  0  0  0  0  2  0  0  0  0  0  0
  181.8260  180.4780  137.5560 O   0  0  0  0  0  0  0  0  0  0  0  0
  183.8130  179.0460  140.6710 C   0  0  2  0  0  3  0  0  0  0  0  0
  182.3020  179.8870  138.5680 C   0  0  0  0  0  0  0  0  0  0  0  0
  186.6840  175.8440  134.9520 C   0  0  0  0  0  3  0  0  0  0  0  0
  182.9230  177.8510  137.4250 N   0  0  0  0  0  0  0  0  0  0  0  0
  183.6460  178.1300  139.6160 O   0  0  0  0  0  0  0  0  0  0  0  0
  183.2480  176.3920  135.6010 N   0  0  0  0  0  2  0  0  0  0  0  0
  183.6910  177.3920  136.4850 C   0  0  0  0  0  0  0  0  0  0  0  0
  184.4470  178.3670  141.8920 C   0  0  2  0  0  3  0  0  0  0  0  0
  184.2540  175.7860  134.8490 N   0  0  0  0  0  2  0  0  0  0  0  0
  190.5660  172.9860  136.3440 O   0  0  0  0  0  1  0  0  0  0  0  0
  188.6800  176.8500  141.1250 C   0  0  0  0  0  2  0  0  0  0  0  0
  193.3350  175.6150  137.8850 N   0  0  1  0  0  0  0  0  0  0  0  0
  189.1870  176.6040  137.1590 S   0  0  0  0  0  0  0  0  0  0  0  0
  184.8200  179.3780  142.9690 C   0  0  0  0  0  1  0  0  0  0  0  0
  194.7660  175.2960  137.8590 C   0  0  0  0  0  2  0  0  0  0  0  0
  186.5970  178.2520  141.0700 C   0  0  0  0  0  2  0  0  0  0  0  0
  190.5760  176.1040  138.2000 C   0  0  1  0  0  0  0  0  0  0  0  0
  192.5390  174.4620  138.2980 C   0  0  0  0  0  2  0  0  0  0  0  0
  181.9390  180.3160  139.8410 O   0  0  0  0  0  0  0  0  0  0  0  0
  181.4620  178.6790  141.4830 N   0  0  0  0  0  0  0  0  0  0  0  0
  180.5420  177.9590  140.6190 C   0  0  0  0  0  2  0  0  0  0  0  0
  179.3460  177.5610  141.4910 C   0  0  2  0  0  3  0  0  0  0  0  0
  180.9330  178.6970  142.7920 C   0  0  0  0  0  0  0  0  0  0  0  0
  181.4380  179.3650  143.7310 O   0  0  0  0  0  0  0  0  0  0  0  0
  179.6810  177.9320  142.9340 C   0  0  0  0  0  2  0  0  0  0  0  0
  179.0990  176.2010  141.3850 F   0  0  0  0  0  0  0  0  0  0  0  0
  192.4240  173.7050  134.6800 C   0  0  0  0  0  1  0  0  0  0  0  0
  191.8090  174.8430  135.4900 C   0  0  0  0  0  2  0  0  0  0  0  0
  1 14  1  0  0  0  0
  2 40  1  6  0  0  0
  3 10  1  0  0  0  0
  3 11  1  0  0  0  0
  4  6  1  0  0  0  0
  5 17  1  0  0  0  0
  6 37  1  0  0  0  0
  6 38  1  0  0  0  0
  8 28  1  0  0  0  0
  9 22  1  0  0  0  0
  9 25  1  0  0  0  0
 10  5  1  0  0  0  0
 11 18  1  0  0  0  0
 12 23  1  0  0  0  0
 12 15  1  0  0  0  0
 13 17  1  0  0  0  0
 14  4  1  0  0  0  0
 14 33  1  0  0  0  0
 15 27  1  0  0  0  0
 16  1  1  0  0  0  0
 18 31  1  0  0  0  0
 19 13  1  0  0  0  0
 20 22  2  0  0  0  0
 21  2  1  0  0  0  0
 21 28  1  0  0  0  0
 22 39  1  0  0  0  0
 23 16  2  0  0  0  0
 24  9  1  0  0  0  0
 25 21  1  0  0  0  0
 26 27  1  0  0  0  0
 27 24  2  0  0  0  0
 28 34  1  0  0  0  0
 29 12  1  0  0  0  0
 29 26  1  0  0  0  0
 30  4  1  0  0  0  0
 31  7  1  0  0  0  0
 32 38  1  0  0  0  0
 32 10  1  0  0  0  0
 33 37  1  0  0  0  0
 35 32  1  0  0  0  0
 35 19  1  0  0  0  0
 36  8  1  0  0  0  0
 36  7  1  0  0  0  0
 37  3  1  0  0  0  0
 37 11  1  0  0  0  0
 39  2  1  0  0  0  0
 40 43  1  0  0  0  0
 41 40  1  0  0  0  0
 41 42  1  0  0  0  0
 42 45  1  0  0  0  0
 43 45  1  0  0  0  0
 43 44  2  0  0  0  0
 46 42  1  0  0  0  0
 47 48  1  0  0  0  0
 48  4  1  0  0  0  0
M  END
>  <MODEL>
3

>  <REMARK>
 VINA RESULT:      -2.3      3.664     11.182
  Name = 
  2 active torsions:
  status: ('A' for Active; 'I' for Inactive)
    1  A    between atoms: C_2  and  N_4
    2  A    between atoms: C_5  and  C_45
                            x       y       z     vdW  Elec       q    Type
                         _______ _______ _______ _____ _____    ______ ____

>  <TORSDO>
F 2

$$$$
=
 OpenBabel11062415243D

 48 55  0  0  1  0  0  0  0  0999 V2000
  186.1240  177.5300  141.9130 C   0  0  0  0  0  2  0  0  0  0  0  0
  192.5460  174.3300  135.9230 C   0  0  1  0  0  3  0  0  0  0  0  0
  183.6320  177.9500  137.3800 C   0  0  2  0  0  3  0  0  0  0  0  0
  183.7520  178.0620  141.0370 C   0  0  2  0  0  0  0  0  0  0  0  0
  181.3900  177.0330  136.4970 C   0  0  0  0  0  2  0  0  0  0  0  0
  183.3110  177.1290  139.8960 C   0  0  2  0  0  3  0  0  0  0  0  0
  186.7850  174.4480  135.7850 C   0  0  0  0  0  2  0  0  0  0  0  0
  188.8730  173.7760  136.7440 O   0  0  0  0  0  0  0  0  0  0  0  0
  191.7850  176.3390  137.8550 C   0  0  2  0  0  3  0  0  0  0  0  0
  182.0910  178.0970  137.3620 C   0  0  1  0  0  3  0  0  0  0  0  0
  184.0810  176.4820  137.5180 C   0  0  1  0  0  3  0  0  0  0  0  0
  189.6720  178.8310  141.1270 C   0  0  1  0  0  3  0  0  0  0  0  0
  178.9350  177.7000  136.8400 C   0  0  0  0  0  2  0  0  0  0  0  0
  185.2730  178.3060  140.8930 C   0  0  2  0  0  3  0  0  0  0  0  0
  189.9000  178.2210  139.4100 S   0  0  0  0  0  0  0  0  0  0  0  0
  187.5960  177.5990  141.6280 C   0  0  0  0  0  3  0  0  0  0  0  0
  180.1240  177.6160  135.8660 C   0  0  0  0  0  2  0  0  0  0  0  0
  185.3830  176.2530  136.7650 C   0  0  0  0  0  2  0  0  0  0  0  0
  179.3030  177.4570  138.2310 N   0  0  0  0  0  2  0  0  0  0  0  0
  193.9060  177.3630  137.2960 O   0  0  0  0  0  0  0  0  0  0  0  0
  191.1070  174.7280  136.3330 C   0  0  2  0  0  3  0  0  0  0  0  0
  193.1130  176.3940  137.1200 C   0  0  0  0  0  0  0  0  0  0  0  0
  188.2250  178.7620  141.4940 C   0  0  0  0  0  3  0  0  0  0  0  0
  192.0230  176.5430  139.2710 N   0  0  0  0  0  0  0  0  0  0  0  0
  191.1130  175.1010  137.6910 O   0  0  0  0  0  0  0  0  0  0  0  0
  191.5060  177.4360  141.3910 N   0  0  0  0  0  2  0  0  0  0  0  0
  191.2960  177.3290  140.0050 C   0  0  0  0  0  0  0  0  0  0  0  0
  190.1050  173.5940  136.0810 C   0  0  2  0  0  3  0  0  0  0  0  0
  190.4800  178.0710  142.0910 N   0  0  0  0  0  2  0  0  0  0  0  0
  183.4450  177.4380  142.2500 O   0  0  0  0  0  1  0  0  0  0  0  0
  185.7750  174.7950  136.8710 C   0  0  0  0  0  2  0  0  0  0  0  0
  181.5230  178.2920  138.7100 N   0  0  1  0  0  0  0  0  0  0  0  0
  185.8210  178.0880  139.1530 S   0  0  0  0  0  0  0  0  0  0  0  0
  189.9360  173.3120  134.5940 C   0  0  0  0  0  1  0  0  0  0  0  0
  180.0900  178.6000  138.6910 C   0  0  0  0  0  2  0  0  0  0  0  0
  188.1920  174.8750  136.1910 C   0  0  0  0  0  2  0  0  0  0  0  0
  184.2040  177.4200  138.7020 C   0  0  1  0  0  0  0  0  0  0  0  0
  181.8130  177.1530  139.5770 C   0  0  0  0  0  2  0  0  0  0  0  0
  193.4020  175.4450  136.1450 O   0  0  0  0  0  0  0  0  0  0  0  0
  193.0460  173.1620  136.6610 N   0  0  0  0  0  0  0  0  0  0  0  0
  193.9760  173.2370  137.7760 C   0  0  0  0  0  2  0  0  0  0  0  0
  194.7060  171.8910  137.8250 C   0  0  2  0  0  3  0  0  0  0  0  0
  193.1350  171.8760  136.0850 C   0  0  0  0  0  0  0  0  0  0  0  0
  192.5500  171.5570  135.0170 O   0  0  0  0  0  0  0  0  0  0  0  0
  194.0490  170.9690  136.8020 C   0  0  0  0  0  2  0  0  0  0  0  0
  194.6260  171.3410  139.0950 F   0  0  0  0  0  0  0  0  0  0  0  0
  182.0240  179.6170  142.0820 C   0  0  0  0  0  1  0  0  0  0  0  0
  183.0440  179.4160  140.9660 C   0  0  0  0  0  2  0  0  0  0  0  0
  2 39  1  0  0  0  0
  2 21  1  0  0  0  0
  2 40  1  1  0  0  0
  3 11  1  0  0  0  0
  3 37  1  0  0  0  0
  4 30  1  0  0  0  0
  5 10  1  0  0  0  0
  6  4  1  0  0  0  0
  7 36  1  0  0  0  0
  7 31  1  0  0  0  0
  9 24  1  0  0  0  0
 10  3  1  0  0  0  0
 10 32  1  0  0  0  0
 11 37  1  0  0  0  0
 12 23  1  0  0  0  0
 12 29  1  0  0  0  0
 13 19  1  0  0  0  0
 14  4  1  0  0  0  0
 14  1  1  0  0  0  0
 15 27  1  0  0  0  0
 15 12  1  0  0  0  0
 16  1  1  0  0  0  0
 17  5  1  0  0  0  0
 17 13  1  0  0  0  0
 18 31  1  0  0  0  0
 18 11  1  0  0  0  0
 19 35  1  0  0  0  0
 21 25  1  0  0  0  0
 22 20  2  0  0  0  0
 22  9  1  0  0  0  0
 23 16  2  0  0  0  0
 24 27  2  0  0  0  0
 25  9  1  0  0  0  0
 26 29  1  0  0  0  0
 27 26  1  0  0  0  0
 28 21  1  0  0  0  0
 28  8  1  0  0  0  0
 32 38  1  0  0  0  0
 33 14  1  0  0  0  0
 34 28  1  0  0  0  0
 35 32  1  0  0  0  0
 36  8  1  0  0  0  0
 37 33  1  0  0  0  0
 37  6  1  0  0  0  0
 38  6  1  0  0  0  0
 39 22  1  0  0  0  0
 40 41  1  0  0  0  0
 41 42  1  0  0  0  0
 42 46  1  0  0  0  0
 43 40  1  0  0  0  0
 43 45  1  0  0  0  0
 44 43  2  0  0  0  0
 45 42  1  0  0  0  0
 48  4  1  0  0  0  0
 48 47  1  0  0  0  0
M  END
>  <MODEL>
4

>  <REMARK>
 VINA RESULT:      -2.2      1.784      2.092
  Name = 
  2 active torsions:
  status: ('A' for Active; 'I' for Inactive)
    1  A    between atoms: C_2  and  N_4
    2  A    between atoms: C_5  and  C_45
                            x       y       z     vdW  Elec       q    Type
                         _______ _______ _______ _____ _____    ______ ____

>  <TORSDO>
F 2

$$$$
