=
 OpenBabel11062415413D

 34 39  0  0  1  0  0  0  0  0999 V2000
  187.7450  178.0690  142.0410 C   0  0  2  0  0  3  0  0  0  0  0  0
  189.3680  177.4690  147.6540 C   0  0  0  0  0  2  0  0  0  0  0  0
  190.2240  176.7670  146.6070 C   0  0  1  0  0  3  0  0  0  0  0  0
  187.3710  177.3290  146.0140 C   0  0  2  0  0  3  0  0  0  0  0  0
  190.1580  175.9080  142.9920 C   0  0  0  0  0  1  0  0  0  0  0  0
  189.0970  178.7790  141.9930 C   0  0  0  0  0  2  0  0  0  0  0  0
  188.9790  176.5470  143.7050 C   0  0  2  0  0  3  0  0  0  0  0  0
  187.8260  176.6840  142.6990 C   0  0  0  0  0  2  0  0  0  0  0  0
  189.6630  179.0000  143.4010 C   0  0  0  0  0  2  0  0  0  0  0  0
  187.8700  177.2470  147.4570 C   0  0  0  0  0  2  0  0  0  0  0  0
  190.4840  177.7610  145.4480 C   0  0  2  0  0  3  0  0  0  0  0  0
  189.3180  177.8940  144.4250 C   0  0  2  0  0  0  0  0  0  0  0  0
  188.0740  178.4120  145.1840 C   0  0  0  0  0  2  0  0  0  0  0  0
  191.3650  174.8110  147.5410 O   0  0  0  0  0  0  0  0  0  0  0  0
  191.4790  176.1860  147.2730 C   0  0  1  0  0  0  0  0  0  0  0  0
  192.2270  175.1860  146.4890 C   0  0  0  0  0  2  0  0  0  0  0  0
  193.1800  175.9960  149.1160 C   0  0  0  0  0  1  0  0  0  0  0  0
  192.2760  176.9360  148.3380 C   0  0  0  0  0  2  0  0  0  0  0  0
  185.9910  178.9840  140.6720 O   0  0  0  0  0  1  0  0  0  0  0  0
  187.0070  178.0260  140.6940 C   0  0  1  0  0  3  0  0  0  0  0  0
  188.9240  177.0410  139.3000 C   0  0  0  0  0  2  0  0  0  0  0  0
  187.8590  178.1190  139.4160 C   0  0  1  0  0  3  0  0  0  0  0  0
  187.0410  178.1010  138.1350 C   0  0  0  0  0  2  0  0  0  0  0  0
  187.7020  177.0800  137.2240 C   0  0  2  0  0  3  0  0  0  0  0  0
  189.0730  176.7840  137.8190 C   0  0  0  0  0  2  0  0  0  0  0  0
  186.9220  176.6350  134.8700 C   0  0  0  0  0  2  0  0  0  0  0  0
  187.6810  177.5480  135.7590 C   0  0  1  0  0  3  0  0  0  0  0  0
  186.3710  177.8450  135.3340 O   0  0  0  0  0  0  0  0  0  0  0  0
  191.8850  177.8010  144.8780 C   0  0  0  0  0  3  0  0  0  0  0  0
  192.4100  178.8460  144.5320 O   0  0  0  0  0  0  0  0  0  0  0  0
  185.8720  177.5730  146.0390 C   0  0  0  0  0  2  0  0  0  0  0  0
  184.4670  178.6570  144.3410 C   0  0  0  0  0  2  0  0  0  0  0  0
  184.1720  179.1840  145.6120 O   0  0  0  0  0  0  0  0  0  0  0  0
  185.5200  178.8820  145.3530 C   0  0  1  0  0  3  0  0  0  0  0  0
  1 20  1  6  0  0  0
  1  8  1  0  0  0  0
  3 15  1  0  0  0  0
  3  2  1  1  0  0  0
  4 31  1  1  0  0  0
  4 10  1  0  0  0  0
  6  1  1  0  0  0  0
  6  9  1  0  0  0  0
  7  5  1  6  0  0  0
  7 12  1  0  0  0  0
  8  7  1  0  0  0  0
 10  2  1  0  0  0  0
 11 29  1  6  0  0  0
 11  3  1  0  0  0  0
 12  9  1  6  0  0  0
 12 13  1  0  0  0  0
 12 11  1  0  0  0  0
 13  4  1  0  0  0  0
 15 14  1  0  0  0  0
 15 18  1  1  0  0  0
 16 15  1  0  0  0  0
 16 14  1  0  0  0  0
 18 17  1  0  0  0  0
 20 19  1  1  0  0  0
 21 22  1  0  0  0  0
 22 20  1  1  0  0  0
 23 22  1  0  0  0  0
 24 25  1  1  0  0  0
 24 23  1  0  0  0  0
 25 21  1  0  0  0  0
 26 28  1  0  0  0  0
 27 26  1  6  0  0  0
 27 24  1  0  0  0  0
 28 27  1  0  0  0  0
 30 29  2  0  0  0  0
 32 34  1  0  0  0  0
 32 33  1  0  0  0  0
 34 33  1  0  0  0  0
 34 31  1  1  0  0  0
M  END
>  <MODEL>
1

>  <REMARK>
 VINA RESULT:      -7.1      0.000      0.000
  Name = 
  8 active torsions:
  status: ('A' for Active; 'I' for Inactive)
    1  A    between atoms: C_2  and  C_27
    2  A    between atoms: C_5  and  C_12
    3  A    between atoms: C_7  and  C_27
    4  A    between atoms: C_8  and  C_23
    5  A    between atoms: C_12  and  C_29
    6  A    between atoms: C_15  and  C_22
    7  A    between atoms: C_20  and  C_30
    8  A    between atoms: C_23  and  C_34
                            x       y       z     vdW  Elec       q    Type
                         _______ _______ _______ _____ _____    ______ ____

>  <TORSDO>
F 8

$$$$
=
 OpenBabel11062415413D

 34 39  0  0  1  0  0  0  0  0999 V2000
  190.4290  177.3000  140.7210 C   0  0  2  0  0  3  0  0  0  0  0  0
  187.6130  178.2360  145.7890 C   0  0  0  0  0  2  0  0  0  0  0  0
  188.8380  177.3320  145.8350 C   0  0  1  0  0  3  0  0  0  0  0  0
  187.3110  177.5840  143.3030 C   0  0  2  0  0  3  0  0  0  0  0  0
  191.1630  175.5750  143.5290 C   0  0  0  0  0  1  0  0  0  0  0  0
  191.5240  178.0410  141.4880 C   0  0  0  0  0  2  0  0  0  0  0  0
  189.9290  176.3180  143.0420 C   0  0  2  0  0  3  0  0  0  0  0  0
  189.8280  176.1360  141.5210 C   0  0  0  0  0  2  0  0  0  0  0  0
  190.9850  178.6410  142.7920 C   0  0  0  0  0  2  0  0  0  0  0  0
  186.6560  177.8990  144.6480 C   0  0  0  0  0  2  0  0  0  0  0  0
  189.9690  178.0090  145.0210 C   0  0  2  0  0  3  0  0  0  0  0  0
  189.8700  177.8190  143.4790 C   0  0  2  0  0  0  0  0  0  0  0  0
  188.5410  178.4520  143.0040 C   0  0  0  0  0  2  0  0  0  0  0  0
  188.5070  175.8660  147.7680 O   0  0  0  0  0  0  0  0  0  0  0  0
  189.1810  177.0040  147.2950 C   0  0  1  0  0  0  0  0  0  0  0  0
  189.8900  175.7310  147.5240 C   0  0  0  0  0  2  0  0  0  0  0  0
  188.0970  178.2650  149.1810 C   0  0  0  0  0  1  0  0  0  0  0  0
  189.3640  178.0760  148.3670 C   0  0  0  0  0  2  0  0  0  0  0  0
  190.9910  175.4930  139.2370 O   0  0  0  0  0  1  0  0  0  0  0  0
  190.8300  176.8780  139.2990 C   0  0  1  0  0  3  0  0  0  0  0  0
  189.7080  176.3280  137.0570 C   0  0  0  0  0  2  0  0  0  0  0  0
  189.9460  177.3680  138.1390 C   0  0  1  0  0  3  0  0  0  0  0  0
  188.5890  177.8900  138.5840 C   0  0  0  0  0  2  0  0  0  0  0  0
  187.5620  177.2280  137.6820 C   0  0  2  0  0  3  0  0  0  0  0  0
  188.3310  176.6250  136.5130 C   0  0  0  0  0  2  0  0  0  0  0  0
  185.1210  177.8110  137.9000 C   0  0  0  0  0  2  0  0  0  0  0  0
  186.4290  178.2040  137.3210 C   0  0  1  0  0  3  0  0  0  0  0  0
  185.9070  178.8300  138.4700 O   0  0  0  0  0  0  0  0  0  0  0  0
  191.3610  177.9700  145.6140 C   0  0  0  0  0  3  0  0  0  0  0  0
  191.9810  176.9260  145.7360 O   0  0  0  0  0  0  0  0  0  0  0  0
  186.2690  177.7530  142.2110 C   0  0  0  0  0  2  0  0  0  0  0  0
  184.2350  178.9420  141.5220 C   0  0  0  0  0  2  0  0  0  0  0  0
  183.9870  178.2190  142.7030 O   0  0  0  0  0  0  0  0  0  0  0  0
  185.2530  178.8180  142.5850 C   0  0  1  0  0  3  0  0  0  0  0  0
  1 20  1  6  0  0  0
  1  6  1  0  0  0  0
  1  8  1  0  0  0  0
  3  2  1  1  0  0  0
  3 15  1  0  0  0  0
  4 31  1  6  0  0  0
  4 10  1  0  0  0  0
  6  9  1  0  0  0  0
  7 12  1  0  0  0  0
  7  5  1  6  0  0  0
  8  7  1  0  0  0  0
 10  2  1  0  0  0  0
 11 29  1  1  0  0  0
 11  3  1  0  0  0  0
 12  9  1  6  0  0  0
 12 11  1  0  0  0  0
 13  4  1  0  0  0  0
 13 12  1  0  0  0  0
 15 16  1  0  0  0  0
 15 14  1  0  0  0  0
 15 18  1  1  0  0  0
 16 14  1  0  0  0  0
 18 17  1  0  0  0  0
 20 19  1  1  0  0  0
 21 22  1  0  0  0  0
 22 23  1  0  0  0  0
 22 20  1  1  0  0  0
 24 25  1  6  0  0  0
 24 23  1  0  0  0  0
 25 21  1  0  0  0  0
 26 28  1  0  0  0  0
 27 24  1  0  0  0  0
 27 26  1  1  0  0  0
 27 28  1  0  0  0  0
 29 30  2  0  0  0  0
 32 34  1  0  0  0  0
 32 33  1  0  0  0  0
 34 31  1  6  0  0  0
 34 33  1  0  0  0  0
M  END
>  <MODEL>
2

>  <REMARK>
 VINA RESULT:      -7.0      1.960      2.840
  Name = 
  8 active torsions:
  status: ('A' for Active; 'I' for Inactive)
    1  A    between atoms: C_2  and  C_27
    2  A    between atoms: C_5  and  C_12
    3  A    between atoms: C_7  and  C_27
    4  A    between atoms: C_8  and  C_23
    5  A    between atoms: C_12  and  C_29
    6  A    between atoms: C_15  and  C_22
    7  A    between atoms: C_20  and  C_30
    8  A    between atoms: C_23  and  C_34
                            x       y       z     vdW  Elec       q    Type
                         _______ _______ _______ _____ _____    ______ ____

>  <TORSDO>
F 8

$$$$
=
 OpenBabel11062415413D

 34 39  0  0  1  0  0  0  0  0999 V2000
  184.9470  177.1970  137.9900 C   0  0  2  0  0  3  0  0  0  0  0  0
  182.3270  178.6810  143.0330 C   0  0  0  0  0  2  0  0  0  0  0  0
  181.6030  179.0460  141.7430 C   0  0  1  0  0  3  0  0  0  0  0  0
  184.5560  178.7500  141.7190 C   0  0  2  0  0  3  0  0  0  0  0  0
  182.2110  179.1740  138.0800 C   0  0  0  0  0  1  0  0  0  0  0  0
  183.6970  176.3220  137.8950 C   0  0  0  0  0  2  0  0  0  0  0  0
  183.3050  178.8450  139.0820 C   0  0  2  0  0  3  0  0  0  0  0  0
  184.6220  178.6620  138.3140 C   0  0  0  0  0  2  0  0  0  0  0  0
  182.9190  176.3130  139.2160 C   0  0  0  0  0  2  0  0  0  0  0  0
  183.8090  179.0500  143.0190 C   0  0  0  0  0  2  0  0  0  0  0  0
  181.6430  177.8170  140.8020 C   0  0  2  0  0  3  0  0  0  0  0  0
  182.9750  177.6350  140.0180 C   0  0  2  0  0  0  0  0  0  0  0  0
  184.1130  177.4430  141.0470 C   0  0  0  0  0  2  0  0  0  0  0  0
  180.2150  180.9280  142.4690 O   0  0  0  0  0  0  0  0  0  0  0  0
  180.2020  179.5800  142.0730 C   0  0  1  0  0  0  0  0  0  0  0  0
  179.6890  180.6440  141.1910 C   0  0  0  0  0  2  0  0  0  0  0  0
  179.1310  179.0750  144.2920 C   0  0  0  0  0  1  0  0  0  0  0  0
  179.1500  178.7530  142.8090 C   0  0  0  0  0  2  0  0  0  0  0  0
  185.4400  177.8440  135.7260 O   0  0  0  0  0  1  0  0  0  0  0  0
  185.8990  177.0670  136.7920 C   0  0  1  0  0  3  0  0  0  0  0  0
  187.7680  178.8060  137.0590 C   0  0  0  0  0  2  0  0  0  0  0  0
  187.3940  177.3340  137.0430 C   0  0  1  0  0  3  0  0  0  0  0  0
  187.9170  176.7100  138.3270 C   0  0  0  0  0  2  0  0  0  0  0  0
  188.6940  177.8010  139.0440 C   0  0  2  0  0  3  0  0  0  0  0  0
  188.9210  178.9160  138.0300 C   0  0  0  0  0  2  0  0  0  0  0  0
  190.0390  177.5830  141.1630 C   0  0  0  0  0  2  0  0  0  0  0  0
  189.9510  177.2320  139.7250 C   0  0  1  0  0  3  0  0  0  0  0  0
  189.6140  176.3110  140.7350 O   0  0  0  0  0  0  0  0  0  0  0  0
  180.3710  177.4840  140.0510 C   0  0  0  0  0  3  0  0  0  0  0  0
  179.7110  176.4910  140.3090 O   0  0  0  0  0  0  0  0  0  0  0  0
  186.0440  178.7110  142.0190 C   0  0  0  0  0  2  0  0  0  0  0  0
  187.2740  176.9780  143.2500 C   0  0  0  0  0  2  0  0  0  0  0  0
  187.6710  178.2530  143.6960 O   0  0  0  0  0  0  0  0  0  0  0  0
  186.3100  178.0910  143.3800 C   0  0  1  0  0  3  0  0  0  0  0  0
  1 20  1  6  0  0  0
  1  8  1  0  0  0  0
  3 15  1  0  0  0  0
  3  2  1  1  0  0  0
  4 31  1  1  0  0  0
  4 10  1  0  0  0  0
  6  1  1  0  0  0  0
  6  9  1  0  0  0  0
  7  5  1  6  0  0  0
  7 12  1  0  0  0  0
  8  7  1  0  0  0  0
 10  2  1  0  0  0  0
 11 29  1  6  0  0  0
 11  3  1  0  0  0  0
 12  9  1  6  0  0  0
 12 11  1  0  0  0  0
 12 13  1  0  0  0  0
 13  4  1  0  0  0  0
 15 14  1  0  0  0  0
 15 18  1  1  0  0  0
 16 15  1  0  0  0  0
 16 14  1  0  0  0  0
 18 17  1  0  0  0  0
 20 19  1  6  0  0  0
 21 25  1  0  0  0  0
 22 20  1  1  0  0  0
 22 21  1  0  0  0  0
 22 23  1  0  0  0  0
 23 24  1  0  0  0  0
 24 25  1  6  0  0  0
 24 27  1  0  0  0  0
 27 28  1  0  0  0  0
 27 26  1  1  0  0  0
 28 26  1  0  0  0  0
 29 30  2  0  0  0  0
 32 34  1  0  0  0  0
 32 33  1  0  0  0  0
 34 31  1  6  0  0  0
 34 33  1  0  0  0  0
M  END
>  <MODEL>
3

>  <REMARK>
 VINA RESULT:      -7.0      3.667      8.323
  Name = 
  8 active torsions:
  status: ('A' for Active; 'I' for Inactive)
    1  A    between atoms: C_2  and  C_27
    2  A    between atoms: C_5  and  C_12
    3  A    between atoms: C_7  and  C_27
    4  A    between atoms: C_8  and  C_23
    5  A    between atoms: C_12  and  C_29
    6  A    between atoms: C_15  and  C_22
    7  A    between atoms: C_20  and  C_30
    8  A    between atoms: C_23  and  C_34
                            x       y       z     vdW  Elec       q    Type
                         _______ _______ _______ _____ _____    ______ ____

>  <TORSDO>
F 8

$$$$
=
 OpenBabel11062415413D

 34 39  0  0  1  0  0  0  0  0999 V2000
  190.1930  176.7910  144.3730 C   0  0  2  0  0  3  0  0  0  0  0  0
  187.1540  177.9710  139.4870 C   0  0  0  0  0  2  0  0  0  0  0  0
  188.6580  178.2100  139.4420 C   0  0  1  0  0  3  0  0  0  0  0  0
  187.2450  178.3310  142.0490 C   0  0  2  0  0  3  0  0  0  0  0  0
  191.5830  178.3660  141.7290 C   0  0  0  0  0  1  0  0  0  0  0  0
  190.8020  175.7480  143.4360 C   0  0  0  0  0  2  0  0  0  0  0  0
  190.1560  178.2090  142.2300 C   0  0  2  0  0  3  0  0  0  0  0  0
  190.1840  178.2000  143.7660 C   0  0  0  0  0  2  0  0  0  0  0  0
  190.0180  175.6510  142.1220 C   0  0  0  0  0  2  0  0  0  0  0  0
  186.4890  178.5430  140.7360 C   0  0  0  0  0  2  0  0  0  0  0  0
  189.3630  176.9850  140.0740 C   0  0  2  0  0  3  0  0  0  0  0  0
  189.3970  176.9800  141.6310 C   0  0  2  0  0  0  0  0  0  0  0  0
  187.9370  176.9650  142.1410 C   0  0  0  0  0  2  0  0  0  0  0  0
  188.1480  179.3590  137.3400 O   0  0  0  0  0  0  0  0  0  0  0  0
  189.0820  178.5480  138.0060 C   0  0  1  0  0  0  0  0  0  0  0  0
  189.3590  179.9690  137.7280 C   0  0  0  0  0  2  0  0  0  0  0  0
  188.7510  176.8450  136.1850 C   0  0  0  0  0  1  0  0  0  0  0  0
  189.7600  177.5390  137.0810 C   0  0  0  0  0  2  0  0  0  0  0  0
  191.7800  177.7410  145.9110 O   0  0  0  0  0  1  0  0  0  0  0  0
  190.7760  176.7780  145.7950 C   0  0  1  0  0  3  0  0  0  0  0  0
  190.2030  177.8840  148.0390 C   0  0  0  0  0  2  0  0  0  0  0  0
  189.7850  176.8930  146.9670 C   0  0  1  0  0  3  0  0  0  0  0  0
  188.3700  177.2460  146.5370 C   0  0  0  0  0  2  0  0  0  0  0  0
  187.9230  178.3830  147.4410 C   0  0  2  0  0  3  0  0  0  0  0  0
  188.9140  178.4380  148.5970 C   0  0  0  0  0  2  0  0  0  0  0  0
  185.5580  179.1670  147.0700 C   0  0  0  0  0  2  0  0  0  0  0  0
  186.4390  178.2400  147.8200 C   0  0  1  0  0  3  0  0  0  0  0  0
  185.6690  177.8070  146.7230 O   0  0  0  0  0  0  0  0  0  0  0  0
  190.6000  176.4660  139.3740 C   0  0  0  0  0  3  0  0  0  0  0  0
  190.6440  175.3480  138.8870 O   0  0  0  0  0  0  0  0  0  0  0  0
  186.2670  178.5060  143.1980 C   0  0  0  0  0  2  0  0  0  0  0  0
  183.8320  178.6880  143.4520 C   0  0  0  0  0  2  0  0  0  0  0  0
  184.4440  179.8930  143.8420 O   0  0  0  0  0  0  0  0  0  0  0  0
  185.0110  179.2270  142.7420 C   0  0  1  0  0  3  0  0  0  0  0  0
  1 20  1  1  0  0  0
  2 10  1  0  0  0  0
  3  2  1  6  0  0  0
  3 11  1  0  0  0  0
  4 13  1  0  0  0  0
  4 31  1  1  0  0  0
  6  1  1  0  0  0  0
  7  5  1  6  0  0  0
  7  8  1  0  0  0  0
  8  1  1  0  0  0  0
  9  6  1  0  0  0  0
 10  4  1  0  0  0  0
 11 29  1  6  0  0  0
 11 12  1  0  0  0  0
 12  9  1  1  0  0  0
 12 13  1  0  0  0  0
 12  7  1  0  0  0  0
 14 16  1  0  0  0  0
 14 15  1  0  0  0  0
 15 18  1  6  0  0  0
 15  3  1  0  0  0  0
 16 15  1  0  0  0  0
 17 18  1  0  0  0  0
 20 19  1  6  0  0  0
 21 25  1  0  0  0  0
 22 20  1  6  0  0  0
 22 21  1  0  0  0  0
 23 22  1  0  0  0  0
 24 23  1  6  0  0  0
 24 27  1  0  0  0  0
 24 25  1  0  0  0  0
 27 26  1  6  0  0  0
 28 26  1  0  0  0  0
 28 27  1  0  0  0  0
 30 29  2  0  0  0  0
 32 33  1  0  0  0  0
 34 31  1  1  0  0  0
 34 32  1  0  0  0  0
 34 33  1  0  0  0  0
M  END
>  <MODEL>
4

>  <REMARK>
 VINA RESULT:      -6.7      1.859      7.766
  Name = 
  8 active torsions:
  status: ('A' for Active; 'I' for Inactive)
    1  A    between atoms: C_2  and  C_27
    2  A    between atoms: C_5  and  C_12
    3  A    between atoms: C_7  and  C_27
    4  A    between atoms: C_8  and  C_23
    5  A    between atoms: C_12  and  C_29
    6  A    between atoms: C_15  and  C_22
    7  A    between atoms: C_20  and  C_30
    8  A    between atoms: C_23  and  C_34
                            x       y       z     vdW  Elec       q    Type
                         _______ _______ _______ _____ _____    ______ ____

>  <TORSDO>
F 8

$$$$
=
 OpenBabel11062415413D

 34 39  0  0  1  0  0  0  0  0999 V2000
  189.5830  177.3480  140.5000 C   0  0  2  0  0  3  0  0  0  0  0  0
  187.6950  178.1720  146.0000 C   0  0  0  0  0  2  0  0  0  0  0  0
  188.8750  177.2280  145.8070 C   0  0  1  0  0  3  0  0  0  0  0  0
  186.9560  177.6290  143.5800 C   0  0  2  0  0  3  0  0  0  0  0  0
  190.7110  175.4900  143.0840 C   0  0  0  0  0  1  0  0  0  0  0  0
  190.8190  178.0220  141.0960 C   0  0  0  0  0  2  0  0  0  0  0  0
  189.4430  176.2910  142.8380 C   0  0  2  0  0  3  0  0  0  0  0  0
  189.0810  176.1730  141.3500 C   0  0  0  0  0  2  0  0  0  0  0  0
  190.5300  178.5870  142.4910 C   0  0  0  0  0  2  0  0  0  0  0  0
  186.5480  177.9110  145.0260 C   0  0  0  0  0  2  0  0  0  0  0  0
  189.8790  177.9000  144.8370 C   0  0  2  0  0  3  0  0  0  0  0  0
  189.5150  177.7750  143.3290 C   0  0  2  0  0  0  0  0  0  0  0  0
  188.1510  178.4680  143.1070 C   0  0  0  0  0  2  0  0  0  0  0  0
  189.5870  177.9280  148.0440 O   0  0  0  0  0  0  0  0  0  0  0  0
  189.4450  176.8310  147.1760 C   0  0  1  0  0  0  0  0  0  0  0  0
  188.5480  177.0180  148.3320 C   0  0  0  0  0  2  0  0  0  0  0  0
  191.8420  176.4290  147.8240 C   0  0  0  0  0  1  0  0  0  0  0  0
  190.5500  175.7910  147.3470 C   0  0  0  0  0  2  0  0  0  0  0  0
  189.8120  178.1220  138.2340 O   0  0  0  0  0  1  0  0  0  0  0  0
  189.7240  176.9700  139.0180 C   0  0  1  0  0  3  0  0  0  0  0  0
  190.4120  174.8990  137.6660 C   0  0  0  0  0  2  0  0  0  0  0  0
  190.8420  175.9800  138.6420 C   0  0  1  0  0  3  0  0  0  0  0  0
  192.0830  176.6500  138.0740 C   0  0  0  0  0  2  0  0  0  0  0  0
  192.4400  175.8820  136.8130 C   0  0  2  0  0  3  0  0  0  0  0  0
  191.6450  174.5830  136.8510 C   0  0  0  0  0  2  0  0  0  0  0  0
  194.4540  176.1690  135.3270 C   0  0  0  0  0  2  0  0  0  0  0  0
  193.9650  175.7430  136.6610 C   0  0  1  0  0  3  0  0  0  0  0  0
  194.5760  176.9960  136.4600 O   0  0  0  0  0  0  0  0  0  0  0  0
  191.3480  177.7930  145.1850 C   0  0  0  0  0  3  0  0  0  0  0  0
  192.1580  178.6290  144.8210 O   0  0  0  0  0  0  0  0  0  0  0  0
  185.7520  177.8740  142.6860 C   0  0  0  0  0  2  0  0  0  0  0  0
  184.9900  178.7810  140.5350 C   0  0  0  0  0  2  0  0  0  0  0  0
  185.3340  179.8340  141.4020 O   0  0  0  0  0  0  0  0  0  0  0  0
  186.1390  178.6830  141.4600 C   0  0  1  0  0  3  0  0  0  0  0  0
  1 20  1  6  0  0  0
  1  6  1  0  0  0  0
  1  8  1  0  0  0  0
  3  2  1  1  0  0  0
  3 15  1  0  0  0  0
  4 31  1  6  0  0  0
  4 10  1  0  0  0  0
  6  9  1  0  0  0  0
  7  5  1  6  0  0  0
  7 12  1  0  0  0  0
  8  7  1  0  0  0  0
 10  2  1  0  0  0  0
 11 29  1  6  0  0  0
 11  3  1  0  0  0  0
 12  9  1  6  0  0  0
 12 11  1  0  0  0  0
 13 12  1  0  0  0  0
 13  4  1  0  0  0  0
 14 16  1  0  0  0  0
 15 18  1  1  0  0  0
 15 14  1  0  0  0  0
 15 16  1  0  0  0  0
 18 17  1  0  0  0  0
 20 19  1  6  0  0  0
 21 22  1  0  0  0  0
 22 20  1  6  0  0  0
 23 22  1  0  0  0  0
 24 25  1  1  0  0  0
 24 23  1  0  0  0  0
 25 21  1  0  0  0  0
 26 28  1  0  0  0  0
 27 26  1  6  0  0  0
 27 24  1  0  0  0  0
 28 27  1  0  0  0  0
 30 29  2  0  0  0  0
 32 33  1  0  0  0  0
 32 34  1  0  0  0  0
 33 34  1  0  0  0  0
 34 31  1  1  0  0  0
M  END
>  <MODEL>
5

>  <REMARK>
 VINA RESULT:      -6.6      2.710      3.620
  Name = 
  8 active torsions:
  status: ('A' for Active; 'I' for Inactive)
    1  A    between atoms: C_2  and  C_27
    2  A    between atoms: C_5  and  C_12
    3  A    between atoms: C_7  and  C_27
    4  A    between atoms: C_8  and  C_23
    5  A    between atoms: C_12  and  C_29
    6  A    between atoms: C_15  and  C_22
    7  A    between atoms: C_20  and  C_30
    8  A    between atoms: C_23  and  C_34
                            x       y       z     vdW  Elec       q    Type
                         _______ _______ _______ _____ _____    ______ ____

>  <TORSDO>
F 8

$$$$
=
 OpenBabel11062415413D

 34 39  0  0  1  0  0  0  0  0999 V2000
  186.1380  178.2090  137.9600 C   0  0  2  0  0  3  0  0  0  0  0  0
  191.7700  176.7620  138.7820 C   0  0  0  0  0  2  0  0  0  0  0  0
  190.9910  175.9540  137.7520 C   0  0  1  0  0  3  0  0  0  0  0  0
  189.5310  177.2680  139.9770 C   0  0  2  0  0  3  0  0  0  0  0  0
  187.4980  175.4370  136.5950 C   0  0  0  0  0  1  0  0  0  0  0  0
  186.6930  178.5550  136.5790 C   0  0  0  0  0  2  0  0  0  0  0  0
  187.8440  176.2940  137.8010 C   0  0  2  0  0  3  0  0  0  0  0  0
  186.5350  176.8010  138.4230 C   0  0  0  0  0  2  0  0  0  0  0  0
  188.2260  178.5100  136.5660 C   0  0  0  0  0  2  0  0  0  0  0  0
  191.0200  176.9450  140.0990 C   0  0  0  0  0  2  0  0  0  0  0  0
  190.1880  176.9400  136.8690 C   0  0  2  0  0  3  0  0  0  0  0  0
  188.8570  177.4480  137.4970 C   0  0  2  0  0  0  0  0  0  0  0  0
  189.2020  178.2010  138.8040 C   0  0  0  0  0  2  0  0  0  0  0  0
  192.1630  173.8050  137.6680 O   0  0  0  0  0  0  0  0  0  0  0  0
  191.9490  175.0220  136.9980 C   0  0  1  0  0  0  0  0  0  0  0  0
  191.3700  173.7590  136.5010 C   0  0  0  0  0  2  0  0  0  0  0  0
  194.4620  175.1170  136.9880 C   0  0  0  0  0  1  0  0  0  0  0  0
  193.1910  175.5230  136.2650 C   0  0  0  0  0  2  0  0  0  0  0  0
  183.9150  177.2950  137.8500 O   0  0  0  0  0  1  0  0  0  0  0  0
  184.6300  178.4650  138.1150 C   0  0  1  0  0  3  0  0  0  0  0  0
  182.8410  178.5330  139.9540 C   0  0  0  0  0  2  0  0  0  0  0  0
  184.1510  179.0980  139.4340 C   0  0  1  0  0  3  0  0  0  0  0  0
  185.1710  179.0110  140.5580 C   0  0  0  0  0  2  0  0  0  0  0  0
  184.4210  178.4920  141.7720 C   0  0  2  0  0  3  0  0  0  0  0  0
  182.9350  178.6230  141.4590 C   0  0  0  0  0  2  0  0  0  0  0  0
  184.2520  178.6470  144.2810 C   0  0  0  0  0  2  0  0  0  0  0  0
  184.9080  179.1760  143.0610 C   0  0  1  0  0  3  0  0  0  0  0  0
  185.5550  178.2610  143.9140 O   0  0  0  0  0  0  0  0  0  0  0  0
  190.1670  176.6700  135.3800 C   0  0  0  0  0  3  0  0  0  0  0  0
  190.8150  177.3410  134.5940 O   0  0  0  0  0  0  0  0  0  0  0  0
  189.0640  177.8820  141.2850 C   0  0  0  0  0  2  0  0  0  0  0  0
  188.9290  177.3540  143.6800 C   0  0  0  0  0  2  0  0  0  0  0  0
  188.9990  176.1640  142.9330 O   0  0  0  0  0  0  0  0  0  0  0  0
  189.7700  177.2450  142.4700 C   0  0  1  0  0  3  0  0  0  0  0  0
  1 20  1  6  0  0  0
  1  8  1  0  0  0  0
  2 10  1  0  0  0  0
  3  2  1  1  0  0  0
  4 10  1  0  0  0  0
  4 31  1  1  0  0  0
  6  1  1  0  0  0  0
  7  5  1  6  0  0  0
  7  8  1  0  0  0  0
  9  6  1  0  0  0  0
 11 29  1  6  0  0  0
 11 12  1  0  0  0  0
 11  3  1  0  0  0  0
 12  9  1  6  0  0  0
 12  7  1  0  0  0  0
 12 13  1  0  0  0  0
 13  4  1  0  0  0  0
 15 18  1  6  0  0  0
 15 14  1  0  0  0  0
 15  3  1  0  0  0  0
 16 15  1  0  0  0  0
 16 14  1  0  0  0  0
 18 17  1  0  0  0  0
 20 19  1  1  0  0  0
 21 25  1  0  0  0  0
 22 20  1  6  0  0  0
 22 21  1  0  0  0  0
 22 23  1  0  0  0  0
 24 23  1  6  0  0  0
 24 27  1  0  0  0  0
 25 24  1  0  0  0  0
 27 28  1  0  0  0  0
 27 26  1  1  0  0  0
 28 26  1  0  0  0  0
 30 29  2  0  0  0  0
 33 32  1  0  0  0  0
 34 31  1  6  0  0  0
 34 33  1  0  0  0  0
 34 32  1  0  0  0  0
M  END
>  <MODEL>
6

>  <REMARK>
 VINA RESULT:      -6.5      3.049      7.648
  Name = 
  8 active torsions:
  status: ('A' for Active; 'I' for Inactive)
    1  A    between atoms: C_2  and  C_27
    2  A    between atoms: C_5  and  C_12
    3  A    between atoms: C_7  and  C_27
    4  A    between atoms: C_8  and  C_23
    5  A    between atoms: C_12  and  C_29
    6  A    between atoms: C_15  and  C_22
    7  A    between atoms: C_20  and  C_30
    8  A    between atoms: C_23  and  C_34
                            x       y       z     vdW  Elec       q    Type
                         _______ _______ _______ _____ _____    ______ ____

>  <TORSDO>
F 8

$$$$
=
 OpenBabel11062415413D

 34 39  0  0  1  0  0  0  0  0999 V2000
  183.0800  178.9870  141.5790 C   0  0  2  0  0  3  0  0  0  0  0  0
  184.1600  177.2310  136.0790 C   0  0  0  0  0  2  0  0  0  0  0  0
  183.0120  176.5480  136.8110 C   0  0  1  0  0  3  0  0  0  0  0  0
  185.2370  177.7300  138.3790 C   0  0  2  0  0  3  0  0  0  0  0  0
  181.5740  176.2840  140.2270 C   0  0  0  0  0  1  0  0  0  0  0  0
  181.7770  179.4240  140.9110 C   0  0  0  0  0  2  0  0  0  0  0  0
  182.8720  177.0200  139.9380 C   0  0  2  0  0  3  0  0  0  0  0  0
  183.4440  177.5280  141.2690 C   0  0  0  0  0  2  0  0  0  0  0  0
  181.8660  179.3130  139.3840 C   0  0  0  0  0  2  0  0  0  0  0  0
  185.4340  177.3330  136.9160 C   0  0  0  0  0  2  0  0  0  0  0  0
  182.1650  177.6400  137.5100 C   0  0  2  0  0  3  0  0  0  0  0  0
  182.7420  178.1500  138.8630 C   0  0  2  0  0  0  0  0  0  0  0  0
  184.1300  178.7730  138.5860 C   0  0  0  0  0  2  0  0  0  0  0  0
  181.9580  176.2790  134.6170 O   0  0  0  0  0  0  0  0  0  0  0  0
  182.2470  175.6420  135.8360 C   0  0  1  0  0  0  0  0  0  0  0  0
  182.9550  175.2810  134.5940 C   0  0  0  0  0  2  0  0  0  0  0  0
  181.5320  173.9500  137.5530 C   0  0  0  0  0  1  0  0  0  0  0  0
  181.1450  174.6840  136.2820 C   0  0  0  0  0  2  0  0  0  0  0  0
  182.2770  178.4620  143.7850 O   0  0  0  0  0  1  0  0  0  0  0  0
  183.1520  179.2940  143.0820 C   0  0  1  0  0  3  0  0  0  0  0  0
  184.5850  178.5980  145.0950 C   0  0  0  0  0  2  0  0  0  0  0  0
  184.5430  179.2860  143.7410 C   0  0  1  0  0  3  0  0  0  0  0  0
  185.6250  178.6660  142.8730 C   0  0  0  0  0  2  0  0  0  0  0  0
  186.3730  177.6860  143.7610 C   0  0  2  0  0  3  0  0  0  0  0  0
  185.9690  178.0000  145.1960 C   0  0  0  0  0  2  0  0  0  0  0  0
  188.4300  176.3510  143.1880 C   0  0  0  0  0  2  0  0  0  0  0  0
  187.8810  177.7010  143.4590 C   0  0  1  0  0  3  0  0  0  0  0  0
  188.1450  177.2560  142.1490 O   0  0  0  0  0  0  0  0  0  0  0  0
  180.6610  177.4980  137.4320 C   0  0  0  0  0  3  0  0  0  0  0  0
  179.9870  178.1840  136.6810 O   0  0  0  0  0  0  0  0  0  0  0  0
  186.5590  178.2500  138.9170 C   0  0  0  0  0  2  0  0  0  0  0  0
  188.9540  178.5330  138.4570 C   0  0  0  0  0  2  0  0  0  0  0  0
  188.6680  177.1730  138.6750 O   0  0  0  0  0  0  0  0  0  0  0  0
  187.7010  177.9150  137.9740 C   0  0  1  0  0  3  0  0  0  0  0  0
  1 20  1  1  0  0  0
  2 10  1  0  0  0  0
  3  2  1  6  0  0  0
  3 11  1  0  0  0  0
  4 13  1  0  0  0  0
  4 31  1  6  0  0  0
  6  1  1  0  0  0  0
  7  5  1  1  0  0  0
  7  8  1  0  0  0  0
  8  1  1  0  0  0  0
  9  6  1  0  0  0  0
 10  4  1  0  0  0  0
 11 29  1  1  0  0  0
 11 12  1  0  0  0  0
 12 13  1  6  0  0  0
 12  9  1  0  0  0  0
 12  7  1  0  0  0  0
 14 15  1  0  0  0  0
 15 18  1  1  0  0  0
 15  3  1  0  0  0  0
 16 14  1  0  0  0  0
 16 15  1  0  0  0  0
 18 17  1  0  0  0  0
 20 19  1  1  0  0  0
 21 25  1  0  0  0  0
 22 20  1  6  0  0  0
 22 21  1  0  0  0  0
 23 22  1  0  0  0  0
 24 23  1  6  0  0  0
 24 25  1  0  0  0  0
 27 26  1  1  0  0  0
 27 24  1  0  0  0  0
 28 26  1  0  0  0  0
 28 27  1  0  0  0  0
 30 29  2  0  0  0  0
 32 33  1  0  0  0  0
 34 32  1  0  0  0  0
 34 33  1  0  0  0  0
 34 31  1  1  0  0  0
M  END
>  <MODEL>
7

>  <REMARK>
 VINA RESULT:      -6.0      3.802      9.999
  Name = 
  8 active torsions:
  status: ('A' for Active; 'I' for Inactive)
    1  A    between atoms: C_2  and  C_27
    2  A    between atoms: C_5  and  C_12
    3  A    between atoms: C_7  and  C_27
    4  A    between atoms: C_8  and  C_23
    5  A    between atoms: C_12  and  C_29
    6  A    between atoms: C_15  and  C_22
    7  A    between atoms: C_20  and  C_30
    8  A    between atoms: C_23  and  C_34
                            x       y       z     vdW  Elec       q    Type
                         _______ _______ _______ _____ _____    ______ ____

>  <TORSDO>
F 8

$$$$
=
 OpenBabel11062415413D

 34 39  0  0  1  0  0  0  0  0999 V2000
  183.0680  178.9270  141.2640 C   0  0  2  0  0  3  0  0  0  0  0  0
  182.8790  177.0260  135.7100 C   0  0  0  0  0  2  0  0  0  0  0  0
  181.9180  176.3770  136.6970 C   0  0  1  0  0  3  0  0  0  0  0  0
  184.4460  177.5640  137.6980 C   0  0  2  0  0  3  0  0  0  0  0  0
  181.2760  176.2140  140.3530 C   0  0  0  0  0  1  0  0  0  0  0  0
  181.6530  179.3670  140.8920 C   0  0  0  0  0  2  0  0  0  0  0  0
  182.4820  176.9250  139.7620 C   0  0  2  0  0  3  0  0  0  0  0  0
  183.3410  177.4560  140.9190 C   0  0  0  0  0  2  0  0  0  0  0  0
  181.3980  179.2190  139.3870 C   0  0  0  0  0  2  0  0  0  0  0  0
  184.3080  177.1310  136.2390 C   0  0  0  0  0  2  0  0  0  0  0  0
  181.2570  177.4980  137.5380 C   0  0  2  0  0  3  0  0  0  0  0  0
  182.1260  178.0310  138.7150 C   0  0  2  0  0  0  0  0  0  0  0  0
  183.4230  178.6280  138.1190 C   0  0  0  0  0  2  0  0  0  0  0  0
  180.4300  176.0570  134.7780 O   0  0  0  0  0  0  0  0  0  0  0  0
  180.9460  175.4600  135.9400 C   0  0  1  0  0  0  0  0  0  0  0  0
  181.3760  175.0250  134.5980 C   0  0  0  0  0  2  0  0  0  0  0  0
  180.6080  173.6820  137.6870 C   0  0  0  0  0  1  0  0  0  0  0  0
  179.9360  174.5580  136.6450 C   0  0  0  0  0  2  0  0  0  0  0  0
  182.7770  178.4620  143.6060 O   0  0  0  0  0  1  0  0  0  0  0  0
  183.4760  179.2680  142.7050 C   0  0  1  0  0  3  0  0  0  0  0  0
  185.4030  178.1510  143.9800 C   0  0  0  0  0  2  0  0  0  0  0  0
  184.9790  179.2630  143.0360 C   0  0  1  0  0  3  0  0  0  0  0  0
  185.8730  179.1930  141.8080 C   0  0  0  0  0  2  0  0  0  0  0  0
  186.8930  178.1030  142.0880 C   0  0  2  0  0  3  0  0  0  0  0  0
  186.8180  177.8040  143.5800 C   0  0  0  0  0  2  0  0  0  0  0  0
  188.7350  177.5910  140.4470 C   0  0  0  0  0  2  0  0  0  0  0  0
  188.2790  178.4850  141.5390 C   0  0  1  0  0  3  0  0  0  0  0  0
  188.2050  178.8690  140.1850 O   0  0  0  0  0  0  0  0  0  0  0  0
  179.7720  177.3760  137.8010 C   0  0  0  0  0  3  0  0  0  0  0  0
  178.9530  178.0470  137.1940 O   0  0  0  0  0  0  0  0  0  0  0  0
  185.8590  178.0780  137.9140 C   0  0  0  0  0  2  0  0  0  0  0  0
  187.9970  178.5860  136.8190 C   0  0  0  0  0  2  0  0  0  0  0  0
  187.8870  177.1990  137.0290 O   0  0  0  0  0  0  0  0  0  0  0  0
  186.7090  177.8780  136.6710 C   0  0  1  0  0  3  0  0  0  0  0  0
  1 20  1  1  0  0  0
  2 10  1  0  0  0  0
  3  2  1  6  0  0  0
  3 11  1  0  0  0  0
  4 31  1  6  0  0  0
  4 13  1  0  0  0  0
  6  1  1  0  0  0  0
  7  5  1  1  0  0  0
  7  8  1  0  0  0  0
  8  1  1  0  0  0  0
  9  6  1  0  0  0  0
 10  4  1  0  0  0  0
 11 29  1  1  0  0  0
 11 12  1  0  0  0  0
 12 13  1  6  0  0  0
 12  9  1  0  0  0  0
 12  7  1  0  0  0  0
 14 15  1  0  0  0  0
 15 18  1  1  0  0  0
 15  3  1  0  0  0  0
 16 14  1  0  0  0  0
 16 15  1  0  0  0  0
 18 17  1  0  0  0  0
 20 19  1  1  0  0  0
 22 20  1  6  0  0  0
 22 21  1  0  0  0  0
 23 22  1  0  0  0  0
 24 23  1  1  0  0  0
 24 25  1  0  0  0  0
 25 21  1  0  0  0  0
 27 26  1  6  0  0  0
 27 24  1  0  0  0  0
 28 26  1  0  0  0  0
 28 27  1  0  0  0  0
 30 29  2  0  0  0  0
 32 33  1  0  0  0  0
 34 32  1  0  0  0  0
 34 33  1  0  0  0  0
 34 31  1  1  0  0  0
M  END
>  <MODEL>
8

>  <REMARK>
 VINA RESULT:      -6.0      4.353     10.272
  Name = 
  8 active torsions:
  status: ('A' for Active; 'I' for Inactive)
    1  A    between atoms: C_2  and  C_27
    2  A    between atoms: C_5  and  C_12
    3  A    between atoms: C_7  and  C_27
    4  A    between atoms: C_8  and  C_23
    5  A    between atoms: C_12  and  C_29
    6  A    between atoms: C_15  and  C_22
    7  A    between atoms: C_20  and  C_30
    8  A    between atoms: C_23  and  C_34
                            x       y       z     vdW  Elec       q    Type
                         _______ _______ _______ _____ _____    ______ ____

>  <TORSDO>
F 8

$$$$
=
 OpenBabel11062415413D

 34 39  0  0  1  0  0  0  0  0999 V2000
  190.1290  177.7220  142.7940 C   0  0  2  0  0  3  0  0  0  0  0  0
  186.3390  178.2780  138.3410 C   0  0  0  0  0  2  0  0  0  0  0  0
  185.7500  178.0650  139.7300 C   0  0  1  0  0  3  0  0  0  0  0  0
  188.4830  177.0690  139.1430 C   0  0  2  0  0  3  0  0  0  0  0  0
  186.8240  177.1360  143.1630 C   0  0  0  0  0  1  0  0  0  0  0  0
  189.4360  179.0200  143.2090 C   0  0  0  0  0  2  0  0  0  0  0  0
  187.7700  177.1160  141.9740 C   0  0  2  0  0  3  0  0  0  0  0  0
  189.1350  176.6030  142.4540 C   0  0  0  0  0  2  0  0  0  0  0  0
  188.5410  179.5600  142.0870 C   0  0  0  0  0  2  0  0  0  0  0  0
  187.4790  177.3160  138.0160 C   0  0  0  0  0  2  0  0  0  0  0  0
  186.4870  179.0020  140.7180 C   0  0  2  0  0  3  0  0  0  0  0  0
  187.8690  178.4780  141.2090 C   0  0  2  0  0  0  0  0  0  0  0  0
  188.7870  178.3210  139.9750 C   0  0  0  0  0  2  0  0  0  0  0  0
  183.5830  177.1640  139.0270 O   0  0  0  0  0  0  0  0  0  0  0  0
  184.2250  178.2350  139.6730 C   0  0  1  0  0  0  0  0  0  0  0  0
  183.4330  177.2460  140.4280 C   0  0  0  0  0  2  0  0  0  0  0  0
  182.5670  179.4890  138.2570 C   0  0  0  0  0  1  0  0  0  0  0  0
  183.5470  179.5780  139.4120 C   0  0  0  0  0  2  0  0  0  0  0  0
  192.0570  178.3160  144.1040 O   0  0  0  0  0  1  0  0  0  0  0  0
  191.2200  177.2510  143.7670 C   0  0  1  0  0  3  0  0  0  0  0  0
  191.8490  176.3490  146.0870 C   0  0  0  0  0  2  0  0  0  0  0  0
  190.7640  176.5070  145.0350 C   0  0  1  0  0  3  0  0  0  0  0  0
  189.5550  177.1350  145.7090 C   0  0  0  0  0  2  0  0  0  0  0  0
  189.9000  177.2440  147.1840 C   0  0  2  0  0  3  0  0  0  0  0  0
  191.1270  176.3700  147.4130 C   0  0  0  0  0  2  0  0  0  0  0  0
  188.2040  178.1260  148.8250 C   0  0  0  0  0  2  0  0  0  0  0  0
  188.6750  176.9430  148.0650 C   0  0  1  0  0  3  0  0  0  0  0  0
  187.5530  177.6900  147.6550 O   0  0  0  0  0  0  0  0  0  0  0  0
  185.6400  179.7250  141.7420 C   0  0  0  0  0  3  0  0  0  0  0  0
  185.0740  179.1310  142.6450 O   0  0  0  0  0  0  0  0  0  0  0  0
  189.7600  176.5160  138.5350 C   0  0  0  0  0  2  0  0  0  0  0  0
  190.7140  175.1710  136.7150 C   0  0  0  0  0  2  0  0  0  0  0  0
  189.9980  174.3410  137.5970 O   0  0  0  0  0  0  0  0  0  0  0  0
  189.4560  175.6150  137.3510 C   0  0  1  0  0  3  0  0  0  0  0  0
  1  6  1  0  0  0  0
  1 20  1  1  0  0  0
  3  2  1  6  0  0  0
  3 11  1  0  0  0  0
  4 31  1  6  0  0  0
  4 13  1  0  0  0  0
  7  8  1  0  0  0  0
  7  5  1  1  0  0  0
  8  1  1  0  0  0  0
  9  6  1  0  0  0  0
 10  2  1  0  0  0  0
 10  4  1  0  0  0  0
 11 12  1  0  0  0  0
 11 29  1  1  0  0  0
 12 13  1  6  0  0  0
 12  7  1  0  0  0  0
 12  9  1  0  0  0  0
 14 15  1  0  0  0  0
 14 16  1  0  0  0  0
 15 18  1  6  0  0  0
 15  3  1  0  0  0  0
 15 16  1  0  0  0  0
 17 18  1  0  0  0  0
 20 19  1  1  0  0  0
 21 25  1  0  0  0  0
 22 20  1  6  0  0  0
 22 23  1  0  0  0  0
 22 21  1  0  0  0  0
 24 23  1  6  0  0  0
 24 25  1  0  0  0  0
 24 27  1  0  0  0  0
 27 26  1  1  0  0  0
 28 27  1  0  0  0  0
 28 26  1  0  0  0  0
 29 30  2  0  0  0  0
 32 34  1  0  0  0  0
 32 33  1  0  0  0  0
 34 33  1  0  0  0  0
 34 31  1  1  0  0  0
M  END
>  <MODEL>
9

>  <REMARK>
 VINA RESULT:      -5.7      2.212      8.810
  Name = 
  8 active torsions:
  status: ('A' for Active; 'I' for Inactive)
    1  A    between atoms: C_2  and  C_27
    2  A    between atoms: C_5  and  C_12
    3  A    between atoms: C_7  and  C_27
    4  A    between atoms: C_8  and  C_23
    5  A    between atoms: C_12  and  C_29
    6  A    between atoms: C_15  and  C_22
    7  A    between atoms: C_20  and  C_30
    8  A    between atoms: C_23  and  C_34
                            x       y       z     vdW  Elec       q    Type
                         _______ _______ _______ _____ _____    ______ ____

>  <TORSDO>
F 8

$$$$
