=
 OpenBabel11062414583D

 51 56  0  0  1  0  0  0  0  0999 V2000
  185.0330  178.6720  144.0900 C   0  0  1  0  0  3  0  0  0  0  0  0
  184.9090  178.2150  142.6580 C   0  0  0  0  0  3  0  0  0  0  0  0
  181.4900  179.2160  141.9730 N   0  0  0  0  0  0  0  0  0  0  0  0
  183.6470  178.8280  138.2330 C   0  0  1  0  0  3  0  0  0  0  0  0
  181.2470  179.1510  140.5570 C   0  0  0  0  0  0  0  0  0  0  0  0
  182.6190  179.1210  144.0320 N   0  0  0  0  0  0  0  0  0  0  0  0
  183.7610  177.9740  140.5290 C   0  0  0  0  0  2  0  0  0  0  0  0
  180.0770  178.8930  140.1710 O   0  0  0  0  0  0  0  0  0  0  0  0
  182.1450  179.1040  138.1010 C   0  0  2  0  0  3  0  0  0  0  0  0
  182.6000  178.9720  142.6080 C   0  0  0  0  0  0  0  0  0  0  0  0
  183.6710  179.1630  139.6750 N   0  0  2  0  0  0  0  0  0  0  0  0
  182.2750  179.6200  139.5320 C   0  0  2  0  0  3  0  0  0  0  0  0
  183.7960  178.4020  141.9490 C   0  0  0  0  0  0  0  0  0  0  0  0
  183.7020  178.9580  144.7330 C   0  0  0  0  0  3  0  0  0  0  0  0
  186.8250  179.2510  146.2590 O   0  0  0  0  0  0  0  0  0  0  0  0
  185.7560  177.6900  144.8830 N   0  0  0  0  0  2  0  0  0  0  0  0
  186.6200  178.0410  145.9670 C   0  0  0  0  0  0  0  0  0  0  0  0
  187.2550  176.9560  146.7790 C   0  0  0  0  0  2  0  0  0  0  0  0
  189.2380  177.7620  145.4010 C   0  0  1  0  0  3  0  0  0  0  0  0
  191.0810  176.3710  147.1920 C   0  0  2  0  0  3  0  0  0  0  0  0
  188.7140  176.7000  146.3920 C   0  0  1  0  0  3  0  0  0  0  0  0
  190.5980  178.1260  145.5850 O   0  0  0  0  0  0  0  0  0  0  0  0
  192.0030  176.9980  148.2200 C   0  0  0  0  0  1  0  0  0  0  0  0
  191.3680  176.9650  145.8080 C   0  0  0  0  0  2  0  0  0  0  0  0
  189.6250  176.5940  147.6140 C   0  0  0  0  0  2  0  0  0  0  0  0
  190.5280  179.1040  143.0730 C   0  0  0  0  0  1  0  0  0  0  0  0
  189.3570  178.2590  142.9010 N   0  0  0  0  0  0  0  0  0  0  0  0
  188.9300  177.4020  143.9770 C   0  0  0  0  0  0  0  0  0  0  0  0
  188.2860  176.3460  143.7290 O   0  0  0  0  0  0  0  0  0  0  0  0
  189.3600  177.4570  140.5320 C   0  0  0  0  0  0  0  0  0  0  0  0
  188.7780  178.1840  141.6220 N   0  0  0  0  0  2  0  0  0  0  0  0
  190.3310  176.6720  140.7270 O   0  0  0  0  0  0  0  0  0  0  0  0
  188.9920  178.8510  137.2450 C   0  0  0  0  0  2  0  0  0  0  0  0
  188.8720  178.9540  138.6920 N   0  0  0  0  0  2  0  0  0  0  0  0
  189.5480  177.4800  136.9080 C   0  0  0  0  0  2  0  0  0  0  0  0
  188.7640  177.5830  139.1720 C   0  0  1  0  0  3  0  0  0  0  0  0
  189.4890  176.6880  138.1890 C   0  0  0  0  0  2  0  0  0  0  0  0
  184.0590  177.4490  137.9110 N   0  0  0  0  0  0  0  0  0  0  0  0
  183.6650  177.1740  136.5360 C   0  0  0  0  0  1  0  0  0  0  0  0
  185.5110  177.4280  137.8930 C   0  0  0  0  0  1  0  0  0  0  0  0
  181.4170  177.9090  138.0500 O   0  0  0  0  0  0  0  0  0  0  0  0
  180.3610  178.1910  137.2540 N   0  0  0  0  0  2  0  0  0  0  0  0
  180.8240  179.0400  136.2410 N   0  0  0  0  0  2  0  0  0  0  0  0
  179.8850  180.0720  136.1000 N   0  0  0  0  0  2  0  0  0  0  0  0
  180.9590  184.1140  136.1370 C   0  0  0  0  0  0  0  0  0  0  0  0
  181.2920  185.4250  136.1570 F   0  0  0  0  0  0  0  0  0  0  0  0
  180.3530  182.1500  137.3050 C   0  0  0  0  0  3  0  0  0  0  0  0
  180.5200  182.1410  134.9130 C   0  0  0  0  0  3  0  0  0  0  0  0
  180.2600  181.4520  136.1010 C   0  0  0  0  0  0  0  0  0  0  0  0
  180.6990  183.4640  137.3020 N   0  0  0  0  0  0  0  0  0  0  0  0
  180.8660  183.4540  134.9530 N   0  0  0  0  0  0  0  0  0  0  0  0
  1 14  1  0  0  0  0
  1 16  1  1  0  0  0
  2  1  1  0  0  0  0
  3 10  2  0  0  0  0
  4 38  1  1  0  0  0
  4 11  1  0  0  0  0
  5  3  1  0  0  0  0
  6 14  2  0  0  0  0
  7 13  1  0  0  0  0
  8  5  2  0  0  0  0
  9 41  1  1  0  0  0
  9  4  1  0  0  0  0
  9 12  1  0  0  0  0
 10  6  1  0  0  0  0
 11  7  1  1  0  0  0
 12 11  1  0  0  0  0
 12  5  1  1  0  0  0
 13 10  1  0  0  0  0
 13  2  2  0  0  0  0
 16 17  1  0  0  0  0
 17 15  2  0  0  0  0
 17 18  1  0  0  0  0
 19 28  1  6  0  0  0
 19 22  1  0  0  0  0
 19 21  1  0  0  0  0
 20 25  1  0  0  0  0
 20 23  1  1  0  0  0
 21 18  1  1  0  0  0
 21 25  1  0  0  0  0
 22 24  1  0  0  0  0
 24 20  1  0  0  0  0
 27 26  1  0  0  0  0
 27 28  1  0  0  0  0
 29 28  2  0  0  0  0
 30 32  2  0  0  0  0
 30 31  1  0  0  0  0
 31 27  1  0  0  0  0
 33 34  1  0  0  0  0
 34 36  1  0  0  0  0
 35 33  1  0  0  0  0
 35 37  1  0  0  0  0
 36 30  1  1  0  0  0
 37 36  1  0  0  0  0
 39 38  1  0  0  0  0
 40 38  1  0  0  0  0
 42 41  1  0  0  0  0
 43 42  1  0  0  0  0
 44 49  1  0  0  0  0
 44 43  1  0  0  0  0
 45 46  1  0  0  0  0
 45 50  2  0  0  0  0
 48 51  2  0  0  0  0
 48 49  1  0  0  0  0
 49 47  2  0  0  0  0
 50 47  1  0  0  0  0
 51 45  1  0  0  0  0
M  END
>  <MODEL>
1

>  <REMARK>
 VINA RESULT:      -8.5      0.000      0.000
  Name = 
  12 active torsions:
  status: ('A' for Active; 'I' for Inactive)
    1  A    between atoms: C_1  and  C_47
    2  A    between atoms: C_3  and  N_28
    3  A    between atoms: N_5  and  N_8
    4  A    between atoms: N_5  and  O_21
    5  A    between atoms: C_6  and  C_46
    6  A    between atoms: N_8  and  N_43
    7  A    between atoms: C_12  and  N_14
    8  A    between atoms: N_20  and  N_42
    9  A    between atoms: O_21  and  C_26
   10  A    between atoms: C_29  and  C_46
   11  A    between atoms: C_34  and  C_45
   12  A    between atoms: C_37  and  N_43
                            x       y       z     vdW  Elec       q    Type
                         _______ _______ _______ _____ _____    ______ ____

>  <TORSDO>
F 12

$$$$
=
 OpenBabel11062414583D

 51 56  0  0  1  0  0  0  0  0999 V2000
  187.3190  177.5510  139.0790 C   0  0  1  0  0  3  0  0  0  0  0  0
  187.9220  176.6320  138.0460 C   0  0  0  0  0  3  0  0  0  0  0  0
  191.4440  177.3250  138.5670 N   0  0  0  0  0  0  0  0  0  0  0  0
  191.0110  173.4560  136.6610 C   0  0  1  0  0  3  0  0  0  0  0  0
  192.2330  176.3300  137.8920 C   0  0  0  0  0  0  0  0  0  0  0  0
  189.5710  178.4770  139.3970 N   0  0  0  0  0  0  0  0  0  0  0  0
  189.7650  175.5570  136.8820 C   0  0  0  0  0  2  0  0  0  0  0  0
  193.3670  176.6680  137.4640 O   0  0  0  0  0  0  0  0  0  0  0  0
  192.4530  173.9570  136.8150 C   0  0  2  0  0  3  0  0  0  0  0  0
  190.1470  177.4010  138.6490 C   0  0  0  0  0  0  0  0  0  0  0  0
  190.4660  174.4760  137.5850 N   0  0  2  0  0  0  0  0  0  0  0  0
  191.8570  174.8510  137.9000 C   0  0  2  0  0  3  0  0  0  0  0  0
  189.2400  176.5190  137.8810 C   0  0  0  0  0  0  0  0  0  0  0  0
  188.2890  178.5880  139.5800 C   0  0  0  0  0  3  0  0  0  0  0  0
  185.5190  179.2210  140.5710 O   0  0  0  0  0  0  0  0  0  0  0  0
  186.1320  178.2080  138.5530 N   0  0  0  0  0  2  0  0  0  0  0  0
  185.2850  179.0460  139.3440 C   0  0  0  0  0  0  0  0  0  0  0  0
  184.1340  179.7470  138.6930 C   0  0  0  0  0  2  0  0  0  0  0  0
  181.9970  179.2060  139.9660 C   0  0  1  0  0  3  0  0  0  0  0  0
  180.7300  178.2880  137.4980 C   0  0  2  0  0  3  0  0  0  0  0  0
  182.8480  178.9180  138.7100 C   0  0  1  0  0  3  0  0  0  0  0  0
  180.5940  179.1860  139.7490 O   0  0  0  0  0  0  0  0  0  0  0  0
  179.6500  178.9990  136.7060 C   0  0  0  0  0  1  0  0  0  0  0  0
  180.2600  178.0780  138.9420 C   0  0  0  0  0  2  0  0  0  0  0  0
  182.0250  179.1030  137.4360 C   0  0  0  0  0  2  0  0  0  0  0  0
  181.1070  179.7410  142.7600 C   0  0  0  0  0  1  0  0  0  0  0  0
  182.1910  178.8130  142.4790 N   0  0  0  0  0  0  0  0  0  0  0  0
  182.4090  178.3560  141.1310 C   0  0  0  0  0  0  0  0  0  0  0  0
  182.9560  177.2380  140.9220 O   0  0  0  0  0  0  0  0  0  0  0  0
  184.0730  178.8450  144.1260 C   0  0  0  0  0  0  0  0  0  0  0  0
  182.8870  178.2610  143.5680 N   0  0  0  0  0  2  0  0  0  0  0  0
  184.4380  180.0060  143.7900 O   0  0  0  0  0  0  0  0  0  0  0  0
  187.0220  177.7160  145.8330 C   0  0  0  0  0  2  0  0  0  0  0  0
  186.1550  177.7300  144.6640 N   0  0  0  0  0  2  0  0  0  0  0  0
  186.4120  178.6180  146.8910 C   0  0  0  0  0  2  0  0  0  0  0  0
  184.8350  178.0920  145.1630 C   0  0  1  0  0  3  0  0  0  0  0  0
  185.0230  178.9400  146.4040 C   0  0  0  0  0  2  0  0  0  0  0  0
  190.4740  173.5130  135.2890 N   0  0  0  0  0  0  0  0  0  0  0  0
  190.8920  172.3030  134.5940 C   0  0  0  0  0  1  0  0  0  0  0  0
  189.0300  173.4060  135.3880 C   0  0  0  0  0  1  0  0  0  0  0  0
  192.8480  174.7010  135.6960 O   0  0  0  0  0  0  0  0  0  0  0  0
  193.8770  173.9980  135.1710 N   0  0  0  0  0  2  0  0  0  0  0  0
  195.0430  174.7380  135.4070 N   0  0  0  0  0  2  0  0  0  0  0  0
  195.9150  173.9210  136.1420 N   0  0  0  0  0  2  0  0  0  0  0  0
  197.4870  175.1160  139.8290 C   0  0  0  0  0  0  0  0  0  0  0  0
  197.9840  175.5130  141.0220 F   0  0  0  0  0  0  0  0  0  0  0  0
  195.6690  174.3190  138.5440 C   0  0  0  0  0  3  0  0  0  0  0  0
  197.7910  174.7530  137.5130 C   0  0  0  0  0  3  0  0  0  0  0  0
  196.4650  174.3250  137.3980 C   0  0  0  0  0  0  0  0  0  0  0  0
  196.1920  174.7130  139.7350 N   0  0  0  0  0  0  0  0  0  0  0  0
  198.2760  175.1370  138.7220 N   0  0  0  0  0  0  0  0  0  0  0  0
  1 16  1  6  0  0  0
  1 14  1  0  0  0  0
  2  1  1  0  0  0  0
  3 10  2  0  0  0  0
  4 38  1  6  0  0  0
  4  9  1  0  0  0  0
  4 11  1  0  0  0  0
  5  3  1  0  0  0  0
  6 14  2  0  0  0  0
  7 13  1  0  0  0  0
  8  5  2  0  0  0  0
  9 41  1  6  0  0  0
  9 12  1  0  0  0  0
 10  6  1  0  0  0  0
 11  7  1  6  0  0  0
 11 12  1  0  0  0  0
 12  5  1  6  0  0  0
 13  2  2  0  0  0  0
 13 10  1  0  0  0  0
 16 17  1  0  0  0  0
 17 15  2  0  0  0  0
 18 17  1  0  0  0  0
 19 28  1  1  0  0  0
 20 23  1  6  0  0  0
 20 24  1  0  0  0  0
 21 18  1  6  0  0  0
 21 19  1  0  0  0  0
 22 19  1  0  0  0  0
 24 22  1  0  0  0  0
 25 20  1  0  0  0  0
 25 21  1  0  0  0  0
 27 26  1  0  0  0  0
 27 31  1  0  0  0  0
 28 27  1  0  0  0  0
 29 28  2  0  0  0  0
 31 30  1  0  0  0  0
 32 30  2  0  0  0  0
 33 35  1  0  0  0  0
 34 36  1  0  0  0  0
 34 33  1  0  0  0  0
 36 30  1  6  0  0  0
 36 37  1  0  0  0  0
 37 35  1  0  0  0  0
 38 40  1  0  0  0  0
 39 38  1  0  0  0  0
 42 43  1  0  0  0  0
 42 41  1  0  0  0  0
 43 44  1  0  0  0  0
 44 49  1  0  0  0  0
 45 46  1  0  0  0  0
 47 50  1  0  0  0  0
 48 51  2  0  0  0  0
 49 48  1  0  0  0  0
 49 47  2  0  0  0  0
 50 45  2  0  0  0  0
 51 45  1  0  0  0  0
M  END
>  <MODEL>
2

>  <REMARK>
 VINA RESULT:      -7.8      5.166     11.552
  Name = 
  12 active torsions:
  status: ('A' for Active; 'I' for Inactive)
    1  A    between atoms: C_1  and  C_47
    2  A    between atoms: C_3  and  N_28
    3  A    between atoms: N_5  and  N_8
    4  A    between atoms: N_5  and  O_21
    5  A    between atoms: C_6  and  C_46
    6  A    between atoms: N_8  and  N_43
    7  A    between atoms: C_12  and  N_14
    8  A    between atoms: N_20  and  N_42
    9  A    between atoms: O_21  and  C_26
   10  A    between atoms: C_29  and  C_46
   11  A    between atoms: C_34  and  C_45
   12  A    between atoms: C_37  and  N_43
                            x       y       z     vdW  Elec       q    Type
                         _______ _______ _______ _____ _____    ______ ____

>  <TORSDO>
F 12

$$$$
=
 OpenBabel11062414583D

 51 56  0  0  1  0  0  0  0  0999 V2000
  186.1270  177.4910  135.1990 C   0  0  1  0  0  3  0  0  0  0  0  0
  186.1690  177.5510  136.7060 C   0  0  0  0  0  3  0  0  0  0  0  0
  189.5410  176.3490  137.2890 N   0  0  0  0  0  0  0  0  0  0  0  0
  188.2180  178.6310  140.7290 C   0  0  1  0  0  3  0  0  0  0  0  0
  189.9130  176.6080  138.6540 C   0  0  0  0  0  0  0  0  0  0  0  0
  188.2830  176.3200  135.3040 N   0  0  0  0  0  0  0  0  0  0  0  0
  187.2470  177.3520  138.8750 C   0  0  0  0  0  2  0  0  0  0  0  0
  190.7250  175.8190  139.2040 O   0  0  0  0  0  0  0  0  0  0  0  0
  189.5740  177.9310  140.8850 C   0  0  2  0  0  3  0  0  0  0  0  0
  188.4320  176.6630  136.6860 C   0  0  0  0  0  0  0  0  0  0  0  0
  188.1780  178.4170  139.2640 N   0  0  2  0  0  0  0  0  0  0  0  0
  189.5630  177.9160  139.3580 C   0  0  2  0  0  3  0  0  0  0  0  0
  187.2590  177.2190  137.3980 C   0  0  0  0  0  0  0  0  0  0  0  0
  187.2340  176.6550  134.6140 C   0  0  0  0  0  3  0  0  0  0  0  0
  184.9010  175.0210  136.0050 O   0  0  0  0  0  0  0  0  0  0  0  0
  184.8410  176.9880  134.7400 N   0  0  0  0  0  2  0  0  0  0  0  0
  184.2730  175.7570  135.1960 C   0  0  0  0  0  0  0  0  0  0  0  0
  182.9070  175.3640  134.7310 C   0  0  0  0  0  2  0  0  0  0  0  0
  180.8170  174.4390  135.8500 C   0  0  1  0  0  3  0  0  0  0  0  0
  181.8960  171.7280  135.6820 C   0  0  2  0  0  3  0  0  0  0  0  0
  182.3120  174.2100  135.5400 C   0  0  1  0  0  3  0  0  0  0  0  0
  180.0200  173.2630  135.8350 O   0  0  0  0  0  0  0  0  0  0  0  0
  181.4460  170.6230  134.7460 C   0  0  0  0  0  1  0  0  0  0  0  0
  180.7030  172.2270  136.5060 C   0  0  0  0  0  2  0  0  0  0  0  0
  182.5310  172.8570  134.8640 C   0  0  0  0  0  2  0  0  0  0  0  0
  179.3440  177.0300  135.8880 C   0  0  0  0  0  1  0  0  0  0  0  0
  180.1580  176.6090  137.0180 N   0  0  0  0  0  0  0  0  0  0  0  0
  180.6180  175.2480  137.0980 C   0  0  0  0  0  0  0  0  0  0  0  0
  180.8670  174.7280  138.2210 O   0  0  0  0  0  0  0  0  0  0  0  0
  181.5230  178.2710  138.2940 C   0  0  0  0  0  0  0  0  0  0  0  0
  180.3260  177.5110  138.0830 N   0  0  0  0  0  2  0  0  0  0  0  0
  182.4210  178.3190  137.4060 O   0  0  0  0  0  0  0  0  0  0  0  0
  180.4070  179.7700  141.3590 C   0  0  0  0  0  2  0  0  0  0  0  0
  180.4050  179.6930  139.9050 N   0  0  0  0  0  2  0  0  0  0  0  0
  181.3360  178.6950  141.8930 C   0  0  0  0  0  2  0  0  0  0  0  0
  181.6700  179.0650  139.5480 C   0  0  1  0  0  3  0  0  0  0  0  0
  182.0870  178.1700  140.6960 C   0  0  0  0  0  2  0  0  0  0  0  0
  187.1080  178.0120  141.4760 N   0  0  0  0  0  0  0  0  0  0  0  0
  187.4200  178.0990  142.8960 C   0  0  0  0  0  1  0  0  0  0  0  0
  185.9440  178.8630  141.2980 C   0  0  0  0  0  1  0  0  0  0  0  0
  189.4170  176.6430  141.4120 O   0  0  0  0  0  0  0  0  0  0  0  0
  190.6060  176.3700  141.9940 N   0  0  0  0  0  2  0  0  0  0  0  0
  190.8970  177.4350  142.8570 N   0  0  0  0  0  2  0  0  0  0  0  0
  191.3720  176.8830  144.0550 N   0  0  0  0  0  2  0  0  0  0  0  0
  189.5650  177.6010  147.7580 C   0  0  0  0  0  0  0  0  0  0  0  0
  188.9810  177.8180  148.9590 F   0  0  0  0  0  0  0  0  0  0  0  0
  191.3760  176.7510  146.4990 C   0  0  0  0  0  3  0  0  0  0  0  0
  189.4990  177.7600  145.4010 C   0  0  0  0  0  3  0  0  0  0  0  0
  190.7480  177.1400  145.3160 C   0  0  0  0  0  0  0  0  0  0  0  0
  190.7760  176.9870  147.6950 N   0  0  0  0  0  0  0  0  0  0  0  0
  188.9330  177.9810  146.6160 N   0  0  0  0  0  0  0  0  0  0  0  0
  1 16  1  1  0  0  0
  1  2  1  0  0  0  0
  2 13  2  0  0  0  0
  3  5  1  0  0  0  0
  4  9  1  0  0  0  0
  4 38  1  1  0  0  0
  5  8  2  0  0  0  0
  6 10  1  0  0  0  0
  9 41  1  1  0  0  0
 10  3  2  0  0  0  0
 10 13  1  0  0  0  0
 11  7  1  1  0  0  0
 11 12  1  0  0  0  0
 11  4  1  0  0  0  0
 12  5  1  1  0  0  0
 12  9  1  0  0  0  0
 13  7  1  0  0  0  0
 14  1  1  0  0  0  0
 14  6  2  0  0  0  0
 16 17  1  0  0  0  0
 17 15  2  0  0  0  0
 18 17  1  0  0  0  0
 19 28  1  1  0  0  0
 20 23  1  6  0  0  0
 20 24  1  0  0  0  0
 21 18  1  6  0  0  0
 21 19  1  0  0  0  0
 22 19  1  0  0  0  0
 22 24  1  0  0  0  0
 25 21  1  0  0  0  0
 25 20  1  0  0  0  0
 26 27  1  0  0  0  0
 27 28  1  0  0  0  0
 27 31  1  0  0  0  0
 28 29  2  0  0  0  0
 31 30  1  0  0  0  0
 32 30  2  0  0  0  0
 33 35  1  0  0  0  0
 34 33  1  0  0  0  0
 36 30  1  6  0  0  0
 36 34  1  0  0  0  0
 36 37  1  0  0  0  0
 37 35  1  0  0  0  0
 38 39  1  0  0  0  0
 40 38  1  0  0  0  0
 41 42  1  0  0  0  0
 42 43  1  0  0  0  0
 43 44  1  0  0  0  0
 44 49  1  0  0  0  0
 45 46  1  0  0  0  0
 47 50  1  0  0  0  0
 48 51  2  0  0  0  0
 49 48  1  0  0  0  0
 49 47  2  0  0  0  0
 50 45  2  0  0  0  0
 51 45  1  0  0  0  0
M  END
>  <MODEL>
3

>  <REMARK>
 VINA RESULT:      -7.7      3.753     11.295
  Name = 
  12 active torsions:
  status: ('A' for Active; 'I' for Inactive)
    1  A    between atoms: C_1  and  C_47
    2  A    between atoms: C_3  and  N_28
    3  A    between atoms: N_5  and  N_8
    4  A    between atoms: N_5  and  O_21
    5  A    between atoms: C_6  and  C_46
    6  A    between atoms: N_8  and  N_43
    7  A    between atoms: C_12  and  N_14
    8  A    between atoms: N_20  and  N_42
    9  A    between atoms: O_21  and  C_26
   10  A    between atoms: C_29  and  C_46
   11  A    between atoms: C_34  and  C_45
   12  A    between atoms: C_37  and  N_43
                            x       y       z     vdW  Elec       q    Type
                         _______ _______ _______ _____ _____    ______ ____

>  <TORSDO>
F 12

$$$$
=
 OpenBabel11062414583D

 51 56  0  0  1  0  0  0  0  0999 V2000
  182.5440  178.6170  142.5950 C   0  0  1  0  0  3  0  0  0  0  0  0
  184.0090  178.6000  142.2360 C   0  0  0  0  0  3  0  0  0  0  0  0
  185.4660  178.3970  145.5520 N   0  0  0  0  0  0  0  0  0  0  0  0
  188.3280  176.9470  142.6370 C   0  0  1  0  0  3  0  0  0  0  0  0
  186.8600  178.0610  145.4430 C   0  0  0  0  0  0  0  0  0  0  0  0
  183.2420  178.8460  144.9380 N   0  0  0  0  0  0  0  0  0  0  0  0
  186.3820  178.4370  142.7340 C   0  0  0  0  0  2  0  0  0  0  0  0
  187.6400  178.4860  146.3340 O   0  0  0  0  0  0  0  0  0  0  0  0
  188.8520  177.0610  144.0740 C   0  0  2  0  0  3  0  0  0  0  0  0
  184.5930  178.5230  144.5940 C   0  0  0  0  0  0  0  0  0  0  0  0
  186.9140  177.1060  143.0470 N   0  0  2  0  0  0  0  0  0  0  0  0
  187.3710  177.0240  144.4470 C   0  0  2  0  0  3  0  0  0  0  0  0
  184.9630  178.5010  143.1610 C   0  0  0  0  0  0  0  0  0  0  0  0
  182.2980  178.9280  144.0480 C   0  0  0  0  0  3  0  0  0  0  0  0
  179.9280  178.2270  141.4730 O   0  0  0  0  0  0  0  0  0  0  0  0
  181.8220  179.5690  141.7640 N   0  0  0  0  0  2  0  0  0  0  0  0
  180.5090  179.3240  141.2510 C   0  0  0  0  0  0  0  0  0  0  0  0
  179.8140  180.3980  140.4770 C   0  0  0  0  0  2  0  0  0  0  0  0
  179.7160  179.6430  138.0480 C   0  0  1  0  0  3  0  0  0  0  0  0
  180.8710  182.1850  137.1840 C   0  0  2  0  0  3  0  0  0  0  0  0
  180.3880  180.5840  139.0700 C   0  0  1  0  0  3  0  0  0  0  0  0
  179.5360  180.2020  136.7550 O   0  0  0  0  0  0  0  0  0  0  0  0
  180.1540  183.3220  136.4820 C   0  0  0  0  0  1  0  0  0  0  0  0
  180.7070  180.8920  136.3760 C   0  0  0  0  0  2  0  0  0  0  0  0
  180.3190  182.0380  138.6060 C   0  0  0  0  0  2  0  0  0  0  0  0
  182.6530  179.2670  138.3890 C   0  0  0  0  0  1  0  0  0  0  0  0
  181.8090  178.1940  137.8870 N   0  0  0  0  0  0  0  0  0  0  0  0
  180.3780  178.2970  138.0020 C   0  0  0  0  0  0  0  0  0  0  0  0
  179.6690  177.2540  138.0560 O   0  0  0  0  0  0  0  0  0  0  0  0
  182.9330  176.0090  138.3520 C   0  0  0  0  0  0  0  0  0  0  0  0
  182.4330  177.0100  137.4560 N   0  0  0  0  0  2  0  0  0  0  0  0
  182.6540  176.0490  139.5830 O   0  0  0  0  0  0  0  0  0  0  0  0
  183.6570  173.3140  136.0930 C   0  0  0  0  0  2  0  0  0  0  0  0
  182.8630  173.8980  137.1640 N   0  0  0  0  0  2  0  0  0  0  0  0
  184.7350  174.3070  135.7010 C   0  0  0  0  0  2  0  0  0  0  0  0
  183.7340  174.8760  137.8040 C   0  0  1  0  0  3  0  0  0  0  0  0
  184.7160  175.3740  136.7640 C   0  0  0  0  0  2  0  0  0  0  0  0
  188.8240  177.9800  141.7090 N   0  0  0  0  0  0  0  0  0  0  0  0
  190.1810  177.6200  141.3220 C   0  0  0  0  0  1  0  0  0  0  0  0
  188.0460  177.8680  140.4880 C   0  0  0  0  0  1  0  0  0  0  0  0
  189.4080  178.3250  144.3070 O   0  0  0  0  0  0  0  0  0  0  0  0
  190.5900  178.0660  144.9110 N   0  0  0  0  0  2  0  0  0  0  0  0
  190.6480  176.6840  145.1290 N   0  0  0  0  0  2  0  0  0  0  0  0
  190.3980  176.4650  146.4920 N   0  0  0  0  0  2  0  0  0  0  0  0
  193.3880  176.8330  149.3940 C   0  0  0  0  0  0  0  0  0  0  0  0
  194.3580  176.9670  150.3270 F   0  0  0  0  0  0  0  0  0  0  0  0
  191.4140  177.6470  148.3790 C   0  0  0  0  0  3  0  0  0  0  0  0
  192.4580  175.6440  147.5750 C   0  0  0  0  0  3  0  0  0  0  0  0
  191.4210  176.5770  147.4840 C   0  0  0  0  0  0  0  0  0  0  0  0
  192.3930  177.7570  149.3140 N   0  0  0  0  0  0  0  0  0  0  0  0
  193.4180  175.7870  148.5260 N   0  0  0  0  0  0  0  0  0  0  0  0
  1 16  1  6  0  0  0
  1 14  1  0  0  0  0
  2  1  1  0  0  0  0
  2 13  2  0  0  0  0
  4 38  1  6  0  0  0
  4 11  1  0  0  0  0
  4  9  1  0  0  0  0
  5  3  1  0  0  0  0
  5  8  2  0  0  0  0
  7 13  1  0  0  0  0
  9 41  1  6  0  0  0
  9 12  1  0  0  0  0
 10  6  1  0  0  0  0
 10  3  2  0  0  0  0
 11  7  1  1  0  0  0
 11 12  1  0  0  0  0
 12  5  1  1  0  0  0
 13 10  1  0  0  0  0
 14  6  2  0  0  0  0
 17 15  2  0  0  0  0
 17 16  1  0  0  0  0
 18 17  1  0  0  0  0
 19 28  1  6  0  0  0
 19 21  1  0  0  0  0
 20 23  1  6  0  0  0
 20 25  1  0  0  0  0
 21 18  1  1  0  0  0
 22 19  1  0  0  0  0
 24 22  1  0  0  0  0
 24 20  1  0  0  0  0
 25 21  1  0  0  0  0
 27 28  1  0  0  0  0
 27 26  1  0  0  0  0
 28 29  2  0  0  0  0
 30 32  2  0  0  0  0
 31 27  1  0  0  0  0
 31 30  1  0  0  0  0
 33 34  1  0  0  0  0
 34 36  1  0  0  0  0
 35 33  1  0  0  0  0
 35 37  1  0  0  0  0
 36 30  1  6  0  0  0
 37 36  1  0  0  0  0
 39 38  1  0  0  0  0
 40 38  1  0  0  0  0
 41 42  1  0  0  0  0
 42 43  1  0  0  0  0
 43 44  1  0  0  0  0
 44 49  1  0  0  0  0
 45 46  1  0  0  0  0
 47 50  1  0  0  0  0
 48 51  2  0  0  0  0
 49 48  1  0  0  0  0
 49 47  2  0  0  0  0
 50 45  2  0  0  0  0
 51 45  1  0  0  0  0
M  END
>  <MODEL>
4

>  <REMARK>
 VINA RESULT:      -7.5      3.762     10.987
  Name = 
  12 active torsions:
  status: ('A' for Active; 'I' for Inactive)
    1  A    between atoms: C_1  and  C_47
    2  A    between atoms: C_3  and  N_28
    3  A    between atoms: N_5  and  N_8
    4  A    between atoms: N_5  and  O_21
    5  A    between atoms: C_6  and  C_46
    6  A    between atoms: N_8  and  N_43
    7  A    between atoms: C_12  and  N_14
    8  A    between atoms: N_20  and  N_42
    9  A    between atoms: O_21  and  C_26
   10  A    between atoms: C_29  and  C_46
   11  A    between atoms: C_34  and  C_45
   12  A    between atoms: C_37  and  N_43
                            x       y       z     vdW  Elec       q    Type
                         _______ _______ _______ _____ _____    ______ ____

>  <TORSDO>
F 12

$$$$
=
 OpenBabel11062414583D

 51 56  0  0  1  0  0  0  0  0999 V2000
  190.1460  178.1730  141.0740 C   0  0  1  0  0  3  0  0  0  0  0  0
  189.9410  177.2150  139.9280 C   0  0  0  0  0  3  0  0  0  0  0  0
  186.6590  178.2720  138.8030 N   0  0  0  0  0  0  0  0  0  0  0  0
  188.6840  176.2090  135.5740 C   0  0  1  0  0  3  0  0  0  0  0  0
  186.3830  177.6930  137.5160 C   0  0  0  0  0  0  0  0  0  0  0  0
  187.8050  178.8490  140.7730 N   0  0  0  0  0  0  0  0  0  0  0  0
  188.7340  176.3060  138.0230 C   0  0  0  0  0  2  0  0  0  0  0  0
  185.1840  177.4480  137.2240 O   0  0  0  0  0  0  0  0  0  0  0  0
  187.2240  176.5900  135.2980 C   0  0  2  0  0  3  0  0  0  0  0  0
  187.7410  178.1640  139.5170 C   0  0  0  0  0  0  0  0  0  0  0  0
  188.7750  177.0730  136.7730 N   0  0  2  0  0  0  0  0  0  0  0  0
  187.4430  177.6010  136.4220 C   0  0  2  0  0  3  0  0  0  0  0  0
  188.8470  177.2440  139.1670 C   0  0  0  0  0  0  0  0  0  0  0  0
  188.8720  178.8430  141.5150 C   0  0  0  0  0  3  0  0  0  0  0  0
  189.1710  175.7830  142.3340 O   0  0  0  0  0  0  0  0  0  0  0  0
  190.7580  177.4970  142.2070 N   0  0  0  0  0  2  0  0  0  0  0  0
  190.2340  176.2940  142.7780 C   0  0  0  0  0  0  0  0  0  0  0  0
  190.9810  175.6250  143.8890 C   0  0  0  0  0  2  0  0  0  0  0  0
  189.5980  176.4480  145.8610 C   0  0  1  0  0  3  0  0  0  0  0  0
  192.0270  176.8040  147.4480 C   0  0  2  0  0  3  0  0  0  0  0  0
  190.9850  176.4450  145.1810 C   0  0  1  0  0  3  0  0  0  0  0  0
  189.6340  176.4290  147.2810 O   0  0  0  0  0  0  0  0  0  0  0  0
  192.4980  175.9410  148.6020 C   0  0  0  0  0  1  0  0  0  0  0  0
  190.6170  177.3320  147.7370 C   0  0  0  0  0  2  0  0  0  0  0  0
  192.0710  175.9870  146.1530 C   0  0  0  0  0  2  0  0  0  0  0  0
  186.6530  176.5090  146.3140 C   0  0  0  0  0  1  0  0  0  0  0  0
  187.2810  177.3710  145.3250 N   0  0  0  0  0  0  0  0  0  0  0  0
  188.7120  177.5340  145.3250 C   0  0  0  0  0  0  0  0  0  0  0  0
  189.2300  178.5880  144.8660 O   0  0  0  0  0  0  0  0  0  0  0  0
  185.2640  178.8090  144.9790 C   0  0  0  0  0  0  0  0  0  0  0  0
  186.4490  178.1530  144.5060 N   0  0  0  0  0  2  0  0  0  0  0  0
  185.0190  178.8820  146.2160 O   0  0  0  0  0  0  0  0  0  0  0  0
  183.3280  179.0340  141.9640 C   0  0  0  0  0  2  0  0  0  0  0  0
  184.6090  178.9670  142.6520 N   0  0  0  0  0  2  0  0  0  0  0  0
  182.2240  178.9920  143.0050 C   0  0  0  0  0  2  0  0  0  0  0  0
  184.3550  179.4660  143.9960 C   0  0  1  0  0  3  0  0  0  0  0  0
  182.9080  179.1760  144.3350 C   0  0  0  0  0  2  0  0  0  0  0  0
  188.9180  174.7750  135.8230 N   0  0  0  0  0  0  0  0  0  0  0  0
  188.4130  174.0330  134.6760 C   0  0  0  0  0  1  0  0  0  0  0  0
  190.3550  174.5640  135.7990 C   0  0  0  0  0  1  0  0  0  0  0  0
  186.3560  175.5650  135.6920 O   0  0  0  0  0  0  0  0  0  0  0  0
  185.3100  175.6650  134.8410 N   0  0  0  0  0  2  0  0  0  0  0  0
  184.3900  174.6710  135.2000 N   0  0  0  0  0  2  0  0  0  0  0  0
  183.1280  175.2790  135.2780 N   0  0  0  0  0  2  0  0  0  0  0  0
  181.5860  176.8070  138.8530 C   0  0  0  0  0  0  0  0  0  0  0  0
  181.0960  177.3140  140.0070 F   0  0  0  0  0  0  0  0  0  0  0  0
  181.9090  177.0000  136.5190 C   0  0  0  0  0  3  0  0  0  0  0  0
  182.7730  175.1100  137.7150 C   0  0  0  0  0  3  0  0  0  0  0  0
  182.6000  175.7880  136.5050 C   0  0  0  0  0  0  0  0  0  0  0  0
  181.4170  177.4870  137.6880 N   0  0  0  0  0  0  0  0  0  0  0  0
  182.2630  175.6280  138.8620 N   0  0  0  0  0  0  0  0  0  0  0  0
  1 14  1  0  0  0  0
  1 16  1  1  0  0  0
  2  1  1  0  0  0  0
  3 10  2  0  0  0  0
  4 38  1  1  0  0  0
  4 11  1  0  0  0  0
  5  3  1  0  0  0  0
  6 14  2  0  0  0  0
  7 13  1  0  0  0  0
  8  5  2  0  0  0  0
  9  4  1  0  0  0  0
  9 41  1  1  0  0  0
  9 12  1  0  0  0  0
 10  6  1  0  0  0  0
 11  7  1  1  0  0  0
 12 11  1  0  0  0  0
 12  5  1  1  0  0  0
 13 10  1  0  0  0  0
 13  2  2  0  0  0  0
 15 17  2  0  0  0  0
 16 17  1  0  0  0  0
 17 18  1  0  0  0  0
 19 28  1  1  0  0  0
 19 22  1  0  0  0  0
 20 24  1  0  0  0  0
 20 23  1  1  0  0  0
 21 18  1  6  0  0  0
 21 19  1  0  0  0  0
 21 25  1  0  0  0  0
 22 24  1  0  0  0  0
 25 20  1  0  0  0  0
 27 26  1  0  0  0  0
 28 27  1  0  0  0  0
 29 28  2  0  0  0  0
 30 32  2  0  0  0  0
 31 30  1  0  0  0  0
 31 27  1  0  0  0  0
 33 34  1  0  0  0  0
 33 35  1  0  0  0  0
 34 36  1  0  0  0  0
 35 37  1  0  0  0  0
 36 37  1  0  0  0  0
 36 30  1  1  0  0  0
 39 38  1  0  0  0  0
 40 38  1  0  0  0  0
 42 43  1  0  0  0  0
 42 41  1  0  0  0  0
 43 44  1  0  0  0  0
 44 49  1  0  0  0  0
 45 51  1  0  0  0  0
 45 46  1  0  0  0  0
 47 50  1  0  0  0  0
 48 51  2  0  0  0  0
 49 47  2  0  0  0  0
 49 48  1  0  0  0  0
 50 45  2  0  0  0  0
M  END
>  <MODEL>
5

>  <REMARK>
 VINA RESULT:      -7.0      3.103      5.910
  Name = 
  12 active torsions:
  status: ('A' for Active; 'I' for Inactive)
    1  A    between atoms: C_1  and  C_47
    2  A    between atoms: C_3  and  N_28
    3  A    between atoms: N_5  and  N_8
    4  A    between atoms: N_5  and  O_21
    5  A    between atoms: C_6  and  C_46
    6  A    between atoms: N_8  and  N_43
    7  A    between atoms: C_12  and  N_14
    8  A    between atoms: N_20  and  N_42
    9  A    between atoms: O_21  and  C_26
   10  A    between atoms: C_29  and  C_46
   11  A    between atoms: C_34  and  C_45
   12  A    between atoms: C_37  and  N_43
                            x       y       z     vdW  Elec       q    Type
                         _______ _______ _______ _____ _____    ______ ____

>  <TORSDO>
F 12

$$$$
=
 OpenBabel11062414583D

 51 56  0  0  1  0  0  0  0  0999 V2000
  189.3710  177.4760  141.9400 C   0  0  1  0  0  3  0  0  0  0  0  0
  189.3480  177.1430  140.4690 C   0  0  0  0  0  3  0  0  0  0  0  0
  192.9100  176.9200  139.8200 N   0  0  0  0  0  0  0  0  0  0  0  0
  190.7570  174.7110  136.7750 C   0  0  1  0  0  3  0  0  0  0  0  0
  193.1260  176.3100  138.5360 C   0  0  0  0  0  0  0  0  0  0  0  0
  191.8010  177.7480  141.7200 N   0  0  0  0  0  0  0  0  0  0  0  0
  190.3670  176.5570  138.3420 C   0  0  0  0  0  2  0  0  0  0  0  0
  194.1540  176.6420  137.8910 O   0  0  0  0  0  0  0  0  0  0  0  0
  192.2700  174.8330  136.5540 C   0  0  2  0  0  3  0  0  0  0  0  0
  191.7780  177.1390  140.4250 C   0  0  0  0  0  0  0  0  0  0  0  0
  190.8360  175.1760  138.1780 N   0  0  2  0  0  0  0  0  0  0  0  0
  192.3050  175.1170  138.0540 C   0  0  2  0  0  3  0  0  0  0  0  0
  190.4650  176.9310  139.7740 C   0  0  0  0  0  0  0  0  0  0  0  0
  190.7210  177.9420  142.4160 C   0  0  0  0  0  3  0  0  0  0  0  0
  186.6150  177.4190  141.1290 O   0  0  0  0  0  0  0  0  0  0  0  0
  188.3690  178.4830  142.2550 N   0  0  0  0  0  2  0  0  0  0  0  0
  187.0030  178.3860  141.8390 C   0  0  0  0  0  0  0  0  0  0  0  0
  186.0270  179.4290  142.2830 C   0  0  0  0  0  2  0  0  0  0  0  0
  184.9430  179.1740  144.5720 C   0  0  1  0  0  3  0  0  0  0  0  0
  182.3450  178.7070  143.3180 C   0  0  2  0  0  3  0  0  0  0  0  0
  184.8490  178.8450  143.0670 C   0  0  1  0  0  3  0  0  0  0  0  0
  183.6960  179.4230  145.2050 O   0  0  0  0  0  0  0  0  0  0  0  0
  181.1700  179.6640  143.2690 C   0  0  0  0  0  1  0  0  0  0  0  0
  182.7540  178.4640  144.7760 C   0  0  0  0  0  2  0  0  0  0  0  0
  183.5010  179.2810  142.4930 C   0  0  0  0  0  2  0  0  0  0  0  0
  186.0790  179.6920  147.2790 C   0  0  0  0  0  1  0  0  0  0  0  0
  186.5260  178.5630  146.4780 N   0  0  0  0  0  0  0  0  0  0  0  0
  185.7720  178.1680  145.3170 C   0  0  0  0  0  0  0  0  0  0  0  0
  185.8100  176.9740  144.9120 O   0  0  0  0  0  0  0  0  0  0  0  0
  188.8270  177.6080  146.2580 C   0  0  0  0  0  0  0  0  0  0  0  0
  187.5920  177.7880  146.9650 N   0  0  0  0  0  2  0  0  0  0  0  0
  189.0950  178.3110  145.2430 O   0  0  0  0  0  0  0  0  0  0  0  0
  192.0680  176.0910  146.5420 C   0  0  0  0  0  2  0  0  0  0  0  0
  190.8620  176.3850  145.7810 N   0  0  0  0  0  2  0  0  0  0  0  0
  191.9310  176.7240  147.9150 C   0  0  0  0  0  2  0  0  0  0  0  0
  189.8250  176.6280  146.7740 C   0  0  1  0  0  3  0  0  0  0  0  0
  190.4930  177.1600  148.0240 C   0  0  0  0  0  2  0  0  0  0  0  0
  189.9280  175.5500  135.8900 N   0  0  0  0  0  0  0  0  0  0  0  0
  189.5950  174.7630  134.7100 C   0  0  0  0  0  1  0  0  0  0  0  0
  188.6600  175.7640  136.5640 C   0  0  0  0  0  1  0  0  0  0  0  0
  192.5780  175.9770  135.8080 O   0  0  0  0  0  0  0  0  0  0  0  0
  193.8540  175.7830  135.4050 N   0  0  0  0  0  2  0  0  0  0  0  0
  193.8610  174.6410  134.5940 N   0  0  0  0  0  2  0  0  0  0  0  0
  194.8170  173.7610  135.1200 N   0  0  0  0  0  2  0  0  0  0  0  0
  197.6120  174.9580  137.9920 C   0  0  0  0  0  0  0  0  0  0  0  0
  198.5040  175.3510  138.9300 F   0  0  0  0  0  0  0  0  0  0  0  0
  195.7250  173.6680  137.3910 C   0  0  0  0  0  3  0  0  0  0  0  0
  196.7860  175.0940  135.7820 C   0  0  0  0  0  3  0  0  0  0  0  0
  195.7820  174.1720  136.0920 C   0  0  0  0  0  0  0  0  0  0  0  0
  196.6360  174.0690  138.3150 N   0  0  0  0  0  0  0  0  0  0  0  0
  197.6810  175.4670  136.7330 N   0  0  0  0  0  0  0  0  0  0  0  0
  1 16  1  6  0  0  0
  1 14  1  0  0  0  0
  2  1  1  0  0  0  0
  3 10  2  0  0  0  0
  4 38  1  6  0  0  0
  4 11  1  0  0  0  0
  5  3  1  0  0  0  0
  6 14  2  0  0  0  0
  7 13  1  0  0  0  0
  8  5  2  0  0  0  0
  9 41  1  6  0  0  0
  9  4  1  0  0  0  0
  9 12  1  0  0  0  0
 10  6  1  0  0  0  0
 11  7  1  6  0  0  0
 12 11  1  0  0  0  0
 12  5  1  6  0  0  0
 13 10  1  0  0  0  0
 13  2  2  0  0  0  0
 15 17  2  0  0  0  0
 17 16  1  0  0  0  0
 17 18  1  0  0  0  0
 19 22  1  0  0  0  0
 19 28  1  1  0  0  0
 20 23  1  1  0  0  0
 20 24  1  0  0  0  0
 21 18  1  6  0  0  0
 21 19  1  0  0  0  0
 24 22  1  0  0  0  0
 25 21  1  0  0  0  0
 25 20  1  0  0  0  0
 27 31  1  0  0  0  0
 27 26  1  0  0  0  0
 28 27  1  0  0  0  0
 29 28  2  0  0  0  0
 30 31  1  0  0  0  0
 32 30  2  0  0  0  0
 33 35  1  0  0  0  0
 34 33  1  0  0  0  0
 34 36  1  0  0  0  0
 35 37  1  0  0  0  0
 36 30  1  6  0  0  0
 36 37  1  0  0  0  0
 38 40  1  0  0  0  0
 39 38  1  0  0  0  0
 42 41  1  0  0  0  0
 43 44  1  0  0  0  0
 43 42  1  0  0  0  0
 44 49  1  0  0  0  0
 45 50  2  0  0  0  0
 45 46  1  0  0  0  0
 47 50  1  0  0  0  0
 48 49  1  0  0  0  0
 48 51  2  0  0  0  0
 49 47  2  0  0  0  0
 51 45  1  0  0  0  0
M  END
>  <MODEL>
6

>  <REMARK>
 VINA RESULT:      -6.7      5.577     10.610
  Name = 
  12 active torsions:
  status: ('A' for Active; 'I' for Inactive)
    1  A    between atoms: C_1  and  C_47
    2  A    between atoms: C_3  and  N_28
    3  A    between atoms: N_5  and  N_8
    4  A    between atoms: N_5  and  O_21
    5  A    between atoms: C_6  and  C_46
    6  A    between atoms: N_8  and  N_43
    7  A    between atoms: C_12  and  N_14
    8  A    between atoms: N_20  and  N_42
    9  A    between atoms: O_21  and  C_26
   10  A    between atoms: C_29  and  C_46
   11  A    between atoms: C_34  and  C_45
   12  A    between atoms: C_37  and  N_43
                            x       y       z     vdW  Elec       q    Type
                         _______ _______ _______ _____ _____    ______ ____

>  <TORSDO>
F 12

$$$$
=
 OpenBabel11062414583D

 51 56  0  0  1  0  0  0  0  0999 V2000
  186.9660  177.7060  138.9900 C   0  0  1  0  0  3  0  0  0  0  0  0
  187.5390  176.7130  138.0110 C   0  0  0  0  0  3  0  0  0  0  0  0
  191.0710  177.4690  138.3440 N   0  0  0  0  0  0  0  0  0  0  0  0
  190.6070  173.4590  136.7660 C   0  0  1  0  0  3  0  0  0  0  0  0
  191.8450  176.4300  137.7210 C   0  0  0  0  0  0  0  0  0  0  0  0
  189.2180  178.6700  139.1500 N   0  0  0  0  0  0  0  0  0  0  0  0
  189.3490  175.5610  136.8680 C   0  0  0  0  0  2  0  0  0  0  0  0
  192.9590  176.7400  137.2250 O   0  0  0  0  0  0  0  0  0  0  0  0
  192.0480  173.9800  136.8260 C   0  0  2  0  0  3  0  0  0  0  0  0
  189.7780  177.5420  138.4680 C   0  0  0  0  0  0  0  0  0  0  0  0
  190.0860  174.5440  137.6270 N   0  0  2  0  0  0  0  0  0  0  0  0
  191.4840  174.9530  137.8590 C   0  0  2  0  0  3  0  0  0  0  0  0
  188.8510  176.5960  137.8070 C   0  0  0  0  0  0  0  0  0  0  0  0
  187.9430  178.7860  139.3710 C   0  0  0  0  0  3  0  0  0  0  0  0
  184.5900  178.3100  140.4880 O   0  0  0  0  0  0  0  0  0  0  0  0
  185.7540  178.3110  138.4580 N   0  0  0  0  0  2  0  0  0  0  0  0
  184.6080  178.6070  139.2620 C   0  0  0  0  0  0  0  0  0  0  0  0
  183.4400  179.3070  138.6430 C   0  0  0  0  0  2  0  0  0  0  0  0
  181.8150  178.8770  136.7320 C   0  0  1  0  0  3  0  0  0  0  0  0
  181.9460  176.0010  137.2320 C   0  0  2  0  0  3  0  0  0  0  0  0
  182.4140  178.3390  138.0490 C   0  0  1  0  0  3  0  0  0  0  0  0
  181.5450  177.8840  135.7530 O   0  0  0  0  0  0  0  0  0  0  0  0
  182.6520  174.9580  136.3870 C   0  0  0  0  0  1  0  0  0  0  0  0
  180.9380  176.7700  136.3710 C   0  0  0  0  0  2  0  0  0  0  0  0
  182.9860  176.9350  137.8580 C   0  0  0  0  0  2  0  0  0  0  0  0
  180.8270  180.8400  134.7170 C   0  0  0  0  0  1  0  0  0  0  0  0
  180.3790  180.8890  136.1000 N   0  0  0  0  0  0  0  0  0  0  0  0
  180.6370  179.7760  136.9750 C   0  0  0  0  0  0  0  0  0  0  0  0
  179.8800  179.5530  137.9590 O   0  0  0  0  0  0  0  0  0  0  0  0
  180.0610  183.2230  136.9410 C   0  0  0  0  0  0  0  0  0  0  0  0
  179.5550  181.9600  136.4900 N   0  0  0  0  0  2  0  0  0  0  0  0
  181.2860  183.5080  136.8170 O   0  0  0  0  0  0  0  0  0  0  0  0
  178.9310  185.6990  139.2820 C   0  0  0  0  0  2  0  0  0  0  0  0
  179.2560  184.3200  138.9450 N   0  0  0  0  0  2  0  0  0  0  0  0
  179.1760  186.5610  138.0570 C   0  0  0  0  0  2  0  0  0  0  0  0
  179.1130  184.2300  137.4980 C   0  0  1  0  0  3  0  0  0  0  0  0
  179.3920  185.6000  136.9170 C   0  0  0  0  0  2  0  0  0  0  0  0
  190.0200  173.4030  135.4150 N   0  0  0  0  0  0  0  0  0  0  0  0
  190.6070  172.2660  134.7180 C   0  0  0  0  0  1  0  0  0  0  0  0
  188.6170  173.0600  135.5700 C   0  0  0  0  0  1  0  0  0  0  0  0
  192.3950  174.6350  135.6390 O   0  0  0  0  0  0  0  0  0  0  0  0
  193.5240  174.0150  135.2290 N   0  0  0  0  0  2  0  0  0  0  0  0
  194.6000  174.8380  135.5890 N   0  0  0  0  0  2  0  0  0  0  0  0
  195.5870  174.0130  136.1480 N   0  0  0  0  0  2  0  0  0  0  0  0
  197.4050  174.9110  139.8060 C   0  0  0  0  0  0  0  0  0  0  0  0
  197.9810  175.2110  140.9920 F   0  0  0  0  0  0  0  0  0  0  0  0
  195.5150  174.1800  138.5880 C   0  0  0  0  0  3  0  0  0  0  0  0
  197.5410  174.7720  137.4510 C   0  0  0  0  0  3  0  0  0  0  0  0
  196.2210  174.3160  137.3930 C   0  0  0  0  0  0  0  0  0  0  0  0
  196.1160  174.4790  139.7690 N   0  0  0  0  0  0  0  0  0  0  0  0
  198.1080  175.0570  138.6520 N   0  0  0  0  0  0  0  0  0  0  0  0
  1 16  1  6  0  0  0
  1 14  1  0  0  0  0
  2  1  1  0  0  0  0
  3 10  2  0  0  0  0
  4 38  1  6  0  0  0
  4  9  1  0  0  0  0
  4 11  1  0  0  0  0
  5  3  1  0  0  0  0
  6 14  2  0  0  0  0
  7 13  1  0  0  0  0
  8  5  2  0  0  0  0
  9 41  1  6  0  0  0
  9 12  1  0  0  0  0
 10  6  1  0  0  0  0
 11  7  1  6  0  0  0
 11 12  1  0  0  0  0
 12  5  1  6  0  0  0
 13  2  2  0  0  0  0
 13 10  1  0  0  0  0
 16 17  1  0  0  0  0
 17 15  2  0  0  0  0
 18 17  1  0  0  0  0
 19 28  1  1  0  0  0
 19 21  1  0  0  0  0
 20 23  1  6  0  0  0
 20 25  1  0  0  0  0
 21 18  1  6  0  0  0
 22 24  1  0  0  0  0
 22 19  1  0  0  0  0
 24 20  1  0  0  0  0
 25 21  1  0  0  0  0
 26 27  1  0  0  0  0
 27 31  1  0  0  0  0
 27 28  1  0  0  0  0
 28 29  2  0  0  0  0
 31 30  1  0  0  0  0
 32 30  2  0  0  0  0
 34 33  1  0  0  0  0
 35 33  1  0  0  0  0
 36 30  1  6  0  0  0
 36 34  1  0  0  0  0
 37 36  1  0  0  0  0
 37 35  1  0  0  0  0
 38 40  1  0  0  0  0
 39 38  1  0  0  0  0
 42 43  1  0  0  0  0
 42 41  1  0  0  0  0
 43 44  1  0  0  0  0
 44 49  1  0  0  0  0
 45 46  1  0  0  0  0
 47 50  1  0  0  0  0
 48 51  2  0  0  0  0
 49 48  1  0  0  0  0
 49 47  2  0  0  0  0
 50 45  2  0  0  0  0
 51 45  1  0  0  0  0
M  END
>  <MODEL>
7

>  <REMARK>
 VINA RESULT:      -6.6      5.266     12.274
  Name = 
  12 active torsions:
  status: ('A' for Active; 'I' for Inactive)
    1  A    between atoms: C_1  and  C_47
    2  A    between atoms: C_3  and  N_28
    3  A    between atoms: N_5  and  N_8
    4  A    between atoms: N_5  and  O_21
    5  A    between atoms: C_6  and  C_46
    6  A    between atoms: N_8  and  N_43
    7  A    between atoms: C_12  and  N_14
    8  A    between atoms: N_20  and  N_42
    9  A    between atoms: O_21  and  C_26
   10  A    between atoms: C_29  and  C_46
   11  A    between atoms: C_34  and  C_45
   12  A    between atoms: C_37  and  N_43
                            x       y       z     vdW  Elec       q    Type
                         _______ _______ _______ _____ _____    ______ ____

>  <TORSDO>
F 12

$$$$
=
 OpenBabel11062414583D

 51 56  0  0  1  0  0  0  0  0999 V2000
  188.7830  177.3410  140.7220 C   0  0  1  0  0  3  0  0  0  0  0  0
  189.0050  176.7400  139.3570 C   0  0  0  0  0  3  0  0  0  0  0  0
  192.6280  176.8180  139.2160 N   0  0  0  0  0  0  0  0  0  0  0  0
  191.1500  173.8460  136.4290 C   0  0  1  0  0  3  0  0  0  0  0  0
  193.0830  176.0100  138.1170 C   0  0  0  0  0  0  0  0  0  0  0  0
  191.1850  177.8490  140.7590 N   0  0  0  0  0  0  0  0  0  0  0  0
  190.3710  175.8920  137.5340 C   0  0  0  0  0  2  0  0  0  0  0  0
  194.1590  176.3340  137.5520 O   0  0  0  0  0  0  0  0  0  0  0  0
  192.6610  174.1010  136.3790 C   0  0  2  0  0  3  0  0  0  0  0  0
  191.4060  177.0120  139.6180 C   0  0  0  0  0  0  0  0  0  0  0  0
  190.9820  174.5690  137.7100 N   0  0  2  0  0  0  0  0  0  0  0  0
  192.4520  174.6610  137.7840 C   0  0  2  0  0  3  0  0  0  0  0  0
  190.2250  176.5350  138.8630 C   0  0  0  0  0  0  0  0  0  0  0  0
  190.0020  178.0420  141.2610 C   0  0  0  0  0  3  0  0  0  0  0  0
  186.7400  177.5480  142.7310 O   0  0  0  0  0  0  0  0  0  0  0  0
  187.6590  178.2640  140.7020 N   0  0  0  0  0  2  0  0  0  0  0  0
  186.6830  178.3340  141.7460 C   0  0  0  0  0  0  0  0  0  0  0  0
  185.6100  179.3740  141.6770 C   0  0  0  0  0  2  0  0  0  0  0  0
  183.6490  178.4460  143.0070 C   0  0  1  0  0  3  0  0  0  0  0  0
  184.8310  179.4360  145.4900 C   0  0  2  0  0  3  0  0  0  0  0  0
  184.7980  179.4770  142.9700 C   0  0  1  0  0  3  0  0  0  0  0  0
  183.3830  177.8990  144.2910 O   0  0  0  0  0  0  0  0  0  0  0  0
  185.4920  178.6130  146.5780 C   0  0  0  0  0  1  0  0  0  0  0  0
  183.4030  178.9310  145.2530 C   0  0  0  0  0  2  0  0  0  0  0  0
  185.6770  179.3630  144.2150 C   0  0  0  0  0  2  0  0  0  0  0  0
  182.5650  177.2890  140.4830 C   0  0  0  0  0  1  0  0  0  0  0  0
  182.0900  178.5660  140.9910 N   0  0  0  0  0  0  0  0  0  0  0  0
  182.4090  178.9630  142.3380 C   0  0  0  0  0  0  0  0  0  0  0  0
  181.6510  179.7550  142.9620 O   0  0  0  0  0  0  0  0  0  0  0  0
  181.5900  180.1020  139.0820 C   0  0  0  0  0  0  0  0  0  0  0  0
  181.1890  179.2980  140.1990 N   0  0  0  0  0  2  0  0  0  0  0  0
  182.7660  180.0290  138.6260 O   0  0  0  0  0  0  0  0  0  0  0  0
  179.2360  182.8050  138.8820 C   0  0  0  0  0  2  0  0  0  0  0  0
  179.6380  181.5020  139.3920 N   0  0  0  0  0  2  0  0  0  0  0  0
  180.3350  183.3200  137.9700 C   0  0  0  0  0  2  0  0  0  0  0  0
  180.5840  180.9780  138.4160 C   0  0  1  0  0  3  0  0  0  0  0  0
  181.2630  182.1550  137.7480 C   0  0  0  0  0  2  0  0  0  0  0  0
  190.3860  174.4030  135.2970 N   0  0  0  0  0  0  0  0  0  0  0  0
  189.7550  173.2940  134.5940 C   0  0  0  0  0  1  0  0  0  0  0  0
  189.2830  175.1640  135.8570 C   0  0  0  0  0  1  0  0  0  0  0  0
  192.9700  175.1140  135.4640 O   0  0  0  0  0  0  0  0  0  0  0  0
  194.1340  174.7180  134.9020 N   0  0  0  0  0  2  0  0  0  0  0  0
  194.4430  173.4610  135.4370 N   0  0  0  0  0  2  0  0  0  0  0  0
  195.8270  173.4330  135.6650 N   0  0  0  0  0  2  0  0  0  0  0  0
  197.5710  174.8120  139.2070 C   0  0  0  0  0  0  0  0  0  0  0  0
  198.1500  175.2530  140.3480 F   0  0  0  0  0  0  0  0  0  0  0  0
  197.4640  174.8160  136.8460 C   0  0  0  0  0  3  0  0  0  0  0  0
  195.9660  173.4530  138.1290 C   0  0  0  0  0  3  0  0  0  0  0  0
  196.4110  173.9030  136.8820 C   0  0  0  0  0  0  0  0  0  0  0  0
  198.0250  175.2530  138.0040 N   0  0  0  0  0  0  0  0  0  0  0  0
  196.5510  173.9160  139.2650 N   0  0  0  0  0  0  0  0  0  0  0  0
  1 16  1  6  0  0  0
  1 14  1  0  0  0  0
  2  1  1  0  0  0  0
  3 10  2  0  0  0  0
  4 38  1  6  0  0  0
  4 11  1  0  0  0  0
  5  3  1  0  0  0  0
  6 14  2  0  0  0  0
  7 13  1  0  0  0  0
  8  5  2  0  0  0  0
  9 41  1  6  0  0  0
  9  4  1  0  0  0  0
  9 12  1  0  0  0  0
 10  6  1  0  0  0  0
 11  7  1  6  0  0  0
 11 12  1  0  0  0  0
 12  5  1  6  0  0  0
 13  2  2  0  0  0  0
 13 10  1  0  0  0  0
 16 17  1  0  0  0  0
 17 15  2  0  0  0  0
 18 17  1  0  0  0  0
 19 28  1  1  0  0  0
 19 22  1  0  0  0  0
 20 23  1  1  0  0  0
 21 18  1  6  0  0  0
 21 19  1  0  0  0  0
 21 25  1  0  0  0  0
 22 24  1  0  0  0  0
 24 20  1  0  0  0  0
 25 20  1  0  0  0  0
 26 27  1  0  0  0  0
 27 28  1  0  0  0  0
 28 29  2  0  0  0  0
 30 31  1  0  0  0  0
 31 27  1  0  0  0  0
 32 30  2  0  0  0  0
 33 34  1  0  0  0  0
 35 33  1  0  0  0  0
 36 30  1  1  0  0  0
 36 34  1  0  0  0  0
 37 35  1  0  0  0  0
 37 36  1  0  0  0  0
 38 40  1  0  0  0  0
 39 38  1  0  0  0  0
 42 43  1  0  0  0  0
 42 41  1  0  0  0  0
 43 44  1  0  0  0  0
 44 49  1  0  0  0  0
 45 51  1  0  0  0  0
 45 46  1  0  0  0  0
 47 49  2  0  0  0  0
 47 50  1  0  0  0  0
 48 51  2  0  0  0  0
 49 48  1  0  0  0  0
 50 45  2  0  0  0  0
M  END
>  <MODEL>
8

>  <REMARK>
 VINA RESULT:      -6.5      5.214     11.015
  Name = 
  12 active torsions:
  status: ('A' for Active; 'I' for Inactive)
    1  A    between atoms: C_1  and  C_47
    2  A    between atoms: C_3  and  N_28
    3  A    between atoms: N_5  and  N_8
    4  A    between atoms: N_5  and  O_21
    5  A    between atoms: C_6  and  C_46
    6  A    between atoms: N_8  and  N_43
    7  A    between atoms: C_12  and  N_14
    8  A    between atoms: N_20  and  N_42
    9  A    between atoms: O_21  and  C_26
   10  A    between atoms: C_29  and  C_46
   11  A    between atoms: C_34  and  C_45
   12  A    between atoms: C_37  and  N_43
                            x       y       z     vdW  Elec       q    Type
                         _______ _______ _______ _____ _____    ______ ____

>  <TORSDO>
F 12

$$$$
=
 OpenBabel11062414583D

 51 56  0  0  1  0  0  0  0  0999 V2000
  183.7570  179.0970  141.1530 C   0  0  1  0  0  3  0  0  0  0  0  0
  184.9530  178.3290  141.6580 C   0  0  0  0  0  3  0  0  0  0  0  0
  187.1740  178.6810  138.8120 N   0  0  0  0  0  0  0  0  0  0  0  0
  189.5120  177.7970  142.3530 C   0  0  1  0  0  3  0  0  0  0  0  0
  188.5030  178.2810  139.1880 C   0  0  0  0  0  0  0  0  0  0  0  0
  184.8840  179.1870  138.9730 N   0  0  0  0  0  0  0  0  0  0  0  0
  187.2270  177.4810  141.5210 C   0  0  0  0  0  2  0  0  0  0  0  0
  189.2440  177.7880  138.2990 O   0  0  0  0  0  0  0  0  0  0  0  0
  190.2980  177.8300  141.0370 C   0  0  2  0  0  3  0  0  0  0  0  0
  186.1100  178.7350  139.5590 C   0  0  0  0  0  0  0  0  0  0  0  0
  188.3170  178.4350  141.7570 N   0  0  2  0  0  0  0  0  0  0  0  0
  189.1140  178.6550  140.5350 C   0  0  2  0  0  3  0  0  0  0  0  0
  186.0700  178.2060  140.9410 C   0  0  0  0  0  0  0  0  0  0  0  0
  183.7940  179.3290  139.6660 C   0  0  0  0  0  3  0  0  0  0  0  0
  181.1440  180.2870  141.2320 O   0  0  0  0  0  0  0  0  0  0  0  0
  182.5210  178.4170  141.5100 N   0  0  0  0  0  2  0  0  0  0  0  0
  181.2440  179.0610  141.5100 C   0  0  0  0  0  0  0  0  0  0  0  0
  180.0190  178.2570  141.8100 C   0  0  0  0  0  2  0  0  0  0  0  0
  180.5010  177.5630  139.4090 C   0  0  1  0  0  3  0  0  0  0  0  0
  179.1110  175.0280  139.8350 C   0  0  2  0  0  3  0  0  0  0  0  0
  179.5900  177.3680  140.6400 C   0  0  1  0  0  3  0  0  0  0  0  0
  180.7500  176.3820  138.6610 O   0  0  0  0  0  0  0  0  0  0  0  0
  179.7390  173.6550  139.9760 C   0  0  0  0  0  1  0  0  0  0  0  0
  179.5460  175.6620  138.5080 C   0  0  0  0  0  2  0  0  0  0  0  0
  179.5090  175.8940  141.0340 C   0  0  0  0  0  2  0  0  0  0  0  0
  181.8010  178.2610  136.8180 C   0  0  0  0  0  1  0  0  0  0  0  0
  180.8680  179.1720  137.4620 N   0  0  0  0  0  0  0  0  0  0  0  0
  180.0430  178.7020  138.5450 C   0  0  0  0  0  0  0  0  0  0  0  0
  178.9320  179.2510  138.7800 O   0  0  0  0  0  0  0  0  0  0  0  0
  181.0610  181.6640  137.5360 C   0  0  0  0  0  0  0  0  0  0  0  0
  180.6820  180.4420  136.8890 N   0  0  0  0  0  2  0  0  0  0  0  0
  181.7740  181.6470  138.5780 O   0  0  0  0  0  0  0  0  0  0  0  0
  179.4660  184.8790  137.4490 C   0  0  0  0  0  2  0  0  0  0  0  0
  179.3990  183.4250  137.4830 N   0  0  0  0  0  2  0  0  0  0  0  0
  180.9280  185.2890  137.4470 C   0  0  0  0  0  2  0  0  0  0  0  0
  180.6630  182.9640  136.9240 C   0  0  1  0  0  3  0  0  0  0  0  0
  181.7080  184.0240  137.2030 C   0  0  0  0  0  2  0  0  0  0  0  0
  189.2840  176.4510  142.9100 N   0  0  0  0  0  0  0  0  0  0  0  0
  190.5810  175.8780  143.2430 C   0  0  0  0  0  1  0  0  0  0  0  0
  188.6140  176.6230  144.1870 C   0  0  0  0  0  1  0  0  0  0  0  0
  190.3310  176.5640  140.4400 O   0  0  0  0  0  0  0  0  0  0  0  0
  191.5260  176.5200  139.8080 N   0  0  0  0  0  2  0  0  0  0  0  0
  191.3930  175.6270  138.7370 N   0  0  0  0  0  2  0  0  0  0  0  0
  192.0610  176.1900  137.6400 N   0  0  0  0  0  2  0  0  0  0  0  0
  195.8560  174.9260  136.4190 C   0  0  0  0  0  0  0  0  0  0  0  0
  197.0770  174.5080  136.0140 F   0  0  0  0  0  0  0  0  0  0  0  0
  193.7560  175.8800  135.9020 C   0  0  0  0  0  3  0  0  0  0  0  0
  194.2640  175.1980  138.1440 C   0  0  0  0  0  3  0  0  0  0  0  0
  193.3630  175.7610  137.2350 C   0  0  0  0  0  0  0  0  0  0  0  0
  194.9900  175.4610  135.5180 N   0  0  0  0  0  0  0  0  0  0  0  0
  195.4900  174.7940  137.7220 N   0  0  0  0  0  0  0  0  0  0  0  0
  1 16  1  6  0  0  0
  1  2  1  0  0  0  0
  3  5  1  0  0  0  0
  3 10  2  0  0  0  0
  4 38  1  6  0  0  0
  6 10  1  0  0  0  0
  6 14  2  0  0  0  0
  8  5  2  0  0  0  0
  9 41  1  6  0  0  0
  9  4  1  0  0  0  0
 10 13  1  0  0  0  0
 11  7  1  6  0  0  0
 11  4  1  0  0  0  0
 12  5  1  6  0  0  0
 12  9  1  0  0  0  0
 12 11  1  0  0  0  0
 13  7  1  0  0  0  0
 13  2  2  0  0  0  0
 14  1  1  0  0  0  0
 15 17  2  0  0  0  0
 16 17  1  0  0  0  0
 17 18  1  0  0  0  0
 19 28  1  6  0  0  0
 19 21  1  0  0  0  0
 20 23  1  1  0  0  0
 20 25  1  0  0  0  0
 21 25  1  0  0  0  0
 21 18  1  1  0  0  0
 22 19  1  0  0  0  0
 24 22  1  0  0  0  0
 24 20  1  0  0  0  0
 26 27  1  0  0  0  0
 27 28  1  0  0  0  0
 28 29  2  0  0  0  0
 30 32  2  0  0  0  0
 31 27  1  0  0  0  0
 31 30  1  0  0  0  0
 33 34  1  0  0  0  0
 35 33  1  0  0  0  0
 36 37  1  0  0  0  0
 36 34  1  0  0  0  0
 36 30  1  1  0  0  0
 37 35  1  0  0  0  0
 38 39  1  0  0  0  0
 38 40  1  0  0  0  0
 42 41  1  0  0  0  0
 43 42  1  0  0  0  0
 44 43  1  0  0  0  0
 45 51  1  0  0  0  0
 46 45  1  0  0  0  0
 47 49  2  0  0  0  0
 49 44  1  0  0  0  0
 49 48  1  0  0  0  0
 50 47  1  0  0  0  0
 50 45  2  0  0  0  0
 51 48  2  0  0  0  0
M  END
>  <MODEL>
9

>  <REMARK>
 VINA RESULT:      -6.5      4.081     10.679
  Name = 
  12 active torsions:
  status: ('A' for Active; 'I' for Inactive)
    1  A    between atoms: C_1  and  C_47
    2  A    between atoms: C_3  and  N_28
    3  A    between atoms: N_5  and  N_8
    4  A    between atoms: N_5  and  O_21
    5  A    between atoms: C_6  and  C_46
    6  A    between atoms: N_8  and  N_43
    7  A    between atoms: C_12  and  N_14
    8  A    between atoms: N_20  and  N_42
    9  A    between atoms: O_21  and  C_26
   10  A    between atoms: C_29  and  C_46
   11  A    between atoms: C_34  and  C_45
   12  A    between atoms: C_37  and  N_43
                            x       y       z     vdW  Elec       q    Type
                         _______ _______ _______ _____ _____    ______ ____

>  <TORSDO>
F 12

$$$$
