=
 OpenBabel11062417373D

 57 61  0  0  1  0  0  0  0  0999 V2000
  185.4490  178.8770  145.3120 C   0  0  0  0  0  3  0  0  0  0  0  0
  186.6430  178.3540  145.2690 C   0  0  0  0  0  0  0  0  0  0  0  0
  188.5220  177.6620  141.6560 C   0  0  1  0  0  3  0  0  0  0  0  0
  188.2860  177.3510  143.8170 C   0  0  2  0  0  3  0  0  0  0  0  0
  189.9110  177.2490  142.1170 C   0  0  1  0  0  3  0  0  0  0  0  0
  191.5950  179.0050  143.6010 C   0  0  0  0  0  1  0  0  0  0  0  0
  187.8030  176.7660  147.3200 N   0  0  0  0  0  2  0  0  0  0  0  0
  189.9240  177.3710  146.5120 N   0  0  0  0  0  2  0  0  0  0  0  0
  189.7770  177.1180  143.6210 C   0  0  1  0  0  3  0  0  0  0  0  0
  190.6620  178.1110  144.3530 C   0  0  0  0  0  0  0  0  0  0  0  0
  190.7540  178.1090  145.6490 N   0  0  0  0  0  0  0  0  0  0  0  0
  187.8290  178.1580  142.7660 O   0  0  0  0  0  0  0  0  0  0  0  0
  188.5040  177.2870  146.3650 C   0  0  0  0  0  0  0  0  0  0  0  0
  187.8380  177.8290  145.1690 C   0  0  0  0  0  0  0  0  0  0  0  0
  184.3460  178.2650  144.5220 C   0  0  2  0  0  3  0  0  0  0  0  0
  184.8660  177.4650  143.5160 F   0  0  0  0  0  0  0  0  0  0  0  0
  183.4870  179.3530  143.9080 C   0  0  0  0  0  2  0  0  0  0  0  0
  182.7530  178.7890  142.6820 C   0  0  1  0  0  3  0  0  0  0  0  0
  180.5880  178.5500  144.3280 O   0  0  0  0  0  1  0  0  0  0  0  0
  180.1620  177.9280  141.8330 O   0  0  0  0  0  0  0  0  0  0  0  0
  180.9550  178.9510  142.9160 P   0  0  2  0  0  0  0  0  0  0  0  0
  180.4720  180.5470  142.6080 O   0  0  0  0  0  0  0  0  0  0  0  0
  179.2570  180.4590  141.9230 C   0  0  0  0  0  2  0  0  0  0  0  0
  179.2380  181.4340  140.7520 C   0  0  0  0  0  2  0  0  0  0  0  0
  180.1940  181.0000  139.6470 C   0  0  0  0  0  2  0  0  0  0  0  0
  179.7420  181.5500  136.0660 C   0  0  0  0  0  1  0  0  0  0  0  0
  180.4680  181.0650  137.2280 N   0  0  0  0  0  0  0  0  0  0  0  0
  179.4770  180.9460  138.3070 C   0  0  1  0  0  3  0  0  0  0  0  0
  179.8910  179.7570  137.5680 C   0  0  0  0  0  2  0  0  0  0  0  0
  184.4680  178.8320  140.9220 C   0  0  0  0  0  2  0  0  0  0  0  0
  183.2570  178.2040  140.3870 C   0  0  0  0  0  2  0  0  0  0  0  0
  183.1410  179.3110  141.3520 N   0  0  0  0  0  0  0  0  0  0  0  0
  188.5950  178.7230  140.5670 C   0  0  0  0  0  2  0  0  0  0  0  0
  187.9200  178.2340  139.2940 C   0  0  0  0  0  2  0  0  0  0  0  0
  188.7110  178.6770  138.0750 C   0  0  0  0  0  2  0  0  0  0  0  0
  188.2690  177.8830  136.8610 C   0  0  0  0  0  2  0  0  0  0  0  0
  186.9590  178.4270  136.3160 C   0  0  0  0  0  2  0  0  0  0  0  0
  185.8060  177.4640  136.5760 C   0  0  0  0  0  2  0  0  0  0  0  0
  186.2840  176.0180  136.5800 C   0  0  0  0  0  2  0  0  0  0  0  0
  185.3580  173.7310  136.9860 O   0  0  0  0  0  0  0  0  0  0  0  0
  184.1540  175.5910  137.5730 O   0  0  0  0  0  1  0  0  0  0  0  0
  185.2000  175.1100  137.0620 C   0  0  0  0  0  0  0  0  0  0  0  0
  190.2580  176.0200  141.5470 O   0  0  0  0  0  0  0  0  0  0  0  0
  190.4770  176.2940  140.1920 C   0  0  0  0  0  2  0  0  0  0  0  0
  191.7860  176.7450  140.0000 O   0  0  0  0  0  0  0  0  0  0  0  0
  191.8910  176.8850  138.6710 O   0  0  0  0  0  0  0  0  0  0  0  0
  193.9070  174.6210  136.5850 C   0  0  1  0  0  3  0  0  0  0  0  0
  192.5160  173.4460  136.6960 S   0  0  0  0  0  0  0  0  0  0  0  0
  192.3280  175.8360  137.8660 C   0  0  0  0  0  0  0  0  0  0  0  0
  191.4460  174.7060  137.4660 C   0  0  1  0  0  3  0  0  0  0  0  0
  193.5670  175.8020  137.4200 C   0  0  0  0  0  3  0  0  0  0  0  0
  190.4350  175.1890  136.4750 C   0  0  0  0  0  3  0  0  0  0  0  0
  189.7710  174.3950  135.8310 O   0  0  0  0  0  0  0  0  0  0  0  0
  195.2200  173.9790  137.0290 C   0  0  0  0  0  2  0  0  0  0  0  0
  195.9320  174.2230  139.2550 C   0  0  0  0  0  1  0  0  0  0  0  0
  195.9590  174.8440  137.9440 N   0  0  0  0  0  0  0  0  0  0  0  0
  197.3450  174.8390  137.5040 C   0  0  0  0  0  1  0  0  0  0  0  0
  2  1  2  0  0  0  0
  3 33  1  6  0  0  0
  3  5  1  0  0  0  0
  3 12  1  0  0  0  0
  4 12  1  6  0  0  0
  4 14  1  0  0  0  0
  5 43  1  6  0  0  0
  5  9  1  0  0  0  0
  6 10  1  0  0  0  0
  9  4  1  0  0  0  0
  9 10  1  1  0  0  0
 10 11  2  0  0  0  0
 11  8  1  0  0  0  0
 13  8  1  0  0  0  0
 13  7  2  0  0  0  0
 14  2  2  0  0  0  0
 14 13  1  0  0  0  0
 15 16  1  6  0  0  0
 15  1  1  0  0  0  0
 17 15  1  0  0  0  0
 18 21  1  0  0  0  0
 18 17  1  1  0  0  0
 21 20  2  6  0  0  0
 21 19  1  0  0  0  0
 22 21  1  0  0  0  0
 23 22  1  0  0  0  0
 24 23  1  0  0  0  0
 25 24  1  0  0  0  0
 26 27  1  0  0  0  0
 27 29  1  0  0  0  0
 27 28  1  0  0  0  0
 28 25  1  1  0  0  0
 29 28  1  0  0  0  0
 30 32  1  0  0  0  0
 31 30  1  0  0  0  0
 31 32  1  0  0  0  0
 32 18  1  0  0  0  0
 34 33  1  0  0  0  0
 35 34  1  0  0  0  0
 36 35  1  0  0  0  0
 37 38  1  0  0  0  0
 37 36  1  0  0  0  0
 38 39  1  0  0  0  0
 39 42  1  0  0  0  0
 40 42  2  0  0  0  0
 42 41  1  0  0  0  0
 44 43  1  0  0  0  0
 45 44  1  0  0  0  0
 46 45  1  0  0  0  0
 47 48  1  0  0  0  0
 47 54  1  1  0  0  0
 47 51  1  0  0  0  0
 48 50  1  0  0  0  0
 49 46  1  0  0  0  0
 50 52  1  6  0  0  0
 50 49  1  0  0  0  0
 51 49  2  0  0  0  0
 53 52  2  0  0  0  0
 54 56  1  0  0  0  0
 56 55  1  0  0  0  0
 57 56  1  0  0  0  0
M  END
>  <MODEL>
1

>  <REMARK>
 VINA RESULT:      -6.2      0.000      0.000
  Name = 
  26 active torsions:
  status: ('A' for Active; 'I' for Inactive)
    1  A    between atoms: C_2  and  C_40
    2  A    between atoms: O_4  and  O_7
    3  A    between atoms: O_4  and  C_31
    4  A    between atoms: N_5  and  C_48
    5  A    between atoms: O_7  and  C_29
    6  A    between atoms: C_8  and  C_10
    7  A    between atoms: C_8  and  C_32
    8  A    between atoms: C_9  and  C_28
    9  A    between atoms: C_10  and  C_27
   10  A    between atoms: C_11  and  P_45
   11  A    between atoms: C_11  and  N_46
   12  A    between atoms: C_11  and  C_49
   13  A    between atoms: C_15  and  C_48
   14  A    between atoms: C_17  and  C_26
   15  A    between atoms: C_17  and  C_36
   16  A    between atoms: O_18  and  C_26
   17  A    between atoms: O_18  and  P_45
   18  A    between atoms: C_21  and  C_32
   19  A    between atoms: C_24  and  O_30
   20  A    between atoms: C_27  and  C_52
   21  A    between atoms: C_28  and  C_49
   22  A    between atoms: C_29  and  O_30
   23  A    between atoms: C_36  and  C_44
   24  A    between atoms: C_41  and  C_42
   25  A    between atoms: C_42  and  C_43
   26  A    between atoms: C_43  and  C_52
                            x       y       z     vdW  Elec       q    Type
                         _______ _______ _______ _____ _____    ______ ____

>  <TORSDO>
F 26

$$$$
=
 OpenBabel11062417373D

 57 61  0  0  1  0  0  0  0  0999 V2000
  186.6190  178.7450  139.3140 C   0  0  0  0  0  3  0  0  0  0  0  0
  185.5160  178.2590  138.8160 C   0  0  0  0  0  0  0  0  0  0  0  0
  182.1000  177.9740  141.1210 C   0  0  1  0  0  3  0  0  0  0  0  0
  183.3150  177.4450  139.3700 C   0  0  2  0  0  3  0  0  0  0  0  0
  181.0730  177.5520  140.0820 C   0  0  1  0  0  3  0  0  0  0  0  0
  180.4270  179.1950  137.8450 C   0  0  0  0  0  1  0  0  0  0  0  0
  185.3670  176.5050  136.5850 N   0  0  0  0  0  2  0  0  0  0  0  0
  183.1640  177.2410  136.2260 N   0  0  0  0  0  2  0  0  0  0  0  0
  181.8980  177.2700  138.8420 C   0  0  1  0  0  3  0  0  0  0  0  0
  181.5410  178.2080  137.7030 C   0  0  0  0  0  0  0  0  0  0  0  0
  182.0770  178.0800  136.5260 N   0  0  0  0  0  0  0  0  0  0  0  0
  183.2710  178.3410  140.4470 O   0  0  0  0  0  0  0  0  0  0  0  0
  184.3330  177.1360  137.0440 C   0  0  0  0  0  0  0  0  0  0  0  0
  184.3850  177.7760  138.3680 C   0  0  0  0  0  0  0  0  0  0  0  0
  187.1670  178.1860  140.5800 C   0  0  2  0  0  3  0  0  0  0  0  0
  187.3250  179.1960  141.5180 F   0  0  0  0  0  0  0  0  0  0  0  0
  188.5080  177.5280  140.3160 C   0  0  0  0  0  2  0  0  0  0  0  0
  189.0880  177.0100  141.6400 C   0  0  1  0  0  3  0  0  0  0  0  0
  191.6020  176.1810  142.3100 O   0  0  0  0  0  0  0  0  0  0  0  0
  191.1330  178.7190  142.6750 O   0  0  0  0  0  1  0  0  0  0  0  0
  190.8730  177.3620  141.7060 P   0  0  2  0  0  0  0  0  0  0  0  0
  191.4580  177.6870  140.1480 O   0  0  0  0  0  0  0  0  0  0  0  0
  192.8000  177.2950  140.1480 C   0  0  0  0  0  2  0  0  0  0  0  0
  193.1840  176.7260  138.7880 C   0  0  0  0  0  2  0  0  0  0  0  0
  191.9600  176.4990  137.9090 C   0  0  0  0  0  2  0  0  0  0  0  0
  191.1880  173.3850  136.1670 C   0  0  0  0  0  1  0  0  0  0  0  0
  191.9680  174.5890  136.3980 N   0  0  0  0  0  0  0  0  0  0  0  0
  191.6650  175.0140  137.7720 C   0  0  1  0  0  3  0  0  0  0  0  0
  192.8980  174.2840  137.4930 C   0  0  0  0  0  2  0  0  0  0  0  0
  187.6090  176.3970  143.5060 C   0  0  0  0  0  2  0  0  0  0  0  0
  188.9470  176.6740  144.0340 C   0  0  0  0  0  2  0  0  0  0  0  0
  188.4360  177.4540  142.8940 N   0  0  0  0  0  0  0  0  0  0  0  0
  181.5920  179.1390  141.9590 C   0  0  0  0  0  2  0  0  0  0  0  0
  181.9190  178.9270  143.4290 C   0  0  0  0  0  2  0  0  0  0  0  0
  183.2740  179.5300  143.7590 C   0  0  0  0  0  2  0  0  0  0  0  0
  184.1320  178.5040  144.4750 C   0  0  0  0  0  2  0  0  0  0  0  0
  185.1930  179.1920  145.3180 C   0  0  0  0  0  2  0  0  0  0  0  0
  185.3830  178.4880  146.6560 C   0  0  0  0  0  2  0  0  0  0  0  0
  186.4320  177.3880  146.5590 C   0  0  0  0  0  2  0  0  0  0  0  0
  187.5790  178.8320  148.2460 O   0  0  0  0  0  1  0  0  0  0  0  0
  188.5540  176.8840  147.5320 O   0  0  0  0  0  0  0  0  0  0  0  0
  187.5870  177.6870  147.4580 C   0  0  0  0  0  0  0  0  0  0  0  0
  180.4130  176.3950  140.5040 O   0  0  0  0  0  0  0  0  0  0  0  0
  179.3630  176.2210  139.5950 C   0  0  0  0  0  2  0  0  0  0  0  0
  179.1330  174.8580  139.3840 O   0  0  0  0  0  0  0  0  0  0  0  0
  178.9320  174.7620  138.0620 O   0  0  0  0  0  0  0  0  0  0  0  0
  181.9560  173.1670  136.7020 C   0  0  1  0  0  3  0  0  0  0  0  0
  181.1430  173.2510  135.0710 S   0  0  0  0  0  0  0  0  0  0  0  0
  179.9130  174.2490  137.2180 C   0  0  0  0  0  0  0  0  0  0  0  0
  179.8070  174.3010  135.7340 C   0  0  1  0  0  3  0  0  0  0  0  0
  180.9960  173.6840  137.7120 C   0  0  0  0  0  3  0  0  0  0  0  0
  179.9900  175.7110  135.2700 C   0  0  0  0  0  3  0  0  0  0  0  0
  179.1210  176.5440  135.4630 O   0  0  0  0  0  0  0  0  0  0  0  0
  182.4030  171.7440  137.0320 C   0  0  0  0  0  2  0  0  0  0  0  0
  184.2950  171.2440  135.7310 C   0  0  0  0  0  1  0  0  0  0  0  0
  183.8580  171.6300  137.0600 N   0  0  0  0  0  0  0  0  0  0  0  0
  184.3820  172.9640  137.3050 C   0  0  0  0  0  1  0  0  0  0  0  0
  1 15  1  0  0  0  0
  2  1  2  0  0  0  0
  3 33  1  6  0  0  0
  4 14  1  6  0  0  0
  4 12  1  0  0  0  0
  5 43  1  1  0  0  0
  5  3  1  0  0  0  0
  7 13  2  0  0  0  0
  8 11  1  0  0  0  0
  8 13  1  0  0  0  0
  9 10  1  6  0  0  0
  9  4  1  0  0  0  0
  9  5  1  0  0  0  0
 10  6  1  0  0  0  0
 11 10  2  0  0  0  0
 12  3  1  0  0  0  0
 13 14  1  0  0  0  0
 14  2  2  0  0  0  0
 15 16  1  1  0  0  0
 17 15  1  0  0  0  0
 18 17  1  6  0  0  0
 18 21  1  0  0  0  0
 18 32  1  0  0  0  0
 21 19  2  1  0  0  0
 21 20  1  0  0  0  0
 22 21  1  0  0  0  0
 23 22  1  0  0  0  0
 24 23  1  0  0  0  0
 25 24  1  0  0  0  0
 26 27  1  0  0  0  0
 27 29  1  0  0  0  0
 27 28  1  0  0  0  0
 28 25  1  6  0  0  0
 29 28  1  0  0  0  0
 30 31  1  0  0  0  0
 32 30  1  0  0  0  0
 32 31  1  0  0  0  0
 33 34  1  0  0  0  0
 34 35  1  0  0  0  0
 35 36  1  0  0  0  0
 36 37  1  0  0  0  0
 37 38  1  0  0  0  0
 39 38  1  0  0  0  0
 39 42  1  0  0  0  0
 42 41  2  0  0  0  0
 42 40  1  0  0  0  0
 44 43  1  0  0  0  0
 45 44  1  0  0  0  0
 46 45  1  0  0  0  0
 47 54  1  1  0  0  0
 47 51  1  0  0  0  0
 48 50  1  0  0  0  0
 48 47  1  0  0  0  0
 49 51  2  0  0  0  0
 49 46  1  0  0  0  0
 50 52  1  6  0  0  0
 50 49  1  0  0  0  0
 52 53  2  0  0  0  0
 54 56  1  0  0  0  0
 55 56  1  0  0  0  0
 56 57  1  0  0  0  0
M  END
>  <MODEL>
2

>  <REMARK>
 VINA RESULT:      -5.7      3.810     10.595
  Name = 
  26 active torsions:
  status: ('A' for Active; 'I' for Inactive)
    1  A    between atoms: C_2  and  C_40
    2  A    between atoms: O_4  and  O_7
    3  A    between atoms: O_4  and  C_31
    4  A    between atoms: N_5  and  C_48
    5  A    between atoms: O_7  and  C_29
    6  A    between atoms: C_8  and  C_10
    7  A    between atoms: C_8  and  C_32
    8  A    between atoms: C_9  and  C_28
    9  A    between atoms: C_10  and  C_27
   10  A    between atoms: C_11  and  P_45
   11  A    between atoms: C_11  and  N_46
   12  A    between atoms: C_11  and  C_49
   13  A    between atoms: C_15  and  C_48
   14  A    between atoms: C_17  and  C_26
   15  A    between atoms: C_17  and  C_36
   16  A    between atoms: O_18  and  C_26
   17  A    between atoms: O_18  and  P_45
   18  A    between atoms: C_21  and  C_32
   19  A    between atoms: C_24  and  O_30
   20  A    between atoms: C_27  and  C_52
   21  A    between atoms: C_28  and  C_49
   22  A    between atoms: C_29  and  O_30
   23  A    between atoms: C_36  and  C_44
   24  A    between atoms: C_41  and  C_42
   25  A    between atoms: C_42  and  C_43
   26  A    between atoms: C_43  and  C_52
                            x       y       z     vdW  Elec       q    Type
                         _______ _______ _______ _____ _____    ______ ____

>  <TORSDO>
F 26

$$$$
=
 OpenBabel11062417373D

 57 61  0  0  1  0  0  0  0  0999 V2000
  188.9780  177.8540  140.8950 C   0  0  0  0  0  3  0  0  0  0  0  0
  189.0500  177.3100  139.7120 C   0  0  0  0  0  0  0  0  0  0  0  0
  185.6380  176.6560  137.4740 C   0  0  1  0  0  3  0  0  0  0  0  0
  187.7550  176.3050  137.9420 C   0  0  2  0  0  3  0  0  0  0  0  0
  186.2330  176.2070  136.1490 C   0  0  1  0  0  3  0  0  0  0  0  0
  187.9250  177.9000  134.6020 C   0  0  0  0  0  1  0  0  0  0  0  0
  191.1740  175.6570  138.8020 N   0  0  0  0  0  2  0  0  0  0  0  0
  190.6070  176.2380  136.5970 N   0  0  0  0  0  2  0  0  0  0  0  0
  187.7110  176.0480  136.4430 C   0  0  1  0  0  3  0  0  0  0  0  0
  188.5550  177.0080  135.6240 C   0  0  0  0  0  0  0  0  0  0  0  0
  189.8530  176.9770  135.6690 N   0  0  0  0  0  0  0  0  0  0  0  0
  186.6810  177.1430  138.2720 O   0  0  0  0  0  0  0  0  0  0  0  0
  190.3100  176.1840  137.9950 C   0  0  0  0  0  0  0  0  0  0  0  0
  189.0630  176.7640  138.5220 C   0  0  0  0  0  0  0  0  0  0  0  0
  188.0630  177.2800  141.9180 C   0  0  2  0  0  3  0  0  0  0  0  0
  187.3550  178.2930  142.5470 F   0  0  0  0  0  0  0  0  0  0  0  0
  188.8630  176.5080  142.9500 C   0  0  0  0  0  2  0  0  0  0  0  0
  189.6690  177.4940  143.8090 C   0  0  1  0  0  3  0  0  0  0  0  0
  189.3060  178.9090  146.1160 O   0  0  0  0  0  0  0  0  0  0  0  0
  189.5700  176.3330  146.4210 O   0  0  0  0  0  1  0  0  0  0  0  0
  188.9450  177.5860  145.4770 P   0  0  2  0  0  0  0  0  0  0  0  0
  187.2610  177.4100  145.3880 O   0  0  0  0  0  0  0  0  0  0  0  0
  186.7810  177.6110  146.6860 C   0  0  0  0  0  2  0  0  0  0  0  0
  185.4070  178.2700  146.6460 C   0  0  0  0  0  2  0  0  0  0  0  0
  185.1960  179.0460  145.3520 C   0  0  0  0  0  2  0  0  0  0  0  0
  182.0850  179.1260  143.4440 C   0  0  0  0  0  1  0  0  0  0  0  0
  183.4520  179.5320  143.7230 N   0  0  0  0  0  0  0  0  0  0  0  0
  184.0270  178.4740  144.5660 C   0  0  1  0  0  3  0  0  0  0  0  0
  184.3240  178.5050  143.1370 C   0  0  0  0  0  2  0  0  0  0  0  0
  191.8480  177.7700  142.7070 C   0  0  0  0  0  2  0  0  0  0  0  0
  191.8290  178.5810  143.9270 C   0  0  0  0  0  2  0  0  0  0  0  0
  191.1320  177.2830  143.9010 N   0  0  0  0  0  0  0  0  0  0  0  0
  184.5880  177.7380  137.2700 C   0  0  0  0  0  2  0  0  0  0  0  0
  184.6300  178.7500  138.4050 C   0  0  0  0  0  2  0  0  0  0  0  0
  183.2310  178.9990  138.9420 C   0  0  0  0  0  2  0  0  0  0  0  0
  182.5580  177.6750  139.2520 C   0  0  0  0  0  2  0  0  0  0  0  0
  181.2160  177.5810  138.5450 C   0  0  0  0  0  2  0  0  0  0  0  0
  180.8600  178.8900  137.8510 C   0  0  0  0  0  2  0  0  0  0  0  0
  181.2210  178.8470  136.3710 C   0  0  0  0  0  2  0  0  0  0  0  0
  178.9940  177.7760  135.9920 O   0  0  0  0  0  1  0  0  0  0  0  0
  180.7940  177.2020  134.6920 O   0  0  0  0  0  0  0  0  0  0  0  0
  180.3360  177.8870  135.6450 C   0  0  0  0  0  0  0  0  0  0  0  0
  185.6750  174.9840  135.7650 O   0  0  0  0  0  0  0  0  0  0  0  0
  184.9120  175.2710  134.6270 C   0  0  0  0  0  2  0  0  0  0  0  0
  183.6360  174.7140  134.7530 O   0  0  0  0  0  0  0  0  0  0  0  0
  183.8280  173.6250  135.5100 O   0  0  0  0  0  0  0  0  0  0  0  0
  181.0400  171.7860  137.0530 C   0  0  1  0  0  3  0  0  0  0  0  0
  180.8040  170.9850  135.4300 S   0  0  0  0  0  0  0  0  0  0  0  0
  182.7910  172.7340  135.7700 C   0  0  0  0  0  0  0  0  0  0  0  0
  182.3650  171.6880  134.8010 C   0  0  1  0  0  3  0  0  0  0  0  0
  182.1310  172.7840  136.9090 C   0  0  0  0  0  3  0  0  0  0  0  0
  183.4100  170.6200  134.7270 C   0  0  0  0  0  3  0  0  0  0  0  0
  184.2840  170.5500  135.5750 O   0  0  0  0  0  0  0  0  0  0  0  0
  179.7490  172.4350  137.5500 C   0  0  0  0  0  2  0  0  0  0  0  0
  178.9630  174.3230  136.3930 C   0  0  0  0  0  1  0  0  0  0  0  0
  179.8180  173.8920  137.4830 N   0  0  0  0  0  0  0  0  0  0  0  0
  179.2260  174.4010  138.7090 C   0  0  0  0  0  1  0  0  0  0  0  0
  1 15  1  0  0  0  0
  2  1  2  0  0  0  0
  3 33  1  6  0  0  0
  3 12  1  0  0  0  0
  4 12  1  6  0  0  0
  4 14  1  0  0  0  0
  5 43  1  1  0  0  0
  5  9  1  0  0  0  0
  5  3  1  0  0  0  0
  6 10  1  0  0  0  0
  8 13  1  0  0  0  0
  9 10  1  6  0  0  0
  9  4  1  0  0  0  0
 10 11  2  0  0  0  0
 11  8  1  0  0  0  0
 13 14  1  0  0  0  0
 13  7  2  0  0  0  0
 14  2  2  0  0  0  0
 15 16  1  1  0  0  0
 15 17  1  0  0  0  0
 18 17  1  6  0  0  0
 18 32  1  0  0  0  0
 18 21  1  0  0  0  0
 21 19  2  1  0  0  0
 21 20  1  0  0  0  0
 22 21  1  0  0  0  0
 22 23  1  0  0  0  0
 24 23  1  0  0  0  0
 25 24  1  0  0  0  0
 26 27  1  0  0  0  0
 27 28  1  0  0  0  0
 28 25  1  1  0  0  0
 29 27  1  0  0  0  0
 29 28  1  0  0  0  0
 30 32  1  0  0  0  0
 30 31  1  0  0  0  0
 32 31  1  0  0  0  0
 33 34  1  0  0  0  0
 34 35  1  0  0  0  0
 35 36  1  0  0  0  0
 37 36  1  0  0  0  0
 38 37  1  0  0  0  0
 39 38  1  0  0  0  0
 41 42  2  0  0  0  0
 42 40  1  0  0  0  0
 42 39  1  0  0  0  0
 44 45  1  0  0  0  0
 44 43  1  0  0  0  0
 45 46  1  0  0  0  0
 46 49  1  0  0  0  0
 47 54  1  6  0  0  0
 48 47  1  0  0  0  0
 49 51  2  0  0  0  0
 50 52  1  1  0  0  0
 50 48  1  0  0  0  0
 50 49  1  0  0  0  0
 51 47  1  0  0  0  0
 52 53  2  0  0  0  0
 55 56  1  0  0  0  0
 56 54  1  0  0  0  0
 56 57  1  0  0  0  0
M  END
>  <MODEL>
3

>  <REMARK>
 VINA RESULT:      -5.6      3.871      8.903
  Name = 
  26 active torsions:
  status: ('A' for Active; 'I' for Inactive)
    1  A    between atoms: C_2  and  C_40
    2  A    between atoms: O_4  and  O_7
    3  A    between atoms: O_4  and  C_31
    4  A    between atoms: N_5  and  C_48
    5  A    between atoms: O_7  and  C_29
    6  A    between atoms: C_8  and  C_10
    7  A    between atoms: C_8  and  C_32
    8  A    between atoms: C_9  and  C_28
    9  A    between atoms: C_10  and  C_27
   10  A    between atoms: C_11  and  P_45
   11  A    between atoms: C_11  and  N_46
   12  A    between atoms: C_11  and  C_49
   13  A    between atoms: C_15  and  C_48
   14  A    between atoms: C_17  and  C_26
   15  A    between atoms: C_17  and  C_36
   16  A    between atoms: O_18  and  C_26
   17  A    between atoms: O_18  and  P_45
   18  A    between atoms: C_21  and  C_32
   19  A    between atoms: C_24  and  O_30
   20  A    between atoms: C_27  and  C_52
   21  A    between atoms: C_28  and  C_49
   22  A    between atoms: C_29  and  O_30
   23  A    between atoms: C_36  and  C_44
   24  A    between atoms: C_41  and  C_42
   25  A    between atoms: C_42  and  C_43
   26  A    between atoms: C_43  and  C_52
                            x       y       z     vdW  Elec       q    Type
                         _______ _______ _______ _____ _____    ______ ____

>  <TORSDO>
F 26

$$$$
=
 OpenBabel11062417373D

 57 61  0  0  1  0  0  0  0  0999 V2000
  187.2580  178.8150  143.4170 C   0  0  0  0  0  3  0  0  0  0  0  0
  188.2760  178.0900  143.0430 C   0  0  0  0  0  0  0  0  0  0  0  0
  189.0080  177.3800  139.0390 C   0  0  1  0  0  3  0  0  0  0  0  0
  189.2680  176.9330  141.1730 C   0  0  2  0  0  3  0  0  0  0  0  0
  190.3580  176.6850  139.1020 C   0  0  1  0  0  3  0  0  0  0  0  0
  192.6740  177.9750  140.1490 C   0  0  0  0  0  1  0  0  0  0  0  0
  189.5800  176.1490  144.6570 N   0  0  0  0  0  2  0  0  0  0  0  0
  191.5050  176.4280  143.3390 N   0  0  0  0  0  2  0  0  0  0  0  0
  190.5860  176.4520  140.5820 C   0  0  1  0  0  3  0  0  0  0  0  0
  191.8040  177.2030  141.0890 C   0  0  0  0  0  0  0  0  0  0  0  0
  192.2180  177.0740  142.3140 N   0  0  0  0  0  0  0  0  0  0  0  0
  188.7290  177.8970  140.3100 O   0  0  0  0  0  0  0  0  0  0  0  0
  190.1050  176.6140  143.5690 C   0  0  0  0  0  0  0  0  0  0  0  0
  189.2790  177.3680  142.6120 C   0  0  0  0  0  0  0  0  0  0  0  0
  185.8940  178.4820  142.9260 C   0  0  2  0  0  3  0  0  0  0  0  0
  185.7080  177.1080  142.9270 F   0  0  0  0  0  0  0  0  0  0  0  0
  185.7080  179.0160  141.5190 C   0  0  0  0  0  2  0  0  0  0  0  0
  184.2060  179.1240  141.2110 C   0  0  1  0  0  3  0  0  0  0  0  0
  185.2410  178.6860  138.7230 O   0  0  0  0  0  0  0  0  0  0  0  0
  183.0090  180.0320  138.7790 O   0  0  0  0  0  1  0  0  0  0  0  0
  183.9160  178.7750  139.4480 P   0  0  2  0  0  0  0  0  0  0  0  0
  183.0480  177.3290  139.2790 O   0  0  0  0  0  0  0  0  0  0  0  0
  183.3180  176.8630  137.9890 C   0  0  0  0  0  2  0  0  0  0  0  0
  183.6000  175.3650  138.0160 C   0  0  0  0  0  2  0  0  0  0  0  0
  182.4830  174.5730  137.3470 C   0  0  0  0  0  2  0  0  0  0  0  0
  180.3960  175.7550  134.5940 C   0  0  0  0  0  1  0  0  0  0  0  0
  180.8460  174.7610  135.5530 N   0  0  0  0  0  0  0  0  0  0  0  0
  181.5220  175.5050  136.6260 C   0  0  1  0  0  3  0  0  0  0  0  0
  180.1480  175.0470  136.8150 C   0  0  0  0  0  2  0  0  0  0  0  0
  182.6150  179.1390  143.0850 C   0  0  0  0  0  2  0  0  0  0  0  0
  181.8950  178.7980  141.8560 C   0  0  0  0  0  2  0  0  0  0  0  0
  183.2780  178.3280  142.0470 N   0  0  0  0  0  0  0  0  0  0  0  0
  189.0100  178.4990  138.0080 C   0  0  0  0  0  2  0  0  0  0  0  0
  188.8140  177.9400  136.6070 C   0  0  0  0  0  2  0  0  0  0  0  0
  187.4550  178.3490  136.0620 C   0  0  0  0  0  2  0  0  0  0  0  0
  187.0420  177.4020  134.9510 C   0  0  0  0  0  2  0  0  0  0  0  0
  185.8350  176.5800  135.3720 C   0  0  0  0  0  2  0  0  0  0  0  0
  186.1630  175.0920  135.4130 C   0  0  0  0  0  2  0  0  0  0  0  0
  187.0160  174.7480  136.6280 C   0  0  0  0  0  2  0  0  0  0  0  0
  188.5810  172.8370  137.0150 O   0  0  0  0  0  1  0  0  0  0  0  0
  188.7910  174.1470  135.1460 O   0  0  0  0  0  0  0  0  0  0  0  0
  188.1840  173.9090  136.2240 C   0  0  0  0  0  0  0  0  0  0  0  0
  190.3010  175.4660  138.4180 O   0  0  0  0  0  0  0  0  0  0  0  0
  191.3320  175.5290  137.4730 C   0  0  0  0  0  2  0  0  0  0  0  0
  192.4650  174.8680  137.9550 O   0  0  0  0  0  0  0  0  0  0  0  0
  193.4890  175.6190  137.5260 O   0  0  0  0  0  0  0  0  0  0  0  0
  196.7170  173.9460  136.9670 C   0  0  1  0  0  3  0  0  0  0  0  0
  196.2510  173.8580  135.2050 S   0  0  0  0  0  0  0  0  0  0  0  0
  194.6180  175.0410  136.9510 C   0  0  0  0  0  0  0  0  0  0  0  0
  194.8140  174.9460  135.4790 C   0  0  1  0  0  3  0  0  0  0  0  0
  195.5770  174.5440  137.7060 C   0  0  0  0  0  3  0  0  0  0  0  0
  195.0930  176.3060  134.9240 C   0  0  0  0  0  3  0  0  0  0  0  0
  195.7970  177.0920  135.5350 O   0  0  0  0  0  0  0  0  0  0  0  0
  197.0820  172.5690  137.5190 C   0  0  0  0  0  2  0  0  0  0  0  0
  197.4150  170.5010  136.4540 C   0  0  0  0  0  1  0  0  0  0  0  0
  196.4150  171.4990  136.7830 N   0  0  0  0  0  0  0  0  0  0  0  0
  195.4800  170.8720  137.7030 C   0  0  0  0  0  1  0  0  0  0  0  0
  2  1  2  0  0  0  0
  3 33  1  6  0  0  0
  3  5  1  0  0  0  0
  3 12  1  0  0  0  0
  4 12  1  6  0  0  0
  4 14  1  0  0  0  0
  5 43  1  6  0  0  0
  5  9  1  0  0  0  0
  6 10  1  0  0  0  0
  8 13  1  0  0  0  0
  9 10  1  1  0  0  0
  9  4  1  0  0  0  0
 10 11  2  0  0  0  0
 11  8  1  0  0  0  0
 13  7  2  0  0  0  0
 14  2  2  0  0  0  0
 14 13  1  0  0  0  0
 15 16  1  6  0  0  0
 15  1  1  0  0  0  0
 17 15  1  0  0  0  0
 18 17  1  1  0  0  0
 18 32  1  0  0  0  0
 20 21  1  0  0  0  0
 21 19  2  6  0  0  0
 21 18  1  0  0  0  0
 22 21  1  0  0  0  0
 23 24  1  0  0  0  0
 23 22  1  0  0  0  0
 25 24  1  0  0  0  0
 26 27  1  0  0  0  0
 27 28  1  0  0  0  0
 27 29  1  0  0  0  0
 28 29  1  0  0  0  0
 28 25  1  1  0  0  0
 31 32  1  0  0  0  0
 31 30  1  0  0  0  0
 32 30  1  0  0  0  0
 34 33  1  0  0  0  0
 35 34  1  0  0  0  0
 36 37  1  0  0  0  0
 36 35  1  0  0  0  0
 37 38  1  0  0  0  0
 38 39  1  0  0  0  0
 41 42  2  0  0  0  0
 42 39  1  0  0  0  0
 42 40  1  0  0  0  0
 44 45  1  0  0  0  0
 44 43  1  0  0  0  0
 46 45  1  0  0  0  0
 47 54  1  1  0  0  0
 47 51  1  0  0  0  0
 48 50  1  0  0  0  0
 48 47  1  0  0  0  0
 49 46  1  0  0  0  0
 49 51  2  0  0  0  0
 50 52  1  1  0  0  0
 50 49  1  0  0  0  0
 52 53  2  0  0  0  0
 55 56  1  0  0  0  0
 56 54  1  0  0  0  0
 56 57  1  0  0  0  0
M  END
>  <MODEL>
4

>  <REMARK>
 VINA RESULT:      -5.3      2.716      3.990
  Name = 
  26 active torsions:
  status: ('A' for Active; 'I' for Inactive)
    1  A    between atoms: C_2  and  C_40
    2  A    between atoms: O_4  and  O_7
    3  A    between atoms: O_4  and  C_31
    4  A    between atoms: N_5  and  C_48
    5  A    between atoms: O_7  and  C_29
    6  A    between atoms: C_8  and  C_10
    7  A    between atoms: C_8  and  C_32
    8  A    between atoms: C_9  and  C_28
    9  A    between atoms: C_10  and  C_27
   10  A    between atoms: C_11  and  P_45
   11  A    between atoms: C_11  and  N_46
   12  A    between atoms: C_11  and  C_49
   13  A    between atoms: C_15  and  C_48
   14  A    between atoms: C_17  and  C_26
   15  A    between atoms: C_17  and  C_36
   16  A    between atoms: O_18  and  C_26
   17  A    between atoms: O_18  and  P_45
   18  A    between atoms: C_21  and  C_32
   19  A    between atoms: C_24  and  O_30
   20  A    between atoms: C_27  and  C_52
   21  A    between atoms: C_28  and  C_49
   22  A    between atoms: C_29  and  O_30
   23  A    between atoms: C_36  and  C_44
   24  A    between atoms: C_41  and  C_42
   25  A    between atoms: C_42  and  C_43
   26  A    between atoms: C_43  and  C_52
                            x       y       z     vdW  Elec       q    Type
                         _______ _______ _______ _____ _____    ______ ____

>  <TORSDO>
F 26

$$$$
=
 OpenBabel11062417373D

 57 61  0  0  1  0  0  0  0  0999 V2000
  185.6290  177.9180  143.1680 C   0  0  0  0  0  3  0  0  0  0  0  0
  184.4090  178.2260  142.8230 C   0  0  0  0  0  0  0  0  0  0  0  0
  182.9400  177.1920  139.1020 C   0  0  1  0  0  3  0  0  0  0  0  0
  182.8800  178.3590  140.9620 C   0  0  2  0  0  3  0  0  0  0  0  0
  181.4750  177.5750  139.2440 C   0  0  1  0  0  3  0  0  0  0  0  0
  179.7740  176.3490  141.1740 C   0  0  0  0  0  1  0  0  0  0  0  0
  182.8760  180.3340  143.9530 N   0  0  0  0  0  2  0  0  0  0  0  0
  180.9290  179.1960  143.2950 N   0  0  0  0  0  2  0  0  0  0  0  0
  181.4110  178.3040  140.5710 C   0  0  1  0  0  3  0  0  0  0  0  0
  180.5290  177.5780  141.5700 C   0  0  0  0  0  0  0  0  0  0  0  0
  180.2770  178.0800  142.7420 N   0  0  0  0  0  0  0  0  0  0  0  0
  183.5300  177.2670  140.3700 O   0  0  0  0  0  0  0  0  0  0  0  0
  182.3450  179.3940  143.2390 C   0  0  0  0  0  0  0  0  0  0  0  0
  183.1970  178.5130  142.4230 C   0  0  0  0  0  0  0  0  0  0  0  0
  186.7660  178.3020  142.2880 C   0  0  2  0  0  3  0  0  0  0  0  0
  186.3110  178.5520  141.0030 F   0  0  0  0  0  0  0  0  0  0  0  0
  187.7910  177.1860  142.2530 C   0  0  0  0  0  2  0  0  0  0  0  0
  188.9920  177.6260  141.4030 C   0  0  1  0  0  3  0  0  0  0  0  0
  191.6750  177.1510  141.2240 O   0  0  0  0  0  0  0  0  0  0  0  0
  190.3670  175.5600  142.8230 O   0  0  0  0  0  1  0  0  0  0  0  0
  190.5390  177.1290  142.2240 P   0  0  2  0  0  0  0  0  0  0  0  0
  190.8690  178.1720  143.5190 O   0  0  0  0  0  0  0  0  0  0  0  0
  190.6390  177.4300  144.6820 C   0  0  0  0  0  2  0  0  0  0  0  0
  189.7020  178.1870  145.6160 C   0  0  0  0  0  2  0  0  0  0  0  0
  188.7280  177.2470  146.3150 C   0  0  0  0  0  2  0  0  0  0  0  0
  185.2270  178.0480  146.9720 C   0  0  0  0  0  1  0  0  0  0  0  0
  186.6590  178.2280  147.1440 N   0  0  0  0  0  0  0  0  0  0  0  0
  187.2920  177.6080  145.9710 C   0  0  1  0  0  3  0  0  0  0  0  0
  187.1170  179.0570  146.0210 C   0  0  0  0  0  2  0  0  0  0  0  0
  188.7690  178.3340  139.0590 C   0  0  0  0  0  2  0  0  0  0  0  0
  190.1360  177.8570  139.2810 C   0  0  0  0  0  2  0  0  0  0  0  0
  189.0140  177.2090  139.9820 N   0  0  0  0  0  0  0  0  0  0  0  0
  183.0920  175.7880  138.5360 C   0  0  0  0  0  2  0  0  0  0  0  0
  183.5810  175.8390  137.0960 C   0  0  0  0  0  2  0  0  0  0  0  0
  184.5090  174.6680  136.8140 C   0  0  0  0  0  2  0  0  0  0  0  0
  183.8830  173.7570  135.7750 C   0  0  0  0  0  2  0  0  0  0  0  0
  183.2370  172.5530  136.4420 C   0  0  0  0  0  2  0  0  0  0  0  0
  181.8070  172.3480  135.9570 C   0  0  0  0  0  2  0  0  0  0  0  0
  180.9990  173.6360  136.0600 C   0  0  0  0  0  2  0  0  0  0  0  0
  179.5500  174.7990  137.7330 O   0  0  0  0  0  0  0  0  0  0  0  0
  179.9740  172.5540  137.9270 O   0  0  0  0  0  1  0  0  0  0  0  0
  180.1610  173.6280  137.2960 C   0  0  0  0  0  0  0  0  0  0  0  0
  181.1000  178.4250  138.1990 O   0  0  0  0  0  0  0  0  0  0  0  0
  179.8300  177.9840  137.8080 C   0  0  0  0  0  2  0  0  0  0  0  0
  179.0650  179.0660  137.3620 O   0  0  0  0  0  0  0  0  0  0  0  0
  179.8210  180.1370  137.6380 O   0  0  0  0  0  0  0  0  0  0  0  0
  179.0900  183.3170  135.9380 C   0  0  1  0  0  3  0  0  0  0  0  0
  180.7010  183.1240  135.1040 S   0  0  0  0  0  0  0  0  0  0  0  0
  179.8480  181.2420  136.7900 C   0  0  0  0  0  0  0  0  0  0  0  0
  180.8810  181.4230  135.7350 C   0  0  1  0  0  3  0  0  0  0  0  0
  178.9380  182.1900  136.8930 C   0  0  0  0  0  3  0  0  0  0  0  0
  180.6440  180.4430  134.6300 C   0  0  0  0  0  3  0  0  0  0  0  0
  179.6340  179.7610  134.6140 O   0  0  0  0  0  0  0  0  0  0  0  0
  178.9820  184.6680  136.6430 C   0  0  0  0  0  2  0  0  0  0  0  0
  181.1360  185.1000  137.4750 C   0  0  0  0  0  1  0  0  0  0  0  0
  179.7930  184.7070  137.8570 N   0  0  0  0  0  0  0  0  0  0  0  0
  179.2610  185.7760  138.6870 C   0  0  0  0  0  1  0  0  0  0  0  0
  2  1  2  0  0  0  0
  3 33  1  1  0  0  0
  3  5  1  0  0  0  0
  3 12  1  0  0  0  0
  4 12  1  1  0  0  0
  4 14  1  0  0  0  0
  5 43  1  6  0  0  0
  5  9  1  0  0  0  0
  6 10  1  0  0  0  0
  9  4  1  0  0  0  0
  9 10  1  1  0  0  0
 10 11  2  0  0  0  0
 11  8  1  0  0  0  0
 13  8  1  0  0  0  0
 13  7  2  0  0  0  0
 14  2  2  0  0  0  0
 14 13  1  0  0  0  0
 15 16  1  6  0  0  0
 15  1  1  0  0  0  0
 17 15  1  0  0  0  0
 18 21  1  0  0  0  0
 18 17  1  1  0  0  0
 21 19  2  6  0  0  0
 21 20  1  0  0  0  0
 21 22  1  0  0  0  0
 22 23  1  0  0  0  0
 23 24  1  0  0  0  0
 24 25  1  0  0  0  0
 26 27  1  0  0  0  0
 28 29  1  0  0  0  0
 28 25  1  1  0  0  0
 28 27  1  0  0  0  0
 29 27  1  0  0  0  0
 30 31  1  0  0  0  0
 30 32  1  0  0  0  0
 31 32  1  0  0  0  0
 32 18  1  0  0  0  0
 34 33  1  0  0  0  0
 35 34  1  0  0  0  0
 36 37  1  0  0  0  0
 36 35  1  0  0  0  0
 38 39  1  0  0  0  0
 38 37  1  0  0  0  0
 39 42  1  0  0  0  0
 42 40  2  0  0  0  0
 42 41  1  0  0  0  0
 44 43  1  0  0  0  0
 45 46  1  0  0  0  0
 45 44  1  0  0  0  0
 47 54  1  1  0  0  0
 47 51  1  0  0  0  0
 48 50  1  0  0  0  0
 48 47  1  0  0  0  0
 49 51  2  0  0  0  0
 49 46  1  0  0  0  0
 50 52  1  6  0  0  0
 50 49  1  0  0  0  0
 53 52  2  0  0  0  0
 54 56  1  0  0  0  0
 55 56  1  0  0  0  0
 56 57  1  0  0  0  0
M  END
>  <MODEL>
5

>  <REMARK>
 VINA RESULT:      -5.0      4.123     10.558
  Name = 
  26 active torsions:
  status: ('A' for Active; 'I' for Inactive)
    1  A    between atoms: C_2  and  C_40
    2  A    between atoms: O_4  and  O_7
    3  A    between atoms: O_4  and  C_31
    4  A    between atoms: N_5  and  C_48
    5  A    between atoms: O_7  and  C_29
    6  A    between atoms: C_8  and  C_10
    7  A    between atoms: C_8  and  C_32
    8  A    between atoms: C_9  and  C_28
    9  A    between atoms: C_10  and  C_27
   10  A    between atoms: C_11  and  P_45
   11  A    between atoms: C_11  and  N_46
   12  A    between atoms: C_11  and  C_49
   13  A    between atoms: C_15  and  C_48
   14  A    between atoms: C_17  and  C_26
   15  A    between atoms: C_17  and  C_36
   16  A    between atoms: O_18  and  C_26
   17  A    between atoms: O_18  and  P_45
   18  A    between atoms: C_21  and  C_32
   19  A    between atoms: C_24  and  O_30
   20  A    between atoms: C_27  and  C_52
   21  A    between atoms: C_28  and  C_49
   22  A    between atoms: C_29  and  O_30
   23  A    between atoms: C_36  and  C_44
   24  A    between atoms: C_41  and  C_42
   25  A    between atoms: C_42  and  C_43
   26  A    between atoms: C_43  and  C_52
                            x       y       z     vdW  Elec       q    Type
                         _______ _______ _______ _____ _____    ______ ____

>  <TORSDO>
F 26

$$$$
=
 OpenBabel11062417373D

 57 61  0  0  1  0  0  0  0  0999 V2000
  183.6290  177.2040  138.4530 C   0  0  0  0  0  3  0  0  0  0  0  0
  184.5480  176.7710  137.6350 C   0  0  0  0  0  0  0  0  0  0  0  0
  188.5300  177.6780  138.2580 C   0  0  1  0  0  3  0  0  0  0  0  0
  186.8620  177.0020  136.9980 C   0  0  2  0  0  3  0  0  0  0  0  0
  189.2010  176.8170  137.1990 C   0  0  1  0  0  3  0  0  0  0  0  0
  188.9890  173.9740  137.2070 C   0  0  0  0  0  1  0  0  0  0  0  0
  184.1040  176.0210  134.9310 N   0  0  0  0  0  2  0  0  0  0  0  0
  186.0220  174.6690  135.0500 N   0  0  0  0  0  2  0  0  0  0  0  0
  188.0470  176.2750  136.3780 C   0  0  1  0  0  3  0  0  0  0  0  0
  187.9590  174.7620  136.4610 C   0  0  0  0  0  0  0  0  0  0  0  0
  187.0870  174.0950  135.7660 N   0  0  0  0  0  0  0  0  0  0  0  0
  187.1840  177.3020  138.3290 O   0  0  0  0  0  0  0  0  0  0  0  0
  185.1830  175.7030  135.5720 C   0  0  0  0  0  0  0  0  0  0  0  0
  185.5100  176.3660  136.8450 C   0  0  0  0  0  0  0  0  0  0  0  0
  183.5510  178.6550  138.7760 C   0  0  2  0  0  3  0  0  0  0  0  0
  184.8220  179.2080  138.7970 F   0  0  0  0  0  0  0  0  0  0  0  0
  182.8940  178.8470  140.1280 C   0  0  0  0  0  2  0  0  0  0  0  0
  181.4680  179.3830  139.9280 C   0  0  1  0  0  3  0  0  0  0  0  0
  182.6380  181.5900  138.8250 O   0  0  0  0  0  1  0  0  0  0  0  0
  180.0330  181.5370  138.7110 O   0  0  0  0  0  0  0  0  0  0  0  0
  181.4680  180.6510  138.6220 P   0  0  2  0  0  0  0  0  0  0  0  0
  181.5570  179.9130  137.0980 O   0  0  0  0  0  0  0  0  0  0  0  0
  180.3080  180.1080  136.5000 C   0  0  0  0  0  2  0  0  0  0  0  0
  179.9850  178.9500  135.5620 C   0  0  0  0  0  2  0  0  0  0  0  0
  181.0360  177.8500  135.6480 C   0  0  0  0  0  2  0  0  0  0  0  0
  178.9310  175.2840  137.1690 C   0  0  0  0  0  1  0  0  0  0  0  0
  179.6680  175.8800  136.0670 N   0  0  0  0  0  0  0  0  0  0  0  0
  180.6360  176.8040  136.6750 C   0  0  1  0  0  3  0  0  0  0  0  0
  181.0730  175.4810  136.2360 C   0  0  0  0  0  2  0  0  0  0  0  0
  180.3520  177.3330  140.7000 C   0  0  0  0  0  2  0  0  0  0  0  0
  179.3970  178.4420  140.7590 C   0  0  0  0  0  2  0  0  0  0  0  0
  180.3940  178.3940  139.6760 N   0  0  0  0  0  0  0  0  0  0  0  0
  189.1960  177.5020  139.6150 C   0  0  0  0  0  2  0  0  0  0  0  0
  188.3830  178.1860  140.7040 C   0  0  0  0  0  2  0  0  0  0  0  0
  188.4660  177.3940  141.9990 C   0  0  0  0  0  2  0  0  0  0  0  0
  187.2160  177.6300  142.8250 C   0  0  0  0  0  2  0  0  0  0  0  0
  187.3250  176.9270  144.1690 C   0  0  0  0  0  2  0  0  0  0  0  0
  187.5050  177.9260  145.3060 C   0  0  0  0  0  2  0  0  0  0  0  0
  188.6740  177.5390  146.2020 C   0  0  0  0  0  2  0  0  0  0  0  0
  190.9680  176.7720  145.5690 O   0  0  0  0  0  1  0  0  0  0  0  0
  190.1480  178.7590  144.7720 O   0  0  0  0  0  0  0  0  0  0  0  0
  189.9700  177.7360  145.4850 C   0  0  0  0  0  0  0  0  0  0  0  0
  190.0400  177.6030  136.4040 O   0  0  0  0  0  0  0  0  0  0  0  0
  191.0390  176.7320  135.9540 C   0  0  0  0  0  2  0  0  0  0  0  0
  191.7630  176.2320  137.0390 O   0  0  0  0  0  0  0  0  0  0  0  0
  193.0290  176.1970  136.6000 O   0  0  0  0  0  0  0  0  0  0  0  0
  195.7240  173.6930  136.5620 C   0  0  1  0  0  3  0  0  0  0  0  0
  194.4300  172.4440  136.8720 S   0  0  0  0  0  0  0  0  0  0  0  0
  193.7560  175.0090  136.5830 C   0  0  0  0  0  0  0  0  0  0  0  0
  193.1100  173.6680  136.5860 C   0  0  1  0  0  3  0  0  0  0  0  0
  195.0730  175.0280  136.5650 C   0  0  0  0  0  3  0  0  0  0  0  0
  192.4670  173.4220  135.2580 C   0  0  0  0  0  3  0  0  0  0  0  0
  191.5280  172.6510  135.1580 O   0  0  0  0  0  0  0  0  0  0  0  0
  196.8410  173.6120  137.6010 C   0  0  0  0  0  2  0  0  0  0  0  0
  198.3810  174.8910  138.8330 C   0  0  0  0  0  1  0  0  0  0  0  0
  197.7090  174.7850  137.5510 N   0  0  0  0  0  0  0  0  0  0  0  0
  198.7350  174.5110  136.5590 C   0  0  0  0  0  1  0  0  0  0  0  0
  1 15  1  0  0  0  0
  2  1  2  0  0  0  0
  3 12  1  0  0  0  0
  3 33  1  1  0  0  0
  4 14  1  1  0  0  0
  4 12  1  0  0  0  0
  5 43  1  6  0  0  0
  5  3  1  0  0  0  0
  7 13  2  0  0  0  0
  8 13  1  0  0  0  0
  8 11  1  0  0  0  0
  9 10  1  1  0  0  0
  9  4  1  0  0  0  0
  9  5  1  0  0  0  0
 10  6  1  0  0  0  0
 11 10  2  0  0  0  0
 13 14  1  0  0  0  0
 14  2  2  0  0  0  0
 15 16  1  1  0  0  0
 15 17  1  0  0  0  0
 18 17  1  6  0  0  0
 21 20  2  1  0  0  0
 21 19  1  0  0  0  0
 21 18  1  0  0  0  0
 22 21  1  0  0  0  0
 23 22  1  0  0  0  0
 24 25  1  0  0  0  0
 24 23  1  0  0  0  0
 27 29  1  0  0  0  0
 27 28  1  0  0  0  0
 27 26  1  0  0  0  0
 28 25  1  6  0  0  0
 29 28  1  0  0  0  0
 30 31  1  0  0  0  0
 32 18  1  0  0  0  0
 32 30  1  0  0  0  0
 32 31  1  0  0  0  0
 33 34  1  0  0  0  0
 34 35  1  0  0  0  0
 35 36  1  0  0  0  0
 36 37  1  0  0  0  0
 37 38  1  0  0  0  0
 38 39  1  0  0  0  0
 41 42  2  0  0  0  0
 42 40  1  0  0  0  0
 42 39  1  0  0  0  0
 44 43  1  0  0  0  0
 44 45  1  0  0  0  0
 46 45  1  0  0  0  0
 47 51  1  0  0  0  0
 47 48  1  0  0  0  0
 47 54  1  1  0  0  0
 49 50  1  0  0  0  0
 49 46  1  0  0  0  0
 50 52  1  6  0  0  0
 50 48  1  0  0  0  0
 51 49  2  0  0  0  0
 53 52  2  0  0  0  0
 56 54  1  0  0  0  0
 56 55  1  0  0  0  0
 57 56  1  0  0  0  0
M  END
>  <MODEL>
6

>  <REMARK>
 VINA RESULT:      -5.0      3.584      6.315
  Name = 
  26 active torsions:
  status: ('A' for Active; 'I' for Inactive)
    1  A    between atoms: C_2  and  C_40
    2  A    between atoms: O_4  and  O_7
    3  A    between atoms: O_4  and  C_31
    4  A    between atoms: N_5  and  C_48
    5  A    between atoms: O_7  and  C_29
    6  A    between atoms: C_8  and  C_10
    7  A    between atoms: C_8  and  C_32
    8  A    between atoms: C_9  and  C_28
    9  A    between atoms: C_10  and  C_27
   10  A    between atoms: C_11  and  P_45
   11  A    between atoms: C_11  and  N_46
   12  A    between atoms: C_11  and  C_49
   13  A    between atoms: C_15  and  C_48
   14  A    between atoms: C_17  and  C_26
   15  A    between atoms: C_17  and  C_36
   16  A    between atoms: O_18  and  C_26
   17  A    between atoms: O_18  and  P_45
   18  A    between atoms: C_21  and  C_32
   19  A    between atoms: C_24  and  O_30
   20  A    between atoms: C_27  and  C_52
   21  A    between atoms: C_28  and  C_49
   22  A    between atoms: C_29  and  O_30
   23  A    between atoms: C_36  and  C_44
   24  A    between atoms: C_41  and  C_42
   25  A    between atoms: C_42  and  C_43
   26  A    between atoms: C_43  and  C_52
                            x       y       z     vdW  Elec       q    Type
                         _______ _______ _______ _____ _____    ______ ____

>  <TORSDO>
F 26

$$$$
=
 OpenBabel11062417373D

 57 61  0  0  1  0  0  0  0  0999 V2000
  186.1530  177.1550  144.8930 C   0  0  0  0  0  3  0  0  0  0  0  0
  185.1880  177.7540  144.2520 C   0  0  0  0  0  0  0  0  0  0  0  0
  185.5470  178.6270  140.2290 C   0  0  1  0  0  3  0  0  0  0  0  0
  184.6140  178.8860  142.2010 C   0  0  2  0  0  3  0  0  0  0  0  0
  184.1450  179.1200  139.9060 C   0  0  1  0  0  3  0  0  0  0  0  0
  181.8530  177.4500  140.1880 C   0  0  0  0  0  1  0  0  0  0  0  0
  183.1900  179.3780  145.4530 N   0  0  0  0  0  2  0  0  0  0  0  0
  181.7960  178.9230  143.6180 N   0  0  0  0  0  2  0  0  0  0  0  0
  183.4660  179.2160  141.2570 C   0  0  1  0  0  3  0  0  0  0  0  0
  182.2840  178.2700  141.3620 C   0  0  0  0  0  0  0  0  0  0  0  0
  181.5180  178.2550  142.4120 N   0  0  0  0  0  0  0  0  0  0  0  0
  185.5210  178.0690  141.5130 O   0  0  0  0  0  0  0  0  0  0  0  0
  183.0800  178.9190  144.2480 C   0  0  0  0  0  0  0  0  0  0  0  0
  184.2540  178.3560  143.5610 C   0  0  0  0  0  0  0  0  0  0  0  0
  187.5330  177.7090  144.8370 C   0  0  2  0  0  3  0  0  0  0  0  0
  187.5210  178.9610  144.2420 F   0  0  0  0  0  0  0  0  0  0  0  0
  188.4290  176.7800  144.0410 C   0  0  0  0  0  2  0  0  0  0  0  0
  189.8950  177.0430  144.4180 C   0  0  1  0  0  3  0  0  0  0  0  0
  191.0160  179.4810  143.9170 O   0  0  0  0  0  1  0  0  0  0  0  0
  189.5130  178.5330  142.0080 O   0  0  0  0  0  0  0  0  0  0  0  0
  190.6400  178.1920  143.2190 P   0  0  2  0  0  0  0  0  0  0  0  0
  192.0040  177.4820  142.5060 O   0  0  0  0  0  0  0  0  0  0  0  0
  191.5450  176.8190  141.3640 C   0  0  0  0  0  2  0  0  0  0  0  0
  192.0420  177.5240  140.1080 C   0  0  0  0  0  2  0  0  0  0  0  0
  193.1830  176.7560  139.4500 C   0  0  0  0  0  2  0  0  0  0  0  0
  193.9870  176.0310  135.9640 C   0  0  0  0  0  1  0  0  0  0  0  0
  193.9920  175.7440  137.3880 N   0  0  0  0  0  0  0  0  0  0  0  0
  192.9070  176.5470  137.9700 C   0  0  1  0  0  3  0  0  0  0  0  0
  192.6940  175.1280  137.6980 C   0  0  0  0  0  2  0  0  0  0  0  0
  190.2140  176.3830  146.7650 C   0  0  0  0  0  2  0  0  0  0  0  0
  191.4640  176.9550  146.2600 C   0  0  0  0  0  2  0  0  0  0  0  0
  190.1750  177.4980  145.8000 N   0  0  0  0  0  0  0  0  0  0  0  0
  186.0150  177.5920  139.2170 C   0  0  0  0  0  2  0  0  0  0  0  0
  186.4630  178.2640  137.9280 C   0  0  0  0  0  2  0  0  0  0  0  0
  186.9860  177.2280  136.9480 C   0  0  0  0  0  2  0  0  0  0  0  0
  185.8300  176.4220  136.3870 C   0  0  0  0  0  2  0  0  0  0  0  0
  186.3300  175.4040  135.3760 C   0  0  0  0  0  2  0  0  0  0  0  0
  186.7870  174.1210  136.0580 C   0  0  0  0  0  2  0  0  0  0  0  0
  185.8460  173.7310  137.1910 C   0  0  0  0  0  2  0  0  0  0  0  0
  185.5520  171.5660  135.9750 O   0  0  0  0  0  0  0  0  0  0  0  0
  183.8460  172.4250  137.2430 O   0  0  0  0  0  1  0  0  0  0  0  0
  185.0180  172.5510  136.7990 C   0  0  0  0  0  0  0  0  0  0  0  0
  184.2090  180.3780  139.2990 O   0  0  0  0  0  0  0  0  0  0  0  0
  183.0290  180.4850  138.5540 C   0  0  0  0  0  2  0  0  0  0  0  0
  182.7820  179.2890  137.8740 O   0  0  0  0  0  0  0  0  0  0  0  0
  181.5550  179.4530  137.3590 O   0  0  0  0  0  0  0  0  0  0  0  0
  180.9940  176.5340  135.1910 C   0  0  1  0  0  3  0  0  0  0  0  0
  179.2500  177.0650  135.1000 S   0  0  0  0  0  0  0  0  0  0  0  0
  181.0080  178.5180  136.4850 C   0  0  0  0  0  0  0  0  0  0  0  0
  179.6360  178.6470  135.9210 C   0  0  1  0  0  3  0  0  0  0  0  0
  181.6990  177.4590  136.1150 C   0  0  0  0  0  3  0  0  0  0  0  0
  179.6100  179.7590  134.9220 C   0  0  0  0  0  3  0  0  0  0  0  0
  180.3440  180.7230  135.0490 O   0  0  0  0  0  0  0  0  0  0  0  0
  181.1140  175.0820  135.6510 C   0  0  0  0  0  2  0  0  0  0  0  0
  179.7010  173.5060  136.6700 C   0  0  0  0  0  1  0  0  0  0  0  0
  180.2920  174.8210  136.8290 N   0  0  0  0  0  0  0  0  0  0  0  0
  181.1960  174.7420  137.9660 C   0  0  0  0  0  1  0  0  0  0  0  0
  2  1  2  0  0  0  0
  3 33  1  6  0  0  0
  3 12  1  0  0  0  0
  4 12  1  6  0  0  0
  4 14  1  0  0  0  0
  5 43  1  1  0  0  0
  5  3  1  0  0  0  0
  5  9  1  0  0  0  0
  6 10  1  0  0  0  0
  8 13  1  0  0  0  0
  9 10  1  6  0  0  0
  9  4  1  0  0  0  0
 10 11  2  0  0  0  0
 11  8  1  0  0  0  0
 13  7  2  0  0  0  0
 14 13  1  0  0  0  0
 14  2  2  0  0  0  0
 15 16  1  6  0  0  0
 15  1  1  0  0  0  0
 17 15  1  0  0  0  0
 18 17  1  6  0  0  0
 18 32  1  0  0  0  0
 21 20  2  6  0  0  0
 21 19  1  0  0  0  0
 21 18  1  0  0  0  0
 22 21  1  0  0  0  0
 23 22  1  0  0  0  0
 24 23  1  0  0  0  0
 25 24  1  0  0  0  0
 26 27  1  0  0  0  0
 27 29  1  0  0  0  0
 27 28  1  0  0  0  0
 28 25  1  1  0  0  0
 29 28  1  0  0  0  0
 31 30  1  0  0  0  0
 32 31  1  0  0  0  0
 32 30  1  0  0  0  0
 34 33  1  0  0  0  0
 35 34  1  0  0  0  0
 36 35  1  0  0  0  0
 37 38  1  0  0  0  0
 37 36  1  0  0  0  0
 38 39  1  0  0  0  0
 40 42  2  0  0  0  0
 42 39  1  0  0  0  0
 42 41  1  0  0  0  0
 44 43  1  0  0  0  0
 45 44  1  0  0  0  0
 46 45  1  0  0  0  0
 47 54  1  1  0  0  0
 47 51  1  0  0  0  0
 48 47  1  0  0  0  0
 48 50  1  0  0  0  0
 49 46  1  0  0  0  0
 50 52  1  6  0  0  0
 50 49  1  0  0  0  0
 51 49  2  0  0  0  0
 52 53  2  0  0  0  0
 54 56  1  0  0  0  0
 55 56  1  0  0  0  0
 56 57  1  0  0  0  0
M  END
>  <MODEL>
7

>  <REMARK>
 VINA RESULT:      -5.0      3.505      9.561
  Name = 
  26 active torsions:
  status: ('A' for Active; 'I' for Inactive)
    1  A    between atoms: C_2  and  C_40
    2  A    between atoms: O_4  and  O_7
    3  A    between atoms: O_4  and  C_31
    4  A    between atoms: N_5  and  C_48
    5  A    between atoms: O_7  and  C_29
    6  A    between atoms: C_8  and  C_10
    7  A    between atoms: C_8  and  C_32
    8  A    between atoms: C_9  and  C_28
    9  A    between atoms: C_10  and  C_27
   10  A    between atoms: C_11  and  P_45
   11  A    between atoms: C_11  and  N_46
   12  A    between atoms: C_11  and  C_49
   13  A    between atoms: C_15  and  C_48
   14  A    between atoms: C_17  and  C_26
   15  A    between atoms: C_17  and  C_36
   16  A    between atoms: O_18  and  C_26
   17  A    between atoms: O_18  and  P_45
   18  A    between atoms: C_21  and  C_32
   19  A    between atoms: C_24  and  O_30
   20  A    between atoms: C_27  and  C_52
   21  A    between atoms: C_28  and  C_49
   22  A    between atoms: C_29  and  O_30
   23  A    between atoms: C_36  and  C_44
   24  A    between atoms: C_41  and  C_42
   25  A    between atoms: C_42  and  C_43
   26  A    between atoms: C_43  and  C_52
                            x       y       z     vdW  Elec       q    Type
                         _______ _______ _______ _____ _____    ______ ____

>  <TORSDO>
F 26

$$$$
=
 OpenBabel11062417373D

 57 61  0  0  1  0  0  0  0  0999 V2000
  183.5920  177.0890  138.1860 C   0  0  0  0  0  3  0  0  0  0  0  0
  184.4360  176.4880  137.3940 C   0  0  0  0  0  0  0  0  0  0  0  0
  188.4990  177.1580  137.7320 C   0  0  1  0  0  3  0  0  0  0  0  0
  186.7260  176.4600  136.6390 C   0  0  2  0  0  3  0  0  0  0  0  0
  189.0530  176.1230  136.7660 C   0  0  1  0  0  3  0  0  0  0  0  0
  188.6410  173.3280  137.1480 C   0  0  0  0  0  1  0  0  0  0  0  0
  183.8050  175.4410  134.8290 N   0  0  0  0  0  2  0  0  0  0  0  0
  185.6260  173.9720  135.0430 N   0  0  0  0  0  2  0  0  0  0  0  0
  187.8240  175.5720  136.0700 C   0  0  1  0  0  3  0  0  0  0  0  0
  187.6330  174.0930  136.3510 C   0  0  0  0  0  0  0  0  0  0  0  0
  186.6830  173.4120  135.7830 N   0  0  0  0  0  0  0  0  0  0  0  0
  187.1340  176.8990  137.9060 O   0  0  0  0  0  0  0  0  0  0  0  0
  184.8900  175.1250  135.4610 C   0  0  0  0  0  0  0  0  0  0  0  0
  185.3260  175.9150  136.6240 C   0  0  0  0  0  0  0  0  0  0  0  0
  183.6330  178.5700  138.3220 C   0  0  2  0  0  3  0  0  0  0  0  0
  184.9440  179.0010  138.4550 F   0  0  0  0  0  0  0  0  0  0  0  0
  182.8350  178.9990  139.5380 C   0  0  0  0  0  2  0  0  0  0  0  0
  181.4450  179.4750  139.0900 C   0  0  1  0  0  3  0  0  0  0  0  0
  179.5410  180.0470  140.9620 O   0  0  0  0  0  0  0  0  0  0  0  0
  180.9270  177.8840  141.4090 O   0  0  0  0  0  1  0  0  0  0  0  0
  180.1850  178.8720  140.2580 P   0  0  2  0  0  0  0  0  0  0  0  0
  179.0170  177.9620  139.4320 O   0  0  0  0  0  0  0  0  0  0  0  0
  179.7210  177.0020  138.6990 C   0  0  0  0  0  2  0  0  0  0  0  0
  179.5120  177.2190  137.2050 C   0  0  0  0  0  2  0  0  0  0  0  0
  180.3500  176.2530  136.3760 C   0  0  0  0  0  2  0  0  0  0  0  0
  180.1230  172.6420  135.8900 C   0  0  0  0  0  1  0  0  0  0  0  0
  180.8260  173.9130  135.8970 N   0  0  0  0  0  0  0  0  0  0  0  0
  180.0340  174.8130  136.7480 C   0  0  1  0  0  3  0  0  0  0  0  0
  181.2260  174.1650  137.2890 C   0  0  0  0  0  2  0  0  0  0  0  0
  181.2510  181.2640  137.4150 C   0  0  0  0  0  2  0  0  0  0  0  0
  179.9890  181.1670  138.1520 C   0  0  0  0  0  2  0  0  0  0  0  0
  181.2630  180.9260  138.8510 N   0  0  0  0  0  0  0  0  0  0  0  0
  189.2170  177.1030  139.0720 C   0  0  0  0  0  2  0  0  0  0  0  0
  188.6620  178.1530  140.0230 C   0  0  0  0  0  2  0  0  0  0  0  0
  188.4910  177.5650  141.4140 C   0  0  0  0  0  2  0  0  0  0  0  0
  189.0960  178.5000  142.4440 C   0  0  0  0  0  2  0  0  0  0  0  0
  188.5490  178.1950  143.8280 C   0  0  0  0  0  2  0  0  0  0  0  0
  188.8350  176.7540  144.2340 C   0  0  0  0  0  2  0  0  0  0  0  0
  189.7830  176.6930  145.4250 C   0  0  0  0  0  2  0  0  0  0  0  0
  191.9730  175.7120  144.7240 O   0  0  0  0  0  0  0  0  0  0  0  0
  191.6850  177.9860  144.7800 O   0  0  0  0  0  1  0  0  0  0  0  0
  191.1990  176.8400  144.9730 C   0  0  0  0  0  0  0  0  0  0  0  0
  189.9050  176.7370  135.8430 O   0  0  0  0  0  0  0  0  0  0  0  0
  191.0150  175.8890  135.7500 C   0  0  0  0  0  2  0  0  0  0  0  0
  191.7210  175.8900  136.9560 O   0  0  0  0  0  0  0  0  0  0  0  0
  192.8910  176.4680  136.6500 O   0  0  0  0  0  0  0  0  0  0  0  0
  195.6510  174.0530  136.3650 C   0  0  1  0  0  3  0  0  0  0  0  0
  195.7350  174.5110  134.6010 S   0  0  0  0  0  0  0  0  0  0  0  0
  193.9730  175.7160  136.2010 C   0  0  0  0  0  0  0  0  0  0  0  0
  194.5790  175.8980  134.8540 C   0  0  1  0  0  3  0  0  0  0  0  0
  194.5130  174.7910  136.9700 C   0  0  0  0  0  3  0  0  0  0  0  0
  195.3240  177.1950  134.8140 C   0  0  0  0  0  3  0  0  0  0  0  0
  195.2200  177.9970  135.7260 O   0  0  0  0  0  0  0  0  0  0  0  0
  195.4990  172.5430  136.5450 C   0  0  0  0  0  2  0  0  0  0  0  0
  195.9100  170.9970  134.8240 C   0  0  0  0  0  1  0  0  0  0  0  0
  194.9220  171.9150  135.3590 N   0  0  0  0  0  0  0  0  0  0  0  0
  193.7990  171.1100  135.8110 C   0  0  0  0  0  1  0  0  0  0  0  0
  1 15  1  0  0  0  0
  2  1  2  0  0  0  0
  3 12  1  0  0  0  0
  3 33  1  1  0  0  0
  4 14  1  1  0  0  0
  4 12  1  0  0  0  0
  5 43  1  6  0  0  0
  5  3  1  0  0  0  0
  7 13  2  0  0  0  0
  8 13  1  0  0  0  0
  8 11  1  0  0  0  0
  9 10  1  1  0  0  0
  9  4  1  0  0  0  0
  9  5  1  0  0  0  0
 10  6  1  0  0  0  0
 11 10  2  0  0  0  0
 13 14  1  0  0  0  0
 14  2  2  0  0  0  0
 15 16  1  1  0  0  0
 15 17  1  0  0  0  0
 18 17  1  1  0  0  0
 18 21  1  0  0  0  0
 21 19  2  1  0  0  0
 21 20  1  0  0  0  0
 22 21  1  0  0  0  0
 23 22  1  0  0  0  0
 24 23  1  0  0  0  0
 25 24  1  0  0  0  0
 26 27  1  0  0  0  0
 27 28  1  0  0  0  0
 27 29  1  0  0  0  0
 28 25  1  6  0  0  0
 28 29  1  0  0  0  0
 30 31  1  0  0  0  0
 30 32  1  0  0  0  0
 31 32  1  0  0  0  0
 32 18  1  0  0  0  0
 33 34  1  0  0  0  0
 34 35  1  0  0  0  0
 35 36  1  0  0  0  0
 36 37  1  0  0  0  0
 37 38  1  0  0  0  0
 38 39  1  0  0  0  0
 40 42  2  0  0  0  0
 41 42  1  0  0  0  0
 42 39  1  0  0  0  0
 44 43  1  0  0  0  0
 44 45  1  0  0  0  0
 46 45  1  0  0  0  0
 47 54  1  6  0  0  0
 47 51  1  0  0  0  0
 48 50  1  0  0  0  0
 48 47  1  0  0  0  0
 49 46  1  0  0  0  0
 49 51  2  0  0  0  0
 50 52  1  1  0  0  0
 50 49  1  0  0  0  0
 52 53  2  0  0  0  0
 55 56  1  0  0  0  0
 56 57  1  0  0  0  0
 56 54  1  0  0  0  0
M  END
>  <MODEL>
8

>  <REMARK>
 VINA RESULT:      -4.9      3.619      6.675
  Name = 
  26 active torsions:
  status: ('A' for Active; 'I' for Inactive)
    1  A    between atoms: C_2  and  C_40
    2  A    between atoms: O_4  and  O_7
    3  A    between atoms: O_4  and  C_31
    4  A    between atoms: N_5  and  C_48
    5  A    between atoms: O_7  and  C_29
    6  A    between atoms: C_8  and  C_10
    7  A    between atoms: C_8  and  C_32
    8  A    between atoms: C_9  and  C_28
    9  A    between atoms: C_10  and  C_27
   10  A    between atoms: C_11  and  P_45
   11  A    between atoms: C_11  and  N_46
   12  A    between atoms: C_11  and  C_49
   13  A    between atoms: C_15  and  C_48
   14  A    between atoms: C_17  and  C_26
   15  A    between atoms: C_17  and  C_36
   16  A    between atoms: O_18  and  C_26
   17  A    between atoms: O_18  and  P_45
   18  A    between atoms: C_21  and  C_32
   19  A    between atoms: C_24  and  O_30
   20  A    between atoms: C_27  and  C_52
   21  A    between atoms: C_28  and  C_49
   22  A    between atoms: C_29  and  O_30
   23  A    between atoms: C_36  and  C_44
   24  A    between atoms: C_41  and  C_42
   25  A    between atoms: C_42  and  C_43
   26  A    between atoms: C_43  and  C_52
                            x       y       z     vdW  Elec       q    Type
                         _______ _______ _______ _____ _____    ______ ____

>  <TORSDO>
F 26

$$$$
=
 OpenBabel11062417373D

 57 61  0  0  1  0  0  0  0  0999 V2000
  187.5160  179.1260  142.0750 C   0  0  0  0  0  3  0  0  0  0  0  0
  188.5530  178.3600  141.8820 C   0  0  0  0  0  0  0  0  0  0  0  0
  189.3560  176.7890  138.1460 C   0  0  1  0  0  3  0  0  0  0  0  0
  189.5960  176.8380  140.3290 C   0  0  2  0  0  3  0  0  0  0  0  0
  190.7200  176.1570  138.3760 C   0  0  1  0  0  3  0  0  0  0  0  0
  192.9930  177.7020  139.1290 C   0  0  0  0  0  1  0  0  0  0  0  0
  189.8730  176.8600  143.9020 N   0  0  0  0  0  2  0  0  0  0  0  0
  191.8110  176.8820  142.5730 N   0  0  0  0  0  2  0  0  0  0  0  0
  190.9310  176.2670  139.8720 C   0  0  1  0  0  3  0  0  0  0  0  0
  192.1260  177.1400  140.2100 C   0  0  0  0  0  0  0  0  0  0  0  0
  192.5250  177.2980  141.4360 N   0  0  0  0  0  0  0  0  0  0  0  0
  189.0490  177.5710  139.2660 O   0  0  0  0  0  0  0  0  0  0  0  0
  190.4050  177.0830  142.7430 C   0  0  0  0  0  0  0  0  0  0  0  0
  189.5770  177.5840  141.6330 C   0  0  0  0  0  0  0  0  0  0  0  0
  186.1650  178.6600  141.6580 C   0  0  2  0  0  3  0  0  0  0  0  0
  185.3050  179.7410  141.5350 F   0  0  0  0  0  0  0  0  0  0  0  0
  185.6140  177.6900  142.6850 C   0  0  0  0  0  2  0  0  0  0  0  0
  185.6170  178.3600  144.0680 C   0  0  1  0  0  3  0  0  0  0  0  0
  184.2390  180.7030  144.3170 O   0  0  0  0  0  0  0  0  0  0  0  0
  183.4200  178.7630  145.8530 O   0  0  0  0  0  1  0  0  0  0  0  0
  184.0280  179.2050  144.3420 P   0  0  2  0  0  0  0  0  0  0  0  0
  182.9130  178.7430  143.1510 O   0  0  0  0  0  0  0  0  0  0  0  0
  181.6460  178.9670  143.6990 C   0  0  0  0  0  2  0  0  0  0  0  0
  180.6600  179.3630  142.6070 C   0  0  0  0  0  2  0  0  0  0  0  0
  179.8050  178.1790  142.1690 C   0  0  0  0  0  2  0  0  0  0  0  0
  180.6100  175.7900  139.5280 C   0  0  0  0  0  1  0  0  0  0  0  0
  179.7730  176.3270  140.5880 N   0  0  0  0  0  0  0  0  0  0  0  0
  180.1940  177.7240  140.7710 C   0  0  1  0  0  3  0  0  0  0  0  0
  178.9950  177.4240  139.9940 C   0  0  0  0  0  2  0  0  0  0  0  0
  187.4030  177.3020  145.3850 C   0  0  0  0  0  2  0  0  0  0  0  0
  186.7200  178.2920  146.2220 C   0  0  0  0  0  2  0  0  0  0  0  0
  185.9510  177.5130  145.2370 N   0  0  0  0  0  0  0  0  0  0  0  0
  189.3500  177.6490  136.8900 C   0  0  0  0  0  2  0  0  0  0  0  0
  188.2110  177.2450  135.9670 C   0  0  0  0  0  2  0  0  0  0  0  0
  188.2210  175.7420  135.7450 C   0  0  0  0  0  2  0  0  0  0  0  0
  186.9100  175.3070  135.1190 C   0  0  0  0  0  2  0  0  0  0  0  0
  185.9800  174.7310  136.1750 C   0  0  0  0  0  2  0  0  0  0  0  0
  185.4450  173.3660  135.7610 C   0  0  0  0  0  2  0  0  0  0  0  0
  184.5760  172.7580  136.8550 C   0  0  0  0  0  2  0  0  0  0  0  0
  183.6950  174.7120  138.1420 O   0  0  0  0  0  1  0  0  0  0  0  0
  182.3410  173.5820  136.6760 O   0  0  0  0  0  0  0  0  0  0  0  0
  183.4700  173.6920  137.2230 C   0  0  0  0  0  0  0  0  0  0  0  0
  190.6980  174.8160  137.9820 O   0  0  0  0  0  0  0  0  0  0  0  0
  192.0110  174.5270  137.5930 C   0  0  0  0  0  2  0  0  0  0  0  0
  192.0820  174.4000  136.2020 O   0  0  0  0  0  0  0  0  0  0  0  0
  192.6730  173.2120  136.0130 O   0  0  0  0  0  0  0  0  0  0  0  0
  196.3190  173.6570  136.2240 C   0  0  1  0  0  3  0  0  0  0  0  0
  196.3380  172.1640  137.2720 S   0  0  0  0  0  0  0  0  0  0  0  0
  194.0340  173.0350  136.2490 C   0  0  0  0  0  0  0  0  0  0  0  0
  194.5880  171.8150  136.8950 C   0  0  1  0  0  3  0  0  0  0  0  0
  194.9010  173.9650  135.9020 C   0  0  0  0  0  3  0  0  0  0  0  0
  194.4920  170.6620  135.9490 C   0  0  0  0  0  3  0  0  0  0  0  0
  195.4900  170.2270  135.3980 O   0  0  0  0  0  0  0  0  0  0  0  0
  197.0050  174.8350  136.9130 C   0  0  0  0  0  2  0  0  0  0  0  0
  198.9240  174.3210  135.6570 C   0  0  0  0  0  1  0  0  0  0  0  0
  198.0590  175.4070  136.0790 N   0  0  0  0  0  0  0  0  0  0  0  0
  197.4170  175.9240  134.8820 C   0  0  0  0  0  1  0  0  0  0  0  0
  2  1  2  0  0  0  0
  3 33  1  6  0  0  0
  3  5  1  0  0  0  0
  3 12  1  0  0  0  0
  4 12  1  6  0  0  0
  4 14  1  0  0  0  0
  5 43  1  1  0  0  0
  5  9  1  0  0  0  0
  6 10  1  0  0  0  0
  8 13  1  0  0  0  0
  9 10  1  6  0  0  0
  9  4  1  0  0  0  0
 10 11  2  0  0  0  0
 11  8  1  0  0  0  0
 13  7  2  0  0  0  0
 14  2  2  0  0  0  0
 14 13  1  0  0  0  0
 15 16  1  1  0  0  0
 15  1  1  0  0  0  0
 15 17  1  0  0  0  0
 18 17  1  6  0  0  0
 18 21  1  0  0  0  0
 18 32  1  0  0  0  0
 21 19  2  6  0  0  0
 21 20  1  0  0  0  0
 22 23  1  0  0  0  0
 22 21  1  0  0  0  0
 24 23  1  0  0  0  0
 25 24  1  0  0  0  0
 26 27  1  0  0  0  0
 27 28  1  0  0  0  0
 28 25  1  1  0  0  0
 29 27  1  0  0  0  0
 29 28  1  0  0  0  0
 30 31  1  0  0  0  0
 32 30  1  0  0  0  0
 32 31  1  0  0  0  0
 34 33  1  0  0  0  0
 35 34  1  0  0  0  0
 36 35  1  0  0  0  0
 36 37  1  0  0  0  0
 38 37  1  0  0  0  0
 38 39  1  0  0  0  0
 39 42  1  0  0  0  0
 41 42  2  0  0  0  0
 42 40  1  0  0  0  0
 44 43  1  0  0  0  0
 45 44  1  0  0  0  0
 46 45  1  0  0  0  0
 46 49  1  0  0  0  0
 47 54  1  1  0  0  0
 47 48  1  0  0  0  0
 49 50  1  0  0  0  0
 50 52  1  6  0  0  0
 50 48  1  0  0  0  0
 51 47  1  0  0  0  0
 51 49  2  0  0  0  0
 53 52  2  0  0  0  0
 55 56  1  0  0  0  0
 56 54  1  0  0  0  0
 57 56  1  0  0  0  0
M  END
>  <MODEL>
9

>  <REMARK>
 VINA RESULT:      -4.9      2.599      4.122
  Name = 
  26 active torsions:
  status: ('A' for Active; 'I' for Inactive)
    1  A    between atoms: C_2  and  C_40
    2  A    between atoms: O_4  and  O_7
    3  A    between atoms: O_4  and  C_31
    4  A    between atoms: N_5  and  C_48
    5  A    between atoms: O_7  and  C_29
    6  A    between atoms: C_8  and  C_10
    7  A    between atoms: C_8  and  C_32
    8  A    between atoms: C_9  and  C_28
    9  A    between atoms: C_10  and  C_27
   10  A    between atoms: C_11  and  P_45
   11  A    between atoms: C_11  and  N_46
   12  A    between atoms: C_11  and  C_49
   13  A    between atoms: C_15  and  C_48
   14  A    between atoms: C_17  and  C_26
   15  A    between atoms: C_17  and  C_36
   16  A    between atoms: O_18  and  C_26
   17  A    between atoms: O_18  and  P_45
   18  A    between atoms: C_21  and  C_32
   19  A    between atoms: C_24  and  O_30
   20  A    between atoms: C_27  and  C_52
   21  A    between atoms: C_28  and  C_49
   22  A    between atoms: C_29  and  O_30
   23  A    between atoms: C_36  and  C_44
   24  A    between atoms: C_41  and  C_42
   25  A    between atoms: C_42  and  C_43
   26  A    between atoms: C_43  and  C_52
                            x       y       z     vdW  Elec       q    Type
                         _______ _______ _______ _____ _____    ______ ____

>  <TORSDO>
F 26

$$$$
