=
 OpenBabel11062417163D

 26 29  0  0  1  0  0  0  0  0999 V2000
  187.4630  177.6020  147.3260 C   0  0  0  0  0  2  0  0  0  0  0  0
  189.4870  178.1220  148.6600 C   0  0  0  0  0  1  0  0  0  0  0  0
  188.7750  178.0360  145.3020 C   0  0  0  0  0  2  0  0  0  0  0  0
  191.5540  176.3070  146.9340 O   0  0  0  0  0  0  0  0  0  0  0  0
  190.9030  176.9130  146.0380 C   0  0  0  0  0  0  0  0  0  0  0  0
  189.6050  177.4420  146.3270 N   0  0  0  0  0  0  0  0  0  0  0  0
  188.9110  177.2210  147.5820 C   0  0  2  0  0  3  0  0  0  0  0  0
  187.4160  178.2600  145.9490 C   0  0  1  0  0  3  0  0  0  0  0  0
  184.7800  179.2480  143.7490 N   0  0  0  0  0  0  0  0  0  0  0  0
  184.4910  178.9990  146.0450 O   0  0  0  0  0  0  0  0  0  0  0  0
  185.3480  178.8630  142.6480 C   0  0  0  0  0  0  0  0  0  0  0  0
  185.1310  178.6730  145.0120 C   0  0  0  0  0  0  0  0  0  0  0  0
  186.7450  177.2600  143.7840 N   0  0  0  0  0  0  0  0  0  0  0  0
  184.9650  179.4530  141.4120 N   0  0  0  0  0  1  0  0  0  0  0  0
  186.3530  177.7900  142.6640 C   0  0  0  0  0  3  0  0  0  0  0  0
  186.2700  177.6880  145.1090 C   0  0  1  0  0  3  0  0  0  0  0  0
  191.4340  177.0570  144.7560 O   0  0  0  0  0  0  0  0  0  0  0  0
  191.5700  175.9580  143.8660 C   0  0  0  0  0  2  0  0  0  0  0  0
  190.3880  175.9160  142.9080 C   0  0  0  0  0  2  0  0  0  0  0  0
  189.6120  177.7870  141.3850 C   0  0  0  0  0  2  0  0  0  0  0  0
  191.9250  177.3270  141.6100 O   0  0  0  0  0  0  0  0  0  0  0  0
  189.7870  178.0240  140.0080 O   0  0  0  0  0  0  0  0  0  0  0  0
  190.5400  175.9740  140.4820 O   0  0  0  0  0  0  0  0  0  0  0  0
  192.0930  177.5520  140.2300 C   0  0  0  0  0  2  0  0  0  0  0  0
  190.6490  176.7220  141.6380 C   0  0  1  0  0  0  0  0  0  0  0  0
  190.7720  177.0650  139.6600 C   0  0  2  0  0  3  0  0  0  0  0  0
  1  7  1  0  0  0  0
  3  6  1  0  0  0  0
  5  6  1  0  0  0  0
  5  4  2  0  0  0  0
  6  7  1  0  0  0  0
  7  2  1  1  0  0  0
  8  3  1  6  0  0  0
  8  1  1  0  0  0  0
  9 12  1  0  0  0  0
 11 15  1  0  0  0  0
 11  9  2  0  0  0  0
 12 16  1  0  0  0  0
 12 10  2  0  0  0  0
 14 11  1  0  0  0  0
 15 13  2  0  0  0  0
 16 13  1  6  0  0  0
 16  8  1  0  0  0  0
 17  5  1  0  0  0  0
 18 17  1  0  0  0  0
 19 18  1  0  0  0  0
 20 25  1  0  0  0  0
 21 25  1  0  0  0  0
 22 20  1  0  0  0  0
 23 25  1  0  0  0  0
 24 21  1  0  0  0  0
 25 19  1  1  0  0  0
 26 22  1  0  0  0  0
 26 24  1  1  0  0  0
 26 23  1  0  0  0  0
M  END
>  <MODEL>
1

>  <REMARK>
 VINA RESULT:      -8.5      0.000      0.000
  Name = 
  5 active torsions:
  status: ('A' for Active; 'I' for Inactive)
    1  A    between atoms: C_12  and  C_14
    2  A    between atoms: C_12  and  C_18
    3  A    between atoms: C_14  and  O_24
    4  A    between atoms: C_17  and  O_24
    5  A    between atoms: C_23  and  C_26
                            x       y       z     vdW  Elec       q    Type
                         _______ _______ _______ _____ _____    ______ ____

>  <TORSDO>
F 5

$$$$
=
 OpenBabel11062417163D

 26 29  0  0  1  0  0  0  0  0999 V2000
  190.9400  177.4800  145.1540 C   0  0  0  0  0  2  0  0  0  0  0  0
  190.5160  176.3900  147.3410 C   0  0  0  0  0  1  0  0  0  0  0  0
  188.5560  177.2210  144.6470 C   0  0  0  0  0  2  0  0  0  0  0  0
  187.8890  178.1280  148.1260 O   0  0  0  0  0  0  0  0  0  0  0  0
  187.6650  177.8170  146.9240 C   0  0  0  0  0  0  0  0  0  0  0  0
  188.7510  177.4660  146.0600 N   0  0  0  0  0  0  0  0  0  0  0  0
  190.1460  177.5600  146.4460 C   0  0  2  0  0  3  0  0  0  0  0  0
  189.9520  177.1090  144.0510 C   0  0  1  0  0  3  0  0  0  0  0  0
  190.4960  176.9780  140.5230 N   0  0  0  0  0  0  0  0  0  0  0  0
  192.2290  177.1120  142.0700 O   0  0  0  0  0  0  0  0  0  0  0  0
  189.2890  177.2950  140.1690 C   0  0  0  0  0  0  0  0  0  0  0  0
  191.0230  177.3490  141.8010 C   0  0  0  0  0  0  0  0  0  0  0  0
  188.8380  178.4090  142.2600 N   0  0  0  0  0  0  0  0  0  0  0  0
  188.8050  176.9170  138.8880 N   0  0  0  0  0  1  0  0  0  0  0  0
  188.4320  178.0810  141.0700 C   0  0  0  0  0  3  0  0  0  0  0  0
  190.1370  178.0100  142.8260 C   0  0  1  0  0  3  0  0  0  0  0  0
  186.3640  177.8310  146.4220 O   0  0  0  0  0  0  0  0  0  0  0  0
  185.6790  179.0400  146.1290 C   0  0  0  0  0  2  0  0  0  0  0  0
  184.3190  178.7320  145.5180 C   0  0  0  0  0  2  0  0  0  0  0  0
  182.9580  178.8710  143.3850 C   0  0  0  0  0  2  0  0  0  0  0  0
  185.0640  179.9470  143.5160 O   0  0  0  0  0  0  0  0  0  0  0  0
  183.2310  178.4850  142.0580 O   0  0  0  0  0  0  0  0  0  0  0  0
  184.8650  177.7190  143.3760 O   0  0  0  0  0  0  0  0  0  0  0  0
  185.3380  179.5480  142.1940 C   0  0  0  0  0  2  0  0  0  0  0  0
  184.3360  178.8350  143.9950 C   0  0  1  0  0  0  0  0  0  0  0  0
  184.6210  178.2120  142.1050 C   0  0  2  0  0  3  0  0  0  0  0  0
  1  7  1  0  0  0  0
  3  6  1  0  0  0  0
  5  4  2  0  0  0  0
  6  7  1  0  0  0  0
  6  5  1  0  0  0  0
  7  2  1  1  0  0  0
  8  3  1  1  0  0  0
  8  1  1  0  0  0  0
  9 12  1  0  0  0  0
 11  9  2  0  0  0  0
 11 15  1  0  0  0  0
 12 10  2  0  0  0  0
 13 16  1  0  0  0  0
 14 11  1  0  0  0  0
 15 13  2  0  0  0  0
 16 12  1  6  0  0  0
 16  8  1  0  0  0  0
 17  5  1  0  0  0  0
 18 17  1  0  0  0  0
 19 18  1  0  0  0  0
 20 25  1  0  0  0  0
 21 25  1  0  0  0  0
 22 26  1  0  0  0  0
 22 20  1  0  0  0  0
 23 25  1  0  0  0  0
 24 21  1  0  0  0  0
 25 19  1  1  0  0  0
 26 24  1  1  0  0  0
 26 23  1  0  0  0  0
M  END
>  <MODEL>
2

>  <REMARK>
 VINA RESULT:      -8.0      2.361      5.570
  Name = 
  5 active torsions:
  status: ('A' for Active; 'I' for Inactive)
    1  A    between atoms: C_12  and  C_14
    2  A    between atoms: C_12  and  C_18
    3  A    between atoms: C_14  and  O_24
    4  A    between atoms: C_17  and  O_24
    5  A    between atoms: C_23  and  C_26
                            x       y       z     vdW  Elec       q    Type
                         _______ _______ _______ _____ _____    ______ ____

>  <TORSDO>
F 5

$$$$
=
 OpenBabel11062417163D

 26 29  0  0  1  0  0  0  0  0999 V2000
  186.7210  178.6440  146.7900 C   0  0  0  0  0  2  0  0  0  0  0  0
  184.3220  178.2460  146.3080 C   0  0  0  0  0  1  0  0  0  0  0  0
  187.2550  177.5310  144.6720 C   0  0  0  0  0  2  0  0  0  0  0  0
  184.3800  179.2690  143.2270 O   0  0  0  0  0  0  0  0  0  0  0  0
  185.4040  178.5350  143.2940 C   0  0  0  0  0  0  0  0  0  0  0  0
  186.0140  178.2660  144.5600 N   0  0  0  0  0  0  0  0  0  0  0  0
  185.5970  178.8950  145.8000 C   0  0  2  0  0  3  0  0  0  0  0  0
  187.6800  177.6570  146.1280 C   0  0  1  0  0  3  0  0  0  0  0  0
  190.7800  176.7660  147.6630 N   0  0  0  0  0  0  0  0  0  0  0  0
  189.2240  178.1730  148.6700 O   0  0  0  0  0  0  0  0  0  0  0  0
  191.3670  176.3380  146.5880 C   0  0  0  0  0  0  0  0  0  0  0  0
  189.7020  177.7050  147.6040 C   0  0  0  0  0  0  0  0  0  0  0  0
  189.9540  177.6580  145.1460 N   0  0  0  0  0  0  0  0  0  0  0  0
  192.4400  175.4120  146.6880 N   0  0  0  0  0  1  0  0  0  0  0  0
  190.9560  176.8380  145.2670 C   0  0  0  0  0  3  0  0  0  0  0  0
  189.1320  178.1250  146.2720 C   0  0  1  0  0  3  0  0  0  0  0  0
  185.9610  177.9930  142.1340 O   0  0  0  0  0  0  0  0  0  0  0  0
  186.4680  178.8080  141.0870 C   0  0  0  0  0  2  0  0  0  0  0  0
  187.9200  178.4480  140.8060 C   0  0  0  0  0  2  0  0  0  0  0  0
  188.9510  176.9920  139.0070 C   0  0  0  0  0  2  0  0  0  0  0  0
  187.0120  178.2650  138.5300 O   0  0  0  0  0  0  0  0  0  0  0  0
  189.4650  177.2840  137.7280 O   0  0  0  0  0  0  0  0  0  0  0  0
  189.0300  179.2070  138.7800 O   0  0  0  0  0  0  0  0  0  0  0  0
  187.5350  178.5650  137.2580 C   0  0  0  0  0  2  0  0  0  0  0  0
  188.1860  178.2540  139.3160 C   0  0  1  0  0  0  0  0  0  0  0  0
  189.0290  178.6180  137.5270 C   0  0  2  0  0  3  0  0  0  0  0  0
  4  5  2  0  0  0  0
  5  6  1  0  0  0  0
  6  3  1  0  0  0  0
  6  7  1  0  0  0  0
  7  2  1  1  0  0  0
  7  1  1  0  0  0  0
  8  3  1  6  0  0  0
  8 16  1  0  0  0  0
  8  1  1  0  0  0  0
 11 14  1  0  0  0  0
 11  9  2  0  0  0  0
 12  9  1  0  0  0  0
 12 10  2  0  0  0  0
 13 15  2  0  0  0  0
 15 11  1  0  0  0  0
 16 13  1  6  0  0  0
 16 12  1  0  0  0  0
 17  5  1  0  0  0  0
 18 17  1  0  0  0  0
 19 18  1  0  0  0  0
 20 25  1  0  0  0  0
 21 25  1  0  0  0  0
 22 20  1  0  0  0  0
 23 25  1  0  0  0  0
 24 21  1  0  0  0  0
 25 19  1  1  0  0  0
 26 24  1  1  0  0  0
 26 22  1  0  0  0  0
 26 23  1  0  0  0  0
M  END
>  <MODEL>
3

>  <REMARK>
 VINA RESULT:      -7.9      2.350      5.278
  Name = 
  5 active torsions:
  status: ('A' for Active; 'I' for Inactive)
    1  A    between atoms: C_12  and  C_14
    2  A    between atoms: C_12  and  C_18
    3  A    between atoms: C_14  and  O_24
    4  A    between atoms: C_17  and  O_24
    5  A    between atoms: C_23  and  C_26
                            x       y       z     vdW  Elec       q    Type
                         _______ _______ _______ _____ _____    ______ ____

>  <TORSDO>
F 5

$$$$
=
 OpenBabel11062417163D

 26 29  0  0  1  0  0  0  0  0999 V2000
  189.3560  177.9460  145.5270 C   0  0  0  0  0  2  0  0  0  0  0  0
  188.0040  177.1820  147.4590 C   0  0  0  0  0  1  0  0  0  0  0  0
  187.4390  177.4460  144.0830 C   0  0  0  0  0  2  0  0  0  0  0  0
  185.3100  178.8330  146.7130 O   0  0  0  0  0  0  0  0  0  0  0  0
  185.6380  178.3250  145.6050 C   0  0  0  0  0  0  0  0  0  0  0  0
  186.9920  177.9200  145.3750 N   0  0  0  0  0  0  0  0  0  0  0  0
  188.0730  178.1700  146.3090 C   0  0  2  0  0  3  0  0  0  0  0  0
  188.9540  177.3400  144.1840 C   0  0  1  0  0  3  0  0  0  0  0  0
  190.5980  176.7000  141.0780 N   0  0  0  0  0  0  0  0  0  0  0  0
  191.7270  176.8240  143.1090 O   0  0  0  0  0  0  0  0  0  0  0  0
  189.6370  177.1090  140.3080 C   0  0  0  0  0  0  0  0  0  0  0  0
  190.7270  177.1650  142.4250 C   0  0  0  0  0  0  0  0  0  0  0  0
  188.7030  178.5240  142.0230 N   0  0  0  0  0  0  0  0  0  0  0  0
  189.5480  176.6310  138.9730 N   0  0  0  0  0  1  0  0  0  0  0  0
  188.6640  178.0980  140.7950 C   0  0  0  0  0  3  0  0  0  0  0  0
  189.6660  178.0500  143.0290 C   0  0  1  0  0  3  0  0  0  0  0  0
  184.6920  178.1700  144.5920 O   0  0  0  0  0  0  0  0  0  0  0  0
  184.2790  179.2530  143.7710 C   0  0  0  0  0  2  0  0  0  0  0  0
  183.1830  178.7940  142.8190 C   0  0  0  0  0  2  0  0  0  0  0  0
  185.0950  179.1730  141.2010 C   0  0  0  0  0  2  0  0  0  0  0  0
  183.5660  177.4020  140.8310 O   0  0  0  0  0  0  0  0  0  0  0  0
  185.1290  179.4400  139.8180 O   0  0  0  0  0  0  0  0  0  0  0  0
  183.0090  179.5490  140.5150 O   0  0  0  0  0  0  0  0  0  0  0  0
  183.5940  177.6810  139.4520 C   0  0  0  0  0  2  0  0  0  0  0  0
  183.6740  178.7010  141.3770 C   0  0  1  0  0  0  0  0  0  0  0  0
  183.7890  179.1870  139.4300 C   0  0  2  0  0  3  0  0  0  0  0  0
  1  7  1  0  0  0  0
  3  6  1  0  0  0  0
  5  4  2  0  0  0  0
  6  5  1  0  0  0  0
  6  7  1  0  0  0  0
  7  2  1  1  0  0  0
  8  3  1  6  0  0  0
  8  1  1  0  0  0  0
  9 12  1  0  0  0  0
 11 15  1  0  0  0  0
 11  9  2  0  0  0  0
 12 16  1  0  0  0  0
 12 10  2  0  0  0  0
 14 11  1  0  0  0  0
 15 13  2  0  0  0  0
 16 13  1  6  0  0  0
 16  8  1  0  0  0  0
 17  5  1  0  0  0  0
 18 17  1  0  0  0  0
 19 18  1  0  0  0  0
 20 25  1  0  0  0  0
 21 25  1  0  0  0  0
 22 20  1  0  0  0  0
 23 25  1  0  0  0  0
 24 21  1  0  0  0  0
 25 19  1  1  0  0  0
 26 24  1  1  0  0  0
 26 22  1  0  0  0  0
 26 23  1  0  0  0  0
M  END
>  <MODEL>
4

>  <REMARK>
 VINA RESULT:      -7.7      2.868      5.859
  Name = 
  5 active torsions:
  status: ('A' for Active; 'I' for Inactive)
    1  A    between atoms: C_12  and  C_14
    2  A    between atoms: C_12  and  C_18
    3  A    between atoms: C_14  and  O_24
    4  A    between atoms: C_17  and  O_24
    5  A    between atoms: C_23  and  C_26
                            x       y       z     vdW  Elec       q    Type
                         _______ _______ _______ _____ _____    ______ ____

>  <TORSDO>
F 5

$$$$
=
 OpenBabel11062417163D

 26 29  0  0  1  0  0  0  0  0999 V2000
  189.2110  177.8990  145.5090 C   0  0  0  0  0  2  0  0  0  0  0  0
  187.8200  177.1500  147.4210 C   0  0  0  0  0  1  0  0  0  0  0  0
  187.2920  177.4760  144.0440 C   0  0  0  0  0  2  0  0  0  0  0  0
  185.1830  178.8900  146.6750 O   0  0  0  0  0  0  0  0  0  0  0  0
  185.5050  178.3880  145.5640 C   0  0  0  0  0  0  0  0  0  0  0  0
  186.8480  177.9460  145.3380 N   0  0  0  0  0  0  0  0  0  0  0  0
  187.9280  178.1510  146.2840 C   0  0  2  0  0  3  0  0  0  0  0  0
  188.8020  177.3240  144.1560 C   0  0  1  0  0  3  0  0  0  0  0  0
  190.4490  176.6780  141.0520 N   0  0  0  0  0  0  0  0  0  0  0  0
  191.5650  176.7380  143.0930 O   0  0  0  0  0  0  0  0  0  0  0  0
  189.5070  177.1280  140.2820 C   0  0  0  0  0  0  0  0  0  0  0  0
  190.5820  177.1200  142.4060 C   0  0  0  0  0  0  0  0  0  0  0  0
  188.6040  178.5470  142.0100 N   0  0  0  0  0  0  0  0  0  0  0  0
  189.4130  176.6720  138.9390 N   0  0  0  0  0  1  0  0  0  0  0  0
  188.5610  178.1400  140.7760 C   0  0  0  0  0  3  0  0  0  0  0  0
  189.5440  178.0290  143.0150 C   0  0  1  0  0  3  0  0  0  0  0  0
  184.5630  178.2740  144.5410 O   0  0  0  0  0  0  0  0  0  0  0  0
  183.3360  178.9890  144.5600 C   0  0  0  0  0  2  0  0  0  0  0  0
  182.7790  179.1020  143.1480 C   0  0  0  0  0  2  0  0  0  0  0  0
  180.6890  178.4960  141.8500 C   0  0  0  0  0  2  0  0  0  0  0  0
  180.6940  178.3580  144.2150 O   0  0  0  0  0  0  0  0  0  0  0  0
  179.3750  179.0030  141.8760 O   0  0  0  0  0  0  0  0  0  0  0  0
  180.6740  180.3190  143.1310 O   0  0  0  0  0  0  0  0  0  0  0  0
  179.3860  178.8770  144.2370 C   0  0  0  0  0  2  0  0  0  0  0  0
  181.2530  179.0650  143.1270 C   0  0  1  0  0  0  0  0  0  0  0  0
  179.3890  179.8120  143.0400 C   0  0  2  0  0  3  0  0  0  0  0  0
  1  7  1  0  0  0  0
  3  6  1  0  0  0  0
  5  4  2  0  0  0  0
  6  5  1  0  0  0  0
  6  7  1  0  0  0  0
  7  2  1  1  0  0  0
  8  3  1  6  0  0  0
  8  1  1  0  0  0  0
  9 12  1  0  0  0  0
 11 15  1  0  0  0  0
 11  9  2  0  0  0  0
 12 16  1  0  0  0  0
 12 10  2  0  0  0  0
 14 11  1  0  0  0  0
 15 13  2  0  0  0  0
 16 13  1  6  0  0  0
 16  8  1  0  0  0  0
 17 18  1  0  0  0  0
 17  5  1  0  0  0  0
 19 18  1  0  0  0  0
 20 22  1  0  0  0  0
 20 25  1  0  0  0  0
 21 24  1  0  0  0  0
 22 26  1  0  0  0  0
 25 23  1  0  0  0  0
 25 19  1  1  0  0  0
 25 21  1  0  0  0  0
 26 23  1  0  0  0  0
 26 24  1  1  0  0  0
M  END
>  <MODEL>
5

>  <REMARK>
 VINA RESULT:      -7.6      3.334      7.395
  Name = 
  5 active torsions:
  status: ('A' for Active; 'I' for Inactive)
    1  A    between atoms: C_12  and  C_14
    2  A    between atoms: C_12  and  C_18
    3  A    between atoms: C_14  and  O_24
    4  A    between atoms: C_17  and  O_24
    5  A    between atoms: C_23  and  C_26
                            x       y       z     vdW  Elec       q    Type
                         _______ _______ _______ _____ _____    ______ ____

>  <TORSDO>
F 5

$$$$
=
 OpenBabel11062417163D

 26 29  0  0  1  0  0  0  0  0999 V2000
  188.8280  177.2320  146.2980 C   0  0  0  0  0  2  0  0  0  0  0  0
  191.2900  177.4240  146.0730 C   0  0  0  0  0  1  0  0  0  0  0  0
  188.6590  177.5020  143.8680 C   0  0  0  0  0  2  0  0  0  0  0  0
  191.6050  175.3530  143.5920 O   0  0  0  0  0  0  0  0  0  0  0  0
  190.6250  176.0640  143.2360 C   0  0  0  0  0  0  0  0  0  0  0  0
  189.8600  176.7740  144.2150 N   0  0  0  0  0  0  0  0  0  0  0  0
  190.0640  176.6370  145.6450 C   0  0  2  0  0  3  0  0  0  0  0  0
  188.0280  177.9130  145.1910 C   0  0  1  0  0  3  0  0  0  0  0  0
  184.7850  179.3290  145.6780 N   0  0  0  0  0  0  0  0  0  0  0  0
  186.0790  178.4920  147.4210 O   0  0  0  0  0  0  0  0  0  0  0  0
  184.3990  179.2590  144.4410 C   0  0  0  0  0  0  0  0  0  0  0  0
  185.8010  178.4640  146.1940 C   0  0  0  0  0  0  0  0  0  0  0  0
  185.9380  177.4740  143.9340 N   0  0  0  0  0  0  0  0  0  0  0  0
  183.3800  180.1300  143.9670 N   0  0  0  0  0  1  0  0  0  0  0  0
  184.9810  178.2570  143.5350 C   0  0  0  0  0  3  0  0  0  0  0  0
  186.5460  177.5320  145.2730 C   0  0  1  0  0  3  0  0  0  0  0  0
  190.2670  176.1490  141.8900 O   0  0  0  0  0  0  0  0  0  0  0  0
  190.8210  177.1260  141.0210 C   0  0  0  0  0  2  0  0  0  0  0  0
  190.5490  176.7460  139.5720 C   0  0  0  0  0  2  0  0  0  0  0  0
  188.6770  178.4030  139.9870 C   0  0  0  0  0  2  0  0  0  0  0  0
  189.7860  178.3700  137.8930 O   0  0  0  0  0  0  0  0  0  0  0  0
  187.4470  178.6270  139.3390 O   0  0  0  0  0  0  0  0  0  0  0  0
  188.3580  176.7590  138.5170 O   0  0  0  0  0  0  0  0  0  0  0  0
  188.5510  178.5810  137.2490 C   0  0  0  0  0  2  0  0  0  0  0  0
  189.3950  177.5480  138.9740 C   0  0  1  0  0  0  0  0  0  0  0  0
  187.5820  177.8490  138.1610 C   0  0  2  0  0  3  0  0  0  0  0  0
  3  6  1  0  0  0  0
  5  4  2  0  0  0  0
  5  6  1  0  0  0  0
  6  7  1  0  0  0  0
  7  2  1  1  0  0  0
  7  1  1  0  0  0  0
  8  3  1  6  0  0  0
  8 16  1  0  0  0  0
  8  1  1  0  0  0  0
  9 12  1  0  0  0  0
 11  9  2  0  0  0  0
 12 10  2  0  0  0  0
 14 11  1  0  0  0  0
 15 13  2  0  0  0  0
 15 11  1  0  0  0  0
 16 13  1  6  0  0  0
 16 12  1  0  0  0  0
 17  5  1  0  0  0  0
 18 17  1  0  0  0  0
 19 18  1  0  0  0  0
 21 25  1  0  0  0  0
 22 20  1  0  0  0  0
 23 25  1  0  0  0  0
 24 21  1  0  0  0  0
 25 19  1  1  0  0  0
 25 20  1  0  0  0  0
 26 24  1  6  0  0  0
 26 23  1  0  0  0  0
 26 22  1  0  0  0  0
M  END
>  <MODEL>
6

>  <REMARK>
 VINA RESULT:      -7.5      1.789      2.711
  Name = 
  5 active torsions:
  status: ('A' for Active; 'I' for Inactive)
    1  A    between atoms: C_12  and  C_14
    2  A    between atoms: C_12  and  C_18
    3  A    between atoms: C_14  and  O_24
    4  A    between atoms: C_17  and  O_24
    5  A    between atoms: C_23  and  C_26
                            x       y       z     vdW  Elec       q    Type
                         _______ _______ _______ _____ _____    ______ ____

>  <TORSDO>
F 5

$$$$
=
 OpenBabel11062417163D

 26 29  0  0  1  0  0  0  0  0999 V2000
  186.6320  178.3960  144.8460 C   0  0  0  0  0  2  0  0  0  0  0  0
  184.9590  177.8780  143.0910 C   0  0  0  0  0  1  0  0  0  0  0  0
  188.3020  177.2090  143.5000 C   0  0  0  0  0  2  0  0  0  0  0  0
  186.7860  178.7600  140.5560 O   0  0  0  0  0  0  0  0  0  0  0  0
  187.5870  178.0710  141.2470 C   0  0  0  0  0  0  0  0  0  0  0  0
  187.3510  177.8870  142.6470 N   0  0  0  0  0  0  0  0  0  0  0  0
  186.2890  178.5540  143.3750 C   0  0  2  0  0  3  0  0  0  0  0  0
  187.8030  177.4200  144.9230 C   0  0  1  0  0  3  0  0  0  0  0  0
  190.1440  176.3600  147.4050 N   0  0  0  0  0  0  0  0  0  0  0  0
  188.0080  177.1260  147.9200 O   0  0  0  0  0  0  0  0  0  0  0  0
  191.2010  176.4220  146.6560 C   0  0  0  0  0  0  0  0  0  0  0  0
  188.9770  177.1360  147.1170 C   0  0  0  0  0  0  0  0  0  0  0  0
  190.1950  178.0220  145.1580 N   0  0  0  0  0  0  0  0  0  0  0  0
  192.3450  175.6430  146.9810 N   0  0  0  0  0  1  0  0  0  0  0  0
  191.2400  177.3260  145.4960 C   0  0  0  0  0  3  0  0  0  0  0  0
  188.9000  177.9520  145.8510 C   0  0  1  0  0  3  0  0  0  0  0  0
  188.7160  177.5000  140.6590 O   0  0  0  0  0  0  0  0  0  0  0  0
  189.2820  178.0070  139.4590 C   0  0  0  0  0  2  0  0  0  0  0  0
  189.3090  176.9160  138.3970 C   0  0  0  0  0  2  0  0  0  0  0  0
  191.7290  176.9150  139.1480 C   0  0  0  0  0  2  0  0  0  0  0  0
  190.7560  174.9340  138.2880 O   0  0  0  0  0  0  0  0  0  0  0  0
  192.9320  176.6250  138.4750 O   0  0  0  0  0  0  0  0  0  0  0  0
  191.2710  176.6800  136.9810 O   0  0  0  0  0  0  0  0  0  0  0  0
  191.9560  174.6540  137.6070 C   0  0  0  0  0  2  0  0  0  0  0  0
  190.7090  176.3430  138.1970 C   0  0  1  0  0  0  0  0  0  0  0  0
  192.4670  176.0440  137.2680 C   0  0  2  0  0  3  0  0  0  0  0  0
  1  8  1  0  0  0  0
  4  5  2  0  0  0  0
  5  6  1  0  0  0  0
  6  7  1  0  0  0  0
  6  3  1  0  0  0  0
  7  2  1  1  0  0  0
  7  1  1  0  0  0  0
  8  3  1  6  0  0  0
  8 16  1  0  0  0  0
 11 14  1  0  0  0  0
 11  9  2  0  0  0  0
 12  9  1  0  0  0  0
 12 10  2  0  0  0  0
 13 15  2  0  0  0  0
 15 11  1  0  0  0  0
 16 13  1  6  0  0  0
 16 12  1  0  0  0  0
 17  5  1  0  0  0  0
 18 17  1  0  0  0  0
 19 18  1  0  0  0  0
 22 20  1  0  0  0  0
 23 26  1  0  0  0  0
 23 25  1  0  0  0  0
 24 21  1  0  0  0  0
 25 21  1  0  0  0  0
 25 19  1  1  0  0  0
 25 20  1  0  0  0  0
 26 24  1  1  0  0  0
 26 22  1  0  0  0  0
M  END
>  <MODEL>
7

>  <REMARK>
 VINA RESULT:      -7.4      2.299      5.134
  Name = 
  5 active torsions:
  status: ('A' for Active; 'I' for Inactive)
    1  A    between atoms: C_12  and  C_14
    2  A    between atoms: C_12  and  C_18
    3  A    between atoms: C_14  and  O_24
    4  A    between atoms: C_17  and  O_24
    5  A    between atoms: C_23  and  C_26
                            x       y       z     vdW  Elec       q    Type
                         _______ _______ _______ _____ _____    ______ ____

>  <TORSDO>
F 5

$$$$
=
 OpenBabel11062417163D

 26 29  0  0  1  0  0  0  0  0999 V2000
  186.7640  178.4020  144.7780 C   0  0  0  0  0  2  0  0  0  0  0  0
  185.1460  177.8750  142.9750 C   0  0  0  0  0  1  0  0  0  0  0  0
  188.4450  177.1130  143.5440 C   0  0  0  0  0  2  0  0  0  0  0  0
  187.1010  178.6020  140.4870 O   0  0  0  0  0  0  0  0  0  0  0  0
  187.8500  177.9140  141.2340 C   0  0  0  0  0  0  0  0  0  0  0  0
  187.5520  177.7890  142.6290 N   0  0  0  0  0  0  0  0  0  0  0  0
  186.4850  178.5170  143.2890 C   0  0  2  0  0  3  0  0  0  0  0  0
  187.8970  177.3920  144.9370 C   0  0  1  0  0  3  0  0  0  0  0  0
  190.2020  176.3220  147.4480 N   0  0  0  0  0  0  0  0  0  0  0  0
  188.0520  177.0670  147.9340 O   0  0  0  0  0  0  0  0  0  0  0  0
  191.2720  176.4000  146.7180 C   0  0  0  0  0  0  0  0  0  0  0  0
  189.0350  177.0930  147.1480 C   0  0  0  0  0  0  0  0  0  0  0  0
  190.2800  178.0090  145.2200 N   0  0  0  0  0  0  0  0  0  0  0  0
  192.4160  175.6260  147.0540 N   0  0  0  0  0  1  0  0  0  0  0  0
  191.3240  177.3170  145.5690 C   0  0  0  0  0  3  0  0  0  0  0  0
  188.9730  177.9220  145.8900 C   0  0  1  0  0  3  0  0  0  0  0  0
  188.9810  177.2850  140.7140 O   0  0  0  0  0  0  0  0  0  0  0  0
  189.7930  177.8910  139.7190 C   0  0  0  0  0  2  0  0  0  0  0  0
  189.7790  177.0460  138.4520 C   0  0  0  0  0  2  0  0  0  0  0  0
  188.7670  179.1350  137.4360 C   0  0  0  0  0  2  0  0  0  0  0  0
  189.2290  177.2580  136.0670 O   0  0  0  0  0  0  0  0  0  0  0  0
  187.5690  179.3620  136.7310 O   0  0  0  0  0  0  0  0  0  0  0  0
  187.5380  177.2790  137.5380 O   0  0  0  0  0  0  0  0  0  0  0  0
  188.0250  177.4820  135.3730 C   0  0  0  0  0  2  0  0  0  0  0  0
  188.8640  177.6320  137.3800 C   0  0  1  0  0  0  0  0  0  0  0  0
  187.1240  178.0430  136.4600 C   0  0  2  0  0  3  0  0  0  0  0  0
  1  8  1  0  0  0  0
  4  5  2  0  0  0  0
  5  6  1  0  0  0  0
  6  7  1  0  0  0  0
  6  3  1  0  0  0  0
  7  2  1  1  0  0  0
  7  1  1  0  0  0  0
  8  3  1  6  0  0  0
  8 16  1  0  0  0  0
 11 14  1  0  0  0  0
 11  9  2  0  0  0  0
 12  9  1  0  0  0  0
 12 10  2  0  0  0  0
 13 15  2  0  0  0  0
 15 11  1  0  0  0  0
 16 13  1  6  0  0  0
 16 12  1  0  0  0  0
 17  5  1  0  0  0  0
 18 17  1  0  0  0  0
 19 18  1  0  0  0  0
 21 25  1  0  0  0  0
 22 20  1  0  0  0  0
 24 21  1  0  0  0  0
 25 20  1  0  0  0  0
 25 23  1  0  0  0  0
 25 19  1  1  0  0  0
 26 24  1  6  0  0  0
 26 22  1  0  0  0  0
 26 23  1  0  0  0  0
M  END
>  <MODEL>
8

>  <REMARK>
 VINA RESULT:      -7.3      2.619      5.431
  Name = 
  5 active torsions:
  status: ('A' for Active; 'I' for Inactive)
    1  A    between atoms: C_12  and  C_14
    2  A    between atoms: C_12  and  C_18
    3  A    between atoms: C_14  and  O_24
    4  A    between atoms: C_17  and  O_24
    5  A    between atoms: C_23  and  C_26
                            x       y       z     vdW  Elec       q    Type
                         _______ _______ _______ _____ _____    ______ ____

>  <TORSDO>
F 5

$$$$
=
 OpenBabel11062417163D

 26 29  0  0  1  0  0  0  0  0999 V2000
  188.7400  176.8550  147.2870 C   0  0  0  0  0  2  0  0  0  0  0  0
  191.1920  177.0150  147.6210 C   0  0  0  0  0  1  0  0  0  0  0  0
  189.0210  178.0870  145.1870 C   0  0  0  0  0  2  0  0  0  0  0  0
  192.0420  176.1060  144.6220 O   0  0  0  0  0  0  0  0  0  0  0  0
  191.1210  176.9420  144.4070 C   0  0  0  0  0  0  0  0  0  0  0  0
  190.1610  177.2300  145.4280 N   0  0  0  0  0  0  0  0  0  0  0  0
  190.0970  176.5200  146.6920 C   0  0  2  0  0  3  0  0  0  0  0  0
  188.1380  177.9580  146.4200 C   0  0  1  0  0  3  0  0  0  0  0  0
  185.1970  179.4380  145.0330 N   0  0  0  0  0  0  0  0  0  0  0  0
  185.6460  179.4060  147.3160 O   0  0  0  0  0  0  0  0  0  0  0  0
  185.2660  178.8590  143.8740 C   0  0  0  0  0  0  0  0  0  0  0  0
  185.8170  178.8690  146.1910 C   0  0  0  0  0  0  0  0  0  0  0  0
  186.5830  177.0290  144.7300 N   0  0  0  0  0  0  0  0  0  0  0  0
  184.6300  179.4510  142.7490 N   0  0  0  0  0  1  0  0  0  0  0  0
  185.9630  177.5730  143.7250 C   0  0  0  0  0  3  0  0  0  0  0  0
  186.6820  177.6410  146.0640 C   0  0  1  0  0  3  0  0  0  0  0  0
  191.0190  177.5770  143.1690 O   0  0  0  0  0  0  0  0  0  0  0  0
  190.6950  176.8700  141.9810 C   0  0  0  0  0  2  0  0  0  0  0  0
  191.6300  177.2900  140.8550 C   0  0  0  0  0  2  0  0  0  0  0  0
  189.8610  177.8740  139.1370 C   0  0  0  0  0  2  0  0  0  0  0  0
  191.9840  177.0950  138.4310 O   0  0  0  0  0  0  0  0  0  0  0  0
  189.2400  177.1220  138.1200 O   0  0  0  0  0  0  0  0  0  0  0  0
  190.4680  175.7440  139.3810 O   0  0  0  0  0  0  0  0  0  0  0  0
  191.3580  176.3350  137.4250 C   0  0  0  0  0  2  0  0  0  0  0  0
  191.0390  176.9980  139.4780 C   0  0  1  0  0  0  0  0  0  0  0  0
  190.0420  175.9530  138.0800 C   0  0  2  0  0  3  0  0  0  0  0  0
  3  6  1  0  0  0  0
  5  4  2  0  0  0  0
  5  6  1  0  0  0  0
  6  7  1  0  0  0  0
  7  1  1  0  0  0  0
  7  2  1  1  0  0  0
  8  3  1  6  0  0  0
  8  1  1  0  0  0  0
  9 12  1  0  0  0  0
 11  9  2  0  0  0  0
 12 10  2  0  0  0  0
 14 11  1  0  0  0  0
 15 11  1  0  0  0  0
 15 13  2  0  0  0  0
 16 13  1  6  0  0  0
 16 12  1  0  0  0  0
 16  8  1  0  0  0  0
 17  5  1  0  0  0  0
 18 17  1  0  0  0  0
 19 18  1  0  0  0  0
 20 25  1  0  0  0  0
 21 25  1  0  0  0  0
 22 20  1  0  0  0  0
 23 25  1  0  0  0  0
 24 21  1  0  0  0  0
 25 19  1  1  0  0  0
 26 24  1  6  0  0  0
 26 22  1  0  0  0  0
 26 23  1  0  0  0  0
M  END
>  <MODEL>
9

>  <REMARK>
 VINA RESULT:      -7.3      1.396      1.863
  Name = 
  5 active torsions:
  status: ('A' for Active; 'I' for Inactive)
    1  A    between atoms: C_12  and  C_14
    2  A    between atoms: C_12  and  C_18
    3  A    between atoms: C_14  and  O_24
    4  A    between atoms: C_17  and  O_24
    5  A    between atoms: C_23  and  C_26
                            x       y       z     vdW  Elec       q    Type
                         _______ _______ _______ _____ _____    ______ ____

>  <TORSDO>
F 5

$$$$
