=
 OpenBabel11062417033D

 47 50  0  0  1  0  0  0  0  0999 V2000
  183.8900  178.6840  139.7200 C   0  0  1  0  0  3  0  0  0  0  0  0
  180.6510  179.3780  140.3030 N   0  0  0  0  0  2  0  0  0  0  0  0
  183.4320  178.6120  144.2290 C   0  0  2  0  0  3  0  0  0  0  0  0
  184.9540  178.0070  142.3830 C   0  0  0  0  0  2  0  0  0  0  0  0
  181.6000  178.7460  139.4850 N   0  0  0  0  0  2  0  0  0  0  0  0
  184.3780  179.1710  143.1750 C   0  0  0  0  0  2  0  0  0  0  0  0
  182.1180  179.3950  144.3390 C   0  0  0  0  0  2  0  0  0  0  0  0
  181.3400  178.3700  142.2350 N   0  0  0  0  0  2  0  0  0  0  0  0
  184.8800  179.4040  140.3940 O   0  0  0  0  0  0  0  0  0  0  0  0
  182.7370  179.5700  139.4990 N   0  0  2  0  0  0  0  0  0  0  0  0
  181.4030  179.6060  143.0060 C   0  0  0  0  0  2  0  0  0  0  0  0
  180.2800  178.4710  141.3150 N   0  0  0  0  0  2  0  0  0  0  0  0
  183.6750  179.2470  138.3920 C   0  0  2  0  0  3  0  0  0  0  0  0
  185.6460  178.4580  141.0920 C   0  0  1  0  0  3  0  0  0  0  0  0
  187.0160  179.0330  141.4100 C   0  0  0  0  0  2  0  0  0  0  0  0
  187.8200  178.0480  142.2560 C   0  0  1  0  0  3  0  0  0  0  0  0
  188.8830  177.2530  141.4890 C   0  0  2  0  0  3  0  0  0  0  0  0
  189.2720  178.4790  142.2930 C   0  0  0  0  0  2  0  0  0  0  0  0
  188.9730  177.5720  140.0020 C   0  0  0  0  0  2  0  0  0  0  0  0
  191.3070  177.3190  139.6470 O   0  0  0  0  0  1  0  0  0  0  0  0
  190.0680  176.7440  139.3690 C   0  0  0  0  0  2  0  0  0  0  0  0
  183.1810  178.1700  137.4230 C   0  0  0  0  0  2  0  0  0  0  0  0
  184.1420  177.0780  137.3490 N   0  0  0  0  0  2  0  0  0  0  0  0
  182.5470  175.4190  136.9430 O   0  0  0  0  0  0  0  0  0  0  0  0
  183.7630  175.7190  137.1010 C   0  0  0  0  0  0  0  0  0  0  0  0
  184.6870  173.6120  137.7620 N   0  0  0  0  0  0  0  0  0  0  0  0
  185.6310  172.6100  137.7300 O   0  0  0  0  0  1  0  0  0  0  0  0
  184.7930  174.6730  137.0210 C   0  0  0  0  0  0  0  0  0  0  0  0
  185.9690  174.8600  136.1070 C   0  0  0  0  0  2  0  0  0  0  0  0
  188.2680  174.5430  136.8460 N   0  0  0  0  0  0  0  0  0  0  0  0
  187.1480  175.4680  136.8580 C   0  0  1  0  0  3  0  0  0  0  0  0
  187.7030  176.6490  136.1260 C   0  0  0  0  0  3  0  0  0  0  0  0
  188.9550  176.3610  135.8070 C   0  0  0  0  0  3  0  0  0  0  0  0
  189.2730  175.0560  136.2650 N   0  0  0  0  0  0  0  0  0  0  0  0
  184.1210  178.4890  145.5860 C   0  0  0  0  0  2  0  0  0  0  0  0
  185.4370  179.2510  145.6250 C   0  0  0  0  0  2  0  0  0  0  0  0
  186.3840  178.5890  146.6070 C   0  0  0  0  0  2  0  0  0  0  0  0
  187.1230  177.4420  145.9360 C   0  0  0  0  0  2  0  0  0  0  0  0
  188.5940  177.5630  146.1480 C   0  0  0  0  0  0  0  0  0  0  0  0
  189.4940  176.9560  145.2140 N   0  0  0  0  0  2  0  0  0  0  0  0
  189.0310  178.1720  147.1620 O   0  0  0  0  0  0  0  0  0  0  0  0
  191.4300  178.2570  145.0270 O   0  0  0  0  0  1  0  0  0  0  0  0
  191.5710  175.9680  144.3980 C   0  0  0  0  0  1  0  0  0  0  0  0
  190.9490  176.9840  145.3380 C   0  0  2  0  0  0  0  0  0  0  0  0
  191.3440  176.6260  146.7630 C   0  0  0  0  0  2  0  0  0  0  0  0
  192.3490  175.6580  146.7670 O   0  0  0  0  0  0  0  0  0  0  0  0
  192.7940  175.6210  148.0880 C   0  0  0  0  0  1  0  0  0  0  0  0
  1  9  1  1  0  0  0
  2 12  1  0  0  0  0
  3  7  1  0  0  0  0
  3 35  1  1  0  0  0
  4  6  1  0  0  0  0
  5  2  1  0  0  0  0
  6  3  1  0  0  0  0
  8 11  1  0  0  0  0
  9 14  1  0  0  0  0
 10  5  1  6  0  0  0
 10  1  1  0  0  0  0
 11  7  1  0  0  0  0
 12  8  1  0  0  0  0
 13 22  1  6  0  0  0
 13 10  1  0  0  0  0
 13  1  1  0  0  0  0
 14 15  1  1  0  0  0
 14  4  1  0  0  0  0
 16 15  1  6  0  0  0
 16 18  1  0  0  0  0
 17 19  1  6  0  0  0
 17 16  1  0  0  0  0
 17 18  1  0  0  0  0
 21 20  1  0  0  0  0
 21 19  1  0  0  0  0
 23 22  1  0  0  0  0
 24 25  2  0  0  0  0
 25 23  1  0  0  0  0
 27 26  1  0  0  0  0
 28 25  1  0  0  0  0
 28 26  2  0  0  0  0
 29 28  1  0  0  0  0
 30 31  1  0  0  0  0
 31 29  1  6  0  0  0
 32 31  1  0  0  0  0
 33 32  2  0  0  0  0
 33 34  1  0  0  0  0
 34 30  2  0  0  0  0
 35 36  1  0  0  0  0
 36 37  1  0  0  0  0
 38 39  1  0  0  0  0
 38 37  1  0  0  0  0
 39 41  2  0  0  0  0
 40 44  1  0  0  0  0
 40 39  1  0  0  0  0
 42 44  1  0  0  0  0
 44 43  1  6  0  0  0
 44 45  1  0  0  0  0
 45 46  1  0  0  0  0
 46 47  1  0  0  0  0
M  END
>  <MODEL>
1

>  <REMARK>
 VINA RESULT:      -7.5      0.000      0.000
  Name = 
  17 active torsions:
  status: ('A' for Active; 'I' for Inactive)
    1  A    between atoms: N_1  and  C_38
    2  A    between atoms: C_2  and  C_31
    3  A    between atoms: C_4  and  C_14
    4  A    between atoms: C_4  and  C_47
    5  A    between atoms: C_6  and  C_18
    6  A    between atoms: C_6  and  C_41
    7  A    between atoms: C_9  and  C_12
    8  A    between atoms: C_9  and  C_39
    9  A    between atoms: O_15  and  C_32
   10  A    between atoms: C_16  and  C_36
   11  A    between atoms: C_18  and  C_47
   12  A    between atoms: C_31  and  C_46
   13  A    between atoms: C_32  and  C_42
   14  A    between atoms: C_36  and  C_37
   15  A    between atoms: C_38  and  C_40
   16  A    between atoms: C_39  and  C_45
   17  A    between atoms: C_42  and  N_43
                            x       y       z     vdW  Elec       q    Type
                         _______ _______ _______ _____ _____    ______ ____

>  <TORSDO>
F 17

$$$$
=
 OpenBabel11062417033D

 47 50  0  0  1  0  0  0  0  0999 V2000
  188.7220  177.5040  140.3200 C   0  0  1  0  0  3  0  0  0  0  0  0
  186.4770  178.6390  138.0870 N   0  0  0  0  0  2  0  0  0  0  0  0
  184.9720  178.3740  142.7130 C   0  0  2  0  0  3  0  0  0  0  0  0
  187.1710  177.2570  142.8130 C   0  0  0  0  0  2  0  0  0  0  0  0
  187.5360  177.7610  138.3620 N   0  0  0  0  0  2  0  0  0  0  0  0
  186.4740  178.6100  142.7970 C   0  0  0  0  0  2  0  0  0  0  0  0
  184.2700  179.2980  141.7110 C   0  0  0  0  0  2  0  0  0  0  0  0
  185.1880  177.9650  139.8500 N   0  0  0  0  0  2  0  0  0  0  0  0
  188.9610  178.2330  141.4880 O   0  0  0  0  0  0  0  0  0  0  0  0
  188.3930  178.4450  139.2400 N   0  0  2  0  0  0  0  0  0  0  0  0
  184.9070  179.3160  140.3240 C   0  0  0  0  0  2  0  0  0  0  0  0
  185.2780  177.9950  138.4460 N   0  0  0  0  0  2  0  0  0  0  0  0
  189.7360  177.8130  139.3180 C   0  0  2  0  0  3  0  0  0  0  0  0
  188.6770  177.3670  142.5550 C   0  0  1  0  0  3  0  0  0  0  0  0
  189.3860  177.8450  143.8110 C   0  0  0  0  0  2  0  0  0  0  0  0
  188.7310  177.2390  145.0520 C   0  0  1  0  0  3  0  0  0  0  0  0
  189.7090  176.7690  146.1360 C   0  0  2  0  0  3  0  0  0  0  0  0
  189.0170  178.1140  146.2550 C   0  0  0  0  0  2  0  0  0  0  0  0
  191.1800  176.9840  145.8070 C   0  0  0  0  0  2  0  0  0  0  0  0
  192.1360  176.6570  147.9570 O   0  0  0  0  0  1  0  0  0  0  0  0
  192.0330  176.0950  146.6850 C   0  0  0  0  0  2  0  0  0  0  0  0
  189.9430  176.6230  138.3760 C   0  0  0  0  0  2  0  0  0  0  0  0
  191.2480  176.7080  137.7350 N   0  0  0  0  0  2  0  0  0  0  0  0
  191.7460  174.4370  137.9680 O   0  0  0  0  0  0  0  0  0  0  0  0
  192.1050  175.5750  137.5560 C   0  0  0  0  0  0  0  0  0  0  0  0
  193.8790  176.9260  136.6860 N   0  0  0  0  0  0  0  0  0  0  0  0
  195.0840  177.1280  136.0500 O   0  0  0  0  0  1  0  0  0  0  0  0
  193.4010  175.7350  136.8820 C   0  0  0  0  0  0  0  0  0  0  0  0
  194.1410  174.5210  136.4000 C   0  0  0  0  0  2  0  0  0  0  0  0
  195.0010  173.7910  138.5580 N   0  0  0  0  0  0  0  0  0  0  0  0
  195.3860  174.2750  137.2440 C   0  0  1  0  0  3  0  0  0  0  0  0
  196.1860  173.1300  136.7060 C   0  0  0  0  0  3  0  0  0  0  0  0
  196.2180  172.1970  137.6440 C   0  0  0  0  0  3  0  0  0  0  0  0
  195.4780  172.6350  138.7730 N   0  0  0  0  0  0  0  0  0  0  0  0
  184.3180  178.4480  144.0910 C   0  0  0  0  0  2  0  0  0  0  0  0
  183.0480  179.2850  144.0710 C   0  0  0  0  0  2  0  0  0  0  0  0
  181.8360  178.3810  144.1970 C   0  0  0  0  0  2  0  0  0  0  0  0
  180.6130  179.0490  143.5880 C   0  0  0  0  0  2  0  0  0  0  0  0
  180.2420  178.3970  142.2990 C   0  0  0  0  0  0  0  0  0  0  0  0
  180.8920  178.8060  141.0900 N   0  0  0  0  0  2  0  0  0  0  0  0
  179.3390  177.5180  142.2800 O   0  0  0  0  0  0  0  0  0  0  0  0
  179.2980  178.6360  139.3850 O   0  0  0  0  0  1  0  0  0  0  0  0
  180.6850  176.7470  139.7960 C   0  0  0  0  0  1  0  0  0  0  0  0
  180.5870  178.2620  139.7690 C   0  0  2  0  0  0  0  0  0  0  0  0
  181.5930  178.7910  138.7580 C   0  0  0  0  0  2  0  0  0  0  0  0
  181.0250  179.8030  137.9830 O   0  0  0  0  0  0  0  0  0  0  0  0
  181.7590  180.9440  138.3050 C   0  0  0  0  0  1  0  0  0  0  0  0
  1  9  1  1  0  0  0
  2  5  1  0  0  0  0
  2 12  1  0  0  0  0
  3  6  1  0  0  0  0
  3 35  1  1  0  0  0
  6  4  1  0  0  0  0
  7  3  1  0  0  0  0
  8 11  1  0  0  0  0
  9 14  1  0  0  0  0
 10  5  1  6  0  0  0
 10 13  1  0  0  0  0
 10  1  1  0  0  0  0
 11  7  1  0  0  0  0
 12  8  1  0  0  0  0
 13 22  1  6  0  0  0
 13  1  1  0  0  0  0
 14  4  1  0  0  0  0
 14 15  1  1  0  0  0
 16 15  1  6  0  0  0
 16 17  1  0  0  0  0
 16 18  1  0  0  0  0
 17 19  1  6  0  0  0
 17 18  1  0  0  0  0
 19 21  1  0  0  0  0
 21 20  1  0  0  0  0
 23 22  1  0  0  0  0
 25 23  1  0  0  0  0
 25 24  2  0  0  0  0
 26 28  2  0  0  0  0
 27 26  1  0  0  0  0
 28 25  1  0  0  0  0
 29 28  1  0  0  0  0
 30 34  2  0  0  0  0
 31 29  1  6  0  0  0
 31 30  1  0  0  0  0
 32 31  1  0  0  0  0
 32 33  2  0  0  0  0
 33 34  1  0  0  0  0
 36 35  1  0  0  0  0
 36 37  1  0  0  0  0
 38 37  1  0  0  0  0
 39 38  1  0  0  0  0
 40 39  1  0  0  0  0
 41 39  2  0  0  0  0
 42 44  1  0  0  0  0
 44 43  1  1  0  0  0
 44 40  1  0  0  0  0
 45 44  1  0  0  0  0
 46 47  1  0  0  0  0
 46 45  1  0  0  0  0
M  END
>  <MODEL>
2

>  <REMARK>
 VINA RESULT:      -7.4      3.550      7.917
  Name = 
  17 active torsions:
  status: ('A' for Active; 'I' for Inactive)
    1  A    between atoms: N_1  and  C_38
    2  A    between atoms: C_2  and  C_31
    3  A    between atoms: C_4  and  C_14
    4  A    between atoms: C_4  and  C_47
    5  A    between atoms: C_6  and  C_18
    6  A    between atoms: C_6  and  C_41
    7  A    between atoms: C_9  and  C_12
    8  A    between atoms: C_9  and  C_39
    9  A    between atoms: O_15  and  C_32
   10  A    between atoms: C_16  and  C_36
   11  A    between atoms: C_18  and  C_47
   12  A    between atoms: C_31  and  C_46
   13  A    between atoms: C_32  and  C_42
   14  A    between atoms: C_36  and  C_37
   15  A    between atoms: C_38  and  C_40
   16  A    between atoms: C_39  and  C_45
   17  A    between atoms: C_42  and  N_43
                            x       y       z     vdW  Elec       q    Type
                         _______ _______ _______ _____ _____    ______ ____

>  <TORSDO>
F 17

$$$$
=
 OpenBabel11062417033D

 47 50  0  0  1  0  0  0  0  0999 V2000
  183.4180  178.6130  139.6720 C   0  0  1  0  0  3  0  0  0  0  0  0
  180.2150  179.2870  140.4470 N   0  0  0  0  0  2  0  0  0  0  0  0
  183.2530  178.6520  144.2020 C   0  0  2  0  0  3  0  0  0  0  0  0
  184.6600  178.0160  142.2760 C   0  0  0  0  0  2  0  0  0  0  0  0
  181.1160  178.6450  139.5850 N   0  0  0  0  0  2  0  0  0  0  0  0
  184.1220  179.1940  143.0750 C   0  0  0  0  0  2  0  0  0  0  0  0
  181.9400  179.4230  144.3770 C   0  0  0  0  0  2  0  0  0  0  0  0
  181.0400  178.3360  142.3550 N   0  0  0  0  0  2  0  0  0  0  0  0
  184.4400  179.3600  140.2620 O   0  0  0  0  0  0  0  0  0  0  0  0
  182.2420  179.4800  139.5040 N   0  0  2  0  0  0  0  0  0  0  0  0
  181.1370  179.5910  143.0890 C   0  0  0  0  0  2  0  0  0  0  0  0
  179.9220  178.4020  141.5030 N   0  0  0  0  0  2  0  0  0  0  0  0
  183.1100  179.1400  138.3470 C   0  0  2  0  0  3  0  0  0  0  0  0
  185.2610  178.4410  140.9320 C   0  0  1  0  0  3  0  0  0  0  0  0
  186.6410  179.0390  141.1460 C   0  0  0  0  0  2  0  0  0  0  0  0
  187.5590  178.0240  141.8250 C   0  0  1  0  0  3  0  0  0  0  0  0
  188.7460  177.5540  140.9760 C   0  0  2  0  0  3  0  0  0  0  0  0
  188.9310  178.6340  142.0240 C   0  0  0  0  0  2  0  0  0  0  0  0
  188.8260  178.1760  139.5880 C   0  0  0  0  0  2  0  0  0  0  0  0
  189.8280  177.8940  137.4530 O   0  0  0  0  0  1  0  0  0  0  0  0
  189.9080  177.4890  138.7840 C   0  0  0  0  0  2  0  0  0  0  0  0
  182.5670  178.0330  137.4390 C   0  0  0  0  0  2  0  0  0  0  0  0
  183.3190  176.8010  137.6400 N   0  0  0  0  0  2  0  0  0  0  0  0
  184.7670  177.1420  135.8380 O   0  0  0  0  0  0  0  0  0  0  0  0
  184.4160  176.4120  136.8060 C   0  0  0  0  0  0  0  0  0  0  0  0
  186.4040  175.0780  136.7960 N   0  0  0  0  0  0  0  0  0  0  0  0
  187.1230  173.9260  137.0270 O   0  0  0  0  0  1  0  0  0  0  0  0
  185.1400  175.1630  137.0830 C   0  0  0  0  0  0  0  0  0  0  0  0
  184.4030  173.9910  137.6650 C   0  0  0  0  0  2  0  0  0  0  0  0
  184.1000  171.8060  136.6350 N   0  0  0  0  0  0  0  0  0  0  0  0
  183.6950  173.2000  136.5730 C   0  0  1  0  0  3  0  0  0  0  0  0
  182.2250  173.1140  136.8340 C   0  0  0  0  0  3  0  0  0  0  0  0
  181.9250  171.8340  136.9850 C   0  0  0  0  0  3  0  0  0  0  0  0
  183.1030  171.0540  136.8570 N   0  0  0  0  0  0  0  0  0  0  0  0
  184.0300  178.5700  145.5140 C   0  0  0  0  0  2  0  0  0  0  0  0
  185.4950  178.9350  145.3280 C   0  0  0  0  0  2  0  0  0  0  0  0
  186.3450  177.6790  145.3580 C   0  0  0  0  0  2  0  0  0  0  0  0
  187.0340  177.5400  146.7070 C   0  0  0  0  0  2  0  0  0  0  0  0
  188.5090  177.7090  146.5670 C   0  0  0  0  0  0  0  0  0  0  0  0
  189.1670  177.2180  145.3920 N   0  0  0  0  0  2  0  0  0  0  0  0
  189.1670  178.2520  147.4940 O   0  0  0  0  0  0  0  0  0  0  0  0
  190.9510  178.5870  144.7480 O   0  0  0  0  0  1  0  0  0  0  0  0
  191.0210  176.3000  144.0980 C   0  0  0  0  0  1  0  0  0  0  0  0
  190.6070  177.2990  145.1630 C   0  0  2  0  0  0  0  0  0  0  0  0
  191.3450  176.9650  146.4500 C   0  0  0  0  0  2  0  0  0  0  0  0
  192.1070  175.8060  146.2940 O   0  0  0  0  0  0  0  0  0  0  0  0
  192.5320  175.4910  147.5830 C   0  0  0  0  0  1  0  0  0  0  0  0
  1  9  1  1  0  0  0
  2 12  1  0  0  0  0
  3  7  1  0  0  0  0
  3 35  1  1  0  0  0
  4  6  1  0  0  0  0
  5  2  1  0  0  0  0
  6  3  1  0  0  0  0
  8 11  1  0  0  0  0
  9 14  1  0  0  0  0
 10  5  1  6  0  0  0
 10  1  1  0  0  0  0
 11  7  1  0  0  0  0
 12  8  1  0  0  0  0
 13 22  1  6  0  0  0
 13 10  1  0  0  0  0
 13  1  1  0  0  0  0
 14 15  1  1  0  0  0
 14  4  1  0  0  0  0
 16 15  1  6  0  0  0
 16 18  1  0  0  0  0
 17 19  1  6  0  0  0
 17 16  1  0  0  0  0
 17 18  1  0  0  0  0
 20 21  1  0  0  0  0
 21 19  1  0  0  0  0
 22 23  1  0  0  0  0
 24 25  2  0  0  0  0
 25 28  1  0  0  0  0
 25 23  1  0  0  0  0
 26 27  1  0  0  0  0
 26 28  2  0  0  0  0
 28 29  1  0  0  0  0
 30 34  2  0  0  0  0
 31 30  1  0  0  0  0
 31 32  1  0  0  0  0
 31 29  1  1  0  0  0
 32 33  2  0  0  0  0
 34 33  1  0  0  0  0
 36 37  1  0  0  0  0
 36 35  1  0  0  0  0
 37 38  1  0  0  0  0
 39 38  1  0  0  0  0
 39 41  2  0  0  0  0
 40 39  1  0  0  0  0
 42 44  1  0  0  0  0
 44 43  1  6  0  0  0
 44 40  1  0  0  0  0
 44 45  1  0  0  0  0
 46 45  1  0  0  0  0
 46 47  1  0  0  0  0
M  END
>  <MODEL>
3

>  <REMARK>
 VINA RESULT:      -7.2      1.314      2.336
  Name = 
  17 active torsions:
  status: ('A' for Active; 'I' for Inactive)
    1  A    between atoms: N_1  and  C_38
    2  A    between atoms: C_2  and  C_31
    3  A    between atoms: C_4  and  C_14
    4  A    between atoms: C_4  and  C_47
    5  A    between atoms: C_6  and  C_18
    6  A    between atoms: C_6  and  C_41
    7  A    between atoms: C_9  and  C_12
    8  A    between atoms: C_9  and  C_39
    9  A    between atoms: O_15  and  C_32
   10  A    between atoms: C_16  and  C_36
   11  A    between atoms: C_18  and  C_47
   12  A    between atoms: C_31  and  C_46
   13  A    between atoms: C_32  and  C_42
   14  A    between atoms: C_36  and  C_37
   15  A    between atoms: C_38  and  C_40
   16  A    between atoms: C_39  and  C_45
   17  A    between atoms: C_42  and  N_43
                            x       y       z     vdW  Elec       q    Type
                         _______ _______ _______ _____ _____    ______ ____

>  <TORSDO>
F 17

$$$$
=
 OpenBabel11062417033D

 47 50  0  0  1  0  0  0  0  0999 V2000
  188.1110  177.7640  139.4080 C   0  0  1  0  0  3  0  0  0  0  0  0
  189.8600  177.0290  136.6310 N   0  0  0  0  0  2  0  0  0  0  0  0
  185.0130  177.1400  136.1600 C   0  0  2  0  0  3  0  0  0  0  0  0
  185.3070  177.3610  138.6010 C   0  0  0  0  0  2  0  0  0  0  0  0
  189.7410  176.9080  138.0240 N   0  0  0  0  0  2  0  0  0  0  0  0
  185.3250  178.1200  137.2820 C   0  0  0  0  0  2  0  0  0  0  0  0
  185.9240  177.3080  134.9390 C   0  0  0  0  0  2  0  0  0  0  0  0
  187.7670  176.2320  136.1740 N   0  0  0  0  0  2  0  0  0  0  0  0
  187.1380  178.7660  139.3650 O   0  0  0  0  0  0  0  0  0  0  0  0
  189.1910  178.1190  138.4750 N   0  0  2  0  0  0  0  0  0  0  0  0
  187.4150  177.3190  135.2670 C   0  0  0  0  0  2  0  0  0  0  0  0
  189.1430  175.9700  136.0420 N   0  0  0  0  0  2  0  0  0  0  0  0
  189.3600  178.2990  139.9410 C   0  0  2  0  0  3  0  0  0  0  0  0
  185.9340  178.1590  139.7490 C   0  0  1  0  0  3  0  0  0  0  0  0
  184.9570  179.2130  140.2420 C   0  0  0  0  0  2  0  0  0  0  0  0
  184.9820  179.2870  141.7680 C   0  0  1  0  0  3  0  0  0  0  0  0
  183.6650  178.9090  142.4560 C   0  0  2  0  0  3  0  0  0  0  0  0
  184.7920  177.9000  142.3460 C   0  0  0  0  0  2  0  0  0  0  0  0
  182.5380  178.5150  141.5100 C   0  0  0  0  0  2  0  0  0  0  0  0
  181.2540  178.7700  143.4920 O   0  0  0  0  0  1  0  0  0  0  0  0
  181.2080  178.9200  142.1070 C   0  0  0  0  0  2  0  0  0  0  0  0
  190.1650  177.1970  140.6350 C   0  0  0  0  0  2  0  0  0  0  0  0
  190.3700  177.5300  142.0380 N   0  0  0  0  0  2  0  0  0  0  0  0
  190.3340  175.3180  142.7890 O   0  0  0  0  0  0  0  0  0  0  0  0
  190.4510  176.5430  143.0720 C   0  0  0  0  0  0  0  0  0  0  0  0
  191.6920  176.4720  145.1170 N   0  0  0  0  0  0  0  0  0  0  0  0
  191.9420  176.8190  146.4270 O   0  0  0  0  0  1  0  0  0  0  0  0
  190.6790  176.9540  144.4640 C   0  0  0  0  0  0  0  0  0  0  0  0
  189.7200  177.9030  145.1240 C   0  0  0  0  0  2  0  0  0  0  0  0
  188.2470  177.5730  147.0340 N   0  0  0  0  0  0  0  0  0  0  0  0
  188.5080  177.1570  145.6670 C   0  0  1  0  0  3  0  0  0  0  0  0
  187.2550  177.5760  144.9640 C   0  0  0  0  0  3  0  0  0  0  0  0
  186.4560  178.1150  145.8700 C   0  0  0  0  0  3  0  0  0  0  0  0
  187.0960  178.0980  147.1360 N   0  0  0  0  0  0  0  0  0  0  0  0
  183.5380  177.1950  135.7670 C   0  0  0  0  0  2  0  0  0  0  0  0
  182.6810  176.3070  136.6570 C   0  0  0  0  0  2  0  0  0  0  0  0
  181.3780  177.0120  136.9810 C   0  0  0  0  0  2  0  0  0  0  0  0
  181.6540  178.3530  137.6440 C   0  0  0  0  0  2  0  0  0  0  0  0
  180.8390  179.4320  137.0150 C   0  0  0  0  0  0  0  0  0  0  0  0
  181.1840  180.8030  137.2470 N   0  0  0  0  0  2  0  0  0  0  0  0
  179.8370  179.1300  136.3120 O   0  0  0  0  0  0  0  0  0  0  0  0
  179.0740  181.7650  136.9350 O   0  0  0  0  0  1  0  0  0  0  0  0
  180.6930  182.0670  135.2190 C   0  0  0  0  0  1  0  0  0  0  0  0
  180.4410  181.9390  136.7100 C   0  0  2  0  0  0  0  0  0  0  0  0
  180.9080  183.2180  137.3890 C   0  0  0  0  0  2  0  0  0  0  0  0
  180.3000  184.3330  136.8120 O   0  0  0  0  0  0  0  0  0  0  0  0
  179.7070  185.0010  137.8820 C   0  0  0  0  0  1  0  0  0  0  0  0
  1  9  1  6  0  0  0
  1 13  1  0  0  0  0
  2  5  1  0  0  0  0
  3 35  1  6  0  0  0
  3  6  1  0  0  0  0
  4 14  1  0  0  0  0
  6  4  1  0  0  0  0
  7 11  1  0  0  0  0
  7  3  1  0  0  0  0
  9 14  1  0  0  0  0
 10  5  1  1  0  0  0
 10  1  1  0  0  0  0
 10 13  1  0  0  0  0
 11  8  1  0  0  0  0
 12  8  1  0  0  0  0
 12  2  1  0  0  0  0
 13 22  1  1  0  0  0
 14 15  1  6  0  0  0
 16 15  1  6  0  0  0
 16 18  1  0  0  0  0
 16 17  1  0  0  0  0
 17 19  1  6  0  0  0
 18 17  1  0  0  0  0
 19 21  1  0  0  0  0
 21 20  1  0  0  0  0
 22 23  1  0  0  0  0
 23 25  1  0  0  0  0
 24 25  2  0  0  0  0
 25 28  1  0  0  0  0
 26 27  1  0  0  0  0
 28 26  2  0  0  0  0
 28 29  1  0  0  0  0
 30 34  2  0  0  0  0
 31 29  1  6  0  0  0
 31 30  1  0  0  0  0
 32 31  1  0  0  0  0
 32 33  2  0  0  0  0
 33 34  1  0  0  0  0
 35 36  1  0  0  0  0
 36 37  1  0  0  0  0
 37 38  1  0  0  0  0
 39 40  1  0  0  0  0
 39 38  1  0  0  0  0
 41 39  2  0  0  0  0
 44 43  1  6  0  0  0
 44 42  1  0  0  0  0
 44 40  1  0  0  0  0
 44 45  1  0  0  0  0
 46 45  1  0  0  0  0
 46 47  1  0  0  0  0
M  END
>  <MODEL>
4

>  <REMARK>
 VINA RESULT:      -6.7      3.037     10.213
  Name = 
  17 active torsions:
  status: ('A' for Active; 'I' for Inactive)
    1  A    between atoms: N_1  and  C_38
    2  A    between atoms: C_2  and  C_31
    3  A    between atoms: C_4  and  C_14
    4  A    between atoms: C_4  and  C_47
    5  A    between atoms: C_6  and  C_18
    6  A    between atoms: C_6  and  C_41
    7  A    between atoms: C_9  and  C_12
    8  A    between atoms: C_9  and  C_39
    9  A    between atoms: O_15  and  C_32
   10  A    between atoms: C_16  and  C_36
   11  A    between atoms: C_18  and  C_47
   12  A    between atoms: C_31  and  C_46
   13  A    between atoms: C_32  and  C_42
   14  A    between atoms: C_36  and  C_37
   15  A    between atoms: C_38  and  C_40
   16  A    between atoms: C_39  and  C_45
   17  A    between atoms: C_42  and  N_43
                            x       y       z     vdW  Elec       q    Type
                         _______ _______ _______ _____ _____    ______ ____

>  <TORSDO>
F 17

$$$$
=
 OpenBabel11062417033D

 47 50  0  0  1  0  0  0  0  0999 V2000
  190.2960  177.5160  140.7550 C   0  0  1  0  0  3  0  0  0  0  0  0
  191.3050  176.3460  143.7430 N   0  0  0  0  0  2  0  0  0  0  0  0
  186.8590  178.3320  143.5950 C   0  0  2  0  0  3  0  0  0  0  0  0
  187.7430  178.8600  141.3520 C   0  0  0  0  0  2  0  0  0  0  0  0
  191.6490  176.9830  142.5410 N   0  0  0  0  0  2  0  0  0  0  0  0
  187.0920  177.7750  142.1970 C   0  0  0  0  0  2  0  0  0  0  0  0
  187.2430  177.3500  144.7080 C   0  0  0  0  0  2  0  0  0  0  0  0
  189.6280  177.8050  144.2760 N   0  0  0  0  0  2  0  0  0  0  0  0
  189.0510  177.1320  140.2500 O   0  0  0  0  0  0  0  0  0  0  0  0
  190.8420  176.4040  141.5480 N   0  0  2  0  0  0  0  0  0  0  0  0
  188.6470  176.7670  144.5700 C   0  0  0  0  0  2  0  0  0  0  0  0
  190.9000  177.3380  144.6570 N   0  0  0  0  0  2  0  0  0  0  0  0
  191.3490  176.6870  140.1800 C   0  0  2  0  0  3  0  0  0  0  0  0
  188.3290  178.3170  140.0440 C   0  0  1  0  0  3  0  0  0  0  0  0
  187.2170  178.0780  139.0370 C   0  0  0  0  0  2  0  0  0  0  0  0
  187.7960  177.5670  137.7190 C   0  0  1  0  0  3  0  0  0  0  0  0
  186.7560  177.1890  136.6580 C   0  0  2  0  0  3  0  0  0  0  0  0
  187.4530  178.5350  136.6050 C   0  0  0  0  0  2  0  0  0  0  0  0
  185.3070  177.3850  137.0840 C   0  0  0  0  0  2  0  0  0  0  0  0
  185.0300  176.7400  134.8140 O   0  0  0  0  0  1  0  0  0  0  0  0
  184.3860  176.7730  136.0510 C   0  0  0  0  0  2  0  0  0  0  0  0
  192.6730  177.4550  140.1300 C   0  0  0  0  0  2  0  0  0  0  0  0
  193.5530  176.8780  139.1230 N   0  0  0  0  0  2  0  0  0  0  0  0
  191.9170  176.7500  137.4600 O   0  0  0  0  0  0  0  0  0  0  0  0
  193.1170  176.5500  137.8000 C   0  0  0  0  0  0  0  0  0  0  0  0
  194.6870  176.7790  136.0070 N   0  0  0  0  0  0  0  0  0  0  0  0
  195.5800  176.2990  135.0750 O   0  0  0  0  0  1  0  0  0  0  0  0
  194.0690  175.9880  136.8310 C   0  0  0  0  0  0  0  0  0  0  0  0
  194.2910  174.5040  136.7850 C   0  0  0  0  0  2  0  0  0  0  0  0
  195.0540  173.0100  138.5510 N   0  0  0  0  0  0  0  0  0  0  0  0
  195.4560  174.1020  137.6820 C   0  0  1  0  0  3  0  0  0  0  0  0
  196.5620  173.4840  136.8860 C   0  0  0  0  0  3  0  0  0  0  0  0
  196.7110  172.2420  137.3190 C   0  0  0  0  0  3  0  0  0  0  0  0
  195.7660  171.9810  138.3450 N   0  0  0  0  0  0  0  0  0  0  0  0
  185.4250  178.8310  143.7640 C   0  0  0  0  0  2  0  0  0  0  0  0
  184.8980  178.5760  145.1680 C   0  0  0  0  0  2  0  0  0  0  0  0
  183.3820  178.6290  145.1640 C   0  0  0  0  0  2  0  0  0  0  0  0
  182.8870  179.4820  144.0060 C   0  0  0  0  0  2  0  0  0  0  0  0
  181.5750  178.9820  143.5050 C   0  0  0  0  0  0  0  0  0  0  0  0
  181.3310  178.9360  142.0940 N   0  0  0  0  0  2  0  0  0  0  0  0
  180.6830  178.6350  144.3250 O   0  0  0  0  0  0  0  0  0  0  0  0
  179.5320  177.4470  142.2350 O   0  0  0  0  0  1  0  0  0  0  0  0
  180.3160  178.0320  140.0670 C   0  0  0  0  0  1  0  0  0  0  0  0
  180.0750  178.4970  141.4910 C   0  0  2  0  0  0  0  0  0  0  0  0
  179.0940  179.6580  141.4600 C   0  0  0  0  0  2  0  0  0  0  0  0
  179.7730  180.8760  141.4160 O   0  0  0  0  0  0  0  0  0  0  0  0
  179.2210  181.5460  140.3250 C   0  0  0  0  0  1  0  0  0  0  0  0
  1  9  1  6  0  0  0
  1 10  1  0  0  0  0
  2 12  1  0  0  0  0
  3 35  1  6  0  0  0
  3  7  1  0  0  0  0
  4  6  1  0  0  0  0
  5  2  1  0  0  0  0
  6  3  1  0  0  0  0
  8 11  1  0  0  0  0
  8 12  1  0  0  0  0
 10  5  1  1  0  0  0
 11  7  1  0  0  0  0
 13 22  1  1  0  0  0
 13  1  1  0  0  0  0
 13 10  1  0  0  0  0
 14 15  1  6  0  0  0
 14  9  1  0  0  0  0
 14  4  1  0  0  0  0
 16 15  1  1  0  0  0
 17 19  1  1  0  0  0
 17 16  1  0  0  0  0
 18 17  1  0  0  0  0
 18 16  1  0  0  0  0
 20 21  1  0  0  0  0
 21 19  1  0  0  0  0
 23 22  1  0  0  0  0
 24 25  2  0  0  0  0
 25 23  1  0  0  0  0
 26 28  2  0  0  0  0
 27 26  1  0  0  0  0
 28 25  1  0  0  0  0
 29 28  1  0  0  0  0
 31 29  1  6  0  0  0
 31 30  1  0  0  0  0
 32 33  2  0  0  0  0
 32 31  1  0  0  0  0
 33 34  1  0  0  0  0
 34 30  2  0  0  0  0
 35 36  1  0  0  0  0
 37 36  1  0  0  0  0
 38 37  1  0  0  0  0
 39 38  1  0  0  0  0
 39 41  2  0  0  0  0
 40 39  1  0  0  0  0
 44 43  1  6  0  0  0
 44 40  1  0  0  0  0
 44 42  1  0  0  0  0
 45 44  1  0  0  0  0
 46 45  1  0  0  0  0
 47 46  1  0  0  0  0
M  END
>  <MODEL>
5

>  <REMARK>
 VINA RESULT:      -6.6      3.804      8.624
  Name = 
  17 active torsions:
  status: ('A' for Active; 'I' for Inactive)
    1  A    between atoms: N_1  and  C_38
    2  A    between atoms: C_2  and  C_31
    3  A    between atoms: C_4  and  C_14
    4  A    between atoms: C_4  and  C_47
    5  A    between atoms: C_6  and  C_18
    6  A    between atoms: C_6  and  C_41
    7  A    between atoms: C_9  and  C_12
    8  A    between atoms: C_9  and  C_39
    9  A    between atoms: O_15  and  C_32
   10  A    between atoms: C_16  and  C_36
   11  A    between atoms: C_18  and  C_47
   12  A    between atoms: C_31  and  C_46
   13  A    between atoms: C_32  and  C_42
   14  A    between atoms: C_36  and  C_37
   15  A    between atoms: C_38  and  C_40
   16  A    between atoms: C_39  and  C_45
   17  A    between atoms: C_42  and  N_43
                            x       y       z     vdW  Elec       q    Type
                         _______ _______ _______ _____ _____    ______ ____

>  <TORSDO>
F 17

$$$$
=
 OpenBabel11062417033D

 47 50  0  0  1  0  0  0  0  0999 V2000
  183.8690  178.9300  141.5130 C   0  0  1  0  0  3  0  0  0  0  0  0
  180.9200  179.0530  143.1250 N   0  0  0  0  0  2  0  0  0  0  0  0
  180.8100  180.0180  138.3520 C   0  0  2  0  0  3  0  0  0  0  0  0
  183.2330  179.9050  138.8070 C   0  0  0  0  0  2  0  0  0  0  0  0
  182.3010  179.2940  143.1610 N   0  0  0  0  0  2  0  0  0  0  0  0
  181.9880  179.0730  138.5380 C   0  0  0  0  0  2  0  0  0  0  0  0
  179.5450  179.5630  139.0890 C   0  0  0  0  0  2  0  0  0  0  0  0
  180.5460  180.2720  141.2280 N   0  0  0  0  0  2  0  0  0  0  0  0
  183.9830  178.1760  140.3430 O   0  0  0  0  0  0  0  0  0  0  0  0
  182.8950  178.2750  142.3990 N   0  0  2  0  0  0  0  0  0  0  0  0
  179.7660  179.2350  140.5640 C   0  0  0  0  0  2  0  0  0  0  0  0
  180.2930  180.2040  142.6110 N   0  0  0  0  0  2  0  0  0  0  0  0
  184.3550  178.1630  142.6550 C   0  0  2  0  0  3  0  0  0  0  0  0
  184.3990  179.0660  139.3420 C   0  0  1  0  0  3  0  0  0  0  0  0
  185.0510  178.2990  138.2040 C   0  0  0  0  0  2  0  0  0  0  0  0
  186.5590  178.2050  138.4240 C   0  0  1  0  0  3  0  0  0  0  0  0
  187.2690  177.1250  137.5980 C   0  0  2  0  0  3  0  0  0  0  0  0
  187.2830  178.5730  137.1460 C   0  0  0  0  0  2  0  0  0  0  0  0
  186.3570  176.3180  136.6830 C   0  0  0  0  0  2  0  0  0  0  0  0
  187.2400  175.0600  134.8720 O   0  0  0  0  0  1  0  0  0  0  0  0
  186.8960  176.3510  135.2700 C   0  0  0  0  0  2  0  0  0  0  0  0
  184.8910  179.0970  143.7440 C   0  0  0  0  0  2  0  0  0  0  0  0
  185.9880  178.4600  144.4600 N   0  0  0  0  0  2  0  0  0  0  0  0
  185.3740  179.2810  146.5600 O   0  0  0  0  0  0  0  0  0  0  0  0
  186.1740  178.5860  145.8740 C   0  0  0  0  0  0  0  0  0  0  0  0
  187.4250  177.9700  147.8200 N   0  0  0  0  0  0  0  0  0  0  0  0
  188.4630  177.3500  148.4800 O   0  0  0  0  0  1  0  0  0  0  0  0
  187.2950  177.8970  146.5300 C   0  0  0  0  0  0  0  0  0  0  0  0
  188.2920  177.1440  145.6980 C   0  0  0  0  0  2  0  0  0  0  0  0
  190.7140  177.3110  145.8860 N   0  0  0  0  0  0  0  0  0  0  0  0
  189.5220  177.9990  145.4210 C   0  0  1  0  0  3  0  0  0  0  0  0
  189.7780  178.1180  143.9510 C   0  0  0  0  0  3  0  0  0  0  0  0
  190.9620  177.5770  143.7120 C   0  0  0  0  0  3  0  0  0  0  0  0
  191.5130  177.0890  144.9250 N   0  0  0  0  0  0  0  0  0  0  0  0
  180.5290  180.2740  136.8720 C   0  0  0  0  0  2  0  0  0  0  0  0
  181.0410  179.1400  135.9950 C   0  0  0  0  0  2  0  0  0  0  0  0
  179.8710  178.4340  135.3370 C   0  0  0  0  0  2  0  0  0  0  0  0
  180.2400  176.9950  135.0100 C   0  0  0  0  0  2  0  0  0  0  0  0
  180.5050  176.2200  136.2570 C   0  0  0  0  0  0  0  0  0  0  0  0
  181.7050  175.4450  136.3640 N   0  0  0  0  0  2  0  0  0  0  0  0
  179.6580  176.2290  137.1900 O   0  0  0  0  0  0  0  0  0  0  0  0
  180.9400  173.8880  137.9340 O   0  0  0  0  0  1  0  0  0  0  0  0
  182.5230  175.5080  138.6620 C   0  0  0  0  0  1  0  0  0  0  0  0
  182.0520  174.6250  137.5210 C   0  0  2  0  0  0  0  0  0  0  0  0
  183.1810  173.6760  137.1500 C   0  0  0  0  0  2  0  0  0  0  0  0
  184.2790  173.8630  137.9910 O   0  0  0  0  0  0  0  0  0  0  0  0
  185.2140  172.9230  137.5610 C   0  0  0  0  0  1  0  0  0  0  0  0
  1  9  1  6  0  0  0
  1 10  1  0  0  0  0
  1 13  1  0  0  0  0
  2  5  1  0  0  0  0
  3 35  1  6  0  0  0
  3  6  1  0  0  0  0
  3  7  1  0  0  0  0
  4 14  1  0  0  0  0
  6  4  1  0  0  0  0
  7 11  1  0  0  0  0
  8 12  1  0  0  0  0
 10 13  1  0  0  0  0
 10  5  1  1  0  0  0
 11  8  1  0  0  0  0
 12  2  1  0  0  0  0
 13 22  1  1  0  0  0
 14 15  1  6  0  0  0
 14  9  1  0  0  0  0
 16 15  1  6  0  0  0
 17 19  1  6  0  0  0
 17 16  1  0  0  0  0
 18 17  1  0  0  0  0
 18 16  1  0  0  0  0
 20 21  1  0  0  0  0
 21 19  1  0  0  0  0
 22 23  1  0  0  0  0
 23 25  1  0  0  0  0
 25 28  1  0  0  0  0
 25 24  2  0  0  0  0
 26 27  1  0  0  0  0
 28 26  2  0  0  0  0
 29 28  1  0  0  0  0
 31 29  1  6  0  0  0
 31 30  1  0  0  0  0
 32 31  1  0  0  0  0
 33 32  2  0  0  0  0
 33 34  1  0  0  0  0
 34 30  2  0  0  0  0
 36 35  1  0  0  0  0
 37 36  1  0  0  0  0
 38 37  1  0  0  0  0
 38 39  1  0  0  0  0
 39 40  1  0  0  0  0
 39 41  2  0  0  0  0
 40 44  1  0  0  0  0
 44 42  1  0  0  0  0
 44 43  1  1  0  0  0
 45 44  1  0  0  0  0
 45 46  1  0  0  0  0
 47 46  1  0  0  0  0
M  END
>  <MODEL>
6

>  <REMARK>
 VINA RESULT:      -6.6      2.869      8.670
  Name = 
  17 active torsions:
  status: ('A' for Active; 'I' for Inactive)
    1  A    between atoms: N_1  and  C_38
    2  A    between atoms: C_2  and  C_31
    3  A    between atoms: C_4  and  C_14
    4  A    between atoms: C_4  and  C_47
    5  A    between atoms: C_6  and  C_18
    6  A    between atoms: C_6  and  C_41
    7  A    between atoms: C_9  and  C_12
    8  A    between atoms: C_9  and  C_39
    9  A    between atoms: O_15  and  C_32
   10  A    between atoms: C_16  and  C_36
   11  A    between atoms: C_18  and  C_47
   12  A    between atoms: C_31  and  C_46
   13  A    between atoms: C_32  and  C_42
   14  A    between atoms: C_36  and  C_37
   15  A    between atoms: C_38  and  C_40
   16  A    between atoms: C_39  and  C_45
   17  A    between atoms: C_42  and  N_43
                            x       y       z     vdW  Elec       q    Type
                         _______ _______ _______ _____ _____    ______ ____

>  <TORSDO>
F 17

$$$$
=
 OpenBabel11062417033D

 47 50  0  0  1  0  0  0  0  0999 V2000
  191.5660  176.4720  139.2120 C   0  0  1  0  0  3  0  0  0  0  0  0
  189.8320  176.9370  136.3680 N   0  0  0  0  0  2  0  0  0  0  0  0
  187.5090  178.0190  140.5110 C   0  0  2  0  0  3  0  0  0  0  0  0
  189.5820  176.9620  141.3340 C   0  0  0  0  0  2  0  0  0  0  0  0
  190.7690  176.1670  137.0730 N   0  0  0  0  0  2  0  0  0  0  0  0
  188.9830  178.2580  140.8080 C   0  0  0  0  0  2  0  0  0  0  0  0
  187.0550  178.6220  139.1760 C   0  0  0  0  0  2  0  0  0  0  0  0
  188.2090  176.8060  137.9720 N   0  0  0  0  0  2  0  0  0  0  0  0
  191.6370  177.5030  140.1520 O   0  0  0  0  0  0  0  0  0  0  0  0
  191.4950  177.0670  137.8690 N   0  0  2  0  0  0  0  0  0  0  0  0
  187.9310  178.2370  137.9860 C   0  0  0  0  0  2  0  0  0  0  0  0
  188.5510  176.4310  136.6590 N   0  0  0  0  0  2  0  0  0  0  0  0
  192.7610  176.4730  138.3750 C   0  0  2  0  0  3  0  0  0  0  0  0
  191.1140  176.9820  141.3450 C   0  0  1  0  0  3  0  0  0  0  0  0
  191.6140  177.7950  142.5280 C   0  0  0  0  0  2  0  0  0  0  0  0
  190.4350  178.3410  143.3320 C   0  0  1  0  0  3  0  0  0  0  0  0
  190.4720  178.0250  144.8320 C   0  0  2  0  0  3  0  0  0  0  0  0
  190.9300  179.3770  144.3190 C   0  0  0  0  0  2  0  0  0  0  0  0
  191.6810  177.2190  145.2860 C   0  0  0  0  0  2  0  0  0  0  0  0
  192.3800  175.5560  146.8320 O   0  0  0  0  0  1  0  0  0  0  0  0
  191.3150  176.3910  146.4980 C   0  0  0  0  0  2  0  0  0  0  0  0
  193.0600  175.0620  137.8600 C   0  0  0  0  0  2  0  0  0  0  0  0
  194.3830  175.0170  137.2520 N   0  0  0  0  0  2  0  0  0  0  0  0
  195.4310  174.0440  139.1000 O   0  0  0  0  0  0  0  0  0  0  0  0
  195.5330  174.4900  137.9240 C   0  0  0  0  0  0  0  0  0  0  0  0
  197.2680  175.5270  136.6410 N   0  0  0  0  0  0  0  0  0  0  0  0
  198.4740  175.5450  135.9770 O   0  0  0  0  0  1  0  0  0  0  0  0
  196.8320  174.4590  137.2380 C   0  0  0  0  0  0  0  0  0  0  0  0
  197.6260  173.1850  137.2100 C   0  0  0  0  0  2  0  0  0  0  0  0
  197.9790  171.1180  135.9720 N   0  0  0  0  0  0  0  0  0  0  0  0
  197.4550  172.4690  135.8760 C   0  0  1  0  0  3  0  0  0  0  0  0
  196.0090  172.2280  135.5740 C   0  0  0  0  0  3  0  0  0  0  0  0
  195.8350  170.9180  135.5040 C   0  0  0  0  0  3  0  0  0  0  0  0
  197.0680  170.2620  135.7540 N   0  0  0  0  0  0  0  0  0  0  0  0
  186.6250  178.4900  141.6640 C   0  0  0  0  0  2  0  0  0  0  0  0
  185.1530  178.5090  141.2770 C   0  0  0  0  0  2  0  0  0  0  0  0
  184.2980  178.2540  142.5030 C   0  0  0  0  0  2  0  0  0  0  0  0
  184.2230  179.5060  143.3640 C   0  0  0  0  0  2  0  0  0  0  0  0
  184.3880  179.1660  144.8070 C   0  0  0  0  0  0  0  0  0  0  0  0
  185.7050  178.9950  145.3440 N   0  0  0  0  0  2  0  0  0  0  0  0
  183.3700  179.0020  145.5310 O   0  0  0  0  0  0  0  0  0  0  0  0
  184.9800  177.7940  147.2170 O   0  0  0  0  0  1  0  0  0  0  0  0
  186.0590  179.8800  147.5910 C   0  0  0  0  0  1  0  0  0  0  0  0
  185.9850  178.6320  146.7310 C   0  0  2  0  0  0  0  0  0  0  0  0
  187.3250  177.9150  146.8070 C   0  0  0  0  0  2  0  0  0  0  0  0
  187.5810  177.4860  148.1100 O   0  0  0  0  0  0  0  0  0  0  0  0
  188.7580  178.1410  148.4690 C   0  0  0  0  0  1  0  0  0  0  0  0
  1  9  1  1  0  0  0
  2 12  1  0  0  0  0
  2  5  1  0  0  0  0
  3  6  1  0  0  0  0
  3 35  1  1  0  0  0
  4 14  1  0  0  0  0
  6  4  1  0  0  0  0
  7  3  1  0  0  0  0
  8 11  1  0  0  0  0
  9 14  1  0  0  0  0
 10  5  1  6  0  0  0
 10 13  1  0  0  0  0
 10  1  1  0  0  0  0
 11  7  1  0  0  0  0
 12  8  1  0  0  0  0
 13 22  1  6  0  0  0
 13  1  1  0  0  0  0
 14 15  1  1  0  0  0
 16 15  1  6  0  0  0
 16 18  1  0  0  0  0
 16 17  1  0  0  0  0
 17 19  1  6  0  0  0
 18 17  1  0  0  0  0
 19 21  1  0  0  0  0
 21 20  1  0  0  0  0
 23 22  1  0  0  0  0
 23 25  1  0  0  0  0
 25 24  2  0  0  0  0
 26 28  2  0  0  0  0
 27 26  1  0  0  0  0
 28 25  1  0  0  0  0
 29 28  1  0  0  0  0
 31 30  1  0  0  0  0
 31 29  1  1  0  0  0
 32 31  1  0  0  0  0
 33 32  2  0  0  0  0
 33 34  1  0  0  0  0
 34 30  2  0  0  0  0
 36 35  1  0  0  0  0
 36 37  1  0  0  0  0
 37 38  1  0  0  0  0
 38 39  1  0  0  0  0
 39 40  1  0  0  0  0
 39 41  2  0  0  0  0
 40 44  1  0  0  0  0
 44 45  1  0  0  0  0
 44 42  1  0  0  0  0
 44 43  1  1  0  0  0
 45 46  1  0  0  0  0
 46 47  1  0  0  0  0
M  END
>  <MODEL>
7

>  <REMARK>
 VINA RESULT:      -6.4      4.446      8.085
  Name = 
  17 active torsions:
  status: ('A' for Active; 'I' for Inactive)
    1  A    between atoms: N_1  and  C_38
    2  A    between atoms: C_2  and  C_31
    3  A    between atoms: C_4  and  C_14
    4  A    between atoms: C_4  and  C_47
    5  A    between atoms: C_6  and  C_18
    6  A    between atoms: C_6  and  C_41
    7  A    between atoms: C_9  and  C_12
    8  A    between atoms: C_9  and  C_39
    9  A    between atoms: O_15  and  C_32
   10  A    between atoms: C_16  and  C_36
   11  A    between atoms: C_18  and  C_47
   12  A    between atoms: C_31  and  C_46
   13  A    between atoms: C_32  and  C_42
   14  A    between atoms: C_36  and  C_37
   15  A    between atoms: C_38  and  C_40
   16  A    between atoms: C_39  and  C_45
   17  A    between atoms: C_42  and  N_43
                            x       y       z     vdW  Elec       q    Type
                         _______ _______ _______ _____ _____    ______ ____

>  <TORSDO>
F 17

$$$$
=
 OpenBabel11062417033D

 47 50  0  0  1  0  0  0  0  0999 V2000
  189.7410  177.3930  140.8600 C   0  0  1  0  0  3  0  0  0  0  0  0
  186.5100  178.2110  141.3100 N   0  0  0  0  0  2  0  0  0  0  0  0
  187.9620  177.6200  136.6980 C   0  0  2  0  0  3  0  0  0  0  0  0
  190.0930  177.5000  137.9370 C   0  0  0  0  0  2  0  0  0  0  0  0
  187.8410  178.3610  141.7290 N   0  0  0  0  0  2  0  0  0  0  0  0
  188.8640  176.7080  137.5180 C   0  0  0  0  0  2  0  0  0  0  0  0
  186.4810  177.5050  137.0740 C   0  0  0  0  0  2  0  0  0  0  0  0
  186.9130  178.7890  139.1350 N   0  0  0  0  0  2  0  0  0  0  0  0
  190.0690  176.3010  140.0520 O   0  0  0  0  0  0  0  0  0  0  0  0
  188.4580  177.1160  141.5220 N   0  0  2  0  0  0  0  0  0  0  0  0
  186.2030  177.6480  138.5690 C   0  0  0  0  0  2  0  0  0  0  0  0
  186.2580  179.1780  140.3180 N   0  0  0  0  0  2  0  0  0  0  0  0
  189.7400  176.9970  142.2640 C   0  0  2  0  0  3  0  0  0  0  0  0
  190.8990  176.8000  139.0370 C   0  0  1  0  0  3  0  0  0  0  0  0
  191.7220  175.6710  138.4390 C   0  0  0  0  0  2  0  0  0  0  0  0
  192.4320  176.1460  137.1730 C   0  0  1  0  0  3  0  0  0  0  0  0
  193.9170  175.7740  137.0840 C   0  0  2  0  0  3  0  0  0  0  0  0
  192.8720  174.9470  136.3580 C   0  0  0  0  0  2  0  0  0  0  0  0
  194.4500  174.9850  138.2730 C   0  0  0  0  0  2  0  0  0  0  0  0
  195.3820  172.8860  138.8780 O   0  0  0  0  0  1  0  0  0  0  0  0
  194.6990  173.5510  137.8610 C   0  0  0  0  0  2  0  0  0  0  0  0
  190.0780  178.1900  143.1610 C   0  0  0  0  0  2  0  0  0  0  0  0
  189.2000  178.2120  144.3240 N   0  0  0  0  0  2  0  0  0  0  0  0
  190.6200  176.9510  145.6850 O   0  0  0  0  0  0  0  0  0  0  0  0
  189.5290  177.5760  145.5630 C   0  0  0  0  0  0  0  0  0  0  0  0
  188.7690  176.8760  147.7220 N   0  0  0  0  0  0  0  0  0  0  0  0
  187.9190  176.9080  148.8060 O   0  0  0  0  0  1  0  0  0  0  0  0
  188.6000  177.6570  146.6990 C   0  0  0  0  0  0  0  0  0  0  0  0
  187.4500  178.6220  146.6490 C   0  0  0  0  0  2  0  0  0  0  0  0
  185.0260  178.6180  146.8800 N   0  0  0  0  0  0  0  0  0  0  0  0
  186.1520  177.8990  146.3100 C   0  0  1  0  0  3  0  0  0  0  0  0
  185.8630  177.9680  144.8440 C   0  0  0  0  0  3  0  0  0  0  0  0
  184.7210  178.6210  144.6980 C   0  0  0  0  0  3  0  0  0  0  0  0
  184.2310  179.0080  145.9720 N   0  0  0  0  0  0  0  0  0  0  0  0
  188.1730  177.4120  135.1990 C   0  0  0  0  0  2  0  0  0  0  0  0
  189.0210  176.1810  134.9130 C   0  0  0  0  0  2  0  0  0  0  0  0
  188.1210  174.9910  134.6390 C   0  0  0  0  0  2  0  0  0  0  0  0
  188.4500  173.8510  135.5890 C   0  0  0  0  0  2  0  0  0  0  0  0
  187.2050  173.2730  136.1740 C   0  0  0  0  0  0  0  0  0  0  0  0
  186.0110  174.0630  136.2090 N   0  0  0  0  0  2  0  0  0  0  0  0
  187.2230  172.1100  136.6580 O   0  0  0  0  0  0  0  0  0  0  0  0
  184.9810  172.9300  137.9780 O   0  0  0  0  0  1  0  0  0  0  0  0
  184.0290  172.6950  135.8110 C   0  0  0  0  0  1  0  0  0  0  0  0
  184.7460  173.6140  136.7840 C   0  0  2  0  0  0  0  0  0  0  0  0
  183.8550  174.8170  137.0540 C   0  0  0  0  0  2  0  0  0  0  0  0
  183.5720  174.9240  138.4160 O   0  0  0  0  0  0  0  0  0  0  0  0
  182.3710  175.6300  138.4690 C   0  0  0  0  0  1  0  0  0  0  0  0
  1  9  1  6  0  0  0
  1 10  1  0  0  0  0
  1 13  1  0  0  0  0
  2  5  1  0  0  0  0
  3 35  1  6  0  0  0
  3  7  1  0  0  0  0
  3  6  1  0  0  0  0
  4 14  1  0  0  0  0
  6  4  1  0  0  0  0
  7 11  1  0  0  0  0
  8 12  1  0  0  0  0
 10  5  1  1  0  0  0
 10 13  1  0  0  0  0
 11  8  1  0  0  0  0
 12  2  1  0  0  0  0
 13 22  1  1  0  0  0
 14 15  1  6  0  0  0
 14  9  1  0  0  0  0
 16 15  1  1  0  0  0
 17 16  1  0  0  0  0
 17 19  1  1  0  0  0
 18 17  1  0  0  0  0
 18 16  1  0  0  0  0
 21 19  1  0  0  0  0
 21 20  1  0  0  0  0
 22 23  1  0  0  0  0
 23 25  1  0  0  0  0
 25 24  2  0  0  0  0
 25 28  1  0  0  0  0
 26 27  1  0  0  0  0
 28 26  2  0  0  0  0
 29 28  1  0  0  0  0
 31 29  1  6  0  0  0
 31 30  1  0  0  0  0
 32 31  1  0  0  0  0
 33 32  2  0  0  0  0
 33 34  1  0  0  0  0
 34 30  2  0  0  0  0
 36 35  1  0  0  0  0
 37 36  1  0  0  0  0
 37 38  1  0  0  0  0
 38 39  1  0  0  0  0
 39 40  1  0  0  0  0
 39 41  2  0  0  0  0
 40 44  1  0  0  0  0
 44 43  1  6  0  0  0
 44 45  1  0  0  0  0
 44 42  1  0  0  0  0
 45 46  1  0  0  0  0
 46 47  1  0  0  0  0
M  END
>  <MODEL>
8

>  <REMARK>
 VINA RESULT:      -6.4      2.785      9.512
  Name = 
  17 active torsions:
  status: ('A' for Active; 'I' for Inactive)
    1  A    between atoms: N_1  and  C_38
    2  A    between atoms: C_2  and  C_31
    3  A    between atoms: C_4  and  C_14
    4  A    between atoms: C_4  and  C_47
    5  A    between atoms: C_6  and  C_18
    6  A    between atoms: C_6  and  C_41
    7  A    between atoms: C_9  and  C_12
    8  A    between atoms: C_9  and  C_39
    9  A    between atoms: O_15  and  C_32
   10  A    between atoms: C_16  and  C_36
   11  A    between atoms: C_18  and  C_47
   12  A    between atoms: C_31  and  C_46
   13  A    between atoms: C_32  and  C_42
   14  A    between atoms: C_36  and  C_37
   15  A    between atoms: C_38  and  C_40
   16  A    between atoms: C_39  and  C_45
   17  A    between atoms: C_42  and  N_43
                            x       y       z     vdW  Elec       q    Type
                         _______ _______ _______ _____ _____    ______ ____

>  <TORSDO>
F 17

$$$$
=
 OpenBabel11062417033D

 47 50  0  0  1  0  0  0  0  0999 V2000
  187.0640  178.3610  141.8970 C   0  0  1  0  0  3  0  0  0  0  0  0
  185.4230  178.3170  138.9610 N   0  0  0  0  0  2  0  0  0  0  0  0
  190.2010  177.3860  138.7740 C   0  0  2  0  0  3  0  0  0  0  0  0
  189.8920  178.0690  141.1250 C   0  0  0  0  0  2  0  0  0  0  0  0
  185.5670  178.8970  140.2310 N   0  0  0  0  0  2  0  0  0  0  0  0
  189.7580  176.9090  140.1500 C   0  0  0  0  0  2  0  0  0  0  0  0
  189.2690  176.9300  137.6460 C   0  0  0  0  0  2  0  0  0  0  0  0
  187.6070  178.6100  138.3520 N   0  0  0  0  0  2  0  0  0  0  0  0
  187.8830  177.2830  142.2440 O   0  0  0  0  0  0  0  0  0  0  0  0
  185.9400  177.8550  141.0960 N   0  0  2  0  0  0  0  0  0  0  0  0
  187.7930  177.2390  137.8910 C   0  0  0  0  0  2  0  0  0  0  0  0
  186.2820  178.9960  138.0760 N   0  0  0  0  0  2  0  0  0  0  0  0
  185.7550  178.2210  142.5250 C   0  0  2  0  0  3  0  0  0  0  0  0
  189.1640  177.8140  142.4490 C   0  0  1  0  0  3  0  0  0  0  0  0
  189.9820  176.8730  143.3190 C   0  0  0  0  0  2  0  0  0  0  0  0
  190.6530  177.6470  144.4520 C   0  0  1  0  0  3  0  0  0  0  0  0
  189.8050  177.8040  145.7200 C   0  0  2  0  0  3  0  0  0  0  0  0
  190.8700  176.7270  145.6360 C   0  0  0  0  0  2  0  0  0  0  0  0
  188.4270  177.1600  145.6520 C   0  0  0  0  0  2  0  0  0  0  0  0
  186.1260  177.5380  146.1020 O   0  0  0  0  0  1  0  0  0  0  0  0
  187.3870  178.1280  146.1710 C   0  0  0  0  0  2  0  0  0  0  0  0
  185.1210  179.5950  142.7600 C   0  0  0  0  0  2  0  0  0  0  0  0
  183.6750  179.5170  142.5970 N   0  0  0  0  0  2  0  0  0  0  0  0
  183.2720  178.6190  144.7160 O   0  0  0  0  0  0  0  0  0  0  0  0
  182.8000  179.0230  143.6170 C   0  0  0  0  0  0  0  0  0  0  0  0
  180.5560  178.6080  144.3410 N   0  0  0  0  0  0  0  0  0  0  0  0
  179.1910  178.5530  144.1710 O   0  0  0  0  0  1  0  0  0  0  0  0
  181.3490  178.9930  143.3870 C   0  0  0  0  0  0  0  0  0  0  0  0
  180.8030  179.3800  142.0430 C   0  0  0  0  0  2  0  0  0  0  0  0
  179.4210  178.0570  140.5360 N   0  0  0  0  0  2  0  0  0  0  0  0
  180.7490  178.1730  141.1130 C   0  0  1  0  0  3  0  0  0  0  0  0
  181.6030  178.3850  139.9030 C   0  0  0  0  0  2  0  0  0  0  0  0
  180.8050  178.3550  138.8480 C   0  0  0  0  0  3  0  0  0  0  0  0
  179.4670  178.1510  139.2710 N   0  0  0  0  0  0  0  0  0  0  0  0
  191.6500  176.9950  138.4900 C   0  0  0  0  0  2  0  0  0  0  0  0
  191.7650  175.5540  138.0150 C   0  0  0  0  0  2  0  0  0  0  0  0
  193.1310  175.3270  137.3930 C   0  0  0  0  0  2  0  0  0  0  0  0
  193.5870  173.8960  137.6330 C   0  0  0  0  0  2  0  0  0  0  0  0
  195.0310  173.7380  137.2960 C   0  0  0  0  0  0  0  0  0  0  0  0
  195.8430  174.9040  137.1110 N   0  0  0  0  0  2  0  0  0  0  0  0
  195.5160  172.5840  137.1470 O   0  0  0  0  0  0  0  0  0  0  0  0
  197.6570  176.1190  136.2700 O   0  0  0  0  0  1  0  0  0  0  0  0
  197.4960  173.8210  135.6780 C   0  0  0  0  0  1  0  0  0  0  0  0
  197.2580  174.8700  136.7490 C   0  0  2  0  0  0  0  0  0  0  0  0
  198.0860  174.5060  137.9720 C   0  0  0  0  0  2  0  0  0  0  0  0
  198.2260  175.6080  138.8180 O   0  0  0  0  0  0  0  0  0  0  0  0
  197.8220  175.1420  140.0680 C   0  0  0  0  0  1  0  0  0  0  0  0
  1  9  1  1  0  0  0
  1 13  1  0  0  0  0
  2  5  1  0  0  0  0
  3 35  1  6  0  0  0
  3  6  1  0  0  0  0
  4 14  1  0  0  0  0
  6  4  1  0  0  0  0
  7 11  1  0  0  0  0
  7  3  1  0  0  0  0
  9 14  1  0  0  0  0
 10  5  1  6  0  0  0
 10  1  1  0  0  0  0
 10 13  1  0  0  0  0
 11  8  1  0  0  0  0
 12  8  1  0  0  0  0
 12  2  1  0  0  0  0
 13 22  1  6  0  0  0
 14 15  1  1  0  0  0
 16 15  1  6  0  0  0
 16 18  1  0  0  0  0
 16 17  1  0  0  0  0
 17 19  1  6  0  0  0
 18 17  1  0  0  0  0
 19 21  1  0  0  0  0
 20 21  1  0  0  0  0
 23 22  1  0  0  0  0
 23 25  1  0  0  0  0
 25 24  2  0  0  0  0
 27 26  1  0  0  0  0
 28 25  1  0  0  0  0
 28 26  2  0  0  0  0
 29 28  1  0  0  0  0
 30 31  1  0  0  0  0
 31 29  1  1  0  0  0
 32 31  1  0  0  0  0
 33 34  2  0  0  0  0
 33 32  1  0  0  0  0
 34 30  1  0  0  0  0
 36 35  1  0  0  0  0
 37 38  1  0  0  0  0
 37 36  1  0  0  0  0
 39 38  1  0  0  0  0
 40 39  1  0  0  0  0
 41 39  2  0  0  0  0
 42 44  1  0  0  0  0
 44 43  1  6  0  0  0
 44 40  1  0  0  0  0
 44 45  1  0  0  0  0
 45 46  1  0  0  0  0
 46 47  1  0  0  0  0
M  END
>  <MODEL>
9

>  <REMARK>
 VINA RESULT:      -6.4      4.027      8.396
  Name = 
  17 active torsions:
  status: ('A' for Active; 'I' for Inactive)
    1  A    between atoms: N_1  and  C_38
    2  A    between atoms: C_2  and  C_31
    3  A    between atoms: C_4  and  C_14
    4  A    between atoms: C_4  and  C_47
    5  A    between atoms: C_6  and  C_18
    6  A    between atoms: C_6  and  C_41
    7  A    between atoms: C_9  and  C_12
    8  A    between atoms: C_9  and  C_39
    9  A    between atoms: O_15  and  C_32
   10  A    between atoms: C_16  and  C_36
   11  A    between atoms: C_18  and  C_47
   12  A    between atoms: C_31  and  C_46
   13  A    between atoms: C_32  and  C_42
   14  A    between atoms: C_36  and  C_37
   15  A    between atoms: C_38  and  C_40
   16  A    between atoms: C_39  and  C_45
   17  A    between atoms: C_42  and  N_43
                            x       y       z     vdW  Elec       q    Type
                         _______ _______ _______ _____ _____    ______ ____

>  <TORSDO>
F 17

$$$$
