=
 OpenBabel11062414333D

 31 35  0  0  1  0  0  0  0  0999 V2000
  185.3730  178.6070  143.8580 C   0  0  2  0  0  3  0  0  0  0  0  0
  184.6110  175.9260  137.4120 O   0  0  0  0  0  1  0  0  0  0  0  0
  182.9300  178.6640  140.8560 C   0  0  2  0  0  3  0  0  0  0  0  0
  183.4250  179.4500  139.7900 O   0  0  0  0  0  0  0  0  0  0  0  0
  184.0830  178.2660  141.7650 C   0  0  1  0  0  3  0  0  0  0  0  0
  186.7080  178.7210  143.0750 C   0  0  2  0  0  3  0  0  0  0  0  0
  184.3010  178.8350  146.0700 C   0  0  0  0  0  2  0  0  0  0  0  0
  185.2350  178.6290  140.9840 N   0  0  0  0  0  0  0  0  0  0  0  0
  183.1560  176.4010  139.6660 C   0  0  1  0  0  3  0  0  0  0  0  0
  184.8160  179.2240  139.7320 C   0  0  1  0  0  3  0  0  0  0  0  0
  182.7510  177.7420  137.1690 O   0  0  0  0  0  0  0  0  0  0  0  0
  181.7460  178.7570  143.4470 O   0  0  0  0  0  0  0  0  0  0  0  0
  184.1160  179.0430  143.0850 C   0  0  1  0  0  3  0  0  0  0  0  0
  182.4330  175.2660  139.3490 F   0  0  0  0  0  0  0  0  0  0  0  0
  186.4970  178.9370  141.5900 C   0  0  0  0  0  0  0  0  0  0  0  0
  187.4250  179.4320  140.8950 O   0  0  0  0  0  0  0  0  0  0  0  0
  185.4380  179.3410  145.1900 C   0  0  0  0  0  2  0  0  0  0  0  0
  182.8930  178.8570  143.9580 C   0  0  0  0  0  0  0  0  0  0  0  0
  185.1970  178.3250  138.5520 C   0  0  0  0  0  2  0  0  0  0  0  0
  183.9400  177.0570  138.1570 P   0  0  2  0  0  0  0  0  0  0  0  0
  182.2150  177.4270  140.3050 C   0  0  0  0  0  2  0  0  0  0  0  0
  183.0160  178.9410  145.3820 N   0  0  0  0  0  2  0  0  0  0  0  0
  188.5290  177.2340  142.1390 C   0  0  0  0  0  2  0  0  0  0  0  0
  189.6980  176.8530  144.7450 C   0  0  0  0  0  2  0  0  0  0  0  0
  187.6590  177.5310  143.3750 C   0  0  1  0  0  0  0  0  0  0  0  0
  188.5960  177.8900  144.5410 C   0  0  0  0  0  2  0  0  0  0  0  0
  189.4920  176.1640  142.4030 N   0  0  0  0  0  2  0  0  0  0  0  0
  186.8430  176.2900  143.7400 C   0  0  0  0  0  1  0  0  0  0  0  0
  190.4290  176.6240  143.4250 C   0  0  2  0  0  3  0  0  0  0  0  0
  191.5610  175.6190  143.5980 C   0  0  0  0  0  2  0  0  0  0  0  0
  192.0150  175.5770  144.9790 N   0  0  0  0  0  1  0  0  0  0  0  0
  1 17  1  1  0  0  0
  2 20  1  0  0  0  0
  3 21  1  6  0  0  0
  3  5  1  0  0  0  0
  4  3  1  0  0  0  0
  5  8  1  6  0  0  0
  5 13  1  0  0  0  0
  6 15  1  6  0  0  0
  6 25  1  0  0  0  0
  6  1  1  0  0  0  0
  8 15  1  0  0  0  0
  9 14  1  6  0  0  0
  9 21  1  0  0  0  0
 10 19  1  6  0  0  0
 10  4  1  0  0  0  0
 10  8  1  0  0  0  0
 12 18  2  0  0  0  0
 13  1  1  0  0  0  0
 13 18  1  1  0  0  0
 16 15  2  0  0  0  0
 17  7  1  0  0  0  0
 18 22  1  0  0  0  0
 20 11  2  6  0  0  0
 20 19  1  0  0  0  0
 20  9  1  0  0  0  0
 22  7  1  0  0  0  0
 23 27  1  0  0  0  0
 23 25  1  0  0  0  0
 25 28  1  1  0  0  0
 25 26  1  0  0  0  0
 26 24  1  0  0  0  0
 27 29  1  0  0  0  0
 29 30  1  1  0  0  0
 29 24  1  0  0  0  0
 30 31  1  0  0  0  0
M  END
>  <MODEL>
1

>  <REMARK>
 VINA RESULT:      -7.8      0.000      0.000
  Name = 
  2 active torsions:
  status: ('A' for Active; 'I' for Inactive)
    1  A    between atoms: C_7  and  C_16
    2  A    between atoms: C_13  and  C_24
                            x       y       z     vdW  Elec       q    Type
                         _______ _______ _______ _____ _____    ______ ____

>  <TORSDO>
F 2

$$$$
=
 OpenBabel11062414333D

 31 35  0  0  1  0  0  0  0  0999 V2000
  188.5260  178.0090  141.0210 C   0  0  2  0  0  3  0  0  0  0  0  0
  192.1160  173.1680  137.4170 O   0  0  0  0  0  1  0  0  0  0  0  0
  189.1200  176.8010  137.3920 C   0  0  2  0  0  3  0  0  0  0  0  0
  190.3880  177.1960  136.9070 O   0  0  0  0  0  0  0  0  0  0  0  0
  189.1260  176.8450  138.9120 C   0  0  1  0  0  3  0  0  0  0  0  0
  189.9900  177.9460  141.5310 C   0  0  2  0  0  3  0  0  0  0  0  0
  186.2710  178.9170  141.4550 C   0  0  0  0  0  2  0  0  0  0  0  0
  190.5240  177.0010  139.2130 N   0  0  0  0  0  0  0  0  0  0  0  0
  189.6350  174.2890  137.5160 C   0  0  1  0  0  3  0  0  0  0  0  0
  191.2880  177.0780  137.9860 C   0  0  1  0  0  3  0  0  0  0  0  0
  191.4750  174.6230  135.3460 O   0  0  0  0  0  0  0  0  0  0  0  0
  186.4870  177.7080  138.0040 O   0  0  0  0  0  0  0  0  0  0  0  0
  188.3600  178.0390  139.4920 C   0  0  1  0  0  3  0  0  0  0  0  0
  189.1450  173.0610  137.1140 F   0  0  0  0  0  0  0  0  0  0  0  0
  190.9760  177.6050  140.4320 C   0  0  0  0  0  0  0  0  0  0  0  0
  192.1940  177.8960  140.5770 O   0  0  0  0  0  0  0  0  0  0  0  0
  187.7620  179.1690  141.6440 C   0  0  0  0  0  2  0  0  0  0  0  0
  186.8880  178.0750  139.1400 C   0  0  0  0  0  0  0  0  0  0  0  0
  192.1960  175.8540  137.8360 C   0  0  0  0  0  2  0  0  0  0  0  0
  191.3850  174.4300  137.0240 P   0  0  2  0  0  0  0  0  0  0  0  0
  188.7820  175.3950  136.8870 C   0  0  0  0  0  2  0  0  0  0  0  0
  185.9540  178.6680  140.0500 N   0  0  0  0  0  2  0  0  0  0  0  0
  191.5660  176.4600  142.8380 C   0  0  0  0  0  2  0  0  0  0  0  0
  190.2110  177.0310  145.3160 C   0  0  0  0  0  2  0  0  0  0  0  0
  190.1330  177.0200  142.7690 C   0  0  1  0  0  0  0  0  0  0  0  0
  189.8730  177.8230  144.0560 C   0  0  0  0  0  2  0  0  0  0  0  0
  191.7660  175.6390  144.0330 N   0  0  0  0  0  2  0  0  0  0  0  0
  189.1340  175.8670  142.6770 C   0  0  0  0  0  1  0  0  0  0  0  0
  191.6350  176.4930  145.2110 C   0  0  2  0  0  3  0  0  0  0  0  0
  192.0200  175.7240  146.4690 C   0  0  0  0  0  2  0  0  0  0  0  0
  191.9310  176.5730  147.6470 N   0  0  0  0  0  1  0  0  0  0  0  0
  1  6  1  0  0  0  0
  1 17  1  1  0  0  0
  3 21  1  1  0  0  0
  3  5  1  0  0  0  0
  4  3  1  0  0  0  0
  4 10  1  0  0  0  0
  5  8  1  6  0  0  0
  5 13  1  0  0  0  0
  6 15  1  6  0  0  0
  6 25  1  0  0  0  0
  7 17  1  0  0  0  0
  8 15  1  0  0  0  0
  9 14  1  6  0  0  0
 10 19  1  6  0  0  0
 10  8  1  0  0  0  0
 12 18  2  0  0  0  0
 13 18  1  1  0  0  0
 13  1  1  0  0  0  0
 15 16  2  0  0  0  0
 18 22  1  0  0  0  0
 20 11  2  6  0  0  0
 20  2  1  0  0  0  0
 20  9  1  0  0  0  0
 20 19  1  0  0  0  0
 21  9  1  0  0  0  0
 22  7  1  0  0  0  0
 23 27  1  0  0  0  0
 25 28  1  6  0  0  0
 25 23  1  0  0  0  0
 25 26  1  0  0  0  0
 26 24  1  0  0  0  0
 27 29  1  0  0  0  0
 29 24  1  0  0  0  0
 29 30  1  1  0  0  0
 30 31  1  0  0  0  0
M  END
>  <MODEL>
2

>  <REMARK>
 VINA RESULT:      -7.7      4.052      5.716
  Name = 
  2 active torsions:
  status: ('A' for Active; 'I' for Inactive)
    1  A    between atoms: C_7  and  C_16
    2  A    between atoms: C_13  and  C_24
                            x       y       z     vdW  Elec       q    Type
                         _______ _______ _______ _____ _____    ______ ____

>  <TORSDO>
F 2

$$$$
=
 OpenBabel11062414333D

 31 35  0  0  1  0  0  0  0  0999 V2000
  186.2780  178.4960  141.3160 C   0  0  2  0  0  3  0  0  0  0  0  0
  188.9940  174.6070  136.1380 O   0  0  0  0  0  1  0  0  0  0  0  0
  185.7630  177.7240  137.5580 C   0  0  2  0  0  3  0  0  0  0  0  0
  186.7410  178.3520  136.7530 O   0  0  0  0  0  0  0  0  0  0  0  0
  186.2710  177.6330  138.9880 C   0  0  1  0  0  3  0  0  0  0  0  0
  187.8250  178.6140  141.3210 C   0  0  2  0  0  3  0  0  0  0  0  0
  184.2090  179.0050  142.5630 C   0  0  0  0  0  2  0  0  0  0  0  0
  187.6620  177.9740  138.8480 N   0  0  0  0  0  0  0  0  0  0  0  0
  186.5760  175.3210  137.1710 C   0  0  1  0  0  3  0  0  0  0  0  0
  187.9580  178.2770  137.4640 C   0  0  1  0  0  3  0  0  0  0  0  0
  187.5350  176.1260  134.5950 O   0  0  0  0  0  0  0  0  0  0  0  0
  183.3990  178.1590  139.0920 O   0  0  0  0  0  0  0  0  0  0  0  0
  185.6100  178.6380  139.9370 C   0  0  1  0  0  3  0  0  0  0  0  0
  186.1260  174.0740  136.7830 F   0  0  0  0  0  0  0  0  0  0  0  0
  188.4210  178.5280  139.9300 C   0  0  0  0  0  0  0  0  0  0  0  0
  189.5750  178.9880  139.7180 O   0  0  0  0  0  0  0  0  0  0  0  0
  185.6380  179.4650  142.3000 C   0  0  0  0  0  2  0  0  0  0  0  0
  184.1110  178.4790  140.0810 C   0  0  0  0  0  0  0  0  0  0  0  0
  188.8980  177.2260  136.8690 C   0  0  0  0  0  2  0  0  0  0  0  0
  188.0330  175.7730  136.1730 P   0  0  2  0  0  0  0  0  0  0  0  0
  185.4400  176.3350  137.0020 C   0  0  0  0  0  2  0  0  0  0  0  0
  183.4720  178.8370  141.3110 N   0  0  0  0  0  2  0  0  0  0  0  0
  189.4260  176.6670  141.5490 C   0  0  0  0  0  2  0  0  0  0  0  0
  190.1560  177.4510  144.2240 C   0  0  0  0  0  2  0  0  0  0  0  0
  188.4800  177.6140  142.3120 C   0  0  1  0  0  0  0  0  0  0  0  0
  189.3120  178.3790  143.3550 C   0  0  0  0  0  2  0  0  0  0  0  0
  190.1200  175.7530  142.4580 N   0  0  0  0  0  2  0  0  0  0  0  0
  187.3990  176.7980  143.0220 C   0  0  0  0  0  1  0  0  0  0  0  0
  190.9910  176.5380  143.3290 C   0  0  2  0  0  3  0  0  0  0  0  0
  191.8740  175.6190  144.1640 C   0  0  0  0  0  2  0  0  0  0  0  0
  191.9120  176.0510  145.5530 N   0  0  0  0  0  1  0  0  0  0  0  0
  1  6  1  0  0  0  0
  1 17  1  1  0  0  0
  2 20  1  0  0  0  0
  3 21  1  6  0  0  0
  3  5  1  0  0  0  0
  4 10  1  0  0  0  0
  4  3  1  0  0  0  0
  5  8  1  6  0  0  0
  5 13  1  0  0  0  0
  6 15  1  6  0  0  0
  6 25  1  0  0  0  0
  8 15  1  0  0  0  0
  9 14  1  6  0  0  0
 10 19  1  6  0  0  0
 10  8  1  0  0  0  0
 12 18  2  0  0  0  0
 13 18  1  1  0  0  0
 13  1  1  0  0  0  0
 16 15  2  0  0  0  0
 17  7  1  0  0  0  0
 18 22  1  0  0  0  0
 20 11  2  6  0  0  0
 20 19  1  0  0  0  0
 20  9  1  0  0  0  0
 21  9  1  0  0  0  0
 22  7  1  0  0  0  0
 23 25  1  0  0  0  0
 23 27  1  0  0  0  0
 25 28  1  1  0  0  0
 25 26  1  0  0  0  0
 26 24  1  0  0  0  0
 27 29  1  0  0  0  0
 29 30  1  1  0  0  0
 29 24  1  0  0  0  0
 30 31  1  0  0  0  0
M  END
>  <MODEL>
3

>  <REMARK>
 VINA RESULT:      -7.0      2.448      3.413
  Name = 
  2 active torsions:
  status: ('A' for Active; 'I' for Inactive)
    1  A    between atoms: C_7  and  C_16
    2  A    between atoms: C_13  and  C_24
                            x       y       z     vdW  Elec       q    Type
                         _______ _______ _______ _____ _____    ______ ____

>  <TORSDO>
F 2

$$$$
=
 OpenBabel11062414333D

 31 35  0  0  1  0  0  0  0  0999 V2000
  187.0980  178.3330  140.8100 C   0  0  2  0  0  3  0  0  0  0  0  0
  190.7370  173.4470  137.3160 O   0  0  0  0  0  1  0  0  0  0  0  0
  187.6180  176.9740  137.2230 C   0  0  2  0  0  3  0  0  0  0  0  0
  188.8550  177.3870  136.6780 O   0  0  0  0  0  0  0  0  0  0  0  0
  187.6710  177.0910  138.7380 C   0  0  1  0  0  3  0  0  0  0  0  0
  188.5790  178.3430  141.2730 C   0  0  2  0  0  3  0  0  0  0  0  0
  184.8280  179.1850  141.2760 C   0  0  0  0  0  2  0  0  0  0  0  0
  189.0720  177.3070  138.9850 N   0  0  0  0  0  0  0  0  0  0  0  0
  188.2230  174.4900  137.4450 C   0  0  1  0  0  3  0  0  0  0  0  0
  189.7930  177.3500  137.7300 C   0  0  1  0  0  3  0  0  0  0  0  0
  189.9800  174.7800  135.2020 O   0  0  0  0  0  0  0  0  0  0  0  0
  184.9760  177.8220  137.8800 O   0  0  0  0  0  0  0  0  0  0  0  0
  186.8830  178.2840  139.2870 C   0  0  1  0  0  3  0  0  0  0  0  0
  187.7630  173.2290  137.1170 F   0  0  0  0  0  0  0  0  0  0  0  0
  189.5410  177.9820  140.1590 C   0  0  0  0  0  0  0  0  0  0  0  0
  190.7520  178.3200  140.2490 O   0  0  0  0  0  0  0  0  0  0  0  0
  186.3150  179.4950  141.4030 C   0  0  0  0  0  2  0  0  0  0  0  0
  185.4000  178.2560  138.9830 C   0  0  0  0  0  0  0  0  0  0  0  0
  190.7370  176.1520  137.6070 C   0  0  0  0  0  2  0  0  0  0  0  0
  189.9500  174.6650  136.8900 P   0  0  2  0  0  0  0  0  0  0  0  0
  187.3120  175.5350  136.7950 C   0  0  0  0  0  2  0  0  0  0  0  0
  184.4760  178.8590  139.8960 N   0  0  0  0  0  2  0  0  0  0  0  0
  189.8240  178.1610  143.4680 C   0  0  0  0  0  2  0  0  0  0  0  0
  187.6570  176.7090  144.6930 C   0  0  0  0  0  2  0  0  0  0  0  0
  188.7940  177.4820  142.5470 C   0  0  1  0  0  0  0  0  0  0  0  0
  187.4710  177.3560  143.3230 C   0  0  0  0  0  2  0  0  0  0  0  0
  190.0020  177.4170  144.7170 N   0  0  0  0  0  2  0  0  0  0  0  0
  189.2900  176.0890  142.1580 C   0  0  0  0  0  1  0  0  0  0  0  0
  188.7460  177.4520  145.4610 C   0  0  2  0  0  3  0  0  0  0  0  0
  188.9350  176.8550  146.8500 C   0  0  0  0  0  2  0  0  0  0  0  0
  188.2380  177.6400  147.8560 N   0  0  0  0  0  1  0  0  0  0  0  0
  1  6  1  0  0  0  0
  1 17  1  6  0  0  0
  3 21  1  1  0  0  0
  3  5  1  0  0  0  0
  4  3  1  0  0  0  0
  4 10  1  0  0  0  0
  5  8  1  6  0  0  0
  5 13  1  0  0  0  0
  6 15  1  6  0  0  0
  6 25  1  0  0  0  0
  7 17  1  0  0  0  0
  8 15  1  0  0  0  0
  9 14  1  6  0  0  0
 10 19  1  6  0  0  0
 10  8  1  0  0  0  0
 12 18  2  0  0  0  0
 13 18  1  1  0  0  0
 13  1  1  0  0  0  0
 15 16  2  0  0  0  0
 18 22  1  0  0  0  0
 20 11  2  6  0  0  0
 20  2  1  0  0  0  0
 20  9  1  0  0  0  0
 20 19  1  0  0  0  0
 21  9  1  0  0  0  0
 22  7  1  0  0  0  0
 23 27  1  0  0  0  0
 24 29  1  0  0  0  0
 25 28  1  6  0  0  0
 25 26  1  0  0  0  0
 25 23  1  0  0  0  0
 26 24  1  0  0  0  0
 27 29  1  0  0  0  0
 29 30  1  1  0  0  0
 30 31  1  0  0  0  0
M  END
>  <MODEL>
4

>  <REMARK>
 VINA RESULT:      -6.4      3.494      4.931
  Name = 
  2 active torsions:
  status: ('A' for Active; 'I' for Inactive)
    1  A    between atoms: C_7  and  C_16
    2  A    between atoms: C_13  and  C_24
                            x       y       z     vdW  Elec       q    Type
                         _______ _______ _______ _____ _____    ______ ____

>  <TORSDO>
F 2

$$$$
=
 OpenBabel11062414333D

 31 35  0  0  1  0  0  0  0  0999 V2000
  190.6080  175.7590  136.8870 C   0  0  2  0  0  3  0  0  0  0  0  0
  187.7370  176.2630  143.2760 O   0  0  0  0  0  0  0  0  0  0  0  0
  191.1360  177.5450  140.2800 C   0  0  2  0  0  3  0  0  0  0  0  0
  190.2140  178.6000  140.4690 O   0  0  0  0  0  0  0  0  0  0  0  0
  190.5990  176.5900  139.2260 C   0  0  1  0  0  3  0  0  0  0  0  0
  189.0710  175.9390  136.7640 C   0  0  2  0  0  3  0  0  0  0  0  0
  192.6840  175.2250  135.6620 C   0  0  0  0  0  2  0  0  0  0  0  0
  189.2360  177.0240  139.0770 N   0  0  0  0  0  0  0  0  0  0  0  0
  190.1780  176.0030  142.0930 C   0  0  1  0  0  3  0  0  0  0  0  0
  188.9830  178.1600  139.9370 C   0  0  1  0  0  3  0  0  0  0  0  0
  189.3160  178.3270  143.5280 O   0  0  0  0  0  1  0  0  0  0  0  0
  193.4970  176.7530  138.8910 O   0  0  0  0  0  0  0  0  0  0  0  0
  191.3070  176.7110  137.8730 C   0  0  1  0  0  3  0  0  0  0  0  0
  190.5540  175.2690  143.2020 F   0  0  0  0  0  0  0  0  0  0  0  0
  188.4950  176.8000  137.8710 C   0  0  0  0  0  0  0  0  0  0  0  0
  187.3760  177.3580  137.7060 O   0  0  0  0  0  0  0  0  0  0  0  0
  191.2920  175.8320  135.5290 C   0  0  0  0  0  2  0  0  0  0  0  0
  192.7900  176.4080  137.9070 C   0  0  0  0  0  0  0  0  0  0  0  0
  187.9880  177.7940  141.0410 C   0  0  0  0  0  2  0  0  0  0  0  0
  188.7700  177.0760  142.5300 P   0  0  2  0  0  0  0  0  0  0  0  0
  191.3790  176.8180  141.6060 C   0  0  0  0  0  2  0  0  0  0  0  0
  193.4290  175.8550  136.7510 N   0  0  0  0  0  2  0  0  0  0  0  0
  186.9980  174.6280  137.3840 C   0  0  0  0  0  2  0  0  0  0  0  0
  187.1260  173.0830  134.9550 C   0  0  0  0  0  2  0  0  0  0  0  0
  188.3370  174.5780  136.6260 C   0  0  1  0  0  0  0  0  0  0  0  0
  188.0360  174.2940  135.1440 C   0  0  0  0  0  2  0  0  0  0  0  0
  186.2390  173.3870  137.2190 N   0  0  0  0  0  2  0  0  0  0  0  0
  189.2070  173.4550  137.1930 C   0  0  0  0  0  1  0  0  0  0  0  0
  185.8740  173.2510  135.8110 C   0  0  2  0  0  3  0  0  0  0  0  0
  184.9240  172.0740  135.6200 C   0  0  0  0  0  2  0  0  0  0  0  0
  184.1120  171.8610  136.8070 N   0  0  0  0  0  1  0  0  0  0  0  0
  1 17  1  6  0  0  0
  1 13  1  0  0  0  0
  3  4  1  0  0  0  0
  3 21  1  1  0  0  0
  5  8  1  6  0  0  0
  5  3  1  0  0  0  0
  6  1  1  0  0  0  0
  6 15  1  1  0  0  0
  7 22  1  0  0  0  0
  8 10  1  0  0  0  0
  9 20  1  0  0  0  0
  9 14  1  1  0  0  0
 10  4  1  0  0  0  0
 10 19  1  1  0  0  0
 13 18  1  1  0  0  0
 13  5  1  0  0  0  0
 15  8  1  0  0  0  0
 16 15  2  0  0  0  0
 17  7  1  0  0  0  0
 18 12  2  0  0  0  0
 19 20  1  0  0  0  0
 20  2  2  1  0  0  0
 20 11  1  0  0  0  0
 21  9  1  0  0  0  0
 22 18  1  0  0  0  0
 24 26  1  0  0  0  0
 24 29  1  0  0  0  0
 25  6  1  0  0  0  0
 25 28  1  1  0  0  0
 25 23  1  0  0  0  0
 26 25  1  0  0  0  0
 27 23  1  0  0  0  0
 29 30  1  1  0  0  0
 29 27  1  0  0  0  0
 30 31  1  0  0  0  0
M  END
>  <MODEL>
5

>  <REMARK>
 VINA RESULT:      -6.2      5.404      8.911
  Name = 
  2 active torsions:
  status: ('A' for Active; 'I' for Inactive)
    1  A    between atoms: C_7  and  C_16
    2  A    between atoms: C_13  and  C_24
                            x       y       z     vdW  Elec       q    Type
                         _______ _______ _______ _____ _____    ______ ____

>  <TORSDO>
F 2

$$$$
=
 OpenBabel11062414333D

 31 35  0  0  1  0  0  0  0  0999 V2000
  189.2400  175.1060  136.1570 C   0  0  2  0  0  3  0  0  0  0  0  0
  187.6920  176.9870  142.7440 O   0  0  0  0  0  1  0  0  0  0  0  0
  190.4230  177.5180  138.9440 C   0  0  2  0  0  3  0  0  0  0  0  0
  189.5510  178.6210  139.0900 O   0  0  0  0  0  0  0  0  0  0  0  0
  189.6920  176.3900  138.2340 C   0  0  1  0  0  3  0  0  0  0  0  0
  187.7090  175.3130  136.3040 C   0  0  2  0  0  3  0  0  0  0  0  0
  191.0340  174.2630  134.6860 C   0  0  0  0  0  2  0  0  0  0  0  0
  188.3240  176.8340  138.2680 N   0  0  0  0  0  0  0  0  0  0  0  0
  189.8510  176.4070  141.1860 C   0  0  1  0  0  3  0  0  0  0  0  0
  188.2420  178.1280  138.9110 C   0  0  1  0  0  3  0  0  0  0  0  0
  189.2800  179.0020  142.2560 O   0  0  0  0  0  0  0  0  0  0  0  0
  192.4640  176.3780  137.3120 O   0  0  0  0  0  0  0  0  0  0  0  0
  190.1170  176.2110  136.7730 C   0  0  1  0  0  3  0  0  0  0  0  0
  190.4440  175.8980  142.3260 F   0  0  0  0  0  0  0  0  0  0  0  0
  187.3590  176.3990  137.3010 C   0  0  0  0  0  0  0  0  0  0  0  0
  186.2280  176.9520  137.2480 O   0  0  0  0  0  0  0  0  0  0  0  0
  189.6400  174.8800  134.7060 C   0  0  0  0  0  2  0  0  0  0  0  0
  191.5780  175.8680  136.5770 C   0  0  0  0  0  0  0  0  0  0  0  0
  187.4870  178.0270  140.2390 C   0  0  0  0  0  2  0  0  0  0  0  0
  188.5530  177.5950  141.6610 P   0  0  2  0  0  0  0  0  0  0  0  0
  190.9270  177.0640  140.3170 C   0  0  0  0  0  2  0  0  0  0  0  0
  191.9780  175.0710  135.4560 N   0  0  0  0  0  2  0  0  0  0  0  0
  185.8250  174.2230  137.5930 C   0  0  0  0  0  2  0  0  0  0  0  0
  185.4320  172.2390  135.5410 C   0  0  0  0  0  2  0  0  0  0  0  0
  186.9690  173.9790  136.5920 C   0  0  1  0  0  0  0  0  0  0  0  0
  186.3550  173.4290  135.2930 C   0  0  0  0  0  2  0  0  0  0  0  0
  185.0540  173.0030  137.8380 N   0  0  0  0  0  2  0  0  0  0  0  0
  187.9460  172.9530  137.1680 C   0  0  0  0  0  1  0  0  0  0  0  0
  184.3930  172.6140  136.5950 C   0  0  2  0  0  3  0  0  0  0  0  0
  183.4310  171.4600  136.8430 C   0  0  0  0  0  2  0  0  0  0  0  0
  183.8080  170.2890  136.0680 N   0  0  0  0  0  1  0  0  0  0  0  0
  1 17  1  6  0  0  0
  1  6  1  0  0  0  0
  1 13  1  0  0  0  0
  3  4  1  0  0  0  0
  3 21  1  1  0  0  0
  5  8  1  6  0  0  0
  5  3  1  0  0  0  0
  6 25  1  0  0  0  0
  6 15  1  1  0  0  0
  7 17  1  0  0  0  0
  7 22  1  0  0  0  0
  8 10  1  0  0  0  0
  9 20  1  0  0  0  0
  9 14  1  1  0  0  0
 10  4  1  0  0  0  0
 10 19  1  1  0  0  0
 13 18  1  1  0  0  0
 13  5  1  0  0  0  0
 15  8  1  0  0  0  0
 16 15  2  0  0  0  0
 18 12  2  0  0  0  0
 19 20  1  0  0  0  0
 20 11  2  1  0  0  0
 20  2  1  0  0  0  0
 21  9  1  0  0  0  0
 22 18  1  0  0  0  0
 23 27  1  0  0  0  0
 24 29  1  0  0  0  0
 25 28  1  1  0  0  0
 25 23  1  0  0  0  0
 26 24  1  0  0  0  0
 26 25  1  0  0  0  0
 29 30  1  1  0  0  0
 29 27  1  0  0  0  0
 31 30  1  0  0  0  0
M  END
>  <MODEL>
6

>  <REMARK>
 VINA RESULT:      -6.1      5.427      8.941
  Name = 
  2 active torsions:
  status: ('A' for Active; 'I' for Inactive)
    1  A    between atoms: C_7  and  C_16
    2  A    between atoms: C_13  and  C_24
                            x       y       z     vdW  Elec       q    Type
                         _______ _______ _______ _____ _____    ______ ____

>  <TORSDO>
F 2

$$$$
=
 OpenBabel11062414333D

 31 35  0  0  1  0  0  0  0  0999 V2000
  182.5080  177.5230  137.6900 C   0  0  2  0  0  3  0  0  0  0  0  0
  189.3440  176.3140  138.7510 O   0  0  0  0  0  1  0  0  0  0  0  0
  185.7590  176.7690  135.7300 C   0  0  2  0  0  3  0  0  0  0  0  0
  186.6100  177.8960  135.6680 O   0  0  0  0  0  0  0  0  0  0  0  0
  184.7810  176.9390  136.8820 C   0  0  1  0  0  3  0  0  0  0  0  0
  183.0770  178.5530  138.7010 C   0  0  2  0  0  3  0  0  0  0  0  0
  180.4500  176.6170  136.6700 C   0  0  0  0  0  2  0  0  0  0  0  0
  185.3330  178.0580  137.5970 N   0  0  0  0  0  0  0  0  0  0  0  0
  187.2560  175.3690  137.2760 C   0  0  1  0  0  3  0  0  0  0  0  0
  186.5180  178.5410  136.9190 C   0  0  1  0  0  3  0  0  0  0  0  0
  189.5370  176.7070  136.1770 O   0  0  0  0  0  0  0  0  0  0  0  0
  183.3670  175.6120  134.6970 O   0  0  0  0  0  0  0  0  0  0  0  0
  183.3610  177.2930  136.4300 C   0  0  1  0  0  3  0  0  0  0  0  0
  187.8440  174.1230  137.3790 F   0  0  0  0  0  0  0  0  0  0  0  0
  184.5230  178.9090  138.4190 C   0  0  0  0  0  0  0  0  0  0  0  0
  185.0000  179.9840  138.8740 O   0  0  0  0  0  0  0  0  0  0  0  0
  181.0780  177.8600  137.2890 C   0  0  0  0  0  2  0  0  0  0  0  0
  182.6990  176.2530  135.5510 C   0  0  0  0  0  0  0  0  0  0  0  0
  187.7650  178.3030  137.7740 C   0  0  0  0  0  2  0  0  0  0  0  0
  188.5220  176.6560  137.5290 P   0  0  2  0  0  0  0  0  0  0  0  0
  186.5910  175.4940  135.9020 C   0  0  0  0  0  2  0  0  0  0  0  0
  181.2770  176.0940  135.5840 N   0  0  0  0  0  2  0  0  0  0  0  0
  184.0980  178.4320  141.0130 C   0  0  0  0  0  2  0  0  0  0  0  0
  181.5170  178.6540  142.2740 C   0  0  0  0  0  2  0  0  0  0  0  0
  182.8490  178.1100  140.1710 C   0  0  1  0  0  0  0  0  0  0  0  0
  181.6590  178.8790  140.7710 C   0  0  0  0  0  2  0  0  0  0  0  0
  183.8980  178.0960  142.4230 N   0  0  0  0  0  2  0  0  0  0  0  0
  182.5650  176.6080  140.2260 C   0  0  0  0  0  1  0  0  0  0  0  0
  182.8460  178.9550  142.9600 C   0  0  2  0  0  3  0  0  0  0  0  0
  182.7310  178.7750  144.4690 C   0  0  0  0  0  2  0  0  0  0  0  0
  183.9250  179.2570  145.1450 N   0  0  0  0  0  1  0  0  0  0  0  0
  1 17  1  6  0  0  0
  1  6  1  0  0  0  0
  3 21  1  1  0  0  0
  3  5  1  0  0  0  0
  4  3  1  0  0  0  0
  4 10  1  0  0  0  0
  5  8  1  1  0  0  0
  6 15  1  6  0  0  0
  6 25  1  0  0  0  0
  7 17  1  0  0  0  0
  8 15  1  0  0  0  0
  9 14  1  6  0  0  0
  9 20  1  0  0  0  0
 10  8  1  0  0  0  0
 10 19  1  1  0  0  0
 12 18  2  0  0  0  0
 13 18  1  1  0  0  0
 13  5  1  0  0  0  0
 13  1  1  0  0  0  0
 15 16  2  0  0  0  0
 18 22  1  0  0  0  0
 20 11  2  6  0  0  0
 20 19  1  0  0  0  0
 20  2  1  0  0  0  0
 21  9  1  0  0  0  0
 22  7  1  0  0  0  0
 23 27  1  0  0  0  0
 24 29  1  0  0  0  0
 25 28  1  1  0  0  0
 25 26  1  0  0  0  0
 25 23  1  0  0  0  0
 26 24  1  0  0  0  0
 27 29  1  0  0  0  0
 29 30  1  1  0  0  0
 30 31  1  0  0  0  0
M  END
>  <MODEL>
7

>  <REMARK>
 VINA RESULT:      -5.9      4.115      6.787
  Name = 
  2 active torsions:
  status: ('A' for Active; 'I' for Inactive)
    1  A    between atoms: C_7  and  C_16
    2  A    between atoms: C_13  and  C_24
                            x       y       z     vdW  Elec       q    Type
                         _______ _______ _______ _____ _____    ______ ____

>  <TORSDO>
F 2

$$$$
=
 OpenBabel11062414333D

 31 35  0  0  1  0  0  0  0  0999 V2000
  182.1660  179.0950  138.7750 C   0  0  2  0  0  3  0  0  0  0  0  0
  186.1420  173.4700  137.4070 O   0  0  0  0  0  1  0  0  0  0  0  0
  183.4050  176.9490  135.8010 C   0  0  2  0  0  3  0  0  0  0  0  0
  184.7630  177.2030  135.4990 O   0  0  0  0  0  0  0  0  0  0  0  0
  183.1120  177.4050  137.2210 C   0  0  1  0  0  3  0  0  0  0  0  0
  183.4940  179.1780  139.5720 C   0  0  2  0  0  3  0  0  0  0  0  0
  179.9210  180.0790  138.4780 C   0  0  0  0  0  2  0  0  0  0  0  0
  184.4280  177.6410  137.7510 N   0  0  0  0  0  0  0  0  0  0  0  0
  183.7530  174.5670  136.6910 C   0  0  1  0  0  3  0  0  0  0  0  0
  185.4230  177.3850  136.7310 C   0  0  1  0  0  3  0  0  0  0  0  0
  186.0020  174.3060  134.9370 O   0  0  0  0  0  0  0  0  0  0  0  0
  180.7540  177.9800  135.5950 O   0  0  0  0  0  0  0  0  0  0  0  0
  182.3090  178.7080  137.2920 C   0  0  1  0  0  3  0  0  0  0  0  0
  183.2890  173.2750  136.5390 F   0  0  0  0  0  0  0  0  0  0  0  0
  184.6600  178.5550  138.8310 C   0  0  0  0  0  0  0  0  0  0  0  0
  185.8390  178.8780  139.1400 O   0  0  0  0  0  0  0  0  0  0  0  0
  181.3560  180.3780  138.8950 C   0  0  0  0  0  2  0  0  0  0  0  0
  180.9410  178.6430  136.6490 C   0  0  0  0  0  0  0  0  0  0  0  0
  186.2780  176.1700  137.1020 C   0  0  0  0  0  2  0  0  0  0  0  0
  185.5700  174.5760  136.5510 P   0  0  2  0  0  0  0  0  0  0  0  0
  183.1000  175.4580  135.6300 C   0  0  0  0  0  2  0  0  0  0  0  0
  179.8770  179.4560  137.1570 N   0  0  0  0  0  2  0  0  0  0  0  0
  184.6320  178.8790  141.8120 C   0  0  0  0  0  2  0  0  0  0  0  0
  182.1210  179.0050  143.2190 C   0  0  0  0  0  2  0  0  0  0  0  0
  183.3410  178.6230  141.0140 C   0  0  1  0  0  0  0  0  0  0  0  0
  182.1860  179.3450  141.7320 C   0  0  0  0  0  2  0  0  0  0  0  0
  184.5040  178.4360  143.2010 N   0  0  0  0  0  2  0  0  0  0  0  0
  183.0530  177.1230  140.9690 C   0  0  0  0  0  1  0  0  0  0  0  0
  183.4850  179.2520  143.8570 C   0  0  2  0  0  3  0  0  0  0  0  0
  183.4480  178.9560  145.3510 C   0  0  0  0  0  2  0  0  0  0  0  0
  184.7820  179.0070  145.9270 N   0  0  0  0  0  1  0  0  0  0  0  0
  1 17  1  6  0  0  0
  1  6  1  0  0  0  0
  3 21  1  1  0  0  0
  3  5  1  0  0  0  0
  4  3  1  0  0  0  0
  4 10  1  0  0  0  0
  5 13  1  0  0  0  0
  5  8  1  1  0  0  0
  6 15  1  6  0  0  0
  6 25  1  0  0  0  0
  7 17  1  0  0  0  0
  8 15  1  0  0  0  0
  9 14  1  6  0  0  0
 10 19  1  1  0  0  0
 10  8  1  0  0  0  0
 12 18  2  0  0  0  0
 13 18  1  1  0  0  0
 13  1  1  0  0  0  0
 15 16  2  0  0  0  0
 18 22  1  0  0  0  0
 20 11  2  6  0  0  0
 20  9  1  0  0  0  0
 20 19  1  0  0  0  0
 20  2  1  0  0  0  0
 21  9  1  0  0  0  0
 22  7  1  0  0  0  0
 23 27  1  0  0  0  0
 24 29  1  0  0  0  0
 25 28  1  6  0  0  0
 25 26  1  0  0  0  0
 25 23  1  0  0  0  0
 26 24  1  0  0  0  0
 27 29  1  0  0  0  0
 29 30  1  1  0  0  0
 30 31  1  0  0  0  0
M  END
>  <MODEL>
8

>  <REMARK>
 VINA RESULT:      -5.9      3.711      5.868
  Name = 
  2 active torsions:
  status: ('A' for Active; 'I' for Inactive)
    1  A    between atoms: C_7  and  C_16
    2  A    between atoms: C_13  and  C_24
                            x       y       z     vdW  Elec       q    Type
                         _______ _______ _______ _____ _____    ______ ____

>  <TORSDO>
F 2

$$$$
=
 OpenBabel11062414333D

 31 35  0  0  1  0  0  0  0  0999 V2000
  189.1960  176.4300  136.7960 C   0  0  2  0  0  3  0  0  0  0  0  0
  187.1560  176.6310  143.5130 O   0  0  0  0  0  0  0  0  0  0  0  0
  190.4320  177.6020  140.2720 C   0  0  2  0  0  3  0  0  0  0  0  0
  189.7790  178.7840  140.6920 O   0  0  0  0  0  0  0  0  0  0  0  0
  189.6000  176.9230  139.1960 C   0  0  1  0  0  3  0  0  0  0  0  0
  187.7290  176.9260  136.8900 C   0  0  2  0  0  3  0  0  0  0  0  0
  190.9770  175.6640  135.2680 C   0  0  0  0  0  2  0  0  0  0  0  0
  188.3530  177.6360  139.2690 N   0  0  0  0  0  0  0  0  0  0  0  0
  189.3540  176.0520  142.0100 C   0  0  1  0  0  3  0  0  0  0  0  0
  188.4360  178.6740  140.2750 C   0  0  1  0  0  3  0  0  0  0  0  0
  189.1560  178.2870  143.7910 O   0  0  0  0  0  1  0  0  0  0  0  0
  192.4170  176.5510  138.5170 O   0  0  0  0  0  0  0  0  0  0  0  0
  190.1780  177.0820  137.7860 C   0  0  1  0  0  3  0  0  0  0  0  0
  189.6750  175.1160  142.9750 F   0  0  0  0  0  0  0  0  0  0  0  0
  187.4630  177.7280  138.1480 C   0  0  0  0  0  0  0  0  0  0  0  0
  186.4790  178.5140  138.1890 O   0  0  0  0  0  0  0  0  0  0  0  0
  189.7400  176.5470  135.3790 C   0  0  0  0  0  2  0  0  0  0  0  0
  191.5580  176.4890  137.5980 C   0  0  0  0  0  0  0  0  0  0  0  0
  187.5010  178.3670  141.4480 C   0  0  0  0  0  2  0  0  0  0  0  0
  188.2580  177.3140  142.7370 P   0  0  2  0  0  0  0  0  0  0  0  0
  190.6460  176.6700  141.4680 C   0  0  0  0  0  2  0  0  0  0  0  0
  191.9450  175.9800  136.3160 N   0  0  0  0  0  2  0  0  0  0  0  0
  186.4370  175.5630  135.1940 C   0  0  0  0  0  2  0  0  0  0  0  0
  186.4430  173.2440  136.9050 C   0  0  0  0  0  2  0  0  0  0  0  0
  186.7120  175.7700  136.6950 C   0  0  1  0  0  0  0  0  0  0  0  0
  187.2950  174.4610  137.2570 C   0  0  0  0  0  2  0  0  0  0  0  0
  185.5370  174.4320  134.9630 N   0  0  0  0  0  2  0  0  0  0  0  0
  185.4050  176.0960  137.4180 C   0  0  0  0  0  1  0  0  0  0  0  0
  186.2080  173.2090  135.3970 C   0  0  2  0  0  3  0  0  0  0  0  0
  185.3890  171.9860  135.0040 C   0  0  0  0  0  2  0  0  0  0  0  0
  186.1120  170.7580  135.2930 N   0  0  0  0  0  1  0  0  0  0  0  0
  1 17  1  6  0  0  0
  1  6  1  0  0  0  0
  1 13  1  0  0  0  0
  3  4  1  0  0  0  0
  3 21  1  1  0  0  0
  5  8  1  6  0  0  0
  5  3  1  0  0  0  0
  6 15  1  1  0  0  0
  7 17  1  0  0  0  0
  7 22  1  0  0  0  0
  8 10  1  0  0  0  0
  9 20  1  0  0  0  0
  9 14  1  1  0  0  0
 10  4  1  0  0  0  0
 10 19  1  1  0  0  0
 13 18  1  1  0  0  0
 13  5  1  0  0  0  0
 15 16  2  0  0  0  0
 15  8  1  0  0  0  0
 18 12  2  0  0  0  0
 19 20  1  0  0  0  0
 20  2  2  1  0  0  0
 20 11  1  0  0  0  0
 21  9  1  0  0  0  0
 22 18  1  0  0  0  0
 23 25  1  0  0  0  0
 24 26  1  0  0  0  0
 25  6  1  0  0  0  0
 25 26  1  0  0  0  0
 25 28  1  1  0  0  0
 27 23  1  0  0  0  0
 27 29  1  0  0  0  0
 29 30  1  1  0  0  0
 29 24  1  0  0  0  0
 30 31  1  0  0  0  0
M  END
>  <MODEL>
9

>  <REMARK>
 VINA RESULT:      -5.8      4.973      8.436
  Name = 
  2 active torsions:
  status: ('A' for Active; 'I' for Inactive)
    1  A    between atoms: C_7  and  C_16
    2  A    between atoms: C_13  and  C_24
                            x       y       z     vdW  Elec       q    Type
                         _______ _______ _______ _____ _____    ______ ____

>  <TORSDO>
F 2

$$$$
