=
 OpenBabel11062416203D

 29 31  0  0  1  0  0  0  0  0999 V2000
  188.7010  177.9660  142.8090 C   0  0  1  0  0  3  0  0  0  0  0  0
  190.2320  177.8110  142.8090 C   0  0  2  0  0  3  0  0  0  0  0  0
  190.4270  175.3720  142.7250 O   0  0  0  0  0  0  0  0  0  0  0  0
  191.9050  175.4460  145.3010 C   0  0  0  0  0  1  0  0  0  0  0  0
  190.6350  176.4600  143.3240 C   0  0  0  0  0  0  0  0  0  0  0  0
  191.3350  176.5520  144.5540 N   0  0  0  0  0  0  0  0  0  0  0  0
  190.8810  179.9140  143.8820 O   0  0  0  0  0  0  0  0  0  0  0  0
  191.4910  177.8880  144.9090 N   0  0  0  0  0  2  0  0  0  0  0  0
  190.8620  178.6550  143.8880 C   0  0  0  0  0  0  0  0  0  0  0  0
  188.3080  177.4810  139.0530 C   0  0  0  0  0  3  0  0  0  0  0  0
  187.0710  178.0880  138.8250 C   0  0  0  0  0  3  0  0  0  0  0  0
  188.8390  177.4470  140.3420 C   0  0  0  0  0  3  0  0  0  0  0  0
  188.1380  178.0210  141.4130 C   0  0  0  0  0  0  0  0  0  0  0  0
  186.8930  178.6300  141.1800 C   0  0  0  0  0  0  0  0  0  0  0  0
  186.1870  179.1980  142.2370 O   0  0  0  0  0  1  0  0  0  0  0  0
  186.3540  178.6650  139.8830 C   0  0  0  0  0  0  0  0  0  0  0  0
  183.6550  177.5880  140.3830 O   0  0  0  0  0  0  0  0  0  0  0  0
  185.0870  179.3060  139.6680 N   0  0  0  0  0  2  0  0  0  0  0  0
  183.7870  178.7320  139.8740 C   0  0  0  0  0  0  0  0  0  0  0  0
  181.4110  179.1380  140.4100 C   0  0  0  0  0  1  0  0  0  0  0  0
  182.5660  179.5030  139.4990 C   0  0  0  0  0  3  0  0  0  0  0  0
  182.1880  179.2350  138.0550 C   0  0  0  0  0  1  0  0  0  0  0  0
  188.0260  176.8490  143.6080 C   0  0  0  0  0  2  0  0  0  0  0  0
  187.6520  177.9700  147.2090 C   0  0  0  0  0  3  0  0  0  0  0  0
  187.4300  177.3770  144.8690 C   0  0  0  0  0  0  0  0  0  0  0  0
  188.2050  177.4520  146.0340 C   0  0  0  0  0  3  0  0  0  0  0  0
  186.3270  178.4180  147.2210 C   0  0  0  0  0  3  0  0  0  0  0  0
  186.1060  177.8310  144.8820 C   0  0  0  0  0  3  0  0  0  0  0  0
  185.5550  178.3490  146.0570 C   0  0  0  0  0  3  0  0  0  0  0  0
  1 23  1  1  0  0  0
  2  1  1  1  0  0  0
  2  5  1  0  0  0  0
  2  9  1  0  0  0  0
  3  5  2  0  0  0  0
  5  6  1  0  0  0  0
  6  8  1  0  0  0  0
  6  4  1  0  0  0  0
  7  9  2  0  0  0  0
  9  8  1  0  0  0  0
 10 12  1  0  0  0  0
 11 10  2  0  0  0  0
 11 16  1  0  0  0  0
 12 13  2  0  0  0  0
 13  1  1  0  0  0  0
 14 13  1  0  0  0  0
 14 15  1  0  0  0  0
 16 14  2  0  0  0  0
 18 19  1  0  0  0  0
 18 16  1  0  0  0  0
 19 17  2  0  0  0  0
 21 19  1  0  0  0  0
 21 20  1  0  0  0  0
 22 21  1  0  0  0  0
 23 25  1  0  0  0  0
 24 27  1  0  0  0  0
 25 28  2  0  0  0  0
 25 26  1  0  0  0  0
 26 24  2  0  0  0  0
 28 29  1  0  0  0  0
 29 27  2  0  0  0  0
M  END
>  <MODEL>
1

>  <REMARK>
 VINA RESULT:      -8.7      0.000      0.000
  Name = 
  6 active torsions:
  status: ('A' for Active; 'I' for Inactive)
    1  A    between atoms: C_2  and  C_5
    2  A    between atoms: C_3  and  C_25
    3  A    between atoms: C_5  and  C_25
    4  A    between atoms: C_8  and  C_27
    5  A    between atoms: C_15  and  C_25
    6  A    between atoms: N_26  and  C_29
                            x       y       z     vdW  Elec       q    Type
                         _______ _______ _______ _____ _____    ______ ____

>  <TORSDO>
F 6

$$$$
=
 OpenBabel11062416203D

 29 31  0  0  1  0  0  0  0  0999 V2000
  189.7740  177.5660  142.5780 C   0  0  1  0  0  3  0  0  0  0  0  0
  191.1920  177.6480  143.1690 C   0  0  2  0  0  3  0  0  0  0  0  0
  191.6190  175.2790  143.6200 O   0  0  0  0  0  0  0  0  0  0  0  0
  191.9690  175.9360  146.4960 C   0  0  0  0  0  1  0  0  0  0  0  0
  191.4810  176.4590  144.0380 C   0  0  0  0  0  0  0  0  0  0  0  0
  191.6380  176.8270  145.3990 N   0  0  0  0  0  0  0  0  0  0  0  0
  191.1860  179.9540  143.9930 O   0  0  0  0  0  0  0  0  0  0  0  0
  191.5260  178.2070  145.5300 N   0  0  0  0  0  2  0  0  0  0  0  0
  191.2770  178.7200  144.2260 C   0  0  0  0  0  0  0  0  0  0  0  0
  190.8910  176.3840  139.1350 C   0  0  0  0  0  3  0  0  0  0  0  0
  189.8110  176.7810  138.3430 C   0  0  0  0  0  3  0  0  0  0  0  0
  190.8820  176.6440  140.5050 C   0  0  0  0  0  3  0  0  0  0  0  0
  189.7940  177.3030  141.0940 C   0  0  0  0  0  0  0  0  0  0  0  0
  188.7070  177.7000  140.2960 C   0  0  0  0  0  0  0  0  0  0  0  0
  187.6200  178.3510  140.8720 O   0  0  0  0  0  1  0  0  0  0  0  0
  188.7120  177.4390  138.9150 C   0  0  0  0  0  0  0  0  0  0  0  0
  186.8210  175.7770  137.3810 O   0  0  0  0  0  0  0  0  0  0  0  0
  187.5970  177.8670  138.1170 N   0  0  0  0  0  2  0  0  0  0  0  0
  186.7250  177.0320  137.3400 C   0  0  0  0  0  0  0  0  0  0  0  0
  184.3040  177.1370  136.8690 C   0  0  0  0  0  1  0  0  0  0  0  0
  185.6750  177.6500  136.4790 C   0  0  0  0  0  3  0  0  0  0  0  0
  185.9410  177.3520  135.0160 C   0  0  0  0  0  1  0  0  0  0  0  0
  188.9310  176.5050  143.2900 C   0  0  0  0  0  2  0  0  0  0  0  0
  185.7130  178.1190  144.4760 C   0  0  0  0  0  3  0  0  0  0  0  0
  187.9090  177.1380  144.1730 C   0  0  0  0  0  0  0  0  0  0  0  0
  186.6790  177.5480  143.6420 C   0  0  0  0  0  3  0  0  0  0  0  0
  185.9720  178.2760  145.8410 C   0  0  0  0  0  3  0  0  0  0  0  0
  188.1630  177.2920  145.5410 C   0  0  0  0  0  3  0  0  0  0  0  0
  187.1970  177.8620  146.3740 C   0  0  0  0  0  3  0  0  0  0  0  0
  1 23  1  1  0  0  0
  2  1  1  1  0  0  0
  2  5  1  0  0  0  0
  2  9  1  0  0  0  0
  3  5  2  0  0  0  0
  5  6  1  0  0  0  0
  6  8  1  0  0  0  0
  6  4  1  0  0  0  0
  7  9  2  0  0  0  0
  9  8  1  0  0  0  0
 10 12  1  0  0  0  0
 11 16  1  0  0  0  0
 11 10  2  0  0  0  0
 12 13  2  0  0  0  0
 13  1  1  0  0  0  0
 14 15  1  0  0  0  0
 14 13  1  0  0  0  0
 16 14  2  0  0  0  0
 18 16  1  0  0  0  0
 19 17  2  0  0  0  0
 19 18  1  0  0  0  0
 21 20  1  0  0  0  0
 21 19  1  0  0  0  0
 22 21  1  0  0  0  0
 23 25  1  0  0  0  0
 24 27  1  0  0  0  0
 25 28  2  0  0  0  0
 26 25  1  0  0  0  0
 26 24  2  0  0  0  0
 27 29  2  0  0  0  0
 28 29  1  0  0  0  0
M  END
>  <MODEL>
2

>  <REMARK>
 VINA RESULT:      -8.7      2.072      2.682
  Name = 
  6 active torsions:
  status: ('A' for Active; 'I' for Inactive)
    1  A    between atoms: C_2  and  C_5
    2  A    between atoms: C_3  and  C_25
    3  A    between atoms: C_5  and  C_25
    4  A    between atoms: C_8  and  C_27
    5  A    between atoms: C_15  and  C_25
    6  A    between atoms: N_26  and  C_29
                            x       y       z     vdW  Elec       q    Type
                         _______ _______ _______ _____ _____    ______ ____

>  <TORSDO>
F 6

$$$$
=
 OpenBabel11062416203D

 29 31  0  0  1  0  0  0  0  0999 V2000
  189.3180  177.8110  142.8630 C   0  0  1  0  0  3  0  0  0  0  0  0
  190.8220  177.6590  143.1520 C   0  0  2  0  0  3  0  0  0  0  0  0
  190.9660  175.2350  143.4680 O   0  0  0  0  0  0  0  0  0  0  0  0
  191.9810  175.7000  146.2220 C   0  0  0  0  0  1  0  0  0  0  0  0
  191.0950  176.4020  143.9250 C   0  0  0  0  0  0  0  0  0  0  0  0
  191.5760  176.6800  145.2300 N   0  0  0  0  0  0  0  0  0  0  0  0
  191.3310  179.9010  143.9950 O   0  0  0  0  0  0  0  0  0  0  0  0
  191.7030  178.0540  145.4030 N   0  0  0  0  0  2  0  0  0  0  0  0
  191.2790  178.6580  144.1860 C   0  0  0  0  0  0  0  0  0  0  0  0
  187.4950  178.2280  139.5470 C   0  0  0  0  0  3  0  0  0  0  0  0
  188.4890  177.8590  138.6380 C   0  0  0  0  0  3  0  0  0  0  0  0
  187.7610  178.2060  140.9150 C   0  0  0  0  0  3  0  0  0  0  0  0
  189.0230  177.8150  141.3860 C   0  0  0  0  0  0  0  0  0  0  0  0
  190.0220  177.4470  140.4680 C   0  0  0  0  0  0  0  0  0  0  0  0
  191.2800  177.0620  140.9240 O   0  0  0  0  0  1  0  0  0  0  0  0
  189.7580  177.4690  139.0890 C   0  0  0  0  0  0  0  0  0  0  0  0
  190.3370  174.7720  138.0460 O   0  0  0  0  0  0  0  0  0  0  0  0
  190.7900  177.0730  138.1710 N   0  0  0  0  0  2  0  0  0  0  0  0
  191.0760  175.7390  137.7230 C   0  0  0  0  0  0  0  0  0  0  0  0
  192.6580  174.0260  136.9100 C   0  0  0  0  0  1  0  0  0  0  0  0
  192.2570  175.4860  136.8470 C   0  0  0  0  0  3  0  0  0  0  0  0
  193.4250  176.3600  137.2590 C   0  0  0  0  0  1  0  0  0  0  0  0
  188.5010  176.7220  143.5620 C   0  0  0  0  0  2  0  0  0  0  0  0
  187.3250  177.9570  146.9470 C   0  0  0  0  0  3  0  0  0  0  0  0
  187.6420  177.3020  144.6350 C   0  0  0  0  0  0  0  0  0  0  0  0
  188.1230  177.3910  145.9470 C   0  0  0  0  0  3  0  0  0  0  0  0
  186.0500  178.4390  146.6350 C   0  0  0  0  0  3  0  0  0  0  0  0
  186.3680  177.7890  144.3250 C   0  0  0  0  0  3  0  0  0  0  0  0
  185.5720  178.3560  145.3230 C   0  0  0  0  0  3  0  0  0  0  0  0
  1 23  1  1  0  0  0
  2  1  1  1  0  0  0
  2  5  1  0  0  0  0
  2  9  1  0  0  0  0
  3  5  2  0  0  0  0
  5  6  1  0  0  0  0
  6  8  1  0  0  0  0
  6  4  1  0  0  0  0
  7  9  2  0  0  0  0
  9  8  1  0  0  0  0
 10 12  1  0  0  0  0
 11 16  1  0  0  0  0
 11 10  2  0  0  0  0
 12 13  2  0  0  0  0
 13  1  1  0  0  0  0
 14 15  1  0  0  0  0
 14 13  1  0  0  0  0
 16 14  2  0  0  0  0
 18 16  1  0  0  0  0
 19 17  2  0  0  0  0
 19 18  1  0  0  0  0
 21 20  1  0  0  0  0
 21 22  1  0  0  0  0
 21 19  1  0  0  0  0
 23 25  1  0  0  0  0
 25 26  1  0  0  0  0
 26 24  2  0  0  0  0
 27 24  1  0  0  0  0
 28 25  2  0  0  0  0
 28 29  1  0  0  0  0
 29 27  2  0  0  0  0
M  END
>  <MODEL>
3

>  <REMARK>
 VINA RESULT:      -8.3      2.934      4.742
  Name = 
  6 active torsions:
  status: ('A' for Active; 'I' for Inactive)
    1  A    between atoms: C_2  and  C_5
    2  A    between atoms: C_3  and  C_25
    3  A    between atoms: C_5  and  C_25
    4  A    between atoms: C_8  and  C_27
    5  A    between atoms: C_15  and  C_25
    6  A    between atoms: N_26  and  C_29
                            x       y       z     vdW  Elec       q    Type
                         _______ _______ _______ _____ _____    ______ ____

>  <TORSDO>
F 6

$$$$
=
 OpenBabel11062416203D

 29 31  0  0  1  0  0  0  0  0999 V2000
  188.4440  177.9960  143.5230 C   0  0  1  0  0  3  0  0  0  0  0  0
  189.8540  177.7660  142.9520 C   0  0  2  0  0  3  0  0  0  0  0  0
  189.7830  175.3500  142.5640 O   0  0  0  0  0  0  0  0  0  0  0  0
  192.0790  175.0300  144.4210 C   0  0  0  0  0  1  0  0  0  0  0  0
  190.2880  176.3430  143.1500 C   0  0  0  0  0  0  0  0  0  0  0  0
  191.3840  176.2470  144.0450 N   0  0  0  0  0  0  0  0  0  0  0  0
  191.0310  179.6850  143.9160 O   0  0  0  0  0  0  0  0  0  0  0  0
  191.7780  177.5190  144.4470 N   0  0  0  0  0  2  0  0  0  0  0  0
  190.9000  178.4380  143.8050 C   0  0  0  0  0  0  0  0  0  0  0  0
  185.0910  178.3160  141.7470 C   0  0  0  0  0  3  0  0  0  0  0  0
  185.4960  178.4880  140.4220 C   0  0  0  0  0  3  0  0  0  0  0  0
  186.0450  178.1510  142.7500 C   0  0  0  0  0  3  0  0  0  0  0  0
  187.4120  178.1550  142.4360 C   0  0  0  0  0  0  0  0  0  0  0  0
  187.8170  178.3290  141.1020 C   0  0  0  0  0  0  0  0  0  0  0  0
  189.1710  178.3390  140.7800 O   0  0  0  0  0  1  0  0  0  0  0  0
  186.8580  178.4970  140.0890 C   0  0  0  0  0  0  0  0  0  0  0  0
  187.8980  176.4400  138.2500 O   0  0  0  0  0  0  0  0  0  0  0  0
  187.2960  178.6590  138.7300 N   0  0  0  0  0  2  0  0  0  0  0  0
  187.8460  177.6420  137.8780 C   0  0  0  0  0  0  0  0  0  0  0  0
  187.2030  178.1020  135.5390 C   0  0  0  0  0  1  0  0  0  0  0  0
  188.3520  178.0020  136.5210 C   0  0  0  0  0  3  0  0  0  0  0  0
  189.3580  176.9760  136.0370 C   0  0  0  0  0  1  0  0  0  0  0  0
  188.0360  176.8720  144.4780 C   0  0  0  0  0  2  0  0  0  0  0  0
  189.0430  177.6640  148.0450 C   0  0  0  0  0  3  0  0  0  0  0  0
  187.9830  177.3590  145.8870 C   0  0  0  0  0  0  0  0  0  0  0  0
  189.0860  177.1850  146.7320 C   0  0  0  0  0  3  0  0  0  0  0  0
  187.9000  178.3210  148.5130 C   0  0  0  0  0  3  0  0  0  0  0  0
  186.8430  178.0210  146.3560 C   0  0  0  0  0  3  0  0  0  0  0  0
  186.8000  178.5000  147.6670 C   0  0  0  0  0  3  0  0  0  0  0  0
  1 23  1  1  0  0  0
  2  5  1  0  0  0  0
  2  1  1  1  0  0  0
  2  9  1  0  0  0  0
  3  5  2  0  0  0  0
  5  6  1  0  0  0  0
  6  4  1  0  0  0  0
  6  8  1  0  0  0  0
  9  7  2  0  0  0  0
  9  8  1  0  0  0  0
 10 12  1  0  0  0  0
 11 10  2  0  0  0  0
 13 12  2  0  0  0  0
 13  1  1  0  0  0  0
 14 13  1  0  0  0  0
 15 14  1  0  0  0  0
 16 11  1  0  0  0  0
 16 14  2  0  0  0  0
 18 16  1  0  0  0  0
 19 17  2  0  0  0  0
 19 18  1  0  0  0  0
 20 21  1  0  0  0  0
 21 19  1  0  0  0  0
 22 21  1  0  0  0  0
 23 25  1  0  0  0  0
 24 27  1  0  0  0  0
 25 28  2  0  0  0  0
 25 26  1  0  0  0  0
 26 24  2  0  0  0  0
 28 29  1  0  0  0  0
 29 27  2  0  0  0  0
M  END
>  <MODEL>
4

>  <REMARK>
 VINA RESULT:      -8.1      1.921      3.151
  Name = 
  6 active torsions:
  status: ('A' for Active; 'I' for Inactive)
    1  A    between atoms: C_2  and  C_5
    2  A    between atoms: C_3  and  C_25
    3  A    between atoms: C_5  and  C_25
    4  A    between atoms: C_8  and  C_27
    5  A    between atoms: C_15  and  C_25
    6  A    between atoms: N_26  and  C_29
                            x       y       z     vdW  Elec       q    Type
                         _______ _______ _______ _____ _____    ______ ____

>  <TORSDO>
F 6

$$$$
=
 OpenBabel11062416203D

 29 31  0  0  1  0  0  0  0  0999 V2000
  188.2430  178.0500  144.5270 C   0  0  1  0  0  3  0  0  0  0  0  0
  189.1260  178.3450  145.7520 C   0  0  2  0  0  3  0  0  0  0  0  0
  191.3470  178.2430  144.7260 O   0  0  0  0  0  0  0  0  0  0  0  0
  192.0560  176.0380  146.5860 C   0  0  0  0  0  1  0  0  0  0  0  0
  190.5120  177.8010  145.5580 C   0  0  0  0  0  0  0  0  0  0  0  0
  190.7980  176.7520  146.4680 N   0  0  0  0  0  0  0  0  0  0  0  0
  187.6310  177.6240  147.5510 O   0  0  0  0  0  0  0  0  0  0  0  0
  189.7160  176.5610  147.3220 N   0  0  0  0  0  2  0  0  0  0  0  0
  188.7190  177.4990  146.9310 C   0  0  0  0  0  0  0  0  0  0  0  0
  190.4330  175.6280  142.5690 C   0  0  0  0  0  3  0  0  0  0  0  0
  190.4420  176.2250  141.3060 C   0  0  0  0  0  3  0  0  0  0  0  0
  189.7260  176.2220  143.6140 C   0  0  0  0  0  3  0  0  0  0  0  0
  189.0240  177.4180  143.4040 C   0  0  0  0  0  0  0  0  0  0  0  0
  189.0330  178.0150  142.1320 C   0  0  0  0  0  0  0  0  0  0  0  0
  188.3360  179.2000  141.9120 O   0  0  0  0  0  1  0  0  0  0  0  0
  189.7430  177.4190  141.0770 C   0  0  0  0  0  0  0  0  0  0  0  0
  187.8530  177.0460  138.8450 O   0  0  0  0  0  0  0  0  0  0  0  0
  189.7520  178.0560  139.7890 N   0  0  0  0  0  2  0  0  0  0  0  0
  188.8430  177.8120  138.7050 C   0  0  0  0  0  0  0  0  0  0  0  0
  187.7410  179.0030  136.8430 C   0  0  0  0  0  1  0  0  0  0  0  0
  189.0560  178.4850  137.3900 C   0  0  0  0  0  3  0  0  0  0  0  0
  189.6880  177.5290  136.3970 C   0  0  0  0  0  1  0  0  0  0  0  0
  187.0470  177.1700  144.9000 C   0  0  0  0  0  2  0  0  0  0  0  0
  183.7460  179.0030  145.2270 C   0  0  0  0  0  3  0  0  0  0  0  0
  185.7600  177.8380  144.5490 C   0  0  0  0  0  0  0  0  0  0  0  0
  184.9400  178.3560  145.5600 C   0  0  0  0  0  3  0  0  0  0  0  0
  183.3730  179.1380  143.8870 C   0  0  0  0  0  3  0  0  0  0  0  0
  185.3870  177.9790  143.2080 C   0  0  0  0  0  3  0  0  0  0  0  0
  184.1940  178.6270  142.8770 C   0  0  0  0  0  3  0  0  0  0  0  0
  1 23  1  1  0  0  0
  2  1  1  6  0  0  0
  2  9  1  0  0  0  0
  3  5  2  0  0  0  0
  5  2  1  0  0  0  0
  5  6  1  0  0  0  0
  6  4  1  0  0  0  0
  6  8  1  0  0  0  0
  9  8  1  0  0  0  0
  9  7  2  0  0  0  0
 10 12  1  0  0  0  0
 11 10  2  0  0  0  0
 13 12  2  0  0  0  0
 13  1  1  0  0  0  0
 14 13  1  0  0  0  0
 15 14  1  0  0  0  0
 16 11  1  0  0  0  0
 16 14  2  0  0  0  0
 18 16  1  0  0  0  0
 19 17  2  0  0  0  0
 19 18  1  0  0  0  0
 20 21  1  0  0  0  0
 21 19  1  0  0  0  0
 22 21  1  0  0  0  0
 24 26  1  0  0  0  0
 25 23  1  0  0  0  0
 25 26  2  0  0  0  0
 27 24  2  0  0  0  0
 28 25  1  0  0  0  0
 29 28  2  0  0  0  0
 29 27  1  0  0  0  0
M  END
>  <MODEL>
5

>  <REMARK>
 VINA RESULT:      -6.9      2.481      4.094
  Name = 
  6 active torsions:
  status: ('A' for Active; 'I' for Inactive)
    1  A    between atoms: C_2  and  C_5
    2  A    between atoms: C_3  and  C_25
    3  A    between atoms: C_5  and  C_25
    4  A    between atoms: C_8  and  C_27
    5  A    between atoms: C_15  and  C_25
    6  A    between atoms: N_26  and  C_29
                            x       y       z     vdW  Elec       q    Type
                         _______ _______ _______ _____ _____    ______ ____

>  <TORSDO>
F 6

$$$$
=
 OpenBabel11062416203D

 29 31  0  0  1  0  0  0  0  0999 V2000
  182.2610  177.8090  140.5010 C   0  0  1  0  0  3  0  0  0  0  0  0
  180.7900  178.0480  140.1210 C   0  0  2  0  0  3  0  0  0  0  0  0
  181.0370  179.9150  138.5570 O   0  0  0  0  0  0  0  0  0  0  0  0
  179.3180  181.5680  140.3280 C   0  0  0  0  0  1  0  0  0  0  0  0
  180.5820  179.4530  139.6360 C   0  0  0  0  0  0  0  0  0  0  0  0
  179.7570  180.1980  140.5170 N   0  0  0  0  0  0  0  0  0  0  0  0
  179.6760  177.1220  142.0960 O   0  0  0  0  0  0  0  0  0  0  0  0
  179.3330  179.3870  141.5650 N   0  0  0  0  0  2  0  0  0  0  0  0
  179.9160  178.1060  141.3490 C   0  0  0  0  0  0  0  0  0  0  0  0
  184.8090  177.5400  137.6840 C   0  0  0  0  0  3  0  0  0  0  0  0
  184.5780  176.2410  137.2270 C   0  0  0  0  0  3  0  0  0  0  0  0
  184.0550  178.0500  138.7400 C   0  0  0  0  0  3  0  0  0  0  0  0
  183.0630  177.2660  139.3470 C   0  0  0  0  0  0  0  0  0  0  0  0
  182.8340  175.9580  138.8860 C   0  0  0  0  0  0  0  0  0  0  0  0
  181.8550  175.1690  139.4840 O   0  0  0  0  0  1  0  0  0  0  0  0
  183.5930  175.4400  137.8230 C   0  0  0  0  0  0  0  0  0  0  0  0
  185.2810  173.0410  138.1170 O   0  0  0  0  0  0  0  0  0  0  0  0
  183.3310  174.1060  137.3590 N   0  0  0  0  0  2  0  0  0  0  0  0
  184.2000  172.9700  137.4750 C   0  0  0  0  0  0  0  0  0  0  0  0
  184.3540  171.6000  135.4260 C   0  0  0  0  0  1  0  0  0  0  0  0
  183.8190  171.6730  136.8420 C   0  0  0  0  0  3  0  0  0  0  0  0
  182.3120  171.5050  136.8340 C   0  0  0  0  0  1  0  0  0  0  0  0
  182.9130  179.0830  141.0430 C   0  0  0  0  0  2  0  0  0  0  0  0
  185.5150  178.2540  143.6720 C   0  0  0  0  0  3  0  0  0  0  0  0
  183.5580  178.8340  142.3660 C   0  0  0  0  0  0  0  0  0  0  0  0
  184.9070  178.4640  142.4300 C   0  0  0  0  0  3  0  0  0  0  0  0
  184.7790  178.4190  144.8490 C   0  0  0  0  0  3  0  0  0  0  0  0
  182.8240  179.0030  143.5450 C   0  0  0  0  0  3  0  0  0  0  0  0
  183.4330  178.7950  144.7850 C   0  0  0  0  0  3  0  0  0  0  0  0
  1 23  1  6  0  0  0
  2  1  1  1  0  0  0
  2  9  1  0  0  0  0
  3  5  2  0  0  0  0
  4  6  1  0  0  0  0
  5  2  1  0  0  0  0
  5  6  1  0  0  0  0
  6  8  1  0  0  0  0
  9  8  1  0  0  0  0
  9  7  2  0  0  0  0
 10 12  1  0  0  0  0
 11 10  2  0  0  0  0
 11 16  1  0  0  0  0
 12 13  2  0  0  0  0
 13  1  1  0  0  0  0
 14 13  1  0  0  0  0
 14 15  1  0  0  0  0
 16 14  2  0  0  0  0
 18 19  1  0  0  0  0
 18 16  1  0  0  0  0
 19 17  2  0  0  0  0
 20 21  1  0  0  0  0
 21 19  1  0  0  0  0
 22 21  1  0  0  0  0
 23 25  1  0  0  0  0
 24 27  1  0  0  0  0
 25 26  1  0  0  0  0
 25 28  2  0  0  0  0
 26 24  2  0  0  0  0
 28 29  1  0  0  0  0
 29 27  2  0  0  0  0
M  END
>  <MODEL>
6

>  <REMARK>
 VINA RESULT:      -6.8      5.185      7.953
  Name = 
  6 active torsions:
  status: ('A' for Active; 'I' for Inactive)
    1  A    between atoms: C_2  and  C_5
    2  A    between atoms: C_3  and  C_25
    3  A    between atoms: C_5  and  C_25
    4  A    between atoms: C_8  and  C_27
    5  A    between atoms: C_15  and  C_25
    6  A    between atoms: N_26  and  C_29
                            x       y       z     vdW  Elec       q    Type
                         _______ _______ _______ _____ _____    ______ ____

>  <TORSDO>
F 6

$$$$
=
 OpenBabel11062416203D

 29 31  0  0  1  0  0  0  0  0999 V2000
  182.6300  178.7560  140.0780 C   0  0  1  0  0  3  0  0  0  0  0  0
  181.7380  177.6180  140.6030 C   0  0  2  0  0  3  0  0  0  0  0  0
  182.6850  175.7190  139.3800 O   0  0  0  0  0  0  0  0  0  0  0  0
  180.0270  175.2520  138.1370 C   0  0  0  0  0  1  0  0  0  0  0  0
  181.7070  176.4710  139.6350 C   0  0  0  0  0  0  0  0  0  0  0  0
  180.4180  176.2920  139.0700 N   0  0  0  0  0  0  0  0  0  0  0  0
  179.7500  178.8890  141.2550 O   0  0  0  0  0  0  0  0  0  0  0  0
  179.5310  177.2120  139.6210 N   0  0  0  0  0  2  0  0  0  0  0  0
  180.2800  177.9980  140.5400 C   0  0  0  0  0  0  0  0  0  0  0  0
  186.4270  178.6280  140.3330 C   0  0  0  0  0  3  0  0  0  0  0  0
  186.6100  178.6190  141.7180 C   0  0  0  0  0  3  0  0  0  0  0  0
  185.1380  178.6660  139.8020 C   0  0  0  0  0  3  0  0  0  0  0  0
  184.0230  178.6940  140.6510 C   0  0  0  0  0  0  0  0  0  0  0  0
  184.2100  178.6870  142.0440 C   0  0  0  0  0  0  0  0  0  0  0  0
  183.1090  178.7200  142.8960 O   0  0  0  0  0  1  0  0  0  0  0  0
  185.5070  178.6500  142.5830 C   0  0  0  0  0  0  0  0  0  0  0  0
  187.1300  176.7970  144.2020 O   0  0  0  0  0  0  0  0  0  0  0  0
  185.6730  178.6280  144.0090 N   0  0  0  0  0  2  0  0  0  0  0  0
  186.4330  177.6770  144.7710 C   0  0  0  0  0  0  0  0  0  0  0  0
  185.6810  178.9720  146.7340 C   0  0  0  0  0  1  0  0  0  0  0  0
  186.4150  177.7330  146.2620 C   0  0  0  0  0  3  0  0  0  0  0  0
  187.8270  177.7280  146.8140 C   0  0  0  0  0  1  0  0  0  0  0  0
  182.6890  178.7630  138.5490 C   0  0  0  0  0  2  0  0  0  0  0  0
  180.4130  180.8120  136.3160 C   0  0  0  0  0  3  0  0  0  0  0  0
  181.9180  179.9100  137.9880 C   0  0  0  0  0  0  0  0  0  0  0  0
  181.1540  179.7420  136.8260 C   0  0  0  0  0  3  0  0  0  0  0  0
  180.4300  182.0490  136.9680 C   0  0  0  0  0  3  0  0  0  0  0  0
  181.9290  181.1470  138.6420 C   0  0  0  0  0  3  0  0  0  0  0  0
  181.1870  182.2160  138.1330 C   0  0  0  0  0  3  0  0  0  0  0  0
  1 23  1  6  0  0  0
  1 13  1  0  0  0  0
  2  1  1  6  0  0  0
  3  5  2  0  0  0  0
  4  6  1  0  0  0  0
  5  2  1  0  0  0  0
  6  8  1  0  0  0  0
  6  5  1  0  0  0  0
  8  9  1  0  0  0  0
  9  2  1  0  0  0  0
  9  7  2  0  0  0  0
 10 11  1  0  0  0  0
 11 16  2  0  0  0  0
 12 10  2  0  0  0  0
 12 13  1  0  0  0  0
 13 14  2  0  0  0  0
 14 16  1  0  0  0  0
 14 15  1  0  0  0  0
 16 18  1  0  0  0  0
 17 19  2  0  0  0  0
 18 19  1  0  0  0  0
 19 21  1  0  0  0  0
 21 20  1  0  0  0  0
 21 22  1  0  0  0  0
 24 26  2  0  0  0  0
 24 27  1  0  0  0  0
 25 23  1  0  0  0  0
 25 28  2  0  0  0  0
 26 25  1  0  0  0  0
 27 29  2  0  0  0  0
 29 28  1  0  0  0  0
M  END
>  <MODEL>
7

>  <REMARK>
 VINA RESULT:      -6.7      3.015      8.749
  Name = 
  6 active torsions:
  status: ('A' for Active; 'I' for Inactive)
    1  A    between atoms: C_2  and  C_5
    2  A    between atoms: C_3  and  C_25
    3  A    between atoms: C_5  and  C_25
    4  A    between atoms: C_8  and  C_27
    5  A    between atoms: C_15  and  C_25
    6  A    between atoms: N_26  and  C_29
                            x       y       z     vdW  Elec       q    Type
                         _______ _______ _______ _____ _____    ______ ____

>  <TORSDO>
F 6

$$$$
=
 OpenBabel11062416203D

 29 31  0  0  1  0  0  0  0  0999 V2000
  188.6710  177.7990  139.6060 C   0  0  1  0  0  3  0  0  0  0  0  0
  187.8450  178.1650  138.3610 C   0  0  2  0  0  3  0  0  0  0  0  0
  186.8520  175.9880  137.8380 O   0  0  0  0  0  0  0  0  0  0  0  0
  188.1730  176.0750  135.1780 C   0  0  0  0  0  1  0  0  0  0  0  0
  187.5910  176.9540  137.5110 C   0  0  0  0  0  0  0  0  0  0  0  0
  188.2440  177.0460  136.2550 N   0  0  0  0  0  0  0  0  0  0  0  0
  189.0810  180.1290  137.5800 O   0  0  0  0  0  0  0  0  0  0  0  0
  188.9000  178.2680  136.1530 N   0  0  0  0  0  2  0  0  0  0  0  0
  188.6680  178.9570  137.3770 C   0  0  0  0  0  0  0  0  0  0  0  0
  185.9060  178.7620  142.0400 C   0  0  0  0  0  3  0  0  0  0  0  0
  186.3950  178.2330  143.2360 C   0  0  0  0  0  3  0  0  0  0  0  0
  186.6460  178.6280  140.8660 C   0  0  0  0  0  3  0  0  0  0  0  0
  187.8810  177.9630  140.8790 C   0  0  0  0  0  0  0  0  0  0  0  0
  188.3700  177.4290  142.0840 C   0  0  0  0  0  0  0  0  0  0  0  0
  189.5920  176.7640  142.1060 O   0  0  0  0  0  1  0  0  0  0  0  0
  187.6270  177.5620  143.2680 C   0  0  0  0  0  0  0  0  0  0  0  0
  189.8050  178.6280  144.9440 O   0  0  0  0  0  0  0  0  0  0  0  0
  188.1540  177.0220  144.4900 N   0  0  0  0  0  2  0  0  0  0  0  0
  189.2520  177.5410  145.2550 C   0  0  0  0  0  0  0  0  0  0  0  0
  189.2520  177.4540  147.7230 C   0  0  0  0  0  1  0  0  0  0  0  0
  189.7450  176.7950  146.4510 C   0  0  0  0  0  3  0  0  0  0  0  0
  191.2600  176.7320  146.4540 C   0  0  0  0  0  1  0  0  0  0  0  0
  189.2280  176.3770  139.5100 C   0  0  0  0  0  2  0  0  0  0  0  0
  192.9360  177.1310  139.2980 C   0  0  0  0  0  3  0  0  0  0  0  0
  190.6450  176.3870  139.0410 C   0  0  0  0  0  0  0  0  0  0  0  0
  191.6050  177.1430  139.7250 C   0  0  0  0  0  3  0  0  0  0  0  0
  193.3110  176.3620  138.1920 C   0  0  0  0  0  3  0  0  0  0  0  0
  191.0220  175.6130  137.9380 C   0  0  0  0  0  3  0  0  0  0  0  0
  192.3530  175.6010  137.5130 C   0  0  0  0  0  3  0  0  0  0  0  0
  1 23  1  6  0  0  0
  1 13  1  0  0  0  0
  2  1  1  1  0  0  0
  4  6  1  0  0  0  0
  5  3  2  0  0  0  0
  5  2  1  0  0  0  0
  6  5  1  0  0  0  0
  8  6  1  0  0  0  0
  8  9  1  0  0  0  0
  9  7  2  0  0  0  0
  9  2  1  0  0  0  0
 10 11  1  0  0  0  0
 11 16  2  0  0  0  0
 12 13  1  0  0  0  0
 12 10  2  0  0  0  0
 13 14  2  0  0  0  0
 14 15  1  0  0  0  0
 14 16  1  0  0  0  0
 16 18  1  0  0  0  0
 17 19  2  0  0  0  0
 18 19  1  0  0  0  0
 19 21  1  0  0  0  0
 21 22  1  0  0  0  0
 21 20  1  0  0  0  0
 24 26  1  0  0  0  0
 25 23  1  0  0  0  0
 25 26  2  0  0  0  0
 27 24  2  0  0  0  0
 28 25  1  0  0  0  0
 29 28  2  0  0  0  0
 29 27  1  0  0  0  0
M  END
>  <MODEL>
8

>  <REMARK>
 VINA RESULT:      -6.6      3.001      7.547
  Name = 
  6 active torsions:
  status: ('A' for Active; 'I' for Inactive)
    1  A    between atoms: C_2  and  C_5
    2  A    between atoms: C_3  and  C_25
    3  A    between atoms: C_5  and  C_25
    4  A    between atoms: C_8  and  C_27
    5  A    between atoms: C_15  and  C_25
    6  A    between atoms: N_26  and  C_29
                            x       y       z     vdW  Elec       q    Type
                         _______ _______ _______ _____ _____    ______ ____

>  <TORSDO>
F 6

$$$$
=
 OpenBabel11062416203D

 29 31  0  0  1  0  0  0  0  0999 V2000
  188.5780  177.3910  139.6440 C   0  0  1  0  0  3  0  0  0  0  0  0
  189.0150  177.1070  138.1960 C   0  0  2  0  0  3  0  0  0  0  0  0
  189.0570  179.3840  137.2950 O   0  0  0  0  0  0  0  0  0  0  0  0
  187.0240  178.5760  135.2840 C   0  0  0  0  0  1  0  0  0  0  0  0
  188.5870  178.2150  137.2790 C   0  0  0  0  0  0  0  0  0  0  0  0
  187.6170  177.7770  136.3420 N   0  0  0  0  0  0  0  0  0  0  0  0
  188.2600  174.7900  137.9610 O   0  0  0  0  0  0  0  0  0  0  0  0
  187.3750  176.4180  136.5130 N   0  0  0  0  0  2  0  0  0  0  0  0
  188.1990  175.9920  137.5920 C   0  0  0  0  0  0  0  0  0  0  0  0
  192.0990  177.4730  141.0920 C   0  0  0  0  0  3  0  0  0  0  0  0
  191.8570  177.1310  142.4240 C   0  0  0  0  0  3  0  0  0  0  0  0
  191.0380  177.5510  140.1900 C   0  0  0  0  0  3  0  0  0  0  0  0
  189.7270  177.2870  140.6130 C   0  0  0  0  0  0  0  0  0  0  0  0
  189.4870  176.9450  141.9550 C   0  0  0  0  0  0  0  0  0  0  0  0
  188.1880  176.6850  142.3860 O   0  0  0  0  0  1  0  0  0  0  0  0
  190.5520  176.8670  142.8670 C   0  0  0  0  0  0  0  0  0  0  0  0
  189.8090  178.6230  145.1150 O   0  0  0  0  0  0  0  0  0  0  0  0
  190.2830  176.5000  144.2290 N   0  0  0  0  0  2  0  0  0  0  0  0
  189.9730  177.3900  145.3130 C   0  0  0  0  0  0  0  0  0  0  0  0
  189.0550  177.8300  147.5620 C   0  0  0  0  0  1  0  0  0  0  0  0
  189.8250  176.8530  146.6970 C   0  0  0  0  0  3  0  0  0  0  0  0
  191.1840  176.5790  147.3120 C   0  0  0  0  0  1  0  0  0  0  0  0
  187.9060  178.7610  139.7670 C   0  0  0  0  0  2  0  0  0  0  0  0
  184.7560  178.7330  141.8740 C   0  0  0  0  0  3  0  0  0  0  0  0
  186.4770  178.6220  140.1720 C   0  0  0  0  0  0  0  0  0  0  0  0
  186.1000  178.8410  141.5020 C   0  0  0  0  0  3  0  0  0  0  0  0
  183.7880  178.4130  140.9180 C   0  0  0  0  0  3  0  0  0  0  0  0
  185.5060  178.3060  139.2150 C   0  0  0  0  0  3  0  0  0  0  0  0
  184.1640  178.2000  139.5870 C   0  0  0  0  0  3  0  0  0  0  0  0
  1 23  1  6  0  0  0
  1 13  1  0  0  0  0
  2  1  1  1  0  0  0
  4  6  1  0  0  0  0
  5  3  2  0  0  0  0
  5  2  1  0  0  0  0
  6  8  1  0  0  0  0
  6  5  1  0  0  0  0
  8  9  1  0  0  0  0
  9  7  2  0  0  0  0
  9  2  1  0  0  0  0
 10 11  1  0  0  0  0
 11 16  2  0  0  0  0
 12 13  1  0  0  0  0
 12 10  2  0  0  0  0
 13 14  2  0  0  0  0
 14 15  1  0  0  0  0
 14 16  1  0  0  0  0
 16 18  1  0  0  0  0
 17 19  2  0  0  0  0
 18 19  1  0  0  0  0
 19 21  1  0  0  0  0
 21 22  1  0  0  0  0
 21 20  1  0  0  0  0
 23 25  1  0  0  0  0
 25 26  2  0  0  0  0
 26 24  1  0  0  0  0
 27 24  2  0  0  0  0
 28 29  2  0  0  0  0
 28 25  1  0  0  0  0
 29 27  1  0  0  0  0
M  END
>  <MODEL>
9

>  <REMARK>
 VINA RESULT:      -6.6      2.507      7.145
  Name = 
  6 active torsions:
  status: ('A' for Active; 'I' for Inactive)
    1  A    between atoms: C_2  and  C_5
    2  A    between atoms: C_3  and  C_25
    3  A    between atoms: C_5  and  C_25
    4  A    between atoms: C_8  and  C_27
    5  A    between atoms: C_15  and  C_25
    6  A    between atoms: N_26  and  C_29
                            x       y       z     vdW  Elec       q    Type
                         _______ _______ _______ _____ _____    ______ ____

>  <TORSDO>
F 6

$$$$
