=
 OpenBabel11062414553D

 51 57  0  0  1  0  0  0  0  0999 V2000
  181.8440  177.5080  139.6810 C   0  0  2  0  0  0  0  0  0  0  0  0
  185.0550  179.7900  143.0680 C   0  0  0  0  0  2  0  0  0  0  0  0
  180.9430  179.2810  141.2650 C   0  0  0  0  0  2  0  0  0  0  0  0
  184.7800  178.6570  142.0690 C   0  0  1  0  0  3  0  0  0  0  0  0
  183.1550  178.2580  145.4410 O   0  0  0  0  0  0  0  0  0  0  0  0
  183.4580  178.7710  141.2630 C   0  0  1  0  0  3  0  0  0  0  0  0
  183.0800  178.8900  144.3990 C   0  0  0  0  0  0  0  0  0  0  0  0
  183.1070  177.4360  140.5840 C   0  0  0  0  0  2  0  0  0  0  0  0
  184.0170  180.0420  144.1650 C   0  0  0  0  0  2  0  0  0  0  0  0
  181.1490  178.8800  139.8040 C   0  0  0  0  0  2  0  0  0  0  0  0
  182.2460  179.2860  142.0680 C   0  0  2  0  0  3  0  0  0  0  0  0
  182.0490  178.5110  143.3690 C   0  0  0  0  0  2  0  0  0  0  0  0
  180.8490  176.4470  140.1070 C   0  0  0  0  0  0  0  0  0  0  0  0
  179.6900  176.7910  140.7930 O   0  0  0  0  0  1  0  0  0  0  0  0
  181.0820  175.2300  139.8750 O   0  0  0  0  0  0  0  0  0  0  0  0
  182.2370  177.3010  138.1900 C   0  0  2  0  0  3  0  0  0  0  0  0
  183.7660  175.5910  137.0560 C   0  0  0  0  0  0  0  0  0  0  0  0
  185.0330  175.3200  136.2970 C   0  0  0  0  0  2  0  0  0  0  0  0
  183.6750  176.7840  137.9800 C   0  0  1  0  0  3  0  0  0  0  0  0
  184.6960  177.9070  137.6960 C   0  0  0  0  0  2  0  0  0  0  0  0
  186.1430  176.0890  136.8640 N   0  0  0  0  0  0  0  0  0  0  0  0
  182.8390  174.7980  136.9730 O   0  0  0  0  0  0  0  0  0  0  0  0
  185.8190  177.5050  136.7310 C   0  0  0  0  0  2  0  0  0  0  0  0
  187.1620  174.9370  134.7070 O   0  0  0  0  0  0  0  0  0  0  0  0
  188.2350  177.3130  135.3090 C   0  0  0  0  0  1  0  0  0  0  0  0
  187.5470  175.7750  135.8930 S   0  0  0  0  0  0  0  0  0  0  0  0
  188.5840  175.0450  136.7040 O   0  0  0  0  0  0  0  0  0  0  0  0
  181.9100  178.5110  137.3000 C   0  0  2  0  0  3  0  0  0  0  0  0
  180.6970  178.2690  136.5580 N   0  0  0  0  0  2  0  0  0  0  0  0
  181.9550  178.1540  135.9890 O   0  0  0  0  0  0  0  0  0  0  0  0
  186.0340  178.4940  141.1960 C   0  0  0  0  0  2  0  0  0  0  0  0
  188.3330  178.6600  142.1330 C   0  0  1  0  0  3  0  0  0  0  0  0
  188.5090  177.6450  141.0140 C   0  0  1  0  0  3  0  0  0  0  0  0
  187.1990  177.7010  141.8070 C   0  0  2  0  0  3  0  0  0  0  0  0
  188.5070  178.3730  139.6860 C   0  0  0  0  0  2  0  0  0  0  0  0
  190.2740  176.6480  139.4920 C   0  0  0  0  0  1  0  0  0  0  0  0
  189.5630  177.7760  138.7760 C   0  0  0  0  0  2  0  0  0  0  0  0
  189.0440  178.2240  143.3340 N   0  0  0  0  0  0  0  0  0  0  0  0
  191.7240  178.8160  143.9790 C   0  0  0  0  0  1  0  0  0  0  0  0
  191.6540  175.6500  143.5380 C   0  0  0  0  0  2  0  0  0  0  0  0
  190.2300  176.0710  143.8230 C   0  0  0  0  0  2  0  0  0  0  0  0
  191.4680  177.8100  142.8610 C   0  0  1  0  0  3  0  0  0  0  0  0
  192.3730  176.7410  143.0030 O   0  0  0  0  0  0  0  0  0  0  0  0
  190.0540  177.2400  142.8940 C   0  0  2  0  0  3  0  0  0  0  0  0
  188.0430  177.5580  144.1730 C   0  0  0  0  0  2  0  0  0  0  0  0
  187.9690  178.2320  145.5390 C   0  0  1  0  0  3  0  0  0  0  0  0
  190.5830  176.9730  147.5110 C   0  0  0  0  0  1  0  0  0  0  0  0
  187.1240  177.4030  146.4820 C   0  0  0  0  0  2  0  0  0  0  0  0
  188.1290  176.7430  147.3650 C   0  0  0  0  0  2  0  0  0  0  0  0
  189.2770  177.7170  147.3150 C   0  0  2  0  0  3  0  0  0  0  0  0
  189.2710  178.3610  146.0650 O   0  0  0  0  0  0  0  0  0  0  0  0
  1 10  1  0  0  0  0
  1 13  1  1  0  0  0
  1  8  1  0  0  0  0
  2  9  1  0  0  0  0
  4 31  1  6  0  0  0
  4  2  1  0  0  0  0
  6  8  1  1  0  0  0
  6 11  1  0  0  0  0
  6  4  1  0  0  0  0
  7  5  2  0  0  0  0
  9  7  1  0  0  0  0
 10  3  1  0  0  0  0
 11  3  1  6  0  0  0
 11 12  1  0  0  0  0
 12  7  1  0  0  0  0
 13 14  1  0  0  0  0
 15 13  2  0  0  0  0
 16 28  1  6  0  0  0
 16  1  1  0  0  0  0
 17 19  1  0  0  0  0
 18 21  1  0  0  0  0
 18 17  1  0  0  0  0
 19 16  1  6  0  0  0
 20 19  1  0  0  0  0
 22 17  2  0  0  0  0
 23 21  1  0  0  0  0
 23 20  1  0  0  0  0
 24 26  2  0  0  0  0
 25 26  1  0  0  0  0
 26 27  2  0  0  0  0
 26 21  1  0  0  0  0
 28 30  1  6  0  0  0
 29 28  1  0  0  0  0
 30 29  1  0  0  0  0
 32 38  1  1  0  0  0
 33 35  1  6  0  0  0
 33 34  1  0  0  0  0
 33 32  1  0  0  0  0
 34 31  1  6  0  0  0
 34 32  1  0  0  0  0
 37 36  1  0  0  0  0
 37 35  1  0  0  0  0
 38 45  1  0  0  0  0
 40 41  1  0  0  0  0
 42 44  1  0  0  0  0
 42 43  1  0  0  0  0
 42 39  1  1  0  0  0
 43 40  1  0  0  0  0
 44 38  1  1  0  0  0
 44 41  1  0  0  0  0
 46 45  1  6  0  0  0
 46 51  1  0  0  0  0
 46 48  1  0  0  0  0
 48 49  1  0  0  0  0
 50 49  1  0  0  0  0
 50 47  1  6  0  0  0
 51 50  1  0  0  0  0
M  END
>  <MODEL>
1

>  <REMARK>
 VINA RESULT:      -7.2      0.000      0.000
  Name = 
  13 active torsions:
  status: ('A' for Active; 'I' for Inactive)
    1  A    between atoms: C_2  and  N_37
    2  A    between atoms: C_5  and  C_10
    3  A    between atoms: C_5  and  C_15
    4  A    between atoms: C_9  and  C_15
    5  A    between atoms: C_12  and  C_43
    6  A    between atoms: C_15  and  C_21
    7  A    between atoms: C_16  and  C_51
    8  A    between atoms: C_19  and  C_32
    9  A    between atoms: S_24  and  N_39
   10  A    between atoms: C_32  and  C_40
   11  A    between atoms: N_37  and  C_43
   12  A    between atoms: N_37  and  C_45
   13  A    between atoms: C_38  and  C_51
                            x       y       z     vdW  Elec       q    Type
                         _______ _______ _______ _____ _____    ______ ____

>  <TORSDO>
F 13

$$$$
=
 OpenBabel11062414553D

 51 57  0  0  1  0  0  0  0  0999 V2000
  191.2140  175.7780  136.8970 C   0  0  2  0  0  0  0  0  0  0  0  0
  186.9900  178.2410  138.6520 C   0  0  0  0  0  2  0  0  0  0  0  0
  189.5600  176.7700  135.2390 C   0  0  0  0  0  2  0  0  0  0  0  0
  188.1870  177.3180  138.9230 C   0  0  1  0  0  3  0  0  0  0  0  0
  185.2670  175.6960  137.1880 O   0  0  0  0  0  0  0  0  0  0  0  0
  189.1900  177.1480  137.7510 C   0  0  1  0  0  3  0  0  0  0  0  0
  186.1930  176.4700  137.0050 C   0  0  0  0  0  0  0  0  0  0  0  0
  190.1210  175.9470  137.9890 C   0  0  0  0  0  2  0  0  0  0  0  0
  186.0720  177.8930  137.4780 C   0  0  0  0  0  2  0  0  0  0  0  0
  191.0040  176.7780  135.7400 C   0  0  0  0  0  2  0  0  0  0  0  0
  188.5450  177.0440  136.3520 C   0  0  2  0  0  3  0  0  0  0  0  0
  187.4380  175.9920  136.3060 C   0  0  0  0  0  2  0  0  0  0  0  0
  191.1460  174.3800  136.3160 C   0  0  0  0  0  0  0  0  0  0  0  0
  191.5160  174.1370  134.9980 O   0  0  0  0  0  0  0  0  0  0  0  0
  190.7150  173.4240  137.0150 O   0  0  0  0  0  1  0  0  0  0  0  0
  192.6240  176.0340  137.5030 C   0  0  2  0  0  3  0  0  0  0  0  0
  194.8720  175.7820  136.3070 C   0  0  0  0  0  0  0  0  0  0  0  0
  196.2280  175.1390  136.2640 C   0  0  0  0  0  2  0  0  0  0  0  0
  193.7190  175.0790  136.9850 C   0  0  1  0  0  3  0  0  0  0  0  0
  194.1260  173.9990  138.0110 C   0  0  0  0  0  2  0  0  0  0  0  0
  196.1290  173.7150  136.5950 N   0  0  0  0  0  0  0  0  0  0  0  0
  194.6960  176.8440  135.7260 O   0  0  0  0  0  0  0  0  0  0  0  0
  195.6090  173.6090  137.9540 C   0  0  0  0  0  2  0  0  0  0  0  0
  198.3060  173.1320  135.2040 O   0  0  0  0  0  0  0  0  0  0  0  0
  198.7780  174.0150  137.6840 C   0  0  0  0  0  1  0  0  0  0  0  0
  197.7370  173.0640  136.5920 S   0  0  0  0  0  0  0  0  0  0  0  0
  197.7160  171.6310  137.0530 O   0  0  0  0  0  0  0  0  0  0  0  0
  192.6170  176.1470  139.0350 C   0  0  2  0  0  3  0  0  0  0  0  0
  192.5760  177.5340  139.4320 N   0  0  0  0  0  2  0  0  0  0  0  0
  193.7400  176.7830  139.4630 O   0  0  0  0  0  0  0  0  0  0  0  0
  188.8340  177.7750  140.2400 C   0  0  0  0  0  2  0  0  0  0  0  0
  188.0990  177.9500  142.6110 C   0  0  1  0  0  3  0  0  0  0  0  0
  189.3740  177.1300  142.7240 C   0  0  1  0  0  3  0  0  0  0  0  0
  188.4650  176.9770  141.5000 C   0  0  2  0  0  3  0  0  0  0  0  0
  190.5660  178.0490  142.5500 C   0  0  0  0  0  2  0  0  0  0  0  0
  191.4460  176.0480  143.7150 C   0  0  0  0  0  1  0  0  0  0  0  0
  191.7840  177.4340  143.2120 C   0  0  0  0  0  2  0  0  0  0  0  0
  187.0520  177.3860  143.4600 N   0  0  0  0  0  0  0  0  0  0  0  0
  184.9420  178.1500  141.7520 C   0  0  0  0  0  1  0  0  0  0  0  0
  184.1080  179.2330  144.6420 C   0  0  0  0  0  2  0  0  0  0  0  0
  185.1270  178.1400  144.8760 C   0  0  0  0  0  2  0  0  0  0  0  0
  185.4190  179.1630  142.7900 C   0  0  1  0  0  3  0  0  0  0  0  0
  184.2920  179.7880  143.3580 O   0  0  0  0  0  0  0  0  0  0  0  0
  186.2200  178.5180  143.9160 C   0  0  2  0  0  3  0  0  0  0  0  0
  187.7430  176.7910  144.6080 C   0  0  0  0  0  2  0  0  0  0  0  0
  188.0660  177.8650  145.6430 C   0  0  1  0  0  3  0  0  0  0  0  0
  190.9410  176.8610  147.3840 C   0  0  0  0  0  1  0  0  0  0  0  0
  187.3960  177.5360  146.9590 C   0  0  0  0  0  2  0  0  0  0  0  0
  188.5140  177.0250  147.8040 C   0  0  0  0  0  2  0  0  0  0  0  0
  189.7050  177.7190  147.1980 C   0  0  2  0  0  3  0  0  0  0  0  0
  189.4620  177.9250  145.8300 O   0  0  0  0  0  0  0  0  0  0  0  0
  1 13  1  6  0  0  0
  1 16  1  0  0  0  0
  1  8  1  0  0  0  0
  2  4  1  0  0  0  0
  3 10  1  0  0  0  0
  4 31  1  1  0  0  0
  6  8  1  1  0  0  0
  6  4  1  0  0  0  0
  7  5  2  0  0  0  0
  7  9  1  0  0  0  0
  9  2  1  0  0  0  0
 10  1  1  0  0  0  0
 11  3  1  6  0  0  0
 11  6  1  0  0  0  0
 12 11  1  0  0  0  0
 12  7  1  0  0  0  0
 13 15  1  0  0  0  0
 14 13  2  0  0  0  0
 16 19  1  1  0  0  0
 17 19  1  0  0  0  0
 18 17  1  0  0  0  0
 18 21  1  0  0  0  0
 19 20  1  1  0  0  0
 21 23  1  0  0  0  0
 22 17  2  0  0  0  0
 23 20  1  0  0  0  0
 24 26  2  0  0  0  0
 26 21  1  0  0  0  0
 26 27  2  0  0  0  0
 26 25  1  0  0  0  0
 28 16  1  6  0  0  0
 28 29  1  0  0  0  0
 28 30  1  0  0  0  0
 29 30  1  0  0  0  0
 32 33  1  0  0  0  0
 32 38  1  1  0  0  0
 33 35  1  6  0  0  0
 34 31  1  6  0  0  0
 34 32  1  0  0  0  0
 34 33  1  0  0  0  0
 35 37  1  0  0  0  0
 37 36  1  0  0  0  0
 38 45  1  0  0  0  0
 40 41  1  0  0  0  0
 42 39  1  6  0  0  0
 42 43  1  0  0  0  0
 42 44  1  0  0  0  0
 43 40  1  0  0  0  0
 44 38  1  6  0  0  0
 44 41  1  0  0  0  0
 46 45  1  6  0  0  0
 46 51  1  0  0  0  0
 46 48  1  0  0  0  0
 48 49  1  0  0  0  0
 50 47  1  6  0  0  0
 50 49  1  0  0  0  0
 51 50  1  0  0  0  0
M  END
>  <MODEL>
2

>  <REMARK>
 VINA RESULT:      -6.8      4.111      8.223
  Name = 
  13 active torsions:
  status: ('A' for Active; 'I' for Inactive)
    1  A    between atoms: C_2  and  N_37
    2  A    between atoms: C_5  and  C_10
    3  A    between atoms: C_5  and  C_15
    4  A    between atoms: C_9  and  C_15
    5  A    between atoms: C_12  and  C_43
    6  A    between atoms: C_15  and  C_21
    7  A    between atoms: C_16  and  C_51
    8  A    between atoms: C_19  and  C_32
    9  A    between atoms: S_24  and  N_39
   10  A    between atoms: C_32  and  C_40
   11  A    between atoms: N_37  and  C_43
   12  A    between atoms: N_37  and  C_45
   13  A    between atoms: C_38  and  C_51
                            x       y       z     vdW  Elec       q    Type
                         _______ _______ _______ _____ _____    ______ ____

>  <TORSDO>
F 13

$$$$
=
 OpenBabel11062414553D

 51 57  0  0  1  0  0  0  0  0999 V2000
  187.8870  176.2180  136.8440 C   0  0  2  0  0  0  0  0  0  0  0  0
  182.7470  176.8950  136.5000 C   0  0  0  0  0  2  0  0  0  0  0  0
  186.7340  175.9500  134.5940 C   0  0  0  0  0  2  0  0  0  0  0  0
  183.9960  176.6910  137.3700 C   0  0  1  0  0  3  0  0  0  0  0  0
  182.6670  173.5840  135.7110 O   0  0  0  0  0  0  0  0  0  0  0  0
  185.3550  176.7090  136.6210 C   0  0  1  0  0  3  0  0  0  0  0  0
  183.2720  174.6200  135.4830 C   0  0  0  0  0  0  0  0  0  0  0  0
  186.4800  176.1390  137.5010 C   0  0  0  0  0  2  0  0  0  0  0  0
  182.5080  175.9090  135.3540 C   0  0  0  0  0  2  0  0  0  0  0  0
  187.7940  176.7150  135.3860 C   0  0  0  0  0  2  0  0  0  0  0  0
  185.3510  176.0020  135.2480 C   0  0  2  0  0  3  0  0  0  0  0  0
  184.7700  174.5910  135.3310 C   0  0  0  0  0  2  0  0  0  0  0  0
  188.5190  174.8400  136.8220 C   0  0  0  0  0  0  0  0  0  0  0  0
  189.7390  174.6260  136.1920 O   0  0  0  0  0  0  0  0  0  0  0  0
  187.9230  173.8610  137.3460 O   0  0  0  0  0  1  0  0  0  0  0  0
  188.7930  177.2060  137.6320 C   0  0  2  0  0  3  0  0  0  0  0  0
  190.5700  176.8120  139.4320 C   0  0  0  0  0  0  0  0  0  0  0  0
  190.9970  176.9880  140.8590 C   0  0  0  0  0  2  0  0  0  0  0  0
  189.1000  176.7680  139.0790 C   0  0  1  0  0  3  0  0  0  0  0  0
  188.1600  177.4050  140.1250 C   0  0  0  0  0  2  0  0  0  0  0  0
  189.8760  176.7270  141.7650 N   0  0  0  0  0  0  0  0  0  0  0  0
  191.4190  176.6330  138.5710 O   0  0  0  0  0  0  0  0  0  0  0  0
  188.8310  177.7020  141.4730 C   0  0  0  0  0  2  0  0  0  0  0  0
  191.5220  176.0430  143.7250 O   0  0  0  0  0  0  0  0  0  0  0  0
  191.0820  178.6730  143.5130 C   0  0  0  0  0  1  0  0  0  0  0  0
  190.4310  177.0180  143.3830 S   0  0  0  0  0  0  0  0  0  0  0  0
  189.2950  176.8550  144.3580 O   0  0  0  0  0  0  0  0  0  0  0  0
  188.3220  178.6660  137.5460 C   0  0  2  0  0  3  0  0  0  0  0  0
  189.3510  179.4880  136.9570 N   0  0  0  0  0  2  0  0  0  0  0  0
  189.1080  179.4590  138.3200 O   0  0  0  0  0  0  0  0  0  0  0  0
  183.9120  177.6850  138.5400 C   0  0  0  0  0  2  0  0  0  0  0  0
  182.2540  178.6090  140.1480 C   0  0  1  0  0  3  0  0  0  0  0  0
  183.2360  177.8950  141.0650 C   0  0  1  0  0  3  0  0  0  0  0  0
  182.9330  177.3340  139.6710 C   0  0  2  0  0  3  0  0  0  0  0  0
  184.4940  178.7290  141.1820 C   0  0  0  0  0  2  0  0  0  0  0  0
  184.0960  178.6120  143.6240 C   0  0  0  0  0  1  0  0  0  0  0  0
  185.1390  178.4920  142.5340 C   0  0  0  0  0  2  0  0  0  0  0  0
  180.8790  178.3320  140.5590 N   0  0  0  0  0  0  0  0  0  0  0  0
  179.1490  180.5370  140.8750 C   0  0  0  0  0  1  0  0  0  0  0  0
  179.3090  179.1830  143.7670 C   0  0  0  0  0  2  0  0  0  0  0  0
  179.7310  178.1210  142.7770 C   0  0  0  0  0  2  0  0  0  0  0  0
  180.1750  180.2750  141.9740 C   0  0  1  0  0  3  0  0  0  0  0  0
  179.5520  180.4630  143.2230 O   0  0  0  0  0  0  0  0  0  0  0  0
  180.7330  178.8570  141.9330 C   0  0  2  0  0  3  0  0  0  0  0  0
  180.7500  176.8720  140.5750 C   0  0  0  0  0  2  0  0  0  0  0  0
  179.4040  176.4550  139.9920 C   0  0  1  0  0  3  0  0  0  0  0  0
  179.9210  173.6140  138.0000 C   0  0  0  0  0  1  0  0  0  0  0  0
  179.1940  177.1150  138.6460 C   0  0  0  0  0  2  0  0  0  0  0  0
  179.4480  176.0140  137.6720 C   0  0  0  0  0  2  0  0  0  0  0  0
  179.1010  174.7940  138.4820 C   0  0  2  0  0  3  0  0  0  0  0  0
  179.3790  175.0530  139.8350 O   0  0  0  0  0  0  0  0  0  0  0  0
  1 13  1  1  0  0  0
  1  8  1  0  0  0  0
  1 16  1  0  0  0  0
  2  4  1  0  0  0  0
  3 10  1  0  0  0  0
  4 31  1  1  0  0  0
  6  4  1  0  0  0  0
  6  8  1  1  0  0  0
  7  5  2  0  0  0  0
  9  7  1  0  0  0  0
  9  2  1  0  0  0  0
 10  1  1  0  0  0  0
 11  3  1  1  0  0  0
 11 12  1  0  0  0  0
 11  6  1  0  0  0  0
 12  7  1  0  0  0  0
 13 15  1  0  0  0  0
 14 13  2  0  0  0  0
 16 28  1  1  0  0  0
 17 18  1  0  0  0  0
 18 21  1  0  0  0  0
 19 16  1  6  0  0  0
 19 17  1  0  0  0  0
 19 20  1  0  0  0  0
 20 23  1  0  0  0  0
 21 26  1  0  0  0  0
 22 17  2  0  0  0  0
 23 21  1  0  0  0  0
 26 25  1  0  0  0  0
 26 24  2  0  0  0  0
 26 27  2  0  0  0  0
 28 29  1  6  0  0  0
 28 30  1  0  0  0  0
 29 30  1  0  0  0  0
 32 38  1  1  0  0  0
 32 33  1  0  0  0  0
 33 35  1  6  0  0  0
 34 31  1  6  0  0  0
 34 32  1  0  0  0  0
 34 33  1  0  0  0  0
 35 37  1  0  0  0  0
 37 36  1  0  0  0  0
 38 45  1  0  0  0  0
 41 40  1  0  0  0  0
 42 39  1  6  0  0  0
 42 43  1  0  0  0  0
 43 40  1  0  0  0  0
 44 38  1  6  0  0  0
 44 42  1  0  0  0  0
 44 41  1  0  0  0  0
 46 45  1  6  0  0  0
 48 46  1  0  0  0  0
 49 50  1  0  0  0  0
 49 48  1  0  0  0  0
 50 47  1  6  0  0  0
 50 51  1  0  0  0  0
 51 46  1  0  0  0  0
M  END
>  <MODEL>
3

>  <REMARK>
 VINA RESULT:      -6.7      2.618      8.924
  Name = 
  13 active torsions:
  status: ('A' for Active; 'I' for Inactive)
    1  A    between atoms: C_2  and  N_37
    2  A    between atoms: C_5  and  C_10
    3  A    between atoms: C_5  and  C_15
    4  A    between atoms: C_9  and  C_15
    5  A    between atoms: C_12  and  C_43
    6  A    between atoms: C_15  and  C_21
    7  A    between atoms: C_16  and  C_51
    8  A    between atoms: C_19  and  C_32
    9  A    between atoms: S_24  and  N_39
   10  A    between atoms: C_32  and  C_40
   11  A    between atoms: N_37  and  C_43
   12  A    between atoms: N_37  and  C_45
   13  A    between atoms: C_38  and  C_51
                            x       y       z     vdW  Elec       q    Type
                         _______ _______ _______ _____ _____    ______ ____

>  <TORSDO>
F 13

$$$$
=
 OpenBabel11062414553D

 51 57  0  0  1  0  0  0  0  0999 V2000
  189.2750  177.4070  142.0110 C   0  0  2  0  0  0  0  0  0  0  0  0
  184.8140  178.2170  144.5470 C   0  0  0  0  0  2  0  0  0  0  0  0
  188.7230  176.0020  144.0570 C   0  0  0  0  0  2  0  0  0  0  0  0
  185.8510  178.6880  143.5170 C   0  0  1  0  0  3  0  0  0  0  0  0
  186.8070  179.2170  147.1190 O   0  0  0  0  0  0  0  0  0  0  0  0
  186.9880  177.6840  143.1910 C   0  0  1  0  0  3  0  0  0  0  0  0
  186.6870  178.3510  146.2660 C   0  0  0  0  0  0  0  0  0  0  0  0
  188.1450  178.3770  142.4530 C   0  0  0  0  0  2  0  0  0  0  0  0
  185.3180  177.8230  145.9370 C   0  0  0  0  0  2  0  0  0  0  0  0
  189.0350  175.9850  142.5610 C   0  0  0  0  0  2  0  0  0  0  0  0
  187.5330  176.9000  144.4050 C   0  0  2  0  0  3  0  0  0  0  0  0
  187.9090  177.8240  145.5620 C   0  0  0  0  0  2  0  0  0  0  0  0
  190.6060  177.8910  142.5520 C   0  0  0  0  0  0  0  0  0  0  0  0
  191.6550  177.0030  142.7630 O   0  0  0  0  0  0  0  0  0  0  0  0
  190.7650  179.1040  142.8520 O   0  0  0  0  0  1  0  0  0  0  0  0
  189.3320  177.3180  140.4590 C   0  0  2  0  0  3  0  0  0  0  0  0
  190.3080  175.8260  138.6230 C   0  0  0  0  0  0  0  0  0  0  0  0
  191.4370  175.5470  137.6740 C   0  0  0  0  0  2  0  0  0  0  0  0
  190.5670  176.5710  139.9120 C   0  0  1  0  0  3  0  0  0  0  0  0
  191.8540  177.4240  139.9240 C   0  0  0  0  0  2  0  0  0  0  0  0
  192.7270  175.7430  138.3400 N   0  0  0  0  0  0  0  0  0  0  0  0
  189.1960  175.3810  138.3760 O   0  0  0  0  0  0  0  0  0  0  0  0
  192.8050  177.1400  138.7550 C   0  0  0  0  0  2  0  0  0  0  0  0
  195.1960  174.9240  137.8410 O   0  0  0  0  0  0  0  0  0  0  0  0
  193.4120  174.2870  135.9520 C   0  0  0  0  0  1  0  0  0  0  0  0
  193.9710  175.4700  137.1630 S   0  0  0  0  0  0  0  0  0  0  0  0
  194.3200  176.7600  136.4700 O   0  0  0  0  0  0  0  0  0  0  0  0
  189.1040  178.6690  139.7630 C   0  0  2  0  0  3  0  0  0  0  0  0
  187.8850  178.6320  138.9920 N   0  0  0  0  0  2  0  0  0  0  0  0
  189.1370  178.5110  138.4130 O   0  0  0  0  0  0  0  0  0  0  0  0
  185.0830  179.1880  142.2830 C   0  0  0  0  0  2  0  0  0  0  0  0
  183.2000  178.9350  140.6760 C   0  0  1  0  0  3  0  0  0  0  0  0
  182.6430  178.2890  141.9350 C   0  0  1  0  0  3  0  0  0  0  0  0
  184.1370  178.1830  141.6080 C   0  0  2  0  0  3  0  0  0  0  0  0
  182.2590  179.3770  142.9160 C   0  0  0  0  0  2  0  0  0  0  0  0
  180.2900  178.2930  143.9570 C   0  0  0  0  0  1  0  0  0  0  0  0
  180.7500  179.4220  143.0610 C   0  0  0  0  0  2  0  0  0  0  0  0
  182.8840  178.1230  139.5030 N   0  0  0  0  0  0  0  0  0  0  0  0
  180.3390  178.2290  138.2920 C   0  0  0  0  0  1  0  0  0  0  0  0
  180.6310  175.2280  139.3550 C   0  0  0  0  0  2  0  0  0  0  0  0
  182.0350  175.7790  139.2470 C   0  0  0  0  0  2  0  0  0  0  0  0
  180.4660  177.4780  139.6150 C   0  0  1  0  0  3  0  0  0  0  0  0
  179.7160  176.2890  139.5290 O   0  0  0  0  0  0  0  0  0  0  0  0
  181.9080  177.1050  139.9430 C   0  0  2  0  0  3  0  0  0  0  0  0
  184.1370  177.4670  139.1190 C   0  0  0  0  0  2  0  0  0  0  0  0
  184.5280  177.8670  137.7000 C   0  0  1  0  0  3  0  0  0  0  0  0
  182.2390  176.3880  135.4900 C   0  0  0  0  0  1  0  0  0  0  0  0
  185.4630  176.8350  137.1070 C   0  0  0  0  0  2  0  0  0  0  0  0
  184.5910  176.0700  136.1680 C   0  0  0  0  0  2  0  0  0  0  0  0
  183.5430  177.0910  135.8140 C   0  0  2  0  0  3  0  0  0  0  0  0
  183.3650  177.9570  136.9060 O   0  0  0  0  0  0  0  0  0  0  0  0
  1  8  1  0  0  0  0
  1 13  1  1  0  0  0
  1 10  1  0  0  0  0
  2  9  1  0  0  0  0
  4 31  1  6  0  0  0
  4  2  1  0  0  0  0
  6  8  1  1  0  0  0
  6  4  1  0  0  0  0
  6 11  1  0  0  0  0
  7  5  2  0  0  0  0
  9  7  1  0  0  0  0
 10  3  1  0  0  0  0
 11  3  1  6  0  0  0
 11 12  1  0  0  0  0
 12  7  1  0  0  0  0
 13 14  2  0  0  0  0
 13 15  1  0  0  0  0
 16 28  1  6  0  0  0
 16  1  1  0  0  0  0
 17 19  1  0  0  0  0
 18 21  1  0  0  0  0
 18 17  1  0  0  0  0
 19 20  1  0  0  0  0
 19 16  1  6  0  0  0
 21 23  1  0  0  0  0
 22 17  2  0  0  0  0
 23 20  1  0  0  0  0
 25 26  1  0  0  0  0
 26 24  2  0  0  0  0
 26 21  1  0  0  0  0
 27 26  2  0  0  0  0
 28 30  1  6  0  0  0
 29 28  1  0  0  0  0
 30 29  1  0  0  0  0
 32 38  1  6  0  0  0
 32 34  1  0  0  0  0
 32 33  1  0  0  0  0
 33 35  1  1  0  0  0
 34 33  1  0  0  0  0
 34 31  1  1  0  0  0
 35 37  1  0  0  0  0
 37 36  1  0  0  0  0
 40 43  1  0  0  0  0
 41 40  1  0  0  0  0
 41 44  1  0  0  0  0
 42 39  1  6  0  0  0
 42 44  1  0  0  0  0
 43 42  1  0  0  0  0
 44 38  1  6  0  0  0
 45 38  1  0  0  0  0
 46 45  1  1  0  0  0
 48 46  1  0  0  0  0
 49 48  1  0  0  0  0
 50 47  1  1  0  0  0
 50 49  1  0  0  0  0
 50 51  1  0  0  0  0
 51 46  1  0  0  0  0
M  END
>  <MODEL>
4

>  <REMARK>
 VINA RESULT:      -6.4      2.542      8.321
  Name = 
  13 active torsions:
  status: ('A' for Active; 'I' for Inactive)
    1  A    between atoms: C_2  and  N_37
    2  A    between atoms: C_5  and  C_10
    3  A    between atoms: C_5  and  C_15
    4  A    between atoms: C_9  and  C_15
    5  A    between atoms: C_12  and  C_43
    6  A    between atoms: C_15  and  C_21
    7  A    between atoms: C_16  and  C_51
    8  A    between atoms: C_19  and  C_32
    9  A    between atoms: S_24  and  N_39
   10  A    between atoms: C_32  and  C_40
   11  A    between atoms: N_37  and  C_43
   12  A    between atoms: N_37  and  C_45
   13  A    between atoms: C_38  and  C_51
                            x       y       z     vdW  Elec       q    Type
                         _______ _______ _______ _____ _____    ______ ____

>  <TORSDO>
F 13

$$$$
=
 OpenBabel11062414553D

 51 57  0  0  1  0  0  0  0  0999 V2000
  182.0730  177.2740  138.8460 C   0  0  2  0  0  0  0  0  0  0  0  0
  184.5390  179.4110  142.8890 C   0  0  0  0  0  2  0  0  0  0  0  0
  181.0110  179.2340  140.0700 C   0  0  0  0  0  2  0  0  0  0  0  0
  184.3990  178.2520  141.8920 C   0  0  1  0  0  3  0  0  0  0  0  0
  181.9130  178.2530  144.7180 O   0  0  0  0  0  0  0  0  0  0  0  0
  183.3580  178.4550  140.7580 C   0  0  1  0  0  3  0  0  0  0  0  0
  182.1900  178.8190  143.6730 C   0  0  0  0  0  0  0  0  0  0  0  0
  183.0370  177.1250  140.0560 C   0  0  0  0  0  2  0  0  0  0  0  0
  183.2900  179.8450  143.6590 C   0  0  0  0  0  2  0  0  0  0  0  0
  181.5420  178.7190  138.7320 C   0  0  0  0  0  2  0  0  0  0  0  0
  182.0500  179.1510  141.1920 C   0  0  2  0  0  3  0  0  0  0  0  0
  181.4260  178.4870  142.4190 C   0  0  0  0  0  2  0  0  0  0  0  0
  180.8790  176.3570  139.0270 C   0  0  0  0  0  0  0  0  0  0  0  0
  179.7930  176.4230  138.1620 O   0  0  0  0  0  0  0  0  0  0  0  0
  180.8430  175.5460  139.9900 O   0  0  0  0  0  1  0  0  0  0  0  0
  182.8140  176.9290  137.5230 C   0  0  2  0  0  3  0  0  0  0  0  0
  184.6430  175.1650  137.2210 C   0  0  0  0  0  0  0  0  0  0  0  0
  186.0430  174.8430  136.7890 C   0  0  0  0  0  2  0  0  0  0  0  0
  184.2990  176.5540  137.7080 C   0  0  1  0  0  3  0  0  0  0  0  0
  185.2720  177.6630  137.2530 C   0  0  0  0  0  2  0  0  0  0  0  0
  186.9730  175.8740  137.2560 N   0  0  0  0  0  0  0  0  0  0  0  0
  183.8050  174.2740  137.2450 O   0  0  0  0  0  0  0  0  0  0  0  0
  186.5800  177.1390  136.6450 C   0  0  0  0  0  2  0  0  0  0  0  0
  189.2570  174.5930  137.6560 O   0  0  0  0  0  0  0  0  0  0  0  0
  188.4050  174.5770  135.1200 C   0  0  0  0  0  1  0  0  0  0  0  0
  188.5500  175.4670  136.6590 S   0  0  0  0  0  0  0  0  0  0  0  0
  189.3570  176.7170  136.4320 O   0  0  0  0  0  0  0  0  0  0  0  0
  182.6030  177.9740  136.4160 C   0  0  2  0  0  3  0  0  0  0  0  0
  181.5750  177.5340  135.5050 N   0  0  0  0  0  2  0  0  0  0  0  0
  182.9250  177.4460  135.2060 O   0  0  0  0  0  0  0  0  0  0  0  0
  185.8080  177.8970  141.3930 C   0  0  0  0  0  2  0  0  0  0  0  0
  188.1070  177.5640  142.2830 C   0  0  1  0  0  3  0  0  0  0  0  0
  187.3510  178.0560  143.5070 C   0  0  1  0  0  3  0  0  0  0  0  0
  186.9840  178.5750  142.1130 C   0  0  2  0  0  3  0  0  0  0  0  0
  186.4910  176.9280  144.0390 C   0  0  0  0  0  2  0  0  0  0  0  0
  186.5020  178.6270  145.8420 C   0  0  0  0  0  1  0  0  0  0  0  0
  186.1200  177.2080  145.4830 C   0  0  0  0  0  2  0  0  0  0  0  0
  189.4080  178.2250  142.1880 N   0  0  0  0  0  0  0  0  0  0  0  0
  189.2550  178.4040  139.3780 C   0  0  0  0  0  1  0  0  0  0  0  0
  192.1210  177.1200  139.9760 C   0  0  0  0  0  2  0  0  0  0  0  0
  191.6950  177.8180  141.2480 C   0  0  0  0  0  2  0  0  0  0  0  0
  189.8510  177.1330  139.9770 C   0  0  1  0  0  3  0  0  0  0  0  0
  190.9810  176.7680  139.2220 O   0  0  0  0  0  0  0  0  0  0  0  0
  190.2900  177.3160  141.4260 C   0  0  2  0  0  3  0  0  0  0  0  0
  189.8990  178.3460  143.5640 C   0  0  0  0  0  2  0  0  0  0  0  0
  190.2110  176.9670  144.1350 C   0  0  1  0  0  3  0  0  0  0  0  0
  189.8360  177.1280  147.6190 C   0  0  0  0  0  1  0  0  0  0  0  0
  191.6780  176.8740  144.4970 C   0  0  0  0  0  2  0  0  0  0  0  0
  191.6800  176.9920  145.9840 C   0  0  0  0  0  2  0  0  0  0  0  0
  190.3150  176.4670  146.3420 C   0  0  2  0  0  3  0  0  0  0  0  0
  189.4290  176.7530  145.2890 O   0  0  0  0  0  0  0  0  0  0  0  0
  1 13  1  1  0  0  0
  1  8  1  0  0  0  0
  2  9  1  0  0  0  0
  4 31  1  6  0  0  0
  4  2  1  0  0  0  0
  6  8  1  1  0  0  0
  6 11  1  0  0  0  0
  6  4  1  0  0  0  0
  7  5  2  0  0  0  0
  9  7  1  0  0  0  0
 10  1  1  0  0  0  0
 10  3  1  0  0  0  0
 11  3  1  6  0  0  0
 11 12  1  0  0  0  0
 12  7  1  0  0  0  0
 13 15  1  0  0  0  0
 14 13  2  0  0  0  0
 16 28  1  6  0  0  0
 16  1  1  0  0  0  0
 17 22  2  0  0  0  0
 17 19  1  0  0  0  0
 18 17  1  0  0  0  0
 18 21  1  0  0  0  0
 19 16  1  6  0  0  0
 20 19  1  0  0  0  0
 23 20  1  0  0  0  0
 23 21  1  0  0  0  0
 25 26  1  0  0  0  0
 26 21  1  0  0  0  0
 26 24  2  0  0  0  0
 27 26  2  0  0  0  0
 28 30  1  6  0  0  0
 29 28  1  0  0  0  0
 30 29  1  0  0  0  0
 32 38  1  1  0  0  0
 32 33  1  0  0  0  0
 33 35  1  6  0  0  0
 34 31  1  6  0  0  0
 34 32  1  0  0  0  0
 34 33  1  0  0  0  0
 35 37  1  0  0  0  0
 37 36  1  0  0  0  0
 38 45  1  0  0  0  0
 40 41  1  0  0  0  0
 41 44  1  0  0  0  0
 42 39  1  6  0  0  0
 42 44  1  0  0  0  0
 43 40  1  0  0  0  0
 43 42  1  0  0  0  0
 44 38  1  6  0  0  0
 46 45  1  1  0  0  0
 46 48  1  0  0  0  0
 46 51  1  0  0  0  0
 48 49  1  0  0  0  0
 49 50  1  0  0  0  0
 50 47  1  1  0  0  0
 51 50  1  0  0  0  0
M  END
>  <MODEL>
5

>  <REMARK>
 VINA RESULT:      -6.3      1.366      2.641
  Name = 
  13 active torsions:
  status: ('A' for Active; 'I' for Inactive)
    1  A    between atoms: C_2  and  N_37
    2  A    between atoms: C_5  and  C_10
    3  A    between atoms: C_5  and  C_15
    4  A    between atoms: C_9  and  C_15
    5  A    between atoms: C_12  and  C_43
    6  A    between atoms: C_15  and  C_21
    7  A    between atoms: C_16  and  C_51
    8  A    between atoms: C_19  and  C_32
    9  A    between atoms: S_24  and  N_39
   10  A    between atoms: C_32  and  C_40
   11  A    between atoms: N_37  and  C_43
   12  A    between atoms: N_37  and  C_45
   13  A    between atoms: C_38  and  C_51
                            x       y       z     vdW  Elec       q    Type
                         _______ _______ _______ _____ _____    ______ ____

>  <TORSDO>
F 13

$$$$
=
 OpenBabel11062414553D

 51 57  0  0  1  0  0  0  0  0999 V2000
  181.9190  175.4700  136.9080 C   0  0  2  0  0  0  0  0  0  0  0  0
  183.7570  179.8870  138.9320 C   0  0  0  0  0  2  0  0  0  0  0  0
  181.0160  177.6990  136.0820 C   0  0  0  0  0  2  0  0  0  0  0  0
  183.6230  178.3590  139.0020 C   0  0  1  0  0  3  0  0  0  0  0  0
  180.6010  180.2930  140.1420 O   0  0  0  0  0  0  0  0  0  0  0  0
  182.9350  177.6820  137.7860 C   0  0  1  0  0  3  0  0  0  0  0  0
  181.2210  179.9660  139.1420 C   0  0  0  0  0  0  0  0  0  0  0  0
  182.5270  176.2360  138.1150 C   0  0  0  0  0  2  0  0  0  0  0  0
  182.4750  180.7090  138.7750 C   0  0  0  0  0  2  0  0  0  0  0  0
  181.7280  176.4030  135.6940 C   0  0  0  0  0  2  0  0  0  0  0  0
  181.7280  178.4520  137.2090 C   0  0  2  0  0  3  0  0  0  0  0  0
  180.7180  178.8300  138.2910 C   0  0  0  0  0  2  0  0  0  0  0  0
  180.5580  174.9180  137.2840 C   0  0  0  0  0  0  0  0  0  0  0  0
  179.5890  174.6890  136.3140 O   0  0  0  0  0  0  0  0  0  0  0  0
  180.2770  174.6960  138.4920 O   0  0  0  0  0  1  0  0  0  0  0  0
  182.8620  174.3100  136.4770 C   0  0  2  0  0  3  0  0  0  0  0  0
  185.1340  173.4110  137.2410 C   0  0  0  0  0  0  0  0  0  0  0  0
  186.6090  173.2970  136.9880 C   0  0  0  0  0  2  0  0  0  0  0  0
  184.3610  174.5950  136.7050 C   0  0  1  0  0  3  0  0  0  0  0  0
  185.0320  175.3300  135.5240 C   0  0  0  0  0  2  0  0  0  0  0  0
  187.1530  174.5820  136.5420 N   0  0  0  0  0  0  0  0  0  0  0  0
  184.5810  172.5770  137.9440 O   0  0  0  0  0  0  0  0  0  0  0  0
  186.4950  174.9330  135.2880 C   0  0  0  0  0  2  0  0  0  0  0  0
  189.5530  173.9470  137.4660 O   0  0  0  0  0  0  0  0  0  0  0  0
  189.0430  173.0540  134.9970 C   0  0  0  0  0  1  0  0  0  0  0  0
  188.8390  174.3480  136.2060 S   0  0  0  0  0  0  0  0  0  0  0  0
  189.4430  175.6210  135.6750 O   0  0  0  0  0  0  0  0  0  0  0  0
  182.5710  173.7800  135.0650 C   0  0  2  0  0  3  0  0  0  0  0  0
  181.9160  172.4970  135.1400 N   0  0  0  0  0  2  0  0  0  0  0  0
  183.2620  172.6300  134.8440 O   0  0  0  0  0  0  0  0  0  0  0  0
  185.0100  177.7880  139.3360 C   0  0  0  0  0  2  0  0  0  0  0  0
  186.9160  177.9720  140.9240 C   0  0  1  0  0  3  0  0  0  0  0  0
  185.9170  178.9660  141.4960 C   0  0  1  0  0  3  0  0  0  0  0  0
  186.0150  178.7540  139.9820 C   0  0  2  0  0  3  0  0  0  0  0  0
  184.8140  178.2030  142.2000 C   0  0  0  0  0  2  0  0  0  0  0  0
  182.7080  178.9440  143.2730 C   0  0  0  0  0  1  0  0  0  0  0  0
  184.2160  179.0650  143.2940 C   0  0  0  0  0  2  0  0  0  0  0  0
  188.2630  178.5400  140.9330 N   0  0  0  0  0  0  0  0  0  0  0  0
  189.0440  178.7560  138.2310 C   0  0  0  0  0  1  0  0  0  0  0  0
  191.3050  176.9660  139.6110 C   0  0  0  0  0  2  0  0  0  0  0  0
  190.6240  177.7250  140.7280 C   0  0  0  0  0  2  0  0  0  0  0  0
  189.1890  177.3950  138.9060 C   0  0  1  0  0  3  0  0  0  0  0  0
  190.4200  176.8310  138.5200 O   0  0  0  0  0  0  0  0  0  0  0  0
  189.1700  177.4880  140.4290 C   0  0  2  0  0  3  0  0  0  0  0  0
  188.5710  178.8220  142.3380 C   0  0  0  0  0  2  0  0  0  0  0  0
  188.6670  177.5210  143.1270 C   0  0  1  0  0  3  0  0  0  0  0  0
  186.8130  177.9080  146.0800 C   0  0  0  0  0  1  0  0  0  0  0  0
  189.8340  177.5800  144.0880 C   0  0  0  0  0  2  0  0  0  0  0  0
  189.1870  177.8090  145.4130 C   0  0  0  0  0  2  0  0  0  0  0  0
  187.8270  177.1980  145.2060 C   0  0  2  0  0  3  0  0  0  0  0  0
  187.4720  177.3280  143.8520 O   0  0  0  0  0  0  0  0  0  0  0  0
  1 13  1  1  0  0  0
  1  8  1  0  0  0  0
  2  4  1  0  0  0  0
  4 31  1  6  0  0  0
  6  8  1  1  0  0  0
  6  4  1  0  0  0  0
  7  5  2  0  0  0  0
  9  2  1  0  0  0  0
  9  7  1  0  0  0  0
 10  3  1  0  0  0  0
 10  1  1  0  0  0  0
 11  3  1  6  0  0  0
 11  6  1  0  0  0  0
 11 12  1  0  0  0  0
 12  7  1  0  0  0  0
 13 15  1  0  0  0  0
 14 13  2  0  0  0  0
 16 28  1  6  0  0  0
 16  1  1  0  0  0  0
 17 22  2  0  0  0  0
 18 17  1  0  0  0  0
 19 16  1  6  0  0  0
 19 17  1  0  0  0  0
 20 19  1  0  0  0  0
 21 18  1  0  0  0  0
 23 20  1  0  0  0  0
 23 21  1  0  0  0  0
 25 26  1  0  0  0  0
 26 21  1  0  0  0  0
 26 24  2  0  0  0  0
 27 26  2  0  0  0  0
 28 30  1  6  0  0  0
 28 29  1  0  0  0  0
 30 29  1  0  0  0  0
 32 38  1  6  0  0  0
 32 33  1  0  0  0  0
 33 35  1  1  0  0  0
 34 31  1  1  0  0  0
 34 32  1  0  0  0  0
 34 33  1  0  0  0  0
 35 37  1  0  0  0  0
 36 37  1  0  0  0  0
 38 45  1  0  0  0  0
 40 41  1  0  0  0  0
 42 39  1  6  0  0  0
 42 44  1  0  0  0  0
 43 42  1  0  0  0  0
 43 40  1  0  0  0  0
 44 41  1  0  0  0  0
 44 38  1  6  0  0  0
 46 45  1  1  0  0  0
 46 51  1  0  0  0  0
 46 48  1  0  0  0  0
 48 49  1  0  0  0  0
 50 49  1  0  0  0  0
 50 47  1  1  0  0  0
 51 50  1  0  0  0  0
M  END
>  <MODEL>
6

>  <REMARK>
 VINA RESULT:      -6.2      2.226      4.142
  Name = 
  13 active torsions:
  status: ('A' for Active; 'I' for Inactive)
    1  A    between atoms: C_2  and  N_37
    2  A    between atoms: C_5  and  C_10
    3  A    between atoms: C_5  and  C_15
    4  A    between atoms: C_9  and  C_15
    5  A    between atoms: C_12  and  C_43
    6  A    between atoms: C_15  and  C_21
    7  A    between atoms: C_16  and  C_51
    8  A    between atoms: C_19  and  C_32
    9  A    between atoms: S_24  and  N_39
   10  A    between atoms: C_32  and  C_40
   11  A    between atoms: N_37  and  C_43
   12  A    between atoms: N_37  and  C_45
   13  A    between atoms: C_38  and  C_51
                            x       y       z     vdW  Elec       q    Type
                         _______ _______ _______ _____ _____    ______ ____

>  <TORSDO>
F 13

$$$$
=
 OpenBabel11062414553D

 51 57  0  0  1  0  0  0  0  0999 V2000
  189.1950  177.4090  141.4820 C   0  0  2  0  0  0  0  0  0  0  0  0
  184.4360  178.4490  143.2900 C   0  0  0  0  0  2  0  0  0  0  0  0
  188.2690  176.0580  143.4270 C   0  0  0  0  0  2  0  0  0  0  0  0
  185.6400  178.8600  142.4290 C   0  0  1  0  0  3  0  0  0  0  0  0
  186.0510  179.3950  146.1330 O   0  0  0  0  0  0  0  0  0  0  0  0
  186.7670  177.8020  142.2910 C   0  0  1  0  0  3  0  0  0  0  0  0
  186.0250  178.5250  145.2770 C   0  0  0  0  0  0  0  0  0  0  0  0
  188.0550  178.4340  141.7370 C   0  0  0  0  0  2  0  0  0  0  0  0
  184.7010  178.0520  144.7440 C   0  0  0  0  0  2  0  0  0  0  0  0
  188.8080  176.0070  141.9970 C   0  0  0  0  0  2  0  0  0  0  0  0
  187.0820  177.0120  143.5800 C   0  0  2  0  0  3  0  0  0  0  0  0
  187.3160  177.9340  144.7750 C   0  0  0  0  0  2  0  0  0  0  0  0
  190.4470  177.8420  142.2190 C   0  0  0  0  0  0  0  0  0  0  0  0
  190.5930  179.1490  142.6680 O   0  0  0  0  0  1  0  0  0  0  0  0
  191.3890  177.0250  142.4020 O   0  0  0  0  0  0  0  0  0  0  0  0
  189.4870  177.2970  139.9580 C   0  0  2  0  0  3  0  0  0  0  0  0
  190.5550  175.5710  138.3990 C   0  0  0  0  0  0  0  0  0  0  0  0
  191.7490  175.1490  137.5930 C   0  0  0  0  0  2  0  0  0  0  0  0
  190.7330  176.4550  139.6130 C   0  0  1  0  0  3  0  0  0  0  0  0
  192.0470  177.2640  139.6420 C   0  0  0  0  0  2  0  0  0  0  0  0
  192.9840  175.3840  138.3450 N   0  0  0  0  0  0  0  0  0  0  0  0
  189.4520  175.1340  138.1060 O   0  0  0  0  0  0  0  0  0  0  0  0
  193.0830  176.8170  138.6020 C   0  0  0  0  0  2  0  0  0  0  0  0
  194.1530  173.5100  136.8830 O   0  0  0  0  0  0  0  0  0  0  0  0
  194.3430  175.9820  135.8770 C   0  0  0  0  0  1  0  0  0  0  0  0
  194.3130  174.9380  137.3230 S   0  0  0  0  0  0  0  0  0  0  0  0
  195.6120  175.0880  138.0680 O   0  0  0  0  0  0  0  0  0  0  0  0
  189.4720  178.6510  139.2330 C   0  0  2  0  0  3  0  0  0  0  0  0
  188.2490  178.8000  138.4820 N   0  0  0  0  0  2  0  0  0  0  0  0
  189.4530  178.4620  137.8870 O   0  0  0  0  0  0  0  0  0  0  0  0
  185.0960  179.3760  141.0880 C   0  0  0  0  0  2  0  0  0  0  0  0
  184.7310  178.4790  138.7960 C   0  0  1  0  0  3  0  0  0  0  0  0
  183.3400  178.9560  139.1860 C   0  0  1  0  0  3  0  0  0  0  0  0
  184.2840  178.3790  140.2470 C   0  0  2  0  0  3  0  0  0  0  0  0
  183.2950  180.4670  139.0930 C   0  0  0  0  0  2  0  0  0  0  0  0
  181.3330  179.9880  137.6600 C   0  0  0  0  0  1  0  0  0  0  0  0
  181.8960  180.9130  138.7170 C   0  0  0  0  0  2  0  0  0  0  0  0
  184.6590  177.1710  138.1480 N   0  0  0  0  0  0  0  0  0  0  0  0
  186.1090  174.9370  137.2200 C   0  0  0  0  0  1  0  0  0  0  0  0
  185.3880  176.6120  134.5940 C   0  0  0  0  0  2  0  0  0  0  0  0
  184.4060  177.0470  135.6580 C   0  0  0  0  0  2  0  0  0  0  0  0
  186.4170  176.2940  136.5930 C   0  0  1  0  0  3  0  0  0  0  0  0
  186.5640  176.1240  135.2030 O   0  0  0  0  0  0  0  0  0  0  0  0
  185.3090  177.3160  136.8290 C   0  0  2  0  0  3  0  0  0  0  0  0
  183.2320  176.8910  137.9640 C   0  0  0  0  0  2  0  0  0  0  0  0
  182.8850  175.5240  138.5420 C   0  0  1  0  0  3  0  0  0  0  0  0
  180.5460  174.0100  136.4090 C   0  0  0  0  0  1  0  0  0  0  0  0
  181.6830  175.6350  139.4540 C   0  0  0  0  0  2  0  0  0  0  0  0
  180.5690  175.0710  138.6380 C   0  0  0  0  0  2  0  0  0  0  0  0
  181.3010  174.1300  137.7180 C   0  0  2  0  0  3  0  0  0  0  0  0
  182.5920  174.6340  137.4870 O   0  0  0  0  0  0  0  0  0  0  0  0
  1  8  1  0  0  0  0
  1 10  1  0  0  0  0
  1 13  1  1  0  0  0
  2  9  1  0  0  0  0
  4 31  1  6  0  0  0
  4  2  1  0  0  0  0
  6  8  1  1  0  0  0
  6  4  1  0  0  0  0
  6 11  1  0  0  0  0
  7  5  2  0  0  0  0
  9  7  1  0  0  0  0
 10  3  1  0  0  0  0
 11  3  1  6  0  0  0
 11 12  1  0  0  0  0
 12  7  1  0  0  0  0
 13 15  2  0  0  0  0
 13 14  1  0  0  0  0
 16 28  1  1  0  0  0
 16  1  1  0  0  0  0
 17 19  1  0  0  0  0
 18 21  1  0  0  0  0
 18 17  1  0  0  0  0
 19 20  1  0  0  0  0
 19 16  1  6  0  0  0
 21 23  1  0  0  0  0
 22 17  2  0  0  0  0
 23 20  1  0  0  0  0
 24 26  2  0  0  0  0
 25 26  1  0  0  0  0
 26 27  2  0  0  0  0
 26 21  1  0  0  0  0
 28 30  1  6  0  0  0
 29 28  1  0  0  0  0
 30 29  1  0  0  0  0
 32 38  1  6  0  0  0
 32 33  1  0  0  0  0
 32 34  1  0  0  0  0
 33 35  1  1  0  0  0
 33 34  1  0  0  0  0
 34 31  1  1  0  0  0
 36 37  1  0  0  0  0
 37 35  1  0  0  0  0
 40 43  1  0  0  0  0
 40 41  1  0  0  0  0
 41 44  1  0  0  0  0
 42 44  1  0  0  0  0
 42 39  1  1  0  0  0
 43 42  1  0  0  0  0
 44 38  1  1  0  0  0
 45 38  1  0  0  0  0
 46 45  1  6  0  0  0
 46 48  1  0  0  0  0
 49 48  1  0  0  0  0
 50 47  1  6  0  0  0
 50 49  1  0  0  0  0
 51 50  1  0  0  0  0
 51 46  1  0  0  0  0
M  END
>  <MODEL>
7

>  <REMARK>
 VINA RESULT:      -6.2      2.701      7.921
  Name = 
  13 active torsions:
  status: ('A' for Active; 'I' for Inactive)
    1  A    between atoms: C_2  and  N_37
    2  A    between atoms: C_5  and  C_10
    3  A    between atoms: C_5  and  C_15
    4  A    between atoms: C_9  and  C_15
    5  A    between atoms: C_12  and  C_43
    6  A    between atoms: C_15  and  C_21
    7  A    between atoms: C_16  and  C_51
    8  A    between atoms: C_19  and  C_32
    9  A    between atoms: S_24  and  N_39
   10  A    between atoms: C_32  and  C_40
   11  A    between atoms: N_37  and  C_43
   12  A    between atoms: N_37  and  C_45
   13  A    between atoms: C_38  and  C_51
                            x       y       z     vdW  Elec       q    Type
                         _______ _______ _______ _____ _____    ______ ____

>  <TORSDO>
F 13

$$$$
=
 OpenBabel11062414553D

 51 57  0  0  1  0  0  0  0  0999 V2000
  189.2800  177.4200  141.7890 C   0  0  2  0  0  0  0  0  0  0  0  0
  184.6680  178.2490  144.0330 C   0  0  0  0  0  2  0  0  0  0  0  0
  188.5890  176.0160  143.7940 C   0  0  0  0  0  2  0  0  0  0  0  0
  185.7710  178.7170  143.0720 C   0  0  1  0  0  3  0  0  0  0  0  0
  186.4950  179.2370  146.7300 O   0  0  0  0  0  0  0  0  0  0  0  0
  186.9220  177.7070  142.8200 C   0  0  1  0  0  3  0  0  0  0  0  0
  186.4270  178.3730  145.8690 C   0  0  0  0  0  0  0  0  0  0  0  0
  188.1280  178.3960  142.1580 C   0  0  0  0  0  2  0  0  0  0  0  0
  185.0790  177.8520  145.4530 C   0  0  0  0  0  2  0  0  0  0  0  0
  188.9970  175.9990  142.3210 C   0  0  0  0  0  2  0  0  0  0  0  0
  187.3840  176.9200  144.0650 C   0  0  2  0  0  3  0  0  0  0  0  0
  187.6890  177.8400  145.2450 C   0  0  0  0  0  2  0  0  0  0  0  0
  190.5750  177.8970  142.4150 C   0  0  0  0  0  0  0  0  0  0  0  0
  191.6590  177.0380  142.5520 O   0  0  0  0  0  0  0  0  0  0  0  0
  190.6710  179.0750  142.8540 O   0  0  0  0  0  1  0  0  0  0  0  0
  189.4360  177.3320  140.2440 C   0  0  2  0  0  3  0  0  0  0  0  0
  190.4460  175.6990  138.5520 C   0  0  0  0  0  0  0  0  0  0  0  0
  191.5890  175.3500  137.6440 C   0  0  0  0  0  2  0  0  0  0  0  0
  190.6830  176.5530  139.7770 C   0  0  1  0  0  3  0  0  0  0  0  0
  191.9630  177.4140  139.7330 C   0  0  0  0  0  2  0  0  0  0  0  0
  192.8680  175.6130  138.3070 N   0  0  0  0  0  0  0  0  0  0  0  0
  189.3410  175.2250  138.3310 O   0  0  0  0  0  0  0  0  0  0  0  0
  192.9310  177.0410  138.6020 C   0  0  0  0  0  2  0  0  0  0  0  0
  195.4560  175.2420  137.8780 O   0  0  0  0  0  0  0  0  0  0  0  0
  193.8540  173.6460  136.4490 C   0  0  0  0  0  1  0  0  0  0  0  0
  194.1300  175.2530  137.1720 S   0  0  0  0  0  0  0  0  0  0  0  0
  194.1560  176.2880  136.0800 O   0  0  0  0  0  0  0  0  0  0  0  0
  189.2910  178.6900  139.5390 C   0  0  2  0  0  3  0  0  0  0  0  0
  188.1450  178.6760  138.6640 N   0  0  0  0  0  2  0  0  0  0  0  0
  189.4410  178.5390  138.1970 O   0  0  0  0  0  0  0  0  0  0  0  0
  185.0860  179.2210  141.7920 C   0  0  0  0  0  2  0  0  0  0  0  0
  183.0970  179.0060  140.3130 C   0  0  1  0  0  3  0  0  0  0  0  0
  182.6990  178.1700  141.5190 C   0  0  1  0  0  3  0  0  0  0  0  0
  184.1630  178.2280  141.0690 C   0  0  2  0  0  3  0  0  0  0  0  0
  182.3200  179.0960  142.6560 C   0  0  0  0  0  2  0  0  0  0  0  0
  180.2930  178.5670  143.9770 C   0  0  0  0  0  1  0  0  0  0  0  0
  180.8120  179.2330  142.7210 C   0  0  0  0  0  2  0  0  0  0  0  0
  182.7430  178.3160  139.0740 N   0  0  0  0  0  0  0  0  0  0  0  0
  182.1300  176.0240  137.5500 C   0  0  0  0  0  1  0  0  0  0  0  0
  185.2470  176.5410  137.0610 C   0  0  0  0  0  2  0  0  0  0  0  0
  184.6690  177.8540  137.5390 C   0  0  0  0  0  2  0  0  0  0  0  0
  183.4390  176.0260  138.3340 C   0  0  1  0  0  3  0  0  0  0  0  0
  184.4500  175.4730  137.5250 O   0  0  0  0  0  0  0  0  0  0  0  0
  183.8770  177.4290  138.7430 C   0  0  2  0  0  3  0  0  0  0  0  0
  182.6230  179.3610  138.0530 C   0  0  0  0  0  2  0  0  0  0  0  0
  181.1790  179.8420  137.9580 C   0  0  1  0  0  3  0  0  0  0  0  0
  180.7400  181.3410  134.8170 C   0  0  0  0  0  1  0  0  0  0  0  0
  181.0760  181.2740  138.4350 C   0  0  0  0  0  2  0  0  0  0  0  0
  180.9430  182.0560  137.1710 C   0  0  0  0  0  2  0  0  0  0  0  0
  180.3200  181.0470  136.2440 C   0  0  2  0  0  3  0  0  0  0  0  0
  180.7490  179.7610  136.6170 O   0  0  0  0  0  0  0  0  0  0  0  0
  1  8  1  0  0  0  0
  1 10  1  0  0  0  0
  1 13  1  1  0  0  0
  2  9  1  0  0  0  0
  4 31  1  6  0  0  0
  4  2  1  0  0  0  0
  6  8  1  1  0  0  0
  6  4  1  0  0  0  0
  6 11  1  0  0  0  0
  7  5  2  0  0  0  0
  9  7  1  0  0  0  0
 10  3  1  0  0  0  0
 11  3  1  6  0  0  0
 11 12  1  0  0  0  0
 12  7  1  0  0  0  0
 13 14  2  0  0  0  0
 13 15  1  0  0  0  0
 16 28  1  1  0  0  0
 16  1  1  0  0  0  0
 17 19  1  0  0  0  0
 18 21  1  0  0  0  0
 18 17  1  0  0  0  0
 19 16  1  6  0  0  0
 20 19  1  0  0  0  0
 21 23  1  0  0  0  0
 22 17  2  0  0  0  0
 23 20  1  0  0  0  0
 25 26  1  0  0  0  0
 26 24  2  0  0  0  0
 26 21  1  0  0  0  0
 27 26  2  0  0  0  0
 28 30  1  6  0  0  0
 29 28  1  0  0  0  0
 30 29  1  0  0  0  0
 32 38  1  6  0  0  0
 32 34  1  0  0  0  0
 32 33  1  0  0  0  0
 33 35  1  1  0  0  0
 34 33  1  0  0  0  0
 34 31  1  1  0  0  0
 35 37  1  0  0  0  0
 37 36  1  0  0  0  0
 40 43  1  0  0  0  0
 40 41  1  0  0  0  0
 41 44  1  0  0  0  0
 42 39  1  6  0  0  0
 42 44  1  0  0  0  0
 43 42  1  0  0  0  0
 44 38  1  6  0  0  0
 45 38  1  0  0  0  0
 46 45  1  6  0  0  0
 46 48  1  0  0  0  0
 49 48  1  0  0  0  0
 50 47  1  6  0  0  0
 50 51  1  0  0  0  0
 50 49  1  0  0  0  0
 51 46  1  0  0  0  0
M  END
>  <MODEL>
8

>  <REMARK>
 VINA RESULT:      -6.1      2.707      8.387
  Name = 
  13 active torsions:
  status: ('A' for Active; 'I' for Inactive)
    1  A    between atoms: C_2  and  N_37
    2  A    between atoms: C_5  and  C_10
    3  A    between atoms: C_5  and  C_15
    4  A    between atoms: C_9  and  C_15
    5  A    between atoms: C_12  and  C_43
    6  A    between atoms: C_15  and  C_21
    7  A    between atoms: C_16  and  C_51
    8  A    between atoms: C_19  and  C_32
    9  A    between atoms: S_24  and  N_39
   10  A    between atoms: C_32  and  C_40
   11  A    between atoms: N_37  and  C_43
   12  A    between atoms: N_37  and  C_45
   13  A    between atoms: C_38  and  C_51
                            x       y       z     vdW  Elec       q    Type
                         _______ _______ _______ _____ _____    ______ ____

>  <TORSDO>
F 13

$$$$
=
 OpenBabel11062414553D

 51 57  0  0  1  0  0  0  0  0999 V2000
  184.1050  176.5340  136.6760 C   0  0  2  0  0  0  0  0  0  0  0  0
  188.0080  178.1520  139.6980 C   0  0  0  0  0  2  0  0  0  0  0  0
  186.4360  175.5770  136.3340 C   0  0  0  0  0  2  0  0  0  0  0  0
  186.5760  178.3420  139.1790 C   0  0  1  0  0  3  0  0  0  0  0  0
  189.2990  179.4430  136.8250 O   0  0  0  0  0  0  0  0  0  0  0  0
  186.0270  177.2060  138.2750 C   0  0  1  0  0  3  0  0  0  0  0  0
  188.7590  178.4490  137.2840 C   0  0  0  0  0  0  0  0  0  0  0  0
  184.7610  177.6570  137.5260 C   0  0  0  0  0  2  0  0  0  0  0  0
  189.1250  177.9810  138.6650 C   0  0  0  0  0  2  0  0  0  0  0  0
  184.9780  175.2610  136.6660 C   0  0  0  0  0  2  0  0  0  0  0  0
  187.0470  176.6170  137.2770 C   0  0  2  0  0  3  0  0  0  0  0  0
  187.7430  177.7040  136.4590 C   0  0  0  0  0  2  0  0  0  0  0  0
  183.9530  177.0000  135.2420 C   0  0  0  0  0  0  0  0  0  0  0  0
  184.9460  177.7560  134.6290 O   0  0  0  0  0  1  0  0  0  0  0  0
  182.9020  176.7380  134.5980 O   0  0  0  0  0  0  0  0  0  0  0  0
  182.7140  176.1580  137.2630 C   0  0  2  0  0  3  0  0  0  0  0  0
  182.3840  178.0940  138.9030 C   0  0  0  0  0  0  0  0  0  0  0  0
  182.0630  179.5460  139.1130 C   0  0  0  0  0  2  0  0  0  0  0  0
  181.8570  177.3690  137.6860 C   0  0  1  0  0  3  0  0  0  0  0  0
  181.4600  178.2810  136.5060 C   0  0  0  0  0  2  0  0  0  0  0  0
  180.9540  179.9550  138.2480 N   0  0  0  0  0  0  0  0  0  0  0  0
  183.0110  177.4910  139.7620 O   0  0  0  0  0  0  0  0  0  0  0  0
  181.3780  179.7710  136.8640 C   0  0  0  0  0  2  0  0  0  0  0  0
  182.0140  182.3400  138.7000 O   0  0  0  0  0  0  0  0  0  0  0  0
  179.8920  182.3600  137.0710 C   0  0  0  0  0  1  0  0  0  0  0  0
  180.6940  181.6520  138.4980 S   0  0  0  0  0  0  0  0  0  0  0  0
  179.8290  181.8700  139.7110 O   0  0  0  0  0  0  0  0  0  0  0  0
  182.7850  175.0770  138.3530 C   0  0  2  0  0  3  0  0  0  0  0  0
  181.9770  173.9420  137.9820 N   0  0  0  0  0  2  0  0  0  0  0  0
  181.5580  174.8860  138.9040 O   0  0  0  0  0  0  0  0  0  0  0  0
  185.6850  178.6660  140.3890 C   0  0  0  0  0  2  0  0  0  0  0  0
  186.4460  177.8690  142.6190 C   0  0  1  0  0  3  0  0  0  0  0  0
  185.5820  179.0680  142.9780 C   0  0  1  0  0  3  0  0  0  0  0  0
  186.4040  179.0690  141.6850 C   0  0  2  0  0  3  0  0  0  0  0  0
  184.1240  178.6830  142.8330 C   0  0  0  0  0  2  0  0  0  0  0  0
  184.2190  179.3660  145.2120 C   0  0  0  0  0  1  0  0  0  0  0  0
  183.5110  178.4860  144.2050 C   0  0  0  0  0  2  0  0  0  0  0  0
  187.6790  177.8750  143.4040 N   0  0  0  0  0  0  0  0  0  0  0  0
  190.3510  178.7770  143.3500 C   0  0  0  0  0  1  0  0  0  0  0  0
  190.5250  175.6260  142.8380 C   0  0  0  0  0  2  0  0  0  0  0  0
  189.1870  175.8760  143.4970 C   0  0  0  0  0  2  0  0  0  0  0  0
  189.9260  177.7510  142.3040 C   0  0  1  0  0  3  0  0  0  0  0  0
  190.9510  176.7950  142.1710 O   0  0  0  0  0  0  0  0  0  0  0  0
  188.6440  177.0180  142.6850 C   0  0  2  0  0  3  0  0  0  0  0  0
  187.3390  177.2600  144.6900 C   0  0  0  0  0  2  0  0  0  0  0  0
  187.7670  178.1690  145.8380 C   0  0  1  0  0  3  0  0  0  0  0  0
  190.5970  176.7470  147.3470 C   0  0  0  0  0  1  0  0  0  0  0  0
  187.1050  177.7270  147.1250 C   0  0  0  0  0  2  0  0  0  0  0  0
  188.2000  177.0340  147.8640 C   0  0  0  0  0  2  0  0  0  0  0  0
  189.4260  177.7090  147.3090 C   0  0  2  0  0  3  0  0  0  0  0  0
  189.1690  178.1030  145.9850 O   0  0  0  0  0  0  0  0  0  0  0  0
  1 13  1  6  0  0  0
  1 16  1  0  0  0  0
  1  8  1  0  0  0  0
  3 10  1  0  0  0  0
  4  2  1  0  0  0  0
  4 31  1  1  0  0  0
  5  7  2  0  0  0  0
  6  8  1  6  0  0  0
  6  4  1  0  0  0  0
  7  9  1  0  0  0  0
  9  2  1  0  0  0  0
 10  1  1  0  0  0  0
 11  3  1  6  0  0  0
 11  6  1  0  0  0  0
 12 11  1  0  0  0  0
 12  7  1  0  0  0  0
 14 13  1  0  0  0  0
 15 13  2  0  0  0  0
 16 19  1  1  0  0  0
 17 18  1  0  0  0  0
 17 22  2  0  0  0  0
 19 20  1  6  0  0  0
 19 17  1  0  0  0  0
 20 23  1  0  0  0  0
 21 26  1  0  0  0  0
 21 18  1  0  0  0  0
 23 21  1  0  0  0  0
 25 26  1  0  0  0  0
 26 24  2  0  0  0  0
 26 27  2  0  0  0  0
 28 16  1  6  0  0  0
 28 30  1  0  0  0  0
 29 28  1  0  0  0  0
 29 30  1  0  0  0  0
 32 33  1  0  0  0  0
 32 38  1  1  0  0  0
 33 35  1  6  0  0  0
 34 31  1  6  0  0  0
 34 32  1  0  0  0  0
 34 33  1  0  0  0  0
 35 37  1  0  0  0  0
 37 36  1  0  0  0  0
 38 45  1  0  0  0  0
 40 41  1  0  0  0  0
 42 44  1  0  0  0  0
 42 39  1  1  0  0  0
 43 42  1  0  0  0  0
 43 40  1  0  0  0  0
 44 38  1  1  0  0  0
 44 41  1  0  0  0  0
 46 45  1  6  0  0  0
 46 51  1  0  0  0  0
 46 48  1  0  0  0  0
 48 49  1  0  0  0  0
 50 47  1  6  0  0  0
 50 49  1  0  0  0  0
 51 50  1  0  0  0  0
M  END
>  <MODEL>
9

>  <REMARK>
 VINA RESULT:      -5.4      2.375      5.497
  Name = 
  13 active torsions:
  status: ('A' for Active; 'I' for Inactive)
    1  A    between atoms: C_2  and  N_37
    2  A    between atoms: C_5  and  C_10
    3  A    between atoms: C_5  and  C_15
    4  A    between atoms: C_9  and  C_15
    5  A    between atoms: C_12  and  C_43
    6  A    between atoms: C_15  and  C_21
    7  A    between atoms: C_16  and  C_51
    8  A    between atoms: C_19  and  C_32
    9  A    between atoms: S_24  and  N_39
   10  A    between atoms: C_32  and  C_40
   11  A    between atoms: N_37  and  C_43
   12  A    between atoms: N_37  and  C_45
   13  A    between atoms: C_38  and  C_51
                            x       y       z     vdW  Elec       q    Type
                         _______ _______ _______ _____ _____    ______ ____

>  <TORSDO>
F 13

$$$$
