=
 OpenBabel11062413303D

 28 31  0  0  1  0  0  0  0  0999 V2000
  189.2250  177.1110  145.1580 C   0  0  0  0  0  0  0  0  0  0  0  0
  189.3940  177.4400  147.5550 N   0  0  0  0  0  0  0  0  0  0  0  0
  187.5880  178.2730  148.7430 O   0  0  0  0  0  0  0  0  0  0  0  0
  184.9480  178.2540  142.7650 C   0  0  0  0  0  1  0  0  0  0  0  0
  191.3640  176.5690  146.4990 C   0  0  0  0  0  1  0  0  0  0  0  0
  187.8130  177.6170  145.1680 C   0  0  0  0  0  0  0  0  0  0  0  0
  185.7350  178.1740  144.0220 C   0  0  0  0  0  0  0  0  0  0  0  0
  188.0510  177.9280  147.6250 C   0  0  0  0  0  0  0  0  0  0  0  0
  185.2950  178.9060  147.5950 O   0  0  0  0  0  1  0  0  0  0  0  0
  187.2320  178.0210  146.3920 C   0  0  0  0  0  0  0  0  0  0  0  0
  189.8540  176.7090  144.0860 N   0  0  0  0  0  0  0  0  0  0  0  0
  185.9010  178.4990  146.4120 C   0  0  0  0  0  0  0  0  0  0  0  0
  185.1660  178.5710  145.2280 C   0  0  0  0  0  3  0  0  0  0  0  0
  187.0460  177.7030  143.9950 C   0  0  0  0  0  3  0  0  0  0  0  0
  189.9560  177.0610  146.4470 C   0  0  0  0  0  0  0  0  0  0  0  0
  191.2900  178.1560  142.3510 O   0  0  0  0  0  1  0  0  0  0  0  0
  190.3380  175.9170  141.8300 C   0  0  0  0  0  2  0  0  0  0  0  0
  189.3420  176.6650  142.7210 C   0  0  2  0  0  3  0  0  0  0  0  0
  190.2500  177.4220  141.7730 C   0  0  1  0  0  0  0  0  0  0  0  0
  189.5700  178.0030  140.6250 N   0  0  0  0  0  2  0  0  0  0  0  0
  189.7980  177.7120  139.2360 C   0  0  0  0  0  0  0  0  0  0  0  0
  189.0340  178.2520  138.3920 O   0  0  0  0  0  0  0  0  0  0  0  0
  193.2090  176.2290  138.4120 C   0  0  0  0  0  3  0  0  0  0  0  0
  192.2280  177.0970  138.9010 C   0  0  0  0  0  3  0  0  0  0  0  0
  190.8650  176.8020  138.7450 C   0  0  0  0  0  0  0  0  0  0  0  0
  191.4840  174.7510  137.5830 C   0  0  0  0  0  3  0  0  0  0  0  0
  190.5060  175.6220  138.0740 C   0  0  0  0  0  3  0  0  0  0  0  0
  192.8360  175.0550  137.7540 C   0  0  0  0  0  3  0  0  0  0  0  0
  1  6  1  0  0  0  0
  1 15  1  0  0  0  0
  2  8  1  0  0  0  0
  4  7  1  0  0  0  0
  6 10  1  0  0  0  0
  7 13  2  0  0  0  0
  8  3  2  0  0  0  0
 10 12  2  0  0  0  0
 10  8  1  0  0  0  0
 11  1  2  0  0  0  0
 12  9  1  0  0  0  0
 13 12  1  0  0  0  0
 14  7  1  0  0  0  0
 14  6  2  0  0  0  0
 15  5  1  0  0  0  0
 15  2  2  0  0  0  0
 17 18  1  0  0  0  0
 18 11  1  1  0  0  0
 19 17  1  0  0  0  0
 19 16  1  1  0  0  0
 19 18  1  0  0  0  0
 20 19  1  0  0  0  0
 21 20  1  0  0  0  0
 22 21  2  0  0  0  0
 23 24  1  0  0  0  0
 25 24  2  0  0  0  0
 25 21  1  0  0  0  0
 26 28  1  0  0  0  0
 26 27  2  0  0  0  0
 27 25  1  0  0  0  0
 28 23  2  0  0  0  0
M  END
>  <MODEL>
1

>  <REMARK>
 VINA RESULT:      -9.5      0.000      0.000
  Name = 
  3 active torsions:
  status: ('A' for Active; 'I' for Inactive)
    1  A    between atoms: N_2  and  C_28
    2  A    between atoms: C_6  and  C_19
    3  A    between atoms: N_17  and  C_27
                            x       y       z     vdW  Elec       q    Type
                         _______ _______ _______ _____ _____    ______ ____

>  <TORSDO>
F 3

$$$$
=
 OpenBabel11062413303D

 28 31  0  0  1  0  0  0  0  0999 V2000
  189.1200  177.3270  144.6860 C   0  0  0  0  0  0  0  0  0  0  0  0
  189.3190  177.4740  147.0980 N   0  0  0  0  0  0  0  0  0  0  0  0
  187.4820  178.0660  148.3810 O   0  0  0  0  0  0  0  0  0  0  0  0
  184.7150  178.3250  142.4660 C   0  0  0  0  0  1  0  0  0  0  0  0
  191.3240  176.8460  145.9420 C   0  0  0  0  0  1  0  0  0  0  0  0
  187.6740  177.7200  144.7600 C   0  0  0  0  0  0  0  0  0  0  0  0
  185.5350  178.2060  143.7000 C   0  0  0  0  0  0  0  0  0  0  0  0
  187.9450  177.8500  147.2300 C   0  0  0  0  0  0  0  0  0  0  0  0
  185.1230  178.6100  147.3270 O   0  0  0  0  0  1  0  0  0  0  0  0
  187.0920  177.9780  146.0240 C   0  0  0  0  0  0  0  0  0  0  0  0
  189.7530  177.0630  143.5740 N   0  0  0  0  0  0  0  0  0  0  0  0
  185.7300  178.3480  146.1040 C   0  0  0  0  0  0  0  0  0  0  0  0
  184.9650  178.4590  144.9430 C   0  0  0  0  0  3  0  0  0  0  0  0
  186.8760  177.8410  143.6120 C   0  0  0  0  0  3  0  0  0  0  0  0
  189.8830  177.2300  145.9540 C   0  0  0  0  0  0  0  0  0  0  0  0
  191.5340  177.8160  141.7240 O   0  0  0  0  0  1  0  0  0  0  0  0
  189.8800  175.9890  141.3870 C   0  0  0  0  0  2  0  0  0  0  0  0
  189.2150  177.0890  142.2190 C   0  0  2  0  0  3  0  0  0  0  0  0
  190.2930  177.4280  141.2100 C   0  0  1  0  0  0  0  0  0  0  0  0
  189.8110  178.1150  140.0210 N   0  0  0  0  0  2  0  0  0  0  0  0
  190.0270  177.7420  138.6500 C   0  0  0  0  0  0  0  0  0  0  0  0
  189.4400  178.4160  137.7610 O   0  0  0  0  0  0  0  0  0  0  0  0
  191.1740  174.3460  137.3610 C   0  0  0  0  0  3  0  0  0  0  0  0
  190.3430  175.4050  137.7360 C   0  0  0  0  0  3  0  0  0  0  0  0
  190.8830  176.6040  138.2260 C   0  0  0  0  0  0  0  0  0  0  0  0
  193.1120  175.6550  137.9740 C   0  0  0  0  0  3  0  0  0  0  0  0
  192.2770  176.7120  138.3460 C   0  0  0  0  0  3  0  0  0  0  0  0
  192.5610  174.4710  137.4790 C   0  0  0  0  0  3  0  0  0  0  0  0
  1  6  1  0  0  0  0
  1 15  1  0  0  0  0
  2  8  1  0  0  0  0
  4  7  1  0  0  0  0
  5 15  1  0  0  0  0
  6 10  1  0  0  0  0
  7 13  2  0  0  0  0
  8  3  2  0  0  0  0
 10 12  2  0  0  0  0
 10  8  1  0  0  0  0
 11  1  2  0  0  0  0
 12  9  1  0  0  0  0
 13 12  1  0  0  0  0
 14  7  1  0  0  0  0
 14  6  2  0  0  0  0
 15  2  2  0  0  0  0
 17 18  1  0  0  0  0
 18 11  1  1  0  0  0
 19 17  1  0  0  0  0
 19 16  1  1  0  0  0
 19 18  1  0  0  0  0
 20 19  1  0  0  0  0
 21 20  1  0  0  0  0
 22 21  2  0  0  0  0
 23 28  2  0  0  0  0
 23 24  1  0  0  0  0
 24 25  2  0  0  0  0
 25 27  1  0  0  0  0
 25 21  1  0  0  0  0
 26 27  2  0  0  0  0
 28 26  1  0  0  0  0
M  END
>  <MODEL>
2

>  <REMARK>
 VINA RESULT:      -9.3      0.557      1.065
  Name = 
  3 active torsions:
  status: ('A' for Active; 'I' for Inactive)
    1  A    between atoms: N_2  and  C_28
    2  A    between atoms: C_6  and  C_19
    3  A    between atoms: N_17  and  C_27
                            x       y       z     vdW  Elec       q    Type
                         _______ _______ _______ _____ _____    ______ ____

>  <TORSDO>
F 3

$$$$
=
 OpenBabel11062413303D

 28 31  0  0  1  0  0  0  0  0999 V2000
  187.1160  177.7340  144.0280 C   0  0  0  0  0  0  0  0  0  0  0  0
  185.1970  178.4580  145.3220 N   0  0  0  0  0  0  0  0  0  0  0  0
  185.3470  178.6280  147.6280 O   0  0  0  0  0  0  0  0  0  0  0  0
  191.4260  176.5870  146.3610 C   0  0  0  0  0  1  0  0  0  0  0  0
  184.8500  178.3450  142.9510 C   0  0  0  0  0  1  0  0  0  0  0  0
  187.9310  177.5920  145.2790 C   0  0  0  0  0  0  0  0  0  0  0  0
  190.0120  177.0400  146.4220 C   0  0  0  0  0  0  0  0  0  0  0  0
  185.9270  178.3430  146.5470 C   0  0  0  0  0  0  0  0  0  0  0  0
  187.5550  178.0540  148.9580 O   0  0  0  0  0  1  0  0  0  0  0  0
  187.3400  177.8960  146.5280 C   0  0  0  0  0  0  0  0  0  0  0  0
  187.5650  177.4840  142.8270 N   0  0  0  0  0  0  0  0  0  0  0  0
  188.1010  177.7660  147.7130 C   0  0  0  0  0  0  0  0  0  0  0  0
  189.4280  177.3400  147.6490 C   0  0  0  0  0  3  0  0  0  0  0  0
  189.2690  177.1650  145.2510 C   0  0  0  0  0  3  0  0  0  0  0  0
  185.7100  178.1870  144.1600 C   0  0  0  0  0  0  0  0  0  0  0  0
  188.2180  178.0390  140.2920 O   0  0  0  0  0  1  0  0  0  0  0  0
  189.7950  178.2520  142.2040 C   0  0  0  0  0  2  0  0  0  0  0  0
  188.9010  177.0350  142.4540 C   0  0  2  0  0  3  0  0  0  0  0  0
  189.2460  177.4620  141.0420 C   0  0  1  0  0  0  0  0  0  0  0  0
  190.1680  176.5720  140.3520 N   0  0  0  0  0  2  0  0  0  0  0  0
  190.2330  176.3060  138.9410 C   0  0  0  0  0  0  0  0  0  0  0  0
  191.1720  175.5740  138.5270 O   0  0  0  0  0  0  0  0  0  0  0  0
  188.5010  178.6280  136.4690 C   0  0  0  0  0  3  0  0  0  0  0  0
  189.4300  178.1320  137.3860 C   0  0  0  0  0  3  0  0  0  0  0  0
  189.2730  176.8560  137.9490 C   0  0  0  0  0  0  0  0  0  0  0  0
  187.2210  176.5870  136.6650 C   0  0  0  0  0  3  0  0  0  0  0  0
  188.1530  176.0930  137.5820 C   0  0  0  0  0  3  0  0  0  0  0  0
  187.3950  177.8540  136.1070 C   0  0  0  0  0  3  0  0  0  0  0  0
  1 15  1  0  0  0  0
  1  6  1  0  0  0  0
  2  8  1  0  0  0  0
  4  7  1  0  0  0  0
  5 15  1  0  0  0  0
  6 10  1  0  0  0  0
  7 13  2  0  0  0  0
  8  3  2  0  0  0  0
 10  8  1  0  0  0  0
 10 12  2  0  0  0  0
 11  1  2  0  0  0  0
 12  9  1  0  0  0  0
 13 12  1  0  0  0  0
 14  6  2  0  0  0  0
 14  7  1  0  0  0  0
 15  2  2  0  0  0  0
 17 18  1  0  0  0  0
 18 11  1  6  0  0  0
 19 16  1  6  0  0  0
 19 17  1  0  0  0  0
 19 18  1  0  0  0  0
 20 19  1  0  0  0  0
 21 20  1  0  0  0  0
 22 21  2  0  0  0  0
 23 24  1  0  0  0  0
 24 25  2  0  0  0  0
 25 21  1  0  0  0  0
 26 27  2  0  0  0  0
 27 25  1  0  0  0  0
 28 23  2  0  0  0  0
 28 26  1  0  0  0  0
M  END
>  <MODEL>
3

>  <REMARK>
 VINA RESULT:      -9.2      1.959      3.850
  Name = 
  3 active torsions:
  status: ('A' for Active; 'I' for Inactive)
    1  A    between atoms: N_2  and  C_28
    2  A    between atoms: C_6  and  C_19
    3  A    between atoms: N_17  and  C_27
                            x       y       z     vdW  Elec       q    Type
                         _______ _______ _______ _____ _____    ______ ____

>  <TORSDO>
F 3

$$$$
=
 OpenBabel11062413303D

 28 31  0  0  1  0  0  0  0  0999 V2000
  186.5900  177.9750  144.7730 C   0  0  0  0  0  0  0  0  0  0  0  0
  187.2160  178.0100  147.1160 N   0  0  0  0  0  0  0  0  0  0  0  0
  189.3860  177.4970  147.7470 O   0  0  0  0  0  0  0  0  0  0  0  0
  190.0100  176.7750  141.2810 C   0  0  0  0  0  1  0  0  0  0  0  0
  184.9290  178.5690  146.6580 C   0  0  0  0  0  1  0  0  0  0  0  0
  187.9830  177.5760  144.3860 C   0  0  0  0  0  0  0  0  0  0  0  0
  189.6500  176.9930  142.7060 C   0  0  0  0  0  0  0  0  0  0  0  0
  188.5600  177.6320  146.8060 C   0  0  0  0  0  0  0  0  0  0  0  0
  191.2630  176.8550  146.0040 O   0  0  0  0  0  1  0  0  0  0  0  0
  188.9600  177.4070  145.3950 C   0  0  0  0  0  0  0  0  0  0  0  0
  185.6170  178.1620  143.9230 N   0  0  0  0  0  0  0  0  0  0  0  0
  190.2760  177.0310  145.0400 C   0  0  0  0  0  0  0  0  0  0  0  0
  190.6090  176.8280  143.7010 C   0  0  0  0  0  3  0  0  0  0  0  0
  188.3510  177.3630  143.0480 C   0  0  0  0  0  3  0  0  0  0  0  0
  186.2970  178.1730  146.2130 C   0  0  0  0  0  0  0  0  0  0  0  0
  183.2190  178.3060  142.7430 O   0  0  0  0  0  1  0  0  0  0  0  0
  185.2760  179.3630  141.8260 C   0  0  0  0  0  2  0  0  0  0  0  0
  185.6690  178.0300  142.4710 C   0  0  2  0  0  3  0  0  0  0  0  0
  184.2960  178.2170  141.8570 C   0  0  1  0  0  0  0  0  0  0  0  0
  184.0900  177.4880  140.6140 N   0  0  0  0  0  2  0  0  0  0  0  0
  183.2180  177.8440  139.5280 C   0  0  0  0  0  0  0  0  0  0  0  0
  183.2540  177.1290  138.4910 O   0  0  0  0  0  0  0  0  0  0  0  0
  180.2530  180.1100  140.2950 C   0  0  0  0  0  3  0  0  0  0  0  0
  181.1090  179.0060  140.3040 C   0  0  0  0  0  3  0  0  0  0  0  0
  182.2950  179.0090  139.5540 C   0  0  0  0  0  0  0  0  0  0  0  0
  181.7430  181.2480  138.7680 C   0  0  0  0  0  3  0  0  0  0  0  0
  182.5980  180.1410  138.7810 C   0  0  0  0  0  3  0  0  0  0  0  0
  180.5710  181.2330  139.5260 C   0  0  0  0  0  3  0  0  0  0  0  0
  1 15  1  0  0  0  0
  4  7  1  0  0  0  0
  6  1  1  0  0  0  0
  6 10  1  0  0  0  0
  7 14  1  0  0  0  0
  7 13  2  0  0  0  0
  8  2  1  0  0  0  0
  8  3  2  0  0  0  0
 10  8  1  0  0  0  0
 11  1  2  0  0  0  0
 12 10  2  0  0  0  0
 12  9  1  0  0  0  0
 13 12  1  0  0  0  0
 14  6  2  0  0  0  0
 15  5  1  0  0  0  0
 15  2  2  0  0  0  0
 17 19  1  0  0  0  0
 17 18  1  0  0  0  0
 18 11  1  1  0  0  0
 19 18  1  0  0  0  0
 19 16  1  1  0  0  0
 20 19  1  0  0  0  0
 21 25  1  0  0  0  0
 21 20  1  0  0  0  0
 22 21  2  0  0  0  0
 23 24  1  0  0  0  0
 25 24  2  0  0  0  0
 26 27  2  0  0  0  0
 26 28  1  0  0  0  0
 27 25  1  0  0  0  0
 28 23  2  0  0  0  0
M  END
>  <MODEL>
4

>  <REMARK>
 VINA RESULT:      -8.6      3.464      6.884
  Name = 
  3 active torsions:
  status: ('A' for Active; 'I' for Inactive)
    1  A    between atoms: N_2  and  C_28
    2  A    between atoms: C_6  and  C_19
    3  A    between atoms: N_17  and  C_27
                            x       y       z     vdW  Elec       q    Type
                         _______ _______ _______ _____ _____    ______ ____

>  <TORSDO>
F 3

$$$$
=
 OpenBabel11062413303D

 28 31  0  0  1  0  0  0  0  0999 V2000
  186.1240  178.2550  142.6270 C   0  0  0  0  0  0  0  0  0  0  0  0
  183.9140  179.0440  143.2360 N   0  0  0  0  0  0  0  0  0  0  0  0
  183.3230  179.2400  145.4680 O   0  0  0  0  0  0  0  0  0  0  0  0
  189.4270  177.0280  146.2220 C   0  0  0  0  0  1  0  0  0  0  0  0
  184.3410  178.9100  140.8800 C   0  0  0  0  0  1  0  0  0  0  0  0
  186.4930  178.1080  144.0740 C   0  0  0  0  0  0  0  0  0  0  0  0
  188.0810  177.5190  145.8260 C   0  0  0  0  0  0  0  0  0  0  0  0
  184.2090  178.9270  144.6300 C   0  0  0  0  0  0  0  0  0  0  0  0
  184.9720  178.6270  147.4380 O   0  0  0  0  0  1  0  0  0  0  0  0
  185.5420  178.4430  145.0670 C   0  0  0  0  0  0  0  0  0  0  0  0
  186.9270  177.9790  141.6340 N   0  0  0  0  0  0  0  0  0  0  0  0
  185.8790  178.3090  146.4330 C   0  0  0  0  0  0  0  0  0  0  0  0
  187.1440  177.8480  146.8000 C   0  0  0  0  0  3  0  0  0  0  0  0
  187.7560  177.6480  144.4770 C   0  0  0  0  0  3  0  0  0  0  0  0
  184.7640  178.7460  142.3000 C   0  0  0  0  0  0  0  0  0  0  0  0
  188.3750  178.4930  139.4430 O   0  0  0  0  0  1  0  0  0  0  0  0
  189.2600  178.6820  141.7610 C   0  0  0  0  0  2  0  0  0  0  0  0
  188.2990  177.4910  141.7110 C   0  0  2  0  0  3  0  0  0  0  0  0
  189.0910  177.8960  140.4850 C   0  0  1  0  0  0  0  0  0  0  0  0
  190.1600  176.9750  140.1280 N   0  0  0  0  0  2  0  0  0  0  0  0
  190.3810  176.3450  138.8550 C   0  0  0  0  0  0  0  0  0  0  0  0
  191.4260  175.6530  138.7180 O   0  0  0  0  0  0  0  0  0  0  0  0
  187.4580  175.8470  136.4640 C   0  0  0  0  0  3  0  0  0  0  0  0
  188.2930  175.7120  137.5760 C   0  0  0  0  0  3  0  0  0  0  0  0
  189.4630  176.4780  137.6940 C   0  0  0  0  0  0  0  0  0  0  0  0
  188.9530  177.5120  135.5480 C   0  0  0  0  0  3  0  0  0  0  0  0
  189.7850  177.3740  136.6630 C   0  0  0  0  0  3  0  0  0  0  0  0
  187.7880  176.7490  135.4490 C   0  0  0  0  0  3  0  0  0  0  0  0
  1  6  1  0  0  0  0
  2  8  1  0  0  0  0
  5 15  1  0  0  0  0
  6 14  2  0  0  0  0
  6 10  1  0  0  0  0
  7  4  1  0  0  0  0
  7 13  2  0  0  0  0
  8 10  1  0  0  0  0
  8  3  2  0  0  0  0
 10 12  2  0  0  0  0
 11  1  2  0  0  0  0
 12 13  1  0  0  0  0
 12  9  1  0  0  0  0
 14  7  1  0  0  0  0
 15  1  1  0  0  0  0
 15  2  2  0  0  0  0
 18 11  1  6  0  0  0
 18 17  1  0  0  0  0
 19 16  1  6  0  0  0
 19 18  1  0  0  0  0
 19 17  1  0  0  0  0
 20 19  1  0  0  0  0
 21 20  1  0  0  0  0
 22 21  2  0  0  0  0
 23 24  1  0  0  0  0
 24 25  2  0  0  0  0
 25 21  1  0  0  0  0
 26 27  2  0  0  0  0
 27 25  1  0  0  0  0
 28 26  1  0  0  0  0
 28 23  2  0  0  0  0
M  END
>  <MODEL>
5

>  <REMARK>
 VINA RESULT:      -8.5      2.258      4.211
  Name = 
  3 active torsions:
  status: ('A' for Active; 'I' for Inactive)
    1  A    between atoms: N_2  and  C_28
    2  A    between atoms: C_6  and  C_19
    3  A    between atoms: N_17  and  C_27
                            x       y       z     vdW  Elec       q    Type
                         _______ _______ _______ _____ _____    ______ ____

>  <TORSDO>
F 3

$$$$
=
 OpenBabel11062413303D

 28 31  0  0  1  0  0  0  0  0999 V2000
  187.1620  178.2500  141.8080 C   0  0  0  0  0  0  0  0  0  0  0  0
  189.3080  177.4300  142.5840 N   0  0  0  0  0  0  0  0  0  0  0  0
  189.6380  176.9860  144.8340 O   0  0  0  0  0  0  0  0  0  0  0  0
  183.4260  179.0030  145.0960 C   0  0  0  0  0  1  0  0  0  0  0  0
  189.1560  177.8290  140.2240 C   0  0  0  0  0  1  0  0  0  0  0  0
  186.6220  178.2230  143.2070 C   0  0  0  0  0  0  0  0  0  0  0  0
  184.8230  178.5820  144.8110 C   0  0  0  0  0  0  0  0  0  0  0  0
  188.8470  177.3810  143.9370 C   0  0  0  0  0  0  0  0  0  0  0  0
  187.7520  177.3420  146.6490 O   0  0  0  0  0  1  0  0  0  0  0  0
  187.4590  177.7900  144.2630 C   0  0  0  0  0  0  0  0  0  0  0  0
  186.4740  178.6270  140.7630 N   0  0  0  0  0  0  0  0  0  0  0  0
  186.9600  177.7600  145.5850 C   0  0  0  0  0  0  0  0  0  0  0  0
  185.6480  178.1560  145.8470 C   0  0  0  0  0  3  0  0  0  0  0  0
  185.3080  178.6150  143.5060 C   0  0  0  0  0  3  0  0  0  0  0  0
  188.5650  177.8210  141.5930 C   0  0  0  0  0  0  0  0  0  0  0  0
  185.5150  178.9730  138.2890 O   0  0  0  0  0  1  0  0  0  0  0  0
  184.2040  177.9740  140.1520 C   0  0  0  0  0  2  0  0  0  0  0  0
  185.0890  179.0830  140.7300 C   0  0  2  0  0  3  0  0  0  0  0  0
  184.5770  179.1660  139.3060 C   0  0  1  0  0  0  0  0  0  0  0  0
  183.5500  180.1760  139.0940 N   0  0  0  0  0  2  0  0  0  0  0  0
  182.2220  179.9760  138.5830 C   0  0  0  0  0  0  0  0  0  0  0  0
  181.4460  180.9690  138.5660 O   0  0  0  0  0  0  0  0  0  0  0  0
  181.5760  176.9160  136.4090 C   0  0  0  0  0  3  0  0  0  0  0  0
  182.0870  178.1390  136.8500 C   0  0  0  0  0  3  0  0  0  0  0  0
  181.7100  178.6690  138.0930 C   0  0  0  0  0  0  0  0  0  0  0  0
  180.2810  176.7280  138.4420 C   0  0  0  0  0  3  0  0  0  0  0  0
  180.7960  177.9510  138.8800 C   0  0  0  0  0  3  0  0  0  0  0  0
  180.6720  176.2090  137.2070 C   0  0  0  0  0  3  0  0  0  0  0  0
  1  6  1  0  0  0  0
  2  8  1  0  0  0  0
  5 15  1  0  0  0  0
  6 14  2  0  0  0  0
  6 10  1  0  0  0  0
  7  4  1  0  0  0  0
  7 13  2  0  0  0  0
  8 10  1  0  0  0  0
  8  3  2  0  0  0  0
 10 12  2  0  0  0  0
 11  1  2  0  0  0  0
 12 13  1  0  0  0  0
 12  9  1  0  0  0  0
 14  7  1  0  0  0  0
 15  1  1  0  0  0  0
 15  2  2  0  0  0  0
 17 18  1  0  0  0  0
 18 11  1  6  0  0  0
 19 16  1  6  0  0  0
 19 17  1  0  0  0  0
 19 18  1  0  0  0  0
 20 19  1  0  0  0  0
 21 20  1  0  0  0  0
 22 21  2  0  0  0  0
 23 24  2  0  0  0  0
 23 28  1  0  0  0  0
 24 25  1  0  0  0  0
 25 21  1  0  0  0  0
 25 27  2  0  0  0  0
 26 27  1  0  0  0  0
 28 26  2  0  0  0  0
M  END
>  <MODEL>
6

>  <REMARK>
 VINA RESULT:      -8.5      4.135      6.718
  Name = 
  3 active torsions:
  status: ('A' for Active; 'I' for Inactive)
    1  A    between atoms: N_2  and  C_28
    2  A    between atoms: C_6  and  C_19
    3  A    between atoms: N_17  and  C_27
                            x       y       z     vdW  Elec       q    Type
                         _______ _______ _______ _____ _____    ______ ____

>  <TORSDO>
F 3

$$$$
=
 OpenBabel11062413303D

 28 31  0  0  1  0  0  0  0  0999 V2000
  189.2720  177.3770  143.3600 C   0  0  0  0  0  0  0  0  0  0  0  0
  190.1210  176.8250  145.5640 N   0  0  0  0  0  0  0  0  0  0  0  0
  188.7550  177.0420  147.4230 O   0  0  0  0  0  0  0  0  0  0  0  0
  184.5400  179.0080  142.8320 C   0  0  0  0  0  1  0  0  0  0  0  0
  191.6790  176.5360  143.7640 C   0  0  0  0  0  1  0  0  0  0  0  0
  187.9390  177.7450  143.9440 C   0  0  0  0  0  0  0  0  0  0  0  0
  185.6460  178.5330  143.7030 C   0  0  0  0  0  0  0  0  0  0  0  0
  188.8720  177.1600  146.1750 C   0  0  0  0  0  0  0  0  0  0  0  0
  186.2580  177.8860  147.2670 O   0  0  0  0  0  1  0  0  0  0  0  0
  187.7420  177.6360  145.3400 C   0  0  0  0  0  0  0  0  0  0  0  0
  189.5570  177.4370  142.0870 N   0  0  0  0  0  0  0  0  0  0  0  0
  186.4900  177.9800  145.8990 C   0  0  0  0  0  0  0  0  0  0  0  0
  185.4540  178.4250  145.0770 C   0  0  0  0  0  3  0  0  0  0  0  0
  186.8770  178.1970  143.1450 C   0  0  0  0  0  3  0  0  0  0  0  0
  190.3340  176.9140  144.2860 C   0  0  0  0  0  0  0  0  0  0  0  0
  190.8410  177.8810  139.7820 O   0  0  0  0  0  1  0  0  0  0  0  0
  188.6300  176.7530  139.9370 C   0  0  0  0  0  2  0  0  0  0  0  0
  188.6810  177.8540  140.9990 C   0  0  2  0  0  3  0  0  0  0  0  0
  189.4510  177.9960  139.7020 C   0  0  1  0  0  0  0  0  0  0  0  0
  188.9060  178.9860  138.7840 N   0  0  0  0  0  2  0  0  0  0  0  0
  188.4640  178.7740  137.4340 C   0  0  0  0  0  0  0  0  0  0  0  0
  187.9300  179.7450  136.8330 O   0  0  0  0  0  0  0  0  0  0  0  0
  189.8920  175.7870  135.5500 C   0  0  0  0  0  3  0  0  0  0  0  0
  189.8140  177.0010  136.2360 C   0  0  0  0  0  3  0  0  0  0  0  0
  188.5840  177.4780  136.7170 C   0  0  0  0  0  0  0  0  0  0  0  0
  187.5040  175.4990  135.7930 C   0  0  0  0  0  3  0  0  0  0  0  0
  187.4300  176.7140  136.4800 C   0  0  0  0  0  3  0  0  0  0  0  0
  188.7350  175.0340  135.3290 C   0  0  0  0  0  3  0  0  0  0  0  0
  1  6  1  0  0  0  0
  1 15  1  0  0  0  0
  2  8  1  0  0  0  0
  4  7  1  0  0  0  0
  5 15  1  0  0  0  0
  6 10  1  0  0  0  0
  7 13  2  0  0  0  0
  8  3  2  0  0  0  0
 10 12  2  0  0  0  0
 10  8  1  0  0  0  0
 11  1  2  0  0  0  0
 12  9  1  0  0  0  0
 13 12  1  0  0  0  0
 14  7  1  0  0  0  0
 14  6  2  0  0  0  0
 15  2  2  0  0  0  0
 17 18  1  0  0  0  0
 18 11  1  1  0  0  0
 19 16  1  1  0  0  0
 19 17  1  0  0  0  0
 19 18  1  0  0  0  0
 20 19  1  0  0  0  0
 21 20  1  0  0  0  0
 22 21  2  0  0  0  0
 23 24  1  0  0  0  0
 24 25  2  0  0  0  0
 25 21  1  0  0  0  0
 26 27  2  0  0  0  0
 27 25  1  0  0  0  0
 28 23  2  0  0  0  0
 28 26  1  0  0  0  0
M  END
>  <MODEL>
7

>  <REMARK>
 VINA RESULT:      -8.4      2.006      2.535
  Name = 
  3 active torsions:
  status: ('A' for Active; 'I' for Inactive)
    1  A    between atoms: N_2  and  C_28
    2  A    between atoms: C_6  and  C_19
    3  A    between atoms: N_17  and  C_27
                            x       y       z     vdW  Elec       q    Type
                         _______ _______ _______ _____ _____    ______ ____

>  <TORSDO>
F 3

$$$$
=
 OpenBabel11062413303D

 28 31  0  0  1  0  0  0  0  0999 V2000
  189.3790  177.8490  142.9490 C   0  0  0  0  0  0  0  0  0  0  0  0
  191.5280  176.9550  143.6280 N   0  0  0  0  0  0  0  0  0  0  0  0
  191.8950  176.3630  145.8380 O   0  0  0  0  0  0  0  0  0  0  0  0
  185.7170  178.4310  146.3530 C   0  0  0  0  0  1  0  0  0  0  0  0
  191.3370  177.5070  141.3020 C   0  0  0  0  0  1  0  0  0  0  0  0
  188.8660  177.7370  144.3550 C   0  0  0  0  0  0  0  0  0  0  0  0
  187.1030  178.0140  146.0140 C   0  0  0  0  0  0  0  0  0  0  0  0
  191.0930  176.8240  144.9840 C   0  0  0  0  0  0  0  0  0  0  0  0
  190.0500  176.6230  147.7090 O   0  0  0  0  0  1  0  0  0  0  0  0
  189.7170  177.2280  145.3630 C   0  0  0  0  0  0  0  0  0  0  0  0
  188.6760  178.3000  141.9450 N   0  0  0  0  0  0  0  0  0  0  0  0
  189.2430  177.1180  146.6910 C   0  0  0  0  0  0  0  0  0  0  0  0
  187.9410  177.5120  147.0040 C   0  0  0  0  0  3  0  0  0  0  0  0
  187.5630  178.1250  144.7040 C   0  0  0  0  0  3  0  0  0  0  0  0
  190.7720  177.4180  142.6800 C   0  0  0  0  0  0  0  0  0  0  0  0
  187.4290  178.0940  139.5870 O   0  0  0  0  0  1  0  0  0  0  0  0
  186.3500  177.5860  141.7700 C   0  0  0  0  0  2  0  0  0  0  0  0
  187.2970  178.7730  141.9690 C   0  0  2  0  0  3  0  0  0  0  0  0
  186.6190  178.5410  140.6340 C   0  0  1  0  0  0  0  0  0  0  0  0
  185.5730  179.5020  140.3150 N   0  0  0  0  0  2  0  0  0  0  0  0
  184.3110  179.2410  139.6790 C   0  0  0  0  0  0  0  0  0  0  0  0
  183.4970  180.1980  139.5780 O   0  0  0  0  0  0  0  0  0  0  0  0
  183.9660  176.1760  137.4430 C   0  0  0  0  0  3  0  0  0  0  0  0
  184.3760  177.4240  137.9210 C   0  0  0  0  0  3  0  0  0  0  0  0
  183.9090  177.9110  139.1510 C   0  0  0  0  0  0  0  0  0  0  0  0
  182.5960  175.8760  139.4120 C   0  0  0  0  0  3  0  0  0  0  0  0
  183.0090  177.1240  139.8870 C   0  0  0  0  0  3  0  0  0  0  0  0
  183.0760  175.4010  138.1900 C   0  0  0  0  0  3  0  0  0  0  0  0
  1  6  1  0  0  0  0
  2  8  1  0  0  0  0
  5 15  1  0  0  0  0
  6 14  2  0  0  0  0
  6 10  1  0  0  0  0
  7  4  1  0  0  0  0
  7 13  2  0  0  0  0
  8 10  1  0  0  0  0
  8  3  2  0  0  0  0
 10 12  2  0  0  0  0
 11  1  2  0  0  0  0
 12 13  1  0  0  0  0
 12  9  1  0  0  0  0
 14  7  1  0  0  0  0
 15  1  1  0  0  0  0
 15  2  2  0  0  0  0
 17 18  1  0  0  0  0
 18 11  1  6  0  0  0
 19 16  1  6  0  0  0
 19 17  1  0  0  0  0
 19 18  1  0  0  0  0
 20 19  1  0  0  0  0
 21 20  1  0  0  0  0
 22 21  2  0  0  0  0
 23 24  2  0  0  0  0
 23 28  1  0  0  0  0
 24 25  1  0  0  0  0
 25 21  1  0  0  0  0
 25 27  2  0  0  0  0
 26 27  1  0  0  0  0
 28 26  2  0  0  0  0
M  END
>  <MODEL>
8

>  <REMARK>
 VINA RESULT:      -8.3      3.088      5.348
  Name = 
  3 active torsions:
  status: ('A' for Active; 'I' for Inactive)
    1  A    between atoms: N_2  and  C_28
    2  A    between atoms: C_6  and  C_19
    3  A    between atoms: N_17  and  C_27
                            x       y       z     vdW  Elec       q    Type
                         _______ _______ _______ _____ _____    ______ ____

>  <TORSDO>
F 3

$$$$
=
 OpenBabel11062413303D

 28 31  0  0  1  0  0  0  0  0999 V2000
  184.6970  178.4770  143.3800 C   0  0  0  0  0  0  0  0  0  0  0  0
  182.4700  179.0030  144.1840 N   0  0  0  0  0  0  0  0  0  0  0  0
  180.7540  179.3960  142.6780 O   0  0  0  0  0  0  0  0  0  0  0  0
  185.5890  178.2530  138.4320 C   0  0  0  0  0  1  0  0  0  0  0  0
  184.1130  178.6270  145.8900 C   0  0  0  0  0  1  0  0  0  0  0  0
  184.2300  178.5810  141.9580 C   0  0  0  0  0  0  0  0  0  0  0  0
  184.6470  178.4760  139.5590 C   0  0  0  0  0  0  0  0  0  0  0  0
  181.9690  179.1130  142.8490 C   0  0  0  0  0  0  0  0  0  0  0  0
  181.1040  179.3040  140.0620 O   0  0  0  0  0  1  0  0  0  0  0  0
  182.8760  178.8960  141.6960 C   0  0  0  0  0  0  0  0  0  0  0  0
  185.9210  178.1880  143.7310 N   0  0  0  0  0  0  0  0  0  0  0  0
  182.4270  178.9960  140.3590 C   0  0  0  0  0  0  0  0  0  0  0  0
  183.3150  178.7850  139.3040 C   0  0  0  0  0  3  0  0  0  0  0  0
  185.0980  178.3760  140.8740 C   0  0  0  0  0  3  0  0  0  0  0  0
  183.7070  178.7150  144.4580 C   0  0  0  0  0  0  0  0  0  0  0  0
  188.2850  178.2320  144.9860 O   0  0  0  0  0  1  0  0  0  0  0  0
  187.6780  176.5680  143.2390 C   0  0  0  0  0  2  0  0  0  0  0  0
  187.0540  177.9130  142.8560 C   0  0  2  0  0  3  0  0  0  0  0  0
  188.3490  177.8570  143.6410 C   0  0  1  0  0  0  0  0  0  0  0  0
  189.5290  178.2530  142.8860 N   0  0  0  0  0  2  0  0  0  0  0  0
  190.8810  177.8100  143.0840 C   0  0  0  0  0  0  0  0  0  0  0  0
  191.7510  178.1970  142.2570 O   0  0  0  0  0  0  0  0  0  0  0  0
  192.0580  174.7560  145.0320 C   0  0  0  0  0  3  0  0  0  0  0  0
  191.6810  175.5790  143.9690 C   0  0  0  0  0  3  0  0  0  0  0  0
  191.3060  176.9130  144.1900 C   0  0  0  0  0  0  0  0  0  0  0  0
  191.6810  176.5790  146.5740 C   0  0  0  0  0  3  0  0  0  0  0  0
  191.3040  177.4000  145.5070 C   0  0  0  0  0  3  0  0  0  0  0  0
  192.0590  175.2570  146.3370 C   0  0  0  0  0  3  0  0  0  0  0  0
  1 11  2  0  0  0  0
  1 15  1  0  0  0  0
  2 15  2  0  0  0  0
  3  8  2  0  0  0  0
  4  7  1  0  0  0  0
  6  1  1  0  0  0  0
  7 14  1  0  0  0  0
  8  2  1  0  0  0  0
  9 12  1  0  0  0  0
 10  6  1  0  0  0  0
 10  8  1  0  0  0  0
 12 10  2  0  0  0  0
 13  7  2  0  0  0  0
 13 12  1  0  0  0  0
 14  6  2  0  0  0  0
 15  5  1  0  0  0  0
 17 19  1  0  0  0  0
 18 17  1  0  0  0  0
 18 19  1  0  0  0  0
 18 11  1  1  0  0  0
 19 16  1  1  0  0  0
 20 21  1  0  0  0  0
 20 19  1  0  0  0  0
 21 25  1  0  0  0  0
 22 21  2  0  0  0  0
 23 28  1  0  0  0  0
 24 25  1  0  0  0  0
 24 23  2  0  0  0  0
 25 27  2  0  0  0  0
 27 26  1  0  0  0  0
 28 26  2  0  0  0  0
M  END
>  <MODEL>
9

>  <REMARK>
 VINA RESULT:      -8.2      3.447      6.101
  Name = 
  3 active torsions:
  status: ('A' for Active; 'I' for Inactive)
    1  A    between atoms: N_2  and  C_28
    2  A    between atoms: C_6  and  C_19
    3  A    between atoms: N_17  and  C_27
                            x       y       z     vdW  Elec       q    Type
                         _______ _______ _______ _____ _____    ______ ____

>  <TORSDO>
F 3

$$$$
