=
 OpenBabel11062417423D

 39 45  0  0  1  0  0  0  0  0999 V2000
  182.3040  179.4970  143.3230 O   0  0  0  0  0  0  0  0  0  0  0  0
  184.1780  178.6280  144.7580 C   0  0  0  0  0  2  0  0  0  0  0  0
  180.3290  180.3360  138.7400 N   0  0  0  0  0  0  0  0  0  0  0  0
  183.9210  178.1730  142.3580 C   0  0  1  0  0  3  0  0  0  0  0  0
  179.9570  180.9870  137.5310 C   0  0  0  0  0  0  0  0  0  0  0  0
  183.6800  179.1940  143.4400 C   0  0  1  0  0  3  0  0  0  0  0  0
  186.2170  178.3600  143.2900 N   0  0  0  0  0  0  0  0  0  0  0  0
  180.7070  180.3610  140.2460 C   0  0  1  0  0  0  0  0  0  0  0  0
  180.7260  179.1760  139.4600 C   0  0  1  0  0  0  0  0  0  0  0  0
  180.6090  179.4310  141.3780 C   0  0  1  0  0  0  0  0  0  0  0  0
  182.0590  178.8630  139.0800 O   0  0  0  0  0  0  0  0  0  0  0  0
  181.9500  179.2090  142.0100 C   0  0  0  0  0  0  0  0  0  0  0  0
  179.8380  180.3170  136.4700 O   0  0  0  0  0  0  0  0  0  0  0  0
  182.9070  178.5740  141.3420 C   0  0  0  0  0  0  0  0  0  0  0  0
  185.5220  177.8910  144.5130 C   0  0  0  0  0  2  0  0  0  0  0  0
  185.4150  178.1770  142.0540 C   0  0  0  0  0  2  0  0  0  0  0  0
  179.1860  180.4210  143.2190 O   0  0  0  0  0  0  0  0  0  0  0  0
  179.5380  181.0580  140.8010 N   0  0  0  0  0  2  0  0  0  0  0  0
  179.6900  180.3390  142.0690 C   0  0  0  0  0  0  0  0  0  0  0  0
  182.6140  177.9320  139.9950 C   0  0  2  0  0  3  0  0  0  0  0  0
  182.9360  175.0250  138.6850 C   0  0  0  0  0  1  0  0  0  0  0  0
  184.9610  178.2530  139.0540 C   0  0  0  0  0  2  0  0  0  0  0  0
  184.5860  176.1690  137.2230 C   0  0  0  0  0  2  0  0  0  0  0  0
  183.8400  177.2470  139.3890 C   0  0  2  0  0  3  0  0  0  0  0  0
  184.9000  178.6920  137.5940 C   0  0  0  0  0  2  0  0  0  0  0  0
  183.4260  176.3730  138.1930 C   0  0  2  0  0  3  0  0  0  0  0  0
  185.0730  177.5030  136.6400 C   0  0  0  0  0  2  0  0  0  0  0  0
  181.0760  183.1840  137.5930 C   0  0  0  0  0  1  0  0  0  0  0  0
  179.7440  182.4640  137.5220 C   0  0  1  0  0  3  0  0  0  0  0  0
  179.0630  182.8460  136.3650 O   0  0  0  0  0  1  0  0  0  0  0  0
  187.4090  177.5430  143.1430 C   0  0  0  0  0  2  0  0  0  0  0  0
  189.5510  178.5560  142.9040 O   0  0  0  0  0  1  0  0  0  0  0  0
  188.3910  178.2190  142.2040 C   0  0  1  0  0  3  0  0  0  0  0  0
  188.7230  177.3060  141.1200 N   0  0  0  0  0  2  0  0  0  0  0  0
  188.6780  178.9490  139.4610 O   0  0  0  0  0  0  0  0  0  0  0  0
  188.8570  177.7380  139.7630 C   0  0  0  0  0  0  0  0  0  0  0  0
  188.4380  176.6010  137.7320 O   0  0  0  0  0  0  0  0  0  0  0  0
  189.2010  176.7660  138.7190 C   0  0  0  0  0  0  0  0  0  0  0  0
  190.4000  176.0030  138.8140 N   0  0  0  0  0  1  0  0  0  0  0  0
  1  6  1  0  0  0  0
  3  9  1  0  0  0  0
  3  8  1  0  0  0  0
  4 16  1  6  0  0  0
  4  6  1  0  0  0  0
  5  3  1  0  0  0  0
  6  2  1  1  0  0  0
  7 15  1  0  0  0  0
  8 18  1  6  0  0  0
  8 10  1  0  0  0  0
  9 11  1  6  0  0  0
  9  8  1  0  0  0  0
  9 10  1  0  0  0  0
 10 12  1  1  0  0  0
 10 19  1  0  0  0  0
 12  1  1  0  0  0  0
 13  5  2  0  0  0  0
 14 12  2  0  0  0  0
 14  4  1  0  0  0  0
 15  2  1  0  0  0  0
 16  7  1  0  0  0  0
 18 19  1  0  0  0  0
 19 17  2  0  0  0  0
 20 11  1  6  0  0  0
 20 14  1  0  0  0  0
 23 26  1  0  0  0  0
 24 22  1  6  0  0  0
 24 20  1  0  0  0  0
 25 22  1  0  0  0  0
 26 21  1  1  0  0  0
 26 24  1  0  0  0  0
 27 23  1  0  0  0  0
 27 25  1  0  0  0  0
 29  5  1  0  0  0  0
 29 28  1  6  0  0  0
 30 29  1  0  0  0  0
 31  7  1  0  0  0  0
 33 32  1  1  0  0  0
 33 31  1  0  0  0  0
 34 33  1  0  0  0  0
 35 36  2  0  0  0  0
 36 34  1  0  0  0  0
 37 38  2  0  0  0  0
 38 39  1  0  0  0  0
 38 36  1  0  0  0  0
M  END
>  <MODEL>
1

>  <REMARK>
 VINA RESULT:      -6.9      0.000      0.000
  Name = 
  6 active torsions:
  status: ('A' for Active; 'I' for Inactive)
    1  A    between atoms: C_9  and  N_12
    2  A    between atoms: C_9  and  C_13
    3  A    between atoms: C_10  and  C_29
    4  A    between atoms: C_13  and  N_15
    5  A    between atoms: C_14  and  C_21
    6  A    between atoms: C_24  and  C_38
                            x       y       z     vdW  Elec       q    Type
                         _______ _______ _______ _____ _____    ______ ____

>  <TORSDO>
F 6

$$$$
=
 OpenBabel11062417423D

 39 45  0  0  1  0  0  0  0  0999 V2000
  187.4460  178.5570  138.9530 O   0  0  0  0  0  0  0  0  0  0  0  0
  189.7820  177.8320  138.3660 C   0  0  0  0  0  2  0  0  0  0  0  0
  182.4920  178.6050  137.9220 N   0  0  0  0  0  0  0  0  0  0  0  0
  187.7350  176.9140  137.3660 C   0  0  1  0  0  3  0  0  0  0  0  0
  181.2170  179.0210  137.4440 C   0  0  0  0  0  0  0  0  0  0  0  0
  188.3590  178.1560  137.9490 C   0  0  1  0  0  3  0  0  0  0  0  0
  189.7760  177.0720  135.9570 N   0  0  0  0  0  0  0  0  0  0  0  0
  183.9290  178.9060  138.4230 C   0  0  1  0  0  0  0  0  0  0  0  0
  183.4420  177.5870  138.2140 C   0  0  1  0  0  0  0  0  0  0  0  0
  184.9060  178.2470  139.2980 C   0  0  1  0  0  0  0  0  0  0  0  0
  183.9260  177.0770  136.9790 O   0  0  0  0  0  0  0  0  0  0  0  0
  186.2090  178.0360  138.5870 C   0  0  0  0  0  0  0  0  0  0  0  0
  180.3660  178.1590  137.0980 O   0  0  0  0  0  0  0  0  0  0  0  0
  186.2840  177.1870  137.5670 C   0  0  0  0  0  0  0  0  0  0  0  0
  190.4340  176.9370  137.2790 C   0  0  0  0  0  2  0  0  0  0  0  0
  188.3350  176.7120  135.9790 C   0  0  0  0  0  2  0  0  0  0  0  0
  185.4800  179.7290  141.2650 O   0  0  0  0  0  0  0  0  0  0  0  0
  183.6340  179.8120  139.5430 N   0  0  0  0  0  2  0  0  0  0  0  0
  184.8390  179.3610  140.2460 C   0  0  0  0  0  0  0  0  0  0  0  0
  185.0970  176.3090  137.2030 C   0  0  2  0  0  3  0  0  0  0  0  0
  186.5790  173.4720  137.0540 C   0  0  0  0  0  1  0  0  0  0  0  0
  184.5080  175.7580  134.7850 C   0  0  0  0  0  2  0  0  0  0  0  0
  184.9540  173.0300  135.2270 C   0  0  0  0  0  2  0  0  0  0  0  0
  185.3820  175.4000  136.0050 C   0  0  2  0  0  3  0  0  0  0  0  0
  183.2550  174.8890  134.7210 C   0  0  0  0  0  2  0  0  0  0  0  0
  185.2770  173.9240  136.4210 C   0  0  2  0  0  3  0  0  0  0  0  0
  183.6070  173.4010  134.5940 C   0  0  0  0  0  2  0  0  0  0  0  0
  180.7260  180.8540  135.8700 C   0  0  0  0  0  1  0  0  0  0  0  0
  180.9130  180.4770  137.3250 C   0  0  1  0  0  3  0  0  0  0  0  0
  179.7570  180.7880  138.0440 O   0  0  0  0  0  1  0  0  0  0  0  0
  190.4310  176.1340  135.0620 C   0  0  0  0  0  2  0  0  0  0  0  0
  191.5110  174.0950  135.6510 O   0  0  0  0  0  1  0  0  0  0  0  0
  191.6100  175.4830  135.7620 C   0  0  1  0  0  3  0  0  0  0  0  0
  192.8450  175.9360  135.1400 N   0  0  0  0  0  2  0  0  0  0  0  0
  193.9250  176.3920  137.1600 O   0  0  0  0  0  0  0  0  0  0  0  0
  193.9740  176.3760  135.9000 C   0  0  0  0  0  0  0  0  0  0  0  0
  195.9040  175.9770  134.5940 O   0  0  0  0  0  0  0  0  0  0  0  0
  195.1930  176.8120  135.2110 C   0  0  0  0  0  0  0  0  0  0  0  0
  195.5800  178.1830  135.2330 N   0  0  0  0  0  1  0  0  0  0  0  0
  3  9  1  0  0  0  0
  3  8  1  0  0  0  0
  4 16  1  6  0  0  0
  4 14  1  0  0  0  0
  4  6  1  0  0  0  0
  5  3  1  0  0  0  0
  6  2  1  1  0  0  0
  6  1  1  0  0  0  0
  7 16  1  0  0  0  0
  7 15  1  0  0  0  0
  8 10  1  0  0  0  0
  8 18  1  1  0  0  0
  9 11  1  6  0  0  0
  9  8  1  0  0  0  0
  9 10  1  0  0  0  0
 10 12  1  6  0  0  0
 10 19  1  0  0  0  0
 12  1  1  0  0  0  0
 13  5  2  0  0  0  0
 14 12  2  0  0  0  0
 15  2  1  0  0  0  0
 18 19  1  0  0  0  0
 19 17  2  0  0  0  0
 20 11  1  6  0  0  0
 20 14  1  0  0  0  0
 23 26  1  0  0  0  0
 24 22  1  6  0  0  0
 24 26  1  0  0  0  0
 24 20  1  0  0  0  0
 25 22  1  0  0  0  0
 26 21  1  6  0  0  0
 27 25  1  0  0  0  0
 27 23  1  0  0  0  0
 29 28  1  6  0  0  0
 29  5  1  0  0  0  0
 29 30  1  0  0  0  0
 31 33  1  0  0  0  0
 31  7  1  0  0  0  0
 33 32  1  6  0  0  0
 34 33  1  0  0  0  0
 34 36  1  0  0  0  0
 36 35  2  0  0  0  0
 37 38  2  0  0  0  0
 38 39  1  0  0  0  0
 38 36  1  0  0  0  0
M  END
>  <MODEL>
2

>  <REMARK>
 VINA RESULT:      -6.5      3.440      5.824
  Name = 
  6 active torsions:
  status: ('A' for Active; 'I' for Inactive)
    1  A    between atoms: C_9  and  N_12
    2  A    between atoms: C_9  and  C_13
    3  A    between atoms: C_10  and  C_29
    4  A    between atoms: C_13  and  N_15
    5  A    between atoms: C_14  and  C_21
    6  A    between atoms: C_24  and  C_38
                            x       y       z     vdW  Elec       q    Type
                         _______ _______ _______ _____ _____    ______ ____

>  <TORSDO>
F 6

$$$$
=
 OpenBabel11062417423D

 39 45  0  0  1  0  0  0  0  0999 V2000
  188.8000  178.2870  140.2960 O   0  0  0  0  0  0  0  0  0  0  0  0
  189.8560  178.2530  142.5790 C   0  0  0  0  0  2  0  0  0  0  0  0
  184.7380  177.6540  137.3450 N   0  0  0  0  0  0  0  0  0  0  0  0
  187.4390  178.1870  142.1500 C   0  0  1  0  0  3  0  0  0  0  0  0
  183.7930  177.0630  136.4600 C   0  0  0  0  0  0  0  0  0  0  0  0
  188.7860  177.7740  141.6140 C   0  0  1  0  0  3  0  0  0  0  0  0
  188.3280  176.9610  144.1210 N   0  0  0  0  0  0  0  0  0  0  0  0
  186.1700  177.7780  137.9310 C   0  0  1  0  0  0  0  0  0  0  0  0
  185.0610  178.5160  138.4290 C   0  0  1  0  0  0  0  0  0  0  0  0
  186.9680  178.8360  138.5630 C   0  0  1  0  0  0  0  0  0  0  0  0
  184.5720  177.9190  139.6210 O   0  0  0  0  0  0  0  0  0  0  0  0
  187.4710  178.4030  139.9070 C   0  0  0  0  0  0  0  0  0  0  0  0
  182.5820  177.4080  136.5160 O   0  0  0  0  0  0  0  0  0  0  0  0
  186.6170  178.2040  140.9060 C   0  0  0  0  0  0  0  0  0  0  0  0
  189.3670  178.0150  144.0330 C   0  0  0  0  0  2  0  0  0  0  0  0
  187.1140  177.2660  143.3210 C   0  0  0  0  0  2  0  0  0  0  0  0
  189.0570  179.2990  137.2150 O   0  0  0  0  0  0  0  0  0  0  0  0
  186.9390  178.0220  136.7020 N   0  0  0  0  0  2  0  0  0  0  0  0
  187.9240  178.8050  137.4540 C   0  0  0  0  0  0  0  0  0  0  0  0
  185.1460  178.5560  140.7500 C   0  0  2  0  0  3  0  0  0  0  0  0
  185.3040  179.8450  143.6800 C   0  0  0  0  0  1  0  0  0  0  0  0
  183.0330  177.4890  141.6920 C   0  0  0  0  0  2  0  0  0  0  0  0
  182.8520  179.4450  143.6870 C   0  0  0  0  0  2  0  0  0  0  0  0
  184.3310  178.2580  142.0100 C   0  0  2  0  0  3  0  0  0  0  0  0
  181.8430  178.4340  141.5510 C   0  0  0  0  0  2  0  0  0  0  0  0
  184.0960  179.5500  142.8100 C   0  0  2  0  0  3  0  0  0  0  0  0
  181.5890  179.2180  142.8460 C   0  0  0  0  0  2  0  0  0  0  0  0
  184.7590  174.8050  136.2420 C   0  0  0  0  0  1  0  0  0  0  0  0
  184.2400  176.0170  135.4950 C   0  0  1  0  0  3  0  0  0  0  0  0
  183.1790  175.6400  134.6680 O   0  0  0  0  0  1  0  0  0  0  0  0
  187.9100  176.8960  145.5110 C   0  0  0  0  0  2  0  0  0  0  0  0
  188.2330  178.2530  147.4410 O   0  0  0  0  0  1  0  0  0  0  0  0
  188.9070  177.6310  146.3890 C   0  0  1  0  0  3  0  0  0  0  0  0
  189.8700  176.6780  146.9210 N   0  0  0  0  0  2  0  0  0  0  0  0
  191.7130  177.6560  145.8720 O   0  0  0  0  0  0  0  0  0  0  0  0
  191.2670  176.7490  146.6260 C   0  0  0  0  0  0  0  0  0  0  0  0
  192.4310  174.6900  146.5870 O   0  0  0  0  0  0  0  0  0  0  0  0
  192.1850  175.7600  147.2030 C   0  0  0  0  0  0  0  0  0  0  0  0
  192.8050  176.0030  148.4620 N   0  0  0  0  0  1  0  0  0  0  0  0
  1  6  1  0  0  0  0
  2 15  1  0  0  0  0
  3  8  1  0  0  0  0
  3  9  1  0  0  0  0
  4 16  1  1  0  0  0
  5 13  2  0  0  0  0
  5  3  1  0  0  0  0
  6  4  1  0  0  0  0
  6  2  1  1  0  0  0
  7 31  1  0  0  0  0
  8 18  1  6  0  0  0
  8  9  1  0  0  0  0
  8 10  1  0  0  0  0
  9 10  1  0  0  0  0
  9 11  1  1  0  0  0
 10 19  1  6  0  0  0
 10 12  1  0  0  0  0
 12  1  1  0  0  0  0
 12 14  2  0  0  0  0
 14  4  1  0  0  0  0
 15  7  1  0  0  0  0
 16  7  1  0  0  0  0
 17 19  2  0  0  0  0
 18 19  1  0  0  0  0
 20 11  1  6  0  0  0
 20 14  1  0  0  0  0
 20 24  1  0  0  0  0
 24 22  1  6  0  0  0
 24 26  1  0  0  0  0
 25 22  1  0  0  0  0
 25 27  1  0  0  0  0
 26 21  1  1  0  0  0
 26 23  1  0  0  0  0
 27 23  1  0  0  0  0
 29 28  1  1  0  0  0
 29  5  1  0  0  0  0
 30 29  1  0  0  0  0
 31 33  1  0  0  0  0
 33 34  1  0  0  0  0
 33 32  1  1  0  0  0
 35 36  2  0  0  0  0
 36 34  1  0  0  0  0
 36 38  1  0  0  0  0
 37 38  2  0  0  0  0
 38 39  1  0  0  0  0
M  END
>  <MODEL>
3

>  <REMARK>
 VINA RESULT:      -6.5      3.350      6.502
  Name = 
  6 active torsions:
  status: ('A' for Active; 'I' for Inactive)
    1  A    between atoms: C_9  and  N_12
    2  A    between atoms: C_9  and  C_13
    3  A    between atoms: C_10  and  C_29
    4  A    between atoms: C_13  and  N_15
    5  A    between atoms: C_14  and  C_21
    6  A    between atoms: C_24  and  C_38
                            x       y       z     vdW  Elec       q    Type
                         _______ _______ _______ _____ _____    ______ ____

>  <TORSDO>
F 6

$$$$
=
 OpenBabel11062417423D

 39 45  0  0  1  0  0  0  0  0999 V2000
  182.5280  179.3420  143.1350 O   0  0  0  0  0  0  0  0  0  0  0  0
  184.5070  178.6430  144.5210 C   0  0  0  0  0  2  0  0  0  0  0  0
  180.3650  179.9740  138.6040 N   0  0  0  0  0  0  0  0  0  0  0  0
  184.2220  178.1470  142.1320 C   0  0  1  0  0  3  0  0  0  0  0  0
  179.9070  180.5810  137.4010 C   0  0  0  0  0  0  0  0  0  0  0  0
  183.9280  179.1540  143.2140 C   0  0  1  0  0  3  0  0  0  0  0  0
  186.5200  178.5300  142.9980 N   0  0  0  0  0  0  0  0  0  0  0  0
  180.7810  180.0430  140.0980 C   0  0  1  0  0  0  0  0  0  0  0  0
  180.8760  178.8560  139.3200 C   0  0  1  0  0  0  0  0  0  0  0  0
  180.7910  179.1190  141.2380 C   0  0  1  0  0  0  0  0  0  0  0  0
  182.2190  178.6510  138.9040 O   0  0  0  0  0  0  0  0  0  0  0  0
  182.1630  179.0140  141.8340 C   0  0  0  0  0  0  0  0  0  0  0  0
  179.8150  179.8940  136.3480 O   0  0  0  0  0  0  0  0  0  0  0  0
  183.1500  178.4530  141.1430 C   0  0  0  0  0  0  0  0  0  0  0  0
  185.9000  178.0170  144.2430 C   0  0  0  0  0  2  0  0  0  0  0  0
  185.7020  178.2710  141.7860 C   0  0  0  0  0  2  0  0  0  0  0  0
  179.3430  180.0040  143.1120 O   0  0  0  0  0  0  0  0  0  0  0  0
  179.5740  180.6460  140.6810 N   0  0  0  0  0  2  0  0  0  0  0  0
  179.8200  179.9530  141.9490 C   0  0  0  0  0  0  0  0  0  0  0  0
  182.8740  177.7770  139.8090 C   0  0  2  0  0  3  0  0  0  0  0  0
  183.3470  174.9700  138.3370 C   0  0  0  0  0  1  0  0  0  0  0  0
  185.2060  178.2690  138.9040 C   0  0  0  0  0  2  0  0  0  0  0  0
  184.9430  176.2770  136.9540 C   0  0  0  0  0  2  0  0  0  0  0  0
  184.1360  177.1900  139.1730 C   0  0  2  0  0  3  0  0  0  0  0  0
  185.1280  178.7880  137.4710 C   0  0  0  0  0  2  0  0  0  0  0  0
  183.7710  176.3670  137.9270 C   0  0  2  0  0  3  0  0  0  0  0  0
  185.3650  177.6650  136.4520 C   0  0  0  0  0  2  0  0  0  0  0  0
  180.8110  182.8580  137.6790 C   0  0  0  0  0  1  0  0  0  0  0  0
  179.5720  182.0350  137.3890 C   0  0  1  0  0  3  0  0  0  0  0  0
  179.0460  182.3980  136.1470 O   0  0  0  0  0  1  0  0  0  0  0  0
  187.7710  177.8140  142.8230 C   0  0  0  0  0  2  0  0  0  0  0  0
  187.9550  175.4830  143.2750 O   0  0  0  0  0  1  0  0  0  0  0  0
  187.9080  176.7380  143.8850 C   0  0  1  0  0  3  0  0  0  0  0  0
  189.1320  176.9610  144.6380 N   0  0  0  0  0  2  0  0  0  0  0  0
  188.0970  176.8650  146.7290 O   0  0  0  0  0  0  0  0  0  0  0  0
  189.1600  177.0100  146.0670 C   0  0  0  0  0  0  0  0  0  0  0  0
  190.4360  177.6260  147.9610 O   0  0  0  0  0  0  0  0  0  0  0  0
  190.4310  177.2310  146.7650 C   0  0  0  0  0  0  0  0  0  0  0  0
  191.6680  177.0020  146.0970 N   0  0  0  0  0  1  0  0  0  0  0  0
  1  6  1  0  0  0  0
  3  9  1  0  0  0  0
  3  8  1  0  0  0  0
  4 16  1  6  0  0  0
  4  6  1  0  0  0  0
  5  3  1  0  0  0  0
  6  2  1  1  0  0  0
  7 15  1  0  0  0  0
  8 18  1  1  0  0  0
  8 10  1  0  0  0  0
  9 11  1  6  0  0  0
  9  8  1  0  0  0  0
  9 10  1  0  0  0  0
 10 12  1  1  0  0  0
 10 19  1  0  0  0  0
 12  1  1  0  0  0  0
 13  5  2  0  0  0  0
 14 12  2  0  0  0  0
 14  4  1  0  0  0  0
 15  2  1  0  0  0  0
 16  7  1  0  0  0  0
 18 19  1  0  0  0  0
 19 17  2  0  0  0  0
 20 11  1  6  0  0  0
 20 14  1  0  0  0  0
 23 26  1  0  0  0  0
 24 22  1  6  0  0  0
 24 20  1  0  0  0  0
 25 22  1  0  0  0  0
 26 21  1  1  0  0  0
 26 24  1  0  0  0  0
 27 23  1  0  0  0  0
 27 25  1  0  0  0  0
 29  5  1  0  0  0  0
 29 28  1  6  0  0  0
 30 29  1  0  0  0  0
 31  7  1  0  0  0  0
 31 33  1  0  0  0  0
 33 32  1  6  0  0  0
 33 34  1  0  0  0  0
 34 36  1  0  0  0  0
 36 35  2  0  0  0  0
 36 38  1  0  0  0  0
 38 37  2  0  0  0  0
 39 38  1  0  0  0  0
M  END
>  <MODEL>
4

>  <REMARK>
 VINA RESULT:      -6.5      1.979      3.059
  Name = 
  6 active torsions:
  status: ('A' for Active; 'I' for Inactive)
    1  A    between atoms: C_9  and  N_12
    2  A    between atoms: C_9  and  C_13
    3  A    between atoms: C_10  and  C_29
    4  A    between atoms: C_13  and  N_15
    5  A    between atoms: C_14  and  C_21
    6  A    between atoms: C_24  and  C_38
                            x       y       z     vdW  Elec       q    Type
                         _______ _______ _______ _____ _____    ______ ____

>  <TORSDO>
F 6

$$$$
=
 OpenBabel11062417423D

 39 45  0  0  1  0  0  0  0  0999 V2000
  186.4410  178.6300  139.4740 O   0  0  0  0  0  0  0  0  0  0  0  0
  186.5440  179.7090  141.7430 C   0  0  0  0  0  2  0  0  0  0  0  0
  184.0850  175.6080  136.1690 N   0  0  0  0  0  0  0  0  0  0  0  0
  184.5670  178.5890  140.8110 C   0  0  1  0  0  3  0  0  0  0  0  0
  183.7260  174.4570  135.4110 C   0  0  0  0  0  0  0  0  0  0  0  0
  186.0750  178.5840  140.8390 C   0  0  1  0  0  3  0  0  0  0  0  0
  184.9510  178.4710  143.2640 N   0  0  0  0  0  0  0  0  0  0  0  0
  185.1100  176.4480  136.9770 C   0  0  1  0  0  0  0  0  0  0  0  0
  183.7430  176.8160  136.8380 C   0  0  1  0  0  0  0  0  0  0  0  0
  185.3080  177.8700  137.2830 C   0  0  1  0  0  0  0  0  0  0  0  0
  183.0220  176.4730  138.0130 O   0  0  0  0  0  0  0  0  0  0  0  0
  185.3710  178.0990  138.7630 C   0  0  0  0  0  0  0  0  0  0  0  0
  182.5360  174.3080  135.0250 O   0  0  0  0  0  0  0  0  0  0  0  0
  184.2920  177.9050  139.5150 C   0  0  0  0  0  0  0  0  0  0  0  0
  185.6320  179.7610  142.9980 C   0  0  0  0  0  2  0  0  0  0  0  0
  184.0860  178.0220  142.1420 C   0  0  0  0  0  2  0  0  0  0  0  0
  187.5460  178.6620  136.4140 O   0  0  0  0  0  0  0  0  0  0  0  0
  186.1860  176.5780  135.9840 N   0  0  0  0  0  2  0  0  0  0  0  0
  186.5790  177.8700  136.5550 C   0  0  0  0  0  0  0  0  0  0  0  0
  182.9480  177.5970  138.8760 C   0  0  2  0  0  3  0  0  0  0  0  0
  181.0520  179.7530  140.2980 C   0  0  0  0  0  1  0  0  0  0  0  0
  181.3430  175.9500  139.9760 C   0  0  0  0  0  2  0  0  0  0  0  0
  179.3730  177.9240  140.2160 C   0  0  0  0  0  2  0  0  0  0  0  0
  181.8330  177.4110  139.9070 C   0  0  2  0  0  3  0  0  0  0  0  0
  180.1130  175.7310  139.1000 C   0  0  0  0  0  2  0  0  0  0  0  0
  180.7030  178.4230  139.6590 C   0  0  2  0  0  3  0  0  0  0  0  0
  178.9390  176.6130  139.5470 C   0  0  0  0  0  2  0  0  0  0  0  0
  185.5290  173.0720  136.3660 C   0  0  0  0  0  1  0  0  0  0  0  0
  184.7570  173.4220  135.1090 C   0  0  1  0  0  3  0  0  0  0  0  0
  184.1510  172.2740  134.5940 O   0  0  0  0  0  1  0  0  0  0  0  0
  184.0810  178.6800  144.4080 C   0  0  0  0  0  2  0  0  0  0  0  0
  184.1890  178.2490  146.7470 O   0  0  0  0  0  1  0  0  0  0  0  0
  184.9070  178.7860  145.6770 C   0  0  1  0  0  3  0  0  0  0  0  0
  186.1490  178.0490  145.5040 N   0  0  0  0  0  2  0  0  0  0  0  0
  187.0620  178.7210  147.5450 O   0  0  0  0  0  0  0  0  0  0  0  0
  187.1920  178.0540  146.4830 C   0  0  0  0  0  0  0  0  0  0  0  0
  188.8310  177.0940  145.0740 O   0  0  0  0  0  0  0  0  0  0  0  0
  188.4170  177.2820  146.2480 C   0  0  0  0  0  0  0  0  0  0  0  0
  189.1460  176.7390  147.3440 N   0  0  0  0  0  1  0  0  0  0  0  0
  1  6  1  0  0  0  0
  2 15  1  0  0  0  0
  3  9  1  0  0  0  0
  3  8  1  0  0  0  0
  4  6  1  0  0  0  0
  4 16  1  1  0  0  0
  5  3  1  0  0  0  0
  6  2  1  1  0  0  0
  7 31  1  0  0  0  0
  8 18  1  6  0  0  0
  8 10  1  0  0  0  0
  9  8  1  0  0  0  0
  9 10  1  0  0  0  0
  9 11  1  1  0  0  0
 10 19  1  6  0  0  0
 10 12  1  0  0  0  0
 12  1  1  0  0  0  0
 12 14  2  0  0  0  0
 13  5  2  0  0  0  0
 14  4  1  0  0  0  0
 15  7  1  0  0  0  0
 16  7  1  0  0  0  0
 17 19  2  0  0  0  0
 18 19  1  0  0  0  0
 20 11  1  1  0  0  0
 20 14  1  0  0  0  0
 20 24  1  0  0  0  0
 24 22  1  6  0  0  0
 25 27  1  0  0  0  0
 25 22  1  0  0  0  0
 26 24  1  0  0  0  0
 26 23  1  0  0  0  0
 26 21  1  1  0  0  0
 27 23  1  0  0  0  0
 29  5  1  0  0  0  0
 29 28  1  1  0  0  0
 30 29  1  0  0  0  0
 31 33  1  0  0  0  0
 33 32  1  1  0  0  0
 34 33  1  0  0  0  0
 34 36  1  0  0  0  0
 36 35  2  0  0  0  0
 37 38  2  0  0  0  0
 38 36  1  0  0  0  0
 38 39  1  0  0  0  0
M  END
>  <MODEL>
5

>  <REMARK>
 VINA RESULT:      -6.1      3.275      6.475
  Name = 
  6 active torsions:
  status: ('A' for Active; 'I' for Inactive)
    1  A    between atoms: C_9  and  N_12
    2  A    between atoms: C_9  and  C_13
    3  A    between atoms: C_10  and  C_29
    4  A    between atoms: C_13  and  N_15
    5  A    between atoms: C_14  and  C_21
    6  A    between atoms: C_24  and  C_38
                            x       y       z     vdW  Elec       q    Type
                         _______ _______ _______ _____ _____    ______ ____

>  <TORSDO>
F 6

$$$$
=
 OpenBabel11062417423D

 39 45  0  0  1  0  0  0  0  0999 V2000
  192.6290  176.9210  141.2010 O   0  0  0  0  0  0  0  0  0  0  0  0
  191.3120  178.0730  143.0080 C   0  0  0  0  0  2  0  0  0  0  0  0
  192.7840  174.5800  136.7180 N   0  0  0  0  0  0  0  0  0  0  0  0
  190.4690  177.5810  140.7550 C   0  0  1  0  0  3  0  0  0  0  0  0
  192.8100  173.5530  135.7320 C   0  0  0  0  0  0  0  0  0  0  0  0
  191.3840  177.0950  141.8500 C   0  0  1  0  0  3  0  0  0  0  0  0
  188.8710  177.5260  142.6580 N   0  0  0  0  0  0  0  0  0  0  0  0
  193.0520  175.1040  138.1540 C   0  0  1  0  0  0  0  0  0  0  0  0
  192.4040  175.8790  137.1540 C   0  0  1  0  0  0  0  0  0  0  0  0
  193.3320  176.4050  138.7720 C   0  0  1  0  0  0  0  0  0  0  0  0
  190.9990  175.8730  137.3650 O   0  0  0  0  0  0  0  0  0  0  0  0
  192.3440  176.7100  139.8570 C   0  0  0  0  0  0  0  0  0  0  0  0
  192.3150  173.7650  134.5940 O   0  0  0  0  0  0  0  0  0  0  0  0
  191.0670  176.9280  139.5560 C   0  0  0  0  0  0  0  0  0  0  0  0
  189.8360  178.5060  143.2110 C   0  0  0  0  0  2  0  0  0  0  0  0
  189.0380  177.2980  141.2000 C   0  0  0  0  0  2  0  0  0  0  0  0
  195.5760  176.3720  139.9370 O   0  0  0  0  0  0  0  0  0  0  0  0
  194.4870  174.8080  138.2790 N   0  0  0  0  0  2  0  0  0  0  0  0
  194.6580  175.9440  139.1900 C   0  0  0  0  0  0  0  0  0  0  0  0
  190.6190  177.0210  138.1060 C   0  0  2  0  0  3  0  0  0  0  0  0
  189.0170  179.7490  137.5940 C   0  0  0  0  0  1  0  0  0  0  0  0
  188.3300  175.9840  137.6830 C   0  0  0  0  0  2  0  0  0  0  0  0
  187.4640  178.2770  136.3320 C   0  0  0  0  0  2  0  0  0  0  0  0
  189.1180  177.2790  137.9680 C   0  0  2  0  0  3  0  0  0  0  0  0
  188.0950  175.7910  136.1880 C   0  0  0  0  0  2  0  0  0  0  0  0
  188.8600  178.3900  136.9380 C   0  0  2  0  0  3  0  0  0  0  0  0
  187.2790  176.9450  135.5920 C   0  0  0  0  0  2  0  0  0  0  0  0
  192.7630  171.1430  135.2130 C   0  0  0  0  0  1  0  0  0  0  0  0
  193.3960  172.2220  136.0690 C   0  0  1  0  0  3  0  0  0  0  0  0
  194.7770  172.2370  135.8620 O   0  0  0  0  0  1  0  0  0  0  0  0
  187.5450  178.0870  142.8460 C   0  0  0  0  0  2  0  0  0  0  0  0
  187.5460  176.7530  144.8190 O   0  0  0  0  0  1  0  0  0  0  0  0
  186.7330  177.2050  143.7780 C   0  0  1  0  0  3  0  0  0  0  0  0
  185.6260  177.9750  144.3230 N   0  0  0  0  0  2  0  0  0  0  0  0
  184.3420  177.8780  142.3740 O   0  0  0  0  0  0  0  0  0  0  0  0
  184.4500  178.2750  143.5660 C   0  0  0  0  0  0  0  0  0  0  0  0
  183.4300  179.3770  145.3940 O   0  0  0  0  0  0  0  0  0  0  0  0
  183.3650  179.0500  144.1800 C   0  0  0  0  0  0  0  0  0  0  0  0
  182.2330  179.4370  143.4080 N   0  0  0  0  0  1  0  0  0  0  0  0
  1  6  1  0  0  0  0
  2 15  1  0  0  0  0
  3  9  1  0  0  0  0
  3  8  1  0  0  0  0
  4 16  1  1  0  0  0
  4  6  1  0  0  0  0
  5 29  1  0  0  0  0
  5  3  1  0  0  0  0
  6  2  1  1  0  0  0
  7 31  1  0  0  0  0
  7 15  1  0  0  0  0
  8 18  1  6  0  0  0
  8 10  1  0  0  0  0
  9 11  1  1  0  0  0
  9  8  1  0  0  0  0
  9 10  1  0  0  0  0
 10 19  1  6  0  0  0
 10 12  1  0  0  0  0
 12  1  1  0  0  0  0
 13  5  2  0  0  0  0
 14 12  2  0  0  0  0
 14  4  1  0  0  0  0
 16  7  1  0  0  0  0
 18 19  1  0  0  0  0
 19 17  2  0  0  0  0
 20 11  1  6  0  0  0
 20 14  1  0  0  0  0
 23 26  1  0  0  0  0
 24 22  1  6  0  0  0
 24 20  1  0  0  0  0
 25 22  1  0  0  0  0
 26 21  1  1  0  0  0
 26 24  1  0  0  0  0
 27 25  1  0  0  0  0
 27 23  1  0  0  0  0
 29 28  1  6  0  0  0
 30 29  1  0  0  0  0
 31 33  1  0  0  0  0
 33 34  1  0  0  0  0
 33 32  1  1  0  0  0
 35 36  2  0  0  0  0
 36 38  1  0  0  0  0
 36 34  1  0  0  0  0
 38 37  2  0  0  0  0
 39 38  1  0  0  0  0
M  END
>  <MODEL>
6

>  <REMARK>
 VINA RESULT:      -5.9      4.328     10.270
  Name = 
  6 active torsions:
  status: ('A' for Active; 'I' for Inactive)
    1  A    between atoms: C_9  and  N_12
    2  A    between atoms: C_9  and  C_13
    3  A    between atoms: C_10  and  C_29
    4  A    between atoms: C_13  and  N_15
    5  A    between atoms: C_14  and  C_21
    6  A    between atoms: C_24  and  C_38
                            x       y       z     vdW  Elec       q    Type
                         _______ _______ _______ _____ _____    ______ ____

>  <TORSDO>
F 6

$$$$
=
 OpenBabel11062417423D

 39 45  0  0  1  0  0  0  0  0999 V2000
  183.4240  178.0720  140.6830 O   0  0  0  0  0  0  0  0  0  0  0  0
  181.7890  177.5230  138.8520 C   0  0  0  0  0  2  0  0  0  0  0  0
  188.1720  178.1360  142.4340 N   0  0  0  0  0  0  0  0  0  0  0  0
  184.2300  177.5680  138.5860 C   0  0  1  0  0  3  0  0  0  0  0  0
  189.3610  177.7630  143.1210 C   0  0  0  0  0  0  0  0  0  0  0  0
  183.1120  177.2780  139.5540 C   0  0  1  0  0  3  0  0  0  0  0  0
  182.9210  175.9280  137.2540 N   0  0  0  0  0  0  0  0  0  0  0  0
  186.6290  178.1190  142.2620 C   0  0  1  0  0  0  0  0  0  0  0  0
  187.5070  178.7330  141.3270 C   0  0  1  0  0  0  0  0  0  0  0  0
  185.6190  179.0050  141.6710 C   0  0  1  0  0  0  0  0  0  0  0  0
  187.6910  177.8860  140.2010 O   0  0  0  0  0  0  0  0  0  0  0  0
  184.7990  178.2790  140.6470 C   0  0  0  0  0  0  0  0  0  0  0  0
  190.4840  178.0920  142.6540 O   0  0  0  0  0  0  0  0  0  0  0  0
  185.3570  177.8660  139.5140 C   0  0  0  0  0  0  0  0  0  0  0  0
  181.8770  176.9690  137.4040 C   0  0  0  0  0  2  0  0  0  0  0  0
  184.2840  176.4100  137.5950 C   0  0  0  0  0  2  0  0  0  0  0  0
  183.9520  179.7450  143.4220 O   0  0  0  0  0  0  0  0  0  0  0  0
  186.2110  178.6260  143.5770 N   0  0  0  0  0  2  0  0  0  0  0  0
  185.0070  179.2170  142.9850 C   0  0  0  0  0  0  0  0  0  0  0  0
  186.7880  178.2530  139.1710 C   0  0  2  0  0  3  0  0  0  0  0  0
  187.2230  179.6990  136.3450 C   0  0  0  0  0  1  0  0  0  0  0  0
  187.9230  176.3080  137.9780 C   0  0  0  0  0  2  0  0  0  0  0  0
  189.0510  178.0370  136.0870 C   0  0  0  0  0  2  0  0  0  0  0  0
  187.2450  177.6850  137.8260 C   0  0  2  0  0  3  0  0  0  0  0  0
  189.4410  176.4380  138.0610 C   0  0  0  0  0  2  0  0  0  0  0  0
  188.1110  178.7140  137.0800 C   0  0  2  0  0  3  0  0  0  0  0  0
  190.0220  177.0810  136.7930 C   0  0  0  0  0  2  0  0  0  0  0  0
  190.6490  176.5190  144.8160 C   0  0  0  0  0  1  0  0  0  0  0  0
  189.2670  176.9560  144.3730 C   0  0  1  0  0  3  0  0  0  0  0  0
  188.6640  177.7050  145.3850 O   0  0  0  0  0  1  0  0  0  0  0  0
  182.9460  175.5560  135.8500 C   0  0  0  0  0  2  0  0  0  0  0  0
  182.0820  173.6990  134.6340 O   0  0  0  0  0  1  0  0  0  0  0  0
  182.9020  174.0450  135.7100 C   0  0  1  0  0  3  0  0  0  0  0  0
  184.2480  173.5460  135.4790 N   0  0  0  0  0  2  0  0  0  0  0  0
  184.4740  172.6010  137.6030 O   0  0  0  0  0  0  0  0  0  0  0  0
  184.9830  172.8230  136.4700 C   0  0  0  0  0  0  0  0  0  0  0  0
  187.3390  172.9310  136.6450 O   0  0  0  0  0  0  0  0  0  0  0  0
  186.3350  172.3390  136.1690 C   0  0  0  0  0  0  0  0  0  0  0  0
  186.5220  171.1990  135.3360 N   0  0  0  0  0  1  0  0  0  0  0  0
  3  5  1  0  0  0  0
  4 16  1  1  0  0  0
  4 14  1  0  0  0  0
  4  6  1  0  0  0  0
  5 29  1  0  0  0  0
  6  2  1  6  0  0  0
  6  1  1  0  0  0  0
  7 15  1  0  0  0  0
  7 16  1  0  0  0  0
  8  3  1  0  0  0  0
  8 18  1  1  0  0  0
  9 11  1  6  0  0  0
  9 10  1  0  0  0  0
  9  8  1  0  0  0  0
  9  3  1  0  0  0  0
 10 12  1  6  0  0  0
 10  8  1  0  0  0  0
 10 19  1  0  0  0  0
 12  1  1  0  0  0  0
 13  5  2  0  0  0  0
 14 12  2  0  0  0  0
 15  2  1  0  0  0  0
 19 17  2  0  0  0  0
 19 18  1  0  0  0  0
 20 14  1  1  0  0  0
 20 11  1  0  0  0  0
 22 25  1  0  0  0  0
 23 27  1  0  0  0  0
 23 26  1  0  0  0  0
 24 22  1  1  0  0  0
 24 20  1  0  0  0  0
 26 21  1  6  0  0  0
 26 24  1  0  0  0  0
 27 25  1  0  0  0  0
 29 28  1  1  0  0  0
 29 30  1  0  0  0  0
 31  7  1  0  0  0  0
 33 32  1  6  0  0  0
 33 31  1  0  0  0  0
 34 33  1  0  0  0  0
 34 36  1  0  0  0  0
 36 35  2  0  0  0  0
 38 36  1  0  0  0  0
 38 37  2  0  0  0  0
 39 38  1  0  0  0  0
M  END
>  <MODEL>
7

>  <REMARK>
 VINA RESULT:      -5.9      3.304      7.552
  Name = 
  6 active torsions:
  status: ('A' for Active; 'I' for Inactive)
    1  A    between atoms: C_9  and  N_12
    2  A    between atoms: C_9  and  C_13
    3  A    between atoms: C_10  and  C_29
    4  A    between atoms: C_13  and  N_15
    5  A    between atoms: C_14  and  C_21
    6  A    between atoms: C_24  and  C_38
                            x       y       z     vdW  Elec       q    Type
                         _______ _______ _______ _____ _____    ______ ____

>  <TORSDO>
F 6

$$$$
=
 OpenBabel11062417423D

 39 45  0  0  1  0  0  0  0  0999 V2000
  192.8130  176.7440  140.8930 O   0  0  0  0  0  0  0  0  0  0  0  0
  191.6280  178.0750  142.6680 C   0  0  0  0  0  2  0  0  0  0  0  0
  192.6590  174.0440  136.6160 N   0  0  0  0  0  0  0  0  0  0  0  0
  190.6460  177.4240  140.5130 C   0  0  1  0  0  3  0  0  0  0  0  0
  192.6060  172.9400  135.7190 C   0  0  0  0  0  0  0  0  0  0  0  0
  191.6110  177.0040  141.5920 C   0  0  1  0  0  3  0  0  0  0  0  0
  189.1590  177.5670  142.4990 N   0  0  0  0  0  0  0  0  0  0  0  0
  193.0210  174.6750  137.9880 C   0  0  1  0  0  0  0  0  0  0  0  0
  192.3340  175.3840  136.9640 C   0  0  1  0  0  0  0  0  0  0  0  0
  193.3640  176.0150  138.4790 C   0  0  1  0  0  0  0  0  0  0  0  0
  190.9430  175.4330  137.2520 O   0  0  0  0  0  0  0  0  0  0  0  0
  192.4470  176.4330  139.5880 C   0  0  0  0  0  0  0  0  0  0  0  0
  192.0510  173.0720  134.5960 O   0  0  0  0  0  0  0  0  0  0  0  0
  191.1610  176.6600  139.3410 C   0  0  0  0  0  0  0  0  0  0  0  0
  190.1750  178.5630  142.9160 C   0  0  0  0  0  2  0  0  0  0  0  0
  189.2370  177.2170  141.0580 C   0  0  0  0  0  2  0  0  0  0  0  0
  195.6700  176.0150  139.5180 O   0  0  0  0  0  0  0  0  0  0  0  0
  194.4530  174.3520  138.0580 N   0  0  0  0  0  2  0  0  0  0  0  0
  194.7010  175.5530  138.8610 C   0  0  0  0  0  0  0  0  0  0  0  0
  190.6330  176.6470  137.9150 C   0  0  2  0  0  3  0  0  0  0  0  0
  189.0590  179.4220  137.6070 C   0  0  0  0  0  1  0  0  0  0  0  0
  188.3150  175.6670  137.5080 C   0  0  0  0  0  2  0  0  0  0  0  0
  187.4450  178.0460  136.3150 C   0  0  0  0  0  2  0  0  0  0  0  0
  189.1310  176.9340  137.8400 C   0  0  2  0  0  3  0  0  0  0  0  0
  188.0310  175.5620  136.0120 C   0  0  0  0  0  2  0  0  0  0  0  0
  188.8600  178.1050  136.8820 C   0  0  2  0  0  3  0  0  0  0  0  0
  187.2150  176.7600  135.5080 C   0  0  0  0  0  2  0  0  0  0  0  0
  192.8090  170.5560  135.1250 C   0  0  0  0  0  1  0  0  0  0  0  0
  193.1800  171.6260  136.1320 C   0  0  1  0  0  3  0  0  0  0  0  0
  194.5700  171.7170  136.2310 O   0  0  0  0  0  1  0  0  0  0  0  0
  187.8580  178.1770  142.7140 C   0  0  0  0  0  2  0  0  0  0  0  0
  187.4550  176.0010  143.5940 O   0  0  0  0  0  1  0  0  0  0  0  0
  187.0370  177.3310  143.6700 C   0  0  1  0  0  3  0  0  0  0  0  0
  187.2210  177.8250  145.0260 N   0  0  0  0  0  2  0  0  0  0  0  0
  184.9840  178.4250  145.3210 O   0  0  0  0  0  0  0  0  0  0  0  0
  186.1470  178.3590  145.8040 C   0  0  0  0  0  0  0  0  0  0  0  0
  185.6960  179.7540  147.6600 O   0  0  0  0  0  0  0  0  0  0  0  0
  186.4000  178.8320  147.1690 C   0  0  0  0  0  0  0  0  0  0  0  0
  187.4420  178.2550  147.9490 N   0  0  0  0  0  1  0  0  0  0  0  0
  1  6  1  0  0  0  0
  2 15  1  0  0  0  0
  3  9  1  0  0  0  0
  3  8  1  0  0  0  0
  4 16  1  1  0  0  0
  4  6  1  0  0  0  0
  5 29  1  0  0  0  0
  5  3  1  0  0  0  0
  6  2  1  1  0  0  0
  7 31  1  0  0  0  0
  7 15  1  0  0  0  0
  8 18  1  6  0  0  0
  8 10  1  0  0  0  0
  9 11  1  1  0  0  0
  9  8  1  0  0  0  0
  9 10  1  0  0  0  0
 10 19  1  6  0  0  0
 10 12  1  0  0  0  0
 12  1  1  0  0  0  0
 13  5  2  0  0  0  0
 14 12  2  0  0  0  0
 14  4  1  0  0  0  0
 16  7  1  0  0  0  0
 18 19  1  0  0  0  0
 19 17  2  0  0  0  0
 20 11  1  1  0  0  0
 20 14  1  0  0  0  0
 23 26  1  0  0  0  0
 24 22  1  6  0  0  0
 24 20  1  0  0  0  0
 25 22  1  0  0  0  0
 26 21  1  1  0  0  0
 26 24  1  0  0  0  0
 27 25  1  0  0  0  0
 27 23  1  0  0  0  0
 29 28  1  6  0  0  0
 29 30  1  0  0  0  0
 31 33  1  0  0  0  0
 33 32  1  1  0  0  0
 33 34  1  0  0  0  0
 34 36  1  0  0  0  0
 35 36  2  0  0  0  0
 36 38  1  0  0  0  0
 38 37  2  0  0  0  0
 38 39  1  0  0  0  0
M  END
>  <MODEL>
8

>  <REMARK>
 VINA RESULT:      -5.8      5.720     10.488
  Name = 
  6 active torsions:
  status: ('A' for Active; 'I' for Inactive)
    1  A    between atoms: C_9  and  N_12
    2  A    between atoms: C_9  and  C_13
    3  A    between atoms: C_10  and  C_29
    4  A    between atoms: C_13  and  N_15
    5  A    between atoms: C_14  and  C_21
    6  A    between atoms: C_24  and  C_38
                            x       y       z     vdW  Elec       q    Type
                         _______ _______ _______ _____ _____    ______ ____

>  <TORSDO>
F 6

$$$$
=
 OpenBabel11062417423D

 39 45  0  0  1  0  0  0  0  0999 V2000
  184.7310  177.8410  139.1000 O   0  0  0  0  0  0  0  0  0  0  0  0
  183.1180  177.2950  137.2500 C   0  0  0  0  0  2  0  0  0  0  0  0
  189.3500  177.4590  141.1330 N   0  0  0  0  0  0  0  0  0  0  0  0
  185.5480  176.9560  137.1380 C   0  0  1  0  0  3  0  0  0  0  0  0
  190.4370  177.0150  141.9370 C   0  0  0  0  0  0  0  0  0  0  0  0
  184.3560  176.9580  138.0610 C   0  0  1  0  0  3  0  0  0  0  0  0
  184.0720  175.3590  135.9360 N   0  0  0  0  0  0  0  0  0  0  0  0
  187.8310  177.6390  140.8660 C   0  0  1  0  0  0  0  0  0  0  0  0
  188.8330  177.9940  139.9210 C   0  0  1  0  0  0  0  0  0  0  0  0
  186.9930  178.5740  140.1060 C   0  0  1  0  0  0  0  0  0  0  0  0
  188.9400  176.9890  138.9220 O   0  0  0  0  0  0  0  0  0  0  0  0
  186.1210  177.8440  139.1290 C   0  0  0  0  0  0  0  0  0  0  0  0
  191.6170  177.1170  141.5060 O   0  0  0  0  0  0  0  0  0  0  0  0
  186.6640  177.2110  138.0930 C   0  0  0  0  0  0  0  0  0  0  0  0
  183.1890  176.5490  135.8900 C   0  0  0  0  0  2  0  0  0  0  0  0
  185.4740  175.6830  136.3030 C   0  0  0  0  0  2  0  0  0  0  0  0
  185.3770  179.7670  141.6410 O   0  0  0  0  0  0  0  0  0  0  0  0
  187.4340  178.3690  142.0790 N   0  0  0  0  0  2  0  0  0  0  0  0
  186.3600  179.0420  141.3410 C   0  0  0  0  0  0  0  0  0  0  0  0
  188.1500  177.3420  137.7990 C   0  0  2  0  0  3  0  0  0  0  0  0
  188.1240  178.1370  134.6950 C   0  0  0  0  0  1  0  0  0  0  0  0
  189.4720  175.3420  136.9350 C   0  0  0  0  0  2  0  0  0  0  0  0
  190.1600  176.7190  134.5970 C   0  0  0  0  0  2  0  0  0  0  0  0
  188.5790  176.5430  136.5660 C   0  0  2  0  0  3  0  0  0  0  0  0
  190.9530  175.6880  136.8130 C   0  0  0  0  0  2  0  0  0  0  0  0
  189.2110  177.4760  135.5200 C   0  0  2  0  0  3  0  0  0  0  0  0
  191.3220  176.0900  135.3780 C   0  0  0  0  0  2  0  0  0  0  0  0
  190.0930  177.4770  144.3340 C   0  0  0  0  0  1  0  0  0  0  0  0
  190.1670  176.4010  143.2690 C   0  0  1  0  0  3  0  0  0  0  0  0
  188.9680  175.6870  143.2370 O   0  0  0  0  0  1  0  0  0  0  0  0
  184.1050  174.8060  134.5940 C   0  0  0  0  0  2  0  0  0  0  0  0
  185.0070  172.6090  134.7770 O   0  0  0  0  0  1  0  0  0  0  0  0
  183.8120  173.3170  134.6360 C   0  0  1  0  0  3  0  0  0  0  0  0
  182.9390  173.0320  135.7640 N   0  0  0  0  0  2  0  0  0  0  0  0
  180.9650  173.5010  134.6070 O   0  0  0  0  0  0  0  0  0  0  0  0
  181.5150  173.1390  135.6830 C   0  0  0  0  0  0  0  0  0  0  0  0
  180.2440  171.6650  137.0260 O   0  0  0  0  0  0  0  0  0  0  0  0
  180.6920  172.8290  136.8570 C   0  0  0  0  0  0  0  0  0  0  0  0
  180.3940  173.8410  137.8140 N   0  0  0  0  0  1  0  0  0  0  0  0
  1 12  1  0  0  0  0
  3  5  1  0  0  0  0
  4 16  1  1  0  0  0
  4  6  1  0  0  0  0
  4 14  1  0  0  0  0
  5 29  1  0  0  0  0
  6  2  1  6  0  0  0
  6  1  1  0  0  0  0
  7 16  1  0  0  0  0
  8  3  1  0  0  0  0
  8 18  1  1  0  0  0
  9 11  1  6  0  0  0
  9 10  1  0  0  0  0
  9  8  1  0  0  0  0
  9  3  1  0  0  0  0
 10 12  1  6  0  0  0
 10  8  1  0  0  0  0
 10 19  1  0  0  0  0
 13  5  2  0  0  0  0
 14 12  2  0  0  0  0
 15  7  1  0  0  0  0
 15  2  1  0  0  0  0
 19 17  2  0  0  0  0
 19 18  1  0  0  0  0
 20 14  1  1  0  0  0
 20 11  1  0  0  0  0
 23 27  1  0  0  0  0
 23 26  1  0  0  0  0
 24 22  1  1  0  0  0
 24 20  1  0  0  0  0
 25 22  1  0  0  0  0
 26 21  1  6  0  0  0
 26 24  1  0  0  0  0
 27 25  1  0  0  0  0
 29 28  1  1  0  0  0
 30 29  1  0  0  0  0
 31 33  1  0  0  0  0
 31  7  1  0  0  0  0
 33 32  1  1  0  0  0
 33 34  1  0  0  0  0
 35 36  2  0  0  0  0
 36 34  1  0  0  0  0
 36 38  1  0  0  0  0
 38 37  2  0  0  0  0
 38 39  1  0  0  0  0
M  END
>  <MODEL>
9

>  <REMARK>
 VINA RESULT:      -5.6      3.996      8.673
  Name = 
  6 active torsions:
  status: ('A' for Active; 'I' for Inactive)
    1  A    between atoms: C_9  and  N_12
    2  A    between atoms: C_9  and  C_13
    3  A    between atoms: C_10  and  C_29
    4  A    between atoms: C_13  and  N_15
    5  A    between atoms: C_14  and  C_21
    6  A    between atoms: C_24  and  C_38
                            x       y       z     vdW  Elec       q    Type
                         _______ _______ _______ _____ _____    ______ ____

>  <TORSDO>
F 6

$$$$
