=
 OpenBabel11062414113D

 32 35  0  0  1  0  0  0  0  0999 V2000
  184.1640  179.5370  144.2470 C   0  0  2  0  0  3  0  0  0  0  0  0
  181.2640  179.4240  137.2310 N   0  0  0  0  0  2  0  0  0  0  0  0
  181.1790  178.5890  142.3210 C   0  0  0  0  0  2  0  0  0  0  0  0
  185.8620  178.7390  140.9070 C   0  0  1  0  0  3  0  0  0  0  0  0
  182.9390  179.6100  139.1570 C   0  0  1  0  0  3  0  0  0  0  0  0
  180.0770  178.2390  140.2330 O   0  0  0  0  0  1  0  0  0  0  0  0
  182.4070  178.9470  137.9430 C   0  0  0  0  0  0  0  0  0  0  0  0
  185.5540  179.4950  142.1960 C   0  0  0  0  0  2  0  0  0  0  0  0
  183.0950  177.9330  137.5480 N   0  0  0  0  0  0  0  0  0  0  0  0
  185.2350  179.3790  139.8280 O   0  0  0  0  0  0  0  0  0  0  0  0
  184.2300  177.6980  138.4230 C   0  0  0  0  0  2  0  0  0  0  0  0
  181.8750  179.8150  140.2410 C   0  0  0  0  0  2  0  0  0  0  0  0
  180.7570  178.7540  136.0460 C   0  0  0  0  0  1  0  0  0  0  0  0
  182.7440  179.5870  143.9110 N   0  0  0  0  0  0  0  0  0  0  0  0
  181.3200  178.5070  140.8050 C   0  0  1  0  0  3  0  0  0  0  0  0
  184.0550  178.6630  139.5960 C   0  0  2  0  0  3  0  0  0  0  0  0
  183.6420  178.0790  142.5380 O   0  0  0  0  0  0  0  0  0  0  0  0
  182.5190  178.7550  142.9580 C   0  0  0  0  0  0  0  0  0  0  0  0
  184.7800  178.6230  143.1810 C   0  0  2  0  0  3  0  0  0  0  0  0
  187.9380  177.7140  141.5000 O   0  0  0  0  0  1  0  0  0  0  0  0
  187.6490  178.3990  139.3500 O   0  0  0  0  0  1  0  0  0  0  0  0
  187.3680  178.6930  140.6860 C   0  0  0  0  0  3  0  0  0  0  0  0
  184.3350  178.9310  145.5580 N   0  0  0  0  0  2  0  0  0  0  0  0
  185.6300  179.2460  145.9900 N   0  0  0  0  0  2  0  0  0  0  0  0
  187.3430  177.6560  145.3290 C   0  0  0  0  0  2  0  0  0  0  0  0
  186.2730  177.9940  146.3550 C   0  0  1  0  0  3  0  0  0  0  0  0
  188.6670  177.9450  145.9970 C   0  0  1  0  0  3  0  0  0  0  0  0
  188.4230  177.7570  147.4830 C   0  0  0  0  0  0  0  0  0  0  0  0
  189.7600  177.0400  145.4540 C   0  0  0  0  0  1  0  0  0  0  0  0
  186.9780  178.1540  147.6970 C   0  0  0  0  0  2  0  0  0  0  0  0
  189.2600  178.5770  148.2180 F   0  0  0  0  0  0  0  0  0  0  0  0
  188.5940  176.4370  147.8680 F   0  0  0  0  0  0  0  0  0  0  0  0
  1 23  1  1  0  0  0
  2  7  1  0  0  0  0
  3 18  1  0  0  0  0
  4 22  1  6  0  0  0
  4  8  1  0  0  0  0
  5 16  1  0  0  0  0
  5 12  1  1  0  0  0
  7  5  1  0  0  0  0
  9  7  2  0  0  0  0
  9 11  1  0  0  0  0
 10  4  1  0  0  0  0
 12 15  1  0  0  0  0
 13  2  1  0  0  0  0
 14  1  1  0  0  0  0
 15  6  1  6  0  0  0
 15  3  1  0  0  0  0
 16 11  1  6  0  0  0
 16 10  1  0  0  0  0
 17 18  1  0  0  0  0
 17 19  1  0  0  0  0
 18 14  2  0  0  0  0
 19  8  1  6  0  0  0
 19  1  1  0  0  0  0
 21 22  1  0  0  0  0
 22 20  1  0  0  0  0
 23 24  1  0  0  0  0
 25 27  1  0  0  0  0
 25 26  1  0  0  0  0
 26 24  1  6  0  0  0
 26 30  1  0  0  0  0
 27 29  1  6  0  0  0
 27 28  1  0  0  0  0
 28 30  1  0  0  0  0
 28 32  1  0  0  0  0
 28 31  1  0  0  0  0
M  END
>  <MODEL>
1

>  <REMARK>
 VINA RESULT:      -9.3      0.000      0.000
  Name = 
  4 active torsions:
  status: ('A' for Active; 'I' for Inactive)
    1  A    between atoms: C_2  and  N_13
    2  A    between atoms: C_3  and  N_12
    3  A    between atoms: C_8  and  C_27
    4  A    between atoms: N_12  and  N_13
                            x       y       z     vdW  Elec       q    Type
                         _______ _______ _______ _____ _____    ______ ____

>  <TORSDO>
F 4

$$$$
=
 OpenBabel11062414113D

 32 35  0  0  1  0  0  0  0  0999 V2000
  186.5370  178.7080  141.8920 C   0  0  2  0  0  3  0  0  0  0  0  0
  191.9270  176.8940  146.9220 N   0  0  0  0  0  2  0  0  0  0  0  0
  189.5430  176.6430  142.3540 C   0  0  0  0  0  2  0  0  0  0  0  0
  186.2690  178.1370  145.6700 C   0  0  1  0  0  3  0  0  0  0  0  0
  189.7630  177.8210  145.9200 C   0  0  1  0  0  3  0  0  0  0  0  0
  191.2410  175.7290  143.7610 O   0  0  0  0  0  1  0  0  0  0  0  0
  190.5040  176.8920  146.8060 C   0  0  0  0  0  0  0  0  0  0  0  0
  186.2320  178.8900  144.3440 C   0  0  0  0  0  2  0  0  0  0  0  0
  189.7530  176.1170  147.5080 N   0  0  0  0  0  0  0  0  0  0  0  0
  187.4720  178.4180  146.3350 O   0  0  0  0  0  0  0  0  0  0  0  0
  188.3480  176.3580  147.2310 C   0  0  0  0  0  2  0  0  0  0  0  0
  190.2620  177.7900  144.4710 C   0  0  0  0  0  2  0  0  0  0  0  0
  192.6320  175.9710  147.7930 C   0  0  0  0  0  1  0  0  0  0  0  0
  187.8880  178.2610  141.5680 N   0  0  0  0  0  0  0  0  0  0  0  0
  190.0450  176.4440  143.7800 C   0  0  1  0  0  3  0  0  0  0  0  0
  188.3200  177.3390  146.0580 C   0  0  2  0  0  3  0  0  0  0  0  0
  187.2130  176.9810  143.2630 O   0  0  0  0  0  0  0  0  0  0  0  0
  188.2040  177.3010  142.3620 C   0  0  0  0  0  0  0  0  0  0  0  0
  186.1670  177.9300  143.1600 C   0  0  2  0  0  3  0  0  0  0  0  0
  185.4810  179.5370  147.4390 O   0  0  0  0  0  1  0  0  0  0  0  0
  184.0590  179.0580  145.7280 O   0  0  0  0  0  1  0  0  0  0  0  0
  185.0840  178.5540  146.5320 C   0  0  0  0  0  3  0  0  0  0  0  0
  185.6290  178.3380  140.8170 N   0  0  0  0  0  2  0  0  0  0  0  0
  185.0060  179.5160  140.3830 N   0  0  0  0  0  2  0  0  0  0  0  0
  183.1440  179.4020  138.8270 C   0  0  0  0  0  2  0  0  0  0  0  0
  183.5850  179.2290  140.2720 C   0  0  1  0  0  3  0  0  0  0  0  0
  182.9530  178.0060  138.2800 C   0  0  1  0  0  3  0  0  0  0  0  0
  182.5960  177.1450  139.4790 C   0  0  0  0  0  0  0  0  0  0  0  0
  181.8890  177.9870  137.1960 C   0  0  0  0  0  1  0  0  0  0  0  0
  183.3270  177.7750  140.6460 C   0  0  0  0  0  2  0  0  0  0  0  0
  183.0280  175.8460  139.2870 F   0  0  0  0  0  0  0  0  0  0  0  0
  181.2340  177.1600  139.7340 F   0  0  0  0  0  0  0  0  0  0  0  0
  1 23  1  6  0  0  0
  1 19  1  0  0  0  0
  2 13  1  0  0  0  0
  3 18  1  0  0  0  0
  3 15  1  0  0  0  0
  4 10  1  0  0  0  0
  4 22  1  1  0  0  0
  5 12  1  6  0  0  0
  5 16  1  0  0  0  0
  5  7  1  0  0  0  0
  7  2  1  0  0  0  0
  7  9  2  0  0  0  0
  8  4  1  0  0  0  0
 11  9  1  0  0  0  0
 14  1  1  0  0  0  0
 14 18  2  0  0  0  0
 15  6  1  6  0  0  0
 15 12  1  0  0  0  0
 16 10  1  0  0  0  0
 16 11  1  1  0  0  0
 18 17  1  0  0  0  0
 19 17  1  0  0  0  0
 19  8  1  1  0  0  0
 21 22  1  0  0  0  0
 22 20  1  0  0  0  0
 24 23  1  0  0  0  0
 25 26  1  0  0  0  0
 26 24  1  6  0  0  0
 26 30  1  0  0  0  0
 27 29  1  6  0  0  0
 27 25  1  0  0  0  0
 27 28  1  0  0  0  0
 28 32  1  0  0  0  0
 28 30  1  0  0  0  0
 31 28  1  0  0  0  0
M  END
>  <MODEL>
2

>  <REMARK>
 VINA RESULT:      -9.1      3.986      8.939
  Name = 
  4 active torsions:
  status: ('A' for Active; 'I' for Inactive)
    1  A    between atoms: C_2  and  N_13
    2  A    between atoms: C_3  and  N_12
    3  A    between atoms: C_8  and  C_27
    4  A    between atoms: N_12  and  N_13
                            x       y       z     vdW  Elec       q    Type
                         _______ _______ _______ _____ _____    ______ ____

>  <TORSDO>
F 4

$$$$
=
 OpenBabel11062414113D

 32 35  0  0  1  0  0  0  0  0999 V2000
  186.2740  178.7450  142.1690 C   0  0  2  0  0  3  0  0  0  0  0  0
  191.9990  176.7800  146.7530 N   0  0  0  0  0  2  0  0  0  0  0  0
  189.2520  176.5980  142.3910 C   0  0  0  0  0  2  0  0  0  0  0  0
  186.2950  178.1770  145.9570 C   0  0  1  0  0  3  0  0  0  0  0  0
  189.7870  177.7660  145.9270 C   0  0  1  0  0  3  0  0  0  0  0  0
  191.0310  175.6370  143.6590 O   0  0  0  0  0  1  0  0  0  0  0  0
  190.5720  176.8170  146.7520 C   0  0  0  0  0  0  0  0  0  0  0  0
  186.1720  178.9330  144.6370 C   0  0  0  0  0  2  0  0  0  0  0  0
  189.8590  176.0620  147.5130 N   0  0  0  0  0  0  0  0  0  0  0  0
  187.5550  178.4250  146.5230 O   0  0  0  0  0  0  0  0  0  0  0  0
  188.4430  176.3410  147.3480 C   0  0  0  0  0  2  0  0  0  0  0  0
  190.1680  177.7230  144.4420 C   0  0  0  0  0  2  0  0  0  0  0  0
  192.7470  175.8370  147.5670 C   0  0  0  0  0  1  0  0  0  0  0  0
  187.5830  178.2610  141.7390 N   0  0  0  0  0  0  0  0  0  0  0  0
  189.8600  176.3840  143.7730 C   0  0  1  0  0  3  0  0  0  0  0  0
  188.3480  177.3240  146.1810 C   0  0  2  0  0  3  0  0  0  0  0  0
  187.0110  176.9990  143.4830 O   0  0  0  0  0  0  0  0  0  0  0  0
  187.9350  177.2920  142.5060 C   0  0  0  0  0  0  0  0  0  0  0  0
  185.9870  177.9760  143.4630 C   0  0  2  0  0  3  0  0  0  0  0  0
  185.6300  179.7230  147.6530 O   0  0  0  0  0  1  0  0  0  0  0  0
  184.0520  178.9820  146.1920 O   0  0  0  0  0  1  0  0  0  0  0  0
  185.1950  178.6260  146.9100 C   0  0  0  0  0  3  0  0  0  0  0  0
  185.2740  178.4010  141.1710 N   0  0  0  0  0  2  0  0  0  0  0  0
  184.1540  177.9200  141.8620 N   0  0  0  0  0  2  0  0  0  0  0  0
  182.0960  178.6480  140.7960 C   0  0  0  0  0  2  0  0  0  0  0  0
  183.1540  178.9750  141.8380 C   0  0  1  0  0  3  0  0  0  0  0  0
  180.8750  178.2020  141.5670 C   0  0  1  0  0  3  0  0  0  0  0  0
  180.9640  178.9040  142.9110 C   0  0  0  0  0  0  0  0  0  0  0  0
  179.6020  178.5310  140.8070 C   0  0  0  0  0  1  0  0  0  0  0  0
  182.4470  179.0370  143.1870 C   0  0  0  0  0  2  0  0  0  0  0  0
  180.3590  178.1440  143.8940 F   0  0  0  0  0  0  0  0  0  0  0  0
  180.3950  180.1670  142.8680 F   0  0  0  0  0  0  0  0  0  0  0  0
  1 23  1  6  0  0  0
  1 19  1  0  0  0  0
  2 13  1  0  0  0  0
  3 18  1  0  0  0  0
  3 15  1  0  0  0  0
  4 10  1  0  0  0  0
  4 22  1  1  0  0  0
  5 12  1  6  0  0  0
  5 16  1  0  0  0  0
  5  7  1  0  0  0  0
  7  2  1  0  0  0  0
  7  9  2  0  0  0  0
  8  4  1  0  0  0  0
 11  9  1  0  0  0  0
 14  1  1  0  0  0  0
 14 18  2  0  0  0  0
 15  6  1  6  0  0  0
 15 12  1  0  0  0  0
 16 10  1  0  0  0  0
 16 11  1  1  0  0  0
 18 17  1  0  0  0  0
 19 17  1  0  0  0  0
 19  8  1  1  0  0  0
 21 22  1  0  0  0  0
 22 20  1  0  0  0  0
 23 24  1  0  0  0  0
 25 27  1  0  0  0  0
 25 26  1  0  0  0  0
 26 24  1  1  0  0  0
 26 30  1  0  0  0  0
 27 29  1  6  0  0  0
 27 28  1  0  0  0  0
 28 30  1  0  0  0  0
 28 31  1  0  0  0  0
 32 28  1  0  0  0  0
M  END
>  <MODEL>
3

>  <REMARK>
 VINA RESULT:      -9.0      3.834      8.683
  Name = 
  4 active torsions:
  status: ('A' for Active; 'I' for Inactive)
    1  A    between atoms: C_2  and  N_13
    2  A    between atoms: C_3  and  N_12
    3  A    between atoms: C_8  and  C_27
    4  A    between atoms: N_12  and  N_13
                            x       y       z     vdW  Elec       q    Type
                         _______ _______ _______ _____ _____    ______ ____

>  <TORSDO>
F 4

$$$$
=
 OpenBabel11062414113D

 32 35  0  0  1  0  0  0  0  0999 V2000
  186.8920  178.6770  141.5500 C   0  0  2  0  0  3  0  0  0  0  0  0
  191.8040  176.9930  147.0900 N   0  0  0  0  0  2  0  0  0  0  0  0
  189.8620  176.6500  142.3230 C   0  0  0  0  0  2  0  0  0  0  0  0
  186.2770  178.1580  145.2960 C   0  0  1  0  0  3  0  0  0  0  0  0
  189.7350  177.8820  145.8760 C   0  0  1  0  0  3  0  0  0  0  0  0
  191.4280  175.7750  143.8970 O   0  0  0  0  0  1  0  0  0  0  0  0
  190.3980  176.9740  146.8420 C   0  0  0  0  0  0  0  0  0  0  0  0
  186.3580  178.8910  143.9600 C   0  0  0  0  0  2  0  0  0  0  0  0
  189.5920  176.2020  147.4820 N   0  0  0  0  0  0  0  0  0  0  0  0
  187.4100  178.4610  146.0660 O   0  0  0  0  0  0  0  0  0  0  0  0
  188.2170  176.4230  147.0710 C   0  0  0  0  0  2  0  0  0  0  0  0
  190.3680  177.8360  144.4810 C   0  0  0  0  0  2  0  0  0  0  0  0
  192.4330  176.0890  148.0380 C   0  0  0  0  0  1  0  0  0  0  0  0
  188.2720  178.2390  141.3620 N   0  0  0  0  0  0  0  0  0  0  0  0
  190.2290  176.4770  143.7930 C   0  0  1  0  0  3  0  0  0  0  0  0
  188.2900  177.3870  145.8860 C   0  0  2  0  0  3  0  0  0  0  0  0
  187.4530  176.9770  143.0050 O   0  0  0  0  0  0  0  0  0  0  0  0
  188.5210  177.2940  142.1970 C   0  0  0  0  0  0  0  0  0  0  0  0
  186.4130  177.9130  142.7900 C   0  0  2  0  0  3  0  0  0  0  0  0
  185.3490  179.3280  147.1610 O   0  0  0  0  0  1  0  0  0  0  0  0
  184.1960  179.3380  145.2000 O   0  0  0  0  0  1  0  0  0  0  0  0
  185.0130  178.5750  146.0360 C   0  0  0  0  0  3  0  0  0  0  0  0
  186.0930  178.2820  140.4020 N   0  0  0  0  0  2  0  0  0  0  0  0
  186.8020  178.6680  139.2560 N   0  0  0  0  0  2  0  0  0  0  0  0
  186.0090  177.9530  137.0750 C   0  0  0  0  0  2  0  0  0  0  0  0
  186.7620  177.5460  138.3320 C   0  0  1  0  0  3  0  0  0  0  0  0
  187.0600  178.1430  136.0050 C   0  0  1  0  0  3  0  0  0  0  0  0
  188.2070  177.2290  136.3930 C   0  0  0  0  0  0  0  0  0  0  0  0
  186.4960  177.8380  134.6270 C   0  0  0  0  0  1  0  0  0  0  0  0
  188.1790  177.1850  137.9070 C   0  0  0  0  0  2  0  0  0  0  0  0
  189.4100  177.7460  135.9500 F   0  0  0  0  0  0  0  0  0  0  0  0
  188.0310  175.9460  135.8990 F   0  0  0  0  0  0  0  0  0  0  0  0
  1 23  1  6  0  0  0
  1 19  1  0  0  0  0
  2 13  1  0  0  0  0
  3 15  1  0  0  0  0
  4 22  1  1  0  0  0
  4 10  1  0  0  0  0
  5 12  1  6  0  0  0
  5 16  1  0  0  0  0
  5  7  1  0  0  0  0
  7  2  1  0  0  0  0
  7  9  2  0  0  0  0
  8  4  1  0  0  0  0
 11  9  1  0  0  0  0
 14  1  1  0  0  0  0
 14 18  2  0  0  0  0
 15  6  1  6  0  0  0
 15 12  1  0  0  0  0
 16 10  1  0  0  0  0
 16 11  1  1  0  0  0
 18  3  1  0  0  0  0
 18 17  1  0  0  0  0
 19 17  1  0  0  0  0
 19  8  1  1  0  0  0
 21 22  1  0  0  0  0
 22 20  1  0  0  0  0
 24 23  1  0  0  0  0
 25 26  1  0  0  0  0
 26 24  1  1  0  0  0
 27 29  1  6  0  0  0
 27 28  1  0  0  0  0
 27 25  1  0  0  0  0
 28 30  1  0  0  0  0
 30 26  1  0  0  0  0
 31 28  1  0  0  0  0
 32 28  1  0  0  0  0
M  END
>  <MODEL>
4

>  <REMARK>
 VINA RESULT:      -8.5      4.752      9.211
  Name = 
  4 active torsions:
  status: ('A' for Active; 'I' for Inactive)
    1  A    between atoms: C_2  and  N_13
    2  A    between atoms: C_3  and  N_12
    3  A    between atoms: C_8  and  C_27
    4  A    between atoms: N_12  and  N_13
                            x       y       z     vdW  Elec       q    Type
                         _______ _______ _______ _____ _____    ______ ____

>  <TORSDO>
F 4

$$$$
=
 OpenBabel11062414113D

 32 35  0  0  1  0  0  0  0  0999 V2000
  184.6490  178.2330  144.4780 C   0  0  2  0  0  3  0  0  0  0  0  0
  181.8170  178.0640  137.4350 N   0  0  0  0  0  2  0  0  0  0  0  0
  185.4520  179.0030  140.9730 C   0  0  0  0  0  2  0  0  0  0  0  0
  181.1140  179.0350  143.2390 C   0  0  1  0  0  3  0  0  0  0  0  0
  181.9640  177.9950  139.9890 C   0  0  1  0  0  3  0  0  0  0  0  0
  184.7850  179.2580  138.6960 O   0  0  0  0  0  1  0  0  0  0  0  0
  181.5060  178.6070  138.7190 C   0  0  0  0  0  0  0  0  0  0  0  0
  182.2230  178.2940  143.9810 C   0  0  0  0  0  2  0  0  0  0  0  0
  180.7560  179.6420  138.8700 N   0  0  0  0  0  0  0  0  0  0  0  0
  180.7970  178.3430  142.0600 O   0  0  0  0  0  0  0  0  0  0  0  0
  180.5610  179.9470  140.2760 C   0  0  0  0  0  2  0  0  0  0  0  0
  183.4790  177.7650  140.0300 C   0  0  0  0  0  2  0  0  0  0  0  0
  181.3620  178.6840  136.2030 C   0  0  0  0  0  1  0  0  0  0  0  0
  185.4280  178.1110  143.2490 N   0  0  0  0  0  0  0  0  0  0  0  0
  184.2930  179.0590  139.9840 C   0  0  1  0  0  3  0  0  0  0  0  0
  181.4900  179.0000  141.0370 C   0  0  2  0  0  3  0  0  0  0  0  0
  183.8520  179.6280  142.8230 O   0  0  0  0  0  0  0  0  0  0  0  0
  184.9370  178.9120  142.3710 C   0  0  0  0  0  0  0  0  0  0  0  0
  183.4790  179.1500  144.1030 C   0  0  2  0  0  3  0  0  0  0  0  0
  178.9310  179.9620  143.5240 O   0  0  0  0  0  1  0  0  0  0  0  0
  179.3320  177.8790  144.3460 O   0  0  0  0  0  1  0  0  0  0  0  0
  179.8840  179.1440  144.1300 C   0  0  0  0  0  3  0  0  0  0  0  0
  185.4550  178.8740  145.5050 N   0  0  0  0  0  2  0  0  0  0  0  0
  186.7950  178.7440  145.1170 N   0  0  0  0  0  2  0  0  0  0  0  0
  188.6850  177.2210  145.2020 C   0  0  0  0  0  2  0  0  0  0  0  0
  187.3130  177.5520  145.7680 C   0  0  1  0  0  3  0  0  0  0  0  0
  189.6820  177.6210  146.2660 C   0  0  1  0  0  3  0  0  0  0  0  0
  188.9400  177.4990  147.5850 C   0  0  0  0  0  0  0  0  0  0  0  0
  190.9260  176.7530  146.2000 C   0  0  0  0  0  1  0  0  0  0  0  0
  187.4980  177.8230  147.2560 C   0  0  0  0  0  2  0  0  0  0  0  0
  189.4380  178.4020  148.5050 F   0  0  0  0  0  0  0  0  0  0  0  0
  189.0120  176.2130  148.0960 F   0  0  0  0  0  0  0  0  0  0  0  0
  1 23  1  1  0  0  0
  2  7  1  0  0  0  0
  3 18  1  0  0  0  0
  4  8  1  0  0  0  0
  4 22  1  1  0  0  0
  5 12  1  6  0  0  0
  5 16  1  0  0  0  0
  7  9  2  0  0  0  0
  7  5  1  0  0  0  0
  9 11  1  0  0  0  0
 10  4  1  0  0  0  0
 13  2  1  0  0  0  0
 14  1  1  0  0  0  0
 15  6  1  6  0  0  0
 15 12  1  0  0  0  0
 15  3  1  0  0  0  0
 16 11  1  6  0  0  0
 16 10  1  0  0  0  0
 17 19  1  0  0  0  0
 18 17  1  0  0  0  0
 18 14  2  0  0  0  0
 19  8  1  6  0  0  0
 19  1  1  0  0  0  0
 20 22  1  0  0  0  0
 22 21  1  0  0  0  0
 24 23  1  0  0  0  0
 25 26  1  0  0  0  0
 25 27  1  0  0  0  0
 26 24  1  6  0  0  0
 26 30  1  0  0  0  0
 27 29  1  1  0  0  0
 27 28  1  0  0  0  0
 28 32  1  0  0  0  0
 28 31  1  0  0  0  0
 30 28  1  0  0  0  0
M  END
>  <MODEL>
5

>  <REMARK>
 VINA RESULT:      -8.4      1.572      3.829
  Name = 
  4 active torsions:
  status: ('A' for Active; 'I' for Inactive)
    1  A    between atoms: C_2  and  N_13
    2  A    between atoms: C_3  and  N_12
    3  A    between atoms: C_8  and  C_27
    4  A    between atoms: N_12  and  N_13
                            x       y       z     vdW  Elec       q    Type
                         _______ _______ _______ _____ _____    ______ ____

>  <TORSDO>
F 4

$$$$
=
 OpenBabel11062414113D

 32 35  0  0  1  0  0  0  0  0999 V2000
  184.4550  178.3950  140.9680 C   0  0  2  0  0  3  0  0  0  0  0  0
  189.2120  176.7480  146.6530 N   0  0  0  0  0  2  0  0  0  0  0  0
  184.9810  178.8490  144.5790 C   0  0  0  0  0  2  0  0  0  0  0  0
  188.2850  178.3030  141.0090 C   0  0  1  0  0  3  0  0  0  0  0  0
  188.2690  177.0420  144.2920 C   0  0  1  0  0  3  0  0  0  0  0  0
  186.3620  178.6660  146.5170 O   0  0  0  0  0  1  0  0  0  0  0  0
  189.2260  177.3800  145.3720 C   0  0  0  0  0  0  0  0  0  0  0  0
  186.8610  177.9030  140.6360 C   0  0  0  0  0  2  0  0  0  0  0  0
  190.1110  178.2540  145.0410 N   0  0  0  0  0  0  0  0  0  0  0  0
  188.7830  177.4150  141.9750 O   0  0  0  0  0  0  0  0  0  0  0  0
  189.9250  178.6940  143.6690 C   0  0  0  0  0  2  0  0  0  0  0  0
  186.8060  177.1290  144.7420 C   0  0  0  0  0  2  0  0  0  0  0  0
  190.1580  177.0990  147.6970 C   0  0  0  0  0  1  0  0  0  0  0  0
  184.0910  178.2740  142.3770 N   0  0  0  0  0  0  0  0  0  0  0  0
  186.3700  178.5420  145.1290 C   0  0  1  0  0  3  0  0  0  0  0  0
  188.6140  178.0590  143.2060 C   0  0  2  0  0  3  0  0  0  0  0  0
  186.0270  179.3750  142.3420 O   0  0  0  0  0  0  0  0  0  0  0  0
  185.0010  178.8380  143.0860 C   0  0  0  0  0  0  0  0  0  0  0  0
  185.8630  179.0020  140.9860 C   0  0  2  0  0  3  0  0  0  0  0  0
  189.5080  176.9630  139.4550 O   0  0  0  0  0  1  0  0  0  0  0  0
  188.4940  178.8490  138.6870 O   0  0  0  0  0  1  0  0  0  0  0  0
  189.1680  178.2780  139.7690 C   0  0  0  0  0  3  0  0  0  0  0  0
  183.5430  179.3120  140.3040 N   0  0  0  0  0  2  0  0  0  0  0  0
  182.2520  178.7890  140.4570 N   0  0  0  0  0  2  0  0  0  0  0  0
  180.2170  179.8800  139.7040 C   0  0  0  0  0  2  0  0  0  0  0  0
  181.4940  179.1750  139.2770 C   0  0  1  0  0  3  0  0  0  0  0  0
  180.4370  181.3480  139.4210 C   0  0  1  0  0  3  0  0  0  0  0  0
  181.4300  181.3970  138.2730 C   0  0  0  0  0  0  0  0  0  0  0  0
  179.1250  182.0450  139.1030 C   0  0  0  0  0  1  0  0  0  0  0  0
  182.3010  180.1720  138.4560 C   0  0  0  0  0  2  0  0  0  0  0  0
  182.1950  182.5450  138.3430 F   0  0  0  0  0  0  0  0  0  0  0  0
  180.7950  181.3230  137.0430 F   0  0  0  0  0  0  0  0  0  0  0  0
  1 23  1  6  0  0  0
  1 19  1  0  0  0  0
  1 14  1  0  0  0  0
  2 13  1  0  0  0  0
  3 15  1  0  0  0  0
  4 22  1  6  0  0  0
  4 10  1  0  0  0  0
  5 12  1  1  0  0  0
  5  7  1  0  0  0  0
  7  2  1  0  0  0  0
  8  4  1  0  0  0  0
  9  7  2  0  0  0  0
 10 16  1  0  0  0  0
 11  9  1  0  0  0  0
 12 15  1  0  0  0  0
 14 18  2  0  0  0  0
 15  6  1  1  0  0  0
 16 11  1  1  0  0  0
 16  5  1  0  0  0  0
 17 18  1  0  0  0  0
 18  3  1  0  0  0  0
 19  8  1  1  0  0  0
 19 17  1  0  0  0  0
 20 22  1  0  0  0  0
 21 22  1  0  0  0  0
 23 24  1  0  0  0  0
 26 25  1  0  0  0  0
 26 24  1  1  0  0  0
 27 29  1  6  0  0  0
 27 25  1  0  0  0  0
 28 31  1  0  0  0  0
 28 30  1  0  0  0  0
 28 27  1  0  0  0  0
 30 26  1  0  0  0  0
 32 28  1  0  0  0  0
M  END
>  <MODEL>
6

>  <REMARK>
 VINA RESULT:      -8.2      4.078      8.269
  Name = 
  4 active torsions:
  status: ('A' for Active; 'I' for Inactive)
    1  A    between atoms: C_2  and  N_13
    2  A    between atoms: C_3  and  N_12
    3  A    between atoms: C_8  and  C_27
    4  A    between atoms: N_12  and  N_13
                            x       y       z     vdW  Elec       q    Type
                         _______ _______ _______ _____ _____    ______ ____

>  <TORSDO>
F 4

$$$$
=
 OpenBabel11062414113D

 32 35  0  0  1  0  0  0  0  0999 V2000
  188.6010  177.4630  141.8250 C   0  0  2  0  0  3  0  0  0  0  0  0
  182.9690  177.5790  136.7340 N   0  0  0  0  0  2  0  0  0  0  0  0
  187.8840  177.9640  138.2540 C   0  0  0  0  0  2  0  0  0  0  0  0
  185.0420  178.8460  142.1390 C   0  0  1  0  0  3  0  0  0  0  0  0
  184.2120  177.5670  138.9700 C   0  0  1  0  0  3  0  0  0  0  0  0
  186.3290  178.2610  136.4670 O   0  0  0  0  0  1  0  0  0  0  0  0
  183.3390  178.2100  137.9600 C   0  0  0  0  0  0  0  0  0  0  0  0
  186.2410  177.9420  142.4100 C   0  0  0  0  0  2  0  0  0  0  0  0
  182.8920  179.3670  138.3060 N   0  0  0  0  0  0  0  0  0  0  0  0
  184.1410  178.1850  141.2910 O   0  0  0  0  0  0  0  0  0  0  0  0
  183.3830  179.7470  139.6180 C   0  0  0  0  0  2  0  0  0  0  0  0
  185.5390  177.0710  138.3840 C   0  0  0  0  0  2  0  0  0  0  0  0
  182.1160  178.2310  135.7560 C   0  0  0  0  0  1  0  0  0  0  0  0
  188.7320  177.1650  140.4020 N   0  0  0  0  0  0  0  0  0  0  0  0
  186.4300  178.1950  137.8560 C   0  0  1  0  0  3  0  0  0  0  0  0
  184.4010  178.6740  140.0060 C   0  0  2  0  0  3  0  0  0  0  0  0
  187.3720  178.9250  140.5310 O   0  0  0  0  0  0  0  0  0  0  0  0
  188.0290  178.0120  139.7380 C   0  0  0  0  0  0  0  0  0  0  0  0
  187.5350  178.5630  141.8910 C   0  0  2  0  0  3  0  0  0  0  0  0
  183.0200  178.8170  143.4130 O   0  0  0  0  0  1  0  0  0  0  0  0
  184.9930  178.5530  144.5160 O   0  0  0  0  0  1  0  0  0  0  0  0
  184.3600  179.2030  143.4540 C   0  0  0  0  0  3  0  0  0  0  0  0
  189.8610  177.9820  142.3340 N   0  0  0  0  0  2  0  0  0  0  0  0
  189.6170  178.4480  143.6330 N   0  0  0  0  0  2  0  0  0  0  0  0
  190.7830  176.7540  144.9250 C   0  0  0  0  0  2  0  0  0  0  0  0
  189.4280  177.2790  144.4760 C   0  0  1  0  0  3  0  0  0  0  0  0
  190.9230  177.1510  146.3770 C   0  0  1  0  0  3  0  0  0  0  0  0
  189.5050  177.2370  146.9140 C   0  0  0  0  0  0  0  0  0  0  0  0
  191.7860  176.1560  147.1330 C   0  0  0  0  0  1  0  0  0  0  0  0
  188.6640  177.6750  145.7340 C   0  0  0  0  0  2  0  0  0  0  0  0
  189.4290  178.1700  147.9310 F   0  0  0  0  0  0  0  0  0  0  0  0
  189.0520  176.0070  147.3640 F   0  0  0  0  0  0  0  0  0  0  0  0
  1 19  1  0  0  0  0
  1 23  1  6  0  0  0
  2  7  1  0  0  0  0
  3 18  1  0  0  0  0
  4  8  1  0  0  0  0
  4 22  1  1  0  0  0
  5 12  1  6  0  0  0
  5 16  1  0  0  0  0
  7  9  2  0  0  0  0
  7  5  1  0  0  0  0
  9 11  1  0  0  0  0
 10  4  1  0  0  0  0
 13  2  1  0  0  0  0
 14  1  1  0  0  0  0
 15  6  1  6  0  0  0
 15  3  1  0  0  0  0
 15 12  1  0  0  0  0
 16 11  1  6  0  0  0
 16 10  1  0  0  0  0
 17 19  1  0  0  0  0
 18 14  2  0  0  0  0
 18 17  1  0  0  0  0
 19  8  1  6  0  0  0
 20 22  1  0  0  0  0
 22 21  1  0  0  0  0
 23 24  1  0  0  0  0
 25 27  1  0  0  0  0
 26 24  1  6  0  0  0
 26 25  1  0  0  0  0
 26 30  1  0  0  0  0
 27 28  1  0  0  0  0
 27 29  1  1  0  0  0
 28 32  1  0  0  0  0
 28 31  1  0  0  0  0
 30 28  1  0  0  0  0
M  END
>  <MODEL>
7

>  <REMARK>
 VINA RESULT:      -8.1      2.328      4.170
  Name = 
  4 active torsions:
  status: ('A' for Active; 'I' for Inactive)
    1  A    between atoms: C_2  and  N_13
    2  A    between atoms: C_3  and  N_12
    3  A    between atoms: C_8  and  C_27
    4  A    between atoms: N_12  and  N_13
                            x       y       z     vdW  Elec       q    Type
                         _______ _______ _______ _____ _____    ______ ____

>  <TORSDO>
F 4

$$$$
=
 OpenBabel11062414113D

 32 35  0  0  1  0  0  0  0  0999 V2000
  190.8510  177.5030  140.2850 C   0  0  2  0  0  3  0  0  0  0  0  0
  188.9050  178.2530  147.5860 N   0  0  0  0  0  2  0  0  0  0  0  0
  191.6300  176.2920  143.6690 C   0  0  0  0  0  2  0  0  0  0  0  0
  187.3890  177.9410  141.8650 C   0  0  1  0  0  3  0  0  0  0  0  0
  188.8400  178.4160  145.0330 C   0  0  1  0  0  3  0  0  0  0  0  0
  191.1200  176.1570  145.9970 O   0  0  0  0  0  1  0  0  0  0  0  0
  188.3070  177.9320  146.3290 C   0  0  0  0  0  0  0  0  0  0  0  0
  188.6200  178.2810  141.0300 C   0  0  0  0  0  2  0  0  0  0  0  0
  187.2240  177.2430  146.2330 N   0  0  0  0  0  0  0  0  0  0  0  0
  187.4470  178.6280  143.0870 O   0  0  0  0  0  0  0  0  0  0  0  0
  186.8090  177.1110  144.8480 C   0  0  0  0  0  2  0  0  0  0  0  0
  190.3260  178.0930  144.8400 C   0  0  0  0  0  2  0  0  0  0  0  0
  188.3680  177.7630  148.8440 C   0  0  0  0  0  1  0  0  0  0  0  0
  191.7270  177.2660  141.4290 N   0  0  0  0  0  0  0  0  0  0  0  0
  190.6200  176.5940  144.7710 C   0  0  1  0  0  3  0  0  0  0  0  0
  187.9450  177.7090  144.0170 C   0  0  2  0  0  3  0  0  0  0  0  0
  189.7550  176.3880  141.9810 O   0  0  0  0  0  0  0  0  0  0  0  0
  191.0600  176.6430  142.3340 C   0  0  0  0  0  0  0  0  0  0  0  0
  189.4680  177.0420  140.7580 C   0  0  2  0  0  3  0  0  0  0  0  0
  185.5400  179.4450  141.6990 O   0  0  0  0  0  1  0  0  0  0  0  0
  186.4410  178.6280  139.7760 O   0  0  0  0  0  1  0  0  0  0  0  0
  186.1280  178.3290  141.1040 C   0  0  0  0  0  3  0  0  0  0  0  0
  191.2780  176.6790  139.1650 N   0  0  0  0  0  2  0  0  0  0  0  0
  190.2420  175.7720  138.9050 N   0  0  0  0  0  2  0  0  0  0  0  0
  188.3380  175.8970  137.4010 C   0  0  0  0  0  2  0  0  0  0  0  0
  189.8540  175.9560  137.5160 C   0  0  1  0  0  3  0  0  0  0  0  0
  187.8810  177.3220  137.1900 C   0  0  1  0  0  3  0  0  0  0  0  0
  189.0430  178.0260  136.5110 C   0  0  0  0  0  0  0  0  0  0  0  0
  186.6000  177.3680  136.3750 C   0  0  0  0  0  1  0  0  0  0  0  0
  190.2830  177.3400  137.0450 C   0  0  0  0  0  2  0  0  0  0  0  0
  189.0560  179.3670  136.8430 F   0  0  0  0  0  0  0  0  0  0  0  0
  188.9990  177.8780  135.1340 F   0  0  0  0  0  0  0  0  0  0  0  0
  1 23  1  6  0  0  0
  1 19  1  0  0  0  0
  1 14  1  0  0  0  0
  2 13  1  0  0  0  0
  3 15  1  0  0  0  0
  4 22  1  6  0  0  0
  4 10  1  0  0  0  0
  5 12  1  6  0  0  0
  5  7  1  0  0  0  0
  7  2  1  0  0  0  0
  8  4  1  0  0  0  0
  9  7  2  0  0  0  0
 10 16  1  0  0  0  0
 11  9  1  0  0  0  0
 14 18  2  0  0  0  0
 15 12  1  0  0  0  0
 15  6  1  1  0  0  0
 16 11  1  1  0  0  0
 16  5  1  0  0  0  0
 17 18  1  0  0  0  0
 18  3  1  0  0  0  0
 19  8  1  1  0  0  0
 19 17  1  0  0  0  0
 21 22  1  0  0  0  0
 22 20  1  0  0  0  0
 24 23  1  0  0  0  0
 25 26  1  0  0  0  0
 26 24  1  1  0  0  0
 27 29  1  6  0  0  0
 27 25  1  0  0  0  0
 28 31  1  0  0  0  0
 28 30  1  0  0  0  0
 28 27  1  0  0  0  0
 30 26  1  0  0  0  0
 32 28  1  0  0  0  0
M  END
>  <MODEL>
8

>  <REMARK>
 VINA RESULT:      -8.1      4.756      9.052
  Name = 
  4 active torsions:
  status: ('A' for Active; 'I' for Inactive)
    1  A    between atoms: C_2  and  N_13
    2  A    between atoms: C_3  and  N_12
    3  A    between atoms: C_8  and  C_27
    4  A    between atoms: N_12  and  N_13
                            x       y       z     vdW  Elec       q    Type
                         _______ _______ _______ _____ _____    ______ ____

>  <TORSDO>
F 4

$$$$
=
 OpenBabel11062414113D

 32 35  0  0  1  0  0  0  0  0999 V2000
  185.2630  179.0970  144.9940 C   0  0  2  0  0  3  0  0  0  0  0  0
  191.7140  177.9790  141.1490 N   0  0  0  0  0  2  0  0  0  0  0  0
  186.5890  178.2740  141.6650 C   0  0  0  0  0  2  0  0  0  0  0  0
  188.4860  177.3340  146.0780 C   0  0  1  0  0  3  0  0  0  0  0  0
  190.0720  178.2880  143.0880 C   0  0  1  0  0  3  0  0  0  0  0  0
  188.4110  177.6760  140.2430 O   0  0  0  0  0  1  0  0  0  0  0  0
  191.0360  177.4800  142.3030 C   0  0  0  0  0  0  0  0  0  0  0  0
  187.3830  178.3870  146.0620 C   0  0  0  0  0  2  0  0  0  0  0  0
  191.2550  176.3050  142.7810 N   0  0  0  0  0  0  0  0  0  0  0  0
  189.6120  177.8250  145.4000 O   0  0  0  0  0  0  0  0  0  0  0  0
  190.4740  176.0750  143.9830 C   0  0  0  0  0  2  0  0  0  0  0  0
  188.9590  178.8940  142.2250 C   0  0  0  0  0  2  0  0  0  0  0  0
  192.6500  177.1670  140.3920 C   0  0  0  0  0  1  0  0  0  0  0  0
  185.4490  179.3110  143.5620 N   0  0  0  0  0  0  0  0  0  0  0  0
  188.0510  177.8480  141.5780 C   0  0  1  0  0  3  0  0  0  0  0  0
  189.5460  177.2840  144.1110 C   0  0  2  0  0  3  0  0  0  0  0  0
  186.5220  177.4170  144.0390 O   0  0  0  0  0  0  0  0  0  0  0  0
  186.1540  178.3450  143.0910 C   0  0  0  0  0  0  0  0  0  0  0  0
  186.1470  177.8870  145.3210 C   0  0  2  0  0  3  0  0  0  0  0  0
  190.2360  176.9180  147.6520 O   0  0  0  0  0  1  0  0  0  0  0  0
  188.3540  177.9670  148.3840 O   0  0  0  0  0  1  0  0  0  0  0  0
  188.8490  176.9900  147.5170 C   0  0  0  0  0  3  0  0  0  0  0  0
  183.8730  178.7650  145.2620 N   0  0  0  0  0  2  0  0  0  0  0  0
  183.0940  179.4930  144.3520 N   0  0  0  0  0  2  0  0  0  0  0  0
  180.8130  178.9010  143.7640 C   0  0  0  0  0  2  0  0  0  0  0  0
  182.2820  178.5330  143.6230 C   0  0  1  0  0  3  0  0  0  0  0  0
  180.4030  179.4940  142.4350 C   0  0  1  0  0  3  0  0  0  0  0  0
  181.3180  178.8560  141.4050 C   0  0  0  0  0  0  0  0  0  0  0  0
  178.9310  179.2440  142.1590 C   0  0  0  0  0  1  0  0  0  0  0  0
  182.6190  178.6030  142.1380 C   0  0  0  0  0  2  0  0  0  0  0  0
  181.5250  179.7170  140.3440 F   0  0  0  0  0  0  0  0  0  0  0  0
  180.8130  177.6500  140.9470 F   0  0  0  0  0  0  0  0  0  0  0  0
  1 23  1  6  0  0  0
  1 19  1  0  0  0  0
  2  7  1  0  0  0  0
  3 18  1  0  0  0  0
  4 22  1  1  0  0  0
  5 12  1  6  0  0  0
  5 16  1  0  0  0  0
  7  9  2  0  0  0  0
  7  5  1  0  0  0  0
  8  4  1  0  0  0  0
  9 11  1  0  0  0  0
 10  4  1  0  0  0  0
 13  2  1  0  0  0  0
 14  1  1  0  0  0  0
 15  6  1  6  0  0  0
 15  3  1  0  0  0  0
 15 12  1  0  0  0  0
 16 11  1  1  0  0  0
 16 10  1  0  0  0  0
 17 19  1  0  0  0  0
 18 14  2  0  0  0  0
 18 17  1  0  0  0  0
 19  8  1  1  0  0  0
 22 20  1  0  0  0  0
 22 21  1  0  0  0  0
 24 23  1  0  0  0  0
 26 25  1  0  0  0  0
 26 24  1  1  0  0  0
 27 29  1  6  0  0  0
 27 25  1  0  0  0  0
 28 30  1  0  0  0  0
 28 27  1  0  0  0  0
 30 26  1  0  0  0  0
 31 28  1  0  0  0  0
 32 28  1  0  0  0  0
M  END
>  <MODEL>
9

>  <REMARK>
 VINA RESULT:      -7.8      4.134      7.645
  Name = 
  4 active torsions:
  status: ('A' for Active; 'I' for Inactive)
    1  A    between atoms: C_2  and  N_13
    2  A    between atoms: C_3  and  N_12
    3  A    between atoms: C_8  and  C_27
    4  A    between atoms: N_12  and  N_13
                            x       y       z     vdW  Elec       q    Type
                         _______ _______ _______ _____ _____    ______ ____

>  <TORSDO>
F 4

$$$$
