=
 OpenBabel11062414593D

 31 34  0  0  1  0  0  0  0  0999 V2000
  189.9140  176.7550  139.3280 C   0  0  0  0  0  2  0  0  0  0  0  0
  189.0990  178.0410  139.2390 C   0  0  2  0  0  3  0  0  0  0  0  0
  184.0480  178.8410  140.4050 C   0  0  0  0  0  3  0  0  0  0  0  0
  188.6140  178.6620  140.5830 C   0  0  1  0  0  3  0  0  0  0  0  0
  186.7600  178.2120  139.1360 C   0  0  0  0  0  0  0  0  0  0  0  0
  184.5070  179.2420  139.0410 C   0  0  0  0  0  2  0  0  0  0  0  0
  185.6030  178.3850  138.5000 C   0  0  0  0  0  3  0  0  0  0  0  0
  186.2940  178.9720  141.4710 C   0  0  0  0  0  3  0  0  0  0  0  0
  187.9550  176.3610  137.9270 C   0  0  2  0  0  3  0  0  0  0  0  0
  187.1190  178.7430  140.4400 C   0  0  0  0  0  0  0  0  0  0  0  0
  187.9080  177.6960  138.4870 N   0  0  0  0  0  0  0  0  0  0  0  0
  184.8250  178.7820  141.4940 C   0  0  0  0  0  0  0  0  0  0  0  0
  189.3410  175.8220  138.2680 C   0  0  0  0  0  2  0  0  0  0  0  0
  190.4550  178.7310  143.7050 C   0  0  0  0  0  3  0  0  0  0  0  0
  188.2360  177.0470  142.4300 C   0  0  0  0  0  3  0  0  0  0  0  0
  189.9640  178.0810  144.7600 C   0  0  0  0  0  3  0  0  0  0  0  0
  189.0490  177.9310  141.8330 C   0  0  0  0  0  0  0  0  0  0  0  0
  188.5150  176.3330  143.6920 C   0  0  0  0  0  3  0  0  0  0  0  0
  190.4390  178.1700  142.3230 C   0  0  0  0  0  2  0  0  0  0  0  0
  189.2620  176.7840  144.7050 C   0  0  0  0  0  3  0  0  0  0  0  0
  182.9390  178.5220  142.9210 O   0  0  0  0  0  0  0  0  0  0  0  0
  184.1950  178.4870  142.7980 C   0  0  0  0  0  0  0  0  0  0  0  0
  185.0110  178.1570  143.9250 N   0  0  0  0  0  0  0  0  0  0  0  0
  185.0330  178.8910  144.9610 N   0  0  0  0  0  2  0  0  0  0  0  0
  187.6720  176.3940  136.4190 C   0  0  1  0  0  3  0  0  0  0  0  0
  188.9000  176.4790  135.5580 C   0  0  0  0  0  0  0  0  0  0  0  0
  189.4730  177.5820  135.3580 O   0  0  0  0  0  1  0  0  0  0  0  0
  189.3940  175.3280  134.9590 O   0  0  0  0  0  0  0  0  0  0  0  0
  186.7260  175.3190  135.9820 C   0  0  0  0  0  0  0  0  0  0  0  0
  186.5290  174.1530  136.7760 N   0  0  0  0  0  1  0  0  0  0  0  0
  186.0950  175.4500  134.9020 O   0  0  0  0  0  0  0  0  0  0  0  0
  2  1  1  1  0  0  0
  2  4  1  0  0  0  0
  3 12  2  0  0  0  0
  4 17  1  1  0  0  0
  5 10  1  0  0  0  0
  6  3  1  0  0  0  0
  7  6  1  0  0  0  0
  7  5  2  0  0  0  0
  8 12  1  0  0  0  0
  9 25  1  6  0  0  0
  9 13  1  0  0  0  0
  9 11  1  0  0  0  0
 10  4  1  0  0  0  0
 10  8  2  0  0  0  0
 11  5  1  0  0  0  0
 11  2  1  0  0  0  0
 12 22  1  0  0  0  0
 13  1  1  0  0  0  0
 14 16  2  0  0  0  0
 15 18  1  0  0  0  0
 17 19  1  0  0  0  0
 17 15  2  0  0  0  0
 18 20  2  0  0  0  0
 19 14  1  0  0  0  0
 20 16  1  0  0  0  0
 22 21  2  0  0  0  0
 22 23  1  0  0  0  0
 23 24  2  0  0  0  0
 25 26  1  6  0  0  0
 27 26  1  0  0  0  0
 28 26  2  0  0  0  0
 29 25  1  0  0  0  0
 29 30  1  0  0  0  0
 31 29  2  0  0  0  0
M  END
>  <MODEL>
1

>  <REMARK>
 VINA RESULT:      -7.0      0.000      0.000
  Name = 
  6 active torsions:
  status: ('A' for Active; 'I' for Inactive)
    1  A    between atoms: C_1  and  C_23
    2  A    between atoms: C_2  and  C_23
    3  A    between atoms: N_4  and  C_26
    4  A    between atoms: C_10  and  C_22
    5  A    between atoms: C_18  and  C_23
    6  A    between atoms: C_25  and  C_26
                            x       y       z     vdW  Elec       q    Type
                         _______ _______ _______ _____ _____    ______ ____

>  <TORSDO>
F 6

$$$$
=
 OpenBabel11062414593D

 31 34  0  0  1  0  0  0  0  0999 V2000
  191.4720  177.0060  143.2620 C   0  0  0  0  0  2  0  0  0  0  0  0
  190.1800  176.2680  143.5970 C   0  0  2  0  0  3  0  0  0  0  0  0
  185.4210  178.2250  144.6100 C   0  0  0  0  0  3  0  0  0  0  0  0
  189.0350  176.3370  142.5430 C   0  0  1  0  0  3  0  0  0  0  0  0
  188.2900  177.1660  144.6610 C   0  0  0  0  0  0  0  0  0  0  0  0
  186.0090  177.3000  145.6240 C   0  0  0  0  0  2  0  0  0  0  0  0
  187.4980  177.3730  145.7110 C   0  0  0  0  0  3  0  0  0  0  0  0
  186.7660  177.3810  142.6930 C   0  0  0  0  0  3  0  0  0  0  0  0
  190.5990  177.8490  145.3790 C   0  0  2  0  0  3  0  0  0  0  0  0
  187.8670  176.9130  143.2950 C   0  0  0  0  0  0  0  0  0  0  0  0
  189.6730  176.8970  144.8010 N   0  0  0  0  0  0  0  0  0  0  0  0
  185.7080  178.2210  143.3020 C   0  0  0  0  0  0  0  0  0  0  0  0
  191.8610  177.7640  144.5250 C   0  0  0  0  0  2  0  0  0  0  0  0
  190.3130  176.2720  139.1510 C   0  0  0  0  0  3  0  0  0  0  0  0
  188.5920  178.1250  140.8800 C   0  0  0  0  0  3  0  0  0  0  0  0
  189.7520  177.0610  138.2330 C   0  0  0  0  0  3  0  0  0  0  0  0
  189.3590  177.1000  141.2780 C   0  0  0  0  0  0  0  0  0  0  0  0
  188.7590  178.8940  139.6310 C   0  0  0  0  0  3  0  0  0  0  0  0
  190.6030  176.7220  140.5430 C   0  0  0  0  0  2  0  0  0  0  0  0
  189.2590  178.4300  138.4800 C   0  0  0  0  0  3  0  0  0  0  0  0
  183.7600  179.4410  142.6870 O   0  0  0  0  0  0  0  0  0  0  0  0
  184.9490  179.1180  142.4070 C   0  0  0  0  0  0  0  0  0  0  0  0
  185.5620  179.6270  141.2190 N   0  0  0  0  0  0  0  0  0  0  0  0
  185.0480  179.4280  140.0750 N   0  0  0  0  0  2  0  0  0  0  0  0
  190.8480  177.5340  146.8610 C   0  0  1  0  0  3  0  0  0  0  0  0
  189.6010  177.4120  147.6880 C   0  0  0  0  0  0  0  0  0  0  0  0
  189.0710  176.2890  147.8960 O   0  0  0  0  0  0  0  0  0  0  0  0
  189.0140  178.5560  148.2110 O   0  0  0  0  0  1  0  0  0  0  0  0
  191.7940  176.3910  147.0600 C   0  0  0  0  0  0  0  0  0  0  0  0
  192.6880  176.3670  148.1680 N   0  0  0  0  0  1  0  0  0  0  0  0
  191.7950  175.4370  146.2400 O   0  0  0  0  0  0  0  0  0  0  0  0
  1 13  1  0  0  0  0
  2  1  1  6  0  0  0
  2 11  1  0  0  0  0
  3  6  1  0  0  0  0
  4 17  1  6  0  0  0
  4 10  1  0  0  0  0
  4  2  1  0  0  0  0
  5 11  1  0  0  0  0
  5  7  2  0  0  0  0
  6  7  1  0  0  0  0
  8 10  2  0  0  0  0
  8 12  1  0  0  0  0
  9 25  1  1  0  0  0
 10  5  1  0  0  0  0
 11  9  1  0  0  0  0
 12  3  2  0  0  0  0
 13  9  1  0  0  0  0
 14 19  1  0  0  0  0
 15 17  2  0  0  0  0
 16 20  1  0  0  0  0
 16 14  2  0  0  0  0
 18 15  1  0  0  0  0
 19 17  1  0  0  0  0
 20 18  2  0  0  0  0
 22 21  2  0  0  0  0
 22 12  1  0  0  0  0
 23 22  1  0  0  0  0
 24 23  2  0  0  0  0
 25 29  1  6  0  0  0
 25 26  1  0  0  0  0
 26 27  2  0  0  0  0
 26 28  1  0  0  0  0
 29 30  1  0  0  0  0
 31 29  2  0  0  0  0
M  END
>  <MODEL>
2

>  <REMARK>
 VINA RESULT:      -6.9      3.825      7.335
  Name = 
  6 active torsions:
  status: ('A' for Active; 'I' for Inactive)
    1  A    between atoms: C_1  and  C_23
    2  A    between atoms: C_2  and  C_23
    3  A    between atoms: N_4  and  C_26
    4  A    between atoms: C_10  and  C_22
    5  A    between atoms: C_18  and  C_23
    6  A    between atoms: C_25  and  C_26
                            x       y       z     vdW  Elec       q    Type
                         _______ _______ _______ _____ _____    ______ ____

>  <TORSDO>
F 6

$$$$
=
 OpenBabel11062414593D

 31 34  0  0  1  0  0  0  0  0999 V2000
  190.1970  176.6450  139.2930 C   0  0  0  0  0  2  0  0  0  0  0  0
  189.3690  177.9180  139.1580 C   0  0  2  0  0  3  0  0  0  0  0  0
  184.3020  178.7000  140.2660 C   0  0  0  0  0  3  0  0  0  0  0  0
  188.8680  178.5760  140.4780 C   0  0  1  0  0  3  0  0  0  0  0  0
  187.0290  178.0600  139.0350 C   0  0  0  0  0  0  0  0  0  0  0  0
  184.7650  179.0620  138.8930 C   0  0  0  0  0  2  0  0  0  0  0  0
  185.8740  178.2010  138.3870 C   0  0  0  0  0  3  0  0  0  0  0  0
  186.5390  178.8890  141.3420 C   0  0  0  0  0  3  0  0  0  0  0  0
  188.2510  176.1850  137.8930 C   0  0  2  0  0  3  0  0  0  0  0  0
  187.3730  178.6360  140.3240 C   0  0  0  0  0  0  0  0  0  0  0  0
  188.1870  177.5370  138.4100 N   0  0  0  0  0  0  0  0  0  0  0  0
  185.0720  178.6830  141.3620 C   0  0  0  0  0  0  0  0  0  0  0  0
  189.6410  175.6730  138.2600 C   0  0  0  0  0  2  0  0  0  0  0  0
  190.5950  178.7990  143.6580 C   0  0  0  0  0  3  0  0  0  0  0  0
  188.5230  176.9680  142.3370 C   0  0  0  0  0  3  0  0  0  0  0  0
  190.1070  178.1350  144.7070 C   0  0  0  0  0  3  0  0  0  0  0  0
  189.3030  177.8900  141.7540 C   0  0  0  0  0  0  0  0  0  0  0  0
  188.8000  176.2900  143.6190 C   0  0  0  0  0  3  0  0  0  0  0  0
  190.6590  178.2180  142.2850 C   0  0  0  0  0  2  0  0  0  0  0  0
  189.4850  176.7980  144.6490 C   0  0  0  0  0  3  0  0  0  0  0  0
  183.1920  178.5820  142.8170 O   0  0  0  0  0  0  0  0  0  0  0  0
  184.4370  178.4230  142.6700 C   0  0  0  0  0  0  0  0  0  0  0  0
  185.2330  177.9860  143.7740 N   0  0  0  0  0  0  0  0  0  0  0  0
  185.3040  178.6660  144.8460 N   0  0  0  0  0  2  0  0  0  0  0  0
  187.9780  176.1680  136.3830 C   0  0  1  0  0  3  0  0  0  0  0  0
  186.6860  175.5080  135.9930 C   0  0  0  0  0  0  0  0  0  0  0  0
  185.7990  175.2660  136.8530 O   0  0  0  0  0  1  0  0  0  0  0  0
  186.4790  175.1430  134.6700 O   0  0  0  0  0  0  0  0  0  0  0  0
  188.1640  177.5090  135.7440 C   0  0  0  0  0  0  0  0  0  0  0  0
  187.0430  178.2740  135.3130 N   0  0  0  0  0  1  0  0  0  0  0  0
  189.3250  177.9670  135.5910 O   0  0  0  0  0  0  0  0  0  0  0  0
  2  1  1  1  0  0  0
  2  4  1  0  0  0  0
  3 12  2  0  0  0  0
  4 17  1  1  0  0  0
  5 10  1  0  0  0  0
  6  3  1  0  0  0  0
  7  6  1  0  0  0  0
  7  5  2  0  0  0  0
  8 12  1  0  0  0  0
  9 25  1  6  0  0  0
  9 13  1  0  0  0  0
  9 11  1  0  0  0  0
 10  4  1  0  0  0  0
 10  8  2  0  0  0  0
 11  5  1  0  0  0  0
 11  2  1  0  0  0  0
 12 22  1  0  0  0  0
 13  1  1  0  0  0  0
 14 16  2  0  0  0  0
 15 18  1  0  0  0  0
 17 19  1  0  0  0  0
 17 15  2  0  0  0  0
 18 20  2  0  0  0  0
 19 14  1  0  0  0  0
 20 16  1  0  0  0  0
 22 21  2  0  0  0  0
 22 23  1  0  0  0  0
 23 24  2  0  0  0  0
 25 29  1  1  0  0  0
 26 25  1  0  0  0  0
 26 27  1  0  0  0  0
 28 26  2  0  0  0  0
 30 29  1  0  0  0  0
 31 29  2  0  0  0  0
M  END
>  <MODEL>
3

>  <REMARK>
 VINA RESULT:      -6.8      0.962      1.622
  Name = 
  6 active torsions:
  status: ('A' for Active; 'I' for Inactive)
    1  A    between atoms: C_1  and  C_23
    2  A    between atoms: C_2  and  C_23
    3  A    between atoms: N_4  and  C_26
    4  A    between atoms: C_10  and  C_22
    5  A    between atoms: C_18  and  C_23
    6  A    between atoms: C_25  and  C_26
                            x       y       z     vdW  Elec       q    Type
                         _______ _______ _______ _____ _____    ______ ____

>  <TORSDO>
F 6

$$$$
=
 OpenBabel11062414593D

 31 34  0  0  1  0  0  0  0  0999 V2000
  183.8740  178.6630  142.7240 C   0  0  0  0  0  2  0  0  0  0  0  0
  184.8820  179.3830  141.8350 C   0  0  2  0  0  3  0  0  0  0  0  0
  188.3720  177.3620  138.4820 C   0  0  0  0  0  3  0  0  0  0  0  0
  184.6500  179.3010  140.2960 C   0  0  1  0  0  3  0  0  0  0  0  0
  186.8150  178.4600  140.8750 C   0  0  0  0  0  0  0  0  0  0  0  0
  188.8900  178.2940  139.5280 C   0  0  0  0  0  2  0  0  0  0  0  0
  188.1270  178.2410  140.8100 C   0  0  0  0  0  3  0  0  0  0  0  0
  186.0370  178.2260  138.5120 C   0  0  0  0  0  3  0  0  0  0  0  0
  186.1100  177.8060  143.1970 C   0  0  2  0  0  3  0  0  0  0  0  0
  185.9220  178.7090  139.7570 C   0  0  0  0  0  0  0  0  0  0  0  0
  186.1580  178.7470  142.0960 N   0  0  0  0  0  0  0  0  0  0  0  0
  187.1280  177.3720  137.9860 C   0  0  0  0  0  0  0  0  0  0  0  0
  184.6960  177.9090  143.7620 C   0  0  0  0  0  2  0  0  0  0  0  0
  181.9320  178.9430  137.9240 C   0  0  0  0  0  3  0  0  0  0  0  0
  183.3300  177.2160  140.0330 C   0  0  0  0  0  3  0  0  0  0  0  0
  181.5200  177.7190  137.5930 C   0  0  0  0  0  3  0  0  0  0  0  0
  183.4150  178.5430  139.8640 C   0  0  0  0  0  0  0  0  0  0  0  0
  182.2160  176.3580  139.5830 C   0  0  0  0  0  3  0  0  0  0  0  0
  182.2730  179.3380  139.3220 C   0  0  0  0  0  2  0  0  0  0  0  0
  181.4320  176.5750  138.5210 C   0  0  0  0  0  3  0  0  0  0  0  0
  186.9130  175.2150  137.0040 O   0  0  0  0  0  0  0  0  0  0  0  0
  186.8050  176.4660  136.8650 C   0  0  0  0  0  0  0  0  0  0  0  0
  186.3640  177.0060  135.6160 N   0  0  0  0  0  0  0  0  0  0  0  0
  187.0510  177.8750  134.9940 N   0  0  0  0  0  2  0  0  0  0  0  0
  187.2000  178.1230  144.2300 C   0  0  1  0  0  3  0  0  0  0  0  0
  186.7040  178.2240  145.6450 C   0  0  0  0  0  0  0  0  0  0  0  0
  186.8630  177.2730  146.4540 O   0  0  0  0  0  1  0  0  0  0  0  0
  186.0430  179.3740  146.0550 O   0  0  0  0  0  0  0  0  0  0  0  0
  188.4020  177.2410  144.0960 C   0  0  0  0  0  0  0  0  0  0  0  0
  189.6660  177.6440  144.6130 N   0  0  0  0  0  1  0  0  0  0  0  0
  188.2910  176.1260  143.5230 O   0  0  0  0  0  0  0  0  0  0  0  0
  1 13  1  0  0  0  0
  2 11  1  0  0  0  0
  2  1  1  1  0  0  0
  3  6  1  0  0  0  0
  4 17  1  1  0  0  0
  4  2  1  0  0  0  0
  5 11  1  0  0  0  0
  6  7  1  0  0  0  0
  7  5  2  0  0  0  0
  8 10  2  0  0  0  0
  9 13  1  0  0  0  0
  9 25  1  1  0  0  0
 10  4  1  0  0  0  0
 10  5  1  0  0  0  0
 11  9  1  0  0  0  0
 12  3  2  0  0  0  0
 12  8  1  0  0  0  0
 14 19  1  0  0  0  0
 16 14  2  0  0  0  0
 16 20  1  0  0  0  0
 17 15  2  0  0  0  0
 18 15  1  0  0  0  0
 19 17  1  0  0  0  0
 20 18  2  0  0  0  0
 22 21  2  0  0  0  0
 22 12  1  0  0  0  0
 23 22  1  0  0  0  0
 24 23  2  0  0  0  0
 25 29  1  1  0  0  0
 25 26  1  0  0  0  0
 26 28  2  0  0  0  0
 26 27  1  0  0  0  0
 29 30  1  0  0  0  0
 31 29  2  0  0  0  0
M  END
>  <MODEL>
4

>  <REMARK>
 VINA RESULT:      -6.6      2.691      7.607
  Name = 
  6 active torsions:
  status: ('A' for Active; 'I' for Inactive)
    1  A    between atoms: C_1  and  C_23
    2  A    between atoms: C_2  and  C_23
    3  A    between atoms: N_4  and  C_26
    4  A    between atoms: C_10  and  C_22
    5  A    between atoms: C_18  and  C_23
    6  A    between atoms: C_25  and  C_26
                            x       y       z     vdW  Elec       q    Type
                         _______ _______ _______ _____ _____    ______ ____

>  <TORSDO>
F 6

$$$$
=
 OpenBabel11062414593D

 31 34  0  0  1  0  0  0  0  0999 V2000
  185.6380  178.1160  143.1130 C   0  0  0  0  0  2  0  0  0  0  0  0
  186.1360  178.9960  141.9720 C   0  0  2  0  0  3  0  0  0  0  0  0
  187.8630  177.5910  137.2230 C   0  0  0  0  0  3  0  0  0  0  0  0
  185.2570  179.0470  140.6860 C   0  0  1  0  0  3  0  0  0  0  0  0
  187.4790  178.3240  140.1690 C   0  0  0  0  0  0  0  0  0  0  0  0
  188.7600  178.4530  138.0490 C   0  0  0  0  0  2  0  0  0  0  0  0
  188.6360  178.2150  139.5180 C   0  0  0  0  0  3  0  0  0  0  0  0
  185.7540  178.2630  138.3620 C   0  0  0  0  0  3  0  0  0  0  0  0
  187.8780  177.3930  142.4680 C   0  0  2  0  0  3  0  0  0  0  0  0
  186.1810  178.6110  139.5830 C   0  0  0  0  0  0  0  0  0  0  0  0
  187.4140  178.4380  141.5780 N   0  0  0  0  0  0  0  0  0  0  0  0
  186.5270  177.5520  137.3170 C   0  0  0  0  0  0  0  0  0  0  0  0
  186.8510  177.3300  143.5950 C   0  0  0  0  0  2  0  0  0  0  0  0
  181.6610  179.0070  141.1460 C   0  0  0  0  0  3  0  0  0  0  0  0
  183.8030  177.1790  139.9400 C   0  0  0  0  0  3  0  0  0  0  0  0
  180.9250  178.1660  140.4200 C   0  0  0  0  0  3  0  0  0  0  0  0
  183.9780  178.2410  140.7390 C   0  0  0  0  0  0  0  0  0  0  0  0
  182.5750  176.3650  139.8440 C   0  0  0  0  0  3  0  0  0  0  0  0
  182.9630  178.6240  141.7650 C   0  0  0  0  0  2  0  0  0  0  0  0
  181.3250  176.7940  140.0490 C   0  0  0  0  0  3  0  0  0  0  0  0
  186.3730  175.9120  135.6010 O   0  0  0  0  0  0  0  0  0  0  0  0
  185.7720  176.7380  136.3440 C   0  0  0  0  0  0  0  0  0  0  0  0
  184.3530  176.8810  136.2430 N   0  0  0  0  0  0  0  0  0  0  0  0
  183.5780  175.8830  136.3720 N   0  0  0  0  0  2  0  0  0  0  0  0
  189.3010  177.6910  142.9610 C   0  0  1  0  0  3  0  0  0  0  0  0
  189.4590  177.6660  144.4550 C   0  0  0  0  0  0  0  0  0  0  0  0
  189.7920  178.7020  145.0870 O   0  0  0  0  0  0  0  0  0  0  0  0
  189.2560  176.4770  145.1420 O   0  0  0  0  0  1  0  0  0  0  0  0
  190.3420  176.8840  142.2510 C   0  0  0  0  0  0  0  0  0  0  0  0
  191.5110  177.5030  141.7220 N   0  0  0  0  0  1  0  0  0  0  0  0
  190.1850  175.6430  142.1240 O   0  0  0  0  0  0  0  0  0  0  0  0
  1 13  1  0  0  0  0
  2  1  1  1  0  0  0
  3 12  2  0  0  0  0
  3  6  1  0  0  0  0
  4 17  1  1  0  0  0
  4  2  1  0  0  0  0
  5 11  1  0  0  0  0
  6  7  1  0  0  0  0
  7  5  2  0  0  0  0
  8 10  2  0  0  0  0
  9 25  1  1  0  0  0
  9 13  1  0  0  0  0
 10  5  1  0  0  0  0
 10  4  1  0  0  0  0
 11  2  1  0  0  0  0
 11  9  1  0  0  0  0
 12  8  1  0  0  0  0
 14 19  1  0  0  0  0
 15 17  2  0  0  0  0
 16 14  2  0  0  0  0
 17 19  1  0  0  0  0
 18 15  1  0  0  0  0
 18 20  2  0  0  0  0
 20 16  1  0  0  0  0
 21 22  2  0  0  0  0
 22 12  1  0  0  0  0
 23 22  1  0  0  0  0
 23 24  2  0  0  0  0
 25 29  1  6  0  0  0
 25 26  1  0  0  0  0
 26 27  2  0  0  0  0
 26 28  1  0  0  0  0
 30 29  1  0  0  0  0
 31 29  2  0  0  0  0
M  END
>  <MODEL>
5

>  <REMARK>
 VINA RESULT:      -6.3      2.976      6.794
  Name = 
  6 active torsions:
  status: ('A' for Active; 'I' for Inactive)
    1  A    between atoms: C_1  and  C_23
    2  A    between atoms: C_2  and  C_23
    3  A    between atoms: N_4  and  C_26
    4  A    between atoms: C_10  and  C_22
    5  A    between atoms: C_18  and  C_23
    6  A    between atoms: C_25  and  C_26
                            x       y       z     vdW  Elec       q    Type
                         _______ _______ _______ _____ _____    ______ ____

>  <TORSDO>
F 6

$$$$
=
 OpenBabel11062414593D

 31 34  0  0  1  0  0  0  0  0999 V2000
  184.7350  177.9710  139.0520 C   0  0  0  0  0  2  0  0  0  0  0  0
  184.5920  179.0650  140.1030 C   0  0  2  0  0  3  0  0  0  0  0  0
  184.2830  178.6200  145.3200 C   0  0  0  0  0  3  0  0  0  0  0  0
  185.8020  179.2870  141.0600 C   0  0  1  0  0  3  0  0  0  0  0  0
  183.8150  178.8020  142.3020 C   0  0  0  0  0  0  0  0  0  0  0  0
  183.1940  179.3780  144.6330 C   0  0  0  0  0  2  0  0  0  0  0  0
  182.8910  178.8800  143.2590 C   0  0  0  0  0  3  0  0  0  0  0  0
  185.9840  178.9530  143.5330 C   0  0  0  0  0  3  0  0  0  0  0  0
  182.7660  177.5100  140.4190 C   0  0  2  0  0  3  0  0  0  0  0  0
  185.2280  179.1070  142.4380 C   0  0  0  0  0  0  0  0  0  0  0  0
  183.4740  178.6640  140.9350 N   0  0  0  0  0  0  0  0  0  0  0  0
  185.5350  178.4840  144.8650 C   0  0  0  0  0  0  0  0  0  0  0  0
  183.4280  177.1880  139.0820 C   0  0  0  0  0  2  0  0  0  0  0  0
  188.7010  178.5630  139.0060 C   0  0  0  0  0  3  0  0  0  0  0  0
  187.6990  177.8770  141.8190 C   0  0  0  0  0  3  0  0  0  0  0  0
  189.8120  178.1130  139.5910 C   0  0  0  0  0  3  0  0  0  0  0  0
  187.0050  178.4070  140.8010 C   0  0  0  0  0  0  0  0  0  0  0  0
  188.9300  177.0720  141.6970 C   0  0  0  0  0  3  0  0  0  0  0  0
  187.3360  178.0910  139.3800 C   0  0  0  0  0  2  0  0  0  0  0  0
  189.8500  177.1770  140.7310 C   0  0  0  0  0  3  0  0  0  0  0  0
  186.4130  177.8360  146.9800 O   0  0  0  0  0  0  0  0  0  0  0  0
  186.5300  177.8080  145.7220 C   0  0  0  0  0  0  0  0  0  0  0  0
  187.6310  177.1150  145.1260 N   0  0  0  0  0  0  0  0  0  0  0  0
  188.8310  177.4610  145.3570 N   0  0  0  0  0  2  0  0  0  0  0  0
  181.2650  177.8030  140.2980 C   0  0  1  0  0  3  0  0  0  0  0  0
  180.8730  178.5270  139.0410 C   0  0  0  0  0  0  0  0  0  0  0  0
  181.1530  179.7440  138.8830 O   0  0  0  0  0  1  0  0  0  0  0  0
  180.1740  177.8480  138.0530 O   0  0  0  0  0  0  0  0  0  0  0  0
  180.4150  176.6010  140.5670 C   0  0  0  0  0  0  0  0  0  0  0  0
  179.2220  176.7070  141.3370 N   0  0  0  0  0  1  0  0  0  0  0  0
  180.7560  175.4830  140.1010 O   0  0  0  0  0  0  0  0  0  0  0  0
  1 13  1  0  0  0  0
  2  1  1  6  0  0  0
  2 11  1  0  0  0  0
  2  4  1  0  0  0  0
  4 17  1  6  0  0  0
  4 10  1  0  0  0  0
  5 10  1  0  0  0  0
  5  7  2  0  0  0  0
  6  3  1  0  0  0  0
  7  6  1  0  0  0  0
  8 12  1  0  0  0  0
  9 25  1  6  0  0  0
  9 11  1  0  0  0  0
 10  8  2  0  0  0  0
 11  5  1  0  0  0  0
 12  3  2  0  0  0  0
 12 22  1  0  0  0  0
 13  9  1  0  0  0  0
 14 19  1  0  0  0  0
 14 16  2  0  0  0  0
 16 20  1  0  0  0  0
 17 15  2  0  0  0  0
 18 15  1  0  0  0  0
 19 17  1  0  0  0  0
 20 18  2  0  0  0  0
 22 21  2  0  0  0  0
 23 24  2  0  0  0  0
 23 22  1  0  0  0  0
 25 26  1  6  0  0  0
 25 29  1  0  0  0  0
 27 26  1  0  0  0  0
 28 26  2  0  0  0  0
 29 30  1  0  0  0  0
 31 29  2  0  0  0  0
M  END
>  <MODEL>
6

>  <REMARK>
 VINA RESULT:      -6.1      3.864      5.624
  Name = 
  6 active torsions:
  status: ('A' for Active; 'I' for Inactive)
    1  A    between atoms: C_1  and  C_23
    2  A    between atoms: C_2  and  C_23
    3  A    between atoms: N_4  and  C_26
    4  A    between atoms: C_10  and  C_22
    5  A    between atoms: C_18  and  C_23
    6  A    between atoms: C_25  and  C_26
                            x       y       z     vdW  Elec       q    Type
                         _______ _______ _______ _____ _____    ______ ____

>  <TORSDO>
F 6

$$$$
=
 OpenBabel11062414593D

 31 34  0  0  1  0  0  0  0  0999 V2000
  183.0080  177.9910  138.0010 C   0  0  0  0  0  2  0  0  0  0  0  0
  183.5480  179.0130  138.9950 C   0  0  2  0  0  3  0  0  0  0  0  0
  186.0970  178.2100  143.5080 C   0  0  0  0  0  3  0  0  0  0  0  0
  185.0970  179.1080  139.1380 C   0  0  1  0  0  3  0  0  0  0  0  0
  184.0770  178.6300  141.2500 C   0  0  0  0  0  0  0  0  0  0  0  0
  184.8740  179.0660  143.5570 C   0  0  0  0  0  2  0  0  0  0  0  0
  183.8330  178.6830  142.5580 C   0  0  0  0  0  3  0  0  0  0  0  0
  186.5710  178.5900  141.0940 C   0  0  0  0  0  3  0  0  0  0  0  0
  182.0740  177.5270  140.2080 C   0  0  2  0  0  3  0  0  0  0  0  0
  185.3550  178.8580  140.5980 C   0  0  0  0  0  0  0  0  0  0  0  0
  183.0370  178.6070  140.2900 N   0  0  0  0  0  0  0  0  0  0  0  0
  186.8840  178.0480  142.4370 C   0  0  0  0  0  0  0  0  0  0  0  0
  181.8720  177.2710  138.7170 C   0  0  0  0  0  2  0  0  0  0  0  0
  188.3370  178.0810  137.8770 C   0  0  0  0  0  3  0  0  0  0  0  0
  185.5030  176.9270  138.0250 C   0  0  0  0  0  3  0  0  0  0  0  0
  188.5540  176.7900  137.6260 C   0  0  0  0  0  3  0  0  0  0  0  0
  185.8910  178.1930  138.2330 C   0  0  0  0  0  0  0  0  0  0  0  0
  186.2340  175.9190  137.2310 C   0  0  0  0  0  3  0  0  0  0  0  0
  187.0670  178.7780  137.5210 C   0  0  0  0  0  2  0  0  0  0  0  0
  187.5590  175.8580  137.0600 C   0  0  0  0  0  3  0  0  0  0  0  0
  188.1170  176.1570  143.1890 O   0  0  0  0  0  0  0  0  0  0  0  0
  188.1290  177.2660  142.5840 C   0  0  0  0  0  0  0  0  0  0  0  0
  189.3530  177.7640  142.0360 N   0  0  0  0  0  0  0  0  0  0  0  0
  189.9180  177.1880  141.0550 N   0  0  0  0  0  2  0  0  0  0  0  0
  180.7770  177.8990  140.9390 C   0  0  1  0  0  3  0  0  0  0  0  0
  180.4420  179.3630  140.9030 C   0  0  0  0  0  0  0  0  0  0  0  0
  180.1860  179.9400  139.8140 O   0  0  0  0  0  0  0  0  0  0  0  0
  180.4370  180.0910  142.0850 O   0  0  0  0  0  1  0  0  0  0  0  0
  179.6230  177.0270  140.5550 C   0  0  0  0  0  0  0  0  0  0  0  0
  179.2950  175.8710  141.3190 N   0  0  0  0  0  1  0  0  0  0  0  0
  178.9310  177.3230  139.5470 O   0  0  0  0  0  0  0  0  0  0  0  0
  1 13  1  0  0  0  0
  2  1  1  6  0  0  0
  2  4  1  0  0  0  0
  2 11  1  0  0  0  0
  3  6  1  0  0  0  0
  4 17  1  6  0  0  0
  4 10  1  0  0  0  0
  5  7  2  0  0  0  0
  7  6  1  0  0  0  0
  8 12  1  0  0  0  0
  9 11  1  0  0  0  0
  9 25  1  6  0  0  0
 10  8  2  0  0  0  0
 10  5  1  0  0  0  0
 11  5  1  0  0  0  0
 12 22  1  0  0  0  0
 12  3  2  0  0  0  0
 13  9  1  0  0  0  0
 15 17  2  0  0  0  0
 16 14  2  0  0  0  0
 18 15  1  0  0  0  0
 19 14  1  0  0  0  0
 19 17  1  0  0  0  0
 20 18  2  0  0  0  0
 20 16  1  0  0  0  0
 22 21  2  0  0  0  0
 23 22  1  0  0  0  0
 24 23  2  0  0  0  0
 25 29  1  6  0  0  0
 26 25  1  0  0  0  0
 26 28  1  0  0  0  0
 27 26  2  0  0  0  0
 29 30  1  0  0  0  0
 31 29  2  0  0  0  0
M  END
>  <MODEL>
7

>  <REMARK>
 VINA RESULT:      -6.0      3.461      6.653
  Name = 
  6 active torsions:
  status: ('A' for Active; 'I' for Inactive)
    1  A    between atoms: C_1  and  C_23
    2  A    between atoms: C_2  and  C_23
    3  A    between atoms: N_4  and  C_26
    4  A    between atoms: C_10  and  C_22
    5  A    between atoms: C_18  and  C_23
    6  A    between atoms: C_25  and  C_26
                            x       y       z     vdW  Elec       q    Type
                         _______ _______ _______ _____ _____    ______ ____

>  <TORSDO>
F 6

$$$$
=
 OpenBabel11062414593D

 31 34  0  0  1  0  0  0  0  0999 V2000
  188.5940  178.1990  142.2450 C   0  0  0  0  0  2  0  0  0  0  0  0
  187.7610  179.0480  141.2910 C   0  0  2  0  0  3  0  0  0  0  0  0
  183.6980  177.6290  138.2930 C   0  0  0  0  0  3  0  0  0  0  0  0
  186.2740  179.2950  141.6830 C   0  0  1  0  0  3  0  0  0  0  0  0
  186.4240  178.2670  139.5270 C   0  0  0  0  0  0  0  0  0  0  0  0
  184.8450  178.3020  137.6150 C   0  0  0  0  0  2  0  0  0  0  0  0
  186.1680  178.0150  138.2440 C   0  0  0  0  0  3  0  0  0  0  0  0
  184.1640  178.5590  140.5550 C   0  0  0  0  0  3  0  0  0  0  0  0
  188.6300  177.1750  140.0300 C   0  0  2  0  0  3  0  0  0  0  0  0
  185.4860  178.7770  140.5120 C   0  0  0  0  0  0  0  0  0  0  0  0
  187.7430  178.3210  140.0370 N   0  0  0  0  0  0  0  0  0  0  0  0
  183.3580  177.7900  139.5790 C   0  0  0  0  0  0  0  0  0  0  0  0
  189.3600  177.2140  141.3700 C   0  0  0  0  0  2  0  0  0  0  0  0
  187.1080  177.2430  144.5540 C   0  0  0  0  0  3  0  0  0  0  0  0
  185.0180  179.3610  143.8230 C   0  0  0  0  0  3  0  0  0  0  0  0
  186.6320  177.5830  145.7520 C   0  0  0  0  0  3  0  0  0  0  0  0
  185.8390  178.6920  143.0010 C   0  0  0  0  0  0  0  0  0  0  0  0
  184.5880  178.9150  145.1630 C   0  0  0  0  0  3  0  0  0  0  0  0
  186.2910  177.3030  143.3060 C   0  0  0  0  0  2  0  0  0  0  0  0
  185.2900  178.1460  146.0020 C   0  0  0  0  0  3  0  0  0  0  0  0
  181.8790  175.9390  139.8000 O   0  0  0  0  0  0  0  0  0  0  0  0
  182.1210  177.1490  140.0690 C   0  0  0  0  0  0  0  0  0  0  0  0
  181.1920  177.9010  140.8560 N   0  0  0  0  0  0  0  0  0  0  0  0
  179.9990  177.5010  141.0290 N   0  0  0  0  0  2  0  0  0  0  0  0
  189.5770  177.2280  138.8230 C   0  0  1  0  0  3  0  0  0  0  0  0
  190.9530  176.6880  139.0890 C   0  0  0  0  0  0  0  0  0  0  0  0
  191.8380  177.4100  139.6190 O   0  0  0  0  0  1  0  0  0  0  0  0
  191.2570  175.3840  138.7240 O   0  0  0  0  0  0  0  0  0  0  0  0
  188.9620  176.6680  137.5780 C   0  0  0  0  0  0  0  0  0  0  0  0
  189.1380  177.3160  136.3220 N   0  0  0  0  0  1  0  0  0  0  0  0
  188.2860  175.6090  137.6430 O   0  0  0  0  0  0  0  0  0  0  0  0
  2  4  1  0  0  0  0
  2  1  1  1  0  0  0
  3 12  2  0  0  0  0
  4 17  1  1  0  0  0
  5 11  1  0  0  0  0
  5 10  1  0  0  0  0
  6  7  1  0  0  0  0
  6  3  1  0  0  0  0
  7  5  2  0  0  0  0
  9 25  1  6  0  0  0
  9 11  1  0  0  0  0
  9 13  1  0  0  0  0
 10  8  2  0  0  0  0
 10  4  1  0  0  0  0
 11  2  1  0  0  0  0
 12 22  1  0  0  0  0
 12  8  1  0  0  0  0
 13  1  1  0  0  0  0
 14 16  2  0  0  0  0
 15 18  1  0  0  0  0
 16 20  1  0  0  0  0
 17 19  1  0  0  0  0
 17 15  2  0  0  0  0
 18 20  2  0  0  0  0
 19 14  1  0  0  0  0
 21 22  2  0  0  0  0
 22 23  1  0  0  0  0
 23 24  2  0  0  0  0
 25 29  1  6  0  0  0
 25 26  1  0  0  0  0
 26 27  1  0  0  0  0
 28 26  2  0  0  0  0
 29 31  2  0  0  0  0
 30 29  1  0  0  0  0
M  END
>  <MODEL>
8

>  <REMARK>
 VINA RESULT:      -6.0      2.526      3.569
  Name = 
  6 active torsions:
  status: ('A' for Active; 'I' for Inactive)
    1  A    between atoms: C_1  and  C_23
    2  A    between atoms: C_2  and  C_23
    3  A    between atoms: N_4  and  C_26
    4  A    between atoms: C_10  and  C_22
    5  A    between atoms: C_18  and  C_23
    6  A    between atoms: C_25  and  C_26
                            x       y       z     vdW  Elec       q    Type
                         _______ _______ _______ _____ _____    ______ ____

>  <TORSDO>
F 6

$$$$
=
 OpenBabel11062414593D

 31 34  0  0  1  0  0  0  0  0999 V2000
  185.8940  177.7380  144.2330 C   0  0  0  0  0  2  0  0  0  0  0  0
  186.5550  178.7030  143.2550 C   0  0  2  0  0  3  0  0  0  0  0  0
  188.1660  177.8420  138.3390 C   0  0  0  0  0  3  0  0  0  0  0  0
  185.7300  179.1060  141.9960 C   0  0  1  0  0  3  0  0  0  0  0  0
  187.8230  178.1310  141.3650 C   0  0  0  0  0  0  0  0  0  0  0  0
  189.1650  178.4010  139.2970 C   0  0  0  0  0  2  0  0  0  0  0  0
  188.9660  177.9470  140.7050 C   0  0  0  0  0  3  0  0  0  0  0  0
  186.1590  178.6470  139.5730 C   0  0  0  0  0  3  0  0  0  0  0  0
  188.0080  176.7820  143.4770 C   0  0  2  0  0  3  0  0  0  0  0  0
  186.6030  178.7150  140.8350 C   0  0  0  0  0  0  0  0  0  0  0  0
  187.7390  178.0200  142.7740 N   0  0  0  0  0  0  0  0  0  0  0  0
  186.8390  178.0030  138.4250 C   0  0  0  0  0  0  0  0  0  0  0  0
  186.9540  176.6990  144.5770 C   0  0  0  0  0  2  0  0  0  0  0  0
  182.2510  179.2790  143.0000 C   0  0  0  0  0  3  0  0  0  0  0  0
  183.8960  177.9610  140.7760 C   0  0  0  0  0  3  0  0  0  0  0  0
  181.3060  178.9500  142.1190 C   0  0  0  0  0  3  0  0  0  0  0  0
  184.3390  178.5180  141.9130 C   0  0  0  0  0  0  0  0  0  0  0  0
  182.5380  177.4280  140.5490 C   0  0  0  0  0  3  0  0  0  0  0  0
  183.5190  178.5090  143.1610 C   0  0  0  0  0  2  0  0  0  0  0  0
  181.4130  177.8600  141.1300 C   0  0  0  0  0  3  0  0  0  0  0  0
  184.8630  176.9820  137.5790 O   0  0  0  0  0  0  0  0  0  0  0  0
  185.9910  177.4920  137.3280 C   0  0  0  0  0  0  0  0  0  0  0  0
  186.4460  177.5790  135.9750 N   0  0  0  0  0  0  0  0  0  0  0  0
  185.6530  177.3950  135.0000 N   0  0  0  0  0  2  0  0  0  0  0  0
  189.4460  176.7630  144.0130 C   0  0  1  0  0  3  0  0  0  0  0  0
  190.4160  175.9940  143.1620 C   0  0  0  0  0  0  0  0  0  0  0  0
  190.1270  175.6790  141.9770 O   0  0  0  0  0  0  0  0  0  0  0  0
  191.6360  175.6070  143.6980 O   0  0  0  0  0  1  0  0  0  0  0  0
  189.9470  178.1250  144.3810 C   0  0  0  0  0  0  0  0  0  0  0  0
  190.8320  178.8340  143.5200 N   0  0  0  0  0  1  0  0  0  0  0  0
  189.5750  178.6500  145.4610 O   0  0  0  0  0  0  0  0  0  0  0  0
  1 13  1  0  0  0  0
  2  1  1  1  0  0  0
  3 12  2  0  0  0  0
  3  6  1  0  0  0  0
  4 17  1  6  0  0  0
  4  2  1  0  0  0  0
  5 11  1  0  0  0  0
  6  7  1  0  0  0  0
  7  5  2  0  0  0  0
  8 10  2  0  0  0  0
  9 25  1  1  0  0  0
  9 13  1  0  0  0  0
 10  5  1  0  0  0  0
 10  4  1  0  0  0  0
 11  2  1  0  0  0  0
 11  9  1  0  0  0  0
 12  8  1  0  0  0  0
 14 19  1  0  0  0  0
 15 17  2  0  0  0  0
 16 14  2  0  0  0  0
 17 19  1  0  0  0  0
 18 15  1  0  0  0  0
 18 20  2  0  0  0  0
 20 16  1  0  0  0  0
 22 21  2  0  0  0  0
 22 12  1  0  0  0  0
 23 22  1  0  0  0  0
 24 23  2  0  0  0  0
 25 26  1  6  0  0  0
 25 29  1  0  0  0  0
 26 28  1  0  0  0  0
 27 26  2  0  0  0  0
 29 31  2  0  0  0  0
 30 29  1  0  0  0  0
M  END
>  <MODEL>
9

>  <REMARK>
 VINA RESULT:      -6.0      3.152      6.763
  Name = 
  6 active torsions:
  status: ('A' for Active; 'I' for Inactive)
    1  A    between atoms: C_1  and  C_23
    2  A    between atoms: C_2  and  C_23
    3  A    between atoms: N_4  and  C_26
    4  A    between atoms: C_10  and  C_22
    5  A    between atoms: C_18  and  C_23
    6  A    between atoms: C_25  and  C_26
                            x       y       z     vdW  Elec       q    Type
                         _______ _______ _______ _____ _____    ______ ____

>  <TORSDO>
F 6

$$$$
