=
 OpenBabel11062418103D

 25 27  0  0  1  0  0  0  0  0999 V2000
  188.7100  178.2460  139.4870 C   0  0  0  0  0  2  0  0  0  0  0  0
  184.0270  178.9070  141.3180 N   0  0  1  0  0  0  0  0  0  0  0  0
  184.2530  178.3370  137.6760 C   0  0  0  0  0  2  0  0  0  0  0  0
  187.4180  177.7170  139.2220 O   0  0  0  0  0  0  0  0  0  0  0  0
  187.9210  177.1810  145.5180 C   0  0  2  0  0  3  0  0  0  0  0  0
  183.1300  177.3450  139.7240 C   0  0  0  0  0  2  0  0  0  0  0  0
  183.6170  177.5200  141.1500 C   0  0  0  0  0  2  0  0  0  0  0  0
  183.5530  178.6080  139.0090 C   0  0  1  0  0  3  0  0  0  0  0  0
  189.1980  176.9900  146.2990 C   0  0  0  0  0  2  0  0  0  0  0  0
  188.5860  178.3180  141.9620 C   0  0  0  0  0  2  0  0  0  0  0  0
  185.9340  178.7140  146.0940 C   0  0  0  0  0  2  0  0  0  0  0  0
  184.9370  178.0510  145.1550 C   0  0  0  0  0  2  0  0  0  0  0  0
  188.9920  177.5350  147.6380 N   0  0  0  0  0  2  0  0  0  0  0  0
  185.4210  177.3570  137.7780 C   0  0  0  0  0  2  0  0  0  0  0  0
  185.2200  178.9110  142.1470 C   0  0  0  0  0  2  0  0  0  0  0  0
  186.7040  178.0580  138.0740 C   0  0  0  0  0  0  0  0  0  0  0  0
  184.4250  179.3530  139.9920 C   0  0  0  0  0  2  0  0  0  0  0  0
  188.1710  178.1760  144.3880 C   0  0  0  0  0  2  0  0  0  0  0  0
  184.1410  179.1090  144.4060 C   0  0  0  0  0  2  0  0  0  0  0  0
  185.0050  179.8040  143.3600 C   0  0  0  0  0  2  0  0  0  0  0  0
  186.9710  177.7040  146.5790 C   0  0  2  0  0  3  0  0  0  0  0  0
  189.2480  177.6510  140.7740 C   0  0  0  0  0  2  0  0  0  0  0  0
  187.1510  178.9190  137.2660 O   0  0  0  0  0  0  0  0  0  0  0  0
  187.8040  178.2890  147.6130 N   0  0  0  0  0  2  0  0  0  0  0  0
  188.8060  177.4790  143.2020 C   0  0  0  0  0  2  0  0  0  0  0  0
  1 22  1  0  0  0  0
  2 17  1  6  0  0  0
  2 15  1  0  0  0  0
  3 14  1  0  0  0  0
  4  1  1  0  0  0  0
  5 18  1  6  0  0  0
  5  9  1  0  0  0  0
  5 21  1  0  0  0  0
  6  7  1  0  0  0  0
  7  2  1  0  0  0  0
  8  3  1  6  0  0  0
  8  6  1  0  0  0  0
  8 17  1  0  0  0  0
  9 13  1  0  0  0  0
 10 25  1  0  0  0  0
 12 11  1  0  0  0  0
 14 16  1  0  0  0  0
 15 20  1  0  0  0  0
 16  4  1  0  0  0  0
 19 12  1  0  0  0  0
 20 19  1  0  0  0  0
 21 11  1  6  0  0  0
 21 24  1  0  0  0  0
 22 10  1  0  0  0  0
 23 16  2  0  0  0  0
 24 13  1  0  0  0  0
 25 18  1  0  0  0  0
M  END
>  <MODEL>
1

>  <REMARK>
 VINA RESULT:      -8.9      0.000      0.000
  Name = 
  0 active torsions:
  status: ('A' for Active; 'I' for Inactive)
                            x       y       z     vdW  Elec       q    Type
                         _______ _______ _______ _____ _____    ______ ____

>  <TORSDO>
F 0

$$$$
=
 OpenBabel11062418103D

 25 27  0  0  1  0  0  0  0  0999 V2000
  186.8360  178.4490  147.1730 C   0  0  0  0  0  2  0  0  0  0  0  0
  189.8660  177.8320  143.1530 N   0  0  1  0  0  0  0  0  0  0  0  0
  191.3050  176.8390  146.4060 C   0  0  0  0  0  2  0  0  0  0  0  0
  187.8080  177.5010  146.7540 O   0  0  0  0  0  0  0  0  0  0  0  0
  184.0790  178.0800  141.6610 C   0  0  2  0  0  3  0  0  0  0  0  0
  190.8260  175.8500  144.1200 C   0  0  0  0  0  2  0  0  0  0  0  0
  189.7900  176.3780  143.1460 C   0  0  0  0  0  2  0  0  0  0  0  0
  191.2900  177.0630  144.8930 C   0  0  1  0  0  3  0  0  0  0  0  0
  182.6100  178.4250  141.6630 C   0  0  0  0  0  2  0  0  0  0  0  0
  185.7240  178.8380  144.9920 C   0  0  0  0  0  2  0  0  0  0  0  0
  185.9030  178.9610  140.0710 C   0  0  0  0  0  2  0  0  0  0  0  0
  186.9300  177.8840  140.3860 C   0  0  0  0  0  2  0  0  0  0  0  0
  182.2960  179.0650  140.3890 N   0  0  0  0  0  2  0  0  0  0  0  0
  189.9850  176.3120  146.9690 C   0  0  0  0  0  2  0  0  0  0  0  0
  188.5080  178.3400  143.0630 C   0  0  0  0  0  2  0  0  0  0  0  0
  189.0660  177.4220  147.3500 C   0  0  0  0  0  0  0  0  0  0  0  0
  190.3690  178.1840  144.4720 C   0  0  0  0  0  2  0  0  0  0  0  0
  184.7920  178.9260  142.7110 C   0  0  0  0  0  2  0  0  0  0  0  0
  188.3050  178.5080  140.5660 C   0  0  0  0  0  2  0  0  0  0  0  0
  188.3850  179.2830  141.8760 C   0  0  0  0  0  2  0  0  0  0  0  0
  184.4850  178.4200  140.2390 C   0  0  2  0  0  3  0  0  0  0  0  0
  185.5600  178.2530  146.3790 C   0  0  0  0  0  2  0  0  0  0  0  0
  189.4160  178.2540  148.2320 O   0  0  0  0  0  0  0  0  0  0  0  0
  183.5140  179.3850  139.7610 N   0  0  0  0  0  2  0  0  0  0  0  0
  184.6380  178.3050  144.0840 C   0  0  0  0  0  2  0  0  0  0  0  0
  2 15  1  1  0  0  0
  2 17  1  0  0  0  0
  3 14  1  0  0  0  0
  4  1  1  0  0  0  0
  4 16  1  0  0  0  0
  5  9  1  6  0  0  0
  5 18  1  0  0  0  0
  7  2  1  0  0  0  0
  7  6  1  0  0  0  0
  8  6  1  6  0  0  0
  8  3  1  0  0  0  0
 10 22  1  0  0  0  0
 11 12  1  0  0  0  0
 12 19  1  0  0  0  0
 13  9  1  0  0  0  0
 14 16  1  0  0  0  0
 16 23  2  0  0  0  0
 17  8  1  0  0  0  0
 18 25  1  0  0  0  0
 19 20  1  0  0  0  0
 20 15  1  0  0  0  0
 21 11  1  1  0  0  0
 21  5  1  0  0  0  0
 22  1  1  0  0  0  0
 24 21  1  0  0  0  0
 24 13  1  0  0  0  0
 25 10  1  0  0  0  0
M  END
>  <MODEL>
2

>  <REMARK>
 VINA RESULT:      -7.8      3.120      7.568
  Name = 
  0 active torsions:
  status: ('A' for Active; 'I' for Inactive)
                            x       y       z     vdW  Elec       q    Type
                         _______ _______ _______ _____ _____    ______ ____

>  <TORSDO>
F 0

$$$$
=
 OpenBabel11062418103D

 25 27  0  0  1  0  0  0  0  0999 V2000
  184.4060  178.9520  142.6460 C   0  0  0  0  0  2  0  0  0  0  0  0
  189.2700  177.7950  141.7990 N   0  0  1  0  0  0  0  0  0  0  0  0
  188.2050  177.7310  145.3350 C   0  0  0  0  0  2  0  0  0  0  0  0
  185.3590  178.0510  143.1930 O   0  0  0  0  0  0  0  0  0  0  0  0
  185.8430  177.0390  136.9540 C   0  0  2  0  0  3  0  0  0  0  0  0
  189.2570  176.2040  143.6030 C   0  0  0  0  0  2  0  0  0  0  0  0
  189.1290  176.3780  142.1010 C   0  0  0  0  0  2  0  0  0  0  0  0
  189.1840  177.6060  144.1650 C   0  0  1  0  0  3  0  0  0  0  0  0
  184.7440  177.2060  135.9340 C   0  0  0  0  0  2  0  0  0  0  0  0
  184.9910  178.7110  140.2500 C   0  0  0  0  0  2  0  0  0  0  0  0
  188.3120  177.7420  136.7430 C   0  0  0  0  0  2  0  0  0  0  0  0
  188.8250  176.8880  137.8920 C   0  0  0  0  0  2  0  0  0  0  0  0
  185.3670  177.5030  134.6470 N   0  0  0  0  0  2  0  0  0  0  0  0
  186.8050  177.1970  145.0310 C   0  0  0  0  0  2  0  0  0  0  0  0
  188.3250  178.1120  140.7410 C   0  0  0  0  0  2  0  0  0  0  0  0
  185.9270  178.2530  144.4500 C   0  0  0  0  0  0  0  0  0  0  0  0
  188.8220  178.4900  142.9960 C   0  0  0  0  0  2  0  0  0  0  0  0
  185.7600  178.1760  137.9690 C   0  0  0  0  0  2  0  0  0  0  0  0
  189.7930  177.6890  138.7490 C   0  0  0  0  0  2  0  0  0  0  0  0
  189.0550  178.7430  139.5660 C   0  0  0  0  0  2  0  0  0  0  0  0
  187.0920  177.0950  136.0930 C   0  0  2  0  0  3  0  0  0  0  0  0
  183.9340  178.4380  141.3000 C   0  0  0  0  0  2  0  0  0  0  0  0
  185.6740  179.2960  145.1140 O   0  0  0  0  0  0  0  0  0  0  0  0
  186.7190  177.8100  134.8870 N   0  0  0  0  0  2  0  0  0  0  0  0
  184.7180  177.8670  139.0240 C   0  0  0  0  0  2  0  0  0  0  0  0
  1  4  1  0  0  0  0
  2 15  1  6  0  0  0
  2  7  1  0  0  0  0
  2 17  1  0  0  0  0
  4 16  1  0  0  0  0
  5  9  1  6  0  0  0
  5 18  1  0  0  0  0
  6  8  1  0  0  0  0
  7  6  1  0  0  0  0
  8 17  1  6  0  0  0
  8  3  1  0  0  0  0
 10 22  1  0  0  0  0
 11 12  1  0  0  0  0
 12 19  1  0  0  0  0
 13 24  1  0  0  0  0
 13  9  1  0  0  0  0
 14  3  1  0  0  0  0
 16 14  1  0  0  0  0
 16 23  2  0  0  0  0
 18 25  1  0  0  0  0
 19 20  1  0  0  0  0
 20 15  1  0  0  0  0
 21 11  1  1  0  0  0
 21  5  1  0  0  0  0
 22  1  1  0  0  0  0
 24 21  1  0  0  0  0
 25 10  1  0  0  0  0
M  END
>  <MODEL>
3

>  <REMARK>
 VINA RESULT:      -7.8      3.000      7.868
  Name = 
  0 active torsions:
  status: ('A' for Active; 'I' for Inactive)
                            x       y       z     vdW  Elec       q    Type
                         _______ _______ _______ _____ _____    ______ ____

>  <TORSDO>
F 0

$$$$
=
 OpenBabel11062418103D

 25 27  0  0  1  0  0  0  0  0999 V2000
  191.6520  177.3880  142.4480 C   0  0  0  0  0  2  0  0  0  0  0  0
  187.7330  178.3450  139.3760 N   0  0  1  0  0  0  0  0  0  0  0  0
  190.7820  177.0730  137.7260 C   0  0  0  0  0  2  0  0  0  0  0  0
  191.0960  176.8030  141.2790 O   0  0  0  0  0  0  0  0  0  0  0  0
  186.0580  177.5180  145.0590 C   0  0  2  0  0  3  0  0  0  0  0  0
  188.3250  176.4910  137.9630 C   0  0  0  0  0  2  0  0  0  0  0  0
  187.4300  176.9480  139.1000 C   0  0  0  0  0  2  0  0  0  0  0  0
  189.3460  177.5940  137.8020 C   0  0  1  0  0  3  0  0  0  0  0  0
  186.0630  177.4980  146.5680 C   0  0  0  0  0  2  0  0  0  0  0  0
  189.5460  177.9430  143.6310 C   0  0  0  0  0  2  0  0  0  0  0  0
  184.7620  179.1130  143.5070 C   0  0  0  0  0  2  0  0  0  0  0  0
  184.9010  178.2690  142.2500 C   0  0  0  0  0  2  0  0  0  0  0  0
  184.9300  178.2930  147.0320 N   0  0  0  0  0  2  0  0  0  0  0  0
  191.1670  176.1450  138.8780 C   0  0  0  0  0  2  0  0  0  0  0  0
  187.6840  178.5250  140.8170 C   0  0  0  0  0  2  0  0  0  0  0  0
  191.7200  176.9040  140.0360 C   0  0  0  0  0  0  0  0  0  0  0  0
  189.1170  178.5270  138.9680 C   0  0  0  0  0  2  0  0  0  0  0  0
  187.2880  178.2750  144.5660 C   0  0  0  0  0  2  0  0  0  0  0  0
  185.2660  179.1500  141.0650 C   0  0  0  0  0  2  0  0  0  0  0  0
  186.7060  179.6360  141.1680 C   0  0  0  0  0  2  0  0  0  0  0  0
  184.7530  178.2300  144.7520 C   0  0  2  0  0  3  0  0  0  0  0  0
  190.7780  177.0620  143.6430 C   0  0  0  0  0  2  0  0  0  0  0  0
  192.7670  177.5950  139.8930 O   0  0  0  0  0  0  0  0  0  0  0  0
  184.4350  179.0150  145.9300 N   0  0  0  0  0  2  0  0  0  0  0  0
  188.5000  177.3660  144.5610 C   0  0  0  0  0  2  0  0  0  0  0  0
  1 22  1  0  0  0  0
  2 17  1  1  0  0  0
  2 15  1  0  0  0  0
  3 14  1  0  0  0  0
  4  1  1  0  0  0  0
  5 18  1  1  0  0  0
  5  9  1  0  0  0  0
  6  7  1  0  0  0  0
  7  2  1  0  0  0  0
  8  3  1  1  0  0  0
  8  6  1  0  0  0  0
  8 17  1  0  0  0  0
  9 13  1  0  0  0  0
 10 22  1  0  0  0  0
 10 25  1  0  0  0  0
 12 11  1  0  0  0  0
 14 16  1  0  0  0  0
 15 20  1  0  0  0  0
 16  4  1  0  0  0  0
 19 20  1  0  0  0  0
 19 12  1  0  0  0  0
 21 11  1  6  0  0  0
 21  5  1  0  0  0  0
 21 24  1  0  0  0  0
 23 16  2  0  0  0  0
 24 13  1  0  0  0  0
 25 18  1  0  0  0  0
M  END
>  <MODEL>
4

>  <REMARK>
 VINA RESULT:      -7.3      2.534      4.156
  Name = 
  0 active torsions:
  status: ('A' for Active; 'I' for Inactive)
                            x       y       z     vdW  Elec       q    Type
                         _______ _______ _______ _____ _____    ______ ____

>  <TORSDO>
F 0

$$$$
=
 OpenBabel11062418103D

 25 27  0  0  1  0  0  0  0  0999 V2000
  189.6220  177.6910  139.4270 C   0  0  0  0  0  2  0  0  0  0  0  0
  184.8300  177.8510  137.7750 N   0  0  1  0  0  0  0  0  0  0  0  0
  187.2970  176.4860  135.3900 C   0  0  0  0  0  2  0  0  0  0  0  0
  188.7850  176.8740  138.6190 O   0  0  0  0  0  0  0  0  0  0  0  0
  185.2150  177.9550  143.7440 C   0  0  2  0  0  3  0  0  0  0  0  0
  185.1380  175.8120  136.5360 C   0  0  0  0  0  2  0  0  0  0  0  0
  184.6180  176.4110  137.8290 C   0  0  0  0  0  2  0  0  0  0  0  0
  185.9150  176.9270  135.8740 C   0  0  1  0  0  3  0  0  0  0  0  0
  185.7160  178.2050  145.1450 C   0  0  0  0  0  2  0  0  0  0  0  0
  187.9690  178.3230  141.1620 C   0  0  0  0  0  2  0  0  0  0  0  0
  183.3070  179.1680  142.5110 C   0  0  0  0  0  2  0  0  0  0  0  0
  183.1240  178.1220  141.4220 C   0  0  0  0  0  2  0  0  0  0  0  0
  184.7130  179.0030  145.8450 N   0  0  0  0  0  2  0  0  0  0  0  0
  188.1420  175.8040  136.4650 C   0  0  0  0  0  2  0  0  0  0  0  0
  185.2360  178.2810  139.1020 C   0  0  0  0  0  2  0  0  0  0  0  0
  188.9530  176.7880  137.2370 C   0  0  0  0  0  0  0  0  0  0  0  0
  185.9730  178.0370  136.8960 C   0  0  0  0  0  2  0  0  0  0  0  0
  186.1200  178.6830  142.7530 C   0  0  0  0  0  2  0  0  0  0  0  0
  182.9760  178.7970  140.0670 C   0  0  0  0  0  2  0  0  0  0  0  0
  184.3040  179.3780  139.5980 C   0  0  0  0  0  2  0  0  0  0  0  0
  183.8090  178.5230  143.8000 C   0  0  2  0  0  3  0  0  0  0  0  0
  189.2310  177.5330  140.8830 C   0  0  0  0  0  2  0  0  0  0  0  0
  189.8070  177.5030  136.6440 O   0  0  0  0  0  0  0  0  0  0  0  0
  183.8050  179.4850  144.8850 N   0  0  0  0  0  2  0  0  0  0  0  0
  187.3600  177.8610  142.4690 C   0  0  0  0  0  2  0  0  0  0  0  0
  1 22  1  0  0  0  0
  2 17  1  6  0  0  0
  2  7  1  0  0  0  0
  2 15  1  0  0  0  0
  3 14  1  0  0  0  0
  4  1  1  0  0  0  0
  5 18  1  6  0  0  0
  5 21  1  0  0  0  0
  5  9  1  0  0  0  0
  6  7  1  0  0  0  0
  8  3  1  1  0  0  0
  8  6  1  0  0  0  0
  8 17  1  0  0  0  0
  9 13  1  0  0  0  0
 10 25  1  0  0  0  0
 12 11  1  0  0  0  0
 14 16  1  0  0  0  0
 15 20  1  0  0  0  0
 16  4  1  0  0  0  0
 19 12  1  0  0  0  0
 20 19  1  0  0  0  0
 21 11  1  6  0  0  0
 21 24  1  0  0  0  0
 22 10  1  0  0  0  0
 23 16  2  0  0  0  0
 24 13  1  0  0  0  0
 25 18  1  0  0  0  0
M  END
>  <MODEL>
5

>  <REMARK>
 VINA RESULT:      -7.3      2.132      3.534
  Name = 
  0 active torsions:
  status: ('A' for Active; 'I' for Inactive)
                            x       y       z     vdW  Elec       q    Type
                         _______ _______ _______ _____ _____    ______ ____

>  <TORSDO>
F 0

$$$$
=
 OpenBabel11062418103D

 25 27  0  0  1  0  0  0  0  0999 V2000
  185.1430  178.5100  146.9480 C   0  0  0  0  0  2  0  0  0  0  0  0
  187.0870  177.3640  142.4060 N   0  0  1  0  0  0  0  0  0  0  0  0
  183.9490  179.3110  142.3560 C   0  0  0  0  0  2  0  0  0  0  0  0
  185.2500  179.1510  145.6840 O   0  0  0  0  0  0  0  0  0  0  0  0
  191.1630  177.1490  146.7790 C   0  0  2  0  0  3  0  0  0  0  0  0
  186.3330  179.4610  141.5000 C   0  0  0  0  0  2  0  0  0  0  0  0
  187.5160  178.7210  142.0940 C   0  0  0  0  0  2  0  0  0  0  0  0
  185.1430  178.5650  141.7570 C   0  0  1  0  0  3  0  0  0  0  0  0
  191.8100  176.9680  148.1310 C   0  0  0  0  0  2  0  0  0  0  0  0
  187.3940  177.4760  147.0370 C   0  0  0  0  0  2  0  0  0  0  0  0
  191.3200  175.5910  144.7350 C   0  0  0  0  0  2  0  0  0  0  0  0
  190.8280  176.6070  143.7150 C   0  0  0  0  0  2  0  0  0  0  0  0
  192.8470  175.9490  148.0010 N   0  0  0  0  0  2  0  0  0  0  0  0
  184.2910  180.1260  143.6030 C   0  0  0  0  0  2  0  0  0  0  0  0
  187.7110  176.9890  143.6640 C   0  0  0  0  0  2  0  0  0  0  0  0
  184.1470  179.3170  144.8470 C   0  0  0  0  0  0  0  0  0  0  0  0
  185.6560  177.4600  142.6500 C   0  0  0  0  0  2  0  0  0  0  0  0
  189.7160  176.6690  146.8490 C   0  0  0  0  0  2  0  0  0  0  0  0
  189.8220  175.9610  142.7750 C   0  0  0  0  0  2  0  0  0  0  0  0
  188.5000  175.7000  143.4860 C   0  0  0  0  0  2  0  0  0  0  0  0
  192.0380  176.2870  145.8880 C   0  0  2  0  0  3  0  0  0  0  0  0
  186.4910  178.5310  147.6420 C   0  0  0  0  0  2  0  0  0  0  0  0
  183.0250  178.8260  145.1510 O   0  0  0  0  0  0  0  0  0  0  0  0
  192.6650  175.3120  146.7590 N   0  0  0  0  0  2  0  0  0  0  0  0
  188.8290  177.7510  147.4310 C   0  0  0  0  0  2  0  0  0  0  0  0
  1 22  1  0  0  0  0
  2  7  1  1  0  0  0
  2 17  1  0  0  0  0
  2 15  1  0  0  0  0
  3 14  1  0  0  0  0
  4  1  1  0  0  0  0
  5 18  1  1  0  0  0
  5  9  1  0  0  0  0
  6  7  1  0  0  0  0
  8  6  1  1  0  0  0
  8  3  1  0  0  0  0
  8 17  1  0  0  0  0
 10 25  1  0  0  0  0
 10 22  1  0  0  0  0
 12 11  1  0  0  0  0
 13  9  1  0  0  0  0
 14 16  1  0  0  0  0
 16 23  2  0  0  0  0
 16  4  1  0  0  0  0
 18 25  1  0  0  0  0
 19 20  1  0  0  0  0
 19 12  1  0  0  0  0
 20 15  1  0  0  0  0
 21 11  1  6  0  0  0
 21 24  1  0  0  0  0
 21  5  1  0  0  0  0
 24 13  1  0  0  0  0
M  END
>  <MODEL>
6

>  <REMARK>
 VINA RESULT:      -7.2      3.386      5.533
  Name = 
  0 active torsions:
  status: ('A' for Active; 'I' for Inactive)
                            x       y       z     vdW  Elec       q    Type
                         _______ _______ _______ _____ _____    ______ ____

>  <TORSDO>
F 0

$$$$
=
 OpenBabel11062418103D

 25 27  0  0  1  0  0  0  0  0999 V2000
  185.4290  179.1780  144.3750 C   0  0  0  0  0  2  0  0  0  0  0  0
  190.1930  177.9300  145.5860 N   0  0  1  0  0  0  0  0  0  0  0  0
  187.8100  178.0630  148.4050 C   0  0  0  0  0  2  0  0  0  0  0  0
  186.0590  178.2970  145.2950 O   0  0  0  0  0  0  0  0  0  0  0  0
  188.9500  176.9530  139.8170 C   0  0  2  0  0  3  0  0  0  0  0  0
  189.4170  176.4370  147.3050 C   0  0  0  0  0  2  0  0  0  0  0  0
  189.9000  176.5320  145.8700 C   0  0  0  0  0  2  0  0  0  0  0  0
  189.1680  177.8670  147.7290 C   0  0  1  0  0  3  0  0  0  0  0  0
  188.3520  177.0770  138.4370 C   0  0  0  0  0  2  0  0  0  0  0  0
  186.9100  178.8050  142.4230 C   0  0  0  0  0  2  0  0  0  0  0  0
  191.3190  177.6190  140.5750 C   0  0  0  0  0  2  0  0  0  0  0  0
  191.3080  176.8220  141.8700 C   0  0  0  0  0  2  0  0  0  0  0  0
  189.4430  177.2990  137.4920 N   0  0  0  0  0  2  0  0  0  0  0  0
  186.6310  177.5280  147.5940 C   0  0  0  0  0  2  0  0  0  0  0  0
  189.7550  178.2000  144.2270 C   0  0  0  0  0  2  0  0  0  0  0  0
  186.0870  178.5600  146.6640 C   0  0  0  0  0  0  0  0  0  0  0  0
  189.3280  178.6920  146.4740 C   0  0  0  0  0  2  0  0  0  0  0  0
  188.5050  178.1430  140.6620 C   0  0  0  0  0  2  0  0  0  0  0  0
  191.8800  177.6580  143.0050 C   0  0  0  0  0  2  0  0  0  0  0  0
  190.9110  178.7610  143.4130 C   0  0  0  0  0  2  0  0  0  0  0  0
  190.4390  176.9510  139.5220 C   0  0  2  0  0  3  0  0  0  0  0  0
  185.5160  178.5980  142.9770 C   0  0  0  0  0  2  0  0  0  0  0  0
  185.6230  179.6390  147.1250 O   0  0  0  0  0  0  0  0  0  0  0  0
  190.5970  177.6050  138.2370 N   0  0  0  0  0  2  0  0  0  0  0  0
  187.1210  177.9000  141.2280 C   0  0  0  0  0  2  0  0  0  0  0  0
  1  4  1  0  0  0  0
  2 15  1  6  0  0  0
  2  7  1  0  0  0  0
  2 17  1  0  0  0  0
  4 16  1  0  0  0  0
  5  9  1  6  0  0  0
  5 18  1  0  0  0  0
  6  8  1  0  0  0  0
  7  6  1  0  0  0  0
  8 17  1  6  0  0  0
  8  3  1  0  0  0  0
 10 22  1  0  0  0  0
 11 12  1  0  0  0  0
 12 19  1  0  0  0  0
 13 24  1  0  0  0  0
 13  9  1  0  0  0  0
 14  3  1  0  0  0  0
 16 23  2  0  0  0  0
 16 14  1  0  0  0  0
 18 25  1  0  0  0  0
 19 20  1  0  0  0  0
 20 15  1  0  0  0  0
 21  5  1  0  0  0  0
 21 11  1  1  0  0  0
 22  1  1  0  0  0  0
 24 21  1  0  0  0  0
 25 10  1  0  0  0  0
M  END
>  <MODEL>
7

>  <REMARK>
 VINA RESULT:      -7.1      3.324      7.766
  Name = 
  0 active torsions:
  status: ('A' for Active; 'I' for Inactive)
                            x       y       z     vdW  Elec       q    Type
                         _______ _______ _______ _____ _____    ______ ____

>  <TORSDO>
F 0

$$$$
=
 OpenBabel11062418103D

 25 27  0  0  1  0  0  0  0  0999 V2000
  184.0520  178.0020  141.1760 C   0  0  0  0  0  2  0  0  0  0  0  0
  189.0020  177.2260  140.3980 N   0  0  1  0  0  0  0  0  0  0  0  0
  187.0480  178.1840  137.4150 C   0  0  0  0  0  2  0  0  0  0  0  0
  185.0680  178.5790  140.3670 O   0  0  0  0  0  0  0  0  0  0  0  0
  187.7270  178.4210  146.1190 C   0  0  2  0  0  3  0  0  0  0  0  0
  189.0650  178.9670  138.7390 C   0  0  0  0  0  2  0  0  0  0  0  0
  189.3310  178.6300  140.1940 C   0  0  0  0  0  2  0  0  0  0  0  0
  188.2980  177.7810  138.1980 C   0  0  1  0  0  3  0  0  0  0  0  0
  187.0030  178.5050  147.4410 C   0  0  0  0  0  2  0  0  0  0  0  0
  185.3650  177.6650  143.2500 C   0  0  0  0  0  2  0  0  0  0  0  0
  189.6810  176.8690  145.4870 C   0  0  0  0  0  2  0  0  0  0  0  0
  190.1170  177.6450  144.2540 C   0  0  0  0  0  2  0  0  0  0  0  0
  187.8160  177.8210  148.4420 N   0  0  0  0  0  2  0  0  0  0  0  0
  186.1170  179.1270  138.1760 C   0  0  0  0  0  2  0  0  0  0  0  0
  188.3680  177.1120  141.7000 C   0  0  0  0  0  2  0  0  0  0  0  0
  185.1160  178.3760  138.9880 C   0  0  0  0  0  0  0  0  0  0  0  0
  187.9910  176.9190  139.4000 C   0  0  0  0  0  2  0  0  0  0  0  0
  186.9190  177.5500  145.1620 C   0  0  0  0  0  2  0  0  0  0  0  0
  190.4040  176.6890  143.1060 C   0  0  0  0  0  2  0  0  0  0  0  0
  189.1140  176.0970  142.5530 C   0  0  0  0  0  2  0  0  0  0  0  0
  189.0530  177.8020  146.5190 C   0  0  2  0  0  3  0  0  0  0  0  0
  184.2340  178.4450  142.6140 C   0  0  0  0  0  2  0  0  0  0  0  0
  184.2990  177.6000  138.4200 O   0  0  0  0  0  0  0  0  0  0  0  0
  188.8110  177.0950  147.7620 N   0  0  0  0  0  2  0  0  0  0  0  0
  185.8130  178.3600  144.5170 C   0  0  0  0  0  2  0  0  0  0  0  0
  1 22  1  0  0  0  0
  2 17  1  6  0  0  0
  2 15  1  0  0  0  0
  3 14  1  0  0  0  0
  4  1  1  0  0  0  0
  5 18  1  6  0  0  0
  5 21  1  0  0  0  0
  5  9  1  0  0  0  0
  6  7  1  0  0  0  0
  7  2  1  0  0  0  0
  8  3  1  1  0  0  0
  8  6  1  0  0  0  0
  8 17  1  0  0  0  0
  9 13  1  0  0  0  0
 10 25  1  0  0  0  0
 12 11  1  0  0  0  0
 14 16  1  0  0  0  0
 15 20  1  0  0  0  0
 16  4  1  0  0  0  0
 19 12  1  0  0  0  0
 20 19  1  0  0  0  0
 21 11  1  6  0  0  0
 21 24  1  0  0  0  0
 22 10  1  0  0  0  0
 23 16  2  0  0  0  0
 24 13  1  0  0  0  0
 25 18  1  0  0  0  0
M  END
>  <MODEL>
8

>  <REMARK>
 VINA RESULT:      -7.1      1.861      4.076
  Name = 
  0 active torsions:
  status: ('A' for Active; 'I' for Inactive)
                            x       y       z     vdW  Elec       q    Type
                         _______ _______ _______ _____ _____    ______ ____

>  <TORSDO>
F 0

$$$$
=
 OpenBabel11062418103D

 25 27  0  0  1  0  0  0  0  0999 V2000
  190.8970  177.0220  139.9470 C   0  0  0  0  0  2  0  0  0  0  0  0
  186.7230  176.9500  137.0680 N   0  0  1  0  0  0  0  0  0  0  0  0
  189.6840  175.2720  135.6320 C   0  0  0  0  0  2  0  0  0  0  0  0
  190.2750  176.1020  139.0600 O   0  0  0  0  0  0  0  0  0  0  0  0
  185.5160  177.8760  142.8530 C   0  0  2  0  0  3  0  0  0  0  0  0
  187.2740  174.7600  136.2380 C   0  0  0  0  0  2  0  0  0  0  0  0
  186.4530  175.5310  137.2540 C   0  0  0  0  0  2  0  0  0  0  0  0
  188.2390  175.7740  135.6660 C   0  0  1  0  0  3  0  0  0  0  0  0
  185.6370  178.3170  144.2910 C   0  0  0  0  0  2  0  0  0  0  0  0
  188.8670  177.8860  141.0770 C   0  0  0  0  0  2  0  0  0  0  0  0
  184.0490  178.9060  141.0050 C   0  0  0  0  0  2  0  0  0  0  0  0
  184.1230  177.7200  140.0560 C   0  0  0  0  0  2  0  0  0  0  0  0
  184.5140  179.2020  144.5850 N   0  0  0  0  0  2  0  0  0  0  0  0
  190.1880  174.7440  136.9750 C   0  0  0  0  0  2  0  0  0  0  0  0
  186.7780  177.5600  138.3850 C   0  0  0  0  0  2  0  0  0  0  0  0
  190.8000  175.8270  137.7980 C   0  0  0  0  0  0  0  0  0  0  0  0
  188.0650  177.0150  136.5090 C   0  0  0  0  0  2  0  0  0  0  0  0
  186.6770  178.4610  142.0530 C   0  0  0  0  0  2  0  0  0  0  0  0
  184.3630  178.2020  138.6330 C   0  0  0  0  0  2  0  0  0  0  0  0
  185.7890  178.7130  138.4640 C   0  0  0  0  0  2  0  0  0  0  0  0
  184.1670  178.4450  142.4550 C   0  0  2  0  0  3  0  0  0  0  0  0
  190.1290  177.0670  141.2530 C   0  0  0  0  0  2  0  0  0  0  0  0
  191.8060  176.4530  137.3660 O   0  0  0  0  0  0  0  0  0  0  0  0
  183.9100  179.5470  143.3620 N   0  0  0  0  0  2  0  0  0  0  0  0
  187.9170  177.6080  142.2220 C   0  0  0  0  0  2  0  0  0  0  0  0
  1 22  1  0  0  0  0
  2 17  1  1  0  0  0
  2  7  1  0  0  0  0
  2 15  1  0  0  0  0
  3 14  1  0  0  0  0
  4  1  1  0  0  0  0
  5 18  1  6  0  0  0
  5  9  1  0  0  0  0
  6  7  1  0  0  0  0
  8  3  1  1  0  0  0
  8  6  1  0  0  0  0
  8 17  1  0  0  0  0
  9 13  1  0  0  0  0
 10 22  1  0  0  0  0
 10 25  1  0  0  0  0
 12 11  1  0  0  0  0
 14 16  1  0  0  0  0
 15 20  1  0  0  0  0
 16  4  1  0  0  0  0
 18 25  1  0  0  0  0
 19 12  1  0  0  0  0
 20 19  1  0  0  0  0
 21 11  1  6  0  0  0
 21  5  1  0  0  0  0
 21 24  1  0  0  0  0
 23 16  2  0  0  0  0
 24 13  1  0  0  0  0
M  END
>  <MODEL>
9

>  <REMARK>
 VINA RESULT:      -6.7      2.762      4.797
  Name = 
  0 active torsions:
  status: ('A' for Active; 'I' for Inactive)
                            x       y       z     vdW  Elec       q    Type
                         _______ _______ _______ _____ _____    ______ ____

>  <TORSDO>
F 0

$$$$
