=
 OpenBabel11062413003D

 38 40  0  0  1  0  0  0  0  0999 V2000
  185.3930  178.2400  142.1920 C   0  0  0  0  0  0  0  0  0  0  0  0
  184.1300  178.4860  144.2710 C   0  0  0  0  0  2  0  0  0  0  0  0
  186.5640  178.4110  141.5670 C   0  0  0  0  0  3  0  0  0  0  0  0
  187.8020  178.7590  142.3340 C   0  0  1  0  0  3  0  0  0  0  0  0
  185.3110  178.3060  143.6830 C   0  0  0  0  0  0  0  0  0  0  0  0
  186.5870  178.4050  144.5090 C   0  0  2  0  0  3  0  0  0  0  0  0
  187.7970  178.0350  143.6630 C   0  0  0  0  0  0  0  0  0  0  0  0
  188.5420  176.9500  143.9630 C   0  0  0  0  0  3  0  0  0  0  0  0
  186.4760  177.7610  145.9080 C   0  0  0  0  0  3  0  0  0  0  0  0
  185.5590  178.5520  146.8240 C   0  0  0  0  0  1  0  0  0  0  0  0
  187.8250  177.5190  146.5690 C   0  0  0  0  0  1  0  0  0  0  0  0
  189.3200  175.0290  142.8340 O   0  0  0  0  0  1  0  0  0  0  0  0
  189.6300  176.3560  143.1230 C   0  0  2  0  0  3  0  0  0  0  0  0
  191.7230  175.4310  143.7830 O   0  0  0  0  0  0  0  0  0  0  0  0
  190.9440  176.4170  143.8310 C   0  0  0  0  0  0  0  0  0  0  0  0
  191.2810  177.5240  144.6010 O   0  0  0  0  0  1  0  0  0  0  0  0
  189.0570  178.6860  141.4790 C   0  0  0  0  0  2  0  0  0  0  0  0
  188.7550  179.1240  139.0450 O   0  0  0  0  0  0  0  0  0  0  0  0
  188.7040  178.2300  140.1060 C   0  0  0  0  0  0  0  0  0  0  0  0
  188.4080  177.0260  139.8980 O   0  0  0  0  0  1  0  0  0  0  0  0
  184.1890  177.9380  141.3600 C   0  0  0  0  0  2  0  0  0  0  0  0
  183.8860  179.0770  140.4380 C   0  0  0  0  0  3  0  0  0  0  0  0
  184.0310  179.0280  139.1450 N   0  0  0  0  0  0  0  0  0  0  0  0
  185.8000  178.0010  137.7240 C   0  0  0  0  0  3  0  0  0  0  0  0
  184.5490  177.9440  138.3530 C   0  0  0  0  0  0  0  0  0  0  0  0
  185.4150  175.8270  136.7650 C   0  0  0  0  0  3  0  0  0  0  0  0
  184.1960  175.7890  137.3670 N   0  0  0  0  0  0  0  0  0  0  0  0
  183.7510  176.8150  138.1450 C   0  0  0  0  0  3  0  0  0  0  0  0
  186.2390  176.9400  136.9340 C   0  0  0  0  0  0  0  0  0  0  0  0
  187.5000  177.0150  136.2790 N   0  0  0  0  0  0  0  0  0  0  0  0
  188.7670  176.3910  135.7980 C   0  0  1  0  0  3  0  0  0  0  0  0
  188.6090  177.7470  135.6010 C   0  0  0  0  0  2  0  0  0  0  0  0
  189.6690  176.1300  136.9900 C   0  0  0  0  0  2  0  0  0  0  0  0
  190.8150  176.9260  136.9000 O   0  0  0  0  0  0  0  0  0  0  0  0
  191.7690  174.5680  138.0380 O   0  0  0  0  0  1  0  0  0  0  0  0
  191.6930  176.8210  139.3720 O   0  0  0  0  0  1  0  0  0  0  0  0
  191.9270  176.2520  137.9910 P   0  0  0  0  0  0  0  0  0  0  0  0
  193.4960  176.6380  137.4910 O   0  0  0  0  0  0  0  0  0  0  0  0
  1  5  1  0  0  0  0
  3  1  2  0  0  0  0
  3  4  1  0  0  0  0
  4 17  1  6  0  0  0
  4  7  1  0  0  0  0
  5  2  2  0  0  0  0
  5  6  1  0  0  0  0
  6  9  1  1  0  0  0
  7  8  2  0  0  0  0
  7  6  1  0  0  0  0
  9 11  1  0  0  0  0
  9 10  1  0  0  0  0
 13 12  1  1  0  0  0
 13 15  1  0  0  0  0
 13  8  1  0  0  0  0
 14 15  2  0  0  0  0
 15 16  1  0  0  0  0
 18 19  2  0  0  0  0
 19 17  1  0  0  0  0
 20 19  1  0  0  0  0
 21  1  1  0  0  0  0
 22 21  1  0  0  0  0
 23 22  2  0  0  0  0
 24 25  1  0  0  0  0
 25 23  1  0  0  0  0
 26 29  1  0  0  0  0
 26 27  2  0  0  0  0
 27 28  1  0  0  0  0
 28 25  2  0  0  0  0
 29 24  2  0  0  0  0
 30 29  1  0  0  0  0
 31 30  1  0  0  0  0
 31 33  1  1  0  0  0
 32 31  1  0  0  0  0
 32 30  1  0  0  0  0
 34 33  1  0  0  0  0
 34 37  1  0  0  0  0
 37 35  1  0  0  0  0
 37 36  1  0  0  0  0
 38 37  2  0  0  0  0
M  END
>  <MODEL>
1

>  <REMARK>
 VINA RESULT:      -7.5      0.000      0.000
  Name = 
  12 active torsions:
  status: ('A' for Active; 'I' for Inactive)
    1  A    between atoms: C_1  and  C_15
    2  A    between atoms: N_4  and  C_32
    3  A    between atoms: C_6  and  N_21
    4  A    between atoms: C_7  and  C_20
    5  A    between atoms: C_7  and  C_29
    6  A    between atoms: C_8  and  C_19
    7  A    between atoms: C_8  and  O_34
    8  A    between atoms: C_11  and  C_15
    9  A    between atoms: C_13  and  C_18
   10  A    between atoms: C_17  and  C_25
   11  A    between atoms: C_18  and  C_38
   12  A    between atoms: O_34  and  P_35
                            x       y       z     vdW  Elec       q    Type
                         _______ _______ _______ _____ _____    ______ ____

>  <TORSDO>
F 12

$$$$
=
 OpenBabel11062413003D

 38 40  0  0  1  0  0  0  0  0999 V2000
  190.6940  176.9410  140.4270 C   0  0  0  0  0  0  0  0  0  0  0  0
  193.1060  177.1620  140.0930 C   0  0  0  0  0  2  0  0  0  0  0  0
  189.4770  177.0000  139.8730 C   0  0  0  0  0  3  0  0  0  0  0  0
  189.3120  177.0860  138.3870 C   0  0  1  0  0  3  0  0  0  0  0  0
  191.9170  176.8700  139.5700 C   0  0  0  0  0  0  0  0  0  0  0  0
  191.7770  176.7000  138.0630 C   0  0  2  0  0  3  0  0  0  0  0  0
  190.3690  176.2430  137.7080 C   0  0  0  0  0  0  0  0  0  0  0  0
  190.1580  175.0370  137.1400 C   0  0  0  0  0  3  0  0  0  0  0  0
  192.9540  175.9430  137.4090 C   0  0  0  0  0  3  0  0  0  0  0  0
  193.0100  176.1740  135.9090 C   0  0  0  0  0  1  0  0  0  0  0  0
  192.9690  174.4560  137.7290 C   0  0  0  0  0  1  0  0  0  0  0  0
  188.9220  173.0300  137.2640 O   0  0  0  0  0  1  0  0  0  0  0  0
  188.8340  174.3760  136.9160 C   0  0  2  0  0  3  0  0  0  0  0  0
  189.2870  174.6560  134.5940 O   0  0  0  0  0  0  0  0  0  0  0  0
  188.4150  174.4930  135.4870 C   0  0  0  0  0  0  0  0  0  0  0  0
  187.0680  174.4960  135.1430 O   0  0  0  0  0  1  0  0  0  0  0  0
  187.8650  176.9160  137.9510 C   0  0  0  0  0  2  0  0  0  0  0  0
  186.5190  178.6290  139.1580 O   0  0  0  0  0  1  0  0  0  0  0  0
  187.1670  178.2300  137.9980 C   0  0  0  0  0  0  0  0  0  0  0  0
  187.2070  179.0010  137.0050 O   0  0  0  0  0  0  0  0  0  0  0  0
  190.7870  176.9010  141.9180 C   0  0  0  0  0  2  0  0  0  0  0  0
  191.5420  178.0880  142.4300 C   0  0  0  0  0  3  0  0  0  0  0  0
  191.5740  178.4480  143.6810 N   0  0  0  0  0  0  0  0  0  0  0  0
  189.5180  178.0920  145.0400 C   0  0  0  0  0  3  0  0  0  0  0  0
  190.8760  177.8560  144.7910 C   0  0  0  0  0  0  0  0  0  0  0  0
  189.6450  176.7340  147.0230 C   0  0  0  0  0  3  0  0  0  0  0  0
  190.9670  176.5250  146.7810 N   0  0  0  0  0  0  0  0  0  0  0  0
  191.5900  177.0660  145.6980 C   0  0  0  0  0  3  0  0  0  0  0  0
  188.8970  177.5270  146.1520 C   0  0  0  0  0  0  0  0  0  0  0  0
  187.5240  177.7920  146.4110 N   0  0  0  0  0  0  0  0  0  0  0  0
  186.0760  177.6630  146.0700 C   0  0  1  0  0  3  0  0  0  0  0  0
  186.4080  178.4350  147.1640 C   0  0  0  0  0  2  0  0  0  0  0  0
  185.7730  178.5430  144.8720 C   0  0  0  0  0  2  0  0  0  0  0  0
  185.5150  177.7470  143.7520 O   0  0  0  0  0  0  0  0  0  0  0  0
  183.9220  177.7800  141.4660 O   0  0  0  0  0  0  0  0  0  0  0  0
  185.4630  179.7960  142.1110 O   0  0  0  0  0  1  0  0  0  0  0  0
  184.5910  178.7140  142.7070 P   0  0  0  0  0  0  0  0  0  0  0  0
  183.3360  179.4330  143.5840 O   0  0  0  0  0  1  0  0  0  0  0  0
  1 21  1  0  0  0  0
  3  1  2  0  0  0  0
  4 17  1  1  0  0  0
  4  3  1  0  0  0  0
  5  2  2  0  0  0  0
  5  1  1  0  0  0  0
  6  9  1  1  0  0  0
  6  5  1  0  0  0  0
  7  6  1  0  0  0  0
  7  4  1  0  0  0  0
  8  7  2  0  0  0  0
  9 11  1  0  0  0  0
 10  9  1  0  0  0  0
 13  8  1  0  0  0  0
 13 12  1  6  0  0  0
 14 15  2  0  0  0  0
 15 13  1  0  0  0  0
 16 15  1  0  0  0  0
 17 19  1  0  0  0  0
 19 18  1  0  0  0  0
 20 19  2  0  0  0  0
 21 22  1  0  0  0  0
 22 23  2  0  0  0  0
 23 25  1  0  0  0  0
 24 29  1  0  0  0  0
 25 24  2  0  0  0  0
 25 28  1  0  0  0  0
 27 26  1  0  0  0  0
 28 27  2  0  0  0  0
 29 30  1  0  0  0  0
 29 26  2  0  0  0  0
 30 32  1  0  0  0  0
 31 33  1  6  0  0  0
 31 30  1  0  0  0  0
 31 32  1  0  0  0  0
 34 33  1  0  0  0  0
 35 37  2  0  0  0  0
 36 37  1  0  0  0  0
 37 38  1  0  0  0  0
 37 34  1  0  0  0  0
M  END
>  <MODEL>
2

>  <REMARK>
 VINA RESULT:      -7.4      4.139      8.748
  Name = 
  12 active torsions:
  status: ('A' for Active; 'I' for Inactive)
    1  A    between atoms: C_1  and  C_15
    2  A    between atoms: N_4  and  C_32
    3  A    between atoms: C_6  and  N_21
    4  A    between atoms: C_7  and  C_20
    5  A    between atoms: C_7  and  C_29
    6  A    between atoms: C_8  and  C_19
    7  A    between atoms: C_8  and  O_34
    8  A    between atoms: C_11  and  C_15
    9  A    between atoms: C_13  and  C_18
   10  A    between atoms: C_17  and  C_25
   11  A    between atoms: C_18  and  C_38
   12  A    between atoms: O_34  and  P_35
                            x       y       z     vdW  Elec       q    Type
                         _______ _______ _______ _____ _____    ______ ____

>  <TORSDO>
F 12

$$$$
=
 OpenBabel11062413003D

 38 40  0  0  1  0  0  0  0  0999 V2000
  189.9960  177.3820  140.2430 C   0  0  0  0  0  0  0  0  0  0  0  0
  192.4380  177.4660  140.3240 C   0  0  0  0  0  2  0  0  0  0  0  0
  188.8990  177.4070  139.4760 C   0  0  0  0  0  3  0  0  0  0  0  0
  189.0000  177.2890  137.9860 C   0  0  1  0  0  3  0  0  0  0  0  0
  191.3420  177.1480  139.6380 C   0  0  0  0  0  0  0  0  0  0  0  0
  191.4560  176.7720  138.1670 C   0  0  2  0  0  3  0  0  0  0  0  0
  190.1070  176.3210  137.6270 C   0  0  0  0  0  0  0  0  0  0  0  0
  189.9250  175.0560  137.1940 C   0  0  0  0  0  3  0  0  0  0  0  0
  192.6810  175.8890  137.8410 C   0  0  0  0  0  3  0  0  0  0  0  0
  193.4690  176.4290  136.6600 C   0  0  0  0  0  1  0  0  0  0  0  0
  192.3300  174.4240  137.6330 C   0  0  0  0  0  1  0  0  0  0  0  0
  188.6490  173.0700  137.1730 O   0  0  0  0  0  1  0  0  0  0  0  0
  188.6220  174.4190  136.8230 C   0  0  2  0  0  3  0  0  0  0  0  0
  189.2870  174.9340  134.5940 O   0  0  0  0  0  0  0  0  0  0  0  0
  188.3640  174.5480  135.3570 C   0  0  0  0  0  0  0  0  0  0  0  0
  187.0950  174.3130  134.8400 O   0  0  0  0  0  1  0  0  0  0  0  0
  187.6440  177.1120  137.3230 C   0  0  0  0  0  2  0  0  0  0  0  0
  186.9080  178.0260  135.1250 O   0  0  0  0  0  0  0  0  0  0  0  0
  187.3770  178.2590  136.4110 C   0  0  0  0  0  0  0  0  0  0  0  0
  187.5280  179.4380  136.8190 O   0  0  0  0  0  1  0  0  0  0  0  0
  189.8260  177.5490  141.7190 C   0  0  0  0  0  2  0  0  0  0  0  0
  190.0260  176.2430  142.4220 C   0  0  0  0  0  3  0  0  0  0  0  0
  189.4170  175.9070  143.5230 N   0  0  0  0  0  0  0  0  0  0  0  0
  187.3070  177.2020  143.7940 C   0  0  0  0  0  3  0  0  0  0  0  0
  188.5080  176.6970  144.3090 C   0  0  0  0  0  0  0  0  0  0  0  0
  186.8660  178.2970  145.8910 C   0  0  0  0  0  3  0  0  0  0  0  0
  188.0420  177.8150  146.3770 N   0  0  0  0  0  0  0  0  0  0  0  0
  188.8620  177.0350  145.6200 C   0  0  0  0  0  3  0  0  0  0  0  0
  186.4800  177.9960  144.5840 C   0  0  0  0  0  0  0  0  0  0  0  0
  185.2740  178.5240  144.0450 N   0  0  0  0  0  0  0  0  0  0  0  0
  184.0320  178.3880  143.2290 C   0  0  1  0  0  3  0  0  0  0  0  0
  184.2940  179.6200  143.7920 C   0  0  0  0  0  2  0  0  0  0  0  0
  184.4080  178.3870  141.7590 C   0  0  0  0  0  2  0  0  0  0  0  0
  183.3250  178.8280  140.9930 O   0  0  0  0  0  0  0  0  0  0  0  0
  183.5620  180.7010  138.9430 O   0  0  0  0  0  1  0  0  0  0  0  0
  183.3940  178.1320  138.4620 O   0  0  0  0  0  0  0  0  0  0  0  0
  183.9540  179.1340  139.4460 P   0  0  0  0  0  0  0  0  0  0  0  0
  185.6380  178.9830  139.4940 O   0  0  0  0  0  1  0  0  0  0  0  0
  1 21  1  0  0  0  0
  3  1  2  0  0  0  0
  4 17  1  1  0  0  0
  4  3  1  0  0  0  0
  5  1  1  0  0  0  0
  5  2  2  0  0  0  0
  6  9  1  1  0  0  0
  6  5  1  0  0  0  0
  7  4  1  0  0  0  0
  7  6  1  0  0  0  0
  8  7  2  0  0  0  0
 10  9  1  0  0  0  0
 11  9  1  0  0  0  0
 13 12  1  6  0  0  0
 13  8  1  0  0  0  0
 14 15  2  0  0  0  0
 15 13  1  0  0  0  0
 16 15  1  0  0  0  0
 18 19  2  0  0  0  0
 19 20  1  0  0  0  0
 19 17  1  0  0  0  0
 21 22  1  0  0  0  0
 22 23  2  0  0  0  0
 23 25  1  0  0  0  0
 24 25  2  0  0  0  0
 24 29  1  0  0  0  0
 25 28  1  0  0  0  0
 26 27  1  0  0  0  0
 28 27  2  0  0  0  0
 29 26  2  0  0  0  0
 30 29  1  0  0  0  0
 31 33  1  6  0  0  0
 31 32  1  0  0  0  0
 31 30  1  0  0  0  0
 32 30  1  0  0  0  0
 34 33  1  0  0  0  0
 35 37  1  0  0  0  0
 36 37  2  0  0  0  0
 37 38  1  0  0  0  0
 37 34  1  0  0  0  0
M  END
>  <MODEL>
3

>  <REMARK>
 VINA RESULT:      -7.3      3.777      8.040
  Name = 
  12 active torsions:
  status: ('A' for Active; 'I' for Inactive)
    1  A    between atoms: C_1  and  C_15
    2  A    between atoms: N_4  and  C_32
    3  A    between atoms: C_6  and  N_21
    4  A    between atoms: C_7  and  C_20
    5  A    between atoms: C_7  and  C_29
    6  A    between atoms: C_8  and  C_19
    7  A    between atoms: C_8  and  O_34
    8  A    between atoms: C_11  and  C_15
    9  A    between atoms: C_13  and  C_18
   10  A    between atoms: C_17  and  C_25
   11  A    between atoms: C_18  and  C_38
   12  A    between atoms: O_34  and  P_35
                            x       y       z     vdW  Elec       q    Type
                         _______ _______ _______ _____ _____    ______ ____

>  <TORSDO>
F 12

$$$$
=
 OpenBabel11062413003D

 38 40  0  0  1  0  0  0  0  0999 V2000
  184.2960  178.5380  142.8710 C   0  0  0  0  0  0  0  0  0  0  0  0
  182.7800  178.9850  144.7370 C   0  0  0  0  0  2  0  0  0  0  0  0
  184.4340  178.0460  141.6330 C   0  0  0  0  0  3  0  0  0  0  0  0
  183.2350  177.6980  140.8060 C   0  0  1  0  0  3  0  0  0  0  0  0
  182.9390  178.8360  143.4230 C   0  0  0  0  0  0  0  0  0  0  0  0
  181.7150  178.7350  142.5220 C   0  0  2  0  0  3  0  0  0  0  0  0
  182.1330  178.7040  141.0600 C   0  0  0  0  0  0  0  0  0  0  0  0
  181.7770  179.6990  140.2190 C   0  0  0  0  0  3  0  0  0  0  0  0
  180.5720  179.6970  142.9130 C   0  0  0  0  0  3  0  0  0  0  0  0
  179.6010  179.0550  143.8870 C   0  0  0  0  0  1  0  0  0  0  0  0
  179.8340  180.2750  141.7150 C   0  0  0  0  0  1  0  0  0  0  0  0
  183.4270  180.6800  138.8450 O   0  0  0  0  0  1  0  0  0  0  0  0
  182.2700  179.9030  138.8210 C   0  0  2  0  0  3  0  0  0  0  0  0
  180.4670  179.8890  137.2640 O   0  0  0  0  0  0  0  0  0  0  0  0
  181.2340  180.5800  137.9840 C   0  0  0  0  0  0  0  0  0  0  0  0
  181.1580  181.9670  137.9390 O   0  0  0  0  0  1  0  0  0  0  0  0
  183.5970  177.3730  139.3660 C   0  0  0  0  0  2  0  0  0  0  0  0
  181.8000  175.6570  139.5520 O   0  0  0  0  0  1  0  0  0  0  0  0
  182.9960  176.0660  138.9790 C   0  0  0  0  0  0  0  0  0  0  0  0
  183.5450  175.3550  138.0980 O   0  0  0  0  0  0  0  0  0  0  0  0
  185.5350  178.8220  143.6570 C   0  0  0  0  0  2  0  0  0  0  0  0
  185.7640  177.7550  144.6810 C   0  0  0  0  0  3  0  0  0  0  0  0
  186.9340  177.2670  144.9770 N   0  0  0  0  0  0  0  0  0  0  0  0
  188.4650  177.3600  143.0140 C   0  0  0  0  0  3  0  0  0  0  0  0
  188.2020  177.5790  144.3730 C   0  0  0  0  0  0  0  0  0  0  0  0
  190.7230  178.1320  143.3270 C   0  0  0  0  0  3  0  0  0  0  0  0
  190.4620  178.3250  144.6470 N   0  0  0  0  0  0  0  0  0  0  0  0
  189.2380  178.0580  145.1810 C   0  0  0  0  0  3  0  0  0  0  0  0
  189.7220  177.6420  142.4860 C   0  0  0  0  0  0  0  0  0  0  0  0
  189.9880  177.3940  141.1110 N   0  0  0  0  0  0  0  0  0  0  0  0
  189.8360  177.7290  139.6640 C   0  0  1  0  0  3  0  0  0  0  0  0
  190.5630  176.6020  139.9850 C   0  0  0  0  0  2  0  0  0  0  0  0
  188.4370  177.3480  139.2170 C   0  0  0  0  0  2  0  0  0  0  0  0
  188.4390  177.0580  137.8490 O   0  0  0  0  0  0  0  0  0  0  0  0
  188.8000  179.7370  137.1720 O   0  0  0  0  0  1  0  0  0  0  0  0
  186.4440  178.7620  137.7700 O   0  0  0  0  0  1  0  0  0  0  0  0
  187.7500  178.4120  137.0930 P   0  0  0  0  0  0  0  0  0  0  0  0
  187.4540  178.0490  135.4690 O   0  0  0  0  0  0  0  0  0  0  0  0
  1  5  1  0  0  0  0
  1 21  1  0  0  0  0
  3  1  2  0  0  0  0
  4 17  1  6  0  0  0
  4  7  1  0  0  0  0
  4  3  1  0  0  0  0
  5  2  2  0  0  0  0
  6  9  1  6  0  0  0
  6  5  1  0  0  0  0
  7  6  1  0  0  0  0
  8  7  2  0  0  0  0
  9 10  1  0  0  0  0
 11  9  1  0  0  0  0
 13 12  1  1  0  0  0
 13  8  1  0  0  0  0
 14 15  2  0  0  0  0
 15 13  1  0  0  0  0
 16 15  1  0  0  0  0
 19 17  1  0  0  0  0
 19 18  1  0  0  0  0
 20 19  2  0  0  0  0
 21 22  1  0  0  0  0
 22 23  2  0  0  0  0
 24 25  1  0  0  0  0
 25 23  1  0  0  0  0
 25 28  2  0  0  0  0
 26 27  2  0  0  0  0
 27 28  1  0  0  0  0
 29 24  2  0  0  0  0
 29 26  1  0  0  0  0
 30 29  1  0  0  0  0
 31 33  1  6  0  0  0
 31 32  1  0  0  0  0
 31 30  1  0  0  0  0
 32 30  1  0  0  0  0
 34 33  1  0  0  0  0
 37 35  1  0  0  0  0
 37 36  1  0  0  0  0
 37 34  1  0  0  0  0
 38 37  2  0  0  0  0
M  END
>  <MODEL>
4

>  <REMARK>
 VINA RESULT:      -7.2      3.881      7.031
  Name = 
  12 active torsions:
  status: ('A' for Active; 'I' for Inactive)
    1  A    between atoms: C_1  and  C_15
    2  A    between atoms: N_4  and  C_32
    3  A    between atoms: C_6  and  N_21
    4  A    between atoms: C_7  and  C_20
    5  A    between atoms: C_7  and  C_29
    6  A    between atoms: C_8  and  C_19
    7  A    between atoms: C_8  and  O_34
    8  A    between atoms: C_11  and  C_15
    9  A    between atoms: C_13  and  C_18
   10  A    between atoms: C_17  and  C_25
   11  A    between atoms: C_18  and  C_38
   12  A    between atoms: O_34  and  P_35
                            x       y       z     vdW  Elec       q    Type
                         _______ _______ _______ _____ _____    ______ ____

>  <TORSDO>
F 12

$$$$
=
 OpenBabel11062413003D

 38 40  0  0  1  0  0  0  0  0999 V2000
  184.0920  178.4700  142.3530 C   0  0  0  0  0  0  0  0  0  0  0  0
  185.9970  178.7500  140.8460 C   0  0  0  0  0  2  0  0  0  0  0  0
  182.7690  178.5850  142.5180 C   0  0  0  0  0  3  0  0  0  0  0  0
  181.8680  178.8480  141.3510 C   0  0  1  0  0  3  0  0  0  0  0  0
  184.6940  178.5140  140.9860 C   0  0  0  0  0  0  0  0  0  0  0  0
  183.7910  178.5240  139.7600 C   0  0  2  0  0  3  0  0  0  0  0  0
  182.3780  178.1010  140.1370 C   0  0  0  0  0  0  0  0  0  0  0  0
  181.8390  176.9710  139.6340 C   0  0  0  0  0  3  0  0  0  0  0  0
  184.4200  177.8630  138.5140 C   0  0  0  0  0  3  0  0  0  0  0  0
  185.6880  178.5730  138.0770 C   0  0  0  0  0  1  0  0  0  0  0  0
  183.4500  177.7210  137.3510 C   0  0  0  0  0  1  0  0  0  0  0  0
  180.7760  174.9820  140.3320 O   0  0  0  0  0  1  0  0  0  0  0  0
  180.5540  176.3310  140.0570 C   0  0  2  0  0  3  0  0  0  0  0  0
  179.1660  175.4370  138.3400 O   0  0  0  0  0  0  0  0  0  0  0  0
  179.5180  176.4560  138.9880 C   0  0  0  0  0  0  0  0  0  0  0  0
  178.9940  177.6990  138.6560 O   0  0  0  0  0  1  0  0  0  0  0  0
  180.3970  178.7190  141.7110 C   0  0  0  0  0  2  0  0  0  0  0  0
  180.0690  180.8930  142.8810 O   0  0  0  0  0  0  0  0  0  0  0  0
  180.1080  179.5070  142.9400 C   0  0  0  0  0  0  0  0  0  0  0  0
  179.8520  178.9180  144.0220 O   0  0  0  0  0  1  0  0  0  0  0  0
  184.9370  178.2520  143.5670 C   0  0  0  0  0  2  0  0  0  0  0  0
  184.3060  178.8870  144.7670 C   0  0  0  0  0  3  0  0  0  0  0  0
  184.8990  179.0180  145.9190 N   0  0  0  0  0  0  0  0  0  0  0  0
  187.2140  178.2830  145.3670 C   0  0  0  0  0  3  0  0  0  0  0  0
  186.2040  178.5500  146.3010 C   0  0  0  0  0  0  0  0  0  0  0  0
  188.6660  177.5560  147.1430 C   0  0  0  0  0  3  0  0  0  0  0  0
  187.6740  177.8020  148.0400 N   0  0  0  0  0  0  0  0  0  0  0  0
  186.4620  178.2850  147.6500 C   0  0  0  0  0  3  0  0  0  0  0  0
  188.4480  177.7920  145.7850 C   0  0  0  0  0  0  0  0  0  0  0  0
  189.4600  177.5010  144.8270 N   0  0  0  0  0  0  0  0  0  0  0  0
  190.0620  177.6490  143.4700 C   0  0  1  0  0  3  0  0  0  0  0  0
  190.6860  176.7950  144.3560 C   0  0  0  0  0  2  0  0  0  0  0  0
  189.2290  176.8640  142.4750 C   0  0  0  0  0  2  0  0  0  0  0  0
  190.0550  176.0230  141.7230 O   0  0  0  0  0  0  0  0  0  0  0  0
  191.9720  177.6450  140.5130 O   0  0  0  0  0  1  0  0  0  0  0  0
  189.4090  177.9620  140.0750 O   0  0  0  0  0  1  0  0  0  0  0  0
  190.4600  176.9050  140.3310 P   0  0  0  0  0  0  0  0  0  0  0  0
  190.5240  175.8540  139.0080 O   0  0  0  0  0  0  0  0  0  0  0  0
  1  3  2  0  0  0  0
  1 21  1  0  0  0  0
  2  5  2  0  0  0  0
  4 17  1  1  0  0  0
  4  3  1  0  0  0  0
  5  1  1  0  0  0  0
  6  9  1  6  0  0  0
  6  7  1  0  0  0  0
  6  5  1  0  0  0  0
  7  4  1  0  0  0  0
  8 13  1  0  0  0  0
  8  7  2  0  0  0  0
 10  9  1  0  0  0  0
 11  9  1  0  0  0  0
 13 12  1  6  0  0  0
 14 15  2  0  0  0  0
 15 13  1  0  0  0  0
 16 15  1  0  0  0  0
 17 19  1  0  0  0  0
 18 19  2  0  0  0  0
 19 20  1  0  0  0  0
 21 22  1  0  0  0  0
 22 23  2  0  0  0  0
 23 25  1  0  0  0  0
 24 29  2  0  0  0  0
 24 25  1  0  0  0  0
 25 28  2  0  0  0  0
 26 27  2  0  0  0  0
 28 27  1  0  0  0  0
 29 26  1  0  0  0  0
 30 29  1  0  0  0  0
 31 33  1  6  0  0  0
 31 32  1  0  0  0  0
 31 30  1  0  0  0  0
 32 30  1  0  0  0  0
 34 33  1  0  0  0  0
 36 37  1  0  0  0  0
 37 35  1  0  0  0  0
 37 34  1  0  0  0  0
 38 37  2  0  0  0  0
M  END
>  <MODEL>
5

>  <REMARK>
 VINA RESULT:      -7.0      4.447      8.026
  Name = 
  12 active torsions:
  status: ('A' for Active; 'I' for Inactive)
    1  A    between atoms: C_1  and  C_15
    2  A    between atoms: N_4  and  C_32
    3  A    between atoms: C_6  and  N_21
    4  A    between atoms: C_7  and  C_20
    5  A    between atoms: C_7  and  C_29
    6  A    between atoms: C_8  and  C_19
    7  A    between atoms: C_8  and  O_34
    8  A    between atoms: C_11  and  C_15
    9  A    between atoms: C_13  and  C_18
   10  A    between atoms: C_17  and  C_25
   11  A    between atoms: C_18  and  C_38
   12  A    between atoms: O_34  and  P_35
                            x       y       z     vdW  Elec       q    Type
                         _______ _______ _______ _____ _____    ______ ____

>  <TORSDO>
F 12

$$$$
=
 OpenBabel11062413003D

 38 40  0  0  1  0  0  0  0  0999 V2000
  187.3820  178.2800  139.9140 C   0  0  0  0  0  0  0  0  0  0  0  0
  189.2580  178.5240  138.3650 C   0  0  0  0  0  2  0  0  0  0  0  0
  186.0620  178.3980  140.1010 C   0  0  0  0  0  3  0  0  0  0  0  0
  185.1390  178.6300  138.9450 C   0  0  1  0  0  3  0  0  0  0  0  0
  187.9590  178.2900  138.5360 C   0  0  0  0  0  0  0  0  0  0  0  0
  187.0320  178.2690  137.3270 C   0  0  2  0  0  3  0  0  0  0  0  0
  185.6280  177.8540  137.7410 C   0  0  0  0  0  0  0  0  0  0  0  0
  185.0810  176.7110  137.2760 C   0  0  0  0  0  3  0  0  0  0  0  0
  187.6390  177.5770  136.0870 C   0  0  0  0  0  3  0  0  0  0  0  0
  186.9620  178.0210  134.8030 C   0  0  0  0  0  1  0  0  0  0  0  0
  187.6590  176.0590  136.1920 C   0  0  0  0  0  1  0  0  0  0  0  0
  184.0140  174.7210  137.9650 O   0  0  0  0  0  1  0  0  0  0  0  0
  183.8050  176.0800  137.7390 C   0  0  2  0  0  3  0  0  0  0  0  0
  182.1110  175.2460  136.2860 O   0  0  0  0  0  1  0  0  0  0  0  0
  182.7240  176.2550  136.7230 C   0  0  0  0  0  0  0  0  0  0  0  0
  182.4400  177.5120  136.2030 O   0  0  0  0  0  0  0  0  0  0  0  0
  183.6750  178.5090  139.3350 C   0  0  0  0  0  2  0  0  0  0  0  0
  183.6170  180.9260  138.7340 O   0  0  0  0  0  1  0  0  0  0  0  0
  182.9370  179.7280  138.9030 C   0  0  0  0  0  0  0  0  0  0  0  0
  181.7070  179.6630  138.6450 O   0  0  0  0  0  0  0  0  0  0  0  0
  188.2490  178.0930  141.1180 C   0  0  0  0  0  2  0  0  0  0  0  0
  189.0610  176.8430  140.9920 C   0  0  0  0  0  3  0  0  0  0  0  0
  189.7580  176.3250  141.9620 N   0  0  0  0  0  0  0  0  0  0  0  0
  188.9000  176.9620  144.2120 C   0  0  0  0  0  3  0  0  0  0  0  0
  189.9490  176.8440  143.2900 C   0  0  0  0  0  0  0  0  0  0  0  0
  190.4100  177.9500  145.8040 C   0  0  0  0  0  3  0  0  0  0  0  0
  191.4180  177.8460  144.8960 N   0  0  0  0  0  0  0  0  0  0  0  0
  191.2140  177.3110  143.6600 C   0  0  0  0  0  3  0  0  0  0  0  0
  189.1280  177.5090  145.4720 C   0  0  0  0  0  0  0  0  0  0  0  0
  188.0530  177.6480  146.3930 N   0  0  0  0  0  0  0  0  0  0  0  0
  186.5960  177.6580  146.7160 C   0  0  1  0  0  3  0  0  0  0  0  0
  187.4780  177.9440  147.7380 C   0  0  0  0  0  2  0  0  0  0  0  0
  185.9820  178.9350  146.1740 C   0  0  0  0  0  2  0  0  0  0  0  0
  184.6000  178.7750  146.0330 O   0  0  0  0  0  0  0  0  0  0  0  0
  185.1450  177.8720  143.4530 O   0  0  0  0  0  0  0  0  0  0  0  0
  184.6710  180.3950  143.9690 O   0  0  0  0  0  1  0  0  0  0  0  0
  184.2820  178.9930  144.3800 P   0  0  0  0  0  0  0  0  0  0  0  0
  182.6290  178.7720  144.1010 O   0  0  0  0  0  1  0  0  0  0  0  0
  1  3  2  0  0  0  0
  1 21  1  0  0  0  0
  2  5  2  0  0  0  0
  4 17  1  1  0  0  0
  4  3  1  0  0  0  0
  5  1  1  0  0  0  0
  6  9  1  6  0  0  0
  6  7  1  0  0  0  0
  6  5  1  0  0  0  0
  7  4  1  0  0  0  0
  8 13  1  0  0  0  0
  8  7  2  0  0  0  0
  9 11  1  0  0  0  0
 10  9  1  0  0  0  0
 13 12  1  6  0  0  0
 14 15  1  0  0  0  0
 15 13  1  0  0  0  0
 16 15  2  0  0  0  0
 18 19  1  0  0  0  0
 19 17  1  0  0  0  0
 20 19  2  0  0  0  0
 22 21  1  0  0  0  0
 22 23  2  0  0  0  0
 23 25  1  0  0  0  0
 24 29  1  0  0  0  0
 25 28  1  0  0  0  0
 25 24  2  0  0  0  0
 27 26  1  0  0  0  0
 28 27  2  0  0  0  0
 29 26  2  0  0  0  0
 29 30  1  0  0  0  0
 30 31  1  0  0  0  0
 30 32  1  0  0  0  0
 31 33  1  6  0  0  0
 31 32  1  0  0  0  0
 34 33  1  0  0  0  0
 35 37  2  0  0  0  0
 36 37  1  0  0  0  0
 37 34  1  0  0  0  0
 38 37  1  0  0  0  0
M  END
>  <MODEL>
6

>  <REMARK>
 VINA RESULT:      -6.9      4.397      8.821
  Name = 
  12 active torsions:
  status: ('A' for Active; 'I' for Inactive)
    1  A    between atoms: C_1  and  C_15
    2  A    between atoms: N_4  and  C_32
    3  A    between atoms: C_6  and  N_21
    4  A    between atoms: C_7  and  C_20
    5  A    between atoms: C_7  and  C_29
    6  A    between atoms: C_8  and  C_19
    7  A    between atoms: C_8  and  O_34
    8  A    between atoms: C_11  and  C_15
    9  A    between atoms: C_13  and  C_18
   10  A    between atoms: C_17  and  C_25
   11  A    between atoms: C_18  and  C_38
   12  A    between atoms: O_34  and  P_35
                            x       y       z     vdW  Elec       q    Type
                         _______ _______ _______ _____ _____    ______ ____

>  <TORSDO>
F 12

$$$$
=
 OpenBabel11062413003D

 38 40  0  0  1  0  0  0  0  0999 V2000
  185.7430  178.7720  143.3040 C   0  0  0  0  0  0  0  0  0  0  0  0
  185.4620  178.9100  140.8790 C   0  0  0  0  0  2  0  0  0  0  0  0
  186.3450  178.1550  144.3290 C   0  0  0  0  0  3  0  0  0  0  0  0
  187.4790  177.2060  144.0950 C   0  0  1  0  0  3  0  0  0  0  0  0
  186.2460  178.5950  141.9080 C   0  0  0  0  0  0  0  0  0  0  0  0
  187.5470  177.8430  141.6620 C   0  0  2  0  0  3  0  0  0  0  0  0
  188.3380  177.7100  142.9550 C   0  0  0  0  0  0  0  0  0  0  0  0
  189.5440  178.3000  143.0910 C   0  0  0  0  0  3  0  0  0  0  0  0
  188.3150  178.3160  140.4080 C   0  0  0  0  0  3  0  0  0  0  0  0
  187.4530  178.2510  139.1590 C   0  0  0  0  0  1  0  0  0  0  0  0
  189.6320  177.5860  140.1950 C   0  0  0  0  0  1  0  0  0  0  0  0
  191.0490  179.6220  144.3400 O   0  0  0  0  0  1  0  0  0  0  0  0
  190.3410  178.4210  144.3520 C   0  0  2  0  0  3  0  0  0  0  0  0
  191.6810  176.6630  143.4620 O   0  0  0  0  0  0  0  0  0  0  0  0
  191.2970  177.2820  144.4890 C   0  0  0  0  0  0  0  0  0  0  0  0
  191.7110  176.8540  145.7450 O   0  0  0  0  0  1  0  0  0  0  0  0
  188.1660  176.7910  145.3860 C   0  0  0  0  0  2  0  0  0  0  0  0
  186.2540  177.5030  146.8150 O   0  0  0  0  0  0  0  0  0  0  0  0
  187.6090  177.5710  146.5260 C   0  0  0  0  0  0  0  0  0  0  0  0
  188.3730  178.2530  147.2560 O   0  0  0  0  0  1  0  0  0  0  0  0
  184.5890  179.6730  143.6060 C   0  0  0  0  0  2  0  0  0  0  0  0
  183.6350  179.0090  144.5490 C   0  0  0  0  0  3  0  0  0  0  0  0
  182.3990  178.7230  144.2560 N   0  0  0  0  0  0  0  0  0  0  0  0
  182.1040  178.5650  141.7890 C   0  0  0  0  0  3  0  0  0  0  0  0
  181.6850  179.0220  143.0450 C   0  0  0  0  0  0  0  0  0  0  0  0
  180.2790  179.7400  140.7500 C   0  0  0  0  0  3  0  0  0  0  0  0
  179.8900  180.1930  141.9720 N   0  0  0  0  0  0  0  0  0  0  0  0
  180.5640  179.8570  143.1070 C   0  0  0  0  0  3  0  0  0  0  0  0
  181.4000  178.9160  140.6400 C   0  0  0  0  0  0  0  0  0  0  0  0
  181.8460  178.4670  139.3660 N   0  0  0  0  0  0  0  0  0  0  0  0
  181.9950  177.4050  138.3280 C   0  0  1  0  0  3  0  0  0  0  0  0
  182.5610  178.6360  138.0670 C   0  0  0  0  0  2  0  0  0  0  0  0
  183.0560  176.4200  138.7810 C   0  0  0  0  0  2  0  0  0  0  0  0
  182.7800  175.1520  138.2610 O   0  0  0  0  0  0  0  0  0  0  0  0
  183.5000  174.5760  135.6310 O   0  0  0  0  0  0  0  0  0  0  0  0
  184.7720  173.5450  137.6750 O   0  0  0  0  0  1  0  0  0  0  0  0
  184.0650  174.7990  137.2110 P   0  0  0  0  0  0  0  0  0  0  0  0
  185.1590  176.0880  137.2210 O   0  0  0  0  0  1  0  0  0  0  0  0
  1 21  1  0  0  0  0
  1  3  2  0  0  0  0
  2  5  2  0  0  0  0
  4  3  1  0  0  0  0
  4 17  1  1  0  0  0
  5  1  1  0  0  0  0
  6  9  1  6  0  0  0
  6  5  1  0  0  0  0
  6  7  1  0  0  0  0
  7  8  2  0  0  0  0
  7  4  1  0  0  0  0
  8 13  1  0  0  0  0
 10  9  1  0  0  0  0
 11  9  1  0  0  0  0
 13 12  1  6  0  0  0
 13 15  1  0  0  0  0
 14 15  2  0  0  0  0
 15 16  1  0  0  0  0
 17 19  1  0  0  0  0
 19 18  2  0  0  0  0
 19 20  1  0  0  0  0
 21 22  1  0  0  0  0
 23 22  2  0  0  0  0
 24 25  1  0  0  0  0
 25 28  2  0  0  0  0
 25 23  1  0  0  0  0
 26 27  2  0  0  0  0
 27 28  1  0  0  0  0
 29 26  1  0  0  0  0
 29 24  2  0  0  0  0
 30 29  1  0  0  0  0
 31 33  1  1  0  0  0
 31 30  1  0  0  0  0
 32 31  1  0  0  0  0
 32 30  1  0  0  0  0
 34 33  1  0  0  0  0
 35 37  2  0  0  0  0
 37 38  1  0  0  0  0
 37 36  1  0  0  0  0
 37 34  1  0  0  0  0
M  END
>  <MODEL>
7

>  <REMARK>
 VINA RESULT:      -6.8      3.267      5.750
  Name = 
  12 active torsions:
  status: ('A' for Active; 'I' for Inactive)
    1  A    between atoms: C_1  and  C_15
    2  A    between atoms: N_4  and  C_32
    3  A    between atoms: C_6  and  N_21
    4  A    between atoms: C_7  and  C_20
    5  A    between atoms: C_7  and  C_29
    6  A    between atoms: C_8  and  C_19
    7  A    between atoms: C_8  and  O_34
    8  A    between atoms: C_11  and  C_15
    9  A    between atoms: C_13  and  C_18
   10  A    between atoms: C_17  and  C_25
   11  A    between atoms: C_18  and  C_38
   12  A    between atoms: O_34  and  P_35
                            x       y       z     vdW  Elec       q    Type
                         _______ _______ _______ _____ _____    ______ ____

>  <TORSDO>
F 12

$$$$
=
 OpenBabel11062413003D

 38 40  0  0  1  0  0  0  0  0999 V2000
  183.3790  178.3290  141.0520 C   0  0  0  0  0  0  0  0  0  0  0  0
  185.1910  178.6340  139.4390 C   0  0  0  0  0  2  0  0  0  0  0  0
  182.0560  178.3120  141.2610 C   0  0  0  0  0  3  0  0  0  0  0  0
  181.0960  178.3230  140.1120 C   0  0  1  0  0  3  0  0  0  0  0  0
  183.9300  178.2700  139.6650 C   0  0  0  0  0  0  0  0  0  0  0  0
  182.9950  178.0250  138.4880 C   0  0  2  0  0  3  0  0  0  0  0  0
  181.6550  177.4950  138.9750 C   0  0  0  0  0  0  0  0  0  0  0  0
  181.2380  176.2560  138.6360 C   0  0  0  0  0  3  0  0  0  0  0  0
  183.6610  177.2890  137.3040 C   0  0  0  0  0  3  0  0  0  0  0  0
  182.8640  177.4460  136.0210 C   0  0  0  0  0  1  0  0  0  0  0  0
  183.9460  175.8220  137.5890 C   0  0  0  0  0  1  0  0  0  0  0  0
  180.4380  174.7910  140.3050 O   0  0  0  0  0  1  0  0  0  0  0  0
  180.0510  175.5320  139.1900 C   0  0  2  0  0  3  0  0  0  0  0  0
  179.2840  173.4030  138.4460 O   0  0  0  0  0  1  0  0  0  0  0  0
  179.4600  174.6180  138.1670 C   0  0  0  0  0  0  0  0  0  0  0  0
  179.1680  175.0810  136.8900 O   0  0  0  0  0  0  0  0  0  0  0  0
  179.6620  178.0740  140.5490 C   0  0  0  0  0  2  0  0  0  0  0  0
  179.3240  180.2340  141.7430 O   0  0  0  0  0  0  0  0  0  0  0  0
  179.3720  178.8480  141.7880 C   0  0  0  0  0  0  0  0  0  0  0  0
  179.1210  178.2460  142.8640 O   0  0  0  0  0  1  0  0  0  0  0  0
  184.2790  178.3620  142.2450 C   0  0  0  0  0  2  0  0  0  0  0  0
  183.5690  178.9520  143.4240 C   0  0  0  0  0  3  0  0  0  0  0  0
  184.0840  179.0370  144.6170 N   0  0  0  0  0  0  0  0  0  0  0  0
  186.3690  178.1490  144.1820 C   0  0  0  0  0  3  0  0  0  0  0  0
  185.3610  178.5520  145.0670 C   0  0  0  0  0  0  0  0  0  0  0  0
  187.7620  177.5390  146.0480 C   0  0  0  0  0  3  0  0  0  0  0  0
  186.7710  177.9180  146.8980 N   0  0  0  0  0  0  0  0  0  0  0  0
  185.5870  178.4130  146.4400 C   0  0  0  0  0  3  0  0  0  0  0  0
  187.5740  177.6480  144.6700 C   0  0  0  0  0  0  0  0  0  0  0  0
  188.5840  177.2180  143.7640 N   0  0  0  0  0  0  0  0  0  0  0  0
  189.4450  177.4280  142.5630 C   0  0  1  0  0  3  0  0  0  0  0  0
  189.5560  176.2220  143.2260 C   0  0  0  0  0  2  0  0  0  0  0  0
  188.5950  177.2700  141.3160 C   0  0  0  0  0  2  0  0  0  0  0  0
  188.5860  178.4670  140.5940 O   0  0  0  0  0  0  0  0  0  0  0  0
  188.0930  176.8720  138.3620 O   0  0  0  0  0  1  0  0  0  0  0  0
  190.5210  177.5470  139.0750 O   0  0  0  0  0  1  0  0  0  0  0  0
  189.0990  178.0590  139.0280 P   0  0  0  0  0  0  0  0  0  0  0  0
  189.0370  179.4360  138.0490 O   0  0  0  0  0  0  0  0  0  0  0  0
  1  3  2  0  0  0  0
  1 21  1  0  0  0  0
  2  5  2  0  0  0  0
  4 17  1  1  0  0  0
  4  3  1  0  0  0  0
  5  1  1  0  0  0  0
  6  9  1  6  0  0  0
  6  7  1  0  0  0  0
  6  5  1  0  0  0  0
  7  4  1  0  0  0  0
  8  7  2  0  0  0  0
  8 13  1  0  0  0  0
  9 11  1  0  0  0  0
 10  9  1  0  0  0  0
 13 12  1  1  0  0  0
 15 14  1  0  0  0  0
 15 13  1  0  0  0  0
 16 15  2  0  0  0  0
 17 19  1  0  0  0  0
 18 19  2  0  0  0  0
 19 20  1  0  0  0  0
 21 22  1  0  0  0  0
 22 23  2  0  0  0  0
 23 25  1  0  0  0  0
 24 29  2  0  0  0  0
 24 25  1  0  0  0  0
 25 28  2  0  0  0  0
 26 27  2  0  0  0  0
 28 27  1  0  0  0  0
 29 26  1  0  0  0  0
 30 29  1  0  0  0  0
 31 33  1  6  0  0  0
 31 32  1  0  0  0  0
 31 30  1  0  0  0  0
 32 30  1  0  0  0  0
 34 33  1  0  0  0  0
 35 37  1  0  0  0  0
 37 36  1  0  0  0  0
 37 34  1  0  0  0  0
 38 37  2  0  0  0  0
M  END
>  <MODEL>
8

>  <REMARK>
 VINA RESULT:      -6.8      4.452      8.079
  Name = 
  12 active torsions:
  status: ('A' for Active; 'I' for Inactive)
    1  A    between atoms: C_1  and  C_15
    2  A    between atoms: N_4  and  C_32
    3  A    between atoms: C_6  and  N_21
    4  A    between atoms: C_7  and  C_20
    5  A    between atoms: C_7  and  C_29
    6  A    between atoms: C_8  and  C_19
    7  A    between atoms: C_8  and  O_34
    8  A    between atoms: C_11  and  C_15
    9  A    between atoms: C_13  and  C_18
   10  A    between atoms: C_17  and  C_25
   11  A    between atoms: C_18  and  C_38
   12  A    between atoms: O_34  and  P_35
                            x       y       z     vdW  Elec       q    Type
                         _______ _______ _______ _____ _____    ______ ____

>  <TORSDO>
F 12

$$$$
=
 OpenBabel11062413003D

 38 40  0  0  1  0  0  0  0  0999 V2000
  186.5880  178.4490  141.8060 C   0  0  0  0  0  0  0  0  0  0  0  0
  186.9930  178.2640  139.4010 C   0  0  0  0  0  2  0  0  0  0  0  0
  186.8630  177.9750  143.0270 C   0  0  0  0  0  3  0  0  0  0  0  0
  187.9850  177.0070  143.2420 C   0  0  1  0  0  3  0  0  0  0  0  0
  187.4520  178.0910  140.6400 C   0  0  0  0  0  0  0  0  0  0  0  0
  188.7440  177.3170  140.8630 C   0  0  2  0  0  3  0  0  0  0  0  0
  189.1420  177.3590  142.3310 C   0  0  0  0  0  0  0  0  0  0  0  0
  190.2830  177.9660  142.7200 C   0  0  0  0  0  3  0  0  0  0  0  0
  189.8440  177.6240  139.8220 C   0  0  0  0  0  3  0  0  0  0  0  0
  189.3760  178.6280  138.7850 C   0  0  0  0  0  1  0  0  0  0  0  0
  190.4060  176.3780  139.1540 C   0  0  0  0  0  1  0  0  0  0  0  0
  191.5230  179.3830  144.1440 O   0  0  0  0  0  1  0  0  0  0  0  0
  190.7050  178.2550  144.1270 C   0  0  2  0  0  3  0  0  0  0  0  0
  191.7270  176.1090  143.9840 O   0  0  0  0  0  0  0  0  0  0  0  0
  191.4440  177.0960  144.7110 C   0  0  0  0  0  0  0  0  0  0  0  0
  191.7590  177.0680  146.0640 O   0  0  0  0  0  1  0  0  0  0  0  0
  188.2750  176.7680  144.7150 C   0  0  0  0  0  2  0  0  0  0  0  0
  187.6430  178.5540  146.3340 O   0  0  0  0  0  1  0  0  0  0  0  0
  187.2620  177.4750  145.5480 C   0  0  0  0  0  0  0  0  0  0  0  0
  186.0540  177.1280  145.5020 O   0  0  0  0  0  0  0  0  0  0  0  0
  185.4270  179.3780  141.6560 C   0  0  0  0  0  2  0  0  0  0  0  0
  184.3040  178.9640  142.5560 C   0  0  0  0  0  3  0  0  0  0  0  0
  183.1870  178.4430  142.1350 N   0  0  0  0  0  0  0  0  0  0  0  0
  182.0400  179.1590  140.0440 C   0  0  0  0  0  3  0  0  0  0  0  0
  182.7720  178.2160  140.7770 C   0  0  0  0  0  0  0  0  0  0  0  0
  181.9380  177.6350  138.1840 C   0  0  0  0  0  3  0  0  0  0  0  0
  182.6340  176.7200  138.9100 N   0  0  0  0  0  0  0  0  0  0  0  0
  183.0490  176.9820  140.1810 C   0  0  0  0  0  3  0  0  0  0  0  0
  181.6270  178.8750  138.7450 C   0  0  0  0  0  0  0  0  0  0  0  0
  180.8630  179.8290  138.0160 N   0  0  0  0  0  0  0  0  0  0  0  0
  180.7600  180.9890  137.0830 C   0  0  1  0  0  3  0  0  0  0  0  0
  179.5890  180.4960  137.6210 C   0  0  0  0  0  2  0  0  0  0  0  0
  181.1900  182.2470  137.8150 C   0  0  0  0  0  2  0  0  0  0  0  0
  180.1790  183.2100  137.7370 O   0  0  0  0  0  0  0  0  0  0  0  0
  179.7670  185.8030  136.8030 O   0  0  0  0  0  1  0  0  0  0  0  0
  181.1460  184.0420  135.4420 O   0  0  0  0  0  0  0  0  0  0  0  0
  180.8420  184.4970  136.8510 P   0  0  0  0  0  0  0  0  0  0  0  0
  182.2760  185.0000  137.5940 O   0  0  0  0  0  1  0  0  0  0  0  0
  1  3  2  0  0  0  0
  2  5  2  0  0  0  0
  3  4  1  0  0  0  0
  4 17  1  1  0  0  0
  5  6  1  0  0  0  0
  5  1  1  0  0  0  0
  6  9  1  6  0  0  0
  6  7  1  0  0  0  0
  7  8  2  0  0  0  0
  7  4  1  0  0  0  0
  8 13  1  0  0  0  0
 10  9  1  0  0  0  0
 11  9  1  0  0  0  0
 13 12  1  6  0  0  0
 13 15  1  0  0  0  0
 14 15  2  0  0  0  0
 15 16  1  0  0  0  0
 17 19  1  0  0  0  0
 19 18  1  0  0  0  0
 20 19  2  0  0  0  0
 21  1  1  0  0  0  0
 21 22  1  0  0  0  0
 23 22  2  0  0  0  0
 24 25  1  0  0  0  0
 25 23  1  0  0  0  0
 26 29  1  0  0  0  0
 26 27  2  0  0  0  0
 27 28  1  0  0  0  0
 28 25  2  0  0  0  0
 29 24  2  0  0  0  0
 30 29  1  0  0  0  0
 31 32  1  0  0  0  0
 31 33  1  1  0  0  0
 31 30  1  0  0  0  0
 32 30  1  0  0  0  0
 34 33  1  0  0  0  0
 35 37  1  0  0  0  0
 36 37  2  0  0  0  0
 37 38  1  0  0  0  0
 37 34  1  0  0  0  0
M  END
>  <MODEL>
9

>  <REMARK>
 VINA RESULT:      -6.7      4.571      7.050
  Name = 
  12 active torsions:
  status: ('A' for Active; 'I' for Inactive)
    1  A    between atoms: C_1  and  C_15
    2  A    between atoms: N_4  and  C_32
    3  A    between atoms: C_6  and  N_21
    4  A    between atoms: C_7  and  C_20
    5  A    between atoms: C_7  and  C_29
    6  A    between atoms: C_8  and  C_19
    7  A    between atoms: C_8  and  O_34
    8  A    between atoms: C_11  and  C_15
    9  A    between atoms: C_13  and  C_18
   10  A    between atoms: C_17  and  C_25
   11  A    between atoms: C_18  and  C_38
   12  A    between atoms: O_34  and  P_35
                            x       y       z     vdW  Elec       q    Type
                         _______ _______ _______ _____ _____    ______ ____

>  <TORSDO>
F 12

$$$$
