=
 OpenBabel11062416383D

 62 67  0  0  1  0  0  0  0  0999 V2000
  190.9200  177.2120  144.8610 C   0  0  2  0  0  3  0  0  0  0  0  0
  190.9170  174.9490  144.0910 O   0  0  0  0  0  0  0  0  0  0  0  0
  189.8170  177.9530  145.6090 C   0  0  0  0  0  2  0  0  0  0  0  0
  188.1610  177.2560  143.8980 C   0  0  0  0  0  0  0  0  0  0  0  0
  186.7540  177.6070  140.5040 C   0  0  0  0  0  2  0  0  0  0  0  0
  186.8370  177.0130  143.9200 C   0  0  0  0  0  3  0  0  0  0  0  0
  184.7380  178.3470  141.7030 C   0  0  0  0  0  2  0  0  0  0  0  0
  185.8620  177.4700  146.1540 C   0  0  0  0  0  1  0  0  0  0  0  0
  190.4830  178.1770  140.4990 C   0  0  2  0  0  3  0  0  0  0  0  0
  184.6280  179.5530  142.4100 O   0  0  0  0  0  0  0  0  0  0  0  0
  190.3590  176.0380  144.0860 C   0  0  0  0  0  0  0  0  0  0  0  0
  188.7570  178.4270  144.6300 C   0  0  0  0  0  2  0  0  0  0  0  0
  189.2670  176.1470  141.7570 C   0  0  0  0  0  2  0  0  0  0  0  0
  190.0660  176.0520  139.0060 C   0  0  0  0  0  1  0  0  0  0  0  0
  189.2000  177.4720  140.9570 C   0  0  1  0  0  0  0  0  0  0  0  0
  185.8370  179.3230  144.4950 C   0  0  0  0  0  2  0  0  0  0  0  0
  185.8690  179.7570  143.0370 C   0  0  0  0  0  2  0  0  0  0  0  0
  185.7890  177.8020  144.6780 C   0  0  1  0  0  3  0  0  0  0  0  0
  187.9610  178.3410  141.0860 C   0  0  0  0  0  2  0  0  0  0  0  0
  185.5520  178.5400  140.4190 C   0  0  2  0  0  3  0  0  0  0  0  0
  189.5950  177.4390  139.4740 C   0  0  1  0  0  3  0  0  0  0  0  0
  189.0910  176.2180  143.2920 C   0  0  2  0  0  3  0  0  0  0  0  0
  192.0080  176.8380  145.7650 N   0  0  0  0  0  2  0  0  0  0  0  0
  191.8330  176.2760  147.0790 C   0  0  0  0  0  0  0  0  0  0  0  0
  192.9500  176.1600  147.9530 N   0  0  0  0  0  1  0  0  0  0  0  0
  190.7070  175.8510  147.4420 O   0  0  0  0  0  0  0  0  0  0  0  0
  191.8260  177.4600  140.6650 C   0  0  0  0  0  2  0  0  0  0  0  0
  192.7800  177.7360  139.5100 C   0  0  0  0  0  2  0  0  0  0  0  0
  193.4630  176.4570  139.0350 C   0  0  0  0  0  2  0  0  0  0  0  0
  192.4030  176.4390  136.8820 O   0  0  0  0  0  1  0  0  0  0  0  0
  193.6450  176.3710  137.5140 C   0  0  2  0  0  3  0  0  0  0  0  0
  194.1200  172.7350  136.8350 C   0  0  0  0  0  2  0  0  0  0  0  0
  196.4200  174.9200  138.3430 O   0  0  0  0  0  1  0  0  0  0  0  0
  193.4790  174.0660  136.5050 C   0  0  0  0  0  2  0  0  0  0  0  0
  194.4110  175.1220  137.0610 C   0  0  2  0  0  3  0  0  0  0  0  0
  195.1070  174.4640  138.2340 C   0  0  1  0  0  3  0  0  0  0  0  0
  195.0940  172.9770  137.9760 C   0  0  0  0  0  2  0  0  0  0  0  0
  184.7600  178.2490  139.2150 N   0  0  0  0  0  0  0  0  0  0  0  0
  183.3940  178.7980  139.3480 C   0  0  1  0  0  3  0  0  0  0  0  0
  182.0220  180.4480  138.2710 O   0  0  0  0  0  1  0  0  0  0  0  0
  183.2600  180.2480  138.8820 C   0  0  0  0  0  2  0  0  0  0  0  0
  182.3920  177.8880  138.6700 C   0  0  0  0  0  2  0  0  0  0  0  0
  181.6880  177.1420  139.6160 O   0  0  0  0  0  0  0  0  0  0  0  0
  180.3480  177.4840  139.3930 C   0  0  2  0  0  3  0  0  0  0  0  0
  180.2920  179.2330  141.2260 C   0  0  2  0  0  3  0  0  0  0  0  0
  179.1680  179.3290  140.3810 O   0  0  0  0  0  0  0  0  0  0  0  0
  179.6430  178.0260  140.6460 C   0  0  1  0  0  3  0  0  0  0  0  0
  179.9240  179.4510  142.7040 C   0  0  2  0  0  3  0  0  0  0  0  0
  180.0540  180.8040  143.0240 O   0  0  0  0  0  1  0  0  0  0  0  0
  180.6630  178.6080  143.7060 C   0  0  0  0  0  3  0  0  0  0  0  0
  181.8410  178.8320  143.9450 O   0  0  0  0  0  0  0  0  0  0  0  0
  179.5840  176.2980  138.8080 C   0  0  0  0  0  2  0  0  0  0  0  0
  179.1570  175.3100  139.8850 C   0  0  0  0  0  1  0  0  0  0  0  0
  185.4420  178.8580  138.0650 C   0  0  0  0  0  2  0  0  0  0  0  0
  188.0380  176.4400  135.6520 C   0  0  0  0  0  2  0  0  0  0  0  0
  186.5610  176.0290  135.6160 C   0  0  2  0  0  3  0  0  0  0  0  0
  185.6460  176.8170  136.5830 C   0  0  1  0  0  3  0  0  0  0  0  0
  186.4020  177.8700  137.4250 C   0  0  1  0  0  3  0  0  0  0  0  0
  184.6520  177.4200  135.8300 F   0  0  0  0  0  0  0  0  0  0  0  0
  188.1700  177.9330  135.7330 C   0  0  0  0  0  3  0  0  0  0  0  0
  186.4420  174.6690  135.8400 F   0  0  0  0  0  0  0  0  0  0  0  0
  187.3920  178.6160  136.5830 C   0  0  0  0  0  3  0  0  0  0  0  0
  1  3  1  0  0  0  0
  1 23  1  1  0  0  0
  4  6  2  0  0  0  0
  4 12  1  0  0  0  0
  5 19  1  0  0  0  0
  6 18  1  0  0  0  0
  7 10  1  0  0  0  0
  9 27  1  1  0  0  0
  9 15  1  0  0  0  0
 10 17  1  0  0  0  0
 11  2  2  0  0  0  0
 11  1  1  0  0  0  0
 12  3  1  0  0  0  0
 15 19  1  1  0  0  0
 15 13  1  0  0  0  0
 16 18  1  0  0  0  0
 17 16  1  0  0  0  0
 18  8  1  1  0  0  0
 20 38  1  6  0  0  0
 20  5  1  0  0  0  0
 20  7  1  0  0  0  0
 21 14  1  1  0  0  0
 21  9  1  0  0  0  0
 21 15  1  0  0  0  0
 22 13  1  6  0  0  0
 22  4  1  0  0  0  0
 22 11  1  0  0  0  0
 23 24  1  0  0  0  0
 24 26  2  0  0  0  0
 24 25  1  0  0  0  0
 28 27  1  0  0  0  0
 29 28  1  0  0  0  0
 31 30  1  6  0  0  0
 31 29  1  0  0  0  0
 32 37  1  0  0  0  0
 34 32  1  0  0  0  0
 34 35  1  0  0  0  0
 35 31  1  1  0  0  0
 35 36  1  0  0  0  0
 36 33  1  6  0  0  0
 37 36  1  0  0  0  0
 38 39  1  0  0  0  0
 39 42  1  6  0  0  0
 40 41  1  0  0  0  0
 41 39  1  0  0  0  0
 42 43  1  0  0  0  0
 44 52  1  1  0  0  0
 44 43  1  0  0  0  0
 45 48  1  1  0  0  0
 46 47  1  0  0  0  0
 46 45  1  0  0  0  0
 47 44  1  6  0  0  0
 47 45  1  0  0  0  0
 48 49  1  1  0  0  0
 48 50  1  0  0  0  0
 50 51  2  0  0  0  0
 52 53  1  0  0  0  0
 54 38  1  0  0  0  0
 55 60  1  0  0  0  0
 56 55  1  0  0  0  0
 56 61  1  1  0  0  0
 56 57  1  0  0  0  0
 57 59  1  6  0  0  0
 57 58  1  0  0  0  0
 58 54  1  6  0  0  0
 60 62  2  0  0  0  0
 62 58  1  0  0  0  0
M  END
>  <MODEL>
1

>  <REMARK>
 VINA RESULT:      -5.9      0.000      0.000
  Name = 
  18 active torsions:
  status: ('A' for Active; 'I' for Inactive)
    1  A    between atoms: C_1  and  N_24
    2  A    between atoms: C_2  and  C_11
    3  A    between atoms: O_4  and  C_10
    4  A    between atoms: O_4  and  C_14
    5  A    between atoms: C_8  and  C_11
    6  A    between atoms: C_10  and  C_35
    7  A    between atoms: C_14  and  C_27
    8  A    between atoms: C_14  and  C_53
    9  A    between atoms: C_18  and  C_55
   10  A    between atoms: C_28  and  C_36
   11  A    between atoms: C_28  and  C_46
   12  A    between atoms: C_29  and  C_46
   13  A    between atoms: C_35  and  C_48
   14  A    between atoms: C_35  and  N_49
   15  A    between atoms: C_36  and  C_43
   16  A    between atoms: C_43  and  C_45
   17  A    between atoms: N_49  and  C_55
   18  A    between atoms: N_49  and  C_58
                            x       y       z     vdW  Elec       q    Type
                         _______ _______ _______ _____ _____    ______ ____

>  <TORSDO>
F 18

$$$$
=
 OpenBabel11062416383D

 62 67  0  0  1  0  0  0  0  0999 V2000
  190.7190  177.1860  144.8180 C   0  0  2  0  0  3  0  0  0  0  0  0
  190.6000  174.9540  143.9730 O   0  0  0  0  0  0  0  0  0  0  0  0
  189.6950  177.9260  145.6730 C   0  0  0  0  0  2  0  0  0  0  0  0
  187.8980  177.3310  144.0690 C   0  0  0  0  0  0  0  0  0  0  0  0
  186.2500  177.8370  140.8060 C   0  0  0  0  0  2  0  0  0  0  0  0
  186.5730  177.1180  144.1840 C   0  0  0  0  0  3  0  0  0  0  0  0
  184.3490  178.5800  142.1800 C   0  0  0  0  0  2  0  0  0  0  0  0
  185.7810  177.5160  146.5000 C   0  0  0  0  0  1  0  0  0  0  0  0
  189.9810  178.3190  140.5370 C   0  0  2  0  0  3  0  0  0  0  0  0
  184.3240  179.7610  142.9350 O   0  0  0  0  0  0  0  0  0  0  0  0
  190.0720  176.0550  144.0480 C   0  0  0  0  0  0  0  0  0  0  0  0
  188.5780  178.4600  144.7940 C   0  0  0  0  0  2  0  0  0  0  0  0
  188.8110  176.2730  141.8140 C   0  0  0  0  0  2  0  0  0  0  0  0
  189.3980  176.2600  139.0080 C   0  0  0  0  0  1  0  0  0  0  0  0
  188.7190  177.6280  141.0680 C   0  0  1  0  0  0  0  0  0  0  0  0
  185.6800  179.4290  144.9120 C   0  0  0  0  0  2  0  0  0  0  0  0
  185.6130  179.9140  143.4720 C   0  0  0  0  0  2  0  0  0  0  0  0
  185.6070  177.9030  145.0460 C   0  0  1  0  0  3  0  0  0  0  0  0
  187.5150  178.5200  141.3200 C   0  0  0  0  0  2  0  0  0  0  0  0
  185.0690  178.8000  140.8450 C   0  0  2  0  0  3  0  0  0  0  0  0
  189.0000  177.6400  139.5580 C   0  0  1  0  0  3  0  0  0  0  0  0
  188.7530  176.2930  143.3600 C   0  0  2  0  0  3  0  0  0  0  0  0
  191.8620  176.7550  145.6230 N   0  0  0  0  0  2  0  0  0  0  0  0
  191.7760  176.2150  146.9550 C   0  0  0  0  0  0  0  0  0  0  0  0
  192.9610  176.0390  147.7250 N   0  0  0  0  0  1  0  0  0  0  0  0
  190.6650  175.8630  147.4270 O   0  0  0  0  0  0  0  0  0  0  0  0
  191.3140  177.5660  140.5770 C   0  0  0  0  0  2  0  0  0  0  0  0
  192.1470  177.7900  139.3220 C   0  0  0  0  0  2  0  0  0  0  0  0
  193.1340  176.6500  139.0960 C   0  0  0  0  0  2  0  0  0  0  0  0
  191.9970  176.5520  136.9850 O   0  0  0  0  0  1  0  0  0  0  0  0
  193.1060  176.0660  137.6790 C   0  0  2  0  0  3  0  0  0  0  0  0
  194.1020  172.7040  136.4050 C   0  0  0  0  0  2  0  0  0  0  0  0
  190.8930  173.7150  137.4150 O   0  0  0  0  0  1  0  0  0  0  0  0
  194.4390  174.0020  137.1070 C   0  0  0  0  0  2  0  0  0  0  0  0
  193.1280  174.5320  137.6490 C   0  0  2  0  0  3  0  0  0  0  0  0
  192.0640  173.9980  136.7130 C   0  0  1  0  0  3  0  0  0  0  0  0
  192.6150  172.7370  136.0940 C   0  0  0  0  0  2  0  0  0  0  0  0
  184.1810  178.5720  139.6950 N   0  0  0  0  0  0  0  0  0  0  0  0
  182.9970  179.4530  139.7720 C   0  0  1  0  0  3  0  0  0  0  0  0
  181.8090  181.2790  138.7640 O   0  0  0  0  0  1  0  0  0  0  0  0
  183.0530  180.6510  138.8240 C   0  0  0  0  0  2  0  0  0  0  0  0
  181.7280  178.6450  139.5950 C   0  0  0  0  0  2  0  0  0  0  0  0
  180.7710  179.0240  140.5370 O   0  0  0  0  0  0  0  0  0  0  0  0
  180.4680  177.8360  141.2140 C   0  0  2  0  0  3  0  0  0  0  0  0
  180.0180  175.5750  140.1600 C   0  0  2  0  0  3  0  0  0  0  0  0
  179.1620  175.8200  141.2530 O   0  0  0  0  0  0  0  0  0  0  0  0
  179.4860  176.9350  140.4500 C   0  0  1  0  0  3  0  0  0  0  0  0
  179.2860  174.8880  138.9950 C   0  0  2  0  0  3  0  0  0  0  0  0
  178.9310  173.5900  139.3650 O   0  0  0  0  0  1  0  0  0  0  0  0
  180.0030  174.8720  137.6730 C   0  0  0  0  0  3  0  0  0  0  0  0
  179.6050  174.1520  136.7690 O   0  0  0  0  0  0  0  0  0  0  0  0
  179.9500  178.1370  142.6190 C   0  0  0  0  0  2  0  0  0  0  0  0
  180.8830  179.0680  143.3820 C   0  0  0  0  0  1  0  0  0  0  0  0
  184.9440  178.8500  138.4710 C   0  0  0  0  0  2  0  0  0  0  0  0
  186.4210  175.5450  136.1690 C   0  0  0  0  0  2  0  0  0  0  0  0
  184.8990  175.5690  136.3550 C   0  0  2  0  0  3  0  0  0  0  0  0
  184.3780  176.6850  137.2900 C   0  0  1  0  0  3  0  0  0  0  0  0
  185.5020  177.5670  137.8810 C   0  0  1  0  0  3  0  0  0  0  0  0
  183.4820  177.4580  136.5710 F   0  0  0  0  0  0  0  0  0  0  0  0
  186.9560  176.9400  136.0150 C   0  0  0  0  0  3  0  0  0  0  0  0
  184.4560  174.3310  136.7870 F   0  0  0  0  0  0  0  0  0  0  0  0
  186.5210  177.9040  136.8360 C   0  0  0  0  0  3  0  0  0  0  0  0
  1 23  1  1  0  0  0
  1  3  1  0  0  0  0
  2 11  2  0  0  0  0
  4  6  2  0  0  0  0
  4 12  1  0  0  0  0
  5 20  1  0  0  0  0
  5 19  1  0  0  0  0
  6 18  1  0  0  0  0
  7 10  1  0  0  0  0
  9 27  1  1  0  0  0
  9 15  1  0  0  0  0
 10 17  1  0  0  0  0
 11  1  1  0  0  0  0
 12  3  1  0  0  0  0
 15 19  1  1  0  0  0
 15 13  1  0  0  0  0
 16 18  1  0  0  0  0
 17 16  1  0  0  0  0
 18  8  1  1  0  0  0
 20 38  1  6  0  0  0
 20  7  1  0  0  0  0
 21 14  1  1  0  0  0
 21  9  1  0  0  0  0
 21 15  1  0  0  0  0
 22 13  1  6  0  0  0
 22 11  1  0  0  0  0
 22  4  1  0  0  0  0
 23 24  1  0  0  0  0
 24 26  2  0  0  0  0
 24 25  1  0  0  0  0
 28 27  1  0  0  0  0
 29 28  1  0  0  0  0
 31 30  1  1  0  0  0
 31 29  1  0  0  0  0
 32 34  1  0  0  0  0
 34 35  1  0  0  0  0
 35 31  1  6  0  0  0
 36 33  1  1  0  0  0
 36 35  1  0  0  0  0
 37 32  1  0  0  0  0
 37 36  1  0  0  0  0
 38 39  1  0  0  0  0
 39 41  1  6  0  0  0
 40 41  1  0  0  0  0
 42 39  1  0  0  0  0
 42 43  1  0  0  0  0
 43 44  1  0  0  0  0
 44 52  1  1  0  0  0
 45 48  1  6  0  0  0
 45 47  1  0  0  0  0
 45 46  1  0  0  0  0
 47 44  1  1  0  0  0
 47 46  1  0  0  0  0
 48 49  1  1  0  0  0
 50 48  1  0  0  0  0
 51 50  2  0  0  0  0
 52 53  1  0  0  0  0
 54 38  1  0  0  0  0
 55 56  1  0  0  0  0
 56 61  1  1  0  0  0
 56 57  1  0  0  0  0
 57 59  1  6  0  0  0
 57 58  1  0  0  0  0
 58 54  1  6  0  0  0
 60 55  1  0  0  0  0
 60 62  2  0  0  0  0
 62 58  1  0  0  0  0
M  END
>  <MODEL>
2

>  <REMARK>
 VINA RESULT:      -5.8      1.324      2.562
  Name = 
  18 active torsions:
  status: ('A' for Active; 'I' for Inactive)
    1  A    between atoms: C_1  and  N_24
    2  A    between atoms: C_2  and  C_11
    3  A    between atoms: O_4  and  C_10
    4  A    between atoms: O_4  and  C_14
    5  A    between atoms: C_8  and  C_11
    6  A    between atoms: C_10  and  C_35
    7  A    between atoms: C_14  and  C_27
    8  A    between atoms: C_14  and  C_53
    9  A    between atoms: C_18  and  C_55
   10  A    between atoms: C_28  and  C_36
   11  A    between atoms: C_28  and  C_46
   12  A    between atoms: C_29  and  C_46
   13  A    between atoms: C_35  and  C_48
   14  A    between atoms: C_35  and  N_49
   15  A    between atoms: C_36  and  C_43
   16  A    between atoms: C_43  and  C_45
   17  A    between atoms: N_49  and  C_55
   18  A    between atoms: N_49  and  C_58
                            x       y       z     vdW  Elec       q    Type
                         _______ _______ _______ _____ _____    ______ ____

>  <TORSDO>
F 18

$$$$
=
 OpenBabel11062416383D

 62 67  0  0  1  0  0  0  0  0999 V2000
  191.0130  177.1290  144.8460 C   0  0  2  0  0  3  0  0  0  0  0  0
  190.9590  174.8520  144.1210 O   0  0  0  0  0  0  0  0  0  0  0  0
  189.9180  177.9160  145.5600 C   0  0  0  0  0  2  0  0  0  0  0  0
  188.2740  177.2330  143.8310 C   0  0  0  0  0  0  0  0  0  0  0  0
  186.9410  177.5550  140.4050 C   0  0  0  0  0  2  0  0  0  0  0  0
  186.9440  177.0280  143.8330 C   0  0  0  0  0  3  0  0  0  0  0  0
  184.9250  178.3770  141.5520 C   0  0  0  0  0  2  0  0  0  0  0  0
  185.9420  177.5560  146.0400 C   0  0  0  0  0  1  0  0  0  0  0  0
  190.6840  178.0190  140.4590 C   0  0  2  0  0  3  0  0  0  0  0  0
  184.8360  179.5990  142.2340 O   0  0  0  0  0  0  0  0  0  0  0  0
  190.4330  175.9560  144.0840 C   0  0  0  0  0  0  0  0  0  0  0  0
  188.8910  178.4010  144.5510 C   0  0  0  0  0  2  0  0  0  0  0  0
  189.3870  176.0490  141.7330 C   0  0  0  0  0  2  0  0  0  0  0  0
  190.2330  175.8770  139.0000 C   0  0  0  0  0  1  0  0  0  0  0  0
  189.3730  177.3600  140.9070 C   0  0  1  0  0  0  0  0  0  0  0  0
  186.0010  179.3760  144.3440 C   0  0  0  0  0  2  0  0  0  0  0  0
  186.0710  179.7800  142.8790 C   0  0  0  0  0  2  0  0  0  0  0  0
  185.9060  177.8610  144.5560 C   0  0  1  0  0  3  0  0  0  0  0  0
  188.1570  178.2660  140.9960 C   0  0  0  0  0  2  0  0  0  0  0  0
  185.7670  178.5200  140.2800 C   0  0  2  0  0  3  0  0  0  0  0  0
  189.7940  177.2870  139.4320 C   0  0  1  0  0  3  0  0  0  0  0  0
  189.1850  176.1560  143.2630 C   0  0  2  0  0  3  0  0  0  0  0  0
  192.0740  176.7420  145.7780 N   0  0  0  0  0  2  0  0  0  0  0  0
  191.8590  176.2190  147.1020 C   0  0  0  0  0  0  0  0  0  0  0  0
  192.9570  176.0890  147.9980 N   0  0  0  0  0  1  0  0  0  0  0  0
  190.7130  175.8410  147.4560 O   0  0  0  0  0  0  0  0  0  0  0  0
  192.0020  177.2680  140.6640 C   0  0  0  0  0  2  0  0  0  0  0  0
  193.1480  177.8730  139.8640 C   0  0  0  0  0  2  0  0  0  0  0  0
  193.2700  177.2250  138.4880 C   0  0  0  0  0  2  0  0  0  0  0  0
  194.9340  175.6480  139.1980 O   0  0  0  0  0  1  0  0  0  0  0  0
  193.7180  175.7590  138.5230 C   0  0  2  0  0  3  0  0  0  0  0  0
  193.7700  172.9470  136.0730 C   0  0  0  0  0  2  0  0  0  0  0  0
  195.8830  175.7530  136.1130 O   0  0  0  0  0  1  0  0  0  0  0  0
  193.0280  173.8260  137.0570 C   0  0  0  0  0  2  0  0  0  0  0  0
  193.8150  175.1180  137.1320 C   0  0  2  0  0  3  0  0  0  0  0  0
  195.2460  174.7320  136.8180 C   0  0  1  0  0  3  0  0  0  0  0  0
  195.1910  173.4790  135.9800 C   0  0  0  0  0  2  0  0  0  0  0  0
  184.9890  178.2290  139.0670 N   0  0  0  0  0  0  0  0  0  0  0  0
  183.5660  178.5750  139.2680 C   0  0  1  0  0  3  0  0  0  0  0  0
  181.8580  180.2290  138.9350 O   0  0  0  0  0  1  0  0  0  0  0  0
  183.1140  179.8130  138.4930 C   0  0  0  0  0  2  0  0  0  0  0  0
  182.6870  177.3750  138.9860 C   0  0  0  0  0  2  0  0  0  0  0  0
  181.9980  176.9910  140.1380 O   0  0  0  0  0  0  0  0  0  0  0  0
  181.0300  176.0920  139.6720 C   0  0  2  0  0  3  0  0  0  0  0  0
  180.9730  174.6200  137.6100 C   0  0  2  0  0  3  0  0  0  0  0  0
  179.7750  175.3470  137.7640 O   0  0  0  0  0  0  0  0  0  0  0  0
  180.9630  176.0110  138.1390 C   0  0  1  0  0  3  0  0  0  0  0  0
  181.4210  174.5490  136.1400 C   0  0  2  0  0  3  0  0  0  0  0  0
  180.4290  173.9290  135.3780 O   0  0  0  0  0  1  0  0  0  0  0  0
  182.7540  173.9030  135.8790 C   0  0  0  0  0  3  0  0  0  0  0  0
  183.7770  174.4170  136.3070 O   0  0  0  0  0  0  0  0  0  0  0  0
  179.6610  176.4290  140.2590 C   0  0  0  0  0  2  0  0  0  0  0  0
  179.6990  177.6990  141.1000 C   0  0  0  0  0  1  0  0  0  0  0  0
  185.5540  179.0180  137.9640 C   0  0  0  0  0  2  0  0  0  0  0  0
  187.7480  176.1990  135.5890 C   0  0  0  0  0  2  0  0  0  0  0  0
  188.4540  177.5430  135.8060 C   0  0  2  0  0  3  0  0  0  0  0  0
  187.6120  178.6040  136.5520 C   0  0  1  0  0  3  0  0  0  0  0  0
  186.1960  178.1120  136.9280 C   0  0  1  0  0  3  0  0  0  0  0  0
  188.3120  178.9820  137.6860 F   0  0  0  0  0  0  0  0  0  0  0  0
  186.9850  175.7980  136.8190 C   0  0  0  0  0  3  0  0  0  0  0  0
  188.9000  178.0440  134.5960 F   0  0  0  0  0  0  0  0  0  0  0  0
  186.2400  176.7110  137.4550 C   0  0  0  0  0  3  0  0  0  0  0  0
  1  3  1  0  0  0  0
  1 23  1  1  0  0  0
  4  6  2  0  0  0  0
  4 12  1  0  0  0  0
  5 19  1  0  0  0  0
  6 18  1  0  0  0  0
  7 10  1  0  0  0  0
  9 27  1  1  0  0  0
  9 15  1  0  0  0  0
 10 17  1  0  0  0  0
 11  2  2  0  0  0  0
 11  1  1  0  0  0  0
 12  3  1  0  0  0  0
 15 19  1  1  0  0  0
 15 13  1  0  0  0  0
 16 18  1  0  0  0  0
 17 16  1  0  0  0  0
 18  8  1  1  0  0  0
 20 38  1  6  0  0  0
 20  5  1  0  0  0  0
 20  7  1  0  0  0  0
 21 14  1  1  0  0  0
 21  9  1  0  0  0  0
 21 15  1  0  0  0  0
 22 13  1  6  0  0  0
 22  4  1  0  0  0  0
 22 11  1  0  0  0  0
 23 24  1  0  0  0  0
 24 26  2  0  0  0  0
 24 25  1  0  0  0  0
 28 27  1  0  0  0  0
 29 31  1  0  0  0  0
 29 28  1  0  0  0  0
 31 30  1  6  0  0  0
 32 34  1  0  0  0  0
 34 35  1  0  0  0  0
 35 31  1  1  0  0  0
 36 33  1  6  0  0  0
 36 35  1  0  0  0  0
 37 32  1  0  0  0  0
 37 36  1  0  0  0  0
 38 39  1  0  0  0  0
 39 41  1  6  0  0  0
 41 40  1  0  0  0  0
 42 39  1  0  0  0  0
 42 43  1  0  0  0  0
 44 43  1  0  0  0  0
 44 52  1  6  0  0  0
 45 48  1  6  0  0  0
 45 46  1  0  0  0  0
 45 47  1  0  0  0  0
 46 47  1  0  0  0  0
 47 44  1  1  0  0  0
 48 49  1  6  0  0  0
 50 48  1  0  0  0  0
 50 51  2  0  0  0  0
 52 53  1  0  0  0  0
 54 38  1  0  0  0  0
 55 56  1  0  0  0  0
 55 60  1  0  0  0  0
 56 61  1  6  0  0  0
 56 57  1  0  0  0  0
 57 58  1  0  0  0  0
 57 59  1  1  0  0  0
 58 62  1  0  0  0  0
 58 54  1  1  0  0  0
 60 62  2  0  0  0  0
M  END
>  <MODEL>
3

>  <REMARK>
 VINA RESULT:      -5.3      1.647      2.905
  Name = 
  18 active torsions:
  status: ('A' for Active; 'I' for Inactive)
    1  A    between atoms: C_1  and  N_24
    2  A    between atoms: C_2  and  C_11
    3  A    between atoms: O_4  and  C_10
    4  A    between atoms: O_4  and  C_14
    5  A    between atoms: C_8  and  C_11
    6  A    between atoms: C_10  and  C_35
    7  A    between atoms: C_14  and  C_27
    8  A    between atoms: C_14  and  C_53
    9  A    between atoms: C_18  and  C_55
   10  A    between atoms: C_28  and  C_36
   11  A    between atoms: C_28  and  C_46
   12  A    between atoms: C_29  and  C_46
   13  A    between atoms: C_35  and  C_48
   14  A    between atoms: C_35  and  N_49
   15  A    between atoms: C_36  and  C_43
   16  A    between atoms: C_43  and  C_45
   17  A    between atoms: N_49  and  C_55
   18  A    between atoms: N_49  and  C_58
                            x       y       z     vdW  Elec       q    Type
                         _______ _______ _______ _____ _____    ______ ____

>  <TORSDO>
F 18

$$$$
=
 OpenBabel11062416383D

 62 67  0  0  1  0  0  0  0  0999 V2000
  190.6470  177.1090  144.6670 C   0  0  2  0  0  3  0  0  0  0  0  0
  190.4160  174.8920  143.8050 O   0  0  0  0  0  0  0  0  0  0  0  0
  189.6880  177.8690  145.5790 C   0  0  0  0  0  2  0  0  0  0  0  0
  187.7990  177.3520  144.0560 C   0  0  0  0  0  0  0  0  0  0  0  0
  186.0160  177.9500  140.8810 C   0  0  0  0  0  2  0  0  0  0  0  0
  186.4750  177.1790  144.2310 C   0  0  0  0  0  3  0  0  0  0  0  0
  184.2070  178.7360  142.3520 C   0  0  0  0  0  2  0  0  0  0  0  0
  185.8070  177.5720  146.5870 C   0  0  0  0  0  1  0  0  0  0  0  0
  189.7440  178.3190  140.4400 C   0  0  2  0  0  3  0  0  0  0  0  0
  184.2550  179.9080  143.1200 O   0  0  0  0  0  0  0  0  0  0  0  0
  189.9270  176.0080  143.9170 C   0  0  0  0  0  0  0  0  0  0  0  0
  188.5480  178.4500  144.7600 C   0  0  0  0  0  2  0  0  0  0  0  0
  188.5700  176.2950  141.7480 C   0  0  0  0  0  2  0  0  0  0  0  0
  189.0230  176.2980  138.9180 C   0  0  0  0  0  1  0  0  0  0  0  0
  188.4860  177.6610  141.0220 C   0  0  1  0  0  0  0  0  0  0  0  0
  185.6920  179.5070  145.0270 C   0  0  0  0  0  2  0  0  0  0  0  0
  185.5730  180.0130  143.5970 C   0  0  0  0  0  2  0  0  0  0  0  0
  185.5760  177.9830  145.1470 C   0  0  1  0  0  3  0  0  0  0  0  0
  187.3250  178.5870  141.3420 C   0  0  0  0  0  2  0  0  0  0  0  0
  184.8700  178.9500  140.9870 C   0  0  2  0  0  3  0  0  0  0  0  0
  188.6960  177.6830  139.5010 C   0  0  1  0  0  3  0  0  0  0  0  0
  188.5860  176.2970  143.2950 C   0  0  2  0  0  3  0  0  0  0  0  0
  191.8120  176.6320  145.4120 N   0  0  0  0  0  2  0  0  0  0  0  0
  191.7870  176.1700  146.7760 C   0  0  0  0  0  0  0  0  0  0  0  0
  193.0100  175.9410  147.4680 N   0  0  0  0  0  1  0  0  0  0  0  0
  190.6910  175.9300  147.3440 O   0  0  0  0  0  0  0  0  0  0  0  0
  191.0520  177.5230  140.4070 C   0  0  0  0  0  2  0  0  0  0  0  0
  191.8770  177.8110  139.1600 C   0  0  0  0  0  2  0  0  0  0  0  0
  192.0980  176.5470  138.3340 C   0  0  0  0  0  2  0  0  0  0  0  0
  194.0310  176.8070  136.9360 O   0  0  0  0  0  1  0  0  0  0  0  0
  193.5740  176.1980  138.1050 C   0  0  2  0  0  3  0  0  0  0  0  0
  195.6760  173.1280  137.8400 C   0  0  0  0  0  2  0  0  0  0  0  0
  192.5710  173.7010  136.3010 O   0  0  0  0  0  1  0  0  0  0  0  0
  195.2230  174.3550  138.6020 C   0  0  0  0  0  2  0  0  0  0  0  0
  193.8460  174.6890  138.0670 C   0  0  2  0  0  3  0  0  0  0  0  0
  193.8370  174.1780  136.6420 C   0  0  1  0  0  3  0  0  0  0  0  0
  194.8490  173.0600  136.5680 C   0  0  0  0  0  2  0  0  0  0  0  0
  183.9210  178.7640  139.8790 N   0  0  0  0  0  0  0  0  0  0  0  0
  184.1630  177.4740  139.2000 C   0  0  1  0  0  3  0  0  0  0  0  0
  183.3130  175.2930  138.6640 O   0  0  0  0  0  1  0  0  0  0  0  0
  183.0350  176.4580  139.3810 C   0  0  0  0  0  2  0  0  0  0  0  0
  184.4950  177.7010  137.7400 C   0  0  0  0  0  2  0  0  0  0  0  0
  185.8450  177.4370  137.4980 O   0  0  0  0  0  0  0  0  0  0  0  0
  185.8580  176.8730  136.2160 C   0  0  2  0  0  3  0  0  0  0  0  0
  185.2830  174.4190  135.9530 C   0  0  2  0  0  3  0  0  0  0  0  0
  186.1270  174.8700  134.9180 O   0  0  0  0  0  0  0  0  0  0  0  0
  186.3570  175.4200  136.1980 C   0  0  1  0  0  3  0  0  0  0  0  0
  185.6660  173.0100  136.4380 C   0  0  2  0  0  3  0  0  0  0  0  0
  186.5170  172.4100  135.5070 O   0  0  0  0  0  1  0  0  0  0  0  0
  184.5270  172.0860  136.7690 C   0  0  0  0  0  3  0  0  0  0  0  0
  183.3820  172.5130  136.8060 O   0  0  0  0  0  0  0  0  0  0  0  0
  186.6720  177.7410  135.2580 C   0  0  0  0  0  2  0  0  0  0  0  0
  188.1650  177.6640  135.5500 C   0  0  0  0  0  1  0  0  0  0  0  0
  182.5610  178.8000  140.4350 C   0  0  0  0  0  2  0  0  0  0  0  0
  179.8730  181.7940  138.9490 C   0  0  0  0  0  2  0  0  0  0  0  0
  180.5880  180.9790  137.8650 C   0  0  2  0  0  3  0  0  0  0  0  0
  181.6520  179.9890  138.3950 C   0  0  1  0  0  3  0  0  0  0  0  0
  181.8070  180.0190  139.9330 C   0  0  1  0  0  3  0  0  0  0  0  0
  181.3010  178.7190  137.9670 F   0  0  0  0  0  0  0  0  0  0  0  0
  179.5440  180.9280  140.1310 C   0  0  0  0  0  3  0  0  0  0  0  0
  181.1460  181.8280  136.9250 F   0  0  0  0  0  0  0  0  0  0  0  0
  180.4690  180.0840  140.6030 C   0  0  0  0  0  3  0  0  0  0  0  0
  1 23  1  1  0  0  0
  1  3  1  0  0  0  0
  2 11  2  0  0  0  0
  4  6  2  0  0  0  0
  4 12  1  0  0  0  0
  5 20  1  0  0  0  0
  5 19  1  0  0  0  0
  6 18  1  0  0  0  0
  7 10  1  0  0  0  0
  9 27  1  1  0  0  0
  9 15  1  0  0  0  0
 10 17  1  0  0  0  0
 11  1  1  0  0  0  0
 12  3  1  0  0  0  0
 15 19  1  1  0  0  0
 15 13  1  0  0  0  0
 16 18  1  0  0  0  0
 17 16  1  0  0  0  0
 18  8  1  1  0  0  0
 20 38  1  6  0  0  0
 20  7  1  0  0  0  0
 21 14  1  1  0  0  0
 21  9  1  0  0  0  0
 21 15  1  0  0  0  0
 22 13  1  6  0  0  0
 22 11  1  0  0  0  0
 22  4  1  0  0  0  0
 23 24  1  0  0  0  0
 24 26  2  0  0  0  0
 24 25  1  0  0  0  0
 28 27  1  0  0  0  0
 29 28  1  0  0  0  0
 31 30  1  6  0  0  0
 31 29  1  0  0  0  0
 32 34  1  0  0  0  0
 35 31  1  6  0  0  0
 35 34  1  0  0  0  0
 36 33  1  1  0  0  0
 36 35  1  0  0  0  0
 37 36  1  0  0  0  0
 37 32  1  0  0  0  0
 38 54  1  0  0  0  0
 39 42  1  6  0  0  0
 39 41  1  0  0  0  0
 39 38  1  0  0  0  0
 40 41  1  0  0  0  0
 43 42  1  0  0  0  0
 44 52  1  6  0  0  0
 44 43  1  0  0  0  0
 45 47  1  0  0  0  0
 45 48  1  1  0  0  0
 46 45  1  0  0  0  0
 46 47  1  0  0  0  0
 47 44  1  6  0  0  0
 48 49  1  6  0  0  0
 48 50  1  0  0  0  0
 50 51  2  0  0  0  0
 52 53  1  0  0  0  0
 55 60  1  0  0  0  0
 56 61  1  6  0  0  0
 56 57  1  0  0  0  0
 56 55  1  0  0  0  0
 57 59  1  1  0  0  0
 57 58  1  0  0  0  0
 58 54  1  1  0  0  0
 58 62  1  0  0  0  0
 60 62  2  0  0  0  0
M  END
>  <MODEL>
4

>  <REMARK>
 VINA RESULT:      -5.2      2.278      5.053
  Name = 
  18 active torsions:
  status: ('A' for Active; 'I' for Inactive)
    1  A    between atoms: C_1  and  N_24
    2  A    between atoms: C_2  and  C_11
    3  A    between atoms: O_4  and  C_10
    4  A    between atoms: O_4  and  C_14
    5  A    between atoms: C_8  and  C_11
    6  A    between atoms: C_10  and  C_35
    7  A    between atoms: C_14  and  C_27
    8  A    between atoms: C_14  and  C_53
    9  A    between atoms: C_18  and  C_55
   10  A    between atoms: C_28  and  C_36
   11  A    between atoms: C_28  and  C_46
   12  A    between atoms: C_29  and  C_46
   13  A    between atoms: C_35  and  C_48
   14  A    between atoms: C_35  and  N_49
   15  A    between atoms: C_36  and  C_43
   16  A    between atoms: C_43  and  C_45
   17  A    between atoms: N_49  and  C_55
   18  A    between atoms: N_49  and  C_58
                            x       y       z     vdW  Elec       q    Type
                         _______ _______ _______ _____ _____    ______ ____

>  <TORSDO>
F 18

$$$$
=
 OpenBabel11062416383D

 62 67  0  0  1  0  0  0  0  0999 V2000
  190.8620  177.1460  144.4470 C   0  0  2  0  0  3  0  0  0  0  0  0
  190.8170  174.8460  143.7980 O   0  0  0  0  0  0  0  0  0  0  0  0
  189.7180  177.9910  144.9990 C   0  0  0  0  0  2  0  0  0  0  0  0
  188.2660  177.2920  143.1130 C   0  0  0  0  0  0  0  0  0  0  0  0
  187.3530  177.5230  139.5450 C   0  0  0  0  0  2  0  0  0  0  0  0
  186.9380  177.1260  142.9650 C   0  0  0  0  0  3  0  0  0  0  0  0
  185.2460  178.4460  140.4160 C   0  0  0  0  0  2  0  0  0  0  0  0
  185.7040  177.7670  145.0180 C   0  0  0  0  0  1  0  0  0  0  0  0
  191.0780  177.8790  140.0240 C   0  0  2  0  0  3  0  0  0  0  0  0
  185.1200  179.6950  141.0410 O   0  0  0  0  0  0  0  0  0  0  0  0
  190.3360  175.9620  143.6620 C   0  0  0  0  0  0  0  0  0  0  0  0
  188.8330  178.4670  143.8600 C   0  0  0  0  0  2  0  0  0  0  0  0
  189.5760  175.9980  141.2020 C   0  0  0  0  0  2  0  0  0  0  0  0
  190.7290  175.6970  138.5960 C   0  0  0  0  0  1  0  0  0  0  0  0
  189.7030  177.2760  140.3360 C   0  0  1  0  0  0  0  0  0  0  0  0
  186.0210  179.5190  143.2800 C   0  0  0  0  0  2  0  0  0  0  0  0
  186.2760  179.8640  141.8210 C   0  0  0  0  0  2  0  0  0  0  0  0
  185.8510  178.0160  143.5310 C   0  0  1  0  0  3  0  0  0  0  0  0
  188.5150  178.2200  140.2500 C   0  0  0  0  0  2  0  0  0  0  0  0
  186.2360  178.5170  139.2480 C   0  0  2  0  0  3  0  0  0  0  0  0
  190.2900  177.1340  138.9250 C   0  0  1  0  0  3  0  0  0  0  0  0
  189.2010  176.1680  142.6940 C   0  0  2  0  0  3  0  0  0  0  0  0
  191.7930  176.7640  145.5100 N   0  0  0  0  0  2  0  0  0  0  0  0
  191.4190  176.4740  146.8700 C   0  0  0  0  0  0  0  0  0  0  0  0
  192.4250  176.3330  147.8660 N   0  0  0  0  0  1  0  0  0  0  0  0
  190.2100  176.3060  147.1730 O   0  0  0  0  0  0  0  0  0  0  0  0
  192.3370  177.0970  140.4090 C   0  0  0  0  0  2  0  0  0  0  0  0
  193.5580  177.5290  139.6070 C   0  0  0  0  0  2  0  0  0  0  0  0
  193.7680  176.6360  138.3880 C   0  0  0  0  0  2  0  0  0  0  0  0
  195.4950  175.3720  139.4730 O   0  0  0  0  0  1  0  0  0  0  0  0
  194.3300  175.2480  138.7150 C   0  0  2  0  0  3  0  0  0  0  0  0
  193.5080  172.7010  136.1170 C   0  0  0  0  0  2  0  0  0  0  0  0
  196.5600  173.0770  137.8150 O   0  0  0  0  0  1  0  0  0  0  0  0
  193.3010  174.0650  136.7400 C   0  0  0  0  0  2  0  0  0  0  0  0
  194.5870  174.3840  137.4740 C   0  0  2  0  0  3  0  0  0  0  0  0
  195.1670  173.0410  137.8650 C   0  0  1  0  0  3  0  0  0  0  0  0
  194.6390  172.0290  136.8780 C   0  0  0  0  0  2  0  0  0  0  0  0
  185.5950  178.2020  137.9630 N   0  0  0  0  0  0  0  0  0  0  0  0
  186.6140  177.9070  136.9340 C   0  0  1  0  0  3  0  0  0  0  0  0
  187.1940  180.1910  136.4770 O   0  0  0  0  0  1  0  0  0  0  0  0
  187.7250  178.9540  136.8420 C   0  0  0  0  0  2  0  0  0  0  0  0
  187.1650  176.5090  137.1250 C   0  0  0  0  0  2  0  0  0  0  0  0
  188.1670  176.2450  136.1890 O   0  0  0  0  0  0  0  0  0  0  0  0
  187.9640  174.9040  135.8400 C   0  0  2  0  0  3  0  0  0  0  0  0
  186.2810  173.0180  136.0190 C   0  0  2  0  0  3  0  0  0  0  0  0
  187.2890  172.9110  136.9990 O   0  0  0  0  0  0  0  0  0  0  0  0
  186.8690  174.2190  136.6730 C   0  0  1  0  0  3  0  0  0  0  0  0
  184.8920  172.6610  136.5770 C   0  0  2  0  0  3  0  0  0  0  0  0
  184.9330  172.6680  137.9730 O   0  0  0  0  0  1  0  0  0  0  0  0
  184.2840  171.3780  136.0830 C   0  0  0  0  0  3  0  0  0  0  0  0
  184.8950  170.6760  135.2900 O   0  0  0  0  0  0  0  0  0  0  0  0
  189.2760  174.1260  135.9220 C   0  0  0  0  0  2  0  0  0  0  0  0
  189.5530  173.3410  134.6470 C   0  0  0  0  0  1  0  0  0  0  0  0
  184.7230  177.0370  138.1640 C   0  0  0  0  0  2  0  0  0  0  0  0
  180.8730  177.3160  136.2920 C   0  0  0  0  0  2  0  0  0  0  0  0
  181.3100  175.8910  136.6530 C   0  0  2  0  0  3  0  0  0  0  0  0
  182.7480  175.7760  137.2100 C   0  0  1  0  0  3  0  0  0  0  0  0
  183.4900  177.1300  137.2820 C   0  0  1  0  0  3  0  0  0  0  0  0
  182.6730  175.1950  138.4650 F   0  0  0  0  0  0  0  0  0  0  0  0
  181.3360  178.2910  137.3350 C   0  0  0  0  0  3  0  0  0  0  0  0
  181.1450  175.0540  135.5630 F   0  0  0  0  0  0  0  0  0  0  0  0
  182.5880  178.2050  137.8050 C   0  0  0  0  0  3  0  0  0  0  0  0
  1  3  1  0  0  0  0
  1 23  1  1  0  0  0
  4 12  1  0  0  0  0
  5 19  1  0  0  0  0
  6  4  2  0  0  0  0
  6 18  1  0  0  0  0
  7 10  1  0  0  0  0
  9 15  1  0  0  0  0
  9 27  1  1  0  0  0
 10 17  1  0  0  0  0
 11  2  2  0  0  0  0
 11  1  1  0  0  0  0
 12  3  1  0  0  0  0
 15 19  1  1  0  0  0
 15 13  1  0  0  0  0
 16 18  1  0  0  0  0
 17 16  1  0  0  0  0
 18  8  1  1  0  0  0
 20 38  1  6  0  0  0
 20  5  1  0  0  0  0
 20  7  1  0  0  0  0
 21 14  1  1  0  0  0
 21  9  1  0  0  0  0
 21 15  1  0  0  0  0
 22 13  1  6  0  0  0
 22  4  1  0  0  0  0
 22 11  1  0  0  0  0
 23 24  1  0  0  0  0
 24 26  2  0  0  0  0
 24 25  1  0  0  0  0
 28 27  1  0  0  0  0
 29 31  1  0  0  0  0
 29 28  1  0  0  0  0
 31 30  1  6  0  0  0
 32 34  1  0  0  0  0
 32 37  1  0  0  0  0
 34 35  1  0  0  0  0
 35 36  1  0  0  0  0
 35 31  1  1  0  0  0
 36 33  1  6  0  0  0
 37 36  1  0  0  0  0
 38 54  1  0  0  0  0
 39 41  1  1  0  0  0
 39 42  1  0  0  0  0
 39 38  1  0  0  0  0
 40 41  1  0  0  0  0
 43 42  1  0  0  0  0
 44 52  1  1  0  0  0
 44 43  1  0  0  0  0
 45 48  1  1  0  0  0
 45 47  1  0  0  0  0
 45 46  1  0  0  0  0
 47 44  1  6  0  0  0
 47 46  1  0  0  0  0
 48 49  1  1  0  0  0
 50 48  1  0  0  0  0
 51 50  2  0  0  0  0
 53 52  1  0  0  0  0
 55 56  1  0  0  0  0
 55 60  1  0  0  0  0
 56 61  1  6  0  0  0
 56 57  1  0  0  0  0
 57 58  1  0  0  0  0
 57 59  1  1  0  0  0
 58 62  1  0  0  0  0
 58 54  1  1  0  0  0
 60 62  2  0  0  0  0
M  END
>  <MODEL>
5

>  <REMARK>
 VINA RESULT:      -4.2      2.448      5.012
  Name = 
  18 active torsions:
  status: ('A' for Active; 'I' for Inactive)
    1  A    between atoms: C_1  and  N_24
    2  A    between atoms: C_2  and  C_11
    3  A    between atoms: O_4  and  C_10
    4  A    between atoms: O_4  and  C_14
    5  A    between atoms: C_8  and  C_11
    6  A    between atoms: C_10  and  C_35
    7  A    between atoms: C_14  and  C_27
    8  A    between atoms: C_14  and  C_53
    9  A    between atoms: C_18  and  C_55
   10  A    between atoms: C_28  and  C_36
   11  A    between atoms: C_28  and  C_46
   12  A    between atoms: C_29  and  C_46
   13  A    between atoms: C_35  and  C_48
   14  A    between atoms: C_35  and  N_49
   15  A    between atoms: C_36  and  C_43
   16  A    between atoms: C_43  and  C_45
   17  A    between atoms: N_49  and  C_55
   18  A    between atoms: N_49  and  C_58
                            x       y       z     vdW  Elec       q    Type
                         _______ _______ _______ _____ _____    ______ ____

>  <TORSDO>
F 18

$$$$
=
 OpenBabel11062416383D

 62 67  0  0  1  0  0  0  0  0999 V2000
  190.4520  177.2980  144.5170 C   0  0  2  0  0  3  0  0  0  0  0  0
  190.3600  175.0740  143.6460 O   0  0  0  0  0  0  0  0  0  0  0  0
  189.4360  178.0020  145.4100 C   0  0  0  0  0  2  0  0  0  0  0  0
  187.6090  177.3870  143.8480 C   0  0  0  0  0  0  0  0  0  0  0  0
  185.8600  177.8970  140.6380 C   0  0  0  0  0  2  0  0  0  0  0  0
  186.2930  177.1420  143.9950 C   0  0  0  0  0  3  0  0  0  0  0  0
  183.9820  178.5790  142.0730 C   0  0  0  0  0  2  0  0  0  0  0  0
  185.5560  177.4920  146.3380 C   0  0  0  0  0  1  0  0  0  0  0  0
  189.5710  178.4690  140.2740 C   0  0  2  0  0  3  0  0  0  0  0  0
  183.9510  179.7500  142.8440 O   0  0  0  0  0  0  0  0  0  0  0  0
  189.8090  176.1620  143.7500 C   0  0  0  0  0  0  0  0  0  0  0  0
  188.2830  178.5220  144.5680 C   0  0  0  0  0  2  0  0  0  0  0  0
  188.4830  176.3800  141.5540 C   0  0  0  0  0  2  0  0  0  0  0  0
  188.9930  176.4160  138.7340 C   0  0  0  0  0  1  0  0  0  0  0  0
  188.3390  177.7420  140.8290 C   0  0  1  0  0  0  0  0  0  0  0  0
  185.3690  179.4230  144.7790 C   0  0  0  0  0  2  0  0  0  0  0  0
  185.2510  179.9250  143.3480 C   0  0  0  0  0  2  0  0  0  0  0  0
  185.3330  177.8940  144.8940 C   0  0  1  0  0  3  0  0  0  0  0  0
  187.1240  178.6030  141.1260 C   0  0  0  0  0  2  0  0  0  0  0  0
  184.6600  178.8330  140.7220 C   0  0  2  0  0  3  0  0  0  0  0  0
  188.5790  177.7800  139.3130 C   0  0  1  0  0  3  0  0  0  0  0  0
  188.4670  176.3790  143.1010 C   0  0  2  0  0  3  0  0  0  0  0  0
  191.6270  176.8820  145.2850 N   0  0  0  0  0  2  0  0  0  0  0  0
  191.5930  176.3610  146.6260 C   0  0  0  0  0  0  0  0  0  0  0  0
  192.8060  176.2000  147.3540 N   0  0  0  0  0  1  0  0  0  0  0  0
  190.5010  176.0100  147.1430 O   0  0  0  0  0  0  0  0  0  0  0  0
  190.9210  177.7450  140.2660 C   0  0  0  0  0  2  0  0  0  0  0  0
  191.4670  177.5470  138.8590 C   0  0  0  0  0  2  0  0  0  0  0  0
  192.3370  176.2970  138.7690 C   0  0  0  0  0  2  0  0  0  0  0  0
  191.3010  174.4990  137.5630 O   0  0  0  0  0  1  0  0  0  0  0  0
  192.2180  175.5440  137.4390 C   0  0  2  0  0  3  0  0  0  0  0  0
  194.5500  173.0170  135.9930 C   0  0  0  0  0  2  0  0  0  0  0  0
  195.2230  175.2570  138.6140 O   0  0  0  0  0  1  0  0  0  0  0  0
  193.3670  173.9520  135.8560 C   0  0  0  0  0  2  0  0  0  0  0  0
  193.5600  175.0200  136.9110 C   0  0  2  0  0  3  0  0  0  0  0  0
  194.3470  174.3500  138.0190 C   0  0  1  0  0  3  0  0  0  0  0  0
  195.1210  173.2190  137.3870 C   0  0  0  0  0  2  0  0  0  0  0  0
  183.7460  178.5990  139.5940 N   0  0  0  0  0  0  0  0  0  0  0  0
  183.3980  177.1660  139.4970 C   0  0  1  0  0  3  0  0  0  0  0  0
  181.2250  176.1930  139.1900 O   0  0  0  0  0  1  0  0  0  0  0  0
  182.0520  176.8110  140.1280 C   0  0  0  0  0  2  0  0  0  0  0  0
  183.4940  176.6970  138.0600 C   0  0  0  0  0  2  0  0  0  0  0  0
  184.0100  175.4020  138.0010 O   0  0  0  0  0  0  0  0  0  0  0  0
  183.9530  175.0730  136.6400 C   0  0  2  0  0  3  0  0  0  0  0  0
  181.9080  173.7150  136.0090 C   0  0  2  0  0  3  0  0  0  0  0  0
  182.9200  173.6160  135.0330 O   0  0  0  0  0  0  0  0  0  0  0  0
  183.3510  173.6840  136.3760 C   0  0  1  0  0  3  0  0  0  0  0  0
  181.2070  172.3670  136.2530 C   0  0  2  0  0  3  0  0  0  0  0  0
  180.3850  172.0640  135.1650 O   0  0  0  0  0  1  0  0  0  0  0  0
  180.4350  172.2390  137.5370 C   0  0  0  0  0  3  0  0  0  0  0  0
  179.9970  173.2370  138.0910 O   0  0  0  0  0  0  0  0  0  0  0  0
  185.3340  175.1980  136.0010 C   0  0  0  0  0  2  0  0  0  0  0  0
  186.4400  174.7380  136.9420 C   0  0  0  0  0  1  0  0  0  0  0  0
  182.5360  179.4020  139.8170 C   0  0  0  0  0  2  0  0  0  0  0  0
  180.6930  181.4950  136.5570 C   0  0  0  0  0  2  0  0  0  0  0  0
  180.0330  180.1590  136.9180 C   0  0  2  0  0  3  0  0  0  0  0  0
  180.7710  179.3440  138.0050 C   0  0  1  0  0  3  0  0  0  0  0  0
  182.0580  180.0280  138.5180 C   0  0  1  0  0  3  0  0  0  0  0  0
  179.8860  179.1290  139.0490 F   0  0  0  0  0  0  0  0  0  0  0  0
  181.1800  182.1940  137.7930 C   0  0  0  0  0  3  0  0  0  0  0  0
  179.8570  179.3940  135.7780 F   0  0  0  0  0  0  0  0  0  0  0  0
  181.8360  181.4940  138.7280 C   0  0  0  0  0  3  0  0  0  0  0  0
  1 23  1  1  0  0  0
  1  3  1  0  0  0  0
  2 11  2  0  0  0  0
  4  6  2  0  0  0  0
  4 12  1  0  0  0  0
  5 20  1  0  0  0  0
  5 19  1  0  0  0  0
  6 18  1  0  0  0  0
  7 10  1  0  0  0  0
  9 27  1  1  0  0  0
  9 15  1  0  0  0  0
 10 17  1  0  0  0  0
 11  1  1  0  0  0  0
 12  3  1  0  0  0  0
 15 19  1  1  0  0  0
 15 13  1  0  0  0  0
 16 18  1  0  0  0  0
 17 16  1  0  0  0  0
 18  8  1  1  0  0  0
 20 38  1  6  0  0  0
 20  7  1  0  0  0  0
 21 14  1  1  0  0  0
 21  9  1  0  0  0  0
 21 15  1  0  0  0  0
 22 13  1  6  0  0  0
 22 11  1  0  0  0  0
 22  4  1  0  0  0  0
 23 24  1  0  0  0  0
 24 26  2  0  0  0  0
 24 25  1  0  0  0  0
 28 27  1  0  0  0  0
 29 28  1  0  0  0  0
 31 30  1  1  0  0  0
 31 29  1  0  0  0  0
 32 37  1  0  0  0  0
 34 32  1  0  0  0  0
 34 35  1  0  0  0  0
 35 31  1  1  0  0  0
 35 36  1  0  0  0  0
 36 33  1  6  0  0  0
 37 36  1  0  0  0  0
 38 54  1  0  0  0  0
 39 42  1  6  0  0  0
 39 38  1  0  0  0  0
 39 41  1  0  0  0  0
 40 41  1  0  0  0  0
 43 42  1  0  0  0  0
 44 52  1  1  0  0  0
 44 43  1  0  0  0  0
 45 48  1  1  0  0  0
 45 47  1  0  0  0  0
 46 45  1  0  0  0  0
 46 47  1  0  0  0  0
 47 44  1  6  0  0  0
 48 49  1  6  0  0  0
 48 50  1  0  0  0  0
 50 51  2  0  0  0  0
 52 53  1  0  0  0  0
 55 56  1  0  0  0  0
 55 60  1  0  0  0  0
 56 61  1  6  0  0  0
 56 57  1  0  0  0  0
 57 58  1  0  0  0  0
 57 59  1  1  0  0  0
 58 62  1  0  0  0  0
 58 54  1  1  0  0  0
 60 62  2  0  0  0  0
M  END
>  <MODEL>
6

>  <REMARK>
 VINA RESULT:      -4.2      2.391      4.414
  Name = 
  18 active torsions:
  status: ('A' for Active; 'I' for Inactive)
    1  A    between atoms: C_1  and  N_24
    2  A    between atoms: C_2  and  C_11
    3  A    between atoms: O_4  and  C_10
    4  A    between atoms: O_4  and  C_14
    5  A    between atoms: C_8  and  C_11
    6  A    between atoms: C_10  and  C_35
    7  A    between atoms: C_14  and  C_27
    8  A    between atoms: C_14  and  C_53
    9  A    between atoms: C_18  and  C_55
   10  A    between atoms: C_28  and  C_36
   11  A    between atoms: C_28  and  C_46
   12  A    between atoms: C_29  and  C_46
   13  A    between atoms: C_35  and  C_48
   14  A    between atoms: C_35  and  N_49
   15  A    between atoms: C_36  and  C_43
   16  A    between atoms: C_43  and  C_45
   17  A    between atoms: N_49  and  C_55
   18  A    between atoms: N_49  and  C_58
                            x       y       z     vdW  Elec       q    Type
                         _______ _______ _______ _____ _____    ______ ____

>  <TORSDO>
F 18

$$$$
=
 OpenBabel11062416383D

 62 67  0  0  1  0  0  0  0  0999 V2000
  182.3420  179.1230  139.1830 C   0  0  2  0  0  3  0  0  0  0  0  0
  181.9550  177.0570  140.3200 O   0  0  0  0  0  0  0  0  0  0  0  0
  182.8230  179.3340  137.7510 C   0  0  0  0  0  2  0  0  0  0  0  0
  184.7270  177.7930  138.1430 C   0  0  0  0  0  0  0  0  0  0  0  0
  188.0240  177.1310  139.6640 C   0  0  0  0  0  2  0  0  0  0  0  0
  185.4400  176.9660  137.3560 C   0  0  0  0  0  3  0  0  0  0  0  0
  188.7720  176.9600  137.3270 C   0  0  0  0  0  2  0  0  0  0  0  0
  184.7300  177.1250  134.9850 C   0  0  0  0  0  1  0  0  0  0  0  0
  185.9300  179.3630  141.8690 C   0  0  2  0  0  3  0  0  0  0  0  0
  188.8480  178.0370  136.4320 O   0  0  0  0  0  0  0  0  0  0  0  0
  182.7420  177.7570  139.6970 C   0  0  0  0  0  0  0  0  0  0  0  0
  184.3320  179.1690  137.6840 C   0  0  0  0  0  2  0  0  0  0  0  0
  185.0310  177.1280  140.6940 C   0  0  0  0  0  2  0  0  0  0  0  0
  186.3430  177.1570  143.2420 C   0  0  0  0  0  1  0  0  0  0  0  0
  186.1400  178.1890  140.9040 C   0  0  1  0  0  0  0  0  0  0  0  0
  186.6020  178.5910  135.7200 C   0  0  0  0  0  2  0  0  0  0  0  0
  187.7350  178.8510  136.7000 C   0  0  0  0  0  2  0  0  0  0  0  0
  185.9000  177.2460  135.9400 C   0  0  1  0  0  3  0  0  0  0  0  0
  187.1740  178.3910  139.8090 C   0  0  0  0  0  2  0  0  0  0  0  0
  189.2040  177.3870  138.7340 C   0  0  2  0  0  3  0  0  0  0  0  0
  186.8770  178.2050  142.2510 C   0  0  1  0  0  3  0  0  0  0  0  0
  184.1380  177.2520  139.4370 C   0  0  2  0  0  3  0  0  0  0  0  0
  180.9060  179.3840  139.2980 N   0  0  0  0  0  2  0  0  0  0  0  0
  180.3150  180.6870  139.4610 C   0  0  0  0  0  0  0  0  0  0  0  0
  178.9340  180.8010  139.7860 N   0  0  0  0  0  1  0  0  0  0  0  0
  181.0040  181.7230  139.2810 O   0  0  0  0  0  0  0  0  0  0  0  0
  184.6940  179.3700  142.7730 C   0  0  0  0  0  2  0  0  0  0  0  0
  184.9710  180.0000  144.1320 C   0  0  0  0  0  2  0  0  0  0  0  0
  184.1370  179.3460  145.2290 C   0  0  0  0  0  2  0  0  0  0  0  0
  184.1920  178.0310  147.2360 O   0  0  0  0  0  1  0  0  0  0  0  0
  184.9020  178.3160  146.0690 C   0  0  2  0  0  3  0  0  0  0  0  0
  188.4280  177.8160  147.1780 C   0  0  0  0  0  2  0  0  0  0  0  0
  186.2800  180.4420  148.0870 O   0  0  0  0  0  1  0  0  0  0  0  0
  187.3260  177.6250  146.1580 C   0  0  0  0  0  2  0  0  0  0  0  0
  186.3360  178.7450  146.4040 C   0  0  2  0  0  3  0  0  0  0  0  0
  186.4670  179.0760  147.8760 C   0  0  1  0  0  3  0  0  0  0  0  0
  187.8590  178.6730  148.2960 C   0  0  0  0  0  2  0  0  0  0  0  0
  190.3910  176.6500  139.1930 N   0  0  0  0  0  0  0  0  0  0  0  0
  191.2910  176.3570  138.0580 C   0  0  1  0  0  3  0  0  0  0  0  0
  193.6780  176.2400  138.2860 O   0  0  0  0  0  1  0  0  0  0  0  0
  192.6130  177.1220  138.1020 C   0  0  0  0  0  2  0  0  0  0  0  0
  191.5020  174.8630  137.9270 C   0  0  0  0  0  2  0  0  0  0  0  0
  190.3870  174.2600  137.3430 O   0  0  0  0  0  0  0  0  0  0  0  0
  190.9210  173.4870  136.3040 C   0  0  2  0  0  3  0  0  0  0  0  0
  193.2230  172.4590  136.0450 C   0  0  2  0  0  3  0  0  0  0  0  0
  192.8140  173.1200  134.8700 O   0  0  0  0  0  0  0  0  0  0  0  0
  192.4260  173.7150  136.0900 C   0  0  1  0  0  3  0  0  0  0  0  0
  194.7130  172.6920  136.3510 C   0  0  2  0  0  3  0  0  0  0  0  0
  195.4700  171.6520  135.8070 O   0  0  0  0  0  1  0  0  0  0  0  0
  195.0740  172.8940  137.7960 C   0  0  0  0  0  3  0  0  0  0  0  0
  196.2480  172.9280  138.1360 O   0  0  0  0  0  0  0  0  0  0  0  0
  190.1470  173.7240  135.0090 C   0  0  0  0  0  2  0  0  0  0  0  0
  189.3260  172.5050  134.6060 C   0  0  0  0  0  1  0  0  0  0  0  0
  191.0820  177.4800  140.1900 C   0  0  0  0  0  2  0  0  0  0  0  0
  190.3990  176.8540  144.3780 C   0  0  0  0  0  2  0  0  0  0  0  0
  191.7120  176.2660  143.8470 C   0  0  2  0  0  3  0  0  0  0  0  0
  191.8990  176.3780  142.3150 C   0  0  1  0  0  3  0  0  0  0  0  0
  190.7080  177.0540  141.5980 C   0  0  1  0  0  3  0  0  0  0  0  0
  193.0690  177.0810  142.0810 F   0  0  0  0  0  0  0  0  0  0  0  0
  190.0870  178.1540  143.6940 C   0  0  0  0  0  3  0  0  0  0  0  0
  191.8400  174.9490  144.2530 F   0  0  0  0  0  0  0  0  0  0  0  0
  190.2300  178.2480  142.3660 C   0  0  0  0  0  3  0  0  0  0  0  0
  1 23  1  6  0  0  0
  1 11  1  0  0  0  0
  3  1  1  0  0  0  0
  4 22  1  0  0  0  0
  5 19  1  0  0  0  0
  6  4  2  0  0  0  0
  7 20  1  0  0  0  0
  9 21  1  0  0  0  0
  9 27  1  1  0  0  0
 10 17  1  0  0  0  0
 10  7  1  0  0  0  0
 11  2  2  0  0  0  0
 12  3  1  0  0  0  0
 12  4  1  0  0  0  0
 13 15  1  0  0  0  0
 15 19  1  6  0  0  0
 15  9  1  0  0  0  0
 15 21  1  0  0  0  0
 16 18  1  0  0  0  0
 16 17  1  0  0  0  0
 18  8  1  6  0  0  0
 18  6  1  0  0  0  0
 20 38  1  1  0  0  0
 20  5  1  0  0  0  0
 21 14  1  1  0  0  0
 22 11  1  0  0  0  0
 22 13  1  1  0  0  0
 23 24  1  0  0  0  0
 24 25  1  0  0  0  0
 26 24  2  0  0  0  0
 27 28  1  0  0  0  0
 28 29  1  0  0  0  0
 29 31  1  0  0  0  0
 31 30  1  1  0  0  0
 32 37  1  0  0  0  0
 34 35  1  0  0  0  0
 34 32  1  0  0  0  0
 35 31  1  1  0  0  0
 35 36  1  0  0  0  0
 36 33  1  6  0  0  0
 36 37  1  0  0  0  0
 38 54  1  0  0  0  0
 39 42  1  1  0  0  0
 39 41  1  0  0  0  0
 39 38  1  0  0  0  0
 41 40  1  0  0  0  0
 43 42  1  0  0  0  0
 44 52  1  6  0  0  0
 44 43  1  0  0  0  0
 45 47  1  0  0  0  0
 45 48  1  1  0  0  0
 46 45  1  0  0  0  0
 46 47  1  0  0  0  0
 47 44  1  6  0  0  0
 48 49  1  1  0  0  0
 48 50  1  0  0  0  0
 50 51  2  0  0  0  0
 53 52  1  0  0  0  0
 56 61  1  6  0  0  0
 56 55  1  0  0  0  0
 57 59  1  1  0  0  0
 57 56  1  0  0  0  0
 58 54  1  6  0  0  0
 58 57  1  0  0  0  0
 58 62  1  0  0  0  0
 60 55  1  0  0  0  0
 62 60  2  0  0  0  0
M  END
>  <MODEL>
7

>  <REMARK>
 VINA RESULT:      -4.2      3.266     10.788
  Name = 
  18 active torsions:
  status: ('A' for Active; 'I' for Inactive)
    1  A    between atoms: C_1  and  N_24
    2  A    between atoms: C_2  and  C_11
    3  A    between atoms: O_4  and  C_10
    4  A    between atoms: O_4  and  C_14
    5  A    between atoms: C_8  and  C_11
    6  A    between atoms: C_10  and  C_35
    7  A    between atoms: C_14  and  C_27
    8  A    between atoms: C_14  and  C_53
    9  A    between atoms: C_18  and  C_55
   10  A    between atoms: C_28  and  C_36
   11  A    between atoms: C_28  and  C_46
   12  A    between atoms: C_29  and  C_46
   13  A    between atoms: C_35  and  C_48
   14  A    between atoms: C_35  and  N_49
   15  A    between atoms: C_36  and  C_43
   16  A    between atoms: C_43  and  C_45
   17  A    between atoms: N_49  and  C_55
   18  A    between atoms: N_49  and  C_58
                            x       y       z     vdW  Elec       q    Type
                         _______ _______ _______ _____ _____    ______ ____

>  <TORSDO>
F 18

$$$$
=
 OpenBabel11062416383D

 62 67  0  0  1  0  0  0  0  0999 V2000
  182.6250  179.1860  139.3760 C   0  0  2  0  0  3  0  0  0  0  0  0
  182.2470  177.0370  140.3510 O   0  0  0  0  0  0  0  0  0  0  0  0
  183.1860  179.5080  137.9940 C   0  0  0  0  0  2  0  0  0  0  0  0
  185.1180  178.0080  138.4100 C   0  0  0  0  0  0  0  0  0  0  0  0
  188.3370  177.3590  140.0940 C   0  0  0  0  0  2  0  0  0  0  0  0
  185.9100  177.2600  137.6190 C   0  0  0  0  0  3  0  0  0  0  0  0
  189.2350  177.3670  137.8040 C   0  0  0  0  0  2  0  0  0  0  0  0
  185.3430  177.5510  135.2220 C   0  0  0  0  0  1  0  0  0  0  0  0
  186.0280  179.3680  142.2980 C   0  0  2  0  0  3  0  0  0  0  0  0
  189.3250  178.5030  136.9870 O   0  0  0  0  0  0  0  0  0  0  0  0
  183.0440  177.8030  139.8270 C   0  0  0  0  0  0  0  0  0  0  0  0
  184.7010  179.3980  138.0150 C   0  0  0  0  0  2  0  0  0  0  0  0
  185.2890  177.1870  140.9270 C   0  0  0  0  0  2  0  0  0  0  0  0
  186.4370  177.0920  143.5510 C   0  0  0  0  0  1  0  0  0  0  0  0
  186.3410  178.2690  141.2750 C   0  0  1  0  0  0  0  0  0  0  0  0
  187.1090  179.0280  136.1680 C   0  0  0  0  0  2  0  0  0  0  0  0
  188.1680  179.2600  137.2340 C   0  0  0  0  0  2  0  0  0  0  0  0
  186.4460  177.6480  136.2560 C   0  0  1  0  0  3  0  0  0  0  0  0
  187.4330  178.5770  140.2640 C   0  0  0  0  0  2  0  0  0  0  0  0
  189.5620  177.7150  139.2600 C   0  0  2  0  0  3  0  0  0  0  0  0
  186.9920  178.2200  142.6650 C   0  0  1  0  0  3  0  0  0  0  0  0
  184.4710  177.3640  139.6250 C   0  0  2  0  0  3  0  0  0  0  0  0
  181.1760  179.3900  139.4150 N   0  0  0  0  0  2  0  0  0  0  0  0
  180.5230  180.6740  139.4040 C   0  0  0  0  0  0  0  0  0  0  0  0
  179.1270  180.7600  139.6690 N   0  0  0  0  0  1  0  0  0  0  0  0
  181.1720  181.7130  139.1230 O   0  0  0  0  0  0  0  0  0  0  0  0
  184.7380  179.2740  143.1190 C   0  0  0  0  0  2  0  0  0  0  0  0
  184.8850  179.8870  144.5050 C   0  0  0  0  0  2  0  0  0  0  0  0
  184.0450  179.1400  145.5370 C   0  0  0  0  0  2  0  0  0  0  0  0
  184.1680  177.8930  147.5830 O   0  0  0  0  0  1  0  0  0  0  0  0
  184.8380  178.1380  146.3840 C   0  0  2  0  0  3  0  0  0  0  0  0
  188.3540  177.7170  147.5560 C   0  0  0  0  0  2  0  0  0  0  0  0
  186.2710  180.4960  148.0810 O   0  0  0  0  0  1  0  0  0  0  0  0
  187.2450  177.4090  146.5720 C   0  0  0  0  0  2  0  0  0  0  0  0
  186.2830  178.5760  146.6560 C   0  0  2  0  0  3  0  0  0  0  0  0
  186.4250  179.1100  148.0660 C   0  0  1  0  0  3  0  0  0  0  0  0
  187.8080  178.7380  148.5410 C   0  0  0  0  0  2  0  0  0  0  0  0
  190.7450  176.9900  139.7480 N   0  0  0  0  0  0  0  0  0  0  0  0
  191.6110  176.5930  138.6180 C   0  0  1  0  0  3  0  0  0  0  0  0
  193.7230  176.9340  137.5270 O   0  0  0  0  0  1  0  0  0  0  0  0
  193.0560  177.0770  138.7440 C   0  0  0  0  0  2  0  0  0  0  0  0
  191.5300  175.0970  138.3940 C   0  0  0  0  0  2  0  0  0  0  0  0
  190.2490  174.7330  137.9760 O   0  0  0  0  0  0  0  0  0  0  0  0
  190.4620  174.0590  136.7670 C   0  0  2  0  0  3  0  0  0  0  0  0
  187.9740  173.5830  136.7000 C   0  0  2  0  0  3  0  0  0  0  0  0
  188.5310  173.6240  135.4060 O   0  0  0  0  0  0  0  0  0  0  0  0
  189.3420  173.0670  136.4190 C   0  0  1  0  0  3  0  0  0  0  0  0
  186.9350  172.4570  136.8470 C   0  0  2  0  0  3  0  0  0  0  0  0
  187.2830  171.3890  136.0180 O   0  0  0  0  0  1  0  0  0  0  0  0
  185.4990  172.8420  136.6220 C   0  0  0  0  0  3  0  0  0  0  0  0
  184.6330  172.4510  137.3910 O   0  0  0  0  0  0  0  0  0  0  0  0
  191.8220  173.3630  136.7760 C   0  0  0  0  0  2  0  0  0  0  0  0
  192.3000  173.0310  135.3690 C   0  0  0  0  0  1  0  0  0  0  0  0
  191.4760  177.8780  140.6620 C   0  0  0  0  0  2  0  0  0  0  0  0
  190.0580  178.2520  144.6930 C   0  0  0  0  0  2  0  0  0  0  0  0
  190.3170  176.8120  144.2340 C   0  0  2  0  0  3  0  0  0  0  0  0
  190.7040  176.6660  142.7440 C   0  0  1  0  0  3  0  0  0  0  0  0
  190.7420  178.0120  141.9840 C   0  0  1  0  0  3  0  0  0  0  0  0
  191.9390  176.0400  142.6850 F   0  0  0  0  0  0  0  0  0  0  0  0
  191.0770  179.1850  144.1060 C   0  0  0  0  0  3  0  0  0  0  0  0
  189.2220  176.0170  144.5280 F   0  0  0  0  0  0  0  0  0  0  0  0
  191.4000  179.0730  142.8110 C   0  0  0  0  0  3  0  0  0  0  0  0
  1 23  1  6  0  0  0
  1 11  1  0  0  0  0
  3 12  1  0  0  0  0
  3  1  1  0  0  0  0
  4 22  1  0  0  0  0
  5 19  1  0  0  0  0
  6  4  2  0  0  0  0
  7 20  1  0  0  0  0
  9 21  1  0  0  0  0
  9 27  1  1  0  0  0
 10 17  1  0  0  0  0
 10  7  1  0  0  0  0
 11  2  2  0  0  0  0
 12  4  1  0  0  0  0
 13 15  1  0  0  0  0
 15 19  1  6  0  0  0
 15  9  1  0  0  0  0
 15 21  1  0  0  0  0
 16 18  1  0  0  0  0
 16 17  1  0  0  0  0
 18  8  1  6  0  0  0
 18  6  1  0  0  0  0
 20 38  1  1  0  0  0
 20  5  1  0  0  0  0
 21 14  1  1  0  0  0
 22 11  1  0  0  0  0
 22 13  1  1  0  0  0
 24 23  1  0  0  0  0
 24 25  1  0  0  0  0
 26 24  2  0  0  0  0
 27 28  1  0  0  0  0
 28 29  1  0  0  0  0
 29 31  1  0  0  0  0
 31 30  1  1  0  0  0
 32 37  1  0  0  0  0
 34 35  1  0  0  0  0
 34 32  1  0  0  0  0
 35 31  1  1  0  0  0
 35 36  1  0  0  0  0
 36 33  1  6  0  0  0
 36 37  1  0  0  0  0
 38 54  1  0  0  0  0
 39 42  1  1  0  0  0
 39 41  1  0  0  0  0
 39 38  1  0  0  0  0
 40 41  1  0  0  0  0
 43 42  1  0  0  0  0
 44 52  1  1  0  0  0
 44 43  1  0  0  0  0
 45 48  1  6  0  0  0
 46 47  1  0  0  0  0
 46 45  1  0  0  0  0
 47 45  1  0  0  0  0
 47 44  1  1  0  0  0
 48 49  1  6  0  0  0
 50 48  1  0  0  0  0
 50 51  2  0  0  0  0
 53 52  1  0  0  0  0
 56 61  1  6  0  0  0
 56 55  1  0  0  0  0
 57 59  1  1  0  0  0
 57 56  1  0  0  0  0
 58 54  1  6  0  0  0
 58 57  1  0  0  0  0
 58 62  1  0  0  0  0
 60 55  1  0  0  0  0
 62 60  2  0  0  0  0
M  END
>  <MODEL>
8

>  <REMARK>
 VINA RESULT:      -3.6      3.243     10.037
  Name = 
  18 active torsions:
  status: ('A' for Active; 'I' for Inactive)
    1  A    between atoms: C_1  and  N_24
    2  A    between atoms: C_2  and  C_11
    3  A    between atoms: O_4  and  C_10
    4  A    between atoms: O_4  and  C_14
    5  A    between atoms: C_8  and  C_11
    6  A    between atoms: C_10  and  C_35
    7  A    between atoms: C_14  and  C_27
    8  A    between atoms: C_14  and  C_53
    9  A    between atoms: C_18  and  C_55
   10  A    between atoms: C_28  and  C_36
   11  A    between atoms: C_28  and  C_46
   12  A    between atoms: C_29  and  C_46
   13  A    between atoms: C_35  and  C_48
   14  A    between atoms: C_35  and  N_49
   15  A    between atoms: C_36  and  C_43
   16  A    between atoms: C_43  and  C_45
   17  A    between atoms: N_49  and  C_55
   18  A    between atoms: N_49  and  C_58
                            x       y       z     vdW  Elec       q    Type
                         _______ _______ _______ _____ _____    ______ ____

>  <TORSDO>
F 18

$$$$
=
 OpenBabel11062416383D

 62 67  0  0  1  0  0  0  0  0999 V2000
  191.0000  176.9260  144.7830 C   0  0  2  0  0  3  0  0  0  0  0  0
  190.9060  174.6630  144.0210 O   0  0  0  0  0  0  0  0  0  0  0  0
  189.9000  177.7390  145.4590 C   0  0  0  0  0  2  0  0  0  0  0  0
  188.3150  177.1340  143.6480 C   0  0  0  0  0  0  0  0  0  0  0  0
  187.1490  177.5470  140.1710 C   0  0  0  0  0  2  0  0  0  0  0  0
  186.9800  176.9730  143.5870 C   0  0  0  0  0  3  0  0  0  0  0  0
  185.1110  178.4180  141.2390 C   0  0  0  0  0  2  0  0  0  0  0  0
  185.8970  177.5040  145.7540 C   0  0  0  0  0  1  0  0  0  0  0  0
  190.8990  177.8870  140.3990 C   0  0  2  0  0  3  0  0  0  0  0  0
  185.0310  179.6330  141.9340 O   0  0  0  0  0  0  0  0  0  0  0  0
  190.4180  175.7840  143.9780 C   0  0  0  0  0  0  0  0  0  0  0  0
  188.9360  178.2710  144.4120 C   0  0  0  0  0  2  0  0  0  0  0  0
  189.4830  175.9440  141.5840 C   0  0  0  0  0  2  0  0  0  0  0  0
  190.4460  175.7820  138.8890 C   0  0  0  0  0  1  0  0  0  0  0  0
  189.5490  177.2650  140.7780 C   0  0  1  0  0  0  0  0  0  0  0  0
  186.0910  179.3440  144.0910 C   0  0  0  0  0  2  0  0  0  0  0  0
  186.2400  179.7650  142.6370 C   0  0  0  0  0  2  0  0  0  0  0  0
  185.9380  177.8300  144.2750 C   0  0  1  0  0  3  0  0  0  0  0  0
  188.3590  178.2090  140.8260 C   0  0  0  0  0  2  0  0  0  0  0  0
  186.0140  178.5520  140.0080 C   0  0  2  0  0  3  0  0  0  0  0  0
  190.0330  177.1980  139.3230 C   0  0  1  0  0  3  0  0  0  0  0  0
  189.2160  176.0360  143.1050 C   0  0  2  0  0  3  0  0  0  0  0  0
  192.0050  176.4930  145.7550 N   0  0  0  0  0  2  0  0  0  0  0  0
  191.7220  176.0830  147.1060 C   0  0  0  0  0  0  0  0  0  0  0  0
  192.7910  175.8970  148.0270 N   0  0  0  0  0  1  0  0  0  0  0  0
  190.5390  175.8510  147.4640 O   0  0  0  0  0  0  0  0  0  0  0  0
  192.1820  177.0900  140.6520 C   0  0  0  0  0  2  0  0  0  0  0  0
  193.2130  177.2810  139.5480 C   0  0  0  0  0  2  0  0  0  0  0  0
  193.0840  176.2050  138.4740 C   0  0  0  0  0  2  0  0  0  0  0  0
  195.2870  175.6790  139.2680 O   0  0  0  0  0  1  0  0  0  0  0  0
  194.3240  175.3150  138.3260 C   0  0  2  0  0  3  0  0  0  0  0  0
  194.5280  176.2890  134.7310 C   0  0  0  0  0  2  0  0  0  0  0  0
  195.0470  173.0900  136.0860 O   0  0  0  0  0  1  0  0  0  0  0  0
  194.6390  176.6360  136.2010 C   0  0  0  0  0  2  0  0  0  0  0  0
  194.9220  175.3300  136.9140 C   0  0  2  0  0  3  0  0  0  0  0  0
  194.2880  174.2590  136.0510 C   0  0  1  0  0  3  0  0  0  0  0  0
  194.2340  174.8000  134.6440 C   0  0  0  0  0  2  0  0  0  0  0  0
  185.2830  178.3020  138.7570 N   0  0  0  0  0  0  0  0  0  0  0  0
  183.8440  178.5930  138.9310 C   0  0  1  0  0  3  0  0  0  0  0  0
  182.0810  180.1960  138.6370 O   0  0  0  0  0  1  0  0  0  0  0  0
  183.4690  180.0500  138.6610 C   0  0  0  0  0  2  0  0  0  0  0  0
  183.0100  177.6290  138.1140 C   0  0  0  0  0  2  0  0  0  0  0  0
  183.6170  176.3730  138.0670 O   0  0  0  0  0  0  0  0  0  0  0  0
  182.5610  175.4930  137.7990 C   0  0  2  0  0  3  0  0  0  0  0  0
  180.1550  175.8910  138.4870 C   0  0  2  0  0  3  0  0  0  0  0  0
  180.5000  174.5260  138.5660 O   0  0  0  0  0  0  0  0  0  0  0  0
  181.5090  175.4480  138.9180 C   0  0  1  0  0  3  0  0  0  0  0  0
  179.2730  176.3330  139.6680 C   0  0  2  0  0  3  0  0  0  0  0  0
  179.2530  177.7270  139.7410 O   0  0  0  0  0  1  0  0  0  0  0  0
  179.6140  175.7480  141.0110 C   0  0  0  0  0  3  0  0  0  0  0  0
  179.7630  174.5410  141.1340 O   0  0  0  0  0  0  0  0  0  0  0  0
  183.0940  174.0940  137.4980 C   0  0  0  0  0  2  0  0  0  0  0  0
  183.5810  173.9670  136.0600 C   0  0  0  0  0  1  0  0  0  0  0  0
  185.8540  179.1680  137.7160 C   0  0  0  0  0  2  0  0  0  0  0  0
  188.2890  176.5390  135.3580 C   0  0  0  0  0  2  0  0  0  0  0  0
  188.9620  177.8600  135.7480 C   0  0  2  0  0  3  0  0  0  0  0  0
  188.0440  178.8620  136.4870 C   0  0  1  0  0  3  0  0  0  0  0  0
  186.6010  178.3450  136.6810 C   0  0  1  0  0  3  0  0  0  0  0  0
  188.6260  179.1490  137.7100 F   0  0  0  0  0  0  0  0  0  0  0  0
  187.4110  176.0450  136.4720 C   0  0  0  0  0  3  0  0  0  0  0  0
  189.5230  178.4540  134.6300 F   0  0  0  0  0  0  0  0  0  0  0  0
  186.6010  176.9070  137.1010 C   0  0  0  0  0  3  0  0  0  0  0  0
  1  3  1  0  0  0  0
  1 23  1  1  0  0  0
  4 12  1  0  0  0  0
  5 19  1  0  0  0  0
  6  4  2  0  0  0  0
  6 18  1  0  0  0  0
  7 10  1  0  0  0  0
  9 27  1  1  0  0  0
  9 15  1  0  0  0  0
 10 17  1  0  0  0  0
 11  2  2  0  0  0  0
 11  1  1  0  0  0  0
 12  3  1  0  0  0  0
 15 19  1  1  0  0  0
 15 13  1  0  0  0  0
 16 18  1  0  0  0  0
 17 16  1  0  0  0  0
 18  8  1  1  0  0  0
 20 38  1  6  0  0  0
 20  5  1  0  0  0  0
 20  7  1  0  0  0  0
 21 14  1  1  0  0  0
 21  9  1  0  0  0  0
 21 15  1  0  0  0  0
 22 13  1  6  0  0  0
 22  4  1  0  0  0  0
 22 11  1  0  0  0  0
 23 24  1  0  0  0  0
 24 26  2  0  0  0  0
 24 25  1  0  0  0  0
 28 27  1  0  0  0  0
 29 28  1  0  0  0  0
 31 29  1  0  0  0  0
 31 30  1  1  0  0  0
 32 34  1  0  0  0  0
 34 35  1  0  0  0  0
 35 31  1  1  0  0  0
 36 33  1  6  0  0  0
 36 35  1  0  0  0  0
 37 32  1  0  0  0  0
 37 36  1  0  0  0  0
 38 39  1  0  0  0  0
 39 42  1  6  0  0  0
 40 41  1  0  0  0  0
 41 39  1  0  0  0  0
 43 42  1  0  0  0  0
 44 52  1  1  0  0  0
 44 43  1  0  0  0  0
 45 46  1  0  0  0  0
 45 47  1  0  0  0  0
 45 48  1  1  0  0  0
 46 47  1  0  0  0  0
 47 44  1  6  0  0  0
 48 49  1  1  0  0  0
 48 50  1  0  0  0  0
 50 51  2  0  0  0  0
 53 52  1  0  0  0  0
 54 38  1  0  0  0  0
 55 56  1  0  0  0  0
 55 60  1  0  0  0  0
 56 61  1  6  0  0  0
 56 57  1  0  0  0  0
 57 58  1  0  0  0  0
 57 59  1  1  0  0  0
 58 62  1  0  0  0  0
 58 54  1  1  0  0  0
 60 62  2  0  0  0  0
M  END
>  <MODEL>
9

>  <REMARK>
 VINA RESULT:      -3.4      1.746      2.470
  Name = 
  18 active torsions:
  status: ('A' for Active; 'I' for Inactive)
    1  A    between atoms: C_1  and  N_24
    2  A    between atoms: C_2  and  C_11
    3  A    between atoms: O_4  and  C_10
    4  A    between atoms: O_4  and  C_14
    5  A    between atoms: C_8  and  C_11
    6  A    between atoms: C_10  and  C_35
    7  A    between atoms: C_14  and  C_27
    8  A    between atoms: C_14  and  C_53
    9  A    between atoms: C_18  and  C_55
   10  A    between atoms: C_28  and  C_36
   11  A    between atoms: C_28  and  C_46
   12  A    between atoms: C_29  and  C_46
   13  A    between atoms: C_35  and  C_48
   14  A    between atoms: C_35  and  N_49
   15  A    between atoms: C_36  and  C_43
   16  A    between atoms: C_43  and  C_45
   17  A    between atoms: N_49  and  C_55
   18  A    between atoms: N_49  and  C_58
                            x       y       z     vdW  Elec       q    Type
                         _______ _______ _______ _____ _____    ______ ____

>  <TORSDO>
F 18

$$$$
