=
 OpenBabel11062415373D

 35 42  0  0  1  0  0  0  0  0999 V2000
  188.0260  178.3810  140.8870 C   0  0  0  0  0  0  0  0  0  0  0  0
  183.6960  177.9470  141.9840 O   0  0  0  0  0  0  0  0  0  0  0  0
  181.4950  177.3000  139.3210 C   0  0  1  0  0  3  0  0  0  0  0  0
  188.7590  177.9760  141.9960 C   0  0  0  0  0  3  0  0  0  0  0  0
  186.6990  178.6510  140.9680 C   0  0  0  0  0  0  0  0  0  0  0  0
  181.0490  175.8240  137.3360 C   0  0  0  0  0  2  0  0  0  0  0  0
  184.9300  178.8420  139.1000 C   0  0  0  0  0  2  0  0  0  0  0  0
  179.1150  177.2110  138.3240 C   0  0  0  0  0  2  0  0  0  0  0  0
  183.8830  177.7490  139.2840 C   0  0  1  0  0  3  0  0  0  0  0  0
  179.4900  177.7690  140.6380 O   0  0  0  0  0  0  0  0  0  0  0  0
  188.4110  178.2370  139.5380 N   0  0  0  0  0  2  0  0  0  0  0  0
  186.0770  178.0040  144.5680 C   0  0  0  0  0  3  0  0  0  0  0  0
  187.3380  178.4310  138.7150 O   0  0  0  0  0  0  0  0  0  0  0  0
  180.0920  178.8070  141.3510 C   0  0  1  0  0  3  0  0  0  0  0  0
  186.2410  178.2530  139.5950 C   0  0  1  0  0  3  0  0  0  0  0  0
  181.8390  177.0250  137.8680 C   0  0  2  0  0  3  0  0  0  0  0  0
  188.1480  177.2260  145.5770 C   0  0  0  0  0  0  0  0  0  0  0  0
  182.5960  178.5500  141.3430 C   0  0  1  0  0  3  0  0  0  0  0  0
  182.5530  178.2880  139.8020 C   0  0  2  0  0  3  0  0  0  0  0  0
  188.1040  177.8790  143.2300 C   0  0  0  0  0  0  0  0  0  0  0  0
  179.1490  179.4110  142.3990 C   0  0  0  0  0  2  0  0  0  0  0  0
  186.7220  178.1980  143.3410 C   0  0  0  0  0  0  0  0  0  0  0  0
  183.6370  176.8280  137.7240 S   0  0  0  0  0  0  0  0  0  0  0  0
  186.7820  177.5220  145.6810 C   0  0  0  0  0  3  0  0  0  0  0  0
  179.6000  175.8180  137.8680 C   0  0  0  0  0  2  0  0  0  0  0  0
  188.7960  177.3990  144.3480 C   0  0  0  0  0  3  0  0  0  0  0  0
  181.3000  178.2660  142.1140 C   0  0  1  0  0  3  0  0  0  0  0  0
  179.9670  179.6350  143.5380 O   0  0  0  0  0  0  0  0  0  0  0  0
  182.0710  179.0140  144.3020 O   0  0  0  0  0  0  0  0  0  0  0  0
  184.5610  179.0130  142.2580 C   0  0  0  0  0  2  0  0  0  0  0  0
  185.9990  178.5830  142.1860 C   0  0  0  0  0  0  0  0  0  0  0  0
  181.1860  179.0030  143.3990 C   0  0  0  0  0  0  0  0  0  0  0  0
  180.0590  177.8690  139.3550 C   0  0  1  0  0  3  0  0  0  0  0  0
  189.0550  177.5610  147.8510 C   0  0  0  0  0  1  0  0  0  0  0  0
  188.8250  176.7530  146.7060 O   0  0  0  0  0  0  0  0  0  0  0  0
  1  5  2  0  0  0  0
  1  4  1  0  0  0  0
  2 30  1  0  0  0  0
  3 33  1  0  0  0  0
  3 19  1  0  0  0  0
  4 20  2  0  0  0  0
  5 31  1  0  0  0  0
  6 16  1  0  0  0  0
  6 25  1  0  0  0  0
  7  9  1  0  0  0  0
  7 15  1  0  0  0  0
  8 33  1  0  0  0  0
  9 19  1  0  0  0  0
 10 14  1  0  0  0  0
 11  1  1  0  0  0  0
 12 24  2  0  0  0  0
 13 11  1  0  0  0  0
 13 15  1  0  0  0  0
 14 27  1  0  0  0  0
 14 21  1  0  0  0  0
 15  5  1  0  0  0  0
 16  3  1  0  0  0  0
 17 24  1  0  0  0  0
 17 35  1  0  0  0  0
 18  2  1  0  0  0  0
 18 27  1  0  0  0  0
 19 18  1  0  0  0  0
 20 22  1  0  0  0  0
 20 26  1  0  0  0  0
 21 28  1  0  0  0  0
 22 12  1  0  0  0  0
 23 16  1  0  0  0  0
 23  9  1  0  0  0  0
 25  8  1  0  0  0  0
 26 17  2  0  0  0  0
 27 32  1  0  0  0  0
 31 30  1  0  0  0  0
 31 22  2  0  0  0  0
 32 28  1  0  0  0  0
 32 29  2  0  0  0  0
 33 10  1  0  0  0  0
 35 34  1  0  0  0  0
M  END
>  <MODEL>
1

>  <REMARK>
 VINA RESULT:      -9.8      0.000      0.000
  Name = 
  1 active torsions:
  status: ('A' for Active; 'I' for Inactive)
    1  A    between atoms: C_18  and  O_26
                            x       y       z     vdW  Elec       q    Type
                         _______ _______ _______ _____ _____    ______ ____

>  <TORSDO>
F 1

$$$$
=
 OpenBabel11062415373D

 35 42  0  0  1  0  0  0  0  0999 V2000
  191.6810  177.5030  142.3180 C   0  0  0  0  0  0  0  0  0  0  0  0
  187.4400  177.6030  140.8510 O   0  0  0  0  0  0  0  0  0  0  0  0
  186.9560  176.6950  137.4900 C   0  0  1  0  0  3  0  0  0  0  0  0
  191.6240  177.2330  143.6800 C   0  0  0  0  0  3  0  0  0  0  0  0
  190.5830  177.8860  141.6200 C   0  0  0  0  0  0  0  0  0  0  0  0
  187.4260  174.9470  135.7470 C   0  0  0  0  0  2  0  0  0  0  0  0
  190.1600  177.9010  139.0750 C   0  0  0  0  0  2  0  0  0  0  0  0
  185.5140  176.6290  135.3500 C   0  0  0  0  0  2  0  0  0  0  0  0
  189.0220  176.9400  138.7480 C   0  0  1  0  0  3  0  0  0  0  0  0
  184.6620  177.5360  137.4150 O   0  0  0  0  0  0  0  0  0  0  0  0
  192.7050  177.1040  141.4340 N   0  0  0  0  0  2  0  0  0  0  0  0
  188.0220  177.9030  144.3050 C   0  0  0  0  0  3  0  0  0  0  0  0
  192.2930  177.2420  140.1390 O   0  0  0  0  0  0  0  0  0  0  0  0
  184.9400  178.6280  138.2390 C   0  0  1  0  0  3  0  0  0  0  0  0
  190.8830  177.3010  140.2700 C   0  0  1  0  0  3  0  0  0  0  0  0
  187.9820  176.1540  136.5100 C   0  0  2  0  0  3  0  0  0  0  0  0
  189.0650  177.1450  146.3650 C   0  0  0  0  0  0  0  0  0  0  0  0
  186.9730  178.1750  139.6510 C   0  0  1  0  0  3  0  0  0  0  0  0
  187.7280  177.6630  138.3820 C   0  0  2  0  0  3  0  0  0  0  0  0
  190.4000  177.3950  144.3430 C   0  0  0  0  0  0  0  0  0  0  0  0
  183.6910  179.4710  138.5200 C   0  0  0  0  0  2  0  0  0  0  0  0
  189.2480  177.8380  143.6330 C   0  0  0  0  0  0  0  0  0  0  0  0
  189.5150  175.7940  137.4130 S   0  0  0  0  0  0  0  0  0  0  0  0
  187.9270  177.5610  145.6610 C   0  0  0  0  0  3  0  0  0  0  0  0
  185.9400  175.1450  135.3780 C   0  0  0  0  0  2  0  0  0  0  0  0
  190.2920  177.0560  145.6960 C   0  0  0  0  0  3  0  0  0  0  0  0
  185.4410  178.1280  139.5930 C   0  0  1  0  0  3  0  0  0  0  0  0
  183.7870  179.8180  139.8930 O   0  0  0  0  0  0  0  0  0  0  0  0
  185.0150  179.1690  141.7550 O   0  0  0  0  0  0  0  0  0  0  0  0
  188.1770  178.6280  141.4580 C   0  0  0  0  0  2  0  0  0  0  0  0
  189.3360  178.0800  142.2400 C   0  0  0  0  0  0  0  0  0  0  0  0
  184.7700  179.0770  140.5180 C   0  0  0  0  0  0  0  0  0  0  0  0
  185.8420  177.3730  136.6630 C   0  0  1  0  0  3  0  0  0  0  0  0
  188.3050  177.6730  148.6570 C   0  0  0  0  0  1  0  0  0  0  0  0
  188.9400  176.8150  147.7180 O   0  0  0  0  0  0  0  0  0  0  0  0
  1  4  1  0  0  0  0
  2 30  1  0  0  0  0
  3 19  1  0  0  0  0
  4 20  2  0  0  0  0
  5 31  1  0  0  0  0
  5  1  2  0  0  0  0
  6 16  1  0  0  0  0
  7 15  1  0  0  0  0
  8 25  1  0  0  0  0
  8 33  1  0  0  0  0
  9  7  1  0  0  0  0
 10 14  1  0  0  0  0
 11  1  1  0  0  0  0
 12 24  2  0  0  0  0
 13 15  1  0  0  0  0
 13 11  1  0  0  0  0
 14 21  1  0  0  0  0
 14 27  1  0  0  0  0
 15  5  1  0  0  0  0
 16 23  1  0  0  0  0
 16  3  1  0  0  0  0
 17 35  1  0  0  0  0
 18  2  1  0  0  0  0
 19  9  1  0  0  0  0
 19 18  1  0  0  0  0
 20 26  1  0  0  0  0
 21 28  1  0  0  0  0
 22 12  1  0  0  0  0
 22 20  1  0  0  0  0
 23  9  1  0  0  0  0
 24 17  1  0  0  0  0
 25  6  1  0  0  0  0
 26 17  2  0  0  0  0
 27 18  1  0  0  0  0
 27 32  1  0  0  0  0
 28 32  1  0  0  0  0
 30 31  1  0  0  0  0
 31 22  2  0  0  0  0
 32 29  2  0  0  0  0
 33 10  1  0  0  0  0
 33  3  1  0  0  0  0
 35 34  1  0  0  0  0
M  END
>  <MODEL>
2

>  <REMARK>
 VINA RESULT:      -9.4      3.288      4.713
  Name = 
  1 active torsions:
  status: ('A' for Active; 'I' for Inactive)
    1  A    between atoms: C_18  and  O_26
                            x       y       z     vdW  Elec       q    Type
                         _______ _______ _______ _____ _____    ______ ____

>  <TORSDO>
F 1

$$$$
=
 OpenBabel11062415373D

 35 42  0  0  1  0  0  0  0  0999 V2000
  189.3090  177.9690  139.2610 C   0  0  0  0  0  0  0  0  0  0  0  0
  185.3870  177.7760  141.4350 O   0  0  0  0  0  0  0  0  0  0  0  0
  182.5420  177.2970  139.4290 C   0  0  1  0  0  3  0  0  0  0  0  0
  190.2770  177.5050  140.1460 C   0  0  0  0  0  3  0  0  0  0  0  0
  188.0670  178.3150  139.6810 C   0  0  0  0  0  0  0  0  0  0  0  0
  181.5130  175.8780  137.6280 C   0  0  0  0  0  2  0  0  0  0  0  0
  185.8930  178.6360  138.3300 C   0  0  0  0  0  2  0  0  0  0  0  0
  179.9850  177.3640  139.0760 C   0  0  0  0  0  2  0  0  0  0  0  0
  184.8640  177.6040  138.7780 C   0  0  1  0  0  3  0  0  0  0  0  0
  180.9740  177.8660  141.2160 O   0  0  0  0  0  0  0  0  0  0  0  0
  189.3260  177.8200  137.8590 N   0  0  0  0  0  2  0  0  0  0  0  0
  188.3510  177.6560  143.3210 C   0  0  0  0  0  3  0  0  0  0  0  0
  188.0920  178.0890  137.3400 O   0  0  0  0  0  0  0  0  0  0  0  0
  181.8010  178.8570  141.7480 C   0  0  1  0  0  3  0  0  0  0  0  0
  187.2480  177.9640  138.4720 C   0  0  1  0  0  3  0  0  0  0  0  0
  182.4850  177.0230  137.9370 C   0  0  2  0  0  3  0  0  0  0  0  0
  190.5600  176.7430  143.7650 C   0  0  0  0  0  0  0  0  0  0  0  0
  184.1980  178.4520  141.0970 C   0  0  1  0  0  3  0  0  0  0  0  0
  183.7460  178.2140  139.6200 C   0  0  2  0  0  3  0  0  0  0  0  0
  189.9560  177.4290  141.5070 C   0  0  0  0  0  0  0  0  0  0  0  0
  181.1970  179.5000  143.0020 C   0  0  0  0  0  2  0  0  0  0  0  0
  188.6700  177.8290  141.9690 C   0  0  0  0  0  0  0  0  0  0  0  0
  184.1700  176.7220  137.3360 S   0  0  0  0  0  0  0  0  0  0  0  0
  189.2880  177.1180  144.2160 C   0  0  0  0  0  3  0  0  0  0  0  0
  180.2510  175.9500  138.5140 C   0  0  0  0  0  2  0  0  0  0  0  0
  190.8810  176.8940  142.4100 C   0  0  0  0  0  3  0  0  0  0  0  0
  183.1300  178.2340  142.1760 C   0  0  1  0  0  3  0  0  0  0  0  0
  182.2920  179.6600  143.8920 O   0  0  0  0  0  0  0  0  0  0  0  0
  184.4790  178.9050  144.0910 O   0  0  0  0  0  0  0  0  0  0  0  0
  186.3580  178.7850  141.4760 C   0  0  0  0  0  2  0  0  0  0  0  0
  187.7000  178.2720  141.0370 C   0  0  0  0  0  0  0  0  0  0  0  0
  183.3940  178.9590  143.4450 C   0  0  0  0  0  0  0  0  0  0  0  0
  181.2000  177.9500  139.8290 C   0  0  1  0  0  3  0  0  0  0  0  0
  191.5860  176.7010  146.0130 C   0  0  0  0  0  1  0  0  0  0  0  0
  191.4740  176.2150  144.6830 O   0  0  0  0  0  0  0  0  0  0  0  0
  1  5  2  0  0  0  0
  1  4  1  0  0  0  0
  2 30  1  0  0  0  0
  3 19  1  0  0  0  0
  3 33  1  0  0  0  0
  4 20  2  0  0  0  0
  5 31  1  0  0  0  0
  6 16  1  0  0  0  0
  6 25  1  0  0  0  0
  7 15  1  0  0  0  0
  7  9  1  0  0  0  0
  8 33  1  0  0  0  0
  9 19  1  0  0  0  0
 10 14  1  0  0  0  0
 11  1  1  0  0  0  0
 12 24  2  0  0  0  0
 13 11  1  0  0  0  0
 13 15  1  0  0  0  0
 14 27  1  0  0  0  0
 14 21  1  0  0  0  0
 15  5  1  0  0  0  0
 16  3  1  0  0  0  0
 17 24  1  0  0  0  0
 17 35  1  0  0  0  0
 18  2  1  0  0  0  0
 18 27  1  0  0  0  0
 19 18  1  0  0  0  0
 20 22  1  0  0  0  0
 20 26  1  0  0  0  0
 21 28  1  0  0  0  0
 22 12  1  0  0  0  0
 23 16  1  0  0  0  0
 23  9  1  0  0  0  0
 25  8  1  0  0  0  0
 26 17  2  0  0  0  0
 27 32  1  0  0  0  0
 31 30  1  0  0  0  0
 31 22  2  0  0  0  0
 32 28  1  0  0  0  0
 32 29  2  0  0  0  0
 33 10  1  0  0  0  0
 35 34  1  0  0  0  0
M  END
>  <MODEL>
3

>  <REMARK>
 VINA RESULT:      -9.0      1.547      2.031
  Name = 
  1 active torsions:
  status: ('A' for Active; 'I' for Inactive)
    1  A    between atoms: C_18  and  O_26
                            x       y       z     vdW  Elec       q    Type
                         _______ _______ _______ _____ _____    ______ ____

>  <TORSDO>
F 1

$$$$
=
 OpenBabel11062415373D

 35 42  0  0  1  0  0  0  0  0999 V2000
  188.9680  178.1600  140.9470 C   0  0  0  0  0  0  0  0  0  0  0  0
  184.5080  177.8740  140.5470 O   0  0  0  0  0  0  0  0  0  0  0  0
  183.3060  176.9750  137.3690 C   0  0  1  0  0  3  0  0  0  0  0  0
  189.2680  177.8650  142.2720 C   0  0  0  0  0  3  0  0  0  0  0  0
  187.7040  178.4470  140.5490 C   0  0  0  0  0  0  0  0  0  0  0  0
  183.4930  175.3070  135.4980 C   0  0  0  0  0  2  0  0  0  0  0  0
  186.6770  178.4600  138.1820 C   0  0  0  0  0  2  0  0  0  0  0  0
  181.3990  176.8040  135.6360 C   0  0  0  0  0  2  0  0  0  0  0  0
  185.5840  177.3990  138.1020 C   0  0  1  0  0  3  0  0  0  0  0  0
  180.9960  177.5930  137.8780 O   0  0  0  0  0  0  0  0  0  0  0  0
  189.7790  177.8760  139.8290 N   0  0  0  0  0  2  0  0  0  0  0  0
  185.8800  178.1770  143.7680 C   0  0  0  0  0  3  0  0  0  0  0  0
  189.0550  177.9930  138.6770 O   0  0  0  0  0  0  0  0  0  0  0  0
  181.3660  178.6940  138.6520 C   0  0  1  0  0  3  0  0  0  0  0  0
  187.7190  177.9140  139.1450 C   0  0  1  0  0  3  0  0  0  0  0  0
  184.1070  176.5510  136.1510 C   0  0  2  0  0  3  0  0  0  0  0  0
  187.4560  177.4910  145.4880 C   0  0  0  0  0  0  0  0  0  0  0  0
  183.7140  178.4170  139.5170 C   0  0  1  0  0  3  0  0  0  0  0  0
  184.1810  177.9990  138.0850 C   0  0  2  0  0  3  0  0  0  0  0  0
  188.2330  177.8990  143.2140 C   0  0  0  0  0  0  0  0  0  0  0  0
  180.1530  179.4090  139.2570 C   0  0  0  0  0  2  0  0  0  0  0  0
  186.9080  178.2390  142.8200 C   0  0  0  0  0  0  0  0  0  0  0  0
  185.8390  176.3260  136.6440 S   0  0  0  0  0  0  0  0  0  0  0  0
  186.1490  177.8060  145.0940 C   0  0  0  0  0  3  0  0  0  0  0  0
  181.9500  175.3670  135.5040 C   0  0  0  0  0  2  0  0  0  0  0  0
  188.4870  177.5310  144.5400 C   0  0  0  0  0  3  0  0  0  0  0  0
  182.2240  178.2240  139.8270 C   0  0  1  0  0  3  0  0  0  0  0  0
  180.5470  179.7420  140.5790 O   0  0  0  0  0  0  0  0  0  0  0  0
  182.2440  179.1860  142.0650 O   0  0  0  0  0  0  0  0  0  0  0  0
  185.2750  178.9560  140.9970 C   0  0  0  0  0  2  0  0  0  0  0  0
  186.6330  178.5100  141.4570 C   0  0  0  0  0  0  0  0  0  0  0  0
  181.7150  179.0890  140.9210 C   0  0  0  0  0  0  0  0  0  0  0  0
  181.9680  177.5560  136.8600 C   0  0  1  0  0  3  0  0  0  0  0  0
  188.9880  177.1800  147.4020 C   0  0  0  0  0  1  0  0  0  0  0  0
  187.6930  177.1300  146.8180 O   0  0  0  0  0  0  0  0  0  0  0  0
  1  4  1  0  0  0  0
  2 30  1  0  0  0  0
  3 19  1  0  0  0  0
  4 20  2  0  0  0  0
  5  1  2  0  0  0  0
  5 31  1  0  0  0  0
  6 25  1  0  0  0  0
  6 16  1  0  0  0  0
  7 15  1  0  0  0  0
  8 33  1  0  0  0  0
  9  7  1  0  0  0  0
 10 14  1  0  0  0  0
 11  1  1  0  0  0  0
 12 24  2  0  0  0  0
 13 15  1  0  0  0  0
 13 11  1  0  0  0  0
 14 21  1  0  0  0  0
 14 27  1  0  0  0  0
 15  5  1  0  0  0  0
 16 23  1  0  0  0  0
 16  3  1  0  0  0  0
 17 35  1  0  0  0  0
 18 27  1  0  0  0  0
 18  2  1  0  0  0  0
 19  9  1  0  0  0  0
 19 18  1  0  0  0  0
 20 26  1  0  0  0  0
 21 28  1  0  0  0  0
 22 20  1  0  0  0  0
 22 12  1  0  0  0  0
 23  9  1  0  0  0  0
 24 17  1  0  0  0  0
 25  8  1  0  0  0  0
 26 17  2  0  0  0  0
 27 32  1  0  0  0  0
 28 32  1  0  0  0  0
 30 31  1  0  0  0  0
 31 22  2  0  0  0  0
 32 29  2  0  0  0  0
 33  3  1  0  0  0  0
 33 10  1  0  0  0  0
 35 34  1  0  0  0  0
M  END
>  <MODEL>
4

>  <REMARK>
 VINA RESULT:      -8.8      1.613      2.143
  Name = 
  1 active torsions:
  status: ('A' for Active; 'I' for Inactive)
    1  A    between atoms: C_18  and  O_26
                            x       y       z     vdW  Elec       q    Type
                         _______ _______ _______ _____ _____    ______ ____

>  <TORSDO>
F 1

$$$$
=
 OpenBabel11062415373D

 35 42  0  0  1  0  0  0  0  0999 V2000
  181.6420  178.9750  142.1570 C   0  0  0  0  0  0  0  0  0  0  0  0
  185.8810  177.5030  142.0820 O   0  0  0  0  0  0  0  0  0  0  0  0
  187.6300  177.7050  145.1240 C   0  0  1  0  0  3  0  0  0  0  0  0
  180.9550  178.2580  141.1840 C   0  0  0  0  0  3  0  0  0  0  0  0
  182.9970  178.9910  142.2070 C   0  0  0  0  0  0  0  0  0  0  0  0
  187.5680  177.1360  147.5710 C   0  0  0  0  0  2  0  0  0  0  0  0
  184.5740  179.6800  144.1300 C   0  0  0  0  0  2  0  0  0  0  0  0
  189.8310  177.6940  146.4720 C   0  0  0  0  0  2  0  0  0  0  0  0
  185.3900  178.4700  144.5700 C   0  0  1  0  0  3  0  0  0  0  0  0
  189.8090  177.2910  144.0960 O   0  0  0  0  0  0  0  0  0  0  0  0
  181.1030  179.4590  143.3670 N   0  0  0  0  0  2  0  0  0  0  0  0
  183.8290  176.8290  139.3090 C   0  0  0  0  0  3  0  0  0  0  0  0
  182.1060  179.8190  144.2210 O   0  0  0  0  0  0  0  0  0  0  0  0
  189.5040  178.0160  142.9430 C   0  0  1  0  0  3  0  0  0  0  0  0
  183.2260  179.1360  143.6840 C   0  0  1  0  0  3  0  0  0  0  0  0
  187.0950  178.1100  146.4860 C   0  0  2  0  0  3  0  0  0  0  0  0
  181.7540  176.0120  138.3410 C   0  0  0  0  0  0  0  0  0  0  0  0
  187.0110  178.1510  142.6180 C   0  0  1  0  0  3  0  0  0  0  0  0
  186.8470  178.5480  144.1210 C   0  0  2  0  0  3  0  0  0  0  0  0
  181.6960  177.5640  140.2180 C   0  0  0  0  0  0  0  0  0  0  0  0
  190.6480  177.9880  141.9240 C   0  0  0  0  0  2  0  0  0  0  0  0
  183.1180  177.6050  140.2330 C   0  0  0  0  0  0  0  0  0  0  0  0
  185.2890  178.2530  146.3820 S   0  0  0  0  0  0  0  0  0  0  0  0
  183.1540  176.0370  138.3680 C   0  0  0  0  0  3  0  0  0  0  0  0
  189.0320  176.7010  147.3430 C   0  0  0  0  0  2  0  0  0  0  0  0
  181.0350  176.7700  139.2740 C   0  0  0  0  0  3  0  0  0  0  0  0
  188.2920  177.3890  142.2540 C   0  0  1  0  0  3  0  0  0  0  0  0
  190.0100  177.8370  140.6640 O   0  0  0  0  0  0  0  0  0  0  0  0
  187.9100  177.2670  139.8510 O   0  0  0  0  0  0  0  0  0  0  0  0
  185.2810  178.4730  141.2700 C   0  0  0  0  0  2  0  0  0  0  0  0
  183.7860  178.3250  141.2530 C   0  0  0  0  0  0  0  0  0  0  0  0
  188.6800  177.5030  140.8250 C   0  0  0  0  0  0  0  0  0  0  0  0
  189.1480  177.9950  145.1210 C   0  0  1  0  0  3  0  0  0  0  0  0
  181.4130  173.8400  137.2130 C   0  0  0  0  0  1  0  0  0  0  0  0
  181.1100  175.2170  137.3870 O   0  0  0  0  0  0  0  0  0  0  0  0
  1  5  1  0  0  0  0
  1 11  1  0  0  0  0
  2 18  1  0  0  0  0
  3 16  1  0  0  0  0
  4  1  2  0  0  0  0
  5 15  1  0  0  0  0
  7  9  1  0  0  0  0
  8 25  1  0  0  0  0
  9 23  1  0  0  0  0
 10 33  1  0  0  0  0
 11 13  1  0  0  0  0
 12 22  1  0  0  0  0
 14 10  1  0  0  0  0
 15  7  1  0  0  0  0
 15 13  1  0  0  0  0
 16  6  1  0  0  0  0
 17 24  1  0  0  0  0
 17 26  2  0  0  0  0
 18 19  1  0  0  0  0
 19  9  1  0  0  0  0
 19  3  1  0  0  0  0
 20 22  2  0  0  0  0
 20  4  1  0  0  0  0
 21 14  1  0  0  0  0
 22 31  1  0  0  0  0
 23 16  1  0  0  0  0
 24 12  2  0  0  0  0
 25  6  1  0  0  0  0
 26 20  1  0  0  0  0
 27 18  1  0  0  0  0
 27 14  1  0  0  0  0
 28 32  1  0  0  0  0
 28 21  1  0  0  0  0
 29 32  2  0  0  0  0
 30  2  1  0  0  0  0
 31 30  1  0  0  0  0
 31  5  2  0  0  0  0
 32 27  1  0  0  0  0
 33  3  1  0  0  0  0
 33  8  1  0  0  0  0
 34 35  1  0  0  0  0
 35 17  1  0  0  0  0
M  END
>  <MODEL>
5

>  <REMARK>
 VINA RESULT:      -8.6      2.622      8.625
  Name = 
  1 active torsions:
  status: ('A' for Active; 'I' for Inactive)
    1  A    between atoms: C_18  and  O_26
                            x       y       z     vdW  Elec       q    Type
                         _______ _______ _______ _____ _____    ______ ____

>  <TORSDO>
F 1

$$$$
=
 OpenBabel11062415373D

 35 42  0  0  1  0  0  0  0  0999 V2000
  181.3070  178.6520  142.5780 C   0  0  0  0  0  0  0  0  0  0  0  0
  185.1570  177.7770  140.4450 O   0  0  0  0  0  0  0  0  0  0  0  0
  188.0430  177.7130  142.4500 C   0  0  1  0  0  3  0  0  0  0  0  0
  180.3000  178.0180  141.8590 C   0  0  0  0  0  3  0  0  0  0  0  0
  182.5460  178.8360  142.0610 C   0  0  0  0  0  0  0  0  0  0  0  0
  189.0790  176.7530  144.5290 C   0  0  0  0  0  2  0  0  0  0  0  0
  184.7670  179.4060  143.2440 C   0  0  0  0  0  2  0  0  0  0  0  0
  190.6090  177.7710  142.7230 C   0  0  0  0  0  2  0  0  0  0  0  0
  185.7510  178.2580  143.0480 C   0  0  1  0  0  3  0  0  0  0  0  0
  189.5750  177.7570  140.5460 O   0  0  0  0  0  0  0  0  0  0  0  0
  181.3250  178.8610  143.9730 N   0  0  0  0  0  2  0  0  0  0  0  0
  182.1380  177.2970  138.7100 C   0  0  0  0  0  3  0  0  0  0  0  0
  182.5810  179.2060  144.3830 O   0  0  0  0  0  0  0  0  0  0  0  0
  188.7640  178.6120  139.7980 C   0  0  1  0  0  3  0  0  0  0  0  0
  183.3880  178.7700  143.3020 C   0  0  1  0  0  3  0  0  0  0  0  0
  188.1340  177.8190  143.9610 C   0  0  2  0  0  3  0  0  0  0  0  0
  179.8900  176.3840  138.5530 C   0  0  0  0  0  0  0  0  0  0  0  0
  186.3750  178.4720  140.5780 C   0  0  1  0  0  3  0  0  0  0  0  0
  186.8620  178.5960  142.0580 C   0  0  2  0  0  3  0  0  0  0  0  0
  180.5800  177.5920  140.5540 C   0  0  0  0  0  0  0  0  0  0  0  0
  189.3510  178.8990  138.4110 C   0  0  0  0  0  2  0  0  0  0  0  0
  181.8630  177.8140  139.9810 C   0  0  0  0  0  0  0  0  0  0  0  0
  186.4580  177.7400  144.6530 S   0  0  0  0  0  0  0  0  0  0  0  0
  181.1600  176.5860  137.9980 C   0  0  0  0  0  3  0  0  0  0  0  0
  190.3160  176.5550  143.6280 C   0  0  0  0  0  2  0  0  0  0  0  0
  179.6130  176.8810  139.8340 C   0  0  0  0  0  3  0  0  0  0  0  0
  187.4050  177.9520  139.5670 C   0  0  1  0  0  3  0  0  0  0  0  0
  188.2370  178.8700  137.5310 O   0  0  0  0  0  0  0  0  0  0  0  0
  186.0220  178.1700  137.5730 O   0  0  0  0  0  0  0  0  0  0  0  0
  184.2170  178.7790  140.1710 C   0  0  0  0  0  2  0  0  0  0  0  0
  182.8730  178.4420  140.7510 C   0  0  0  0  0  0  0  0  0  0  0  0
  187.1270  178.3440  138.1620 C   0  0  0  0  0  0  0  0  0  0  0  0
  189.3920  178.1940  141.8710 C   0  0  1  0  0  3  0  0  0  0  0  0
  179.1190  174.3200  137.4340 C   0  0  0  0  0  1  0  0  0  0  0  0
  178.9350  175.6760  137.8170 O   0  0  0  0  0  0  0  0  0  0  0  0
  1 11  1  0  0  0  0
  2 18  1  0  0  0  0
  3 16  1  0  0  0  0
  4  1  2  0  0  0  0
  5  1  1  0  0  0  0
  5 15  1  0  0  0  0
  7 15  1  0  0  0  0
  8 25  1  0  0  0  0
  9  7  1  0  0  0  0
  9 23  1  0  0  0  0
 10 33  1  0  0  0  0
 11 13  1  0  0  0  0
 12 22  1  0  0  0  0
 14 10  1  0  0  0  0
 15 13  1  0  0  0  0
 16  6  1  0  0  0  0
 16 23  1  0  0  0  0
 17 26  2  0  0  0  0
 18 19  1  0  0  0  0
 19  3  1  0  0  0  0
 19  9  1  0  0  0  0
 20  4  1  0  0  0  0
 21 14  1  0  0  0  0
 22 20  2  0  0  0  0
 22 31  1  0  0  0  0
 24 17  1  0  0  0  0
 24 12  2  0  0  0  0
 25  6  1  0  0  0  0
 26 20  1  0  0  0  0
 27 14  1  0  0  0  0
 27 18  1  0  0  0  0
 28 32  1  0  0  0  0
 28 21  1  0  0  0  0
 29 32  2  0  0  0  0
 30  2  1  0  0  0  0
 30 31  1  0  0  0  0
 31  5  2  0  0  0  0
 32 27  1  0  0  0  0
 33  3  1  0  0  0  0
 33  8  1  0  0  0  0
 34 35  1  0  0  0  0
 35 17  1  0  0  0  0
M  END
>  <MODEL>
6

>  <REMARK>
 VINA RESULT:      -8.6      2.616      8.472
  Name = 
  1 active torsions:
  status: ('A' for Active; 'I' for Inactive)
    1  A    between atoms: C_18  and  O_26
                            x       y       z     vdW  Elec       q    Type
                         _______ _______ _______ _____ _____    ______ ____

>  <TORSDO>
F 1

$$$$
=
 OpenBabel11062415373D

 35 42  0  0  1  0  0  0  0  0999 V2000
  189.3650  178.0000  139.7660 C   0  0  0  0  0  0  0  0  0  0  0  0
  185.0450  177.8010  140.9660 O   0  0  0  0  0  0  0  0  0  0  0  0
  182.7630  177.1340  138.3780 C   0  0  1  0  0  3  0  0  0  0  0  0
  190.1050  177.6130  140.8780 C   0  0  0  0  0  3  0  0  0  0  0  0
  188.0540  178.3300  139.8620 C   0  0  0  0  0  0  0  0  0  0  0  0
  182.2130  175.5940  136.4700 C   0  0  0  0  0  2  0  0  0  0  0  0
  186.2550  178.5160  138.0220 C   0  0  0  0  0  2  0  0  0  0  0  0
  180.3610  177.1050  137.4320 C   0  0  0  0  0  2  0  0  0  0  0  0
  185.1670  177.4780  138.2740 C   0  0  1  0  0  3  0  0  0  0  0  0
  180.8080  177.7470  139.7120 O   0  0  0  0  0  0  0  0  0  0  0  0
  189.7160  177.7810  138.4180 N   0  0  0  0  0  2  0  0  0  0  0  0
  187.4820  177.8680  143.4980 C   0  0  0  0  0  3  0  0  0  0  0  0
  188.6350  177.9850  137.6090 O   0  0  0  0  0  0  0  0  0  0  0  0
  181.4680  178.7880  140.3660 C   0  0  1  0  0  3  0  0  0  0  0  0
  187.5500  177.8930  138.5160 C   0  0  1  0  0  3  0  0  0  0  0  0
  183.0640  176.7820  136.9320 C   0  0  2  0  0  3  0  0  0  0  0  0
  189.5390  177.0470  144.5010 C   0  0  0  0  0  0  0  0  0  0  0  0
  183.9580  178.4230  140.3200 C   0  0  1  0  0  3  0  0  0  0  0  0
  183.8720  178.0960  138.7940 C   0  0  2  0  0  3  0  0  0  0  0  0
  189.4730  177.5970  142.1280 C   0  0  0  0  0  0  0  0  0  0  0  0
  180.5750  179.4770  141.4040 C   0  0  0  0  0  2  0  0  0  0  0  0
  188.1080  177.9810  142.2520 C   0  0  0  0  0  0  0  0  0  0  0  0
  184.8490  176.5010  136.7620 S   0  0  0  0  0  0  0  0  0  0  0  0
  188.1890  177.4060  144.6170 C   0  0  0  0  0  3  0  0  0  0  0  0
  180.7760  175.6730  137.0290 C   0  0  0  0  0  2  0  0  0  0  0  0
  190.1680  177.1370  143.2520 C   0  0  0  0  0  3  0  0  0  0  0  0
  182.6690  178.2290  141.1290 C   0  0  1  0  0  3  0  0  0  0  0  0
  181.4250  179.7150  142.5150 O   0  0  0  0  0  0  0  0  0  0  0  0
  183.5170  179.0380  143.2650 O   0  0  0  0  0  0  0  0  0  0  0  0
  185.9610  178.8400  141.1750 C   0  0  0  0  0  2  0  0  0  0  0  0
  187.3770  178.3460  141.0940 C   0  0  0  0  0  0  0  0  0  0  0  0
  182.6140  179.0260  142.3810 C   0  0  0  0  0  0  0  0  0  0  0  0
  181.3530  177.7660  138.4140 C   0  0  1  0  0  3  0  0  0  0  0  0
  191.6320  176.6760  145.7610 C   0  0  0  0  0  1  0  0  0  0  0  0
  190.2190  176.5940  145.6350 O   0  0  0  0  0  0  0  0  0  0  0  0
  1  5  2  0  0  0  0
  1  4  1  0  0  0  0
  2 30  1  0  0  0  0
  3 33  1  0  0  0  0
  3 19  1  0  0  0  0
  4 20  2  0  0  0  0
  5 31  1  0  0  0  0
  6 16  1  0  0  0  0
  6 25  1  0  0  0  0
  7  9  1  0  0  0  0
  7 15  1  0  0  0  0
  8 33  1  0  0  0  0
  9 19  1  0  0  0  0
 10 14  1  0  0  0  0
 11  1  1  0  0  0  0
 12 24  2  0  0  0  0
 13 11  1  0  0  0  0
 13 15  1  0  0  0  0
 14 27  1  0  0  0  0
 14 21  1  0  0  0  0
 15  5  1  0  0  0  0
 16  3  1  0  0  0  0
 17 24  1  0  0  0  0
 17 35  1  0  0  0  0
 18  2  1  0  0  0  0
 18 27  1  0  0  0  0
 19 18  1  0  0  0  0
 20 22  1  0  0  0  0
 20 26  1  0  0  0  0
 21 28  1  0  0  0  0
 22 12  1  0  0  0  0
 23 16  1  0  0  0  0
 23  9  1  0  0  0  0
 25  8  1  0  0  0  0
 26 17  2  0  0  0  0
 27 32  1  0  0  0  0
 31 30  1  0  0  0  0
 31 22  2  0  0  0  0
 32 28  1  0  0  0  0
 32 29  2  0  0  0  0
 33 10  1  0  0  0  0
 35 34  1  0  0  0  0
M  END
>  <MODEL>
7

>  <REMARK>
 VINA RESULT:      -8.6      1.460      1.778
  Name = 
  1 active torsions:
  status: ('A' for Active; 'I' for Inactive)
    1  A    between atoms: C_18  and  O_26
                            x       y       z     vdW  Elec       q    Type
                         _______ _______ _______ _____ _____    ______ ____

>  <TORSDO>
F 1

$$$$
=
 OpenBabel11062415373D

 35 42  0  0  1  0  0  0  0  0999 V2000
  185.0990  178.2310  138.0570 C   0  0  0  0  0  0  0  0  0  0  0  0
  188.3680  177.1710  140.9430 O   0  0  0  0  0  0  0  0  0  0  0  0
  187.6850  177.7960  144.3340 C   0  0  1  0  0  3  0  0  0  0  0  0
  185.2330  177.3720  136.9720 C   0  0  0  0  0  3  0  0  0  0  0  0
  186.0870  178.3810  138.9730 C   0  0  0  0  0  0  0  0  0  0  0  0
  186.0400  177.4320  146.1990 C   0  0  0  0  0  2  0  0  0  0  0  0
  186.0010  179.3780  141.3510 C   0  0  0  0  0  2  0  0  0  0  0  0
  188.4580  178.1100  146.7760 C   0  0  0  0  0  2  0  0  0  0  0  0
  186.3480  178.2930  142.3650 C   0  0  1  0  0  3  0  0  0  0  0  0
  190.0090  177.5080  145.0330 O   0  0  0  0  0  0  0  0  0  0  0  0
  183.8900  178.7620  138.5520 N   0  0  0  0  0  2  0  0  0  0  0  0
  188.6550  176.0720  137.6170 C   0  0  0  0  0  3  0  0  0  0  0  0
  184.0790  179.2870  139.7980 O   0  0  0  0  0  0  0  0  0  0  0  0
  190.5240  178.1000  143.8780 C   0  0  1  0  0  3  0  0  0  0  0  0
  185.2870  178.6710  140.2110 C   0  0  1  0  0  3  0  0  0  0  0  0
  186.3800  178.2610  144.9550 C   0  0  2  0  0  3  0  0  0  0  0  0
  187.7410  174.9820  135.6450 C   0  0  0  0  0  0  0  0  0  0  0  0
  188.8570  177.9680  141.9970 C   0  0  1  0  0  3  0  0  0  0  0  0
  187.7390  178.4720  142.9660 C   0  0  2  0  0  3  0  0  0  0  0  0
  186.4370  176.6730  136.8180 C   0  0  0  0  0  0  0  0  0  0  0  0
  192.0570  178.0960  143.8620 C   0  0  0  0  0  2  0  0  0  0  0  0
  187.4990  176.8510  137.7480 C   0  0  0  0  0  0  0  0  0  0  0  0
  185.0840  178.2200  143.6840 S   0  0  0  0  0  0  0  0  0  0  0  0
  188.7780  175.1430  136.5730 C   0  0  0  0  0  3  0  0  0  0  0  0
  187.3000  177.1210  147.0350 C   0  0  0  0  0  2  0  0  0  0  0  0
  186.5730  175.7430  135.7810 C   0  0  0  0  0  3  0  0  0  0  0  0
  190.0750  177.3040  142.6540 C   0  0  1  0  0  3  0  0  0  0  0  0
  192.4060  177.7790  142.5230 O   0  0  0  0  0  0  0  0  0  0  0  0
  191.3680  176.9440  140.6200 O   0  0  0  0  0  0  0  0  0  0  0  0
  188.4330  178.0070  139.8210 C   0  0  0  0  0  2  0  0  0  0  0  0
  187.3200  177.7160  138.8560 C   0  0  0  0  0  0  0  0  0  0  0  0
  191.3040  177.3340  141.8210 C   0  0  0  0  0  0  0  0  0  0  0  0
  188.8260  178.2280  145.2810 C   0  0  1  0  0  3  0  0  0  0  0  0
  188.8510  173.0000  134.6710 C   0  0  0  0  0  1  0  0  0  0  0  0
  187.8960  174.0510  134.6130 O   0  0  0  0  0  0  0  0  0  0  0  0
  1 11  1  0  0  0  0
  1  5  1  0  0  0  0
  2 18  1  0  0  0  0
  3 16  1  0  0  0  0
  3 33  1  0  0  0  0
  4  1  2  0  0  0  0
  5 15  1  0  0  0  0
  6 25  1  0  0  0  0
  7  9  1  0  0  0  0
  8 25  1  0  0  0  0
  9 19  1  0  0  0  0
  9 23  1  0  0  0  0
 10 33  1  0  0  0  0
 11 13  1  0  0  0  0
 12 22  1  0  0  0  0
 13 15  1  0  0  0  0
 14 10  1  0  0  0  0
 15  7  1  0  0  0  0
 16  6  1  0  0  0  0
 17 26  2  0  0  0  0
 17 24  1  0  0  0  0
 18 27  1  0  0  0  0
 18 19  1  0  0  0  0
 19  3  1  0  0  0  0
 20  4  1  0  0  0  0
 20 22  2  0  0  0  0
 21 14  1  0  0  0  0
 22 31  1  0  0  0  0
 23 16  1  0  0  0  0
 24 12  2  0  0  0  0
 26 20  1  0  0  0  0
 27 14  1  0  0  0  0
 28 21  1  0  0  0  0
 29 32  2  0  0  0  0
 30  2  1  0  0  0  0
 31  5  2  0  0  0  0
 31 30  1  0  0  0  0
 32 28  1  0  0  0  0
 32 27  1  0  0  0  0
 33  8  1  0  0  0  0
 35 34  1  0  0  0  0
 35 17  1  0  0  0  0
M  END
>  <MODEL>
8

>  <REMARK>
 VINA RESULT:      -8.4      3.623      8.588
  Name = 
  1 active torsions:
  status: ('A' for Active; 'I' for Inactive)
    1  A    between atoms: C_18  and  O_26
                            x       y       z     vdW  Elec       q    Type
                         _______ _______ _______ _____ _____    ______ ____

>  <TORSDO>
F 1

$$$$
=
 OpenBabel11062415373D

 35 42  0  0  1  0  0  0  0  0999 V2000
  184.1410  178.4730  139.0060 C   0  0  0  0  0  0  0  0  0  0  0  0
  188.3030  176.9670  139.7480 O   0  0  0  0  0  0  0  0  0  0  0  0
  189.5560  177.4530  142.9960 C   0  0  1  0  0  3  0  0  0  0  0  0
  183.6000  177.6690  138.0090 C   0  0  0  0  0  3  0  0  0  0  0  0
  185.4710  178.4830  139.2700 C   0  0  0  0  0  0  0  0  0  0  0  0
  189.0960  177.1270  145.4450 C   0  0  0  0  0  2  0  0  0  0  0  0
  186.7410  179.3450  141.3440 C   0  0  0  0  0  2  0  0  0  0  0  0
  191.5160  177.5570  144.6720 C   0  0  0  0  0  2  0  0  0  0  0  0
  187.4500  178.1770  142.0220 C   0  0  1  0  0  3  0  0  0  0  0  0
  191.8590  176.9230  142.3720 O   0  0  0  0  0  0  0  0  0  0  0  0
  183.4300  179.0780  140.0630 N   0  0  0  0  0  2  0  0  0  0  0  0
  186.6990  176.0410  136.7610 C   0  0  0  0  0  3  0  0  0  0  0  0
  184.2940  179.5120  141.0280 O   0  0  0  0  0  0  0  0  0  0  0  0
  191.7560  177.5340  141.1210 C   0  0  1  0  0  3  0  0  0  0  0  0
  185.4680  178.7700  140.7440 C   0  0  1  0  0  3  0  0  0  0  0  0
  188.8230  177.9940  144.2100 C   0  0  2  0  0  3  0  0  0  0  0  0
  184.7840  175.1500  135.5570 C   0  0  0  0  0  0  0  0  0  0  0  0
  189.3500  177.6560  140.3920 C   0  0  1  0  0  3  0  0  0  0  0  0
  188.9600  178.1990  141.8050 C   0  0  2  0  0  3  0  0  0  0  0  0
  184.4670  176.8790  137.2450 C   0  0  0  0  0  0  0  0  0  0  0  0
  193.0460  177.3970  140.3040 C   0  0  0  0  0  2  0  0  0  0  0  0
  185.8700  176.9090  137.4810 C   0  0  0  0  0  0  0  0  0  0  0  0
  187.0590  178.1400  143.8070 S   0  0  0  0  0  0  0  0  0  0  0  0
  186.1630  175.1660  135.8050 C   0  0  0  0  0  3  0  0  0  0  0  0
  190.5660  176.6600  145.4960 C   0  0  0  0  0  2  0  0  0  0  0  0
  183.9450  176.0010  136.2880 C   0  0  0  0  0  3  0  0  0  0  0  0
  190.6540  176.8520  140.3120 C   0  0  1  0  0  3  0  0  0  0  0  0
  192.6110  177.1280  138.9800 O   0  0  0  0  0  0  0  0  0  0  0  0
  190.6530  176.4980  137.9010 O   0  0  0  0  0  0  0  0  0  0  0  0
  187.8620  177.8580  138.7610 C   0  0  0  0  0  2  0  0  0  0  0  0
  186.3850  177.7210  138.5220 C   0  0  0  0  0  0  0  0  0  0  0  0
  191.2650  176.8220  138.9580 C   0  0  0  0  0  0  0  0  0  0  0  0
  191.0610  177.7290  143.2060 C   0  0  1  0  0  3  0  0  0  0  0  0
  183.3780  173.2210  134.9160 C   0  0  0  0  0  1  0  0  0  0  0  0
  184.2800  174.2700  134.5940 O   0  0  0  0  0  0  0  0  0  0  0  0
  1  5  1  0  0  0  0
  1 11  1  0  0  0  0
  2 18  1  0  0  0  0
  3 33  1  0  0  0  0
  3 16  1  0  0  0  0
  4  1  2  0  0  0  0
  5 15  1  0  0  0  0
  6 25  1  0  0  0  0
  7  9  1  0  0  0  0
  8 25  1  0  0  0  0
  9 23  1  0  0  0  0
 10 33  1  0  0  0  0
 11 13  1  0  0  0  0
 12 22  1  0  0  0  0
 14 10  1  0  0  0  0
 15 13  1  0  0  0  0
 15  7  1  0  0  0  0
 16  6  1  0  0  0  0
 17 24  1  0  0  0  0
 17 26  2  0  0  0  0
 18 19  1  0  0  0  0
 19  9  1  0  0  0  0
 19  3  1  0  0  0  0
 20 22  2  0  0  0  0
 20  4  1  0  0  0  0
 21 14  1  0  0  0  0
 22 31  1  0  0  0  0
 23 16  1  0  0  0  0
 24 12  2  0  0  0  0
 26 20  1  0  0  0  0
 27 18  1  0  0  0  0
 27 14  1  0  0  0  0
 28 21  1  0  0  0  0
 29 32  2  0  0  0  0
 30  2  1  0  0  0  0
 31 30  1  0  0  0  0
 31  5  2  0  0  0  0
 32 28  1  0  0  0  0
 32 27  1  0  0  0  0
 33  8  1  0  0  0  0
 35 34  1  0  0  0  0
 35 17  1  0  0  0  0
M  END
>  <MODEL>
9

>  <REMARK>
 VINA RESULT:      -8.3      3.381      9.310
  Name = 
  1 active torsions:
  status: ('A' for Active; 'I' for Inactive)
    1  A    between atoms: C_18  and  O_26
                            x       y       z     vdW  Elec       q    Type
                         _______ _______ _______ _____ _____    ______ ____

>  <TORSDO>
F 1

$$$$
