=
 OpenBabel11062413553D

 61 66  0  0  1  0  0  0  0  0999 V2000
  189.6040  177.5720  138.1190 C   0  0  1  0  0  3  0  0  0  0  0  0
  189.8850  177.1930  141.9120 C   0  0  2  0  0  3  0  0  0  0  0  0
  190.4820  176.9200  140.5130 C   0  0  1  0  0  3  0  0  0  0  0  0
  188.7190  178.0680  141.5860 C   0  0  0  0  0  0  0  0  0  0  0  0
  187.9900  178.6430  142.4390 O   0  0  0  0  0  0  0  0  0  0  0  0
  189.2790  177.1530  139.5640 C   0  0  1  0  0  3  0  0  0  0  0  0
  188.4290  178.0690  140.2380 O   0  0  0  0  0  0  0  0  0  0  0  0
  191.9030  176.7540  143.3670 C   0  0  0  0  0  2  0  0  0  0  0  0
  190.0750  178.0820  144.2520 C   0  0  0  0  0  2  0  0  0  0  0  0
  191.8110  175.0520  145.0420 F   0  0  0  0  0  0  0  0  0  0  0  0
  190.2610  176.8710  145.1380 C   0  0  2  0  0  0  0  0  0  0  0  0
  191.6720  176.4140  144.8330 C   0  0  2  0  0  3  0  0  0  0  0  0
  189.3480  175.8900  144.7760 F   0  0  0  0  0  0  0  0  0  0  0  0
  190.8390  177.7800  142.9720 C   0  0  2  0  0  3  0  0  0  0  0  0
  190.0820  177.2280  146.6040 C   0  0  0  0  0  2  0  0  0  0  0  0
  187.3710  178.8960  148.0840 O   0  0  0  0  0  0  0  0  0  0  0  0
  187.8260  178.1810  147.1530 C   0  0  0  0  0  0  0  0  0  0  0  0
  189.1690  178.3590  146.7180 N   0  0  0  0  0  2  0  0  0  0  0  0
  186.9090  177.2320  146.4460 C   0  0  0  0  0  2  0  0  0  0  0  0
  186.2010  177.9440  145.3000 C   0  0  0  0  0  2  0  0  0  0  0  0
  184.4310  178.3610  146.6710 O   0  0  0  0  0  1  0  0  0  0  0  0
  185.2950  178.9620  145.8150 N   0  0  0  0  0  0  0  0  0  0  0  0
  184.5340  179.5380  144.7020 C   0  0  0  0  0  2  0  0  0  0  0  0
  183.5320  178.5030  142.7990 O   0  0  0  0  0  1  0  0  0  0  0  0
  184.7610  178.8110  143.3790 C   0  0  0  0  0  2  0  0  0  0  0  0
  192.6420  177.1220  139.5320 F   0  0  0  0  0  0  0  0  0  0  0  0
  191.6630  177.8470  140.1940 C   0  0  0  0  0  2  0  0  0  0  0  0
  189.3620  176.2610  135.9980 O   0  0  0  0  0  0  0  0  0  0  0  0
  189.9750  176.3720  137.2300 C   0  0  0  0  0  0  0  0  0  0  0  0
  190.6170  176.7460  136.0640 O   0  0  0  0  0  0  0  0  0  0  0  0
  190.4830  175.0630  137.8270 C   0  0  0  0  0  3  0  0  0  0  0  0
  191.8410  175.1580  138.0750 F   0  0  0  0  0  0  0  0  0  0  0  0
  190.2570  174.0020  136.9640 F   0  0  0  0  0  0  0  0  0  0  0  0
  188.4490  178.3300  137.4640 C   0  0  0  0  0  2  0  0  0  0  0  0
  185.0170  178.2090  139.1880 C   0  0  0  0  0  2  0  0  0  0  0  0
  184.8640  177.0410  136.9370 C   0  0  1  0  0  3  0  0  0  0  0  0
  186.2790  177.5280  136.6150 C   0  0  0  0  0  2  0  0  0  0  0  0
  186.3720  178.7690  138.7770 C   0  0  0  0  0  2  0  0  0  0  0  0
  187.0950  177.7730  137.8750 C   0  0  2  0  0  3  0  0  0  0  0  0
  184.1530  177.9610  137.9490 C   0  0  1  0  0  3  0  0  0  0  0  0
  181.8880  178.0750  139.1500 C   0  0  0  0  0  0  0  0  0  0  0  0
  182.1050  179.2640  139.5250 O   0  0  0  0  0  0  0  0  0  0  0  0
  182.8630  177.3950  138.3430 N   0  0  0  0  0  2  0  0  0  0  0  0
  180.6430  177.3810  139.5470 C   0  0  0  0  0  0  0  0  0  0  0  0
  180.4720  176.1140  139.1910 C   0  0  0  0  0  2  0  0  0  0  0  0
  179.6530  178.0180  140.4440 C   0  0  0  0  0  0  0  0  0  0  0  0
  179.4820  177.5630  141.7440 O   0  0  0  0  0  1  0  0  0  0  0  0
  178.9380  178.9720  140.0300 O   0  0  0  0  0  0  0  0  0  0  0  0
  184.0400  176.8550  135.6540 C   0  0  0  0  0  2  0  0  0  0  0  0
  183.8680  175.3920  135.2340 C   0  0  0  0  0  2  0  0  0  0  0  0
  182.9910  174.6430  136.2310 C   0  0  1  0  0  3  0  0  0  0  0  0
  181.5480  174.4440  135.7400 C   0  0  0  0  0  2  0  0  0  0  0  0
  180.8950  175.6770  135.6910 O   0  0  0  0  0  1  0  0  0  0  0  0
  183.6320  173.5030  136.7730 O   0  0  0  0  0  0  0  0  0  0  0  0
  188.5270  172.4820  134.8260 C   0  0  0  0  0  1  0  0  0  0  0  0
  187.2170  173.3240  136.6560 O   0  0  0  0  0  0  0  0  0  0  0  0
  184.8800  173.3030  136.1560 C   0  0  2  0  0  3  0  0  0  0  0  0
  187.6360  172.1500  136.0090 C   0  0  1  0  0  3  0  0  0  0  0  0
  185.3270  171.8800  136.4640 C   0  0  1  0  0  3  0  0  0  0  0  0
  186.4060  171.4250  135.5230 C   0  0  0  0  0  2  0  0  0  0  0  0
  185.9490  173.0450  137.2070 C   0  0  1  0  0  3  0  0  0  0  0  0
  1 34  1  6  0  0  0
  2  4  1  6  0  0  0
  2 14  1  0  0  0  0
  3 27  1  6  0  0  0
  3  2  1  0  0  0  0
  4  5  2  0  0  0  0
  6  1  1  6  0  0  0
  6  7  1  0  0  0  0
  6  3  1  0  0  0  0
  7  4  1  0  0  0  0
  8 12  1  0  0  0  0
  9 11  1  0  0  0  0
 11 13  1  6  0  0  0
 11 15  1  0  0  0  0
 12 10  1  6  0  0  0
 12 11  1  0  0  0  0
 14  8  1  1  0  0  0
 14  9  1  0  0  0  0
 15 18  1  0  0  0  0
 17 16  2  0  0  0  0
 18 17  1  0  0  0  0
 19 17  1  0  0  0  0
 20 22  1  0  0  0  0
 20 19  1  0  0  0  0
 22 21  1  0  0  0  0
 23 22  1  0  0  0  0
 24 25  1  0  0  0  0
 25 23  1  0  0  0  0
 26 27  1  0  0  0  0
 28 30  1  0  0  0  0
 28 29  1  0  0  0  0
 29 31  1  0  0  0  0
 29  1  1  0  0  0  0
 30 29  1  0  0  0  0
 31 32  1  0  0  0  0
 33 31  1  0  0  0  0
 36 49  1  6  0  0  0
 36 40  1  0  0  0  0
 37 36  1  0  0  0  0
 37 39  1  0  0  0  0
 38 35  1  0  0  0  0
 39 34  1  6  0  0  0
 39 38  1  0  0  0  0
 40 43  1  1  0  0  0
 40 35  1  0  0  0  0
 41 42  2  0  0  0  0
 41 44  1  0  0  0  0
 43 41  1  0  0  0  0
 44 46  1  0  0  0  0
 45 44  2  0  0  0  0
 46 47  1  0  0  0  0
 48 46  2  0  0  0  0
 50 49  1  0  0  0  0
 51 50  1  6  0  0  0
 51 54  1  0  0  0  0
 52 51  1  0  0  0  0
 53 52  1  0  0  0  0
 57 59  1  0  0  0  0
 57 54  1  1  0  0  0
 57 61  1  0  0  0  0
 58 55  1  6  0  0  0
 58 56  1  0  0  0  0
 59 60  1  6  0  0  0
 59 61  1  0  0  0  0
 60 58  1  0  0  0  0
 61 56  1  6  0  0  0
M  END
>  <MODEL>
1

>  <REMARK>
 VINA RESULT:      -6.2      0.000      0.000
  Name = 
  23 active torsions:
  status: ('A' for Active; 'I' for Inactive)
    1  A    between atoms: C_1  and  C_16
    2  A    between atoms: C_1  and  C_33
    3  A    between atoms: C_2  and  C_54
    4  A    between atoms: C_3  and  C_6
    5  A    between atoms: C_3  and  C_40
    6  A    between atoms: C_3  and  C_47
    7  A    between atoms: C_5  and  C_10
    8  A    between atoms: C_5  and  O_19
    9  A    between atoms: C_5  and  C_31
   10  A    between atoms: C_6  and  C_50
   11  A    between atoms: C_7  and  C_42
   12  A    between atoms: C_7  and  N_56
   13  A    between atoms: C_9  and  C_12
   14  A    between atoms: C_10  and  C_21
   15  A    between atoms: C_12  and  C_14
   16  A    between atoms: C_13  and  C_37
   17  A    between atoms: C_17  and  N_27
   18  A    between atoms: C_17  and  C_61
   19  A    between atoms: O_19  and  C_39
   20  A    between atoms: C_21  and  C_22
   21  A    between atoms: C_24  and  C_40
   22  A    between atoms: N_27  and  C_33
   23  A    between atoms: N_51  and  C_55
                            x       y       z     vdW  Elec       q    Type
                         _______ _______ _______ _____ _____    ______ ____

>  <TORSDO>
F 23

$$$$
=
 OpenBabel11062413553D

 61 66  0  0  1  0  0  0  0  0999 V2000
  185.2660  179.1010  142.0840 C   0  0  1  0  0  3  0  0  0  0  0  0
  182.6680  177.3200  139.9170 C   0  0  2  0  0  3  0  0  0  0  0  0
  183.1320  177.7590  141.3240 C   0  0  1  0  0  3  0  0  0  0  0  0
  183.6800  177.9790  139.0380 C   0  0  0  0  0  0  0  0  0  0  0  0
  183.6350  177.9980  137.7780 O   0  0  0  0  0  0  0  0  0  0  0  0
  184.6340  178.0840  141.1160 C   0  0  1  0  0  3  0  0  0  0  0  0
  184.7610  178.4520  139.7500 O   0  0  0  0  0  0  0  0  0  0  0  0
  180.2460  177.0620  140.5890 C   0  0  0  0  0  2  0  0  0  0  0  0
  180.8410  176.9290  138.2400 C   0  0  0  0  0  2  0  0  0  0  0  0
  179.2790  174.8810  140.7270 F   0  0  0  0  0  0  0  0  0  0  0  0
  180.1850  175.6280  138.6430 C   0  0  2  0  0  0  0  0  0  0  0  0
  179.4200  175.9840  139.9010 C   0  0  2  0  0  3  0  0  0  0  0  0
  181.1640  174.6860  138.9240 F   0  0  0  0  0  0  0  0  0  0  0  0
  181.2050  177.6300  139.5410 C   0  0  2  0  0  3  0  0  0  0  0  0
  179.2690  175.1100  137.5460 C   0  0  0  0  0  2  0  0  0  0  0  0
  180.6030  171.9220  138.1600 O   0  0  0  0  0  0  0  0  0  0  0  0
  180.2400  172.8050  137.3390 C   0  0  0  0  0  0  0  0  0  0  0  0
  179.1500  173.6620  137.6610 N   0  0  0  0  0  2  0  0  0  0  0  0
  180.8910  172.8630  135.9920 C   0  0  0  0  0  2  0  0  0  0  0  0
  182.1800  173.6700  136.0670 C   0  0  0  0  0  2  0  0  0  0  0  0
  183.2380  171.6620  136.2610 O   0  0  0  0  0  1  0  0  0  0  0  0
  183.3120  172.8620  135.6330 N   0  0  0  0  0  0  0  0  0  0  0  0
  184.5580  173.5260  136.0270 C   0  0  0  0  0  2  0  0  0  0  0  0
  186.1640  172.8730  137.6680 O   0  0  0  0  0  1  0  0  0  0  0  0
  184.8740  173.3770  137.5130 C   0  0  0  0  0  2  0  0  0  0  0  0
  181.8800  178.6880  143.1230 F   0  0  0  0  0  0  0  0  0  0  0  0
  182.3420  178.9670  141.8460 C   0  0  0  0  0  2  0  0  0  0  0  0
  185.2040  177.2490  143.7700 O   0  0  0  0  0  0  0  0  0  0  0  0
  185.2480  178.6100  143.5420 C   0  0  0  0  0  0  0  0  0  0  0  0
  186.3820  177.8940  143.8810 O   0  0  0  0  0  0  0  0  0  0  0  0
  184.7000  179.4800  144.6710 C   0  0  0  0  0  3  0  0  0  0  0  0
  183.9820  178.6970  145.5560 F   0  0  0  0  0  0  0  0  0  0  0  0
  183.8710  180.4730  144.1740 F   0  0  0  0  0  0  0  0  0  0  0  0
  186.7050  179.4440  141.6990 C   0  0  0  0  0  2  0  0  0  0  0  0
  188.6290  177.4380  139.0450 C   0  0  0  0  0  2  0  0  0  0  0  0
  189.4560  176.7790  141.3550 C   0  0  1  0  0  3  0  0  0  0  0  0
  188.6180  177.9110  141.9530 C   0  0  0  0  0  2  0  0  0  0  0  0
  187.9060  178.6240  139.6700 C   0  0  0  0  0  2  0  0  0  0  0  0
  187.4280  178.2620  141.0730 C   0  0  2  0  0  3  0  0  0  0  0  0
  189.8470  177.0590  139.8910 C   0  0  1  0  0  3  0  0  0  0  0  0
  191.2250  175.9160  138.0520 C   0  0  0  0  0  0  0  0  0  0  0  0
  191.3280  176.9980  137.4040 O   0  0  0  0  0  0  0  0  0  0  0  0
  190.5230  175.9010  139.3050 N   0  0  0  0  0  2  0  0  0  0  0  0
  191.8140  174.6670  137.5210 C   0  0  0  0  0  0  0  0  0  0  0  0
  193.1060  174.4340  137.7110 C   0  0  0  0  0  2  0  0  0  0  0  0
  190.9740  173.6140  136.9070 C   0  0  0  0  0  0  0  0  0  0  0  0
  189.6910  173.3700  137.3780 O   0  0  0  0  0  1  0  0  0  0  0  0
  191.4220  172.9110  135.9600 O   0  0  0  0  0  0  0  0  0  0  0  0
  190.6830  176.4800  142.2290 C   0  0  0  0  0  2  0  0  0  0  0  0
  191.6280  177.6730  142.4010 C   0  0  0  0  0  2  0  0  0  0  0  0
  191.9410  177.9070  143.8750 C   0  0  1  0  0  3  0  0  0  0  0  0
  191.7560  179.3710  144.3080 C   0  0  0  0  0  2  0  0  0  0  0  0
  190.7060  179.9440  143.5880 O   0  0  0  0  0  1  0  0  0  0  0  0
  191.3680  176.9260  144.7180 O   0  0  0  0  0  0  0  0  0  0  0  0
  187.7870  178.7570  148.2700 C   0  0  0  0  0  1  0  0  0  0  0  0
  188.1700  177.5450  146.2320 O   0  0  0  0  0  0  0  0  0  0  0  0
  190.4850  177.5240  145.6350 C   0  0  2  0  0  3  0  0  0  0  0  0
  188.2580  177.4630  147.6310 C   0  0  1  0  0  3  0  0  0  0  0  0
  190.2660  176.5410  146.7770 C   0  0  1  0  0  3  0  0  0  0  0  0
  189.7030  177.2220  147.9910 C   0  0  0  0  0  2  0  0  0  0  0  0
  189.1950  176.7220  145.7200 C   0  0  1  0  0  3  0  0  0  0  0  0
  1 34  1  6  0  0  0
  1 29  1  0  0  0  0
  2  4  1  6  0  0  0
  2  3  1  0  0  0  0
  3 27  1  6  0  0  0
  4  7  1  0  0  0  0
  5  4  2  0  0  0  0
  6  3  1  0  0  0  0
  6  1  1  1  0  0  0
  7  6  1  0  0  0  0
  9 11  1  0  0  0  0
 11 13  1  1  0  0  0
 11 12  1  0  0  0  0
 12  8  1  0  0  0  0
 12 10  1  1  0  0  0
 14  9  1  6  0  0  0
 14  2  1  0  0  0  0
 14  8  1  0  0  0  0
 15 18  1  0  0  0  0
 15 11  1  0  0  0  0
 17 18  1  0  0  0  0
 17 16  2  0  0  0  0
 19 20  1  0  0  0  0
 19 17  1  0  0  0  0
 22 23  1  0  0  0  0
 22 20  1  0  0  0  0
 22 21  1  0  0  0  0
 23 25  1  0  0  0  0
 25 24  1  0  0  0  0
 27 26  1  0  0  0  0
 28 30  1  0  0  0  0
 29 28  1  0  0  0  0
 29 30  1  0  0  0  0
 29 31  1  0  0  0  0
 31 32  1  0  0  0  0
 33 31  1  0  0  0  0
 35 38  1  0  0  0  0
 35 40  1  0  0  0  0
 36 37  1  0  0  0  0
 36 49  1  1  0  0  0
 38 39  1  0  0  0  0
 39 34  1  1  0  0  0
 39 37  1  0  0  0  0
 40 43  1  6  0  0  0
 40 36  1  0  0  0  0
 41 43  1  0  0  0  0
 42 41  2  0  0  0  0
 44 45  2  0  0  0  0
 44 41  1  0  0  0  0
 46 47  1  0  0  0  0
 46 44  1  0  0  0  0
 48 46  2  0  0  0  0
 49 50  1  0  0  0  0
 51 50  1  6  0  0  0
 51 52  1  0  0  0  0
 51 54  1  0  0  0  0
 53 52  1  0  0  0  0
 56 58  1  0  0  0  0
 57 54  1  6  0  0  0
 57 61  1  0  0  0  0
 57 59  1  0  0  0  0
 58 60  1  0  0  0  0
 58 55  1  1  0  0  0
 59 60  1  1  0  0  0
 61 56  1  1  0  0  0
 61 59  1  0  0  0  0
M  END
>  <MODEL>
2

>  <REMARK>
 VINA RESULT:      -6.1      3.742     10.575
  Name = 
  23 active torsions:
  status: ('A' for Active; 'I' for Inactive)
    1  A    between atoms: C_1  and  C_16
    2  A    between atoms: C_1  and  C_33
    3  A    between atoms: C_2  and  C_54
    4  A    between atoms: C_3  and  C_6
    5  A    between atoms: C_3  and  C_40
    6  A    between atoms: C_3  and  C_47
    7  A    between atoms: C_5  and  C_10
    8  A    between atoms: C_5  and  O_19
    9  A    between atoms: C_5  and  C_31
   10  A    between atoms: C_6  and  C_50
   11  A    between atoms: C_7  and  C_42
   12  A    between atoms: C_7  and  N_56
   13  A    between atoms: C_9  and  C_12
   14  A    between atoms: C_10  and  C_21
   15  A    between atoms: C_12  and  C_14
   16  A    between atoms: C_13  and  C_37
   17  A    between atoms: C_17  and  N_27
   18  A    between atoms: C_17  and  C_61
   19  A    between atoms: O_19  and  C_39
   20  A    between atoms: C_21  and  C_22
   21  A    between atoms: C_24  and  C_40
   22  A    between atoms: N_27  and  C_33
   23  A    between atoms: N_51  and  C_55
                            x       y       z     vdW  Elec       q    Type
                         _______ _______ _______ _____ _____    ______ ____

>  <TORSDO>
F 23

$$$$
=
 OpenBabel11062413553D

 61 66  0  0  1  0  0  0  0  0999 V2000
  189.0280  177.2360  143.1960 C   0  0  1  0  0  3  0  0  0  0  0  0
  190.9840  176.4710  140.0020 C   0  0  2  0  0  3  0  0  0  0  0  0
  189.6300  176.4780  140.7480 C   0  0  1  0  0  3  0  0  0  0  0  0
  191.8820  177.1500  140.9830 C   0  0  0  0  0  0  0  0  0  0  0  0
  193.0780  177.4780  140.7560 O   0  0  0  0  0  0  0  0  0  0  0  0
  190.0490  176.5970  142.2370 C   0  0  1  0  0  3  0  0  0  0  0  0
  191.3060  177.2570  142.2310 O   0  0  0  0  0  0  0  0  0  0  0  0
  190.0290  176.3610  137.6650 C   0  0  0  0  0  2  0  0  0  0  0  0
  192.3730  176.9130  137.9590 C   0  0  0  0  0  2  0  0  0  0  0  0
  190.3940  174.4180  136.3250 F   0  0  0  0  0  0  0  0  0  0  0  0
  192.2780  175.6610  137.1170 C   0  0  2  0  0  0  0  0  0  0  0  0
  190.8620  175.6960  136.5790 C   0  0  2  0  0  3  0  0  0  0  0  0
  192.4590  174.5480  137.9250 F   0  0  0  0  0  0  0  0  0  0  0  0
  191.0020  177.0940  138.5920 C   0  0  2  0  0  3  0  0  0  0  0  0
  193.3110  175.6650  136.0030 C   0  0  0  0  0  2  0  0  0  0  0  0
  195.9080  177.8940  135.2250 O   0  0  0  0  0  0  0  0  0  0  0  0
  195.5300  176.7270  135.5070 C   0  0  0  0  0  0  0  0  0  0  0  0
  194.4190  176.5360  136.3760 N   0  0  0  0  0  2  0  0  0  0  0  0
  196.3280  175.5600  135.0120 C   0  0  0  0  0  2  0  0  0  0  0  0
  196.6870  174.6410  136.1720 C   0  0  0  0  0  2  0  0  0  0  0  0
  198.8750  175.2580  136.3050 O   0  0  0  0  0  1  0  0  0  0  0  0
  197.7140  175.2510  137.0070 N   0  0  0  0  0  0  0  0  0  0  0  0
  197.8960  174.4420  138.2160 C   0  0  0  0  0  2  0  0  0  0  0  0
  197.4800  175.6580  140.2270 O   0  0  0  0  0  1  0  0  0  0  0  0
  198.4980  175.2260  139.3780 C   0  0  0  0  0  2  0  0  0  0  0  0
  187.8520  177.1800  139.3290 F   0  0  0  0  0  0  0  0  0  0  0  0
  188.7270  177.6370  140.3030 C   0  0  0  0  0  2  0  0  0  0  0  0
  189.0300  177.7100  145.6560 O   0  0  0  0  0  0  0  0  0  0  0  0
  189.6950  177.8260  144.4520 C   0  0  0  0  0  0  0  0  0  0  0  0
  190.0380  176.8600  145.3810 O   0  0  0  0  0  0  0  0  0  0  0  0
  190.6870  178.9820  144.3610 C   0  0  0  0  0  3  0  0  0  0  0  0
  190.4500  179.7110  143.2100 F   0  0  0  0  0  0  0  0  0  0  0  0
  191.9920  178.5160  144.3380 F   0  0  0  0  0  0  0  0  0  0  0  0
  188.2050  178.3310  142.5170 C   0  0  0  0  0  2  0  0  0  0  0  0
  184.5670  178.2100  143.7470 C   0  0  0  0  0  2  0  0  0  0  0  0
  184.5880  178.4440  141.2170 C   0  0  1  0  0  3  0  0  0  0  0  0
  186.1030  178.6530  141.2720 C   0  0  0  0  0  2  0  0  0  0  0  0
  186.0540  178.5400  143.7650 C   0  0  0  0  0  2  0  0  0  0  0  0
  186.7210  178.0030  142.5010 C   0  0  2  0  0  3  0  0  0  0  0  0
  183.8980  178.8580  142.5330 C   0  0  1  0  0  3  0  0  0  0  0  0
  181.4500  179.2350  143.2020 C   0  0  0  0  0  0  0  0  0  0  0  0
  181.7520  180.2700  143.8660 O   0  0  0  0  0  0  0  0  0  0  0  0
  182.4760  178.5160  142.5010 N   0  0  0  0  0  2  0  0  0  0  0  0
  180.0500  178.7590  143.1550 C   0  0  0  0  0  0  0  0  0  0  0  0
  179.2720  178.9430  144.2130 C   0  0  0  0  0  2  0  0  0  0  0  0
  179.4600  178.2110  141.9120 C   0  0  0  0  0  0  0  0  0  0  0  0
  179.2190  176.8500  141.7850 O   0  0  0  0  0  1  0  0  0  0  0  0
  179.1860  178.9750  140.9460 O   0  0  0  0  0  0  0  0  0  0  0  0
  183.9770  179.1560  140.0010 C   0  0  0  0  0  2  0  0  0  0  0  0
  184.5450  178.6880  138.6580 C   0  0  0  0  0  2  0  0  0  0  0  0
  183.4240  178.2660  137.7140 C   0  0  1  0  0  3  0  0  0  0  0  0
  183.8580  177.1960  136.6990 C   0  0  0  0  0  2  0  0  0  0  0  0
  185.0440  176.5970  137.1260 O   0  0  0  0  0  1  0  0  0  0  0  0
  182.2010  178.0330  138.3870 O   0  0  0  0  0  0  0  0  0  0  0  0
  179.6630  173.5020  137.0380 C   0  0  0  0  0  1  0  0  0  0  0  0
  180.9690  174.6720  138.6800 O   0  0  0  0  0  0  0  0  0  0  0  0
  181.6030  176.8480  137.9210 C   0  0  2  0  0  3  0  0  0  0  0  0
  179.6840  174.5630  138.1230 C   0  0  1  0  0  3  0  0  0  0  0  0
  180.1350  176.8800  138.3240 C   0  0  1  0  0  3  0  0  0  0  0  0
  179.3230  175.9000  137.5260 C   0  0  0  0  0  2  0  0  0  0  0  0
  181.1110  176.0130  139.0940 C   0  0  1  0  0  3  0  0  0  0  0  0
  1 34  1  6  0  0  0
  1 29  1  0  0  0  0
  2  3  1  0  0  0  0
  2  4  1  1  0  0  0
  3 27  1  6  0  0  0
  3  6  1  0  0  0  0
  4  7  1  0  0  0  0
  5  4  2  0  0  0  0
  6  1  1  1  0  0  0
  7  6  1  0  0  0  0
  9 14  1  0  0  0  0
 11 13  1  1  0  0  0
 11  9  1  0  0  0  0
 12 10  1  1  0  0  0
 12 11  1  0  0  0  0
 12  8  1  0  0  0  0
 14  8  1  6  0  0  0
 14  2  1  0  0  0  0
 15 18  1  0  0  0  0
 15 11  1  0  0  0  0
 16 17  2  0  0  0  0
 17 18  1  0  0  0  0
 19 17  1  0  0  0  0
 19 20  1  0  0  0  0
 20 22  1  0  0  0  0
 21 22  1  0  0  0  0
 22 23  1  0  0  0  0
 23 25  1  0  0  0  0
 25 24  1  0  0  0  0
 26 27  1  0  0  0  0
 29 30  1  0  0  0  0
 29 28  1  0  0  0  0
 30 28  1  0  0  0  0
 31 29  1  0  0  0  0
 32 31  1  0  0  0  0
 33 31  1  0  0  0  0
 35 38  1  0  0  0  0
 36 49  1  6  0  0  0
 36 37  1  0  0  0  0
 36 40  1  0  0  0  0
 37 39  1  0  0  0  0
 39 34  1  1  0  0  0
 39 38  1  0  0  0  0
 40 43  1  6  0  0  0
 40 35  1  0  0  0  0
 41 42  2  0  0  0  0
 43 41  1  0  0  0  0
 44 41  1  0  0  0  0
 44 45  2  0  0  0  0
 46 44  1  0  0  0  0
 47 46  1  0  0  0  0
 48 46  2  0  0  0  0
 50 49  1  0  0  0  0
 51 52  1  1  0  0  0
 51 54  1  0  0  0  0
 51 50  1  0  0  0  0
 52 53  1  0  0  0  0
 57 59  1  0  0  0  0
 57 54  1  1  0  0  0
 57 61  1  0  0  0  0
 58 55  1  6  0  0  0
 58 56  1  0  0  0  0
 59 60  1  6  0  0  0
 59 61  1  0  0  0  0
 60 58  1  0  0  0  0
 61 56  1  6  0  0  0
M  END
>  <MODEL>
3

>  <REMARK>
 VINA RESULT:      -5.7      4.028      8.181
  Name = 
  23 active torsions:
  status: ('A' for Active; 'I' for Inactive)
    1  A    between atoms: C_1  and  C_16
    2  A    between atoms: C_1  and  C_33
    3  A    between atoms: C_2  and  C_54
    4  A    between atoms: C_3  and  C_6
    5  A    between atoms: C_3  and  C_40
    6  A    between atoms: C_3  and  C_47
    7  A    between atoms: C_5  and  C_10
    8  A    between atoms: C_5  and  O_19
    9  A    between atoms: C_5  and  C_31
   10  A    between atoms: C_6  and  C_50
   11  A    between atoms: C_7  and  C_42
   12  A    between atoms: C_7  and  N_56
   13  A    between atoms: C_9  and  C_12
   14  A    between atoms: C_10  and  C_21
   15  A    between atoms: C_12  and  C_14
   16  A    between atoms: C_13  and  C_37
   17  A    between atoms: C_17  and  N_27
   18  A    between atoms: C_17  and  C_61
   19  A    between atoms: O_19  and  C_39
   20  A    between atoms: C_21  and  C_22
   21  A    between atoms: C_24  and  C_40
   22  A    between atoms: N_27  and  C_33
   23  A    between atoms: N_51  and  C_55
                            x       y       z     vdW  Elec       q    Type
                         _______ _______ _______ _____ _____    ______ ____

>  <TORSDO>
F 23

$$$$
=
 OpenBabel11062413553D

 61 66  0  0  1  0  0  0  0  0999 V2000
  187.3290  177.3780  136.7390 C   0  0  1  0  0  3  0  0  0  0  0  0
  183.6440  177.5100  137.7500 C   0  0  2  0  0  3  0  0  0  0  0  0
  184.7930  176.7450  137.0530 C   0  0  1  0  0  3  0  0  0  0  0  0
  184.3650  178.6730  138.3470 C   0  0  0  0  0  0  0  0  0  0  0  0
  183.8440  179.5220  139.1210 O   0  0  0  0  0  0  0  0  0  0  0  0
  185.8640  177.8440  136.8300 C   0  0  1  0  0  3  0  0  0  0  0  0
  185.6420  178.8090  137.8480 O   0  0  0  0  0  0  0  0  0  0  0  0
  181.8860  175.7170  138.0220 C   0  0  0  0  0  2  0  0  0  0  0  0
  181.8410  177.6470  139.4910 C   0  0  0  0  0  2  0  0  0  0  0  0
  179.7030  176.0460  137.1070 F   0  0  0  0  0  0  0  0  0  0  0  0
  180.5340  177.5900  138.7340 C   0  0  2  0  0  0  0  0  0  0  0  0
  180.4480  176.1510  138.2700 C   0  0  2  0  0  3  0  0  0  0  0  0
  180.5950  178.4460  137.6430 F   0  0  0  0  0  0  0  0  0  0  0  0
  182.7880  176.7120  138.7540 C   0  0  2  0  0  3  0  0  0  0  0  0
  179.3640  177.9720  139.6260 C   0  0  0  0  0  2  0  0  0  0  0  0
  180.0460  181.3870  140.0610 O   0  0  0  0  0  0  0  0  0  0  0  0
  179.4180  180.3540  140.4120 C   0  0  0  0  0  0  0  0  0  0  0  0
  179.0540  179.3840  139.4370 N   0  0  0  0  0  2  0  0  0  0  0  0
  178.9670  180.2210  141.8340 C   0  0  0  0  0  2  0  0  0  0  0  0
  180.1710  180.0760  142.7550 C   0  0  0  0  0  2  0  0  0  0  0  0
  179.4400  177.9630  143.1900 O   0  0  0  0  0  1  0  0  0  0  0  0
  180.5520  178.6750  142.8780 N   0  0  0  0  0  0  0  0  0  0  0  0
  181.5250  178.5330  143.9650 C   0  0  0  0  0  2  0  0  0  0  0  0
  183.5330  179.4540  144.8680 O   0  0  0  0  0  1  0  0  0  0  0  0
  182.8570  179.2180  143.6720 C   0  0  0  0  0  2  0  0  0  0  0  0
  184.8680  174.3870  137.3730 F   0  0  0  0  0  0  0  0  0  0  0  0
  185.3200  175.5840  137.9080 C   0  0  0  0  0  2  0  0  0  0  0  0
  187.1350  175.4250  135.1830 O   0  0  0  0  0  0  0  0  0  0  0  0
  187.6420  176.6900  135.3980 C   0  0  0  0  0  0  0  0  0  0  0  0
  186.5140  176.4830  134.6260 O   0  0  0  0  0  0  0  0  0  0  0  0
  188.8910  177.0400  134.5940 C   0  0  0  0  0  3  0  0  0  0  0  0
  189.8520  176.0620  134.7750 F   0  0  0  0  0  0  0  0  0  0  0  0
  189.4120  178.2620  134.9910 F   0  0  0  0  0  0  0  0  0  0  0  0
  188.3130  178.5300  136.9420 C   0  0  0  0  0  2  0  0  0  0  0  0
  188.9050  177.7570  140.6590 C   0  0  0  0  0  2  0  0  0  0  0  0
  191.0090  177.2070  139.3450 C   0  0  1  0  0  3  0  0  0  0  0  0
  190.2350  177.4530  138.0480 C   0  0  0  0  0  2  0  0  0  0  0  0
  188.1450  177.8750  139.3450 C   0  0  0  0  0  2  0  0  0  0  0  0
  189.0700  178.4100  138.2560 C   0  0  2  0  0  3  0  0  0  0  0  0
  190.0800  176.7880  140.5020 C   0  0  1  0  0  3  0  0  0  0  0  0
  190.3190  176.1130  142.9660 C   0  0  0  0  0  0  0  0  0  0  0  0
  189.1680  175.5860  142.9720 O   0  0  0  0  0  0  0  0  0  0  0  0
  190.8270  176.6980  141.7570 N   0  0  0  0  0  2  0  0  0  0  0  0
  191.1360  176.1370  144.1990 C   0  0  0  0  0  0  0  0  0  0  0  0
  192.0820  175.2210  144.3620 C   0  0  0  0  0  2  0  0  0  0  0  0
  191.0190  177.2350  145.1850 C   0  0  0  0  0  0  0  0  0  0  0  0
  191.8830  177.3060  146.2700 O   0  0  0  0  0  1  0  0  0  0  0  0
  190.1180  178.1100  145.0610 O   0  0  0  0  0  0  0  0  0  0  0  0
  192.1430  176.1950  139.1260 C   0  0  0  0  0  2  0  0  0  0  0  0
  193.0920  176.5630  137.9810 C   0  0  0  0  0  2  0  0  0  0  0  0
  193.6330  175.3100  137.3020 C   0  0  1  0  0  3  0  0  0  0  0  0
  192.6690  174.7220  136.2590 C   0  0  0  0  0  2  0  0  0  0  0  0
  192.4100  173.3840  136.5600 O   0  0  0  0  0  1  0  0  0  0  0  0
  194.9840  175.4440  136.9030 O   0  0  0  0  0  0  0  0  0  0  0  0
  197.8130  170.8880  137.0960 C   0  0  0  0  0  1  0  0  0  0  0  0
  196.3320  172.2930  135.8290 O   0  0  0  0  0  0  0  0  0  0  0  0
  195.6670  174.2260  137.0690 C   0  0  2  0  0  3  0  0  0  0  0  0
  197.6600  172.1470  136.2610 C   0  0  1  0  0  3  0  0  0  0  0  0
  197.0970  174.4250  136.5820 C   0  0  1  0  0  3  0  0  0  0  0  0
  198.0100  173.3510  137.0990 C   0  0  0  0  0  2  0  0  0  0  0  0
  196.1000  173.6800  135.7160 C   0  0  1  0  0  3  0  0  0  0  0  0
  1 34  1  6  0  0  0
  2  4  1  1  0  0  0
  2 14  1  0  0  0  0
  3  2  1  0  0  0  0
  3 27  1  1  0  0  0
  4  5  2  0  0  0  0
  6  1  1  1  0  0  0
  6  3  1  0  0  0  0
  6  7  1  0  0  0  0
  7  4  1  0  0  0  0
  8 12  1  0  0  0  0
 11 13  1  6  0  0  0
 11  9  1  0  0  0  0
 11 15  1  0  0  0  0
 12 10  1  6  0  0  0
 12 11  1  0  0  0  0
 14  8  1  6  0  0  0
 14  9  1  0  0  0  0
 16 17  2  0  0  0  0
 17 19  1  0  0  0  0
 18 15  1  0  0  0  0
 18 17  1  0  0  0  0
 19 20  1  0  0  0  0
 20 22  1  0  0  0  0
 22 21  1  0  0  0  0
 22 23  1  0  0  0  0
 25 23  1  0  0  0  0
 25 24  1  0  0  0  0
 26 27  1  0  0  0  0
 28 29  1  0  0  0  0
 29  1  1  0  0  0  0
 30 28  1  0  0  0  0
 30 29  1  0  0  0  0
 31 32  1  0  0  0  0
 31 33  1  0  0  0  0
 31 29  1  0  0  0  0
 36 49  1  6  0  0  0
 36 40  1  0  0  0  0
 37 39  1  0  0  0  0
 37 36  1  0  0  0  0
 38 35  1  0  0  0  0
 39 34  1  6  0  0  0
 39 38  1  0  0  0  0
 40 35  1  0  0  0  0
 40 43  1  1  0  0  0
 41 42  2  0  0  0  0
 41 44  1  0  0  0  0
 43 41  1  0  0  0  0
 44 45  2  0  0  0  0
 44 46  1  0  0  0  0
 46 47  1  0  0  0  0
 48 46  2  0  0  0  0
 50 49  1  0  0  0  0
 51 52  1  6  0  0  0
 51 50  1  0  0  0  0
 52 53  1  0  0  0  0
 54 51  1  0  0  0  0
 56 58  1  0  0  0  0
 57 54  1  6  0  0  0
 58 55  1  1  0  0  0
 58 60  1  0  0  0  0
 59 57  1  0  0  0  0
 59 60  1  1  0  0  0
 61 56  1  1  0  0  0
 61 59  1  0  0  0  0
 61 57  1  0  0  0  0
M  END
>  <MODEL>
4

>  <REMARK>
 VINA RESULT:      -5.5      3.981      8.850
  Name = 
  23 active torsions:
  status: ('A' for Active; 'I' for Inactive)
    1  A    between atoms: C_1  and  C_16
    2  A    between atoms: C_1  and  C_33
    3  A    between atoms: C_2  and  C_54
    4  A    between atoms: C_3  and  C_6
    5  A    between atoms: C_3  and  C_40
    6  A    between atoms: C_3  and  C_47
    7  A    between atoms: C_5  and  C_10
    8  A    between atoms: C_5  and  O_19
    9  A    between atoms: C_5  and  C_31
   10  A    between atoms: C_6  and  C_50
   11  A    between atoms: C_7  and  C_42
   12  A    between atoms: C_7  and  N_56
   13  A    between atoms: C_9  and  C_12
   14  A    between atoms: C_10  and  C_21
   15  A    between atoms: C_12  and  C_14
   16  A    between atoms: C_13  and  C_37
   17  A    between atoms: C_17  and  N_27
   18  A    between atoms: C_17  and  C_61
   19  A    between atoms: O_19  and  C_39
   20  A    between atoms: C_21  and  C_22
   21  A    between atoms: C_24  and  C_40
   22  A    between atoms: N_27  and  C_33
   23  A    between atoms: N_51  and  C_55
                            x       y       z     vdW  Elec       q    Type
                         _______ _______ _______ _____ _____    ______ ____

>  <TORSDO>
F 23

$$$$
=
 OpenBabel11062413553D

 61 66  0  0  1  0  0  0  0  0999 V2000
  185.0000  178.5240  144.1170 C   0  0  1  0  0  3  0  0  0  0  0  0
  188.4550  177.9570  142.5830 C   0  0  2  0  0  3  0  0  0  0  0  0
  187.5150  177.8120  143.8010 C   0  0  1  0  0  3  0  0  0  0  0  0
  187.5310  178.4910  141.5390 C   0  0  0  0  0  0  0  0  0  0  0  0
  187.8340  178.6580  140.3270 O   0  0  0  0  0  0  0  0  0  0  0  0
  186.3750  178.8150  143.4880 C   0  0  1  0  0  3  0  0  0  0  0  0
  186.3350  178.9220  142.0720 O   0  0  0  0  0  0  0  0  0  0  0  0
  190.1280  176.2010  143.2920 C   0  0  0  0  0  2  0  0  0  0  0  0
  190.1840  177.0340  141.0140 C   0  0  0  0  0  2  0  0  0  0  0  0
  192.3600  176.8460  143.8510 F   0  0  0  0  0  0  0  0  0  0  0  0
  191.5210  177.3180  141.6620 C   0  0  2  0  0  0  0  0  0  0  0  0
  191.5700  176.3520  142.8270 C   0  0  2  0  0  3  0  0  0  0  0  0
  191.5420  178.6280  142.1210 F   0  0  0  0  0  0  0  0  0  0  0  0
  189.2340  176.6970  142.1540 C   0  0  2  0  0  3  0  0  0  0  0  0
  192.6640  177.0940  140.6870 C   0  0  0  0  0  2  0  0  0  0  0  0
  191.3500  176.3200  137.5260 O   0  0  0  0  0  0  0  0  0  0  0  0
  192.3480  176.5480  138.2580 C   0  0  0  0  0  0  0  0  0  0  0  0
  192.2330  177.4610  139.3440 N   0  0  0  0  0  2  0  0  0  0  0  0
  193.6700  175.9410  137.9020 C   0  0  0  0  0  2  0  0  0  0  0  0
  193.5510  175.1510  136.6060 C   0  0  0  0  0  2  0  0  0  0  0  0
  195.2900  173.9810  135.7130 O   0  0  0  0  0  1  0  0  0  0  0  0
  194.3400  173.9280  136.6800 N   0  0  0  0  0  0  0  0  0  0  0  0
  193.4690  172.7760  136.4260 C   0  0  0  0  0  2  0  0  0  0  0  0
  191.1440  173.3130  136.3840 O   0  0  0  0  0  1  0  0  0  0  0  0
  192.2560  173.1180  135.5660 C   0  0  0  0  0  2  0  0  0  0  0  0
  186.5130  176.2160  145.2560 F   0  0  0  0  0  0  0  0  0  0  0  0
  186.9970  176.3760  143.9670 C   0  0  0  0  0  2  0  0  0  0  0  0
  183.7620  179.1200  146.2110 O   0  0  0  0  0  0  0  0  0  0  0  0
  184.9750  178.8120  145.6280 C   0  0  0  0  0  0  0  0  0  0  0  0
  184.2530  177.8720  146.3410 O   0  0  0  0  0  0  0  0  0  0  0  0
  186.2050  179.3400  146.3610 C   0  0  0  0  0  3  0  0  0  0  0  0
  186.8320  178.3020  147.0280 F   0  0  0  0  0  0  0  0  0  0  0  0
  185.8550  180.3180  147.2800 F   0  0  0  0  0  0  0  0  0  0  0  0
  183.8790  179.3180  143.4460 C   0  0  0  0  0  2  0  0  0  0  0  0
  180.8660  178.0760  141.4110 C   0  0  0  0  0  2  0  0  0  0  0  0
  182.9620  177.9190  139.9840 C   0  0  1  0  0  3  0  0  0  0  0  0
  183.7320  178.6670  141.0740 C   0  0  0  0  0  2  0  0  0  0  0  0
  181.6420  178.9200  142.4130 C   0  0  0  0  0  2  0  0  0  0  0  0
  183.1020  178.4770  142.4450 C   0  0  2  0  0  3  0  0  0  0  0  0
  181.4560  178.2480  140.0090 C   0  0  1  0  0  3  0  0  0  0  0  0
  180.7140  175.9780  139.0710 C   0  0  0  0  0  0  0  0  0  0  0  0
  181.3210  175.3570  139.9910 O   0  0  0  0  0  0  0  0  0  0  0  0
  180.7290  177.4140  139.0520 N   0  0  0  0  0  2  0  0  0  0  0  0
  179.9990  175.2330  138.0120 C   0  0  0  0  0  0  0  0  0  0  0  0
  179.3510  175.9110  137.0740 C   0  0  0  0  0  2  0  0  0  0  0  0
  180.1050  173.7600  137.8940 C   0  0  0  0  0  0  0  0  0  0  0  0
  178.9650  172.9790  137.7660 O   0  0  0  0  0  0  0  0  0  0  0  0
  181.2330  173.1970  137.9290 O   0  0  0  0  0  1  0  0  0  0  0  0
  183.5810  178.1700  138.6000 C   0  0  0  0  0  2  0  0  0  0  0  0
  184.5700  177.0880  138.1560 C   0  0  0  0  0  2  0  0  0  0  0  0
  185.3640  177.5480  136.9390 C   0  0  1  0  0  3  0  0  0  0  0  0
  186.8490  177.8030  137.2450 C   0  0  0  0  0  2  0  0  0  0  0  0
  187.5720  176.6200  137.0780 O   0  0  0  0  0  1  0  0  0  0  0  0
  185.0850  176.7810  135.7820 O   0  0  0  0  0  0  0  0  0  0  0  0
  183.8220  171.6390  136.6500 C   0  0  0  0  0  1  0  0  0  0  0  0
  183.3010  173.6780  135.4910 O   0  0  0  0  0  0  0  0  0  0  0  0
  184.7550  175.4610  136.1380 C   0  0  2  0  0  3  0  0  0  0  0  0
  184.1880  172.5890  135.5240 C   0  0  1  0  0  3  0  0  0  0  0  0
  185.5140  174.5260  135.2050 C   0  0  1  0  0  3  0  0  0  0  0  0
  185.5770  173.1300  135.7550 C   0  0  0  0  0  2  0  0  0  0  0  0
  184.0340  174.7730  134.9880 C   0  0  1  0  0  3  0  0  0  0  0  0
  1 34  1  6  0  0  0
  1 29  1  0  0  0  0
  2  4  1  6  0  0  0
  2  3  1  0  0  0  0
  3 27  1  6  0  0  0
  4  7  1  0  0  0  0
  5  4  2  0  0  0  0
  6  3  1  0  0  0  0
  6  1  1  6  0  0  0
  7  6  1  0  0  0  0
  9 11  1  0  0  0  0
 11 13  1  1  0  0  0
 11 12  1  0  0  0  0
 12  8  1  0  0  0  0
 12 10  1  1  0  0  0
 14  9  1  6  0  0  0
 14  2  1  0  0  0  0
 14  8  1  0  0  0  0
 15 11  1  0  0  0  0
 16 17  2  0  0  0  0
 17 18  1  0  0  0  0
 18 15  1  0  0  0  0
 19 17  1  0  0  0  0
 20 22  1  0  0  0  0
 20 19  1  0  0  0  0
 21 22  1  0  0  0  0
 23 22  1  0  0  0  0
 25 24  1  0  0  0  0
 25 23  1  0  0  0  0
 27 26  1  0  0  0  0
 28 30  1  0  0  0  0
 29 28  1  0  0  0  0
 29 30  1  0  0  0  0
 29 31  1  0  0  0  0
 31 32  1  0  0  0  0
 31 33  1  0  0  0  0
 35 38  1  0  0  0  0
 36 49  1  6  0  0  0
 36 40  1  0  0  0  0
 36 37  1  0  0  0  0
 37 39  1  0  0  0  0
 38 39  1  0  0  0  0
 39 34  1  1  0  0  0
 40 43  1  6  0  0  0
 40 35  1  0  0  0  0
 41 42  2  0  0  0  0
 43 41  1  0  0  0  0
 44 41  1  0  0  0  0
 45 44  2  0  0  0  0
 46 48  1  0  0  0  0
 46 44  1  0  0  0  0
 47 46  2  0  0  0  0
 50 49  1  0  0  0  0
 51 52  1  1  0  0  0
 51 50  1  0  0  0  0
 53 52  1  0  0  0  0
 54 51  1  0  0  0  0
 56 58  1  0  0  0  0
 57 54  1  6  0  0  0
 58 60  1  0  0  0  0
 58 55  1  1  0  0  0
 59 60  1  1  0  0  0
 59 57  1  0  0  0  0
 61 59  1  0  0  0  0
 61 56  1  1  0  0  0
 61 57  1  0  0  0  0
M  END
>  <MODEL>
5

>  <REMARK>
 VINA RESULT:      -5.3      2.960      7.208
  Name = 
  23 active torsions:
  status: ('A' for Active; 'I' for Inactive)
    1  A    between atoms: C_1  and  C_16
    2  A    between atoms: C_1  and  C_33
    3  A    between atoms: C_2  and  C_54
    4  A    between atoms: C_3  and  C_6
    5  A    between atoms: C_3  and  C_40
    6  A    between atoms: C_3  and  C_47
    7  A    between atoms: C_5  and  C_10
    8  A    between atoms: C_5  and  O_19
    9  A    between atoms: C_5  and  C_31
   10  A    between atoms: C_6  and  C_50
   11  A    between atoms: C_7  and  C_42
   12  A    between atoms: C_7  and  N_56
   13  A    between atoms: C_9  and  C_12
   14  A    between atoms: C_10  and  C_21
   15  A    between atoms: C_12  and  C_14
   16  A    between atoms: C_13  and  C_37
   17  A    between atoms: C_17  and  N_27
   18  A    between atoms: C_17  and  C_61
   19  A    between atoms: O_19  and  C_39
   20  A    between atoms: C_21  and  C_22
   21  A    between atoms: C_24  and  C_40
   22  A    between atoms: N_27  and  C_33
   23  A    between atoms: N_51  and  C_55
                            x       y       z     vdW  Elec       q    Type
                         _______ _______ _______ _____ _____    ______ ____

>  <TORSDO>
F 23

$$$$
=
 OpenBabel11062413553D

 61 66  0  0  1  0  0  0  0  0999 V2000
  189.1680  177.4470  144.9970 C   0  0  1  0  0  3  0  0  0  0  0  0
  190.3130  177.2590  141.3540 C   0  0  2  0  0  3  0  0  0  0  0  0
  190.5070  176.8120  142.8210 C   0  0  1  0  0  3  0  0  0  0  0  0
  189.0540  178.0580  141.4380 C   0  0  0  0  0  0  0  0  0  0  0  0
  188.4350  178.5320  140.4470 O   0  0  0  0  0  0  0  0  0  0  0  0
  189.7130  177.8760  143.6220 C   0  0  1  0  0  3  0  0  0  0  0  0
  188.7060  178.3490  142.7400 O   0  0  0  0  0  0  0  0  0  0  0  0
  191.6280  176.0660  139.5570 C   0  0  0  0  0  2  0  0  0  0  0  0
  189.2620  176.4770  139.2130 C   0  0  0  0  0  2  0  0  0  0  0  0
  192.3750  177.2720  137.6350 F   0  0  0  0  0  0  0  0  0  0  0  0
  190.0330  177.1570  138.1040 C   0  0  2  0  0  0  0  0  0  0  0  0
  191.3700  176.4450  138.1060 C   0  0  2  0  0  3  0  0  0  0  0  0
  190.2010  178.4990  138.4150 F   0  0  0  0  0  0  0  0  0  0  0  0
  190.2860  176.1460  140.2880 C   0  0  2  0  0  3  0  0  0  0  0  0
  189.3160  177.0210  136.7710 C   0  0  0  0  0  2  0  0  0  0  0  0
  189.0810  174.2410  134.6430 O   0  0  0  0  0  0  0  0  0  0  0  0
  188.5200  175.1830  135.2600 C   0  0  0  0  0  0  0  0  0  0  0  0
  189.0380  175.6140  136.5130 N   0  0  0  0  0  2  0  0  0  0  0  0
  187.2490  175.7580  134.7160 C   0  0  0  0  0  2  0  0  0  0  0  0
  186.0660  174.8850  135.1140 C   0  0  0  0  0  2  0  0  0  0  0  0
  184.5370  176.5620  135.3040 O   0  0  0  0  0  1  0  0  0  0  0  0
  184.8240  175.4420  134.5950 N   0  0  0  0  0  0  0  0  0  0  0  0
  183.7420  174.4710  134.7870 C   0  0  0  0  0  2  0  0  0  0  0  0
  183.2810  172.1430  135.0440 O   0  0  0  0  0  1  0  0  0  0  0  0
  184.2310  173.1260  135.3180 C   0  0  0  0  0  2  0  0  0  0  0  0
  188.6030  175.4220  143.1520 F   0  0  0  0  0  0  0  0  0  0  0  0
  189.9870  175.3900  143.0690 C   0  0  0  0  0  2  0  0  0  0  0  0
  191.4390  176.5630  145.5740 O   0  0  0  0  0  0  0  0  0  0  0  0
  190.2910  177.1870  146.0170 C   0  0  0  0  0  0  0  0  0  0  0  0
  191.4430  177.9000  145.7390 O   0  0  0  0  0  0  0  0  0  0  0  0
  189.9970  177.0360  147.5070 C   0  0  0  0  0  3  0  0  0  0  0  0
  189.0380  176.0570  147.6970 F   0  0  0  0  0  0  0  0  0  0  0  0
  189.5370  178.2270  148.0460 F   0  0  0  0  0  0  0  0  0  0  0  0
  188.2030  178.4790  145.5820 C   0  0  0  0  0  2  0  0  0  0  0  0
  184.4250  178.2800  146.2540 C   0  0  0  0  0  2  0  0  0  0  0  0
  184.8250  178.3610  143.7470 C   0  0  1  0  0  3  0  0  0  0  0  0
  186.3060  178.6360  144.0160 C   0  0  0  0  0  2  0  0  0  0  0  0
  185.8800  178.6730  146.4740 C   0  0  0  0  0  2  0  0  0  0  0  0
  186.7490  178.0890  145.3640 C   0  0  2  0  0  3  0  0  0  0  0  0
  183.9290  178.8250  144.9130 C   0  0  1  0  0  3  0  0  0  0  0  0
  181.5510  179.2360  144.0420 C   0  0  0  0  0  0  0  0  0  0  0  0
  181.8770  180.3670  143.5770 O   0  0  0  0  0  0  0  0  0  0  0  0
  182.5410  178.4220  144.6900 N   0  0  0  0  0  2  0  0  0  0  0  0
  180.1560  178.7560  143.9310 C   0  0  0  0  0  0  0  0  0  0  0  0
  179.1630  179.6000  144.1760 C   0  0  0  0  0  2  0  0  0  0  0  0
  179.8420  177.4020  143.4210 C   0  0  0  0  0  0  0  0  0  0  0  0
  179.3050  177.2320  142.1510 O   0  0  0  0  0  0  0  0  0  0  0  0
  180.0400  176.3860  144.1430 O   0  0  0  0  0  1  0  0  0  0  0  0
  184.3850  178.9710  142.4080 C   0  0  0  0  0  2  0  0  0  0  0  0
  184.9790  178.2710  141.1810 C   0  0  0  0  0  2  0  0  0  0  0  0
  184.3940  178.8440  139.8950 C   0  0  1  0  0  3  0  0  0  0  0  0
  185.0670  178.2960  138.6270 C   0  0  0  0  0  2  0  0  0  0  0  0
  186.4330  178.5820  138.6590 O   0  0  0  0  0  1  0  0  0  0  0  0
  182.9780  178.8610  139.8980 O   0  0  0  0  0  0  0  0  0  0  0  0
  180.7460  174.9400  136.9930 C   0  0  0  0  0  1  0  0  0  0  0  0
  181.7890  175.5770  139.0610 O   0  0  0  0  0  0  0  0  0  0  0  0
  182.4760  177.8660  139.0400 C   0  0  2  0  0  3  0  0  0  0  0  0
  180.5960  175.6530  138.3250 C   0  0  1  0  0  3  0  0  0  0  0  0
  180.9650  177.8110  139.2290 C   0  0  1  0  0  3  0  0  0  0  0  0
  180.2920  177.1100  138.0840 C   0  0  0  0  0  2  0  0  0  0  0  0
  181.8450  176.7440  139.8510 C   0  0  1  0  0  3  0  0  0  0  0  0
  1 34  1  1  0  0  0
  1 29  1  0  0  0  0
  2  4  1  1  0  0  0
  2  3  1  0  0  0  0
  3 27  1  6  0  0  0
  3  6  1  0  0  0  0
  4  7  1  0  0  0  0
  5  4  2  0  0  0  0
  6  1  1  1  0  0  0
  7  6  1  0  0  0  0
  8 14  1  0  0  0  0
 11 12  1  0  0  0  0
 11 13  1  1  0  0  0
 11  9  1  0  0  0  0
 12 10  1  1  0  0  0
 12  8  1  0  0  0  0
 14  9  1  6  0  0  0
 14  2  1  0  0  0  0
 15 11  1  0  0  0  0
 16 17  2  0  0  0  0
 17 18  1  0  0  0  0
 18 15  1  0  0  0  0
 19 20  1  0  0  0  0
 19 17  1  0  0  0  0
 22 23  1  0  0  0  0
 22 20  1  0  0  0  0
 22 21  1  0  0  0  0
 23 25  1  0  0  0  0
 24 25  1  0  0  0  0
 27 26  1  0  0  0  0
 28 30  1  0  0  0  0
 28 29  1  0  0  0  0
 29 31  1  0  0  0  0
 30 29  1  0  0  0  0
 31 32  1  0  0  0  0
 31 33  1  0  0  0  0
 35 38  1  0  0  0  0
 36 49  1  6  0  0  0
 36 37  1  0  0  0  0
 36 40  1  0  0  0  0
 37 39  1  0  0  0  0
 39 34  1  1  0  0  0
 39 38  1  0  0  0  0
 40 43  1  6  0  0  0
 40 35  1  0  0  0  0
 41 43  1  0  0  0  0
 42 41  2  0  0  0  0
 44 41  1  0  0  0  0
 44 45  2  0  0  0  0
 46 44  1  0  0  0  0
 46 48  1  0  0  0  0
 47 46  2  0  0  0  0
 50 49  1  0  0  0  0
 51 52  1  6  0  0  0
 51 54  1  0  0  0  0
 51 50  1  0  0  0  0
 52 53  1  0  0  0  0
 57 59  1  0  0  0  0
 57 61  1  0  0  0  0
 57 54  1  1  0  0  0
 58 55  1  6  0  0  0
 58 56  1  0  0  0  0
 59 60  1  6  0  0  0
 59 61  1  0  0  0  0
 60 58  1  0  0  0  0
 61 56  1  6  0  0  0
M  END
>  <MODEL>
6

>  <REMARK>
 VINA RESULT:      -5.1      2.363      7.697
  Name = 
  23 active torsions:
  status: ('A' for Active; 'I' for Inactive)
    1  A    between atoms: C_1  and  C_16
    2  A    between atoms: C_1  and  C_33
    3  A    between atoms: C_2  and  C_54
    4  A    between atoms: C_3  and  C_6
    5  A    between atoms: C_3  and  C_40
    6  A    between atoms: C_3  and  C_47
    7  A    between atoms: C_5  and  C_10
    8  A    between atoms: C_5  and  O_19
    9  A    between atoms: C_5  and  C_31
   10  A    between atoms: C_6  and  C_50
   11  A    between atoms: C_7  and  C_42
   12  A    between atoms: C_7  and  N_56
   13  A    between atoms: C_9  and  C_12
   14  A    between atoms: C_10  and  C_21
   15  A    between atoms: C_12  and  C_14
   16  A    between atoms: C_13  and  C_37
   17  A    between atoms: C_17  and  N_27
   18  A    between atoms: C_17  and  C_61
   19  A    between atoms: O_19  and  C_39
   20  A    between atoms: C_21  and  C_22
   21  A    between atoms: C_24  and  C_40
   22  A    between atoms: N_27  and  C_33
   23  A    between atoms: N_51  and  C_55
                            x       y       z     vdW  Elec       q    Type
                         _______ _______ _______ _____ _____    ______ ____

>  <TORSDO>
F 23

$$$$
=
 OpenBabel11062413553D

 61 66  0  0  1  0  0  0  0  0999 V2000
  190.1840  177.6330  139.8120 C   0  0  1  0  0  3  0  0  0  0  0  0
  190.1490  176.9230  143.5680 C   0  0  2  0  0  3  0  0  0  0  0  0
  190.9630  177.0690  142.2630 C   0  0  1  0  0  3  0  0  0  0  0  0
  188.7810  177.3280  143.1270 C   0  0  0  0  0  0  0  0  0  0  0  0
  187.7920  177.4770  143.8940 O   0  0  0  0  0  0  0  0  0  0  0  0
  189.8830  176.9470  141.1570 C   0  0  1  0  0  3  0  0  0  0  0  0
  188.6710  177.3860  141.7540 O   0  0  0  0  0  0  0  0  0  0  0  0
  191.5080  176.7720  145.6920 C   0  0  0  0  0  2  0  0  0  0  0  0
  189.5020  178.1370  145.6680 C   0  0  0  0  0  2  0  0  0  0  0  0
  190.8030  175.3190  147.4520 F   0  0  0  0  0  0  0  0  0  0  0  0
  189.3440  177.0710  146.7280 C   0  0  2  0  0  0  0  0  0  0  0  0
  190.7650  176.6320  147.0130 C   0  0  2  0  0  3  0  0  0  0  0  0
  188.6080  176.0130  146.2110 F   0  0  0  0  0  0  0  0  0  0  0  0
  190.6690  177.6900  144.8000 C   0  0  2  0  0  3  0  0  0  0  0  0
  188.6580  177.6220  147.9660 C   0  0  0  0  0  2  0  0  0  0  0  0
  186.0510  179.9510  148.2790 O   0  0  0  0  0  0  0  0  0  0  0  0
  186.5930  179.0110  147.6420 C   0  0  0  0  0  0  0  0  0  0  0  0
  188.0110  178.8860  147.6380 N   0  0  0  0  0  2  0  0  0  0  0  0
  185.7400  178.1080  146.8060 C   0  0  0  0  0  2  0  0  0  0  0  0
  185.6040  178.6700  145.3980 C   0  0  0  0  0  2  0  0  0  0  0  0
  183.3650  178.6960  145.8150 O   0  0  0  0  0  1  0  0  0  0  0  0
  184.3680  179.4300  145.2700 N   0  0  0  0  0  0  0  0  0  0  0  0
  184.0790  179.6450  143.8480 C   0  0  0  0  0  2  0  0  0  0  0  0
  181.7130  179.5290  143.5520 O   0  0  0  0  0  1  0  0  0  0  0  0
  182.8960  178.8220  143.3450 C   0  0  0  0  0  2  0  0  0  0  0  0
  190.9090  179.4070  142.7080 F   0  0  0  0  0  0  0  0  0  0  0  0
  191.7180  178.4040  142.1950 C   0  0  0  0  0  2  0  0  0  0  0  0
  190.9340  175.4330  138.8800 O   0  0  0  0  0  0  0  0  0  0  0  0
  190.2830  176.6280  138.6510 C   0  0  0  0  0  0  0  0  0  0  0  0
  189.5870  175.4580  138.8950 O   0  0  0  0  0  0  0  0  0  0  0  0
  190.2440  177.0830  137.1950 C   0  0  0  0  0  3  0  0  0  0  0  0
  188.9760  176.8840  136.6770 F   0  0  0  0  0  0  0  0  0  0  0  0
  191.1580  176.3770  136.4290 F   0  0  0  0  0  0  0  0  0  0  0  0
  189.1400  178.6920  139.4580 C   0  0  0  0  0  2  0  0  0  0  0  0
  185.4910  178.4640  140.6410 C   0  0  0  0  0  2  0  0  0  0  0  0
  185.6270  177.7510  138.2060 C   0  0  1  0  0  3  0  0  0  0  0  0
  187.0900  178.2000  138.1810 C   0  0  0  0  0  2  0  0  0  0  0  0
  186.9100  179.0060  140.5360 C   0  0  0  0  0  2  0  0  0  0  0  0
  187.7220  178.1530  139.5640 C   0  0  2  0  0  3  0  0  0  0  0  0
  184.8080  178.5070  139.2720 C   0  0  1  0  0  3  0  0  0  0  0  0
  182.3020  178.7070  139.7840 C   0  0  0  0  0  0  0  0  0  0  0  0
  182.4160  179.9400  140.0470 O   0  0  0  0  0  0  0  0  0  0  0  0
  183.4560  177.9590  139.3690 N   0  0  0  0  0  2  0  0  0  0  0  0
  180.9910  178.0330  139.9120 C   0  0  0  0  0  0  0  0  0  0  0  0
  180.0250  178.6300  140.5980 C   0  0  0  0  0  2  0  0  0  0  0  0
  180.6890  176.7810  139.1820 C   0  0  0  0  0  0  0  0  0  0  0  0
  181.1670  176.5820  137.8940 O   0  0  0  0  0  0  0  0  0  0  0  0
  179.9760  175.8870  139.7170 O   0  0  0  0  0  1  0  0  0  0  0  0
  184.9930  177.8610  136.8120 C   0  0  0  0  0  2  0  0  0  0  0  0
  184.2970  176.5790  136.3440 C   0  0  0  0  0  2  0  0  0  0  0  0
  185.0940  175.3480  136.7600 C   0  0  1  0  0  3  0  0  0  0  0  0
  184.2190  174.1000  136.9650 C   0  0  0  0  0  2  0  0  0  0  0  0
  183.0470  174.4540  137.6350 O   0  0  0  0  0  1  0  0  0  0  0  0
  186.2680  175.1710  135.9900 O   0  0  0  0  0  0  0  0  0  0  0  0
  187.8590  170.0740  135.4550 C   0  0  0  0  0  1  0  0  0  0  0  0
  188.0270  172.3350  134.6620 O   0  0  0  0  0  0  0  0  0  0  0  0
  186.5580  173.8020  135.8460 C   0  0  2  0  0  3  0  0  0  0  0  0
  188.4180  171.4650  135.6930 C   0  0  1  0  0  3  0  0  0  0  0  0
  187.7530  173.4850  136.7350 C   0  0  1  0  0  3  0  0  0  0  0  0
  187.8760  172.0100  136.9900 C   0  0  0  0  0  2  0  0  0  0  0  0
  187.9410  173.6200  135.2370 C   0  0  1  0  0  3  0  0  0  0  0  0
  1 34  1  6  0  0  0
  2  4  1  6  0  0  0
  2 14  1  0  0  0  0
  3 27  1  1  0  0  0
  3  2  1  0  0  0  0
  4  5  2  0  0  0  0
  6  1  1  6  0  0  0
  6  7  1  0  0  0  0
  6  3  1  0  0  0  0
  7  4  1  0  0  0  0
  8 12  1  0  0  0  0
  9 11  1  0  0  0  0
 11 13  1  6  0  0  0
 11 12  1  0  0  0  0
 11 15  1  0  0  0  0
 12 10  1  6  0  0  0
 14  9  1  1  0  0  0
 14  8  1  0  0  0  0
 17 16  2  0  0  0  0
 18 17  1  0  0  0  0
 18 15  1  0  0  0  0
 19 17  1  0  0  0  0
 20 19  1  0  0  0  0
 22 20  1  0  0  0  0
 22 21  1  0  0  0  0
 23 22  1  0  0  0  0
 25 24  1  0  0  0  0
 25 23  1  0  0  0  0
 27 26  1  0  0  0  0
 28 30  1  0  0  0  0
 29 28  1  0  0  0  0
 29 30  1  0  0  0  0
 29  1  1  0  0  0  0
 31 29  1  0  0  0  0
 32 31  1  0  0  0  0
 33 31  1  0  0  0  0
 36 49  1  6  0  0  0
 36 40  1  0  0  0  0
 37 36  1  0  0  0  0
 37 39  1  0  0  0  0
 38 35  1  0  0  0  0
 39 34  1  6  0  0  0
 39 38  1  0  0  0  0
 40 43  1  1  0  0  0
 40 35  1  0  0  0  0
 41 44  1  0  0  0  0
 41 42  2  0  0  0  0
 43 41  1  0  0  0  0
 44 45  2  0  0  0  0
 46 48  1  0  0  0  0
 46 44  1  0  0  0  0
 47 46  2  0  0  0  0
 50 49  1  0  0  0  0
 51 50  1  6  0  0  0
 51 52  1  0  0  0  0
 52 53  1  0  0  0  0
 54 51  1  0  0  0  0
 56 58  1  0  0  0  0
 57 54  1  1  0  0  0
 57 59  1  0  0  0  0
 58 55  1  6  0  0  0
 58 60  1  0  0  0  0
 59 60  1  6  0  0  0
 61 56  1  6  0  0  0
 61 57  1  0  0  0  0
 61 59  1  0  0  0  0
M  END
>  <MODEL>
7

>  <REMARK>
 VINA RESULT:      -4.7      1.684      2.209
  Name = 
  23 active torsions:
  status: ('A' for Active; 'I' for Inactive)
    1  A    between atoms: C_1  and  C_16
    2  A    between atoms: C_1  and  C_33
    3  A    between atoms: C_2  and  C_54
    4  A    between atoms: C_3  and  C_6
    5  A    between atoms: C_3  and  C_40
    6  A    between atoms: C_3  and  C_47
    7  A    between atoms: C_5  and  C_10
    8  A    between atoms: C_5  and  O_19
    9  A    between atoms: C_5  and  C_31
   10  A    between atoms: C_6  and  C_50
   11  A    between atoms: C_7  and  C_42
   12  A    between atoms: C_7  and  N_56
   13  A    between atoms: C_9  and  C_12
   14  A    between atoms: C_10  and  C_21
   15  A    between atoms: C_12  and  C_14
   16  A    between atoms: C_13  and  C_37
   17  A    between atoms: C_17  and  N_27
   18  A    between atoms: C_17  and  C_61
   19  A    between atoms: O_19  and  C_39
   20  A    between atoms: C_21  and  C_22
   21  A    between atoms: C_24  and  C_40
   22  A    between atoms: N_27  and  C_33
   23  A    between atoms: N_51  and  C_55
                            x       y       z     vdW  Elec       q    Type
                         _______ _______ _______ _____ _____    ______ ____

>  <TORSDO>
F 23

$$$$
=
 OpenBabel11062413553D

 61 66  0  0  1  0  0  0  0  0999 V2000
  187.8650  178.2000  142.6650 C   0  0  1  0  0  3  0  0  0  0  0  0
  184.1320  178.3720  141.8590 C   0  0  2  0  0  3  0  0  0  0  0  0
  185.2470  178.0060  142.8640 C   0  0  1  0  0  3  0  0  0  0  0  0
  184.9070  179.0150  140.7570 C   0  0  0  0  0  0  0  0  0  0  0  0
  184.3960  179.5860  139.7550 O   0  0  0  0  0  0  0  0  0  0  0  0
  186.5150  177.9320  141.9740 C   0  0  1  0  0  3  0  0  0  0  0  0
  186.2630  178.7960  140.8750 O   0  0  0  0  0  0  0  0  0  0  0  0
  181.9760  178.3610  143.1760 C   0  0  0  0  0  2  0  0  0  0  0  0
  182.1680  179.8060  141.2370 C   0  0  0  0  0  2  0  0  0  0  0  0
  180.1030  177.1130  142.3760 F   0  0  0  0  0  0  0  0  0  0  0  0
  181.0160  178.8530  141.0130 C   0  0  2  0  0  0  0  0  0  0  0  0
  180.6630  178.3790  142.4070 C   0  0  2  0  0  3  0  0  0  0  0  0
  181.4460  177.7860  140.2360 F   0  0  0  0  0  0  0  0  0  0  0  0
  182.9670  179.2270  142.3950 C   0  0  2  0  0  3  0  0  0  0  0  0
  179.8480  179.5480  140.3340 C   0  0  0  0  0  2  0  0  0  0  0  0
  179.9370  181.3220  137.3070 O   0  0  0  0  0  0  0  0  0  0  0  0
  180.4340  180.4500  138.0660 C   0  0  0  0  0  0  0  0  0  0  0  0
  180.3530  180.6140  139.4770 N   0  0  0  0  0  2  0  0  0  0  0  0
  181.2010  179.3110  137.4690 C   0  0  0  0  0  2  0  0  0  0  0  0
  180.2490  178.3460  136.7740 C   0  0  0  0  0  2  0  0  0  0  0  0
  180.2120  176.2360  137.6310 O   0  0  0  0  0  1  0  0  0  0  0  0
  180.8330  177.0120  136.7090 N   0  0  0  0  0  0  0  0  0  0  0  0
  182.2590  177.0940  137.0410 C   0  0  0  0  0  2  0  0  0  0  0  0
  183.0960  174.9530  136.3990 O   0  0  0  0  0  1  0  0  0  0  0  0
  183.1460  176.3090  136.0790 C   0  0  0  0  0  2  0  0  0  0  0  0
  184.9970  178.4690  145.1860 F   0  0  0  0  0  0  0  0  0  0  0  0
  185.3820  179.0460  143.9850 C   0  0  0  0  0  2  0  0  0  0  0  0
  187.5960  175.8470  143.4800 O   0  0  0  0  0  0  0  0  0  0  0  0
  188.3110  177.0260  143.5540 C   0  0  0  0  0  0  0  0  0  0  0  0
  188.7690  175.9440  142.8240 O   0  0  0  0  0  0  0  0  0  0  0  0
  189.0600  177.2550  144.8630 C   0  0  0  0  0  3  0  0  0  0  0  0
  189.1910  178.6120  145.0950 F   0  0  0  0  0  0  0  0  0  0  0  0
  190.3220  176.6820  144.8200 F   0  0  0  0  0  0  0  0  0  0  0  0
  188.9760  178.5040  141.6590 C   0  0  0  0  0  2  0  0  0  0  0  0
  188.3690  177.4640  138.0100 C   0  0  0  0  0  2  0  0  0  0  0  0
  190.3540  176.1730  138.9290 C   0  0  1  0  0  3  0  0  0  0  0  0
  190.3060  177.0400  140.1890 C   0  0  0  0  0  2  0  0  0  0  0  0
  188.4330  178.3790  139.2260 C   0  0  0  0  0  2  0  0  0  0  0  0
  188.9110  177.5930  140.4430 C   0  0  2  0  0  3  0  0  0  0  0  0
  189.7570  176.8960  137.7060 C   0  0  1  0  0  3  0  0  0  0  0  0
  188.9850  174.7420  136.5440 C   0  0  0  0  0  0  0  0  0  0  0  0
  188.3290  174.3820  137.5650 O   0  0  0  0  0  0  0  0  0  0  0  0
  189.6880  175.9940  136.5560 N   0  0  0  0  0  2  0  0  0  0  0  0
  189.0390  173.8750  135.3460 C   0  0  0  0  0  0  0  0  0  0  0  0
  190.1370  173.8740  134.6020 C   0  0  0  0  0  2  0  0  0  0  0  0
  187.9590  172.9100  135.0390 C   0  0  0  0  0  0  0  0  0  0  0  0
  188.2610  171.6300  134.5940 O   0  0  0  0  0  0  0  0  0  0  0  0
  186.7490  173.2480  135.1590 O   0  0  0  0  0  1  0  0  0  0  0  0
  191.7810  175.6730  138.6590 C   0  0  0  0  0  2  0  0  0  0  0  0
  192.6430  176.6560  137.8610 C   0  0  0  0  0  2  0  0  0  0  0  0
  193.7560  175.9220  137.1210 C   0  0  1  0  0  3  0  0  0  0  0  0
  194.1520  176.5990  135.7990 C   0  0  0  0  0  2  0  0  0  0  0  0
  194.1500  175.6560  134.7690 O   0  0  0  0  0  1  0  0  0  0  0  0
  194.8190  175.5390  137.9730 O   0  0  0  0  0  0  0  0  0  0  0  0
  197.3570  171.0760  136.4130 C   0  0  0  0  0  1  0  0  0  0  0  0
  197.2370  172.8830  137.9910 O   0  0  0  0  0  0  0  0  0  0  0  0
  195.4920  174.4230  137.4440 C   0  0  2  0  0  3  0  0  0  0  0  0
  196.6430  171.6670  137.6150 C   0  0  1  0  0  3  0  0  0  0  0  0
  194.8680  173.1740  138.0540 C   0  0  1  0  0  3  0  0  0  0  0  0
  195.2040  171.9460  137.2580 C   0  0  0  0  0  2  0  0  0  0  0  0
  196.2100  173.6700  138.5550 C   0  0  1  0  0  3  0  0  0  0  0  0
  1 34  1  6  0  0  0
  1 29  1  0  0  0  0
  2  4  1  6  0  0  0
  2 14  1  0  0  0  0
  2  3  1  0  0  0  0
  3 27  1  1  0  0  0
  4  7  1  0  0  0  0
  5  4  2  0  0  0  0
  6  1  1  1  0  0  0
  6  3  1  0  0  0  0
  7  6  1  0  0  0  0
 11 13  1  6  0  0  0
 11  9  1  0  0  0  0
 11 12  1  0  0  0  0
 12 10  1  6  0  0  0
 12  8  1  0  0  0  0
 14  9  1  6  0  0  0
 14  8  1  0  0  0  0
 15 11  1  0  0  0  0
 16 17  2  0  0  0  0
 17 18  1  0  0  0  0
 18 15  1  0  0  0  0
 19 17  1  0  0  0  0
 20 19  1  0  0  0  0
 22 20  1  0  0  0  0
 22 23  1  0  0  0  0
 22 21  1  0  0  0  0
 25 24  1  0  0  0  0
 25 23  1  0  0  0  0
 27 26  1  0  0  0  0
 28 29  1  0  0  0  0
 29 31  1  0  0  0  0
 30 28  1  0  0  0  0
 30 29  1  0  0  0  0
 31 32  1  0  0  0  0
 33 31  1  0  0  0  0
 35 38  1  0  0  0  0
 36 49  1  6  0  0  0
 36 37  1  0  0  0  0
 37 39  1  0  0  0  0
 38 39  1  0  0  0  0
 39 34  1  1  0  0  0
 40 43  1  6  0  0  0
 40 35  1  0  0  0  0
 40 36  1  0  0  0  0
 41 43  1  0  0  0  0
 41 42  2  0  0  0  0
 44 41  1  0  0  0  0
 45 44  2  0  0  0  0
 46 48  1  0  0  0  0
 46 44  1  0  0  0  0
 47 46  2  0  0  0  0
 50 49  1  0  0  0  0
 51 52  1  6  0  0  0
 51 50  1  0  0  0  0
 51 54  1  0  0  0  0
 53 52  1  0  0  0  0
 57 54  1  1  0  0  0
 57 59  1  0  0  0  0
 57 61  1  0  0  0  0
 58 55  1  6  0  0  0
 58 56  1  0  0  0  0
 59 60  1  6  0  0  0
 59 61  1  0  0  0  0
 60 58  1  0  0  0  0
 61 56  1  6  0  0  0
M  END
>  <MODEL>
8

>  <REMARK>
 VINA RESULT:      -4.7      3.679      9.007
  Name = 
  23 active torsions:
  status: ('A' for Active; 'I' for Inactive)
    1  A    between atoms: C_1  and  C_16
    2  A    between atoms: C_1  and  C_33
    3  A    between atoms: C_2  and  C_54
    4  A    between atoms: C_3  and  C_6
    5  A    between atoms: C_3  and  C_40
    6  A    between atoms: C_3  and  C_47
    7  A    between atoms: C_5  and  C_10
    8  A    between atoms: C_5  and  O_19
    9  A    between atoms: C_5  and  C_31
   10  A    between atoms: C_6  and  C_50
   11  A    between atoms: C_7  and  C_42
   12  A    between atoms: C_7  and  N_56
   13  A    between atoms: C_9  and  C_12
   14  A    between atoms: C_10  and  C_21
   15  A    between atoms: C_12  and  C_14
   16  A    between atoms: C_13  and  C_37
   17  A    between atoms: C_17  and  N_27
   18  A    between atoms: C_17  and  C_61
   19  A    between atoms: O_19  and  C_39
   20  A    between atoms: C_21  and  C_22
   21  A    between atoms: C_24  and  C_40
   22  A    between atoms: N_27  and  C_33
   23  A    between atoms: N_51  and  C_55
                            x       y       z     vdW  Elec       q    Type
                         _______ _______ _______ _____ _____    ______ ____

>  <TORSDO>
F 23

$$$$
=
 OpenBabel11062413553D

 61 66  0  0  1  0  0  0  0  0999 V2000
  185.7100  178.4870  143.9740 C   0  0  1  0  0  3  0  0  0  0  0  0
  189.0860  178.1060  142.2210 C   0  0  2  0  0  3  0  0  0  0  0  0
  188.2660  178.0370  143.5290 C   0  0  1  0  0  3  0  0  0  0  0  0
  188.0250  178.3640  141.2030 C   0  0  0  0  0  0  0  0  0  0  0  0
  188.2120  178.3810  139.9560 O   0  0  0  0  0  0  0  0  0  0  0  0
  186.9850  178.8400  143.1850 C   0  0  1  0  0  3  0  0  0  0  0  0
  186.8260  178.7270  141.7790 O   0  0  0  0  0  0  0  0  0  0  0  0
  191.4600  177.3120  141.8810 C   0  0  0  0  0  2  0  0  0  0  0  0
  189.6950  176.3820  140.5010 C   0  0  0  0  0  2  0  0  0  0  0  0
  192.7580  178.1870  140.0760 F   0  0  0  0  0  0  0  0  0  0  0  0
  190.7120  177.0430  139.5980 C   0  0  2  0  0  0  0  0  0  0  0  0
  191.9580  177.1220  140.4560 C   0  0  2  0  0  3  0  0  0  0  0  0
  190.2750  178.3180  139.2660 F   0  0  0  0  0  0  0  0  0  0  0  0
  189.9880  176.8970  141.9020 C   0  0  2  0  0  3  0  0  0  0  0  0
  190.9400  176.2300  138.3350 C   0  0  0  0  0  2  0  0  0  0  0  0
  189.2030  175.8980  135.3030 O   0  0  0  0  0  0  0  0  0  0  0  0
  190.2260  176.2790  135.9300 C   0  0  0  0  0  0  0  0  0  0  0  0
  190.1000  176.7540  137.2650 N   0  0  0  0  0  2  0  0  0  0  0  0
  191.5430  176.3310  135.2170 C   0  0  0  0  0  2  0  0  0  0  0  0
  191.8830  174.9610  134.6450 C   0  0  0  0  0  2  0  0  0  0  0  0
  192.2690  173.1520  135.9740 O   0  0  0  0  0  1  0  0  0  0  0  0
  192.8510  174.2800  135.4950 N   0  0  0  0  0  0  0  0  0  0  0  0
  193.1980  175.1490  136.6240 C   0  0  0  0  0  2  0  0  0  0  0  0
  195.4760  175.4470  137.2720 O   0  0  0  0  0  1  0  0  0  0  0  0
  194.3670  174.6220  137.4510 C   0  0  0  0  0  2  0  0  0  0  0  0
  188.7060  176.2670  145.0600 F   0  0  0  0  0  0  0  0  0  0  0  0
  187.9530  176.5920  143.9420 C   0  0  0  0  0  2  0  0  0  0  0  0
  185.3090  179.9420  145.9730 O   0  0  0  0  0  0  0  0  0  0  0  0
  185.8550  178.7750  145.4790 C   0  0  0  0  0  0  0  0  0  0  0  0
  184.6410  178.7840  146.1420 O   0  0  0  0  0  0  0  0  0  0  0  0
  187.0050  178.1940  146.2960 C   0  0  0  0  0  3  0  0  0  0  0  0
  186.5830  177.0510  146.9510 F   0  0  0  0  0  0  0  0  0  0  0  0
  187.4590  179.1080  147.2350 F   0  0  0  0  0  0  0  0  0  0  0  0
  184.4830  179.2310  143.4480 C   0  0  0  0  0  2  0  0  0  0  0  0
  181.4250  177.8920  141.5440 C   0  0  0  0  0  2  0  0  0  0  0  0
  183.4150  177.9950  139.9660 C   0  0  1  0  0  3  0  0  0  0  0  0
  184.2070  178.7280  141.0510 C   0  0  0  0  0  2  0  0  0  0  0  0
  182.2100  178.7270  142.5470 C   0  0  0  0  0  2  0  0  0  0  0  0
  183.6970  178.3990  142.4460 C   0  0  2  0  0  3  0  0  0  0  0  0
  181.8950  178.2020  140.1200 C   0  0  1  0  0  3  0  0  0  0  0  0
  181.3410  175.9630  138.9970 C   0  0  0  0  0  0  0  0  0  0  0  0
  182.1460  175.3430  139.7510 O   0  0  0  0  0  0  0  0  0  0  0  0
  181.1610  177.3780  139.1590 N   0  0  0  0  0  2  0  0  0  0  0  0
  180.5930  175.2390  137.9440 C   0  0  0  0  0  0  0  0  0  0  0  0
  180.2160  173.9880  138.1690 C   0  0  0  0  0  2  0  0  0  0  0  0
  180.1390  175.9190  136.7100 C   0  0  0  0  0  0  0  0  0  0  0  0
  181.0250  176.6750  135.9530 O   0  0  0  0  0  0  0  0  0  0  0  0
  178.9350  175.8360  136.3420 O   0  0  0  0  0  1  0  0  0  0  0  0
  183.9070  178.3840  138.5650 C   0  0  0  0  0  2  0  0  0  0  0  0
  185.1470  177.6110  138.1050 C   0  0  0  0  0  2  0  0  0  0  0  0
  185.0610  177.2850  136.6180 C   0  0  1  0  0  3  0  0  0  0  0  0
  186.3180  177.6950  135.8340 C   0  0  0  0  0  2  0  0  0  0  0  0
  187.0610  178.6100  136.5830 O   0  0  0  0  0  1  0  0  0  0  0  0
  184.5640  175.9830  136.3710 O   0  0  0  0  0  0  0  0  0  0  0  0
  188.0410  171.9750  137.1720 C   0  0  0  0  0  1  0  0  0  0  0  0
  185.8600  172.8760  137.6240 O   0  0  0  0  0  0  0  0  0  0  0  0
  185.5630  175.0240  136.6160 C   0  0  2  0  0  3  0  0  0  0  0  0
  186.6400  172.2330  136.6480 C   0  0  1  0  0  3  0  0  0  0  0  0
  185.4570  173.9570  135.5340 C   0  0  1  0  0  3  0  0  0  0  0  0
  186.7130  173.1370  135.4430 C   0  0  0  0  0  2  0  0  0  0  0  0
  184.9290  173.6750  136.9260 C   0  0  1  0  0  3  0  0  0  0  0  0
  1 34  1  6  0  0  0
  1 29  1  0  0  0  0
  2  4  1  6  0  0  0
  2  3  1  0  0  0  0
  3 27  1  6  0  0  0
  4  7  1  0  0  0  0
  5  4  2  0  0  0  0
  6  3  1  0  0  0  0
  6  1  1  1  0  0  0
  7  6  1  0  0  0  0
  8 14  1  0  0  0  0
 11 13  1  6  0  0  0
 11 12  1  0  0  0  0
 11  9  1  0  0  0  0
 12 10  1  6  0  0  0
 12  8  1  0  0  0  0
 14  9  1  6  0  0  0
 14  2  1  0  0  0  0
 15 11  1  0  0  0  0
 16 17  2  0  0  0  0
 17 18  1  0  0  0  0
 18 15  1  0  0  0  0
 19 17  1  0  0  0  0
 20 19  1  0  0  0  0
 20 22  1  0  0  0  0
 22 21  1  0  0  0  0
 22 23  1  0  0  0  0
 23 25  1  0  0  0  0
 24 25  1  0  0  0  0
 27 26  1  0  0  0  0
 28 30  1  0  0  0  0
 29 28  1  0  0  0  0
 29 30  1  0  0  0  0
 29 31  1  0  0  0  0
 31 32  1  0  0  0  0
 31 33  1  0  0  0  0
 35 38  1  0  0  0  0
 36 49  1  6  0  0  0
 36 40  1  0  0  0  0
 36 37  1  0  0  0  0
 37 39  1  0  0  0  0
 39 38  1  0  0  0  0
 39 34  1  1  0  0  0
 40 43  1  6  0  0  0
 40 35  1  0  0  0  0
 41 43  1  0  0  0  0
 41 42  2  0  0  0  0
 44 45  2  0  0  0  0
 44 41  1  0  0  0  0
 46 44  1  0  0  0  0
 47 46  2  0  0  0  0
 48 46  1  0  0  0  0
 50 49  1  0  0  0  0
 51 52  1  1  0  0  0
 51 50  1  0  0  0  0
 52 53  1  0  0  0  0
 54 51  1  0  0  0  0
 57 54  1  6  0  0  0
 57 61  1  0  0  0  0
 58 55  1  1  0  0  0
 58 56  1  0  0  0  0
 59 60  1  1  0  0  0
 59 57  1  0  0  0  0
 59 61  1  0  0  0  0
 60 58  1  0  0  0  0
 61 56  1  1  0  0  0
M  END
>  <MODEL>
9

>  <REMARK>
 VINA RESULT:      -4.3      2.651      7.159
  Name = 
  23 active torsions:
  status: ('A' for Active; 'I' for Inactive)
    1  A    between atoms: C_1  and  C_16
    2  A    between atoms: C_1  and  C_33
    3  A    between atoms: C_2  and  C_54
    4  A    between atoms: C_3  and  C_6
    5  A    between atoms: C_3  and  C_40
    6  A    between atoms: C_3  and  C_47
    7  A    between atoms: C_5  and  C_10
    8  A    between atoms: C_5  and  O_19
    9  A    between atoms: C_5  and  C_31
   10  A    between atoms: C_6  and  C_50
   11  A    between atoms: C_7  and  C_42
   12  A    between atoms: C_7  and  N_56
   13  A    between atoms: C_9  and  C_12
   14  A    between atoms: C_10  and  C_21
   15  A    between atoms: C_12  and  C_14
   16  A    between atoms: C_13  and  C_37
   17  A    between atoms: C_17  and  N_27
   18  A    between atoms: C_17  and  C_61
   19  A    between atoms: O_19  and  C_39
   20  A    between atoms: C_21  and  C_22
   21  A    between atoms: C_24  and  C_40
   22  A    between atoms: N_27  and  C_33
   23  A    between atoms: N_51  and  C_55
                            x       y       z     vdW  Elec       q    Type
                         _______ _______ _______ _____ _____    ______ ____

>  <TORSDO>
F 23

$$$$
