=
 OpenBabel11062416303D

 29 32  0  0  1  0  0  0  0  0999 V2000
  189.1090  177.3010  141.1790 C   0  0  0  0  0  0  0  0  0  0  0  0
  188.1050  178.8950  139.5340 N   0  0  0  0  0  2  0  0  0  0  0  0
  186.9930  177.7240  142.9210 C   0  0  0  0  0  0  0  0  0  0  0  0
  190.8610  177.2740  139.2780 C   0  0  2  0  0  3  0  0  0  0  0  0
  190.2910  176.8720  140.6070 C   0  0  0  0  0  0  0  0  0  0  0  0
  189.0290  179.5820  137.5310 O   0  0  0  0  0  0  0  0  0  0  0  0
  188.0880  178.1700  140.7700 C   0  0  0  0  0  0  0  0  0  0  0  0
  187.0250  178.3770  141.6690 C   0  0  0  0  0  3  0  0  0  0  0  0
  190.9110  176.0430  141.4830 N   0  0  0  0  0  0  0  0  0  0  0  0
  188.0330  176.8550  143.2970 C   0  0  0  0  0  3  0  0  0  0  0  0
  189.7360  177.3990  138.2410 C   0  0  1  0  0  3  0  0  0  0  0  0
  188.9570  178.6790  138.4040 C   0  0  0  0  0  0  0  0  0  0  0  0
  189.0780  176.6760  142.3970 C   0  0  0  0  0  0  0  0  0  0  0  0
  190.1540  175.9440  142.5420 O   0  0  0  0  0  0  0  0  0  0  0  0
  190.1400  177.0730  136.7860 C   0  0  0  0  0  2  0  0  0  0  0  0
  188.4230  177.4270  135.1730 F   0  0  0  0  0  0  0  0  0  0  0  0
  188.1390  175.8040  136.6980 F   0  0  0  0  0  0  0  0  0  0  0  0
  189.5970  175.5110  135.0140 F   0  0  0  0  0  0  0  0  0  0  0  0
  189.0660  176.4390  135.8930 C   0  0  0  0  0  0  0  0  0  0  0  0
  191.8550  176.2930  138.8550 N   0  0  0  0  0  2  0  0  0  0  0  0
  193.1040  176.9220  138.9180 N   0  0  0  0  0  2  0  0  0  0  0  0
  193.6700  176.7880  137.6950 O   0  0  0  0  0  1  0  0  0  0  0  0
  185.8380  177.9470  143.8400 C   0  0  0  0  0  2  0  0  0  0  0  0
  186.3040  178.1230  145.2470 C   0  0  0  0  0  0  0  0  0  0  0  0
  186.0450  179.1260  147.4380 C   0  0  0  0  0  3  0  0  0  0  0  0
  187.4200  177.4140  145.7060 C   0  0  0  0  0  3  0  0  0  0  0  0
  187.1630  178.4220  147.8920 C   0  0  0  0  0  3  0  0  0  0  0  0
  187.8500  177.5650  147.0270 C   0  0  0  0  0  3  0  0  0  0  0  0
  185.6140  178.9760  146.1160 C   0  0  0  0  0  3  0  0  0  0  0  0
  1 13  1  0  0  0  0
  2  7  1  0  0  0  0
  3 10  1  0  0  0  0
  3 23  1  0  0  0  0
  4 20  1  6  0  0  0
  4  5  1  0  0  0  0
  5  1  1  0  0  0  0
  5  9  2  0  0  0  0
  6 12  2  0  0  0  0
  7  1  2  0  0  0  0
  7  8  1  0  0  0  0
  8  3  2  0  0  0  0
  9 14  1  0  0  0  0
 11 15  1  6  0  0  0
 11 12  1  0  0  0  0
 11  4  1  0  0  0  0
 12  2  1  0  0  0  0
 13 14  1  0  0  0  0
 13 10  2  0  0  0  0
 16 19  1  0  0  0  0
 18 19  1  0  0  0  0
 19 17  1  0  0  0  0
 19 15  1  0  0  0  0
 20 21  1  0  0  0  0
 22 21  1  0  0  0  0
 23 24  1  0  0  0  0
 24 26  2  0  0  0  0
 24 29  1  0  0  0  0
 25 27  1  0  0  0  0
 26 28  1  0  0  0  0
 28 27  2  0  0  0  0
 29 25  2  0  0  0  0
M  END
>  <MODEL>
1

>  <REMARK>
 VINA RESULT:      -8.9      0.000      0.000
  Name = 
  6 active torsions:
  status: ('A' for Active; 'I' for Inactive)
    1  A    between atoms: C_1  and  C_26
    2  A    between atoms: C_5  and  C_26
    3  A    between atoms: C_6  and  N_25
    4  A    between atoms: C_15  and  C_21
    5  A    between atoms: C_20  and  C_21
    6  A    between atoms: N_22  and  N_25
                            x       y       z     vdW  Elec       q    Type
                         _______ _______ _______ _____ _____    ______ ____

>  <TORSDO>
F 6

$$$$
=
 OpenBabel11062416303D

 29 32  0  0  1  0  0  0  0  0999 V2000
  186.4630  178.2640  142.0020 C   0  0  0  0  0  0  0  0  0  0  0  0
  184.6350  178.3290  143.7080 N   0  0  0  0  0  2  0  0  0  0  0  0
  188.2260  177.2580  143.8920 C   0  0  0  0  0  0  0  0  0  0  0  0
  184.4970  179.2400  140.6350 C   0  0  2  0  0  3  0  0  0  0  0  0
  185.9050  178.7600  140.8400 C   0  0  0  0  0  0  0  0  0  0  0  0
  182.4970  179.1540  143.4150 O   0  0  0  0  0  0  0  0  0  0  0  0
  185.9730  178.0260  143.2940 C   0  0  0  0  0  0  0  0  0  0  0  0
  186.8830  177.5210  144.2410 C   0  0  0  0  0  3  0  0  0  0  0  0
  186.8700  178.8010  139.8880 N   0  0  0  0  0  0  0  0  0  0  0  0
  188.6830  177.5040  142.5850 C   0  0  0  0  0  3  0  0  0  0  0  0
  183.5190  178.3370  141.4000 C   0  0  1  0  0  3  0  0  0  0  0  0
  183.5110  178.6380  142.8770 C   0  0  0  0  0  0  0  0  0  0  0  0
  187.7670  178.0150  141.6700 C   0  0  0  0  0  0  0  0  0  0  0  0
  187.9710  178.3420  140.4190 O   0  0  0  0  0  0  0  0  0  0  0  0
  182.1180  178.1960  140.7650 C   0  0  0  0  0  2  0  0  0  0  0  0
  181.6300  177.2960  138.6130 F   0  0  0  0  0  0  0  0  0  0  0  0
  180.7330  176.3030  140.4160 F   0  0  0  0  0  0  0  0  0  0  0  0
  182.9220  176.0500  139.9750 F   0  0  0  0  0  0  0  0  0  0  0  0
  181.8600  176.9360  139.9270 C   0  0  0  0  0  0  0  0  0  0  0  0
  184.1890  179.2560  139.2100 N   0  0  0  0  0  2  0  0  0  0  0  0
  184.1760  180.5970  138.8080 N   0  0  0  0  0  2  0  0  0  0  0  0
  182.8790  180.9880  138.7930 O   0  0  0  0  0  1  0  0  0  0  0  0
  189.1580  176.6990  144.9150 C   0  0  0  0  0  2  0  0  0  0  0  0
  188.8710  177.2690  146.2640 C   0  0  0  0  0  0  0  0  0  0  0  0
  187.2920  178.1230  147.8930 C   0  0  0  0  0  3  0  0  0  0  0  0
  189.9110  177.4450  147.1830 C   0  0  0  0  0  3  0  0  0  0  0  0
  188.3340  178.3050  148.8070 C   0  0  0  0  0  3  0  0  0  0  0  0
  189.6440  177.9650  148.4520 C   0  0  0  0  0  3  0  0  0  0  0  0
  187.5590  177.6040  146.6220 C   0  0  0  0  0  3  0  0  0  0  0  0
  1  7  1  0  0  0  0
  3  8  1  0  0  0  0
  3 23  1  0  0  0  0
  4 20  1  6  0  0  0
  4  5  1  0  0  0  0
  4 11  1  0  0  0  0
  5  1  1  0  0  0  0
  7  2  1  0  0  0  0
  7  8  2  0  0  0  0
  9 14  1  0  0  0  0
  9  5  2  0  0  0  0
 10  3  2  0  0  0  0
 11 15  1  6  0  0  0
 11 12  1  0  0  0  0
 12  6  2  0  0  0  0
 12  2  1  0  0  0  0
 13  1  2  0  0  0  0
 13 10  1  0  0  0  0
 14 13  1  0  0  0  0
 16 19  1  0  0  0  0
 19 18  1  0  0  0  0
 19 17  1  0  0  0  0
 19 15  1  0  0  0  0
 21 20  1  0  0  0  0
 22 21  1  0  0  0  0
 23 24  1  0  0  0  0
 24 29  2  0  0  0  0
 24 26  1  0  0  0  0
 25 27  2  0  0  0  0
 26 28  2  0  0  0  0
 28 27  1  0  0  0  0
 29 25  1  0  0  0  0
M  END
>  <MODEL>
2

>  <REMARK>
 VINA RESULT:      -8.8      4.035      5.992
  Name = 
  6 active torsions:
  status: ('A' for Active; 'I' for Inactive)
    1  A    between atoms: C_1  and  C_26
    2  A    between atoms: C_5  and  C_26
    3  A    between atoms: C_6  and  N_25
    4  A    between atoms: C_15  and  C_21
    5  A    between atoms: C_20  and  C_21
    6  A    between atoms: N_22  and  N_25
                            x       y       z     vdW  Elec       q    Type
                         _______ _______ _______ _____ _____    ______ ____

>  <TORSDO>
F 6

$$$$
=
 OpenBabel11062416303D

 29 32  0  0  1  0  0  0  0  0999 V2000
  184.3640  178.7390  142.9170 C   0  0  0  0  0  0  0  0  0  0  0  0
  181.9740  179.0380  143.5930 N   0  0  0  0  0  2  0  0  0  0  0  0
  185.1240  178.5780  145.5800 C   0  0  0  0  0  0  0  0  0  0  0  0
  183.1920  178.9940  140.6260 C   0  0  2  0  0  3  0  0  0  0  0  0
  184.3690  178.7950  141.5370 C   0  0  0  0  0  0  0  0  0  0  0  0
  180.1790  179.4370  142.1940 O   0  0  0  0  0  0  0  0  0  0  0  0
  183.3590  178.8190  143.8910 C   0  0  0  0  0  0  0  0  0  0  0  0
  183.7630  178.7410  145.2360 C   0  0  0  0  0  3  0  0  0  0  0  0
  185.6530  178.6940  141.1120 N   0  0  0  0  0  0  0  0  0  0  0  0
  186.1060  178.4980  144.5750 C   0  0  0  0  0  3  0  0  0  0  0  0
  181.9780  178.2240  141.1630 C   0  0  1  0  0  3  0  0  0  0  0  0
  181.3260  178.9340  142.3210 C   0  0  0  0  0  0  0  0  0  0  0  0
  185.6820  178.5890  143.2530 C   0  0  0  0  0  0  0  0  0  0  0  0
  186.4120  178.5660  142.1670 O   0  0  0  0  0  0  0  0  0  0  0  0
  180.9950  177.7110  140.0870 C   0  0  0  0  0  2  0  0  0  0  0  0
  182.2440  175.6840  140.0040 F   0  0  0  0  0  0  0  0  0  0  0  0
  180.5780  175.9740  138.5270 F   0  0  0  0  0  0  0  0  0  0  0  0
  180.0980  175.5380  140.6780 F   0  0  0  0  0  0  0  0  0  0  0  0
  180.9730  176.1970  139.8330 C   0  0  0  0  0  0  0  0  0  0  0  0
  183.5370  178.5550  139.2780 N   0  0  0  0  0  2  0  0  0  0  0  0
  183.3100  179.6390  138.4220 N   0  0  0  0  0  2  0  0  0  0  0  0
  184.1050  180.6480  138.8510 O   0  0  0  0  0  1  0  0  0  0  0  0
  185.5160  178.4740  147.0150 C   0  0  0  0  0  2  0  0  0  0  0  0
  186.9550  178.1010  147.1480 C   0  0  0  0  0  0  0  0  0  0  0  0
  188.9450  177.0460  146.2520 C   0  0  0  0  0  3  0  0  0  0  0  0
  187.6760  178.4940  148.2810 C   0  0  0  0  0  3  0  0  0  0  0  0
  189.6620  177.4340  147.3880 C   0  0  0  0  0  3  0  0  0  0  0  0
  189.0270  178.1590  148.4020 C   0  0  0  0  0  3  0  0  0  0  0  0
  187.5930  177.3800  146.1300 C   0  0  0  0  0  3  0  0  0  0  0  0
  1 13  2  0  0  0  0
  1  7  1  0  0  0  0
  2  7  1  0  0  0  0
  3 23  1  0  0  0  0
  4 20  1  6  0  0  0
  4 11  1  0  0  0  0
  4  5  1  0  0  0  0
  5  1  1  0  0  0  0
  6 12  2  0  0  0  0
  7  8  2  0  0  0  0
  8  3  1  0  0  0  0
  9  5  2  0  0  0  0
  9 14  1  0  0  0  0
 10  3  2  0  0  0  0
 11 15  1  6  0  0  0
 11 12  1  0  0  0  0
 12  2  1  0  0  0  0
 13 10  1  0  0  0  0
 14 13  1  0  0  0  0
 17 19  1  0  0  0  0
 19 16  1  0  0  0  0
 19 15  1  0  0  0  0
 19 18  1  0  0  0  0
 21 22  1  0  0  0  0
 21 20  1  0  0  0  0
 23 24  1  0  0  0  0
 24 26  1  0  0  0  0
 25 27  2  0  0  0  0
 26 28  2  0  0  0  0
 27 28  1  0  0  0  0
 29 25  1  0  0  0  0
 29 24  2  0  0  0  0
M  END
>  <MODEL>
3

>  <REMARK>
 VINA RESULT:      -8.7      5.253      6.794
  Name = 
  6 active torsions:
  status: ('A' for Active; 'I' for Inactive)
    1  A    between atoms: C_1  and  C_26
    2  A    between atoms: C_5  and  C_26
    3  A    between atoms: C_6  and  N_25
    4  A    between atoms: C_15  and  C_21
    5  A    between atoms: C_20  and  C_21
    6  A    between atoms: N_22  and  N_25
                            x       y       z     vdW  Elec       q    Type
                         _______ _______ _______ _____ _____    ______ ____

>  <TORSDO>
F 6

$$$$
=
 OpenBabel11062416303D

 29 32  0  0  1  0  0  0  0  0999 V2000
  184.9080  178.6770  141.7450 C   0  0  0  0  0  0  0  0  0  0  0  0
  183.0360  178.7470  143.4030 N   0  0  0  0  0  2  0  0  0  0  0  0
  186.6990  178.0140  143.7570 C   0  0  0  0  0  0  0  0  0  0  0  0
  182.9040  179.3440  140.2530 C   0  0  2  0  0  3  0  0  0  0  0  0
  184.3410  179.0090  140.5300 C   0  0  0  0  0  0  0  0  0  0  0  0
  180.8450  179.3520  142.9910 O   0  0  0  0  0  0  0  0  0  0  0  0
  184.4060  178.5230  143.0450 C   0  0  0  0  0  0  0  0  0  0  0  0
  185.3290  178.1920  144.0540 C   0  0  0  0  0  3  0  0  0  0  0  0
  185.3250  179.0420  139.5970 N   0  0  0  0  0  0  0  0  0  0  0  0
  187.1680  178.1720  142.4400 C   0  0  0  0  0  3  0  0  0  0  0  0
  181.9860  178.4370  141.0850 C   0  0  1  0  0  3  0  0  0  0  0  0
  181.9130  178.8760  142.5250 C   0  0  0  0  0  0  0  0  0  0  0  0
  186.2370  178.5110  141.4630 C   0  0  0  0  0  0  0  0  0  0  0  0
  186.4460  178.7330  140.1900 O   0  0  0  0  0  0  0  0  0  0  0  0
  180.6190  178.1140  140.4410 C   0  0  0  0  0  2  0  0  0  0  0  0
  179.5560  176.5320  139.0120 F   0  0  0  0  0  0  0  0  0  0  0  0
  179.5890  176.1260  141.2200 F   0  0  0  0  0  0  0  0  0  0  0  0
  181.4680  175.8850  140.0130 F   0  0  0  0  0  0  0  0  0  0  0  0
  180.3160  176.6360  140.1610 C   0  0  0  0  0  0  0  0  0  0  0  0
  182.6340  179.1960  138.8280 N   0  0  0  0  0  2  0  0  0  0  0  0
  182.0510  180.3930  138.3950 N   0  0  0  0  0  2  0  0  0  0  0  0
  182.9100  181.3870  138.7250 O   0  0  0  0  0  1  0  0  0  0  0  0
  187.6470  177.6380  144.8460 C   0  0  0  0  0  2  0  0  0  0  0  0
  189.0080  177.3680  144.2960 C   0  0  0  0  0  0  0  0  0  0  0  0
  191.3390  177.9880  144.0520 C   0  0  0  0  0  3  0  0  0  0  0  0
  189.2390  176.2130  143.5400 C   0  0  0  0  0  3  0  0  0  0  0  0
  191.5650  176.8380  143.2920 C   0  0  0  0  0  3  0  0  0  0  0  0
  190.5150  175.9500  143.0370 C   0  0  0  0  0  3  0  0  0  0  0  0
  190.0610  178.2540  144.5560 C   0  0  0  0  0  3  0  0  0  0  0  0
  1  7  1  0  0  0  0
  3  8  1  0  0  0  0
  3 23  1  0  0  0  0
  4 20  1  6  0  0  0
  4  5  1  0  0  0  0
  4 11  1  0  0  0  0
  5  1  1  0  0  0  0
  7  2  1  0  0  0  0
  7  8  2  0  0  0  0
  9 14  1  0  0  0  0
  9  5  2  0  0  0  0
 10  3  2  0  0  0  0
 11 15  1  6  0  0  0
 11 12  1  0  0  0  0
 12  6  2  0  0  0  0
 12  2  1  0  0  0  0
 13  1  2  0  0  0  0
 13 10  1  0  0  0  0
 14 13  1  0  0  0  0
 16 19  1  0  0  0  0
 18 19  1  0  0  0  0
 19 15  1  0  0  0  0
 19 17  1  0  0  0  0
 21 22  1  0  0  0  0
 21 20  1  0  0  0  0
 24 29  1  0  0  0  0
 24 23  1  0  0  0  0
 25 29  2  0  0  0  0
 26 24  2  0  0  0  0
 27 25  1  0  0  0  0
 28 27  2  0  0  0  0
 28 26  1  0  0  0  0
M  END
>  <MODEL>
4

>  <REMARK>
 VINA RESULT:      -8.6      4.903      7.231
  Name = 
  6 active torsions:
  status: ('A' for Active; 'I' for Inactive)
    1  A    between atoms: C_1  and  C_26
    2  A    between atoms: C_5  and  C_26
    3  A    between atoms: C_6  and  N_25
    4  A    between atoms: C_15  and  C_21
    5  A    between atoms: C_20  and  C_21
    6  A    between atoms: N_22  and  N_25
                            x       y       z     vdW  Elec       q    Type
                         _______ _______ _______ _____ _____    ______ ____

>  <TORSDO>
F 6

$$$$
=
 OpenBabel11062416303D

 29 32  0  0  1  0  0  0  0  0999 V2000
  187.2750  177.9250  141.5880 C   0  0  0  0  0  0  0  0  0  0  0  0
  185.1570  179.1670  141.1100 N   0  0  0  0  0  2  0  0  0  0  0  0
  186.5840  177.7270  144.2670 C   0  0  0  0  0  0  0  0  0  0  0  0
  187.4990  178.3990  139.0560 C   0  0  2  0  0  3  0  0  0  0  0  0
  187.9430  177.8510  140.3820 C   0  0  0  0  0  0  0  0  0  0  0  0
  184.5200  180.0890  139.0890 O   0  0  0  0  0  0  0  0  0  0  0  0
  186.0460  178.4670  141.9890 C   0  0  0  0  0  0  0  0  0  0  0  0
  185.7150  178.3620  143.3530 C   0  0  0  0  0  3  0  0  0  0  0  0
  189.1320  177.2330  140.5910 N   0  0  0  0  0  0  0  0  0  0  0  0
  187.8090  177.1910  143.8290 C   0  0  0  0  0  3  0  0  0  0  0  0
  185.9870  178.1980  138.8860 C   0  0  1  0  0  3  0  0  0  0  0  0
  185.1910  179.2020  139.6790 C   0  0  0  0  0  0  0  0  0  0  0  0
  188.1190  177.3180  142.4780 C   0  0  0  0  0  0  0  0  0  0  0  0
  189.2010  176.9220  141.8570 O   0  0  0  0  0  0  0  0  0  0  0  0
  185.5070  178.0010  137.4310 C   0  0  0  0  0  2  0  0  0  0  0  0
  184.2870  176.5500  135.9870 F   0  0  0  0  0  0  0  0  0  0  0  0
  183.1420  178.0000  137.2630 F   0  0  0  0  0  0  0  0  0  0  0  0
  184.0900  176.1930  138.2030 F   0  0  0  0  0  0  0  0  0  0  0  0
  184.2390  177.1610  137.2260 C   0  0  0  0  0  0  0  0  0  0  0  0
  188.2380  177.7430  137.9830 N   0  0  0  0  0  2  0  0  0  0  0  0
  189.3000  178.5870  137.6400 N   0  0  0  0  0  2  0  0  0  0  0  0
  188.7710  179.8180  137.4420 O   0  0  0  0  0  1  0  0  0  0  0  0
  186.1910  177.6110  145.7020 C   0  0  0  0  0  2  0  0  0  0  0  0
  187.3890  177.6810  146.5890 C   0  0  0  0  0  0  0  0  0  0  0  0
  189.7390  177.2440  146.9870 C   0  0  0  0  0  3  0  0  0  0  0  0
  187.2920  178.2910  147.8450 C   0  0  0  0  0  3  0  0  0  0  0  0
  189.6390  177.8470  148.2440 C   0  0  0  0  0  3  0  0  0  0  0  0
  188.4150  178.3710  148.6730 C   0  0  0  0  0  3  0  0  0  0  0  0
  188.6160  177.1620  146.1590 C   0  0  0  0  0  3  0  0  0  0  0  0
  1  7  2  0  0  0  0
  1 13  1  0  0  0  0
  2  7  1  0  0  0  0
  3 23  1  0  0  0  0
  4 20  1  6  0  0  0
  4  5  1  0  0  0  0
  5  9  2  0  0  0  0
  5  1  1  0  0  0  0
  6 12  2  0  0  0  0
  7  8  1  0  0  0  0
  8  3  2  0  0  0  0
  9 14  1  0  0  0  0
 10  3  1  0  0  0  0
 11 15  1  6  0  0  0
 11  4  1  0  0  0  0
 11 12  1  0  0  0  0
 12  2  1  0  0  0  0
 13 10  2  0  0  0  0
 14 13  1  0  0  0  0
 16 19  1  0  0  0  0
 19 17  1  0  0  0  0
 19 15  1  0  0  0  0
 19 18  1  0  0  0  0
 21 20  1  0  0  0  0
 22 21  1  0  0  0  0
 23 24  1  0  0  0  0
 24 26  1  0  0  0  0
 25 27  2  0  0  0  0
 26 28  2  0  0  0  0
 27 28  1  0  0  0  0
 29 24  2  0  0  0  0
 29 25  1  0  0  0  0
M  END
>  <MODEL>
5

>  <REMARK>
 VINA RESULT:      -8.6      2.683      3.565
  Name = 
  6 active torsions:
  status: ('A' for Active; 'I' for Inactive)
    1  A    between atoms: C_1  and  C_26
    2  A    between atoms: C_5  and  C_26
    3  A    between atoms: C_6  and  N_25
    4  A    between atoms: C_15  and  C_21
    5  A    between atoms: C_20  and  C_21
    6  A    between atoms: N_22  and  N_25
                            x       y       z     vdW  Elec       q    Type
                         _______ _______ _______ _____ _____    ______ ____

>  <TORSDO>
F 6

$$$$
=
 OpenBabel11062416303D

 29 32  0  0  1  0  0  0  0  0999 V2000
  185.3380  178.4230  144.4890 C   0  0  0  0  0  0  0  0  0  0  0  0
  186.1240  178.4270  142.1140 N   0  0  0  0  0  2  0  0  0  0  0  0
  182.7880  179.1480  143.6730 C   0  0  0  0  0  0  0  0  0  0  0  0
  187.8350  177.8090  144.7560 C   0  0  2  0  0  3  0  0  0  0  0  0
  186.4460  178.0980  145.2460 C   0  0  0  0  0  0  0  0  0  0  0  0
  188.2830  178.0710  141.3700 O   0  0  0  0  0  0  0  0  0  0  0  0
  185.1070  178.5700  143.1130 C   0  0  0  0  0  0  0  0  0  0  0  0
  183.8090  178.9440  142.7180 C   0  0  0  0  0  3  0  0  0  0  0  0
  186.0920  178.1360  146.5550 N   0  0  0  0  0  0  0  0  0  0  0  0
  183.0540  178.9870  145.0450 C   0  0  0  0  0  3  0  0  0  0  0  0
  187.7730  176.9950  143.4560 C   0  0  1  0  0  3  0  0  0  0  0  0
  187.4270  177.8540  142.2670 C   0  0  0  0  0  0  0  0  0  0  0  0
  184.3480  178.6290  145.4100 C   0  0  0  0  0  0  0  0  0  0  0  0
  184.8270  178.4510  146.6160 O   0  0  0  0  0  0  0  0  0  0  0  0
  188.9540  176.0260  143.2270 C   0  0  0  0  0  2  0  0  0  0  0  0
  190.8680  176.3970  141.8580 F   0  0  0  0  0  0  0  0  0  0  0  0
  191.1750  176.0650  144.0570 F   0  0  0  0  0  0  0  0  0  0  0  0
  190.3330  178.0170  143.3300 F   0  0  0  0  0  0  0  0  0  0  0  0
  190.3520  176.6500  143.1140 C   0  0  0  0  0  0  0  0  0  0  0  0
  188.5780  177.0920  145.7870 N   0  0  0  0  0  2  0  0  0  0  0  0
  189.4540  178.0120  146.3760 N   0  0  0  0  0  2  0  0  0  0  0  0
  189.3670  177.8300  147.7150 O   0  0  0  0  0  1  0  0  0  0  0  0
  181.4160  179.5190  143.2180 C   0  0  0  0  0  2  0  0  0  0  0  0
  181.0180  178.7180  142.0220 C   0  0  0  0  0  0  0  0  0  0  0  0
  179.6830  176.9640  141.0160 C   0  0  0  0  0  3  0  0  0  0  0  0
  181.5820  179.0030  140.7730 C   0  0  0  0  0  3  0  0  0  0  0  0
  180.2520  177.2450  139.7710 C   0  0  0  0  0  3  0  0  0  0  0  0
  181.2010  178.2650  139.6490 C   0  0  0  0  0  3  0  0  0  0  0  0
  180.0640  177.7010  142.1420 C   0  0  0  0  0  3  0  0  0  0  0  0
  1  5  1  0  0  0  0
  1 13  1  0  0  0  0
  2 12  1  0  0  0  0
  2  7  1  0  0  0  0
  3 10  1  0  0  0  0
  4  5  1  0  0  0  0
  4 20  1  1  0  0  0
  5  9  2  0  0  0  0
  6 12  2  0  0  0  0
  7  1  2  0  0  0  0
  8  7  1  0  0  0  0
  8  3  2  0  0  0  0
  9 14  1  0  0  0  0
 10 13  2  0  0  0  0
 11 15  1  6  0  0  0
 11  4  1  0  0  0  0
 12 11  1  0  0  0  0
 13 14  1  0  0  0  0
 16 19  1  0  0  0  0
 19 15  1  0  0  0  0
 19 18  1  0  0  0  0
 19 17  1  0  0  0  0
 20 21  1  0  0  0  0
 21 22  1  0  0  0  0
 23  3  1  0  0  0  0
 24 29  1  0  0  0  0
 24 23  1  0  0  0  0
 25 29  2  0  0  0  0
 26 24  2  0  0  0  0
 27 25  1  0  0  0  0
 28 27  2  0  0  0  0
 28 26  1  0  0  0  0
M  END
>  <MODEL>
6

>  <REMARK>
 VINA RESULT:      -8.4      4.714      6.972
  Name = 
  6 active torsions:
  status: ('A' for Active; 'I' for Inactive)
    1  A    between atoms: C_1  and  C_26
    2  A    between atoms: C_5  and  C_26
    3  A    between atoms: C_6  and  N_25
    4  A    between atoms: C_15  and  C_21
    5  A    between atoms: C_20  and  C_21
    6  A    between atoms: N_22  and  N_25
                            x       y       z     vdW  Elec       q    Type
                         _______ _______ _______ _____ _____    ______ ____

>  <TORSDO>
F 6

$$$$
=
 OpenBabel11062416303D

 29 32  0  0  1  0  0  0  0  0999 V2000
  189.0780  177.3460  141.5150 C   0  0  0  0  0  0  0  0  0  0  0  0
  188.1280  178.9820  139.8780 N   0  0  0  0  0  2  0  0  0  0  0  0
  187.0100  177.8780  143.2860 C   0  0  0  0  0  0  0  0  0  0  0  0
  190.7980  177.2270  139.5880 C   0  0  2  0  0  3  0  0  0  0  0  0
  190.2280  176.8580  140.9270 C   0  0  0  0  0  0  0  0  0  0  0  0
  189.0560  179.6160  137.8590 O   0  0  0  0  0  0  0  0  0  0  0  0
  188.0940  178.2630  141.1170 C   0  0  0  0  0  0  0  0  0  0  0  0
  187.0560  178.5250  142.0300 C   0  0  0  0  0  3  0  0  0  0  0  0
  190.8210  176.0030  141.7970 N   0  0  0  0  0  0  0  0  0  0  0  0
  188.0120  176.9610  143.6500 C   0  0  0  0  0  3  0  0  0  0  0  0
  189.6650  177.4030  138.5670 C   0  0  1  0  0  3  0  0  0  0  0  0
  188.9520  178.7200  138.7370 C   0  0  0  0  0  0  0  0  0  0  0  0
  189.0340  176.7280  142.7350 C   0  0  0  0  0  0  0  0  0  0  0  0
  190.0750  175.9450  142.8670 O   0  0  0  0  0  0  0  0  0  0  0  0
  190.0320  177.0540  137.1080 C   0  0  0  0  0  2  0  0  0  0  0  0
  187.9820  175.8410  137.0670 F   0  0  0  0  0  0  0  0  0  0  0  0
  189.4930  175.4400  135.4560 F   0  0  0  0  0  0  0  0  0  0  0  0
  188.3110  177.3510  135.4270 F   0  0  0  0  0  0  0  0  0  0  0  0
  188.9290  176.4230  136.2470 C   0  0  0  0  0  0  0  0  0  0  0  0
  191.7370  176.1980  139.1550 N   0  0  0  0  0  2  0  0  0  0  0  0
  193.0130  176.7740  139.1700 N   0  0  0  0  0  2  0  0  0  0  0  0
  193.4650  176.7520  137.8940 O   0  0  0  0  0  1  0  0  0  0  0  0
  185.8820  178.1610  144.2190 C   0  0  0  0  0  2  0  0  0  0  0  0
  184.6070  178.3600  143.4680 C   0  0  0  0  0  0  0  0  0  0  0  0
  183.3380  178.2240  141.4080 C   0  0  0  0  0  3  0  0  0  0  0  0
  183.4710  178.8310  144.1350 C   0  0  0  0  0  3  0  0  0  0  0  0
  182.2050  178.7020  142.0750 C   0  0  0  0  0  3  0  0  0  0  0  0
  182.2720  179.0050  143.4380 C   0  0  0  0  0  3  0  0  0  0  0  0
  184.5380  178.0510  142.1040 C   0  0  0  0  0  3  0  0  0  0  0  0
  1 13  1  0  0  0  0
  2  7  1  0  0  0  0
  3 10  1  0  0  0  0
  3 23  1  0  0  0  0
  4 20  1  6  0  0  0
  4  5  1  0  0  0  0
  5  1  1  0  0  0  0
  5  9  2  0  0  0  0
  6 12  2  0  0  0  0
  7  1  2  0  0  0  0
  7  8  1  0  0  0  0
  8  3  2  0  0  0  0
  9 14  1  0  0  0  0
 11 15  1  6  0  0  0
 11 12  1  0  0  0  0
 11  4  1  0  0  0  0
 12  2  1  0  0  0  0
 13 14  1  0  0  0  0
 13 10  2  0  0  0  0
 17 19  1  0  0  0  0
 18 19  1  0  0  0  0
 19 16  1  0  0  0  0
 19 15  1  0  0  0  0
 20 21  1  0  0  0  0
 22 21  1  0  0  0  0
 24 26  1  0  0  0  0
 24 23  1  0  0  0  0
 25 27  2  0  0  0  0
 25 29  1  0  0  0  0
 27 28  1  0  0  0  0
 28 26  2  0  0  0  0
 29 24  2  0  0  0  0
M  END
>  <MODEL>
7

>  <REMARK>
 VINA RESULT:      -8.3      1.427      2.696
  Name = 
  6 active torsions:
  status: ('A' for Active; 'I' for Inactive)
    1  A    between atoms: C_1  and  C_26
    2  A    between atoms: C_5  and  C_26
    3  A    between atoms: C_6  and  N_25
    4  A    between atoms: C_15  and  C_21
    5  A    between atoms: C_20  and  C_21
    6  A    between atoms: N_22  and  N_25
                            x       y       z     vdW  Elec       q    Type
                         _______ _______ _______ _____ _____    ______ ____

>  <TORSDO>
F 6

$$$$
=
 OpenBabel11062416303D

 29 32  0  0  1  0  0  0  0  0999 V2000
  185.3680  178.4410  144.4120 C   0  0  0  0  0  0  0  0  0  0  0  0
  186.9380  178.2920  142.4700 N   0  0  0  0  0  2  0  0  0  0  0  0
  183.2220  178.7660  142.6860 C   0  0  0  0  0  0  0  0  0  0  0  0
  187.6510  178.1620  145.5950 C   0  0  2  0  0  3  0  0  0  0  0  0
  186.1600  178.3320  145.5380 C   0  0  0  0  0  0  0  0  0  0  0  0
  189.2400  178.1230  142.5610 O   0  0  0  0  0  0  0  0  0  0  0  0
  185.6260  178.4150  143.0340 C   0  0  0  0  0  0  0  0  0  0  0  0
  184.5260  178.5870  142.1730 C   0  0  0  0  0  3  0  0  0  0  0  0
  185.3660  178.4630  146.6300 N   0  0  0  0  0  0  0  0  0  0  0  0
  182.9990  178.7810  144.0750 C   0  0  0  0  0  3  0  0  0  0  0  0
  188.1130  177.2150  144.4780 C   0  0  1  0  0  3  0  0  0  0  0  0
  188.1430  177.8990  143.1350 C   0  0  0  0  0  0  0  0  0  0  0  0
  184.1040  178.6210  144.9040 C   0  0  0  0  0  0  0  0  0  0  0  0
  184.1400  178.6290  146.2130 O   0  0  0  0  0  0  0  0  0  0  0  0
  189.3690  176.3770  144.8010 C   0  0  0  0  0  2  0  0  0  0  0  0
  191.6140  176.8270  144.1410 F   0  0  0  0  0  0  0  0  0  0  0  0
  191.1340  176.7730  146.3340 F   0  0  0  0  0  0  0  0  0  0  0  0
  190.4660  178.5190  145.0880 F   0  0  0  0  0  0  0  0  0  0  0  0
  190.6630  177.1500  145.0900 C   0  0  0  0  0  0  0  0  0  0  0  0
  188.0350  177.6510  146.9060 N   0  0  0  0  0  2  0  0  0  0  0  0
  188.5160  178.7380  147.6450 N   0  0  0  0  0  2  0  0  0  0  0  0
  189.4300  178.2450  148.5150 O   0  0  0  0  0  1  0  0  0  0  0  0
  182.0740  178.9200  141.7440 C   0  0  0  0  0  2  0  0  0  0  0  0
  182.4010  178.3400  140.4080 C   0  0  0  0  0  0  0  0  0  0  0  0
  183.0960  178.6290  138.1040 C   0  0  0  0  0  3  0  0  0  0  0  0
  182.3600  176.9540  140.2200 C   0  0  0  0  0  3  0  0  0  0  0  0
  183.0470  177.2440  137.9160 C   0  0  0  0  0  3  0  0  0  0  0  0
  182.6800  176.4070  138.9750 C   0  0  0  0  0  3  0  0  0  0  0  0
  182.7750  179.1780  139.3490 C   0  0  0  0  0  3  0  0  0  0  0  0
  1 13  1  0  0  0  0
  1  5  1  0  0  0  0
  2  7  1  0  0  0  0
  2 12  1  0  0  0  0
  3 10  1  0  0  0  0
  4 20  1  1  0  0  0
  5  4  1  0  0  0  0
  5  9  2  0  0  0  0
  6 12  2  0  0  0  0
  7  1  2  0  0  0  0
  8  3  2  0  0  0  0
  8  7  1  0  0  0  0
 10 13  2  0  0  0  0
 11 15  1  1  0  0  0
 11  4  1  0  0  0  0
 12 11  1  0  0  0  0
 13 14  1  0  0  0  0
 14  9  1  0  0  0  0
 15 19  1  0  0  0  0
 16 19  1  0  0  0  0
 18 19  1  0  0  0  0
 19 17  1  0  0  0  0
 20 21  1  0  0  0  0
 21 22  1  0  0  0  0
 23  3  1  0  0  0  0
 24 23  1  0  0  0  0
 25 29  1  0  0  0  0
 26 24  1  0  0  0  0
 27 25  2  0  0  0  0
 27 28  1  0  0  0  0
 28 26  2  0  0  0  0
 29 24  2  0  0  0  0
M  END
>  <MODEL>
8

>  <REMARK>
 VINA RESULT:      -8.2      5.071      7.640
  Name = 
  6 active torsions:
  status: ('A' for Active; 'I' for Inactive)
    1  A    between atoms: C_1  and  C_26
    2  A    between atoms: C_5  and  C_26
    3  A    between atoms: C_6  and  N_25
    4  A    between atoms: C_15  and  C_21
    5  A    between atoms: C_20  and  C_21
    6  A    between atoms: N_22  and  N_25
                            x       y       z     vdW  Elec       q    Type
                         _______ _______ _______ _____ _____    ______ ____

>  <TORSDO>
F 6

$$$$
=
 OpenBabel11062416303D

 29 32  0  0  1  0  0  0  0  0999 V2000
  189.8750  177.4490  143.2880 C   0  0  0  0  0  0  0  0  0  0  0  0
  187.4010  177.0840  143.2610 N   0  0  0  0  0  2  0  0  0  0  0  0
  189.8920  177.7160  140.5270 C   0  0  0  0  0  0  0  0  0  0  0  0
  189.3660  177.0840  145.7970 C   0  0  2  0  0  3  0  0  0  0  0  0
  190.2510  177.3530  144.6140 C   0  0  0  0  0  0  0  0  0  0  0  0
  186.0570  176.5800  145.0710 O   0  0  0  0  0  0  0  0  0  0  0  0
  188.6490  177.3620  142.6140 C   0  0  0  0  0  0  0  0  0  0  0  0
  188.6770  177.4940  141.2140 C   0  0  0  0  0  3  0  0  0  0  0  0
  191.5990  177.4870  144.6850 N   0  0  0  0  0  0  0  0  0  0  0  0
  191.1040  177.8020  141.2360 C   0  0  0  0  0  3  0  0  0  0  0  0
  188.0320  177.8260  145.6330 C   0  0  1  0  0  3  0  0  0  0  0  0
  187.1140  177.1280  144.6630 C   0  0  0  0  0  0  0  0  0  0  0  0
  191.0510  177.6560  142.6190 C   0  0  0  0  0  0  0  0  0  0  0  0
  192.0440  177.6730  143.4720 O   0  0  0  0  0  0  0  0  0  0  0  0
  187.3590  178.2710  146.9500 C   0  0  0  0  0  2  0  0  0  0  0  0
  185.9450  179.5810  145.5500 F   0  0  0  0  0  0  0  0  0  0  0  0
  186.0840  180.1130  147.7260 F   0  0  0  0  0  0  0  0  0  0  0  0
  184.9400  178.2860  147.0960 F   0  0  0  0  0  0  0  0  0  0  0  0
  186.0510  179.0650  146.8270 C   0  0  0  0  0  0  0  0  0  0  0  0
  190.0470  177.4950  147.0200 N   0  0  0  0  0  2  0  0  0  0  0  0
  190.7360  176.3760  147.5020 N   0  0  0  0  0  2  0  0  0  0  0  0
  191.9440  176.8170  147.9270 O   0  0  0  0  0  1  0  0  0  0  0  0
  189.8830  177.8770  139.0440 C   0  0  0  0  0  2  0  0  0  0  0  0
  190.3390  176.6250  138.3710 C   0  0  0  0  0  0  0  0  0  0  0  0
  189.8350  174.5580  137.2100 C   0  0  0  0  0  3  0  0  0  0  0  0
  191.7070  176.3670  138.2320 C   0  0  0  0  0  3  0  0  0  0  0  0
  191.2020  174.2990  137.0790 C   0  0  0  0  0  3  0  0  0  0  0  0
  192.1380  175.2030  137.5900 C   0  0  0  0  0  3  0  0  0  0  0  0
  189.4020  175.7210  137.8540 C   0  0  0  0  0  3  0  0  0  0  0  0
  1  5  1  0  0  0  0
  2 12  1  0  0  0  0
  3  8  2  0  0  0  0
  3 10  1  0  0  0  0
  4 20  1  1  0  0  0
  5  9  2  0  0  0  0
  5  4  1  0  0  0  0
  7  2  1  0  0  0  0
  7  1  2  0  0  0  0
  8  7  1  0  0  0  0
 10 13  2  0  0  0  0
 11  4  1  0  0  0  0
 11 15  1  1  0  0  0
 12  6  2  0  0  0  0
 12 11  1  0  0  0  0
 13  1  1  0  0  0  0
 13 14  1  0  0  0  0
 14  9  1  0  0  0  0
 16 19  1  0  0  0  0
 19 15  1  0  0  0  0
 19 18  1  0  0  0  0
 19 17  1  0  0  0  0
 20 21  1  0  0  0  0
 21 22  1  0  0  0  0
 23  3  1  0  0  0  0
 24 23  1  0  0  0  0
 25 29  1  0  0  0  0
 26 24  1  0  0  0  0
 27 25  2  0  0  0  0
 27 28  1  0  0  0  0
 28 26  2  0  0  0  0
 29 24  2  0  0  0  0
M  END
>  <MODEL>
9

>  <REMARK>
 VINA RESULT:      -8.2      4.489      8.189
  Name = 
  6 active torsions:
  status: ('A' for Active; 'I' for Inactive)
    1  A    between atoms: C_1  and  C_26
    2  A    between atoms: C_5  and  C_26
    3  A    between atoms: C_6  and  N_25
    4  A    between atoms: C_15  and  C_21
    5  A    between atoms: C_20  and  C_21
    6  A    between atoms: N_22  and  N_25
                            x       y       z     vdW  Elec       q    Type
                         _______ _______ _______ _____ _____    ______ ____

>  <TORSDO>
F 6

$$$$
