=
 OpenBabel11062413593D

 53 60  0  0  1  0  0  0  0  0999 V2000
  189.3470  176.2400  139.1000 O   0  0  0  0  0  0  0  0  0  0  0  0
  187.4110  177.7990  138.3530 C   0  0  1  0  0  3  0  0  0  0  0  0
  190.1880  176.5850  138.0240 C   0  0  0  0  0  2  0  0  0  0  0  0
  188.2600  178.0910  137.0880 C   0  0  2  0  0  3  0  0  0  0  0  0
  189.7710  177.8670  137.2710 C   0  0  0  0  0  2  0  0  0  0  0  0
  189.2830  177.3350  139.9810 C   0  0  2  0  0  3  0  0  0  0  0  0
  187.9800  177.2690  140.7620 C   0  0  2  0  0  3  0  0  0  0  0  0
  188.1050  178.2710  139.6390 C   0  0  2  0  0  3  0  0  0  0  0  0
  185.0150  177.5940  137.2870 C   0  0  1  0  0  3  0  0  0  0  0  0
  184.9970  177.3280  138.7870 C   0  0  0  0  0  2  0  0  0  0  0  0
  185.9890  178.3360  138.2270 C   0  0  1  0  0  3  0  0  0  0  0  0
  185.8880  174.7520  137.2170 S   0  0  0  0  0  0  0  0  0  0  0  0
  185.3920  176.3320  136.4520 C   0  0  0  0  0  0  0  0  0  0  0  0
  184.2750  176.0460  135.0360 S   0  0  0  0  0  0  0  0  0  0  0  0
  181.8560  175.2680  136.0990 C   0  0  2  0  0  3  0  0  0  0  0  0
  182.3970  172.4250  135.7780 C   0  0  2  0  0  3  0  0  0  0  0  0
  183.2370  173.4790  135.0480 C   0  0  0  0  0  2  0  0  0  0  0  0
  180.8630  174.2520  136.2410 O   0  0  0  0  0  0  0  0  0  0  0  0
  181.6690  171.6890  134.8420 O   0  0  0  0  0  1  0  0  0  0  0  0
  181.4350  173.0790  136.7840 C   0  0  0  0  0  2  0  0  0  0  0  0
  183.2910  174.7600  135.8650 C   0  0  1  0  0  3  0  0  0  0  0  0
  181.8000  176.2590  137.2560 C   0  0  0  0  0  2  0  0  0  0  0  0
  181.4110  177.5750  136.7720 N   0  0  0  0  0  2  0  0  0  0  0  0
  180.5720  178.1960  137.7900 C   0  0  0  0  0  2  0  0  0  0  0  0
  181.6850  178.5650  139.8960 O   0  0  0  0  0  0  0  0  0  0  0  0
  179.6350  177.3710  139.9330 C   0  0  1  0  0  3  0  0  0  0  0  0
  180.5950  178.4840  142.0160 C   0  0  0  0  0  2  0  0  0  0  0  0
  179.5220  178.5030  140.9310 C   0  0  1  0  0  3  0  0  0  0  0  0
  180.9140  177.6390  139.1720 C   0  0  1  0  0  3  0  0  0  0  0  0
  180.8110  179.2760  140.7420 C   0  0  2  0  0  3  0  0  0  0  0  0
  179.6820  176.0150  140.6190 C   0  0  0  0  0  2  0  0  0  0  0  0
  179.3910  175.0000  139.7100 O   0  0  0  0  0  1  0  0  0  0  0  0
  189.0450  180.0960  137.2280 O   0  0  0  0  0  1  0  0  0  0  0  0
  188.0640  179.4150  136.6770 O   0  0  0  0  0  0  0  0  0  0  0  0
  188.1430  178.0260  142.0750 C   0  0  0  0  0  2  0  0  0  0  0  0
  188.2530  176.8740  145.7910 C   0  0  0  0  0  2  0  0  0  0  0  0
  191.6700  176.0670  145.3340 C   0  0  2  0  0  3  0  0  0  0  0  0
  189.9510  179.3930  145.1970 F   0  0  0  0  0  0  0  0  0  0  0  0
  187.8760  177.7340  144.5850 C   0  0  1  0  0  3  0  0  0  0  0  0
  188.2790  177.0720  143.2650 C   0  0  2  0  0  3  0  0  0  0  0  0
  190.5020  178.2490  145.7460 C   0  0  2  0  0  3  0  0  0  0  0  0
  190.2720  176.2660  147.0140 O   0  0  0  0  0  0  0  0  0  0  0  0
  186.3960  178.0850  144.6110 C   0  0  0  0  0  1  0  0  0  0  0  0
  189.5270  176.4000  143.3510 O   0  0  0  0  0  0  0  0  0  0  0  0
  190.5520  175.4980  145.9620 O   0  0  0  0  0  0  0  0  0  0  0  0
  191.2860  177.4300  144.7200 C   0  0  2  0  0  3  0  0  0  0  0  0
  189.5040  177.3720  146.5690 C   0  0  2  0  0  0  0  0  0  0  0  0
  190.5690  177.3510  143.3670 C   0  0  0  0  0  2  0  0  0  0  0  0
  189.0290  178.1400  147.7910 C   0  0  0  0  0  0  0  0  0  0  0  0
  187.5680  178.2450  148.1000 C   0  0  0  0  0  1  0  0  0  0  0  0
  189.8730  178.3740  148.8030 C   0  0  0  0  0  2  0  0  0  0  0  0
  192.6150  174.0500  144.9710 O   0  0  0  0  0  1  0  0  0  0  0  0
  192.1950  175.1630  144.3230 N   0  0  0  0  0  2  0  0  0  0  0  0
  2 11  1  6  0  0  0
  2  8  1  0  0  0  0
  3  1  1  0  0  0  0
  4 34  1  1  0  0  0
  4  5  1  0  0  0  0
  4  2  1  0  0  0  0
  5  3  1  0  0  0  0
  6  1  1  6  0  0  0
  6  7  1  0  0  0  0
  7 35  1  1  0  0  0
  8  6  1  0  0  0  0
  8  7  1  0  0  0  0
  9 11  1  0  0  0  0
  9 10  1  0  0  0  0
 11 10  1  0  0  0  0
 13 12  2  0  0  0  0
 13  9  1  0  0  0  0
 14 21  1  0  0  0  0
 14 13  1  0  0  0  0
 15 18  1  0  0  0  0
 15 22  1  0  0  0  0
 16 20  1  0  0  0  0
 17 16  1  0  0  0  0
 17 21  1  0  0  0  0
 18 20  1  0  0  0  0
 19 16  1  0  0  0  0
 21 15  1  0  0  0  0
 23 22  1  0  0  0  0
 23 24  1  0  0  0  0
 24 29  1  0  0  0  0
 25 30  1  0  0  0  0
 26 31  1  0  0  0  0
 26 28  1  0  0  0  0
 28 27  1  0  0  0  0
 29 25  1  0  0  0  0
 29 26  1  0  0  0  0
 30 28  1  0  0  0  0
 30 27  1  0  0  0  0
 32 31  1  0  0  0  0
 34 33  1  0  0  0  0
 35 40  1  0  0  0  0
 36 47  1  0  0  0  0
 37 45  1  0  0  0  0
 38 41  1  0  0  0  0
 39 43  1  0  0  0  0
 39 36  1  0  0  0  0
 40 44  1  0  0  0  0
 40 39  1  0  0  0  0
 41 47  1  0  0  0  0
 44 48  1  0  0  0  0
 45 42  1  0  0  0  0
 46 37  1  0  0  0  0
 46 41  1  0  0  0  0
 47 42  1  0  0  0  0
 47 49  1  0  0  0  0
 48 46  1  0  0  0  0
 49 50  1  0  0  0  0
 49 51  2  0  0  0  0
 53 52  1  0  0  0  0
 53 37  1  0  0  0  0
M  END
>  <MODEL>
1

>  <REMARK>
 VINA RESULT:      -5.9      0.000      0.000
  Name = 
  14 active torsions:
  status: ('A' for Active; 'I' for Inactive)
    1  A    between atoms: C_2  and  C_49
    2  A    between atoms: C_5  and  C_21
    3  A    between atoms: C_5  and  S_40
    4  A    between atoms: C_6  and  C_8
    5  A    between atoms: C_7  and  C_45
    6  A    between atoms: C_11  and  N_37
    7  A    between atoms: C_13  and  C_48
    8  A    between atoms: O_14  and  C_22
    9  A    between atoms: N_19  and  C_28
   10  A    between atoms: N_19  and  C_49
   11  A    between atoms: C_23  and  C_31
   12  A    between atoms: C_28  and  C_41
   13  A    between atoms: C_31  and  C_42
   14  A    between atoms: S_40  and  C_47
                            x       y       z     vdW  Elec       q    Type
                         _______ _______ _______ _____ _____    ______ ____

>  <TORSDO>
F 14

$$$$
=
 OpenBabel11062413593D

 53 60  0  0  1  0  0  0  0  0999 V2000
  184.4980  179.6470  139.1960 O   0  0  0  0  0  0  0  0  0  0  0  0
  182.4850  178.0220  139.4000 C   0  0  1  0  0  3  0  0  0  0  0  0
  183.7180  180.7340  138.7560 C   0  0  0  0  0  2  0  0  0  0  0  0
  181.6260  179.1590  138.7880 C   0  0  2  0  0  3  0  0  0  0  0  0
  182.2010  180.5720  138.9910 C   0  0  0  0  0  2  0  0  0  0  0  0
  184.2280  179.4320  140.5600 C   0  0  2  0  0  3  0  0  0  0  0  0
  184.5230  177.9800  140.9020 C   0  0  2  0  0  3  0  0  0  0  0  0
  183.0840  178.4160  140.7580 C   0  0  2  0  0  3  0  0  0  0  0  0
  181.7890  175.7750  138.2230 C   0  0  1  0  0  3  0  0  0  0  0  0
  182.7070  175.5350  139.4160 C   0  0  0  0  0  2  0  0  0  0  0  0
  181.7290  176.6990  139.4580 C   0  0  1  0  0  3  0  0  0  0  0  0
  182.1700  177.5470  135.8650 S   0  0  0  0  0  0  0  0  0  0  0  0
  182.5700  176.1110  136.9150 C   0  0  0  0  0  0  0  0  0  0  0  0
  184.3770  175.9140  137.0870 S   0  0  0  0  0  0  0  0  0  0  0  0
  184.8430  173.2000  137.1520 C   0  0  2  0  0  3  0  0  0  0  0  0
  183.2300  172.6600  134.7890 C   0  0  2  0  0  3  0  0  0  0  0  0
  183.1240  173.9950  135.5320 C   0  0  0  0  0  2  0  0  0  0  0  0
  184.4450  171.8900  136.7480 O   0  0  0  0  0  0  0  0  0  0  0  0
  182.0280  171.9630  134.9230 O   0  0  0  0  0  1  0  0  0  0  0  0
  184.3860  171.8080  135.3380 C   0  0  0  0  0  2  0  0  0  0  0  0
  184.4540  174.3350  136.1870 C   0  0  1  0  0  3  0  0  0  0  0  0
  186.3290  173.2450  137.4890 C   0  0  0  0  0  2  0  0  0  0  0  0
  187.0900  173.7320  136.3480 N   0  0  0  0  0  2  0  0  0  0  0  0
  188.5060  173.6400  136.6810 C   0  0  0  0  0  2  0  0  0  0  0  0
  188.3080  175.9130  135.9050 O   0  0  0  0  0  0  0  0  0  0  0  0
  190.0560  175.4240  137.4330 C   0  0  1  0  0  3  0  0  0  0  0  0
  189.2150  177.7990  137.0490 C   0  0  0  0  0  2  0  0  0  0  0  0
  189.2790  176.5980  137.9880 C   0  0  1  0  0  3  0  0  0  0  0  0
  189.2340  174.9200  136.2690 C   0  0  1  0  0  3  0  0  0  0  0  0
  188.1220  176.7500  137.0230 C   0  0  2  0  0  3  0  0  0  0  0  0
  191.4500  175.8300  136.9820 C   0  0  0  0  0  2  0  0  0  0  0  0
  191.5180  175.8690  135.5910 O   0  0  0  0  0  1  0  0  0  0  0  0
  180.2210  180.2610  139.9980 O   0  0  0  0  0  1  0  0  0  0  0  0
  180.3370  179.1320  139.3350 O   0  0  0  0  0  0  0  0  0  0  0  0
  184.8240  177.8660  142.3920 C   0  0  0  0  0  2  0  0  0  0  0  0
  188.6670  178.4690  142.5300 C   0  0  0  0  0  2  0  0  0  0  0  0
  188.5300  177.8870  146.0200 C   0  0  2  0  0  3  0  0  0  0  0  0
  187.8180  175.5620  143.1700 F   0  0  0  0  0  0  0  0  0  0  0  0
  187.3300  177.9670  141.9840 C   0  0  1  0  0  3  0  0  0  0  0  0
  186.1440  178.5520  142.7560 C   0  0  2  0  0  3  0  0  0  0  0  0
  188.5560  176.3230  144.0580 C   0  0  2  0  0  3  0  0  0  0  0  0
  190.0790  178.0830  144.4780 O   0  0  0  0  0  0  0  0  0  0  0  0
  187.2190  178.2370  140.4910 C   0  0  0  0  0  1  0  0  0  0  0  0
  186.3980  178.6550  144.1490 O   0  0  0  0  0  0  0  0  0  0  0  0
  189.1670  178.7840  145.1490 O   0  0  0  0  0  0  0  0  0  0  0  0
  187.7050  176.8660  145.2060 C   0  0  2  0  0  3  0  0  0  0  0  0
  189.4370  177.4320  143.3950 C   0  0  2  0  0  0  0  0  0  0  0  0
  186.3380  177.3710  144.7300 C   0  0  0  0  0  2  0  0  0  0  0  0
  190.5060  176.7900  142.5270 C   0  0  0  0  0  0  0  0  0  0  0  0
  190.7690  177.3020  141.1450 C   0  0  0  0  0  1  0  0  0  0  0  0
  191.4790  176.0650  143.0920 C   0  0  0  0  0  2  0  0  0  0  0  0
  187.7940  177.9690  148.1520 O   0  0  0  0  0  1  0  0  0  0  0  0
  187.6910  178.6100  146.9630 N   0  0  0  0  0  2  0  0  0  0  0  0
  2 11  1  1  0  0  0
  2  8  1  0  0  0  0
  3  5  1  0  0  0  0
  3  1  1  0  0  0  0
  4  5  1  0  0  0  0
  4 34  1  1  0  0  0
  4  2  1  0  0  0  0
  6  1  1  6  0  0  0
  6  8  1  0  0  0  0
  6  7  1  0  0  0  0
  7 35  1  1  0  0  0
  8  7  1  0  0  0  0
  9 10  1  0  0  0  0
  9 11  1  0  0  0  0
 10 11  1  0  0  0  0
 12 13  2  0  0  0  0
 13 14  1  0  0  0  0
 13  9  1  0  0  0  0
 15 22  1  0  0  0  0
 16 19  1  0  0  0  0
 16 20  1  0  0  0  0
 16 17  1  0  0  0  0
 17 21  1  0  0  0  0
 18 15  1  0  0  0  0
 20 18  1  0  0  0  0
 21 14  1  0  0  0  0
 21 15  1  0  0  0  0
 23 24  1  0  0  0  0
 23 22  1  0  0  0  0
 25 29  1  0  0  0  0
 25 30  1  0  0  0  0
 26 28  1  0  0  0  0
 27 28  1  0  0  0  0
 29 24  1  0  0  0  0
 29 26  1  0  0  0  0
 30 27  1  0  0  0  0
 30 28  1  0  0  0  0
 31 26  1  0  0  0  0
 32 31  1  0  0  0  0
 34 33  1  0  0  0  0
 35 40  1  0  0  0  0
 36 47  1  0  0  0  0
 37 53  1  0  0  0  0
 38 41  1  0  0  0  0
 39 36  1  0  0  0  0
 39 40  1  0  0  0  0
 40 44  1  0  0  0  0
 41 46  1  0  0  0  0
 42 45  1  0  0  0  0
 43 39  1  0  0  0  0
 44 48  1  0  0  0  0
 45 37  1  0  0  0  0
 46 37  1  0  0  0  0
 47 41  1  0  0  0  0
 47 42  1  0  0  0  0
 48 46  1  0  0  0  0
 49 51  2  0  0  0  0
 49 47  1  0  0  0  0
 50 49  1  0  0  0  0
 53 52  1  0  0  0  0
M  END
>  <MODEL>
2

>  <REMARK>
 VINA RESULT:      -5.7      2.612      6.178
  Name = 
  14 active torsions:
  status: ('A' for Active; 'I' for Inactive)
    1  A    between atoms: C_2  and  C_49
    2  A    between atoms: C_5  and  C_21
    3  A    between atoms: C_5  and  S_40
    4  A    between atoms: C_6  and  C_8
    5  A    between atoms: C_7  and  C_45
    6  A    between atoms: C_11  and  N_37
    7  A    between atoms: C_13  and  C_48
    8  A    between atoms: O_14  and  C_22
    9  A    between atoms: N_19  and  C_28
   10  A    between atoms: N_19  and  C_49
   11  A    between atoms: C_23  and  C_31
   12  A    between atoms: C_28  and  C_41
   13  A    between atoms: C_31  and  C_42
   14  A    between atoms: S_40  and  C_47
                            x       y       z     vdW  Elec       q    Type
                         _______ _______ _______ _____ _____    ______ ____

>  <TORSDO>
F 14

$$$$
=
 OpenBabel11062413593D

 53 60  0  0  1  0  0  0  0  0999 V2000
  184.2860  176.8760  138.0980 O   0  0  0  0  0  0  0  0  0  0  0  0
  186.0260  176.6930  136.1810 C   0  0  1  0  0  3  0  0  0  0  0  0
  184.9660  177.9140  138.7650 C   0  0  0  0  0  2  0  0  0  0  0  0
  186.8620  177.7370  136.9660 C   0  0  2  0  0  3  0  0  0  0  0  0
  186.0400  178.6270  137.9150 C   0  0  0  0  0  2  0  0  0  0  0  0
  183.7200  177.4030  136.9220 C   0  0  2  0  0  3  0  0  0  0  0  0
  183.5420  176.2810  135.9110 C   0  0  2  0  0  3  0  0  0  0  0  0
  184.6750  177.2610  135.7190 C   0  0  2  0  0  3  0  0  0  0  0  0
  187.5130  174.7140  135.2920 C   0  0  1  0  0  3  0  0  0  0  0  0
  186.1590  174.7700  134.5940 C   0  0  0  0  0  2  0  0  0  0  0  0
  186.8170  176.0680  135.0360 C   0  0  1  0  0  3  0  0  0  0  0  0
  185.9600  173.1120  137.2600 S   0  0  0  0  0  0  0  0  0  0  0  0
  187.4630  173.9450  136.6490 C   0  0  0  0  0  0  0  0  0  0  0  0
  188.9430  172.9170  136.9460 S   0  0  0  0  0  0  0  0  0  0  0  0
  190.7760  174.8850  137.5390 C   0  0  2  0  0  3  0  0  0  0  0  0
  192.1930  174.6130  135.0100 C   0  0  2  0  0  3  0  0  0  0  0  0
  191.2170  173.5340  135.4910 C   0  0  0  0  0  2  0  0  0  0  0  0
  192.0480  175.4780  137.2760 O   0  0  0  0  0  0  0  0  0  0  0  0
  193.4870  174.0900  135.0010 O   0  0  0  0  0  1  0  0  0  0  0  0
  192.1420  175.8540  135.9170 C   0  0  0  0  0  2  0  0  0  0  0  0
  190.1260  174.1610  136.3460 C   0  0  1  0  0  3  0  0  0  0  0  0
  189.8170  175.8900  138.1670 C   0  0  0  0  0  2  0  0  0  0  0  0
  190.3420  176.3570  139.4420 N   0  0  0  0  0  2  0  0  0  0  0  0
  189.2610  177.0310  140.1510 C   0  0  0  0  0  2  0  0  0  0  0  0
  188.7710  178.3280  142.1230 O   0  0  0  0  0  0  0  0  0  0  0  0
  189.9670  176.2990  142.4120 C   0  0  1  0  0  3  0  0  0  0  0  0
  188.7360  177.4360  144.3340 C   0  0  0  0  0  2  0  0  0  0  0  0
  188.7810  176.2690  143.3520 C   0  0  1  0  0  3  0  0  0  0  0  0
  189.7380  177.5010  141.5250 C   0  0  1  0  0  3  0  0  0  0  0  0
  188.0160  177.5290  143.0040 C   0  0  2  0  0  3  0  0  0  0  0  0
  191.2820  176.4190  143.1660 C   0  0  0  0  0  2  0  0  0  0  0  0
  191.8710  177.6580  142.9210 O   0  0  0  0  0  1  0  0  0  0  0  0
  188.6390  178.9330  136.7090 O   0  0  0  0  0  1  0  0  0  0  0  0
  187.5470  178.5700  136.0730 O   0  0  0  0  0  0  0  0  0  0  0  0
  182.4370  176.6580  134.9320 C   0  0  0  0  0  2  0  0  0  0  0  0
  179.3980  175.2590  136.9220 C   0  0  0  0  0  2  0  0  0  0  0  0
  180.7810  172.0200  136.5590 C   0  0  2  0  0  3  0  0  0  0  0  0
  182.1060  175.0020  138.4000 F   0  0  0  0  0  0  0  0  0  0  0  0
  180.5230  176.2240  136.5470 C   0  0  1  0  0  3  0  0  0  0  0  0
  181.1530  175.8670  135.1970 C   0  0  2  0  0  3  0  0  0  0  0  0
  181.3090  173.9030  138.1300 C   0  0  2  0  0  3  0  0  0  0  0  0
  179.1770  172.9670  137.7190 O   0  0  0  0  0  0  0  0  0  0  0  0
  180.0360  177.6640  136.5780 C   0  0  0  0  0  1  0  0  0  0  0  0
  181.2650  174.4650  135.0020 O   0  0  0  0  0  0  0  0  0  0  0  0
  179.5120  172.6130  136.4800 O   0  0  0  0  0  0  0  0  0  0  0  0
  181.8310  173.0830  136.9500 C   0  0  2  0  0  3  0  0  0  0  0  0
  179.7830  174.2160  138.0090 C   0  0  2  0  0  0  0  0  0  0  0  0
  182.3190  173.9660  135.7960 C   0  0  0  0  0  2  0  0  0  0  0  0
  179.2490  174.7030  139.3450 C   0  0  0  0  0  0  0  0  0  0  0  0
  179.4420  173.8850  140.5840 C   0  0  0  0  0  1  0  0  0  0  0  0
  178.9770  176.0020  139.5230 C   0  0  0  0  0  2  0  0  0  0  0  0
  181.8480  170.2810  135.5930 O   0  0  0  0  0  1  0  0  0  0  0  0
  181.1200  171.3850  135.2950 N   0  0  0  0  0  2  0  0  0  0  0  0
  1  3  1  0  0  0  0
  2 11  1  6  0  0  0
  2  4  1  0  0  0  0
  4 34  1  6  0  0  0
  4  5  1  0  0  0  0
  5  3  1  0  0  0  0
  6  1  1  1  0  0  0
  7 35  1  6  0  0  0
  7  6  1  0  0  0  0
  8  7  1  0  0  0  0
  8  2  1  0  0  0  0
  8  6  1  0  0  0  0
  9 13  1  0  0  0  0
 10 11  1  0  0  0  0
 10  9  1  0  0  0  0
 11  9  1  0  0  0  0
 13 14  1  0  0  0  0
 13 12  2  0  0  0  0
 15 22  1  0  0  0  0
 16 17  1  0  0  0  0
 16 20  1  0  0  0  0
 17 21  1  0  0  0  0
 18 15  1  0  0  0  0
 19 16  1  0  0  0  0
 20 18  1  0  0  0  0
 21 14  1  0  0  0  0
 21 15  1  0  0  0  0
 22 23  1  0  0  0  0
 23 24  1  0  0  0  0
 24 29  1  0  0  0  0
 25 30  1  0  0  0  0
 26 31  1  0  0  0  0
 26 28  1  0  0  0  0
 28 27  1  0  0  0  0
 29 25  1  0  0  0  0
 29 26  1  0  0  0  0
 30 28  1  0  0  0  0
 30 27  1  0  0  0  0
 32 31  1  0  0  0  0
 34 33  1  0  0  0  0
 35 40  1  0  0  0  0
 36 47  1  0  0  0  0
 37 46  1  0  0  0  0
 39 43  1  0  0  0  0
 39 36  1  0  0  0  0
 40 39  1  0  0  0  0
 41 38  1  0  0  0  0
 42 47  1  0  0  0  0
 44 40  1  0  0  0  0
 44 48  1  0  0  0  0
 45 37  1  0  0  0  0
 45 42  1  0  0  0  0
 46 41  1  0  0  0  0
 47 41  1  0  0  0  0
 47 49  1  0  0  0  0
 48 46  1  0  0  0  0
 49 51  2  0  0  0  0
 49 50  1  0  0  0  0
 53 52  1  0  0  0  0
 53 37  1  0  0  0  0
M  END
>  <MODEL>
3

>  <REMARK>
 VINA RESULT:      -5.6      2.998      9.857
  Name = 
  14 active torsions:
  status: ('A' for Active; 'I' for Inactive)
    1  A    between atoms: C_2  and  C_49
    2  A    between atoms: C_5  and  C_21
    3  A    between atoms: C_5  and  S_40
    4  A    between atoms: C_6  and  C_8
    5  A    between atoms: C_7  and  C_45
    6  A    between atoms: C_11  and  N_37
    7  A    between atoms: C_13  and  C_48
    8  A    between atoms: O_14  and  C_22
    9  A    between atoms: N_19  and  C_28
   10  A    between atoms: N_19  and  C_49
   11  A    between atoms: C_23  and  C_31
   12  A    between atoms: C_28  and  C_41
   13  A    between atoms: C_31  and  C_42
   14  A    between atoms: S_40  and  C_47
                            x       y       z     vdW  Elec       q    Type
                         _______ _______ _______ _____ _____    ______ ____

>  <TORSDO>
F 14

$$$$
=
 OpenBabel11062413593D

 53 60  0  0  1  0  0  0  0  0999 V2000
  180.0700  176.6660  139.6730 O   0  0  0  0  0  0  0  0  0  0  0  0
  181.1870  178.9430  139.1230 C   0  0  1  0  0  3  0  0  0  0  0  0
  179.1490  177.2130  140.5880 C   0  0  0  0  0  2  0  0  0  0  0  0
  180.2780  179.5480  140.2240 C   0  0  2  0  0  3  0  0  0  0  0  0
  178.9940  178.7470  140.5010 C   0  0  0  0  0  2  0  0  0  0  0  0
  179.6890  177.0540  138.3750 C   0  0  2  0  0  3  0  0  0  0  0  0
  180.9130  177.0410  137.4740 C   0  0  2  0  0  3  0  0  0  0  0  0
  180.3750  178.3690  137.9520 C   0  0  2  0  0  3  0  0  0  0  0  0
  183.6400  179.8630  139.3560 C   0  0  1  0  0  3  0  0  0  0  0  0
  183.4150  179.1690  138.0180 C   0  0  0  0  0  2  0  0  0  0  0  0
  182.2620  179.9220  138.6630 C   0  0  1  0  0  3  0  0  0  0  0  0
  183.4520  177.1310  140.5150 S   0  0  0  0  0  0  0  0  0  0  0  0
  184.0040  178.8690  140.5020 C   0  0  0  0  0  0  0  0  0  0  0  0
  185.7420  179.0040  141.0450 S   0  0  0  0  0  0  0  0  0  0  0  0
  186.7500  178.3240  143.5170 C   0  0  2  0  0  3  0  0  0  0  0  0
  184.1460  178.3680  144.8180 C   0  0  2  0  0  3  0  0  0  0  0  0
  184.3550  179.0080  143.4420 C   0  0  0  0  0  2  0  0  0  0  0  0
  186.5720  178.2900  144.9320 O   0  0  0  0  0  0  0  0  0  0  0  0
  183.8620  179.3670  145.7510 O   0  0  0  0  0  1  0  0  0  0  0  0
  185.3930  177.5850  145.2620 C   0  0  0  0  0  2  0  0  0  0  0  0
  185.4540  178.2770  142.6870 C   0  0  1  0  0  3  0  0  0  0  0  0
  187.7400  177.2590  143.0590 C   0  0  0  0  0  2  0  0  0  0  0  0
  188.9700  177.8820  142.5920 N   0  0  0  0  0  2  0  0  0  0  0  0
  189.7900  178.1830  143.7600 C   0  0  0  0  0  2  0  0  0  0  0  0
  190.7940  176.1160  144.4870 O   0  0  0  0  0  0  0  0  0  0  0  0
  189.9130  177.5550  146.1550 C   0  0  1  0  0  3  0  0  0  0  0  0
  191.6120  175.7320  146.6950 C   0  0  0  0  0  2  0  0  0  0  0  0
  191.3390  177.2260  146.5420 C   0  0  1  0  0  3  0  0  0  0  0  0
  189.7500  177.0200  144.7510 C   0  0  1  0  0  3  0  0  0  0  0  0
  191.8520  176.4210  145.3660 C   0  0  2  0  0  3  0  0  0  0  0  0
  188.9090  176.9190  147.1030 C   0  0  0  0  0  2  0  0  0  0  0  0
  188.2550  177.8990  147.8480 O   0  0  0  0  0  1  0  0  0  0  0  0
  178.9360  181.1680  140.7000 O   0  0  0  0  0  1  0  0  0  0  0  0
  179.9090  180.8530  139.8750 O   0  0  0  0  0  0  0  0  0  0  0  0
  180.4690  176.8590  136.0270 C   0  0  0  0  0  2  0  0  0  0  0  0
  182.6990  173.8490  134.9700 C   0  0  0  0  0  2  0  0  0  0  0  0
  185.5380  175.7810  135.8350 C   0  0  2  0  0  3  0  0  0  0  0  0
  182.7730  174.4760  138.0000 F   0  0  0  0  0  0  0  0  0  0  0  0
  181.5080  174.5820  135.5880 C   0  0  1  0  0  3  0  0  0  0  0  0
  181.4980  176.0670  135.2150 C   0  0  2  0  0  3  0  0  0  0  0  0
  183.9190  174.4610  137.2260 C   0  0  2  0  0  3  0  0  0  0  0  0
  185.1040  173.6890  135.3300 O   0  0  0  0  0  0  0  0  0  0  0  0
  180.2000  173.8990  135.2180 C   0  0  0  0  0  1  0  0  0  0  0  0
  182.8010  176.6320  135.1910 O   0  0  0  0  0  0  0  0  0  0  0  0
  185.1600  174.9100  134.8010 O   0  0  0  0  0  0  0  0  0  0  0  0
  184.4070  175.8690  136.8830 C   0  0  2  0  0  3  0  0  0  0  0  0
  183.8480  173.5340  135.9690 C   0  0  2  0  0  0  0  0  0  0  0  0
  183.2560  176.8110  136.5140 C   0  0  0  0  0  2  0  0  0  0  0  0
  183.7140  172.0850  136.4060 C   0  0  0  0  0  0  0  0  0  0  0  0
  182.4660  171.6080  137.0810 C   0  0  0  0  0  1  0  0  0  0  0  0
  184.4890  171.1450  135.8510 C   0  0  0  0  0  2  0  0  0  0  0  0
  186.4840  177.7790  136.2840 O   0  0  0  0  0  1  0  0  0  0  0  0
  185.8620  177.0920  135.2970 N   0  0  0  0  0  2  0  0  0  0  0  0
  1  3  1  0  0  0  0
  2 11  1  6  0  0  0
  2  4  1  0  0  0  0
  4 34  1  6  0  0  0
  4  5  1  0  0  0  0
  5  3  1  0  0  0  0
  6  1  1  1  0  0  0
  7 35  1  6  0  0  0
  7  8  1  0  0  0  0
  7  6  1  0  0  0  0
  8  6  1  0  0  0  0
  8  2  1  0  0  0  0
  9 13  1  0  0  0  0
 10 11  1  0  0  0  0
 10  9  1  0  0  0  0
 11  9  1  0  0  0  0
 13 12  2  0  0  0  0
 13 14  1  0  0  0  0
 14 21  1  0  0  0  0
 15 18  1  0  0  0  0
 16 20  1  0  0  0  0
 16 19  1  0  0  0  0
 17 16  1  0  0  0  0
 18 20  1  0  0  0  0
 21 17  1  0  0  0  0
 21 15  1  0  0  0  0
 22 15  1  0  0  0  0
 23 22  1  0  0  0  0
 23 24  1  0  0  0  0
 24 29  1  0  0  0  0
 25 29  1  0  0  0  0
 25 30  1  0  0  0  0
 26 28  1  0  0  0  0
 26 31  1  0  0  0  0
 28 27  1  0  0  0  0
 29 26  1  0  0  0  0
 30 28  1  0  0  0  0
 30 27  1  0  0  0  0
 31 32  1  0  0  0  0
 34 33  1  0  0  0  0
 36 39  1  0  0  0  0
 36 47  1  0  0  0  0
 37 46  1  0  0  0  0
 40 39  1  0  0  0  0
 40 35  1  0  0  0  0
 41 38  1  0  0  0  0
 42 47  1  0  0  0  0
 43 39  1  0  0  0  0
 44 40  1  0  0  0  0
 44 48  1  0  0  0  0
 45 42  1  0  0  0  0
 45 37  1  0  0  0  0
 46 41  1  0  0  0  0
 47 49  1  0  0  0  0
 47 41  1  0  0  0  0
 48 46  1  0  0  0  0
 49 50  1  0  0  0  0
 51 49  2  0  0  0  0
 53 37  1  0  0  0  0
 53 52  1  0  0  0  0
M  END
>  <MODEL>
4

>  <REMARK>
 VINA RESULT:      -5.2      3.042     10.562
  Name = 
  14 active torsions:
  status: ('A' for Active; 'I' for Inactive)
    1  A    between atoms: C_2  and  C_49
    2  A    between atoms: C_5  and  C_21
    3  A    between atoms: C_5  and  S_40
    4  A    between atoms: C_6  and  C_8
    5  A    between atoms: C_7  and  C_45
    6  A    between atoms: C_11  and  N_37
    7  A    between atoms: C_13  and  C_48
    8  A    between atoms: O_14  and  C_22
    9  A    between atoms: N_19  and  C_28
   10  A    between atoms: N_19  and  C_49
   11  A    between atoms: C_23  and  C_31
   12  A    between atoms: C_28  and  C_41
   13  A    between atoms: C_31  and  C_42
   14  A    between atoms: S_40  and  C_47
                            x       y       z     vdW  Elec       q    Type
                         _______ _______ _______ _____ _____    ______ ____

>  <TORSDO>
F 14

$$$$
=
 OpenBabel11062413593D

 53 60  0  0  1  0  0  0  0  0999 V2000
  183.3170  175.9490  138.7360 O   0  0  0  0  0  0  0  0  0  0  0  0
  184.8140  177.7900  137.6810 C   0  0  1  0  0  3  0  0  0  0  0  0
  182.9620  176.7260  139.8560 C   0  0  0  0  0  2  0  0  0  0  0  0
  184.5490  178.6120  138.9700 C   0  0  2  0  0  3  0  0  0  0  0  0
  183.2530  178.2350  139.7100 C   0  0  0  0  0  2  0  0  0  0  0  0
  182.6600  176.4740  137.6080 C   0  0  2  0  0  3  0  0  0  0  0  0
  183.4520  176.1130  136.3600 C   0  0  2  0  0  3  0  0  0  0  0  0
  183.5260  177.5270  136.8860 C   0  0  2  0  0  3  0  0  0  0  0  0
  187.3770  178.2210  137.2800 C   0  0  1  0  0  3  0  0  0  0  0  0
  186.7770  177.3110  136.2150 C   0  0  0  0  0  2  0  0  0  0  0  0
  185.9140  178.4050  136.8230 C   0  0  1  0  0  3  0  0  0  0  0  0
  188.6590  175.8390  138.5170 S   0  0  0  0  0  0  0  0  0  0  0  0
  187.8030  177.4490  138.5670 C   0  0  0  0  0  0  0  0  0  0  0  0
  188.5280  178.5310  139.8460 S   0  0  0  0  0  0  0  0  0  0  0  0
  188.2530  177.6750  142.4500 C   0  0  2  0  0  3  0  0  0  0  0  0
  185.4590  178.4720  142.6320 C   0  0  2  0  0  3  0  0  0  0  0  0
  186.3580  178.9890  141.5040 C   0  0  0  0  0  2  0  0  0  0  0  0
  187.5250  177.7340  143.6760 O   0  0  0  0  0  0  0  0  0  0  0  0
  185.1020  179.5390  143.4600 O   0  0  0  0  0  1  0  0  0  0  0  0
  186.1710  177.3900  143.4610 C   0  0  0  0  0  2  0  0  0  0  0  0
  187.4310  177.9610  141.1800 C   0  0  1  0  0  3  0  0  0  0  0  0
  189.0230  176.3640  142.3280 C   0  0  0  0  0  2  0  0  0  0  0  0
  189.7450  176.0890  143.5620 N   0  0  0  0  0  2  0  0  0  0  0  0
  190.8780  177.0050  143.6300 C   0  0  0  0  0  2  0  0  0  0  0  0
  190.2780  178.6120  145.3240 O   0  0  0  0  0  0  0  0  0  0  0  0
  190.7000  176.3840  146.0250 C   0  0  1  0  0  3  0  0  0  0  0  0
  189.3870  178.0320  147.4600 C   0  0  0  0  0  2  0  0  0  0  0  0
  189.3500  176.7890  146.5760 C   0  0  1  0  0  3  0  0  0  0  0  0
  191.0830  177.4880  145.0660 C   0  0  1  0  0  3  0  0  0  0  0  0
  189.1130  178.1580  145.9740 C   0  0  2  0  0  3  0  0  0  0  0  0
  191.7370  176.2310  147.1260 C   0  0  0  0  0  2  0  0  0  0  0  0
  192.2130  174.9220  147.1660 O   0  0  0  0  0  1  0  0  0  0  0  0
  183.2570  180.3390  138.9290 O   0  0  0  0  0  1  0  0  0  0  0  0
  184.4920  179.9770  138.6620 O   0  0  0  0  0  0  0  0  0  0  0  0
  182.5180  176.1190  135.1550 C   0  0  0  0  0  2  0  0  0  0  0  0
  180.9520  172.5770  134.7600 C   0  0  0  0  0  2  0  0  0  0  0  0
  184.0320  171.2060  135.8430 C   0  0  2  0  0  3  0  0  0  0  0  0
  181.5860  173.3620  137.6870 F   0  0  0  0  0  0  0  0  0  0  0  0
  181.0250  174.0630  135.1130 C   0  0  1  0  0  3  0  0  0  0  0  0
  182.3120  174.7090  134.5940 C   0  0  2  0  0  3  0  0  0  0  0  0
  182.1160  172.2270  137.1000 C   0  0  2  0  0  3  0  0  0  0  0  0
  181.9850  170.4960  135.4950 O   0  0  0  0  0  0  0  0  0  0  0  0
  179.7870  174.7980  134.6220 C   0  0  0  0  0  1  0  0  0  0  0  0
  183.4380  173.8510  134.7090 O   0  0  0  0  0  0  0  0  0  0  0  0
  183.0710  170.9310  134.8580 O   0  0  0  0  0  0  0  0  0  0  0  0
  183.5780  172.4130  136.6930 C   0  0  2  0  0  3  0  0  0  0  0  0
  181.2510  171.6200  135.9490 C   0  0  2  0  0  0  0  0  0  0  0  0
  183.8370  173.7840  136.0600 C   0  0  0  0  0  2  0  0  0  0  0  0
  179.9260  171.1270  136.5060 C   0  0  0  0  0  0  0  0  0  0  0  0
  179.0110  172.0650  137.2310 C   0  0  0  0  0  1  0  0  0  0  0  0
  179.3740  170.0060  136.0240 C   0  0  0  0  0  2  0  0  0  0  0  0
  185.9840  170.2680  135.2070 O   0  0  0  0  0  1  0  0  0  0  0  0
  185.3270  171.4530  135.2280 N   0  0  0  0  0  2  0  0  0  0  0  0
  1  3  1  0  0  0  0
  2 11  1  6  0  0  0
  2  4  1  0  0  0  0
  4 34  1  6  0  0  0
  4  5  1  0  0  0  0
  5  3  1  0  0  0  0
  6  1  1  1  0  0  0
  7 35  1  6  0  0  0
  7  8  1  0  0  0  0
  7  6  1  0  0  0  0
  8  6  1  0  0  0  0
  8  2  1  0  0  0  0
  9 13  1  0  0  0  0
 10 11  1  0  0  0  0
 10  9  1  0  0  0  0
 11  9  1  0  0  0  0
 12 13  2  0  0  0  0
 13 14  1  0  0  0  0
 14 21  1  0  0  0  0
 15 18  1  0  0  0  0
 16 19  1  0  0  0  0
 16 20  1  0  0  0  0
 17 16  1  0  0  0  0
 20 18  1  0  0  0  0
 21 17  1  0  0  0  0
 21 15  1  0  0  0  0
 22 15  1  0  0  0  0
 22 23  1  0  0  0  0
 23 24  1  0  0  0  0
 24 29  1  0  0  0  0
 25 30  1  0  0  0  0
 26 28  1  0  0  0  0
 26 31  1  0  0  0  0
 28 27  1  0  0  0  0
 29 25  1  0  0  0  0
 29 26  1  0  0  0  0
 30 28  1  0  0  0  0
 30 27  1  0  0  0  0
 31 32  1  0  0  0  0
 34 33  1  0  0  0  0
 36 39  1  0  0  0  0
 36 47  1  0  0  0  0
 37 46  1  0  0  0  0
 40 44  1  0  0  0  0
 40 39  1  0  0  0  0
 40 35  1  0  0  0  0
 41 38  1  0  0  0  0
 42 47  1  0  0  0  0
 43 39  1  0  0  0  0
 44 48  1  0  0  0  0
 45 42  1  0  0  0  0
 45 37  1  0  0  0  0
 46 41  1  0  0  0  0
 47 49  1  0  0  0  0
 47 41  1  0  0  0  0
 48 46  1  0  0  0  0
 49 50  1  0  0  0  0
 51 49  2  0  0  0  0
 52 53  1  0  0  0  0
 53 37  1  0  0  0  0
M  END
>  <MODEL>
5

>  <REMARK>
 VINA RESULT:      -5.0      3.124     10.589
  Name = 
  14 active torsions:
  status: ('A' for Active; 'I' for Inactive)
    1  A    between atoms: C_2  and  C_49
    2  A    between atoms: C_5  and  C_21
    3  A    between atoms: C_5  and  S_40
    4  A    between atoms: C_6  and  C_8
    5  A    between atoms: C_7  and  C_45
    6  A    between atoms: C_11  and  N_37
    7  A    between atoms: C_13  and  C_48
    8  A    between atoms: O_14  and  C_22
    9  A    between atoms: N_19  and  C_28
   10  A    between atoms: N_19  and  C_49
   11  A    between atoms: C_23  and  C_31
   12  A    between atoms: C_28  and  C_41
   13  A    between atoms: C_31  and  C_42
   14  A    between atoms: S_40  and  C_47
                            x       y       z     vdW  Elec       q    Type
                         _______ _______ _______ _____ _____    ______ ____

>  <TORSDO>
F 14

$$$$
=
 OpenBabel11062413593D

 53 60  0  0  1  0  0  0  0  0999 V2000
  182.0320  179.4080  143.2040 O   0  0  0  0  0  0  0  0  0  0  0  0
  181.7970  179.4120  140.6190 C   0  0  1  0  0  3  0  0  0  0  0  0
  180.7590  178.8480  143.4290 C   0  0  0  0  0  2  0  0  0  0  0  0
  180.3420  178.9250  140.8440 C   0  0  2  0  0  3  0  0  0  0  0  0
  180.1130  178.2030  142.1840 C   0  0  0  0  0  2  0  0  0  0  0  0
  182.8670  178.4090  142.6730 C   0  0  2  0  0  3  0  0  0  0  0  0
  183.9750  179.0650  141.8630 C   0  0  2  0  0  3  0  0  0  0  0  0
  182.8340  178.4010  141.1310 C   0  0  2  0  0  3  0  0  0  0  0  0
  182.4460  178.7210  138.1650 C   0  0  1  0  0  3  0  0  0  0  0  0
  181.0020  179.1990  138.2610 C   0  0  0  0  0  2  0  0  0  0  0  0
  182.0480  179.8220  139.1710 C   0  0  1  0  0  3  0  0  0  0  0  0
  181.5520  175.9030  137.8400 S   0  0  0  0  0  0  0  0  0  0  0  0
  182.6120  177.2150  138.5340 C   0  0  0  0  0  0  0  0  0  0  0  0
  184.3560  176.6780  138.5920 S   0  0  0  0  0  0  0  0  0  0  0  0
  185.4610  175.7270  136.2550 C   0  0  2  0  0  3  0  0  0  0  0  0
  184.0200  173.1990  136.3620 C   0  0  2  0  0  3  0  0  0  0  0  0
  184.1230  174.1060  137.5940 C   0  0  0  0  0  2  0  0  0  0  0  0
  185.7640  174.6070  135.4240 O   0  0  0  0  0  0  0  0  0  0  0  0
  184.7240  172.0180  136.6030 O   0  0  0  0  0  1  0  0  0  0  0  0
  184.5850  173.8930  135.1120 C   0  0  0  0  0  2  0  0  0  0  0  0
  184.2290  175.5600  137.1630 C   0  0  1  0  0  3  0  0  0  0  0  0
  185.3780  177.0130  135.4390 C   0  0  0  0  0  2  0  0  0  0  0  0
  186.6920  177.6320  135.3430 N   0  0  0  0  0  2  0  0  0  0  0  0
  187.3850  177.4090  136.6070 C   0  0  0  0  0  2  0  0  0  0  0  0
  189.7590  177.8200  136.6770 O   0  0  0  0  0  0  0  0  0  0  0  0
  189.0070  175.6350  137.2180 C   0  0  1  0  0  3  0  0  0  0  0  0
  191.3100  176.4860  137.9030 C   0  0  0  0  0  2  0  0  0  0  0  0
  189.9010  176.1030  138.3450 C   0  0  1  0  0  3  0  0  0  0  0  0
  188.7880  176.8570  136.3540 C   0  0  1  0  0  3  0  0  0  0  0  0
  190.2210  177.5370  137.9780 C   0  0  2  0  0  3  0  0  0  0  0  0
  189.6460  174.5090  136.4200 C   0  0  0  0  0  2  0  0  0  0  0  0
  189.8050  173.3780  137.2190 O   0  0  0  0  0  1  0  0  0  0  0  0
  179.3310  177.0700  140.4080 O   0  0  0  0  0  1  0  0  0  0  0  0
  179.9650  178.0560  139.8130 O   0  0  0  0  0  0  0  0  0  0  0  0
  185.1730  178.1250  141.7980 C   0  0  0  0  0  2  0  0  0  0  0  0
  188.9200  178.5920  142.7460 C   0  0  0  0  0  2  0  0  0  0  0  0
  188.0910  177.6660  146.0620 C   0  0  2  0  0  3  0  0  0  0  0  0
  187.9300  175.6620  142.9000 F   0  0  0  0  0  0  0  0  0  0  0  0
  187.7110  178.1890  141.9000 C   0  0  1  0  0  3  0  0  0  0  0  0
  186.4030  178.7290  142.4830 C   0  0  2  0  0  3  0  0  0  0  0  0
  188.4870  176.3070  143.9900 C   0  0  2  0  0  3  0  0  0  0  0  0
  189.9160  177.9680  144.8810 O   0  0  0  0  0  0  0  0  0  0  0  0
  187.9000  178.6110  140.4510 C   0  0  0  0  0  1  0  0  0  0  0  0
  186.3780  178.6840  143.9020 O   0  0  0  0  0  0  0  0  0  0  0  0
  188.8970  178.6260  145.4310 O   0  0  0  0  0  0  0  0  0  0  0  0
  187.4320  176.7580  145.0010 C   0  0  2  0  0  3  0  0  0  0  0  0
  189.4930  177.4490  143.6320 C   0  0  2  0  0  0  0  0  0  0  0  0
  186.1910  177.3510  144.3230 C   0  0  0  0  0  2  0  0  0  0  0  0
  190.7050  176.8650  142.9260 C   0  0  0  0  0  0  0  0  0  0  0  0
  191.2390  177.5020  141.6810 C   0  0  0  0  0  1  0  0  0  0  0  0
  191.5430  176.0600  143.5920 C   0  0  0  0  0  2  0  0  0  0  0  0
  187.6820  178.5840  148.0830 O   0  0  0  0  0  1  0  0  0  0  0  0
  187.0900  178.3160  146.8940 N   0  0  0  0  0  2  0  0  0  0  0  0
  1  3  1  0  0  0  0
  2 11  1  6  0  0  0
  2  4  1  0  0  0  0
  2  8  1  0  0  0  0
  4 34  1  6  0  0  0
  4  5  1  0  0  0  0
  5  3  1  0  0  0  0
  6  1  1  1  0  0  0
  7 35  1  6  0  0  0
  7  6  1  0  0  0  0
  8  7  1  0  0  0  0
  8  6  1  0  0  0  0
  9 10  1  0  0  0  0
  9 13  1  0  0  0  0
  9 11  1  0  0  0  0
 10 11  1  0  0  0  0
 12 13  2  0  0  0  0
 13 14  1  0  0  0  0
 15 21  1  0  0  0  0
 16 19  1  0  0  0  0
 16 17  1  0  0  0  0
 18 15  1  0  0  0  0
 20 18  1  0  0  0  0
 20 16  1  0  0  0  0
 21 17  1  0  0  0  0
 21 14  1  0  0  0  0
 22 15  1  0  0  0  0
 23 22  1  0  0  0  0
 23 24  1  0  0  0  0
 25 30  1  0  0  0  0
 26 28  1  0  0  0  0
 27 30  1  0  0  0  0
 27 28  1  0  0  0  0
 29 24  1  0  0  0  0
 29 25  1  0  0  0  0
 29 26  1  0  0  0  0
 30 28  1  0  0  0  0
 31 26  1  0  0  0  0
 31 32  1  0  0  0  0
 34 33  1  0  0  0  0
 35 40  1  0  0  0  0
 36 47  1  0  0  0  0
 37 53  1  0  0  0  0
 38 41  1  0  0  0  0
 39 40  1  0  0  0  0
 39 36  1  0  0  0  0
 40 44  1  0  0  0  0
 41 46  1  0  0  0  0
 42 45  1  0  0  0  0
 43 39  1  0  0  0  0
 44 48  1  0  0  0  0
 45 37  1  0  0  0  0
 46 37  1  0  0  0  0
 47 41  1  0  0  0  0
 47 42  1  0  0  0  0
 48 46  1  0  0  0  0
 49 51  2  0  0  0  0
 49 47  1  0  0  0  0
 50 49  1  0  0  0  0
 53 52  1  0  0  0  0
M  END
>  <MODEL>
6

>  <REMARK>
 VINA RESULT:      -5.0      2.500      6.492
  Name = 
  14 active torsions:
  status: ('A' for Active; 'I' for Inactive)
    1  A    between atoms: C_2  and  C_49
    2  A    between atoms: C_5  and  C_21
    3  A    between atoms: C_5  and  S_40
    4  A    between atoms: C_6  and  C_8
    5  A    between atoms: C_7  and  C_45
    6  A    between atoms: C_11  and  N_37
    7  A    between atoms: C_13  and  C_48
    8  A    between atoms: O_14  and  C_22
    9  A    between atoms: N_19  and  C_28
   10  A    between atoms: N_19  and  C_49
   11  A    between atoms: C_23  and  C_31
   12  A    between atoms: C_28  and  C_41
   13  A    between atoms: C_31  and  C_42
   14  A    between atoms: S_40  and  C_47
                            x       y       z     vdW  Elec       q    Type
                         _______ _______ _______ _____ _____    ______ ____

>  <TORSDO>
F 14

$$$$
=
 OpenBabel11062413593D

 53 60  0  0  1  0  0  0  0  0999 V2000
  189.4910  176.0630  138.6190 O   0  0  0  0  0  0  0  0  0  0  0  0
  187.5050  177.6260  138.0260 C   0  0  1  0  0  3  0  0  0  0  0  0
  190.2440  176.4050  137.4780 C   0  0  0  0  0  2  0  0  0  0  0  0
  188.2510  177.9150  136.6970 C   0  0  2  0  0  3  0  0  0  0  0  0
  189.7720  177.6860  136.7590 C   0  0  0  0  0  2  0  0  0  0  0  0
  189.5000  177.1590  139.5000 C   0  0  2  0  0  3  0  0  0  0  0  0
  188.2630  177.0980  140.3830 C   0  0  2  0  0  3  0  0  0  0  0  0
  188.3010  178.0980  139.2520 C   0  0  2  0  0  3  0  0  0  0  0  0
  185.0170  177.3900  137.2050 C   0  0  1  0  0  3  0  0  0  0  0  0
  185.1430  177.1920  138.7110 C   0  0  0  0  0  2  0  0  0  0  0  0
  186.0790  178.1660  138.0130 C   0  0  1  0  0  3  0  0  0  0  0  0
  185.8720  176.1070  134.6620 S   0  0  0  0  0  0  0  0  0  0  0  0
  185.3090  176.0890  136.3960 C   0  0  0  0  0  0  0  0  0  0  0  0
  186.2180  174.8320  137.3610 S   0  0  0  0  0  0  0  0  0  0  0  0
  186.8910  172.4870  136.0830 C   0  0  2  0  0  3  0  0  0  0  0  0
  184.1630  171.4690  136.0760 C   0  0  2  0  0  3  0  0  0  0  0  0
  184.5690  172.6410  136.9750 C   0  0  0  0  0  2  0  0  0  0  0  0
  186.5500  171.1380  135.7630 O   0  0  0  0  0  0  0  0  0  0  0  0
  183.8390  170.3700  136.8730 O   0  0  0  0  0  1  0  0  0  0  0  0
  185.2980  171.0900  135.1100 C   0  0  0  0  0  2  0  0  0  0  0  0
  185.6980  173.4290  136.3280 C   0  0  1  0  0  3  0  0  0  0  0  0
  187.8560  173.0710  135.0560 C   0  0  0  0  0  2  0  0  0  0  0  0
  189.2300  172.7730  135.4330 N   0  0  0  0  0  2  0  0  0  0  0  0
  190.0470  173.9330  135.0940 C   0  0  0  0  0  2  0  0  0  0  0  0
  192.3090  174.6060  134.6000 O   0  0  0  0  0  0  0  0  0  0  0  0
  192.0010  172.5570  135.7560 C   0  0  1  0  0  3  0  0  0  0  0  0
  194.2280  173.7990  135.7650 C   0  0  0  0  0  2  0  0  0  0  0  0
  192.9860  173.3860  136.5510 C   0  0  1  0  0  3  0  0  0  0  0  0
  191.4570  173.4920  134.7000 C   0  0  1  0  0  3  0  0  0  0  0  0
  193.0160  174.7090  135.8140 C   0  0  2  0  0  3  0  0  0  0  0  0
  192.6650  171.3440  135.1230 C   0  0  0  0  0  2  0  0  0  0  0  0
  193.0040  170.4100  136.1010 O   0  0  0  0  0  1  0  0  0  0  0  0
  188.5940  179.9770  137.2290 O   0  0  0  0  0  1  0  0  0  0  0  0
  188.0260  179.2390  136.3010 O   0  0  0  0  0  0  0  0  0  0  0  0
  188.5320  177.8560  141.6780 C   0  0  0  0  0  2  0  0  0  0  0  0
  188.3380  176.7530  145.4050 C   0  0  0  0  0  2  0  0  0  0  0  0
  191.7740  175.9140  145.2300 C   0  0  2  0  0  3  0  0  0  0  0  0
  190.1000  179.2510  144.9150 F   0  0  0  0  0  0  0  0  0  0  0  0
  188.0650  177.6000  144.1620 C   0  0  1  0  0  3  0  0  0  0  0  0
  188.5660  176.9170  142.8860 C   0  0  2  0  0  3  0  0  0  0  0  0
  190.5950  178.1100  145.5210 C   0  0  2  0  0  3  0  0  0  0  0  0
  190.2480  176.1460  146.7910 O   0  0  0  0  0  0  0  0  0  0  0  0
  186.5900  177.9620  144.0660 C   0  0  0  0  0  1  0  0  0  0  0  0
  189.7970  176.2370  143.0800 O   0  0  0  0  0  0  0  0  0  0  0  0
  190.6050  175.3620  145.7750 O   0  0  0  0  0  0  0  0  0  0  0  0
  191.4510  177.2720  144.5700 C   0  0  2  0  0  3  0  0  0  0  0  0
  189.5280  177.2520  146.2730 C   0  0  2  0  0  0  0  0  0  0  0  0
  190.8420  177.1800  143.1660 C   0  0  0  0  0  2  0  0  0  0  0  0
  188.9640  178.0400  147.4440 C   0  0  0  0  0  0  0  0  0  0  0  0
  187.4870  178.1010  147.6760 C   0  0  0  0  0  1  0  0  0  0  0  0
  189.7460  178.3370  148.4890 C   0  0  0  0  0  2  0  0  0  0  0  0
  192.7280  173.8850  144.9700 O   0  0  0  0  0  1  0  0  0  0  0  0
  192.3690  174.9920  144.2760 N   0  0  0  0  0  2  0  0  0  0  0  0
  2 11  1  6  0  0  0
  2  8  1  0  0  0  0
  3  1  1  0  0  0  0
  4 34  1  1  0  0  0
  4  5  1  0  0  0  0
  4  2  1  0  0  0  0
  5  3  1  0  0  0  0
  6  1  1  6  0  0  0
  6  7  1  0  0  0  0
  7 35  1  1  0  0  0
  8  6  1  0  0  0  0
  8  7  1  0  0  0  0
  9 11  1  0  0  0  0
  9 10  1  0  0  0  0
 11 10  1  0  0  0  0
 12 13  2  0  0  0  0
 13  9  1  0  0  0  0
 13 14  1  0  0  0  0
 15 21  1  0  0  0  0
 16 19  1  0  0  0  0
 16 17  1  0  0  0  0
 18 15  1  0  0  0  0
 20 18  1  0  0  0  0
 20 16  1  0  0  0  0
 21 17  1  0  0  0  0
 21 14  1  0  0  0  0
 22 23  1  0  0  0  0
 22 15  1  0  0  0  0
 24 23  1  0  0  0  0
 25 29  1  0  0  0  0
 25 30  1  0  0  0  0
 26 28  1  0  0  0  0
 27 30  1  0  0  0  0
 27 28  1  0  0  0  0
 29 24  1  0  0  0  0
 29 26  1  0  0  0  0
 30 28  1  0  0  0  0
 31 26  1  0  0  0  0
 31 32  1  0  0  0  0
 34 33  1  0  0  0  0
 35 40  1  0  0  0  0
 36 47  1  0  0  0  0
 37 45  1  0  0  0  0
 38 41  1  0  0  0  0
 39 36  1  0  0  0  0
 40 44  1  0  0  0  0
 40 39  1  0  0  0  0
 41 47  1  0  0  0  0
 43 39  1  0  0  0  0
 44 48  1  0  0  0  0
 45 42  1  0  0  0  0
 46 37  1  0  0  0  0
 46 41  1  0  0  0  0
 47 42  1  0  0  0  0
 47 49  1  0  0  0  0
 48 46  1  0  0  0  0
 49 50  1  0  0  0  0
 49 51  2  0  0  0  0
 53 52  1  0  0  0  0
 53 37  1  0  0  0  0
M  END
>  <MODEL>
7

>  <REMARK>
 VINA RESULT:      -4.9      3.032      6.157
  Name = 
  14 active torsions:
  status: ('A' for Active; 'I' for Inactive)
    1  A    between atoms: C_2  and  C_49
    2  A    between atoms: C_5  and  C_21
    3  A    between atoms: C_5  and  S_40
    4  A    between atoms: C_6  and  C_8
    5  A    between atoms: C_7  and  C_45
    6  A    between atoms: C_11  and  N_37
    7  A    between atoms: C_13  and  C_48
    8  A    between atoms: O_14  and  C_22
    9  A    between atoms: N_19  and  C_28
   10  A    between atoms: N_19  and  C_49
   11  A    between atoms: C_23  and  C_31
   12  A    between atoms: C_28  and  C_41
   13  A    between atoms: C_31  and  C_42
   14  A    between atoms: S_40  and  C_47
                            x       y       z     vdW  Elec       q    Type
                         _______ _______ _______ _____ _____    ______ ____

>  <TORSDO>
F 14

$$$$
=
 OpenBabel11062413593D

 53 60  0  0  1  0  0  0  0  0999 V2000
  181.4960  175.4240  139.0440 O   0  0  0  0  0  0  0  0  0  0  0  0
  181.4540  178.0180  139.1220 C   0  0  1  0  0  3  0  0  0  0  0  0
  180.4130  175.2700  139.9320 C   0  0  0  0  0  2  0  0  0  0  0  0
  180.3520  177.8740  140.2050 C   0  0  2  0  0  3  0  0  0  0  0  0
  179.5740  176.5480  140.1480 C   0  0  0  0  0  2  0  0  0  0  0  0
  180.9980  175.9050  137.8190 C   0  0  2  0  0  3  0  0  0  0  0  0
  182.1060  176.6520  137.0920 C   0  0  2  0  0  3  0  0  0  0  0  0
  181.0130  177.4470  137.7670 C   0  0  2  0  0  3  0  0  0  0  0  0
  183.3740  179.7600  139.5670 C   0  0  1  0  0  3  0  0  0  0  0  0
  183.1660  179.5060  138.0780 C   0  0  0  0  0  2  0  0  0  0  0  0
  181.9670  179.4500  139.0120 C   0  0  1  0  0  3  0  0  0  0  0  0
  185.2870  177.5010  139.2810 S   0  0  0  0  0  0  0  0  0  0  0  0
  184.3040  178.7020  140.2380 C   0  0  0  0  0  0  0  0  0  0  0  0
  185.2780  179.3800  141.6260 S   0  0  0  0  0  0  0  0  0  0  0  0
  184.5450  179.3570  144.2810 C   0  0  2  0  0  3  0  0  0  0  0  0
  181.8340  178.4450  143.7370 C   0  0  2  0  0  3  0  0  0  0  0  0
  182.7200  179.0080  142.6210 C   0  0  0  0  0  2  0  0  0  0  0  0
  183.4980  179.3630  145.2520 O   0  0  0  0  0  0  0  0  0  0  0  0
  180.7620  179.3130  143.9540 O   0  0  0  0  0  1  0  0  0  0  0  0
  182.6290  178.2690  145.0420 C   0  0  0  0  0  2  0  0  0  0  0  0
  184.1830  178.7270  142.9240 C   0  0  1  0  0  3  0  0  0  0  0  0
  185.8220  178.7500  144.8520 C   0  0  0  0  0  2  0  0  0  0  0  0
  186.3190  177.7040  143.9690 N   0  0  0  0  0  2  0  0  0  0  0  0
  187.5860  177.2260  144.5110 C   0  0  0  0  0  2  0  0  0  0  0  0
  189.9080  177.8640  144.4060 O   0  0  0  0  0  0  0  0  0  0  0  0
  189.0230  176.6380  142.5780 C   0  0  1  0  0  3  0  0  0  0  0  0
  191.5280  176.7890  143.0250 C   0  0  0  0  0  2  0  0  0  0  0  0
  190.2710  175.9230  143.0450 C   0  0  1  0  0  3  0  0  0  0  0  0
  188.7480  177.6870  143.6310 C   0  0  1  0  0  3  0  0  0  0  0  0
  190.6850  176.6960  144.2810 C   0  0  2  0  0  3  0  0  0  0  0  0
  189.2150  177.2750  141.2100 C   0  0  0  0  0  2  0  0  0  0  0  0
  188.4470  178.4330  141.1020 O   0  0  0  0  0  1  0  0  0  0  0  0
  179.4000  179.4840  141.2800 O   0  0  0  0  0  1  0  0  0  0  0  0
  179.4320  178.9230  140.0920 O   0  0  0  0  0  0  0  0  0  0  0  0
  181.8160  176.6480  135.5960 C   0  0  0  0  0  2  0  0  0  0  0  0
  183.7010  173.3930  134.5940 C   0  0  0  0  0  2  0  0  0  0  0  0
  186.6940  174.8910  135.7470 C   0  0  2  0  0  3  0  0  0  0  0  0
  183.6130  173.9160  137.6430 F   0  0  0  0  0  0  0  0  0  0  0  0
  182.5730  174.2640  135.1480 C   0  0  1  0  0  3  0  0  0  0  0  0
  182.7920  175.7460  134.8340 C   0  0  2  0  0  3  0  0  0  0  0  0
  184.8060  173.7670  136.9580 C   0  0  2  0  0  3  0  0  0  0  0  0
  186.0250  172.8940  135.1290 O   0  0  0  0  0  0  0  0  0  0  0  0
  181.2190  173.7770  134.6530 C   0  0  0  0  0  1  0  0  0  0  0  0
  184.1560  176.1280  134.9310 O   0  0  0  0  0  0  0  0  0  0  0  0
  186.2870  174.1110  134.6550 O   0  0  0  0  0  0  0  0  0  0  0  0
  185.5040  175.1040  136.7090 C   0  0  2  0  0  3  0  0  0  0  0  0
  184.7120  172.8950  135.6640 C   0  0  2  0  0  0  0  0  0  0  0  0
  184.5240  176.2050  136.2910 C   0  0  0  0  0  2  0  0  0  0  0  0
  184.3500  171.4650  136.0320 C   0  0  0  0  0  0  0  0  0  0  0  0
  183.1700  171.1830  136.9090 C   0  0  0  0  0  1  0  0  0  0  0  0
  184.7930  170.4490  135.2810 C   0  0  0  0  0  2  0  0  0  0  0  0
  188.3470  176.4030  136.0180 O   0  0  0  0  0  1  0  0  0  0  0  0
  187.2330  176.1610  135.2870 N   0  0  0  0  0  2  0  0  0  0  0  0
  1  3  1  0  0  0  0
  2 11  1  6  0  0  0
  2  4  1  0  0  0  0
  3  5  1  0  0  0  0
  4 34  1  6  0  0  0
  5  4  1  0  0  0  0
  6  1  1  1  0  0  0
  7 35  1  6  0  0  0
  7  8  1  0  0  0  0
  7  6  1  0  0  0  0
  8  6  1  0  0  0  0
  8  2  1  0  0  0  0
  9 13  1  0  0  0  0
 10 11  1  0  0  0  0
 10  9  1  0  0  0  0
 11  9  1  0  0  0  0
 12 13  2  0  0  0  0
 13 14  1  0  0  0  0
 14 21  1  0  0  0  0
 15 22  1  0  0  0  0
 15 18  1  0  0  0  0
 16 19  1  0  0  0  0
 16 20  1  0  0  0  0
 17 21  1  0  0  0  0
 17 16  1  0  0  0  0
 20 18  1  0  0  0  0
 21 15  1  0  0  0  0
 23 24  1  0  0  0  0
 23 22  1  0  0  0  0
 26 28  1  0  0  0  0
 26 29  1  0  0  0  0
 27 28  1  0  0  0  0
 27 30  1  0  0  0  0
 28 30  1  0  0  0  0
 29 25  1  0  0  0  0
 29 24  1  0  0  0  0
 30 25  1  0  0  0  0
 31 26  1  0  0  0  0
 32 31  1  0  0  0  0
 34 33  1  0  0  0  0
 36 39  1  0  0  0  0
 36 47  1  0  0  0  0
 37 46  1  0  0  0  0
 40 44  1  0  0  0  0
 40 39  1  0  0  0  0
 40 35  1  0  0  0  0
 41 38  1  0  0  0  0
 42 47  1  0  0  0  0
 43 39  1  0  0  0  0
 44 48  1  0  0  0  0
 45 42  1  0  0  0  0
 45 37  1  0  0  0  0
 46 41  1  0  0  0  0
 47 49  1  0  0  0  0
 47 41  1  0  0  0  0
 48 46  1  0  0  0  0
 49 50  1  0  0  0  0
 51 49  2  0  0  0  0
 53 37  1  0  0  0  0
 53 52  1  0  0  0  0
M  END
>  <MODEL>
8

>  <REMARK>
 VINA RESULT:      -4.4      3.172     10.005
  Name = 
  14 active torsions:
  status: ('A' for Active; 'I' for Inactive)
    1  A    between atoms: C_2  and  C_49
    2  A    between atoms: C_5  and  C_21
    3  A    between atoms: C_5  and  S_40
    4  A    between atoms: C_6  and  C_8
    5  A    between atoms: C_7  and  C_45
    6  A    between atoms: C_11  and  N_37
    7  A    between atoms: C_13  and  C_48
    8  A    between atoms: O_14  and  C_22
    9  A    between atoms: N_19  and  C_28
   10  A    between atoms: N_19  and  C_49
   11  A    between atoms: C_23  and  C_31
   12  A    between atoms: C_28  and  C_41
   13  A    between atoms: C_31  and  C_42
   14  A    between atoms: S_40  and  C_47
                            x       y       z     vdW  Elec       q    Type
                         _______ _______ _______ _____ _____    ______ ____

>  <TORSDO>
F 14

$$$$
=
 OpenBabel11062413593D

 53 60  0  0  1  0  0  0  0  0999 V2000
  185.1750  173.3630  137.5200 O   0  0  0  0  0  0  0  0  0  0  0  0
  183.5060  173.9510  135.6210 C   0  0  1  0  0  3  0  0  0  0  0  0
  184.5170  172.1710  137.8800 C   0  0  0  0  0  2  0  0  0  0  0  0
  182.6880  172.7180  136.0870 C   0  0  2  0  0  3  0  0  0  0  0  0
  183.5110  171.6520  136.8300 C   0  0  0  0  0  2  0  0  0  0  0  0
  185.8110  173.1610  136.2810 C   0  0  2  0  0  3  0  0  0  0  0  0
  185.9770  174.5020  135.5830 C   0  0  2  0  0  3  0  0  0  0  0  0
  184.8980  173.5600  135.1030 C   0  0  2  0  0  3  0  0  0  0  0  0
  181.8840  175.9740  135.1800 C   0  0  1  0  0  3  0  0  0  0  0  0
  183.2800  176.2290  134.6250 C   0  0  0  0  0  2  0  0  0  0  0  0
  182.7330  174.8100  134.6260 C   0  0  1  0  0  3  0  0  0  0  0  0
  181.1680  175.1340  137.9410 S   0  0  0  0  0  0  0  0  0  0  0  0
  181.7610  176.3250  136.6940 C   0  0  0  0  0  0  0  0  0  0  0  0
  183.1840  177.2770  137.3290 S   0  0  0  0  0  0  0  0  0  0  0  0
  182.9350  179.8210  138.3540 C   0  0  2  0  0  3  0  0  0  0  0  0
  180.0240  179.7570  138.3540 C   0  0  2  0  0  3  0  0  0  0  0  0
  180.8390  178.7320  137.5580 C   0  0  0  0  0  2  0  0  0  0  0  0
  182.1180  180.9740  138.5540 O   0  0  0  0  0  0  0  0  0  0  0  0
  179.3200  180.5730  137.4660 O   0  0  0  0  0  1  0  0  0  0  0  0
  180.9330  180.6240  139.2410 C   0  0  0  0  0  2  0  0  0  0  0  0
  182.1760  178.4860  138.2400 C   0  0  1  0  0  3  0  0  0  0  0  0
  184.0420  179.7420  139.3990 C   0  0  0  0  0  2  0  0  0  0  0  0
  183.5710  179.0310  140.5780 N   0  0  0  0  0  2  0  0  0  0  0  0
  184.7390  178.5790  141.3250 C   0  0  0  0  0  2  0  0  0  0  0  0
  185.4170  177.5050  143.3740 O   0  0  0  0  0  0  0  0  0  0  0  0
  183.8710  179.2980  143.5340 C   0  0  1  0  0  3  0  0  0  0  0  0
  185.2490  178.5120  145.5300 C   0  0  0  0  0  2  0  0  0  0  0  0
  185.0140  179.5940  144.4800 C   0  0  1  0  0  3  0  0  0  0  0  0
  184.3280  178.1080  142.7210 C   0  0  1  0  0  3  0  0  0  0  0  0
  185.9990  178.4750  144.2130 C   0  0  2  0  0  3  0  0  0  0  0  0
  182.5850  178.9860  144.2830 C   0  0  0  0  0  2  0  0  0  0  0  0
  181.5200  178.8680  143.3910 O   0  0  0  0  0  1  0  0  0  0  0  0
  182.0950  170.8190  135.2530 O   0  0  0  0  0  1  0  0  0  0  0  0
  182.0780  172.1060  134.9850 O   0  0  0  0  0  0  0  0  0  0  0  0
  187.1370  174.4150  134.5980 C   0  0  0  0  0  2  0  0  0  0  0  0
  190.2240  176.3290  135.9960 C   0  0  0  0  0  2  0  0  0  0  0  0
  187.9880  178.6030  137.5360 C   0  0  2  0  0  3  0  0  0  0  0  0
  188.5030  174.9460  138.1660 F   0  0  0  0  0  0  0  0  0  0  0  0
  189.3650  175.1330  135.5860 C   0  0  1  0  0  3  0  0  0  0  0  0
  188.1300  175.5640  134.7910 C   0  0  2  0  0  3  0  0  0  0  0  0
  188.7580  176.3060  138.1880 C   0  0  2  0  0  3  0  0  0  0  0  0
  190.1330  178.1440  137.6200 O   0  0  0  0  0  0  0  0  0  0  0  0
  190.1930  174.1050  134.8290 C   0  0  0  0  0  1  0  0  0  0  0  0
  187.5600  176.7690  135.2800 O   0  0  0  0  0  0  0  0  0  0  0  0
  189.1980  178.6670  136.8280 O   0  0  0  0  0  0  0  0  0  0  0  0
  187.5620  177.1290  137.7080 C   0  0  2  0  0  3  0  0  0  0  0  0
  190.0910  176.7330  137.4920 C   0  0  2  0  0  0  0  0  0  0  0  0
  186.8780  176.5060  136.4860 C   0  0  0  0  0  2  0  0  0  0  0  0
  191.2750  176.1530  138.2470 C   0  0  0  0  0  0  0  0  0  0  0  0
  192.3200  175.3590  137.5260 C   0  0  0  0  0  1  0  0  0  0  0  0
  191.6250  176.6630  139.4350 C   0  0  0  0  0  2  0  0  0  0  0  0
  187.4000  180.6520  136.7950 O   0  0  0  0  0  1  0  0  0  0  0  0
  186.9620  179.3720  136.8490 N   0  0  0  0  0  2  0  0  0  0  0  0
  1  3  1  0  0  0  0
  2 11  1  6  0  0  0
  2  4  1  0  0  0  0
  4 34  1  6  0  0  0
  4  5  1  0  0  0  0
  5  3  1  0  0  0  0
  6  1  1  1  0  0  0
  7 35  1  6  0  0  0
  7  6  1  0  0  0  0
  8  7  1  0  0  0  0
  8  2  1  0  0  0  0
  8  6  1  0  0  0  0
  9 13  1  0  0  0  0
 10 11  1  0  0  0  0
 10  9  1  0  0  0  0
 11  9  1  0  0  0  0
 13 14  1  0  0  0  0
 13 12  2  0  0  0  0
 14 21  1  0  0  0  0
 15 18  1  0  0  0  0
 15 22  1  0  0  0  0
 16 20  1  0  0  0  0
 17 21  1  0  0  0  0
 17 16  1  0  0  0  0
 18 20  1  0  0  0  0
 19 16  1  0  0  0  0
 21 15  1  0  0  0  0
 22 23  1  0  0  0  0
 23 24  1  0  0  0  0
 24 29  1  0  0  0  0
 25 30  1  0  0  0  0
 26 31  1  0  0  0  0
 26 28  1  0  0  0  0
 28 27  1  0  0  0  0
 29 25  1  0  0  0  0
 29 26  1  0  0  0  0
 30 28  1  0  0  0  0
 30 27  1  0  0  0  0
 32 31  1  0  0  0  0
 34 33  1  0  0  0  0
 35 40  1  0  0  0  0
 36 47  1  0  0  0  0
 37 46  1  0  0  0  0
 38 41  1  0  0  0  0
 39 36  1  0  0  0  0
 40 44  1  0  0  0  0
 40 39  1  0  0  0  0
 43 39  1  0  0  0  0
 44 48  1  0  0  0  0
 45 37  1  0  0  0  0
 45 42  1  0  0  0  0
 46 41  1  0  0  0  0
 47 42  1  0  0  0  0
 47 41  1  0  0  0  0
 47 49  1  0  0  0  0
 48 46  1  0  0  0  0
 49 51  2  0  0  0  0
 50 49  1  0  0  0  0
 52 53  1  0  0  0  0
 53 37  1  0  0  0  0
M  END
>  <MODEL>
9

>  <REMARK>
 VINA RESULT:      -4.4      3.761      7.717
  Name = 
  14 active torsions:
  status: ('A' for Active; 'I' for Inactive)
    1  A    between atoms: C_2  and  C_49
    2  A    between atoms: C_5  and  C_21
    3  A    between atoms: C_5  and  S_40
    4  A    between atoms: C_6  and  C_8
    5  A    between atoms: C_7  and  C_45
    6  A    between atoms: C_11  and  N_37
    7  A    between atoms: C_13  and  C_48
    8  A    between atoms: O_14  and  C_22
    9  A    between atoms: N_19  and  C_28
   10  A    between atoms: N_19  and  C_49
   11  A    between atoms: C_23  and  C_31
   12  A    between atoms: C_28  and  C_41
   13  A    between atoms: C_31  and  C_42
   14  A    between atoms: S_40  and  C_47
                            x       y       z     vdW  Elec       q    Type
                         _______ _______ _______ _____ _____    ______ ____

>  <TORSDO>
F 14

$$$$
