=
 OpenBabel11062417023D

 26 30  0  0  1  0  0  0  0  0999 V2000
  189.4770  176.7560  141.6140 C   0  0  0  0  0  0  0  0  0  0  0  0
  184.1510  178.5290  144.7410 C   0  0  0  0  0  3  0  0  0  0  0  0
  184.3110  178.4670  146.0840 N   0  0  0  0  0  0  0  0  0  0  0  0
  186.4620  177.8700  144.4620 C   0  0  0  0  0  0  0  0  0  0  0  0
  190.3130  174.9690  143.1950 C   0  0  0  0  0  2  0  0  0  0  0  0
  190.4420  176.3780  140.6840 O   0  0  0  0  0  1  0  0  0  0  0  0
  191.4720  176.6980  144.6870 C   0  0  0  0  0  2  0  0  0  0  0  0
  189.3450  176.0450  142.8170 C   0  0  0  0  0  0  0  0  0  0  0  0
  187.6620  178.2080  142.3010 C   0  0  0  0  0  3  0  0  0  0  0  0
  189.0800  178.1750  146.1330 N   0  0  2  0  0  0  0  0  0  0  0  0
  185.2240  178.2300  143.9140 C   0  0  0  0  0  3  0  0  0  0  0  0
  188.2840  178.8350  147.2040 C   0  0  1  0  0  3  0  0  0  0  0  0
  188.3730  176.4190  143.7500 C   0  0  0  0  0  3  0  0  0  0  0  0
  191.6430  175.5480  143.6940 C   0  0  0  0  0  2  0  0  0  0  0  0
  190.6520  176.2670  145.8910 C   0  0  0  0  0  2  0  0  0  0  0  0
  185.4840  178.1400  146.6270 N   0  0  0  0  0  0  0  0  0  0  0  0
  187.8470  177.5470  146.6570 C   0  0  1  0  0  3  0  0  0  0  0  0
  188.6350  177.8530  141.3570 C   0  0  0  0  0  0  0  0  0  0  0  0
  187.5370  177.5100  143.5110 C   0  0  0  0  0  0  0  0  0  0  0  0
  190.2440  177.4800  146.7050 C   0  0  0  0  0  2  0  0  0  0  0  0
  186.5850  177.8510  145.8790 C   0  0  0  0  0  0  0  0  0  0  0  0
  188.7200  178.6070  140.0630 C   0  0  2  0  0  3  0  0  0  0  0  0
  187.4230  178.7990  139.5440 O   0  0  0  0  0  0  0  0  0  0  0  0
  188.1990  177.7990  138.9340 C   0  0  0  0  0  2  0  0  0  0  0  0
  188.7550  178.6390  148.6490 C   0  0  0  0  0  2  0  0  0  0  0  0
  187.9260  177.7180  149.2870 O   0  0  0  0  0  1  0  0  0  0  0  0
  1  8  1  0  0  0  0
  2  3  1  0  0  0  0
  3 16  2  0  0  0  0
  4 21  2  0  0  0  0
  5 14  1  0  0  0  0
  6  1  1  0  0  0  0
  7 15  1  0  0  0  0
  8  5  1  0  0  0  0
  8 13  2  0  0  0  0
  9 19  2  0  0  0  0
 10 17  1  0  0  0  0
 10 20  1  1  0  0  0
 10 12  1  0  0  0  0
 11  4  1  0  0  0  0
 11  2  2  0  0  0  0
 12 25  1  1  0  0  0
 14  7  1  0  0  0  0
 15 20  1  0  0  0  0
 17 21  1  6  0  0  0
 17 12  1  0  0  0  0
 18  1  2  0  0  0  0
 18  9  1  0  0  0  0
 19 13  1  0  0  0  0
 19  4  1  0  0  0  0
 21 16  1  0  0  0  0
 22 18  1  1  0  0  0
 23 22  1  0  0  0  0
 24 23  1  0  0  0  0
 24 22  1  0  0  0  0
 25 26  1  0  0  0  0
M  END
>  <MODEL>
1

>  <REMARK>
 VINA RESULT:      -8.6      0.000      0.000
  Name = 
  2 active torsions:
  status: ('A' for Active; 'I' for Inactive)
    1  A    between atoms: C_10  and  C_15
    2  A    between atoms: C_12  and  C_22
                            x       y       z     vdW  Elec       q    Type
                         _______ _______ _______ _____ _____    ______ ____

>  <TORSDO>
F 2

$$$$
=
 OpenBabel11062417023D

 26 30  0  0  1  0  0  0  0  0999 V2000
  188.9440  178.0850  144.8340 C   0  0  0  0  0  0  0  0  0  0  0  0
  184.9630  179.0890  139.8900 C   0  0  0  0  0  3  0  0  0  0  0  0
  185.5940  178.9530  138.7000 N   0  0  0  0  0  0  0  0  0  0  0  0
  187.0140  178.4750  141.0170 C   0  0  0  0  0  0  0  0  0  0  0  0
  191.0680  179.0510  143.8600 C   0  0  0  0  0  2  0  0  0  0  0  0
  189.5660  177.9810  146.0750 O   0  0  0  0  0  1  0  0  0  0  0  0
  191.6240  176.8610  142.6530 C   0  0  0  0  0  2  0  0  0  0  0  0
  189.6270  178.6650  143.7530 C   0  0  0  0  0  0  0  0  0  0  0  0
  187.0220  177.7350  143.4000 C   0  0  0  0  0  3  0  0  0  0  0  0
  189.5040  176.7290  140.3120 N   0  0  2  0  0  0  0  0  0  0  0  0
  185.6670  178.8520  141.0620 C   0  0  0  0  0  3  0  0  0  0  0  0
  188.9200  176.4960  138.9620 C   0  0  1  0  0  3  0  0  0  0  0  0
  189.0030  178.7770  142.5070 C   0  0  0  0  0  3  0  0  0  0  0  0
  191.9930  177.8300  143.7770 C   0  0  0  0  0  2  0  0  0  0  0  0
  191.6240  177.5590  141.3040 C   0  0  0  0  0  2  0  0  0  0  0  0
  186.8720  178.5820  138.6320 N   0  0  0  0  0  0  0  0  0  0  0  0
  189.0400  177.8620  139.4800 C   0  0  1  0  0  3  0  0  0  0  0  0
  187.6340  177.6070  144.6540 C   0  0  0  0  0  0  0  0  0  0  0  0
  187.7070  178.2990  142.3130 C   0  0  0  0  0  0  0  0  0  0  0  0
  190.9720  176.6740  140.2590 C   0  0  0  0  0  2  0  0  0  0  0  0
  187.6200  178.3170  139.7400 C   0  0  0  0  0  0  0  0  0  0  0  0
  186.8600  177.0210  145.7980 C   0  0  2  0  0  3  0  0  0  0  0  0
  185.5450  177.5310  145.7860 O   0  0  0  0  0  0  0  0  0  0  0  0
  186.4180  178.0750  146.7430 C   0  0  0  0  0  2  0  0  0  0  0  0
  189.8990  176.3050  137.7990 C   0  0  0  0  0  2  0  0  0  0  0  0
  189.8560  177.4240  136.9680 O   0  0  0  0  0  1  0  0  0  0  0  0
  1  6  1  0  0  0  0
  2 11  1  0  0  0  0
  3  2  2  0  0  0  0
  4 11  2  0  0  0  0
  4 19  1  0  0  0  0
  7 14  1  0  0  0  0
  8  5  1  0  0  0  0
  8  1  2  0  0  0  0
  9 18  2  0  0  0  0
 10 20  1  6  0  0  0
 12 25  1  6  0  0  0
 12 17  1  0  0  0  0
 12 10  1  0  0  0  0
 13  8  1  0  0  0  0
 14  5  1  0  0  0  0
 15  7  1  0  0  0  0
 16  3  1  0  0  0  0
 16 21  2  0  0  0  0
 17 21  1  1  0  0  0
 17 10  1  0  0  0  0
 18  1  1  0  0  0  0
 19 13  2  0  0  0  0
 19  9  1  0  0  0  0
 20 15  1  0  0  0  0
 21  4  1  0  0  0  0
 22 18  1  6  0  0  0
 22 24  1  0  0  0  0
 23 22  1  0  0  0  0
 23 24  1  0  0  0  0
 26 25  1  0  0  0  0
M  END
>  <MODEL>
2

>  <REMARK>
 VINA RESULT:      -7.9      3.208      6.099
  Name = 
  2 active torsions:
  status: ('A' for Active; 'I' for Inactive)
    1  A    between atoms: C_10  and  C_15
    2  A    between atoms: C_12  and  C_22
                            x       y       z     vdW  Elec       q    Type
                         _______ _______ _______ _____ _____    ______ ____

>  <TORSDO>
F 2

$$$$
=
 OpenBabel11062417023D

 26 30  0  0  1  0  0  0  0  0999 V2000
  183.6320  178.8240  142.4420 C   0  0  0  0  0  0  0  0  0  0  0  0
  188.3670  178.3920  138.1180 C   0  0  0  0  0  3  0  0  0  0  0  0
  189.5620  178.1430  138.7030 N   0  0  0  0  0  0  0  0  0  0  0  0
  187.3090  178.2750  140.2910 C   0  0  0  0  0  0  0  0  0  0  0  0
  184.9050  179.8950  144.3470 C   0  0  0  0  0  2  0  0  0  0  0  0
  182.4400  179.0230  143.1330 O   0  0  0  0  0  1  0  0  0  0  0  0
  185.7750  177.6290  145.1650 C   0  0  0  0  0  2  0  0  0  0  0  0
  184.8410  179.2980  142.9770 C   0  0  0  0  0  0  0  0  0  0  0  0
  184.8440  177.9660  140.5270 C   0  0  0  0  0  3  0  0  0  0  0  0
  187.9000  176.7990  142.9770 N   0  0  2  0  0  0  0  0  0  0  0  0
  187.2260  178.4630  138.9060 C   0  0  0  0  0  3  0  0  0  0  0  0
  189.1470  176.2580  142.3700 C   0  0  1  0  0  3  0  0  0  0  0  0
  186.0390  179.1060  142.2820 C   0  0  0  0  0  3  0  0  0  0  0  0
  184.8550  178.8190  145.4390 C   0  0  0  0  0  2  0  0  0  0  0  0
  187.2160  178.0770  144.9950 C   0  0  0  0  0  2  0  0  0  0  0  0
  189.6620  177.9490  140.0180 N   0  0  0  0  0  0  0  0  0  0  0  0
  188.8690  177.6960  142.3080 C   0  0  1  0  0  3  0  0  0  0  0  0
  183.6350  178.1430  141.2120 C   0  0  0  0  0  0  0  0  0  0  0  0
  186.0560  178.4240  141.0650 C   0  0  0  0  0  0  0  0  0  0  0  0
  188.0510  176.9420  144.4330 C   0  0  0  0  0  2  0  0  0  0  0  0
  188.5840  177.9860  140.8510 C   0  0  0  0  0  0  0  0  0  0  0  0
  182.3570  177.6610  140.5920 C   0  0  2  0  0  3  0  0  0  0  0  0
  182.5180  177.5640  139.1940 O   0  0  0  0  0  0  0  0  0  0  0  0
  181.7940  178.6720  139.6640 C   0  0  0  0  0  2  0  0  0  0  0  0
  190.3320  176.0090  143.3080 C   0  0  0  0  0  2  0  0  0  0  0  0
  191.4400  176.7250  142.8570 O   0  0  0  0  0  1  0  0  0  0  0  0
  1  8  1  0  0  0  0
  1  6  1  0  0  0  0
  2  3  2  0  0  0  0
  2 11  1  0  0  0  0
  3 16  1  0  0  0  0
  4 21  1  0  0  0  0
  4 19  1  0  0  0  0
  5 14  1  0  0  0  0
  7 14  1  0  0  0  0
  8  5  1  0  0  0  0
  9 19  2  0  0  0  0
  9 18  1  0  0  0  0
 10 20  1  1  0  0  0
 11  4  2  0  0  0  0
 12 10  1  0  0  0  0
 12 25  1  1  0  0  0
 13  8  2  0  0  0  0
 15  7  1  0  0  0  0
 16 21  2  0  0  0  0
 17 21  1  6  0  0  0
 17 12  1  0  0  0  0
 17 10  1  0  0  0  0
 18  1  2  0  0  0  0
 19 13  1  0  0  0  0
 20 15  1  0  0  0  0
 22 18  1  1  0  0  0
 23 24  1  0  0  0  0
 23 22  1  0  0  0  0
 24 22  1  0  0  0  0
 26 25  1  0  0  0  0
M  END
>  <MODEL>
3

>  <REMARK>
 VINA RESULT:      -7.6      3.251      5.979
  Name = 
  2 active torsions:
  status: ('A' for Active; 'I' for Inactive)
    1  A    between atoms: C_10  and  C_15
    2  A    between atoms: C_12  and  C_22
                            x       y       z     vdW  Elec       q    Type
                         _______ _______ _______ _____ _____    ______ ____

>  <TORSDO>
F 2

$$$$
=
 OpenBabel11062417023D

 26 30  0  0  1  0  0  0  0  0999 V2000
  189.2480  177.4260  141.0060 C   0  0  0  0  0  0  0  0  0  0  0  0
  184.5760  179.0660  145.1010 C   0  0  0  0  0  3  0  0  0  0  0  0
  183.4320  179.3920  144.4550 N   0  0  0  0  0  0  0  0  0  0  0  0
  185.5950  178.5350  142.9710 C   0  0  0  0  0  0  0  0  0  0  0  0
  188.7020  178.9950  139.1000 C   0  0  0  0  0  2  0  0  0  0  0  0
  190.4420  177.0840  140.3760 O   0  0  0  0  0  1  0  0  0  0  0  0
  186.9610  177.3790  138.1420 C   0  0  0  0  0  2  0  0  0  0  0  0
  188.4120  178.4030  140.4430 C   0  0  0  0  0  0  0  0  0  0  0  0
  187.6710  177.1590  142.8260 C   0  0  0  0  0  3  0  0  0  0  0  0
  184.5650  177.5410  140.1980 N   0  0  2  0  0  0  0  0  0  0  0  0
  185.6710  178.6350  144.3660 C   0  0  0  0  0  3  0  0  0  0  0  0
  183.1750  177.6030  140.7260 C   0  0  1  0  0  3  0  0  0  0  0  0
  187.2160  178.7520  141.0770 C   0  0  0  0  0  3  0  0  0  0  0  0
  188.3300  178.0360  137.9630 C   0  0  0  0  0  2  0  0  0  0  0  0
  185.8640  178.4210  138.2720 C   0  0  0  0  0  2  0  0  0  0  0  0
  183.3320  179.2920  143.1300 N   0  0  0  0  0  0  0  0  0  0  0  0
  184.0610  178.7620  140.8660 C   0  0  1  0  0  3  0  0  0  0  0  0
  188.8700  176.7910  142.2020 C   0  0  0  0  0  0  0  0  0  0  0  0
  186.8250  178.1240  142.2590 C   0  0  0  0  0  0  0  0  0  0  0  0
  184.5790  177.7690  138.7450 C   0  0  0  0  0  2  0  0  0  0  0  0
  184.3600  178.8610  142.3460 C   0  0  0  0  0  0  0  0  0  0  0  0
  189.7600  175.7730  142.8530 C   0  0  2  0  0  3  0  0  0  0  0  0
  189.8330  176.0280  144.2380 O   0  0  0  0  0  0  0  0  0  0  0  0
  190.9460  176.4140  143.4730 C   0  0  0  0  0  2  0  0  0  0  0  0
  182.0600  177.9320  139.7280 C   0  0  0  0  0  2  0  0  0  0  0  0
  181.5000  179.1680  140.0480 O   0  0  0  0  0  1  0  0  0  0  0  0
  1 18  1  0  0  0  0
  3  2  1  0  0  0  0
  4 11  1  0  0  0  0
  5  8  1  0  0  0  0
  6  1  1  0  0  0  0
  7 15  1  0  0  0  0
  8  1  2  0  0  0  0
  8 13  1  0  0  0  0
 10 20  1  6  0  0  0
 10 12  1  0  0  0  0
 10 17  1  0  0  0  0
 11  2  2  0  0  0  0
 12 25  1  6  0  0  0
 12 17  1  0  0  0  0
 13 19  2  0  0  0  0
 14  7  1  0  0  0  0
 14  5  1  0  0  0  0
 15 20  1  0  0  0  0
 16  3  2  0  0  0  0
 17 21  1  1  0  0  0
 18  9  2  0  0  0  0
 19  9  1  0  0  0  0
 19  4  1  0  0  0  0
 21  4  2  0  0  0  0
 21 16  1  0  0  0  0
 22 18  1  6  0  0  0
 22 24  1  0  0  0  0
 22 23  1  0  0  0  0
 24 23  1  0  0  0  0
 25 26  1  0  0  0  0
M  END
>  <MODEL>
4

>  <REMARK>
 VINA RESULT:      -6.7      2.696      5.949
  Name = 
  2 active torsions:
  status: ('A' for Active; 'I' for Inactive)
    1  A    between atoms: C_10  and  C_15
    2  A    between atoms: C_12  and  C_22
                            x       y       z     vdW  Elec       q    Type
                         _______ _______ _______ _____ _____    ______ ____

>  <TORSDO>
F 2

$$$$
=
 OpenBabel11062417023D

 26 30  0  0  1  0  0  0  0  0999 V2000
  180.2720  177.6730  140.9560 C   0  0  0  0  0  0  0  0  0  0  0  0
  185.9780  178.1150  138.0330 C   0  0  0  0  0  3  0  0  0  0  0  0
  186.9320  178.5990  138.8620 N   0  0  0  0  0  0  0  0  0  0  0  0
  184.3920  178.1890  139.8590 C   0  0  0  0  0  0  0  0  0  0  0  0
  180.4180  179.6990  142.4610 C   0  0  0  0  0  2  0  0  0  0  0  0
  178.9310  177.5210  141.2970 O   0  0  0  0  0  1  0  0  0  0  0  0
  181.7080  178.3960  144.2500 C   0  0  0  0  0  2  0  0  0  0  0  0
  181.0040  178.7630  141.4540 C   0  0  0  0  0  0  0  0  0  0  0  0
  182.2490  176.9140  139.7780 C   0  0  0  0  0  3  0  0  0  0  0  0
  184.5680  177.9820  142.9680 N   0  0  2  0  0  0  0  0  0  0  0  0
  184.6960  177.9050  138.5220 C   0  0  0  0  0  3  0  0  0  0  0  0
  186.0490  177.8910  142.8480 C   0  0  1  0  0  3  0  0  0  0  0  0
  182.3500  178.9200  141.1070 C   0  0  0  0  0  3  0  0  0  0  0  0
  180.3970  179.0840  143.8660 C   0  0  0  0  0  2  0  0  0  0  0  0
  182.8790  179.3590  144.1620 C   0  0  0  0  0  2  0  0  0  0  0  0
  186.6680  178.8630  140.1410 N   0  0  0  0  0  0  0  0  0  0  0  0
  185.3260  178.9730  142.1720 C   0  0  1  0  0  3  0  0  0  0  0  0
  180.9020  176.7340  140.1190 C   0  0  0  0  0  0  0  0  0  0  0  0
  182.9880  177.9930  140.2840 C   0  0  0  0  0  0  0  0  0  0  0  0
  184.1880  178.5970  144.2490 C   0  0  0  0  0  2  0  0  0  0  0  0
  185.4390  178.6660  140.6950 C   0  0  0  0  0  0  0  0  0  0  0  0
  180.1380  175.5820  139.5360 C   0  0  2  0  0  3  0  0  0  0  0  0
  180.8120  175.1000  138.3950 O   0  0  0  0  0  0  0  0  0  0  0  0
  179.6720  175.8870  138.1610 C   0  0  0  0  0  2  0  0  0  0  0  0
  186.8820  178.4740  143.9940 C   0  0  0  0  0  2  0  0  0  0  0  0
  187.6790  177.4730  144.5460 O   0  0  0  0  0  1  0  0  0  0  0  0
  1  6  1  0  0  0  0
  1  8  1  0  0  0  0
  2 11  2  0  0  0  0
  2  3  1  0  0  0  0
  3 16  2  0  0  0  0
  4 19  1  0  0  0  0
  4 21  2  0  0  0  0
  5 14  1  0  0  0  0
  8  5  1  0  0  0  0
  9 18  1  0  0  0  0
  9 19  2  0  0  0  0
 10 20  1  1  0  0  0
 11  4  1  0  0  0  0
 12 10  1  0  0  0  0
 12 25  1  1  0  0  0
 13  8  2  0  0  0  0
 14  7  1  0  0  0  0
 15 20  1  0  0  0  0
 15  7  1  0  0  0  0
 16 21  1  0  0  0  0
 17 21  1  6  0  0  0
 17 12  1  0  0  0  0
 17 10  1  0  0  0  0
 18  1  2  0  0  0  0
 19 13  1  0  0  0  0
 22 18  1  6  0  0  0
 23 22  1  0  0  0  0
 24 23  1  0  0  0  0
 24 22  1  0  0  0  0
 25 26  1  0  0  0  0
M  END
>  <MODEL>
5

>  <REMARK>
 VINA RESULT:      -6.7      4.920      7.698
  Name = 
  2 active torsions:
  status: ('A' for Active; 'I' for Inactive)
    1  A    between atoms: C_10  and  C_15
    2  A    between atoms: C_12  and  C_22
                            x       y       z     vdW  Elec       q    Type
                         _______ _______ _______ _____ _____    ______ ____

>  <TORSDO>
F 2

$$$$
=
 OpenBabel11062417023D

 26 30  0  0  1  0  0  0  0  0999 V2000
  186.2090  178.3390  146.4960 C   0  0  0  0  0  0  0  0  0  0  0  0
  191.2280  175.4540  143.7070 C   0  0  0  0  0  3  0  0  0  0  0  0
  191.1330  175.4710  142.3570 N   0  0  0  0  0  0  0  0  0  0  0  0
  189.1790  176.7320  143.8410 C   0  0  0  0  0  0  0  0  0  0  0  0
  184.3940  177.6860  144.8620 C   0  0  0  0  0  2  0  0  0  0  0  0
  185.2430  178.8400  147.3640 O   0  0  0  0  0  1  0  0  0  0  0  0
  184.9610  179.6390  143.3040 C   0  0  0  0  0  2  0  0  0  0  0  0
  185.8230  177.7110  145.3010 C   0  0  0  0  0  0  0  0  0  0  0  0
  188.5310  177.9420  145.9250 C   0  0  0  0  0  3  0  0  0  0  0  0
  187.7210  178.7980  142.0120 N   0  0  2  0  0  0  0  0  0  0  0  0
  190.2510  176.0830  144.4650 C   0  0  0  0  0  3  0  0  0  0  0  0
  188.7890  178.6050  140.9940 C   0  0  1  0  0  3  0  0  0  0  0  0
  186.7920  177.2010  144.4310 C   0  0  0  0  0  3  0  0  0  0  0  0
  183.9520  179.0360  144.2830 C   0  0  0  0  0  2  0  0  0  0  0  0
  185.2430  178.6890  142.1530 C   0  0  0  0  0  2  0  0  0  0  0  0
  190.1280  176.0940  141.7420 N   0  0  0  0  0  0  0  0  0  0  0  0
  188.1050  177.4410  141.5650 C   0  0  1  0  0  3  0  0  0  0  0  0
  187.5750  178.4650  146.8060 C   0  0  0  0  0  0  0  0  0  0  0  0
  188.1500  177.3270  144.7230 C   0  0  0  0  0  0  0  0  0  0  0  0
  186.4500  179.1660  141.3680 C   0  0  0  0  0  2  0  0  0  0  0  0
  189.1430  176.7470  142.4200 C   0  0  0  0  0  0  0  0  0  0  0  0
  188.0220  179.0930  148.0940 C   0  0  2  0  0  3  0  0  0  0  0  0
  189.2890  178.5870  148.4500 O   0  0  0  0  0  0  0  0  0  0  0  0
  188.1900  178.0740  149.1580 C   0  0  0  0  0  2  0  0  0  0  0  0
  188.3900  178.7570  139.5220 C   0  0  0  0  0  2  0  0  0  0  0  0
  188.4700  177.5180  138.8880 O   0  0  0  0  0  1  0  0  0  0  0  0
  1 18  1  0  0  0  0
  1  6  1  0  0  0  0
  2 11  1  0  0  0  0
  3  2  2  0  0  0  0
  4 11  2  0  0  0  0
  4 19  1  0  0  0  0
  5  8  1  0  0  0  0
  7 14  1  0  0  0  0
  8  1  2  0  0  0  0
  9 18  2  0  0  0  0
 10 20  1  6  0  0  0
 12 25  1  6  0  0  0
 12 17  1  0  0  0  0
 12 10  1  0  0  0  0
 13 19  2  0  0  0  0
 13  8  1  0  0  0  0
 14  5  1  0  0  0  0
 15  7  1  0  0  0  0
 16  3  1  0  0  0  0
 16 21  2  0  0  0  0
 17 10  1  0  0  0  0
 17 21  1  1  0  0  0
 19  9  1  0  0  0  0
 20 15  1  0  0  0  0
 21  4  1  0  0  0  0
 22 18  1  6  0  0  0
 22 23  1  0  0  0  0
 22 24  1  0  0  0  0
 23 24  1  0  0  0  0
 26 25  1  0  0  0  0
M  END
>  <MODEL>
6

>  <REMARK>
 VINA RESULT:      -6.5      2.077      6.846
  Name = 
  2 active torsions:
  status: ('A' for Active; 'I' for Inactive)
    1  A    between atoms: C_10  and  C_15
    2  A    between atoms: C_12  and  C_22
                            x       y       z     vdW  Elec       q    Type
                         _______ _______ _______ _____ _____    ______ ____

>  <TORSDO>
F 2

$$$$
=
 OpenBabel11062417023D

 26 30  0  0  1  0  0  0  0  0999 V2000
  190.8340  177.0510  141.7870 C   0  0  0  0  0  0  0  0  0  0  0  0
  184.9780  179.3100  140.4060 C   0  0  0  0  0  3  0  0  0  0  0  0
  184.7050  179.2250  139.0830 N   0  0  0  0  0  0  0  0  0  0  0  0
  187.1070  178.2310  140.0080 C   0  0  0  0  0  0  0  0  0  0  0  0
  192.0610  177.7710  139.6970 C   0  0  0  0  0  2  0  0  0  0  0  0
  192.0450  176.6900  142.3700 O   0  0  0  0  0  1  0  0  0  0  0  0
  191.2950  175.6900  138.4160 C   0  0  0  0  0  2  0  0  0  0  0  0
  190.8150  177.6430  140.5140 C   0  0  0  0  0  0  0  0  0  0  0  0
  188.4170  177.2050  141.8680 C   0  0  0  0  0  3  0  0  0  0  0  0
  188.2170  176.2040  137.9100 N   0  0  2  0  0  0  0  0  0  0  0  0
  186.1840  178.8160  140.8840 C   0  0  0  0  0  3  0  0  0  0  0  0
  186.8980  176.2420  137.2210 C   0  0  1  0  0  3  0  0  0  0  0  0
  189.5990  178.0130  139.9310 C   0  0  0  0  0  3  0  0  0  0  0  0
  192.4640  176.4360  139.0600 C   0  0  0  0  0  2  0  0  0  0  0  0
  190.6150  176.5440  137.3590 C   0  0  0  0  0  2  0  0  0  0  0  0
  185.5640  178.6610  138.2330 N   0  0  0  0  0  0  0  0  0  0  0  0
  187.5890  177.4940  137.5460 C   0  0  1  0  0  3  0  0  0  0  0  0
  189.6240  176.8210  142.4660 C   0  0  0  0  0  0  0  0  0  0  0  0
  188.3920  177.7820  140.5890 C   0  0  0  0  0  0  0  0  0  0  0  0
  189.2950  175.9160  136.9530 C   0  0  0  0  0  2  0  0  0  0  0  0
  186.7570  178.1390  138.6330 C   0  0  0  0  0  0  0  0  0  0  0  0
  189.6100  176.2300  143.8450 C   0  0  2  0  0  3  0  0  0  0  0  0
  188.4950  176.7190  144.5560 O   0  0  0  0  0  0  0  0  0  0  0  0
  189.7390  177.2820  144.8820 C   0  0  0  0  0  2  0  0  0  0  0  0
  186.8950  176.0430  135.7020 C   0  0  0  0  0  2  0  0  0  0  0  0
  186.5270  177.2340  135.0770 O   0  0  0  0  0  1  0  0  0  0  0  0
  1  6  1  0  0  0  0
  1 18  1  0  0  0  0
  2 11  1  0  0  0  0
  3  2  2  0  0  0  0
  4 19  1  0  0  0  0
  4 11  2  0  0  0  0
  5  8  1  0  0  0  0
  7 14  1  0  0  0  0
  8  1  2  0  0  0  0
  9 18  2  0  0  0  0
 10 20  1  6  0  0  0
 12 25  1  6  0  0  0
 12 17  1  0  0  0  0
 12 10  1  0  0  0  0
 13  8  1  0  0  0  0
 13 19  2  0  0  0  0
 14  5  1  0  0  0  0
 15  7  1  0  0  0  0
 16 21  2  0  0  0  0
 16  3  1  0  0  0  0
 17 10  1  0  0  0  0
 17 21  1  1  0  0  0
 19  9  1  0  0  0  0
 20 15  1  0  0  0  0
 21  4  1  0  0  0  0
 22 18  1  6  0  0  0
 22 23  1  0  0  0  0
 22 24  1  0  0  0  0
 23 24  1  0  0  0  0
 26 25  1  0  0  0  0
M  END
>  <MODEL>
7

>  <REMARK>
 VINA RESULT:      -6.3      3.678      6.981
  Name = 
  2 active torsions:
  status: ('A' for Active; 'I' for Inactive)
    1  A    between atoms: C_10  and  C_15
    2  A    between atoms: C_12  and  C_22
                            x       y       z     vdW  Elec       q    Type
                         _______ _______ _______ _____ _____    ______ ____

>  <TORSDO>
F 2

$$$$
=
 OpenBabel11062417023D

 26 30  0  0  1  0  0  0  0  0999 V2000
  188.8090  177.8870  144.6890 C   0  0  0  0  0  0  0  0  0  0  0  0
  189.2090  177.3790  138.2950 C   0  0  0  0  0  3  0  0  0  0  0  0
  187.9960  177.4860  137.7050 N   0  0  0  0  0  0  0  0  0  0  0  0
  188.1680  177.7730  140.4440 C   0  0  0  0  0  0  0  0  0  0  0  0
  186.5790  176.7540  145.0580 C   0  0  0  0  0  2  0  0  0  0  0  0
  189.0240  177.9030  146.0650 O   0  0  0  0  0  1  0  0  0  0  0  0
  185.2940  178.9140  144.5630 C   0  0  0  0  0  2  0  0  0  0  0  0
  187.6600  177.2740  144.1650 C   0  0  0  0  0  0  0  0  0  0  0  0
  189.5080  178.4490  142.4380 C   0  0  0  0  0  3  0  0  0  0  0  0
  185.6360  179.3000  141.4440 N   0  0  2  0  0  0  0  0  0  0  0  0
  189.3090  177.5200  139.6720 C   0  0  0  0  0  3  0  0  0  0  0  0
  185.3070  179.6200  140.0280 C   0  0  1  0  0  3  0  0  0  0  0  0
  187.4460  177.2510  142.7830 C   0  0  0  0  0  3  0  0  0  0  0  0
  185.7090  177.8870  145.6170 C   0  0  0  0  0  2  0  0  0  0  0  0
  184.5480  178.2530  143.4160 C   0  0  0  0  0  2  0  0  0  0  0  0
  186.8980  177.7390  138.4180 N   0  0  0  0  0  0  0  0  0  0  0  0
  185.5950  178.2360  140.4160 C   0  0  1  0  0  3  0  0  0  0  0  0
  189.7370  178.4880  143.8200 C   0  0  0  0  0  0  0  0  0  0  0  0
  188.3530  177.8520  141.9100 C   0  0  0  0  0  0  0  0  0  0  0  0
  184.4130  179.2210  142.2560 C   0  0  0  0  0  2  0  0  0  0  0  0
  186.9230  177.9070  139.7710 C   0  0  0  0  0  0  0  0  0  0  0  0
  190.9960  179.1140  144.3430 C   0  0  2  0  0  3  0  0  0  0  0  0
  192.0540  178.8630  143.4460 O   0  0  0  0  0  0  0  0  0  0  0  0
  192.0320  178.0890  144.6170 C   0  0  0  0  0  2  0  0  0  0  0  0
  183.8240  179.7480  139.6650 C   0  0  0  0  0  2  0  0  0  0  0  0
  183.6630  180.7600  138.7190 O   0  0  0  0  0  1  0  0  0  0  0  0
  1  6  1  0  0  0  0
  2 11  1  0  0  0  0
  3  2  2  0  0  0  0
  3 16  1  0  0  0  0
  4 19  1  0  0  0  0
  5 14  1  0  0  0  0
  7 14  1  0  0  0  0
  8  1  1  0  0  0  0
  8  5  1  0  0  0  0
  9 18  1  0  0  0  0
 10 20  1  1  0  0  0
 11  4  2  0  0  0  0
 12 25  1  1  0  0  0
 12 17  1  0  0  0  0
 12 10  1  0  0  0  0
 13  8  2  0  0  0  0
 15  7  1  0  0  0  0
 16 21  2  0  0  0  0
 17 21  1  6  0  0  0
 17 10  1  0  0  0  0
 18  1  2  0  0  0  0
 19  9  2  0  0  0  0
 19 13  1  0  0  0  0
 20 15  1  0  0  0  0
 21  4  1  0  0  0  0
 22 18  1  6  0  0  0
 22 24  1  0  0  0  0
 23 22  1  0  0  0  0
 23 24  1  0  0  0  0
 26 25  1  0  0  0  0
M  END
>  <MODEL>
8

>  <REMARK>
 VINA RESULT:      -6.0      3.323      6.468
  Name = 
  2 active torsions:
  status: ('A' for Active; 'I' for Inactive)
    1  A    between atoms: C_10  and  C_15
    2  A    between atoms: C_12  and  C_22
                            x       y       z     vdW  Elec       q    Type
                         _______ _______ _______ _____ _____    ______ ____

>  <TORSDO>
F 2

$$$$
=
 OpenBabel11062417023D

 26 30  0  0  1  0  0  0  0  0999 V2000
  192.6130  177.0440  139.5540 C   0  0  0  0  0  0  0  0  0  0  0  0
  186.4410  177.8780  137.9680 C   0  0  0  0  0  3  0  0  0  0  0  0
  186.0590  177.0400  136.9770 N   0  0  0  0  0  0  0  0  0  0  0  0
  188.6310  176.8480  137.9570 C   0  0  0  0  0  0  0  0  0  0  0  0
  193.5560  176.4830  137.2760 C   0  0  0  0  0  2  0  0  0  0  0  0
  193.9060  177.1280  140.0630 O   0  0  0  0  0  1  0  0  0  0  0  0
  192.9100  174.0160  137.5100 C   0  0  0  0  0  2  0  0  0  0  0  0
  192.4120  176.7980  138.1860 C   0  0  0  0  0  0  0  0  0  0  0  0
  190.2110  177.1220  139.8680 C   0  0  0  0  0  3  0  0  0  0  0  0
  189.7600  174.0290  137.2360 N   0  0  2  0  0  0  0  0  0  0  0  0
  187.7330  177.7930  138.4690 C   0  0  0  0  0  3  0  0  0  0  0  0
  188.3870  173.6150  136.8360 C   0  0  1  0  0  3  0  0  0  0  0  0
  191.1140  176.7200  137.6710 C   0  0  0  0  0  3  0  0  0  0  0  0
  194.0430  175.0400  137.4530 C   0  0  0  0  0  2  0  0  0  0  0  0
  192.0450  174.0830  136.2630 C   0  0  0  0  0  2  0  0  0  0  0  0
  186.8920  176.1240  136.4830 N   0  0  0  0  0  0  0  0  0  0  0  0
  188.9630  174.8520  136.3000 C   0  0  1  0  0  3  0  0  0  0  0  0
  191.5040  177.1970  140.4040 C   0  0  0  0  0  0  0  0  0  0  0  0
  190.0050  176.8620  138.5050 C   0  0  0  0  0  0  0  0  0  0  0  0
  190.7710  173.2860  136.4680 C   0  0  0  0  0  2  0  0  0  0  0  0
  188.1680  175.9710  136.9370 C   0  0  0  0  0  0  0  0  0  0  0  0
  191.6820  177.5030  141.8620 C   0  0  2  0  0  3  0  0  0  0  0  0
  191.0090  176.5320  142.6330 O   0  0  0  0  0  0  0  0  0  0  0  0
  190.3810  177.7830  142.5170 C   0  0  0  0  0  2  0  0  0  0  0  0
  188.2670  172.5810  135.7110 C   0  0  0  0  0  2  0  0  0  0  0  0
  187.5640  173.1360  134.6430 O   0  0  0  0  0  1  0  0  0  0  0  0
  1  6  1  0  0  0  0
  1 18  1  0  0  0  0
  2 11  1  0  0  0  0
  3  2  2  0  0  0  0
  4 11  2  0  0  0  0
  4 19  1  0  0  0  0
  5 14  1  0  0  0  0
  5  8  1  0  0  0  0
  8  1  2  0  0  0  0
  9 18  2  0  0  0  0
 10 20  1  6  0  0  0
 12 25  1  6  0  0  0
 12 10  1  0  0  0  0
 13  8  1  0  0  0  0
 13 19  2  0  0  0  0
 14  7  1  0  0  0  0
 15 20  1  0  0  0  0
 15  7  1  0  0  0  0
 16 21  2  0  0  0  0
 16  3  1  0  0  0  0
 17 12  1  0  0  0  0
 17 21  1  1  0  0  0
 17 10  1  0  0  0  0
 19  9  1  0  0  0  0
 21  4  1  0  0  0  0
 22 18  1  6  0  0  0
 22 24  1  0  0  0  0
 22 23  1  0  0  0  0
 24 23  1  0  0  0  0
 26 25  1  0  0  0  0
M  END
>  <MODEL>
9

>  <REMARK>
 VINA RESULT:      -5.9      5.170      8.315
  Name = 
  2 active torsions:
  status: ('A' for Active; 'I' for Inactive)
    1  A    between atoms: C_10  and  C_15
    2  A    between atoms: C_12  and  C_22
                            x       y       z     vdW  Elec       q    Type
                         _______ _______ _______ _____ _____    ______ ____

>  <TORSDO>
F 2

$$$$
