=
 OpenBabel11062416093D

 59 63  0  0  1  0  0  0  0  0999 V2000
  179.8440  175.6520  140.6400 C   0  0  0  0  0  2  0  0  0  0  0  0
  181.2550  175.5070  137.1980 N   0  0  0  0  0  0  0  0  0  0  0  0
  179.5890  177.9400  141.5760 C   0  0  0  0  0  0  0  0  0  0  0  0
  179.9460  176.0650  139.1820 C   0  0  1  0  0  3  0  0  0  0  0  0
  179.7550  178.7640  140.4570 O   0  0  0  0  0  0  0  0  0  0  0  0
  180.0760  180.2890  138.1610 O   0  0  0  0  0  0  0  0  0  0  0  0
  179.9940  178.2970  142.7150 O   0  0  0  0  0  0  0  0  0  0  0  0
  183.1850  180.0960  138.8570 O   0  0  0  0  0  0  0  0  0  0  0  0
  180.4050  180.0270  140.5200 C   0  0  1  0  0  3  0  0  0  0  0  0
  182.6660  177.3220  138.1490 C   0  0  0  0  0  2  0  0  0  0  0  0
  183.2250  179.7020  137.5120 C   0  0  0  0  0  2  0  0  0  0  0  0
  180.6080  174.9460  138.3930 C   0  0  1  0  0  3  0  0  0  0  0  0
  179.1000  175.1470  138.3310 C   0  0  0  0  0  2  0  0  0  0  0  0
  183.6220  178.2300  137.3810 C   0  0  1  0  0  3  0  0  0  0  0  0
  182.1330  180.9250  138.9570 O   0  0  0  0  0  0  0  0  0  0  0  0
  178.9400  176.6060  141.4070 C   0  0  0  0  0  2  0  0  0  0  0  0
  182.6350  175.9380  137.5150 C   0  0  1  0  0  3  0  0  0  0  0  0
  180.8490  180.4210  139.1530 C   0  0  0  0  0  0  0  0  0  0  0  0
  179.4460  181.0740  141.0660 C   0  0  0  0  0  1  0  0  0  0  0  0
  183.4370  174.9190  138.3230 C   0  0  0  0  0  1  0  0  0  0  0  0
  186.0430  177.6740  136.8380 O   0  0  0  0  0  0  0  0  0  0  0  0
  185.4160  178.0610  139.0170 C   0  0  0  0  0  0  0  0  0  0  0  0
  186.0580  178.0920  140.1430 C   0  0  0  0  0  3  0  0  0  0  0  0
  188.4940  176.4780  138.8670 O   0  0  0  0  0  0  0  0  0  0  0  0
  187.1630  178.5230  136.5740 C   0  0  1  0  0  3  0  0  0  0  0  0
  187.5350  178.3300  140.0310 C   0  0  2  0  0  3  0  0  0  0  0  0
  188.3480  178.4720  137.5640 C   0  0  2  0  0  3  0  0  0  0  0  0
  188.3620  177.6390  136.2970 C   0  0  0  0  0  2  0  0  0  0  0  0
  185.0520  177.9920  137.7770 C   0  0  0  0  0  0  0  0  0  0  0  0
  188.1520  177.6540  138.8190 C   0  0  0  0  0  0  0  0  0  0  0  0
  191.2700  176.3640  142.4650 O   0  0  0  0  0  1  0  0  0  0  0  0
  188.2950  178.0820  141.3090 C   0  0  0  0  0  0  0  0  0  0  0  0
  189.6350  177.4770  143.7540 C   0  0  0  0  0  3  0  0  0  0  0  0
  188.3240  177.7600  143.7420 C   0  0  0  0  0  0  0  0  0  0  0  0
  190.3550  177.6020  140.0890 C   0  0  0  0  0  2  0  0  0  0  0  0
  189.7280  177.6930  141.2630 C   0  0  0  0  0  0  0  0  0  0  0  0
  190.5350  177.5520  142.5370 C   0  0  2  0  0  0  0  0  0  0  0  0
  187.6490  178.1080  142.4800 C   0  0  0  0  0  3  0  0  0  0  0  0
  186.2810  177.6070  144.9300 O   0  0  0  0  0  0  0  0  0  0  0  0
  187.5460  177.6380  144.9860 C   0  0  0  0  0  0  0  0  0  0  0  0
  188.2230  177.5580  146.2530 N   0  0  0  0  0  2  0  0  0  0  0  0
  186.2640  178.3640  147.5030 C   0  0  0  0  0  1  0  0  0  0  0  0
  187.5560  177.5550  147.5540 C   0  0  0  0  0  3  0  0  0  0  0  0
  188.4780  178.1210  148.6330 C   0  0  0  0  0  1  0  0  0  0  0  0
  191.1890  179.3380  143.8560 C   0  0  0  0  0  1  0  0  0  0  0  0
  191.3970  178.6740  142.6320 O   0  0  0  0  0  0  0  0  0  0  0  0
  181.2190  174.5070  136.1070 C   0  0  2  0  0  3  0  0  0  0  0  0
  181.0990  173.0550  136.6250 C   0  0  0  0  0  2  0  0  0  0  0  0
  180.2110  172.1740  135.7620 C   0  0  0  0  0  2  0  0  0  0  0  0
  179.6210  171.0290  136.5610 C   0  0  0  0  0  2  0  0  0  0  0  0
  179.3720  169.8620  135.6270 C   0  0  0  0  0  1  0  0  0  0  0  0
  182.4930  174.6380  135.2640 C   0  0  0  0  0  2  0  0  0  0  0  0
  183.4450  173.4680  135.4940 C   0  0  1  0  0  3  0  0  0  0  0  0
  183.1580  172.4200  134.6170 O   0  0  0  0  0  1  0  0  0  0  0  0
  184.9030  173.9030  135.3740 C   0  0  0  0  0  2  0  0  0  0  0  0
  185.8770  172.7820  135.7100 C   0  0  0  0  0  2  0  0  0  0  0  0
  186.8250  174.4480  137.1160 O   0  0  0  0  0  0  0  0  0  0  0  0
  186.7840  173.2300  136.8020 C   0  0  0  0  0  0  0  0  0  0  0  0
  187.6720  172.3320  137.3760 O   0  0  0  0  0  1  0  0  0  0  0  0
  1 16  1  0  0  0  0
  2 17  1  0  0  0  0
  2 12  1  0  0  0  0
  3  7  2  0  0  0  0
  4 13  1  6  0  0  0
  4  1  1  0  0  0  0
  5  9  1  0  0  0  0
  5  3  1  0  0  0  0
  6 18  2  0  0  0  0
  8 15  1  0  0  0  0
  9 19  1  6  0  0  0
 11  8  1  0  0  0  0
 12 13  1  6  0  0  0
 12  4  1  0  0  0  0
 14 11  1  0  0  0  0
 14 29  1  1  0  0  0
 14 10  1  0  0  0  0
 15 18  1  0  0  0  0
 16  3  1  0  0  0  0
 17 10  1  0  0  0  0
 17 20  1  1  0  0  0
 18  9  1  0  0  0  0
 21 29  1  0  0  0  0
 22 23  2  0  0  0  0
 25 28  1  6  0  0  0
 25 21  1  0  0  0  0
 25 27  1  0  0  0  0
 26 23  1  0  0  0  0
 26 32  1  1  0  0  0
 27 28  1  6  0  0  0
 27 30  1  0  0  0  0
 29 22  2  0  0  0  0
 30 24  2  0  0  0  0
 30 26  1  0  0  0  0
 32 38  2  0  0  0  0
 34 33  2  0  0  0  0
 34 40  1  0  0  0  0
 35 36  2  0  0  0  0
 36 32  1  0  0  0  0
 36 37  1  0  0  0  0
 37 31  1  6  0  0  0
 37 46  1  0  0  0  0
 37 33  1  0  0  0  0
 38 34  1  0  0  0  0
 39 40  2  0  0  0  0
 40 41  1  0  0  0  0
 41 43  1  0  0  0  0
 42 43  1  0  0  0  0
 43 44  1  0  0  0  0
 46 45  1  0  0  0  0
 47 52  1  1  0  0  0
 47 48  1  0  0  0  0
 47  2  1  0  0  0  0
 49 50  1  0  0  0  0
 49 48  1  0  0  0  0
 51 50  1  0  0  0  0
 52 53  1  0  0  0  0
 53 54  1  6  0  0  0
 55 53  1  0  0  0  0
 55 56  1  0  0  0  0
 56 58  1  0  0  0  0
 58 57  2  0  0  0  0
 58 59  1  0  0  0  0
M  END
>  <MODEL>
1

>  <REMARK>
 VINA RESULT:      -6.3      0.000      0.000
  Name = 
  14 active torsions:
  status: ('A' for Active; 'I' for Inactive)
    1  A    between atoms: C_2  and  C_32
    2  A    between atoms: N_10  and  C_27
    3  A    between atoms: C_14  and  C_30
    4  A    between atoms: C_15  and  C_20
    5  A    between atoms: C_15  and  C_39
    6  A    between atoms: C_17  and  C_50
    7  A    between atoms: C_18  and  N_42
    8  A    between atoms: C_19  and  C_38
    9  A    between atoms: C_19  and  C_50
   10  A    between atoms: C_27  and  C_39
   11  A    between atoms: C_27  and  C_58
   12  A    between atoms: C_36  and  C_44
   13  A    between atoms: O_37  and  C_52
   14  A    between atoms: C_38  and  C_58
                            x       y       z     vdW  Elec       q    Type
                         _______ _______ _______ _____ _____    ______ ____

>  <TORSDO>
F 14

$$$$
=
 OpenBabel11062416093D

 59 63  0  0  1  0  0  0  0  0999 V2000
  180.1280  175.7290  138.6000 C   0  0  0  0  0  2  0  0  0  0  0  0
  183.1140  175.9070  136.3850 N   0  0  0  0  0  0  0  0  0  0  0  0
  179.3610  177.9120  139.5080 C   0  0  0  0  0  0  0  0  0  0  0  0
  180.9540  176.2900  137.4570 C   0  0  1  0  0  3  0  0  0  0  0  0
  180.0550  178.8440  138.7290 O   0  0  0  0  0  0  0  0  0  0  0  0
  181.4690  180.5930  137.1030 O   0  0  0  0  0  0  0  0  0  0  0  0
  179.1110  178.1340  140.7230 O   0  0  0  0  0  0  0  0  0  0  0  0
  183.7800  180.2340  139.2760 O   0  0  0  0  0  0  0  0  0  0  0  0
  180.5430  180.0730  139.2510 C   0  0  1  0  0  3  0  0  0  0  0  0
  183.7800  177.5680  138.1120 C   0  0  0  0  0  2  0  0  0  0  0  0
  184.5180  179.9840  138.1120 C   0  0  0  0  0  2  0  0  0  0  0  0
  181.9610  175.2420  137.0070 C   0  0  1  0  0  3  0  0  0  0  0  0
  180.6950  175.4940  136.2000 C   0  0  0  0  0  2  0  0  0  0  0  0
  184.9680  178.5240  138.0490 C   0  0  1  0  0  3  0  0  0  0  0  0
  182.8030  181.0800  138.9070 O   0  0  0  0  0  0  0  0  0  0  0  0
  178.9310  176.6230  138.8880 C   0  0  0  0  0  2  0  0  0  0  0  0
  184.1200  176.2600  137.4110 C   0  0  1  0  0  3  0  0  0  0  0  0
  181.6170  180.5960  138.3590 C   0  0  0  0  0  0  0  0  0  0  0  0
  179.4100  181.0850  139.3330 C   0  0  0  0  0  1  0  0  0  0  0  0
  184.4200  175.1380  138.4020 C   0  0  0  0  0  1  0  0  0  0  0  0
  187.2770  177.7370  138.7670 O   0  0  0  0  0  0  0  0  0  0  0  0
  185.7220  178.3330  140.3540 C   0  0  0  0  0  0  0  0  0  0  0  0
  185.7420  178.3960  141.6490 C   0  0  0  0  0  3  0  0  0  0  0  0
  188.3050  176.5040  141.7640 O   0  0  0  0  0  0  0  0  0  0  0  0
  188.4680  178.4730  139.0600 C   0  0  1  0  0  3  0  0  0  0  0  0
  187.1050  178.5060  142.2650 C   0  0  2  0  0  3  0  0  0  0  0  0
  189.0160  178.4010  140.5040 C   0  0  2  0  0  3  0  0  0  0  0  0
  189.5510  177.4780  139.4250 C   0  0  0  0  0  2  0  0  0  0  0  0
  185.9960  178.2020  139.0960 C   0  0  0  0  0  0  0  0  0  0  0  0
  188.1550  177.6960  141.5240 C   0  0  0  0  0  0  0  0  0  0  0  0
  185.7620  179.7680  146.7750 O   0  0  0  0  0  1  0  0  0  0  0  0
  187.1240  178.2940  143.7570 C   0  0  0  0  0  0  0  0  0  0  0  0
  187.2990  177.9860  146.5880 C   0  0  0  0  0  3  0  0  0  0  0  0
  188.2830  177.5480  145.7880 C   0  0  0  0  0  0  0  0  0  0  0  0
  185.0450  179.5420  144.0450 C   0  0  0  0  0  2  0  0  0  0  0  0
  186.0500  178.8690  144.6080 C   0  0  0  0  0  0  0  0  0  0  0  0
  185.9920  178.5690  146.0910 C   0  0  2  0  0  0  0  0  0  0  0  0
  188.1650  177.6770  144.3250 C   0  0  0  0  0  3  0  0  0  0  0  0
  189.6050  176.9070  147.6450 O   0  0  0  0  0  0  0  0  0  0  0  0
  189.5170  177.0140  146.3860 C   0  0  0  0  0  0  0  0  0  0  0  0
  190.6150  176.6220  145.5420 N   0  0  0  0  0  2  0  0  0  0  0  0
  192.3580  174.8980  145.3460 C   0  0  0  0  0  1  0  0  0  0  0  0
  191.9250  176.1930  146.0260 C   0  0  0  0  0  3  0  0  0  0  0  0
  191.9020  175.9970  147.5410 C   0  0  0  0  0  1  0  0  0  0  0  0
  184.4520  177.7760  147.6260 C   0  0  0  0  0  1  0  0  0  0  0  0
  184.9310  177.6530  146.3080 O   0  0  0  0  0  0  0  0  0  0  0  0
  183.6750  175.0290  135.3320 C   0  0  2  0  0  3  0  0  0  0  0  0
  183.5710  173.5270  135.6820 C   0  0  0  0  0  2  0  0  0  0  0  0
  182.7760  172.7210  134.6690 C   0  0  0  0  0  2  0  0  0  0  0  0
  181.6200  171.9910  135.3250 C   0  0  0  0  0  2  0  0  0  0  0  0
  182.0560  171.5280  136.7000 C   0  0  0  0  0  1  0  0  0  0  0  0
  185.1460  175.3940  135.1050 C   0  0  0  0  0  2  0  0  0  0  0  0
  186.0830  174.2980  135.6020 C   0  0  1  0  0  3  0  0  0  0  0  0
  186.3120  173.3530  134.5990 O   0  0  0  0  0  1  0  0  0  0  0  0
  187.3950  174.8780  136.1220 C   0  0  0  0  0  2  0  0  0  0  0  0
  187.6110  176.3200  135.6850 C   0  0  0  0  0  2  0  0  0  0  0  0
  189.8650  175.7960  136.2270 O   0  0  0  0  0  1  0  0  0  0  0  0
  189.0600  176.6480  135.7680 C   0  0  0  0  0  0  0  0  0  0  0  0
  189.4980  177.9290  135.4650 O   0  0  0  0  0  0  0  0  0  0  0  0
  1 16  1  0  0  0  0
  2 12  1  0  0  0  0
  2 17  1  0  0  0  0
  3  7  2  0  0  0  0
  4 13  1  6  0  0  0
  4  1  1  0  0  0  0
  5  9  1  0  0  0  0
  5  3  1  0  0  0  0
  6 18  2  0  0  0  0
  9 19  1  6  0  0  0
 11  8  1  0  0  0  0
 12 13  1  6  0  0  0
 12  4  1  0  0  0  0
 14 10  1  0  0  0  0
 14 11  1  0  0  0  0
 14 29  1  1  0  0  0
 15  8  1  0  0  0  0
 16  3  1  0  0  0  0
 17 10  1  0  0  0  0
 17 20  1  1  0  0  0
 18 15  1  0  0  0  0
 18  9  1  0  0  0  0
 21 25  1  0  0  0  0
 21 29  1  0  0  0  0
 22 23  2  0  0  0  0
 23 26  1  0  0  0  0
 25 28  1  6  0  0  0
 25 27  1  0  0  0  0
 26 32  1  1  0  0  0
 27 28  1  6  0  0  0
 27 30  1  0  0  0  0
 29 22  2  0  0  0  0
 30 24  2  0  0  0  0
 30 26  1  0  0  0  0
 32 38  2  0  0  0  0
 32 36  1  0  0  0  0
 34 40  1  0  0  0  0
 34 33  2  0  0  0  0
 35 36  2  0  0  0  0
 36 37  1  0  0  0  0
 37 46  1  0  0  0  0
 37 33  1  0  0  0  0
 37 31  1  1  0  0  0
 38 34  1  0  0  0  0
 40 39  2  0  0  0  0
 41 43  1  0  0  0  0
 41 40  1  0  0  0  0
 42 43  1  0  0  0  0
 43 44  1  0  0  0  0
 46 45  1  0  0  0  0
 47 52  1  1  0  0  0
 47 48  1  0  0  0  0
 47  2  1  0  0  0  0
 49 50  1  0  0  0  0
 49 48  1  0  0  0  0
 50 51  1  0  0  0  0
 52 53  1  0  0  0  0
 53 54  1  6  0  0  0
 53 55  1  0  0  0  0
 56 58  1  0  0  0  0
 56 55  1  0  0  0  0
 58 57  1  0  0  0  0
 59 58  2  0  0  0  0
M  END
>  <MODEL>
2

>  <REMARK>
 VINA RESULT:      -6.2      1.924      3.500
  Name = 
  14 active torsions:
  status: ('A' for Active; 'I' for Inactive)
    1  A    between atoms: C_2  and  C_32
    2  A    between atoms: N_10  and  C_27
    3  A    between atoms: C_14  and  C_30
    4  A    between atoms: C_15  and  C_20
    5  A    between atoms: C_15  and  C_39
    6  A    between atoms: C_17  and  C_50
    7  A    between atoms: C_18  and  N_42
    8  A    between atoms: C_19  and  C_38
    9  A    between atoms: C_19  and  C_50
   10  A    between atoms: C_27  and  C_39
   11  A    between atoms: C_27  and  C_58
   12  A    between atoms: C_36  and  C_44
   13  A    between atoms: O_37  and  C_52
   14  A    between atoms: C_38  and  C_58
                            x       y       z     vdW  Elec       q    Type
                         _______ _______ _______ _____ _____    ______ ____

>  <TORSDO>
F 14

$$$$
=
 OpenBabel11062416093D

 59 63  0  0  1  0  0  0  0  0999 V2000
  188.5580  173.3960  135.6470 C   0  0  0  0  0  2  0  0  0  0  0  0
  191.4220  175.5900  136.5630 N   0  0  0  0  0  0  0  0  0  0  0  0
  186.3590  174.5460  135.4940 C   0  0  0  0  0  0  0  0  0  0  0  0
  189.4190  174.6410  135.5380 C   0  0  1  0  0  3  0  0  0  0  0  0
  186.7070  175.9020  135.4890 O   0  0  0  0  0  0  0  0  0  0  0  0
  187.5240  178.5530  135.4630 O   0  0  0  0  0  0  0  0  0  0  0  0
  185.3010  174.1460  136.0500 O   0  0  0  0  0  0  0  0  0  0  0  0
  187.4250  178.2780  138.6420 O   0  0  0  0  0  0  0  0  0  0  0  0
  185.9200  176.9010  136.1240 C   0  0  1  0  0  3  0  0  0  0  0  0
  189.6800  176.5330  138.0670 C   0  0  0  0  0  2  0  0  0  0  0  0
  188.7070  178.8240  138.4980 C   0  0  0  0  0  2  0  0  0  0  0  0
  190.8020  174.3410  136.0980 C   0  0  1  0  0  3  0  0  0  0  0  0
  190.5710  174.3850  134.5940 C   0  0  0  0  0  2  0  0  0  0  0  0
  189.7840  177.8120  138.8940 C   0  0  1  0  0  3  0  0  0  0  0  0
  186.7150  178.7490  137.6030 O   0  0  0  0  0  0  0  0  0  0  0  0
  187.2740  173.5580  134.8460 C   0  0  0  0  0  2  0  0  0  0  0  0
  191.0430  175.8600  137.9670 C   0  0  1  0  0  3  0  0  0  0  0  0
  186.7590  178.1090  136.3660 C   0  0  0  0  0  0  0  0  0  0  0  0
  184.7400  177.2690  135.2370 C   0  0  0  0  0  1  0  0  0  0  0  0
  191.1530  174.6480  138.8890 C   0  0  0  0  0  1  0  0  0  0  0  0
  190.8020  176.8000  140.9930 O   0  0  0  0  0  0  0  0  0  0  0  0
  188.7990  177.9250  141.1160 C   0  0  0  0  0  0  0  0  0  0  0  0
  187.9940  178.2200  142.0890 C   0  0  0  0  0  3  0  0  0  0  0  0
  189.3150  175.9840  143.9390 O   0  0  0  0  0  0  0  0  0  0  0  0
  191.6560  177.3710  141.9880 C   0  0  1  0  0  3  0  0  0  0  0  0
  188.6130  178.2150  143.4550 C   0  0  2  0  0  3  0  0  0  0  0  0
  191.1060  177.4740  143.4280 C   0  0  2  0  0  3  0  0  0  0  0  0
  191.9630  176.2950  143.0090 C   0  0  0  0  0  2  0  0  0  0  0  0
  189.7750  177.5220  140.3680 C   0  0  0  0  0  0  0  0  0  0  0  0
  189.6520  177.1210  143.6290 C   0  0  0  0  0  0  0  0  0  0  0  0
  187.0070  176.7790  147.8250 O   0  0  0  0  0  1  0  0  0  0  0  0
  187.6130  178.2790  144.5820 C   0  0  0  0  0  0  0  0  0  0  0  0
  185.6310  178.2820  146.6330 C   0  0  0  0  0  3  0  0  0  0  0  0
  185.3160  178.6210  145.3740 C   0  0  0  0  0  0  0  0  0  0  0  0
  189.2290  177.3810  146.1770 C   0  0  0  0  0  2  0  0  0  0  0  0
  187.9900  177.8170  145.9430 C   0  0  0  0  0  0  0  0  0  0  0  0
  187.0380  177.9800  147.1090 C   0  0  2  0  0  0  0  0  0  0  0  0
  186.3550  178.6530  144.3300 C   0  0  0  0  0  3  0  0  0  0  0  0
  183.0640  179.0750  145.9470 O   0  0  0  0  0  0  0  0  0  0  0  0
  183.9090  178.8780  145.0250 C   0  0  0  0  0  0  0  0  0  0  0  0
  183.5030  178.9000  143.6450 N   0  0  0  0  0  2  0  0  0  0  0  0
  181.2620  177.8880  143.7320 C   0  0  0  0  0  1  0  0  0  0  0  0
  182.1210  179.0260  143.1870 C   0  0  0  0  0  3  0  0  0  0  0  0
  182.0580  179.0340  141.6600 C   0  0  0  0  0  1  0  0  0  0  0  0
  188.5570  178.5740  148.7510 C   0  0  0  0  0  1  0  0  0  0  0  0
  187.5210  179.0390  147.9200 O   0  0  0  0  0  0  0  0  0  0  0  0
  192.8900  175.5010  136.3880 C   0  0  2  0  0  3  0  0  0  0  0  0
  193.4660  176.6580  135.5400 C   0  0  0  0  0  2  0  0  0  0  0  0
  194.5930  176.2300  134.6150 C   0  0  0  0  0  2  0  0  0  0  0  0
  195.9370  176.7220  135.1130 C   0  0  0  0  0  2  0  0  0  0  0  0
  195.9810  178.2310  134.9830 C   0  0  0  0  0  1  0  0  0  0  0  0
  193.2360  174.1660  135.7210 C   0  0  0  0  0  2  0  0  0  0  0  0
  193.9330  173.2140  136.6890 C   0  0  1  0  0  3  0  0  0  0  0  0
  193.3070  171.9650  136.6880 O   0  0  0  0  0  1  0  0  0  0  0  0
  195.4200  173.0850  136.3720 C   0  0  0  0  0  2  0  0  0  0  0  0
  196.0930  171.9770  137.1700 C   0  0  0  0  0  2  0  0  0  0  0  0
  196.2340  170.1110  135.7030 O   0  0  0  0  0  0  0  0  0  0  0  0
  196.8310  171.0800  136.2390 C   0  0  0  0  0  0  0  0  0  0  0  0
  198.1990  171.2360  136.0670 O   0  0  0  0  0  1  0  0  0  0  0  0
  2 17  1  0  0  0  0
  3  7  2  0  0  0  0
  4 13  1  6  0  0  0
  4  1  1  0  0  0  0
  4 12  1  0  0  0  0
  5  3  1  0  0  0  0
  5  9  1  0  0  0  0
  6 18  2  0  0  0  0
  9 19  1  6  0  0  0
  9 18  1  0  0  0  0
 10 14  1  0  0  0  0
 11  8  1  0  0  0  0
 11 14  1  0  0  0  0
 12 13  1  6  0  0  0
 12  2  1  0  0  0  0
 14 29  1  1  0  0  0
 15  8  1  0  0  0  0
 16  3  1  0  0  0  0
 16  1  1  0  0  0  0
 17 10  1  0  0  0  0
 17 20  1  1  0  0  0
 18 15  1  0  0  0  0
 21 25  1  0  0  0  0
 22 23  2  0  0  0  0
 23 26  1  0  0  0  0
 25 28  1  1  0  0  0
 25 27  1  0  0  0  0
 26 30  1  0  0  0  0
 26 32  1  1  0  0  0
 27 28  1  1  0  0  0
 27 30  1  0  0  0  0
 29 21  1  0  0  0  0
 29 22  2  0  0  0  0
 30 24  2  0  0  0  0
 32 36  1  0  0  0  0
 33 37  1  0  0  0  0
 34 33  2  0  0  0  0
 36 35  2  0  0  0  0
 36 37  1  0  0  0  0
 37 31  1  1  0  0  0
 37 46  1  0  0  0  0
 38 32  2  0  0  0  0
 38 34  1  0  0  0  0
 40 34  1  0  0  0  0
 40 39  2  0  0  0  0
 41 40  1  0  0  0  0
 43 41  1  0  0  0  0
 43 42  1  0  0  0  0
 44 43  1  0  0  0  0
 46 45  1  0  0  0  0
 47 48  1  6  0  0  0
 47  2  1  0  0  0  0
 49 50  1  0  0  0  0
 49 48  1  0  0  0  0
 51 50  1  0  0  0  0
 52 47  1  0  0  0  0
 52 53  1  0  0  0  0
 53 54  1  6  0  0  0
 55 53  1  0  0  0  0
 55 56  1  0  0  0  0
 57 58  2  0  0  0  0
 58 56  1  0  0  0  0
 59 58  1  0  0  0  0
M  END
>  <MODEL>
3

>  <REMARK>
 VINA RESULT:      -5.9      4.320      8.629
  Name = 
  14 active torsions:
  status: ('A' for Active; 'I' for Inactive)
    1  A    between atoms: C_2  and  C_32
    2  A    between atoms: N_10  and  C_27
    3  A    between atoms: C_14  and  C_30
    4  A    between atoms: C_15  and  C_20
    5  A    between atoms: C_15  and  C_39
    6  A    between atoms: C_17  and  C_50
    7  A    between atoms: C_18  and  N_42
    8  A    between atoms: C_19  and  C_38
    9  A    between atoms: C_19  and  C_50
   10  A    between atoms: C_27  and  C_39
   11  A    between atoms: C_27  and  C_58
   12  A    between atoms: C_36  and  C_44
   13  A    between atoms: O_37  and  C_52
   14  A    between atoms: C_38  and  C_58
                            x       y       z     vdW  Elec       q    Type
                         _______ _______ _______ _____ _____    ______ ____

>  <TORSDO>
F 14

$$$$
=
 OpenBabel11062416093D

 59 63  0  0  1  0  0  0  0  0999 V2000
  187.2880  172.8780  136.0820 C   0  0  0  0  0  2  0  0  0  0  0  0
  190.5280  174.7050  136.2010 N   0  0  0  0  0  0  0  0  0  0  0  0
  185.2650  174.3220  136.0970 C   0  0  0  0  0  0  0  0  0  0  0  0
  188.2720  173.9510  135.6530 C   0  0  1  0  0  3  0  0  0  0  0  0
  185.7800  175.5970  135.8320 O   0  0  0  0  0  0  0  0  0  0  0  0
  186.9180  178.0650  135.2770 O   0  0  0  0  0  0  0  0  0  0  0  0
  184.2770  174.1640  136.8630 O   0  0  0  0  0  0  0  0  0  0  0  0
  187.3390  178.2200  138.4380 O   0  0  0  0  0  0  0  0  0  0  0  0
  185.2530  176.7780  136.4210 C   0  0  1  0  0  3  0  0  0  0  0  0
  189.2130  176.0890  137.7950 C   0  0  0  0  0  2  0  0  0  0  0  0
  188.6370  178.5390  138.0170 C   0  0  0  0  0  2  0  0  0  0  0  0
  189.6790  173.5170  136.0330 C   0  0  1  0  0  3  0  0  0  0  0  0
  189.1970  173.4010  134.5940 C   0  0  0  0  0  2  0  0  0  0  0  0
  189.6250  177.4330  138.3910 C   0  0  1  0  0  3  0  0  0  0  0  0
  186.5270  178.6570  137.4610 O   0  0  0  0  0  0  0  0  0  0  0  0
  185.9160  173.1310  135.4740 C   0  0  0  0  0  2  0  0  0  0  0  0
  190.4380  175.2080  137.5900 C   0  0  1  0  0  3  0  0  0  0  0  0
  186.2710  177.8640  136.3440 C   0  0  0  0  0  0  0  0  0  0  0  0
  183.9940  177.2060  135.6800 C   0  0  0  0  0  1  0  0  0  0  0  0
  190.5490  174.1210  138.6570 C   0  0  0  0  0  1  0  0  0  0  0  0
  191.0490  176.9080  140.4320 O   0  0  0  0  0  0  0  0  0  0  0  0
  188.8870  177.6480  140.6990 C   0  0  0  0  0  0  0  0  0  0  0  0
  188.1510  177.9110  141.7340 C   0  0  0  0  0  3  0  0  0  0  0  0
  190.0860  176.2180  143.6190 O   0  0  0  0  0  0  0  0  0  0  0  0
  191.8750  177.7510  141.2390 C   0  0  1  0  0  3  0  0  0  0  0  0
  188.9040  178.1980  142.9990 C   0  0  2  0  0  3  0  0  0  0  0  0
  191.4770  177.9360  142.7210 C   0  0  2  0  0  3  0  0  0  0  0  0
  192.5010  176.8920  142.3190 C   0  0  0  0  0  2  0  0  0  0  0  0
  189.8360  177.3400  139.8750 C   0  0  0  0  0  0  0  0  0  0  0  0
  190.1530  177.3470  143.1480 C   0  0  0  0  0  0  0  0  0  0  0  0
  187.8320  176.6340  147.4870 O   0  0  0  0  0  1  0  0  0  0  0  0
  188.0410  178.2200  144.2350 C   0  0  0  0  0  0  0  0  0  0  0  0
  186.3100  178.1460  146.5020 C   0  0  0  0  0  3  0  0  0  0  0  0
  185.8470  178.5100  145.2970 C   0  0  0  0  0  0  0  0  0  0  0  0
  189.8410  177.3070  145.6090 C   0  0  0  0  0  2  0  0  0  0  0  0
  188.5790  177.7310  145.5310 C   0  0  0  0  0  0  0  0  0  0  0  0
  187.7660  177.8530  146.8030 C   0  0  2  0  0  0  0  0  0  0  0  0
  186.7570  178.5820  144.1410 C   0  0  0  0  0  3  0  0  0  0  0  0
  183.6310  178.6610  146.1160 O   0  0  0  0  0  0  0  0  0  0  0  0
  184.4070  178.7560  145.1190 C   0  0  0  0  0  0  0  0  0  0  0  0
  183.8890  179.0960  143.8210 N   0  0  0  0  0  2  0  0  0  0  0  0
  181.6060  178.5310  144.5380 C   0  0  0  0  0  1  0  0  0  0  0  0
  182.4710  179.2440  143.5030 C   0  0  0  0  0  3  0  0  0  0  0  0
  182.1690  178.6910  142.1100 C   0  0  0  0  0  1  0  0  0  0  0  0
  188.8380  178.3810  148.7860 C   0  0  0  0  0  1  0  0  0  0  0  0
  188.3280  178.8980  147.5800 O   0  0  0  0  0  0  0  0  0  0  0  0
  191.9190  174.3700  135.8180 C   0  0  2  0  0  3  0  0  0  0  0  0
  192.2250  172.8580  135.9240 C   0  0  0  0  0  2  0  0  0  0  0  0
  193.6800  172.5120  135.6520 C   0  0  0  0  0  2  0  0  0  0  0  0
  194.2840  171.7180  136.7920 C   0  0  0  0  0  2  0  0  0  0  0  0
  195.0370  172.6670  137.7010 C   0  0  0  0  0  1  0  0  0  0  0  0
  192.8880  175.1440  136.7180 C   0  0  0  0  0  2  0  0  0  0  0  0
  193.5320  176.3140  135.9810 C   0  0  1  0  0  3  0  0  0  0  0  0
  194.1570  177.1800  136.8810 O   0  0  0  0  0  1  0  0  0  0  0  0
  194.5090  175.8310  134.9130 C   0  0  0  0  0  2  0  0  0  0  0  0
  195.9000  176.4290  135.0790 C   0  0  0  0  0  2  0  0  0  0  0  0
  197.0300  174.3440  134.9240 O   0  0  0  0  0  0  0  0  0  0  0  0
  196.8250  175.3860  135.5990 C   0  0  0  0  0  0  0  0  0  0  0  0
  197.3520  175.5040  136.8760 O   0  0  0  0  0  1  0  0  0  0  0  0
  2 17  1  0  0  0  0
  3  7  2  0  0  0  0
  4 13  1  6  0  0  0
  4 12  1  0  0  0  0
  4  1  1  0  0  0  0
  5  3  1  0  0  0  0
  5  9  1  0  0  0  0
  6 18  2  0  0  0  0
  9 19  1  6  0  0  0
 10 14  1  0  0  0  0
 11 14  1  0  0  0  0
 11  8  1  0  0  0  0
 12 13  1  6  0  0  0
 12  2  1  0  0  0  0
 14 29  1  1  0  0  0
 15  8  1  0  0  0  0
 16  1  1  0  0  0  0
 16  3  1  0  0  0  0
 17 10  1  0  0  0  0
 17 20  1  1  0  0  0
 18  9  1  0  0  0  0
 18 15  1  0  0  0  0
 21 25  1  0  0  0  0
 22 23  2  0  0  0  0
 23 26  1  0  0  0  0
 25 28  1  1  0  0  0
 25 27  1  0  0  0  0
 26 30  1  0  0  0  0
 26 32  1  1  0  0  0
 27 28  1  1  0  0  0
 27 30  1  0  0  0  0
 29 21  1  0  0  0  0
 29 22  2  0  0  0  0
 30 24  2  0  0  0  0
 32 36  1  0  0  0  0
 33 37  1  0  0  0  0
 34 33  2  0  0  0  0
 36 35  2  0  0  0  0
 36 37  1  0  0  0  0
 37 31  1  1  0  0  0
 37 46  1  0  0  0  0
 38 32  2  0  0  0  0
 38 34  1  0  0  0  0
 40 34  1  0  0  0  0
 40 39  2  0  0  0  0
 41 40  1  0  0  0  0
 43 41  1  0  0  0  0
 43 42  1  0  0  0  0
 44 43  1  0  0  0  0
 46 45  1  0  0  0  0
 47 48  1  1  0  0  0
 47  2  1  0  0  0  0
 47 52  1  0  0  0  0
 49 48  1  0  0  0  0
 49 50  1  0  0  0  0
 50 51  1  0  0  0  0
 53 52  1  0  0  0  0
 53 54  1  1  0  0  0
 55 56  1  0  0  0  0
 55 53  1  0  0  0  0
 56 58  1  0  0  0  0
 57 58  2  0  0  0  0
 58 59  1  0  0  0  0
M  END
>  <MODEL>
4

>  <REMARK>
 VINA RESULT:      -5.9      3.999      7.992
  Name = 
  14 active torsions:
  status: ('A' for Active; 'I' for Inactive)
    1  A    between atoms: C_2  and  C_32
    2  A    between atoms: N_10  and  C_27
    3  A    between atoms: C_14  and  C_30
    4  A    between atoms: C_15  and  C_20
    5  A    between atoms: C_15  and  C_39
    6  A    between atoms: C_17  and  C_50
    7  A    between atoms: C_18  and  N_42
    8  A    between atoms: C_19  and  C_38
    9  A    between atoms: C_19  and  C_50
   10  A    between atoms: C_27  and  C_39
   11  A    between atoms: C_27  and  C_58
   12  A    between atoms: C_36  and  C_44
   13  A    between atoms: O_37  and  C_52
   14  A    between atoms: C_38  and  C_58
                            x       y       z     vdW  Elec       q    Type
                         _______ _______ _______ _____ _____    ______ ____

>  <TORSDO>
F 14

$$$$
=
 OpenBabel11062416093D

 59 63  0  0  1  0  0  0  0  0999 V2000
  181.5100  174.6980  137.1430 C   0  0  0  0  0  2  0  0  0  0  0  0
  184.5770  176.3640  135.8470 N   0  0  0  0  0  0  0  0  0  0  0  0
  179.9760  176.1720  138.4280 C   0  0  0  0  0  0  0  0  0  0  0  0
  182.2750  175.8050  136.4390 C   0  0  1  0  0  3  0  0  0  0  0  0
  180.4490  177.4570  138.1360 O   0  0  0  0  0  0  0  0  0  0  0  0
  181.4620  179.9510  137.4640 O   0  0  0  0  0  0  0  0  0  0  0  0
  179.4970  175.8940  139.5600 O   0  0  0  0  0  0  0  0  0  0  0  0
  183.4310  179.4560  139.9280 O   0  0  0  0  0  0  0  0  0  0  0  0
  180.4470  178.5120  139.0890 C   0  0  1  0  0  3  0  0  0  0  0  0
  184.4330  177.4410  138.0850 C   0  0  0  0  0  2  0  0  0  0  0  0
  184.3700  179.8130  138.9510 C   0  0  0  0  0  2  0  0  0  0  0  0
  183.6120  175.2600  135.9610 C   0  0  1  0  0  3  0  0  0  0  0  0
  182.4620  175.4500  134.9820 C   0  0  0  0  0  2  0  0  0  0  0  0
  185.2590  178.6240  138.5820 C   0  0  1  0  0  3  0  0  0  0  0  0
  182.3030  180.1050  139.5950 O   0  0  0  0  0  0  0  0  0  0  0  0
  180.0650  175.1100  137.3810 C   0  0  0  0  0  2  0  0  0  0  0  0
  185.2630  176.5820  137.1400 C   0  0  1  0  0  3  0  0  0  0  0  0
  181.4200  179.5600  138.6650 C   0  0  0  0  0  0  0  0  0  0  0  0
  179.0550  179.1190  139.1840 C   0  0  0  0  0  1  0  0  0  0  0  0
  185.7530  175.3000  137.8110 C   0  0  0  0  0  1  0  0  0  0  0  0
  187.4220  177.6320  139.4790 O   0  0  0  0  0  0  0  0  0  0  0  0
  185.8270  178.4210  140.9380 C   0  0  0  0  0  0  0  0  0  0  0  0
  185.7630  178.5150  142.2300 C   0  0  0  0  0  3  0  0  0  0  0  0
  188.1080  176.3810  142.5650 O   0  0  0  0  0  0  0  0  0  0  0  0
  188.6570  178.2540  139.8430 C   0  0  1  0  0  3  0  0  0  0  0  0
  187.0840  178.5050  142.9400 C   0  0  2  0  0  3  0  0  0  0  0  0
  189.0930  178.1650  141.3230 C   0  0  2  0  0  3  0  0  0  0  0  0
  189.6060  177.1660  140.3030 C   0  0  0  0  0  2  0  0  0  0  0  0
  186.1730  178.2300  139.7060 C   0  0  0  0  0  0  0  0  0  0  0  0
  188.0960  177.5760  142.2930 C   0  0  0  0  0  0  0  0  0  0  0  0
  185.7730  180.1230  147.3450 O   0  0  0  0  0  1  0  0  0  0  0  0
  186.9770  178.3310  144.4330 C   0  0  0  0  0  0  0  0  0  0  0  0
  186.9310  178.0660  147.2740 C   0  0  0  0  0  3  0  0  0  0  0  0
  187.8490  177.4210  146.5400 C   0  0  0  0  0  0  0  0  0  0  0  0
  185.1780  179.9750  144.5800 C   0  0  0  0  0  2  0  0  0  0  0  0
  185.9950  179.1290  145.2110 C   0  0  0  0  0  0  0  0  0  0  0  0
  185.7960  178.8850  146.6930 C   0  0  2  0  0  0  0  0  0  0  0  0
  187.8410  177.5340  145.0710 C   0  0  0  0  0  3  0  0  0  0  0  0
  188.7100  176.1950  148.3740 O   0  0  0  0  0  0  0  0  0  0  0  0
  188.9170  176.6670  147.2170 C   0  0  0  0  0  0  0  0  0  0  0  0
  190.1860  176.4750  146.5660 N   0  0  0  0  0  2  0  0  0  0  0  0
  192.1190  176.8580  148.0370 C   0  0  0  0  0  1  0  0  0  0  0  0
  191.3520  175.8500  147.1870 C   0  0  0  0  0  3  0  0  0  0  0  0
  192.2780  175.2620  146.1220 C   0  0  0  0  0  1  0  0  0  0  0  0
  183.7390  178.4200  145.7380 C   0  0  0  0  0  1  0  0  0  0  0  0
  184.5630  178.2040  146.8590 O   0  0  0  0  0  0  0  0  0  0  0  0
  185.5300  176.0690  134.7520 C   0  0  2  0  0  3  0  0  0  0  0  0
  186.3080  174.7520  134.9700 C   0  0  0  0  0  2  0  0  0  0  0  0
  185.4450  173.5080  134.8410 C   0  0  0  0  0  2  0  0  0  0  0  0
  185.7150  172.5270  135.9650 C   0  0  0  0  0  2  0  0  0  0  0  0
  185.4620  171.1230  135.4550 C   0  0  0  0  0  1  0  0  0  0  0  0
  186.5240  177.2290  134.6280 C   0  0  0  0  0  2  0  0  0  0  0  0
  187.9680  176.7480  134.7290 C   0  0  1  0  0  3  0  0  0  0  0  0
  188.8540  177.8220  134.6160 O   0  0  0  0  0  1  0  0  0  0  0  0
  188.2090  175.9690  136.0190 C   0  0  0  0  0  2  0  0  0  0  0  0
  189.6350  175.4480  136.1310 C   0  0  0  0  0  2  0  0  0  0  0  0
  190.2710  174.1110  137.9900 O   0  0  0  0  0  1  0  0  0  0  0  0
  189.6360  174.1780  136.9060 C   0  0  0  0  0  0  0  0  0  0  0  0
  189.0480  173.0410  136.3710 O   0  0  0  0  0  0  0  0  0  0  0  0
  1 16  1  0  0  0  0
  2 12  1  0  0  0  0
  2 17  1  0  0  0  0
  3  7  2  0  0  0  0
  4 13  1  6  0  0  0
  4  1  1  0  0  0  0
  5  3  1  0  0  0  0
  5  9  1  0  0  0  0
  6 18  2  0  0  0  0
  9 19  1  6  0  0  0
 10 14  1  0  0  0  0
 11  8  1  0  0  0  0
 12 13  1  6  0  0  0
 12  4  1  0  0  0  0
 14 11  1  0  0  0  0
 14 29  1  1  0  0  0
 15  8  1  0  0  0  0
 16  3  1  0  0  0  0
 17 20  1  1  0  0  0
 17 10  1  0  0  0  0
 18  9  1  0  0  0  0
 18 15  1  0  0  0  0
 21 29  1  0  0  0  0
 21 25  1  0  0  0  0
 22 23  2  0  0  0  0
 23 26  1  0  0  0  0
 25 28  1  6  0  0  0
 25 27  1  0  0  0  0
 26 32  1  1  0  0  0
 27 28  1  6  0  0  0
 27 30  1  0  0  0  0
 29 22  2  0  0  0  0
 30 24  2  0  0  0  0
 30 26  1  0  0  0  0
 32 38  2  0  0  0  0
 32 36  1  0  0  0  0
 34 40  1  0  0  0  0
 34 33  2  0  0  0  0
 35 36  2  0  0  0  0
 36 37  1  0  0  0  0
 37 46  1  0  0  0  0
 37 33  1  0  0  0  0
 37 31  1  1  0  0  0
 38 34  1  0  0  0  0
 40 39  2  0  0  0  0
 41 43  1  0  0  0  0
 41 40  1  0  0  0  0
 43 42  1  0  0  0  0
 44 43  1  0  0  0  0
 45 46  1  0  0  0  0
 47 52  1  1  0  0  0
 47 48  1  0  0  0  0
 47  2  1  0  0  0  0
 49 48  1  0  0  0  0
 49 50  1  0  0  0  0
 51 50  1  0  0  0  0
 52 53  1  0  0  0  0
 53 54  1  1  0  0  0
 53 55  1  0  0  0  0
 55 56  1  0  0  0  0
 56 58  1  0  0  0  0
 58 57  1  0  0  0  0
 59 58  2  0  0  0  0
M  END
>  <MODEL>
5

>  <REMARK>
 VINA RESULT:      -5.3      2.308      4.330
  Name = 
  14 active torsions:
  status: ('A' for Active; 'I' for Inactive)
    1  A    between atoms: C_2  and  C_32
    2  A    between atoms: N_10  and  C_27
    3  A    between atoms: C_14  and  C_30
    4  A    between atoms: C_15  and  C_20
    5  A    between atoms: C_15  and  C_39
    6  A    between atoms: C_17  and  C_50
    7  A    between atoms: C_18  and  N_42
    8  A    between atoms: C_19  and  C_38
    9  A    between atoms: C_19  and  C_50
   10  A    between atoms: C_27  and  C_39
   11  A    between atoms: C_27  and  C_58
   12  A    between atoms: C_36  and  C_44
   13  A    between atoms: O_37  and  C_52
   14  A    between atoms: C_38  and  C_58
                            x       y       z     vdW  Elec       q    Type
                         _______ _______ _______ _____ _____    ______ ____

>  <TORSDO>
F 14

$$$$
=
 OpenBabel11062416093D

 59 63  0  0  1  0  0  0  0  0999 V2000
  184.0180  173.3520  136.7470 C   0  0  0  0  0  2  0  0  0  0  0  0
  185.5910  176.7250  136.6700 N   0  0  0  0  0  0  0  0  0  0  0  0
  181.5510  173.3350  136.4400 C   0  0  0  0  0  0  0  0  0  0  0  0
  184.2600  174.7380  136.1770 C   0  0  1  0  0  3  0  0  0  0  0  0
  181.2770  174.6290  135.9800 O   0  0  0  0  0  0  0  0  0  0  0  0
  180.8650  177.2110  135.0520 O   0  0  0  0  0  0  0  0  0  0  0  0
  180.7400  172.7230  137.1860 O   0  0  0  0  0  0  0  0  0  0  0  0
  180.7110  177.9540  138.1530 O   0  0  0  0  0  0  0  0  0  0  0  0
  180.1000  175.3400  136.3380 C   0  0  1  0  0  3  0  0  0  0  0  0
  183.5280  177.2590  137.9540 C   0  0  0  0  0  2  0  0  0  0  0  0
  181.6360  178.9180  137.7310 C   0  0  0  0  0  2  0  0  0  0  0  0
  185.6010  175.2550  136.6760 C   0  0  1  0  0  3  0  0  0  0  0  0
  185.4610  174.7110  135.2610 C   0  0  0  0  0  2  0  0  0  0  0  0
  183.0200  178.6490  138.3260 C   0  0  1  0  0  3  0  0  0  0  0  0
  179.9290  177.7160  137.0870 O   0  0  0  0  0  0  0  0  0  0  0  0
  182.8390  172.6840  136.0550 C   0  0  0  0  0  2  0  0  0  0  0  0
  185.0510  177.2410  137.9470 C   0  0  1  0  0  3  0  0  0  0  0  0
  180.3170  176.7980  136.1140 C   0  0  0  0  0  0  0  0  0  0  0  0
  178.9310  174.8620  135.4900 C   0  0  0  0  0  1  0  0  0  0  0  0
  185.6230  176.5580  139.1880 C   0  0  0  0  0  1  0  0  0  0  0  0
  181.9840  179.4650  140.5000 O   0  0  0  0  0  0  0  0  0  0  0  0
  184.0880  178.5340  140.5090 C   0  0  0  0  0  0  0  0  0  0  0  0
  184.9500  178.2760  141.4420 C   0  0  0  0  0  3  0  0  0  0  0  0
  183.4880  180.2910  143.4340 O   0  0  0  0  0  0  0  0  0  0  0  0
  181.2230  178.7710  141.4920 C   0  0  1  0  0  3  0  0  0  0  0  0
  184.3810  178.1620  142.8260 C   0  0  2  0  0  3  0  0  0  0  0  0
  181.8290  178.6580  142.9090 C   0  0  2  0  0  3  0  0  0  0  0  0
  180.8510  179.7670  142.5720 C   0  0  0  0  0  2  0  0  0  0  0  0
  183.0520  178.8730  139.8100 C   0  0  0  0  0  0  0  0  0  0  0  0
  183.2500  179.1420  143.0820 C   0  0  0  0  0  0  0  0  0  0  0  0
  186.0580  179.6590  147.1480 O   0  0  0  0  0  1  0  0  0  0  0  0
  185.4210  178.1450  143.9170 C   0  0  0  0  0  0  0  0  0  0  0  0
  187.4700  178.2370  145.9000 C   0  0  0  0  0  3  0  0  0  0  0  0
  187.7590  177.9220  144.6290 C   0  0  0  0  0  0  0  0  0  0  0  0
  183.8150  178.9470  145.5720 C   0  0  0  0  0  2  0  0  0  0  0  0
  185.0670  178.5790  145.2930 C   0  0  0  0  0  0  0  0  0  0  0  0
  186.0660  178.4610  146.4250 C   0  0  2  0  0  0  0  0  0  0  0  0
  186.6890  177.8400  143.6200 C   0  0  0  0  0  3  0  0  0  0  0  0
  189.8680  176.8600  144.8060 O   0  0  0  0  0  0  0  0  0  0  0  0
  189.1650  177.7420  144.2300 C   0  0  0  0  0  0  0  0  0  0  0  0
  189.7310  178.5680  143.1970 N   0  0  0  0  0  2  0  0  0  0  0  0
  191.6020  177.1450  142.4740 C   0  0  0  0  0  1  0  0  0  0  0  0
  191.1390  178.5610  142.8040 C   0  0  0  0  0  3  0  0  0  0  0  0
  192.0120  179.1440  143.9140 C   0  0  0  0  0  1  0  0  0  0  0  0
  186.5370  177.2590  148.3460 C   0  0  0  0  0  1  0  0  0  0  0  0
  185.6680  177.3740  147.2440 O   0  0  0  0  0  0  0  0  0  0  0  0
  186.9600  177.2220  136.4010 C   0  0  2  0  0  3  0  0  0  0  0  0
  187.1820  178.6700  136.8930 C   0  0  0  0  0  2  0  0  0  0  0  0
  188.4510  178.8450  137.7120 C   0  0  0  0  0  2  0  0  0  0  0  0
  188.8340  177.5620  138.4220 C   0  0  0  0  0  2  0  0  0  0  0  0
  189.0210  177.8590  139.8960 C   0  0  0  0  0  1  0  0  0  0  0  0
  187.2310  177.1540  134.8940 C   0  0  0  0  0  2  0  0  0  0  0  0
  188.6790  176.7750  134.5970 C   0  0  1  0  0  3  0  0  0  0  0  0
  189.5460  177.7950  134.9930 O   0  0  0  0  0  1  0  0  0  0  0  0
  189.0540  175.4480  135.2500 C   0  0  0  0  0  2  0  0  0  0  0  0
  190.5560  175.2940  135.4390 C   0  0  0  0  0  2  0  0  0  0  0  0
  191.7800  173.5250  136.4500 O   0  0  0  0  0  0  0  0  0  0  0  0
  190.8160  174.3280  136.5410 C   0  0  0  0  0  0  0  0  0  0  0  0
  189.9230  174.2270  137.5980 O   0  0  0  0  0  1  0  0  0  0  0  0
  2 12  1  0  0  0  0
  2 17  1  0  0  0  0
  3  7  2  0  0  0  0
  4 13  1  6  0  0  0
  4 12  1  0  0  0  0
  4  1  1  0  0  0  0
  5  9  1  0  0  0  0
  5  3  1  0  0  0  0
  6 18  2  0  0  0  0
  9 19  1  6  0  0  0
 10 14  1  0  0  0  0
 11  8  1  0  0  0  0
 11 14  1  0  0  0  0
 12 13  1  6  0  0  0
 14 29  1  1  0  0  0
 15  8  1  0  0  0  0
 16  3  1  0  0  0  0
 16  1  1  0  0  0  0
 17 10  1  0  0  0  0
 17 20  1  1  0  0  0
 18  9  1  0  0  0  0
 18 15  1  0  0  0  0
 21 25  1  0  0  0  0
 22 23  2  0  0  0  0
 23 26  1  0  0  0  0
 25 28  1  1  0  0  0
 25 27  1  0  0  0  0
 26 30  1  0  0  0  0
 26 32  1  1  0  0  0
 27 28  1  1  0  0  0
 27 30  1  0  0  0  0
 29 21  1  0  0  0  0
 29 22  2  0  0  0  0
 30 24  2  0  0  0  0
 32 36  1  0  0  0  0
 33 37  1  0  0  0  0
 34 33  2  0  0  0  0
 36 35  2  0  0  0  0
 36 37  1  0  0  0  0
 37 31  1  1  0  0  0
 37 46  1  0  0  0  0
 38 32  2  0  0  0  0
 38 34  1  0  0  0  0
 40 34  1  0  0  0  0
 40 39  2  0  0  0  0
 41 40  1  0  0  0  0
 42 43  1  0  0  0  0
 43 41  1  0  0  0  0
 43 44  1  0  0  0  0
 46 45  1  0  0  0  0
 47 52  1  6  0  0  0
 47  2  1  0  0  0  0
 47 48  1  0  0  0  0
 48 49  1  0  0  0  0
 49 50  1  0  0  0  0
 50 51  1  0  0  0  0
 53 52  1  0  0  0  0
 53 54  1  1  0  0  0
 53 55  1  0  0  0  0
 55 56  1  0  0  0  0
 56 58  1  0  0  0  0
 57 58  2  0  0  0  0
 58 59  1  0  0  0  0
M  END
>  <MODEL>
6

>  <REMARK>
 VINA RESULT:      -4.8      2.406      6.175
  Name = 
  14 active torsions:
  status: ('A' for Active; 'I' for Inactive)
    1  A    between atoms: C_2  and  C_32
    2  A    between atoms: N_10  and  C_27
    3  A    between atoms: C_14  and  C_30
    4  A    between atoms: C_15  and  C_20
    5  A    between atoms: C_15  and  C_39
    6  A    between atoms: C_17  and  C_50
    7  A    between atoms: C_18  and  N_42
    8  A    between atoms: C_19  and  C_38
    9  A    between atoms: C_19  and  C_50
   10  A    between atoms: C_27  and  C_39
   11  A    between atoms: C_27  and  C_58
   12  A    between atoms: C_36  and  C_44
   13  A    between atoms: O_37  and  C_52
   14  A    between atoms: C_38  and  C_58
                            x       y       z     vdW  Elec       q    Type
                         _______ _______ _______ _____ _____    ______ ____

>  <TORSDO>
F 14

$$$$
