=
 OpenBabel11062413203D

 30 34  0  0  1  0  0  0  0  0999 V2000
  191.8710  176.1760  143.0860 O   0  0  0  0  0  0  0  0  0  0  0  0
  190.8640  176.8660  142.7680 C   0  0  0  0  0  0  0  0  0  0  0  0
  190.7190  177.2860  141.3590 C   0  0  0  0  0  0  0  0  0  0  0  0
  190.0230  177.7270  138.3210 C   0  0  1  0  0  3  0  0  0  0  0  0
  189.4110  177.5720  140.8480 N   0  0  0  0  0  2  0  0  0  0  0  0
  191.7310  177.4140  140.6190 O   0  0  0  0  0  0  0  0  0  0  0  0
  189.1220  178.1880  137.2100 C   0  0  0  0  0  3  0  0  0  0  0  0
  187.9400  178.4870  137.7300 C   0  0  0  0  0  3  0  0  0  0  0  0
  189.0910  177.8610  139.4820 C   0  0  0  0  0  0  0  0  0  0  0  0
  187.9230  178.2800  139.1360 N   0  0  0  0  0  0  0  0  0  0  0  0
  190.2910  174.5870  136.6770 C   0  0  1  0  0  3  0  0  0  0  0  0
  191.7210  176.3340  137.4000 C   0  0  0  0  0  2  0  0  0  0  0  0
  191.7020  175.0940  136.5500 C   0  0  0  0  0  2  0  0  0  0  0  0
  190.2960  173.3930  137.3740 F   0  0  0  0  0  0  0  0  0  0  0  0
  190.4810  176.3340  138.1640 N   0  0  2  0  0  0  0  0  0  0  0  0
  189.5400  175.5820  137.4290 N   0  0  0  0  0  2  0  0  0  0  0  0
  190.1790  178.0460  144.9090 C   0  0  0  0  0  3  0  0  0  0  0  0
  189.8910  177.2200  143.8240 C   0  0  0  0  0  0  0  0  0  0  0  0
  189.0910  178.2330  145.7720 C   0  0  0  0  0  3  0  0  0  0  0  0
  188.2840  176.7210  143.9360 S   0  0  0  0  0  0  0  0  0  0  0  0
  187.9520  177.5630  145.3460 C   0  0  0  0  0  0  0  0  0  0  0  0
  186.6980  177.5050  146.0310 N   0  0  0  0  0  2  0  0  0  0  0  0
  185.3260  178.0840  143.0710 C   0  0  0  0  0  3  0  0  0  0  0  0
  183.0500  179.0580  143.3980 C   0  0  0  0  0  3  0  0  0  0  0  0
  183.5160  179.0200  145.8860 N   0  0  0  0  0  2  0  0  0  0  0  0
  184.0210  178.4760  142.3480 C   0  0  0  0  0  3  0  0  0  0  0  0
  184.5360  178.4910  146.5090 O   0  0  0  0  0  0  0  0  0  0  0  0
  185.1350  178.6570  144.4170 C   0  0  0  0  0  0  0  0  0  0  0  0
  183.8980  179.1440  144.6010 C   0  0  0  0  0  0  0  0  0  0  0  0
  185.5130  178.2240  145.6690 C   0  0  0  0  0  0  0  0  0  0  0  0
  2  1  2  0  0  0  0
  2 18  1  0  0  0  0
  3  2  1  0  0  0  0
  4  7  1  6  0  0  0
  4  9  1  0  0  0  0
  5  3  1  0  0  0  0
  6  3  2  0  0  0  0
  7  8  2  0  0  0  0
  8 10  1  0  0  0  0
  9  5  1  0  0  0  0
 10  9  2  0  0  0  0
 11 14  1  1  0  0  0
 11 16  1  0  0  0  0
 13 11  1  0  0  0  0
 13 12  1  0  0  0  0
 15 12  1  6  0  0  0
 15  4  1  0  0  0  0
 16 15  1  0  0  0  0
 17 19  1  0  0  0  0
 18 20  1  0  0  0  0
 18 17  2  0  0  0  0
 20 21  1  0  0  0  0
 21 19  2  0  0  0  0
 21 22  1  0  0  0  0
 23 28  1  0  0  0  0
 24 29  2  0  0  0  0
 25 27  1  0  0  0  0
 26 23  2  0  0  0  0
 26 24  1  0  0  0  0
 28 29  1  0  0  0  0
 28 30  2  0  0  0  0
 29 25  1  0  0  0  0
 30 22  1  0  0  0  0
 30 27  1  0  0  0  0
M  END
>  <MODEL>
1

>  <REMARK>
 VINA RESULT:      -9.2      0.000      0.000
  Name = 
  5 active torsions:
  status: ('A' for Active; 'I' for Inactive)
    1  A    between atoms: C_2  and  C_28
    2  A    between atoms: C_3  and  N_25
    3  A    between atoms: C_8  and  C_28
    4  A    between atoms: C_21  and  N_22
    5  A    between atoms: N_22  and  C_30
                            x       y       z     vdW  Elec       q    Type
                         _______ _______ _______ _____ _____    ______ ____

>  <TORSDO>
F 5

$$$$
=
 OpenBabel11062413203D

 30 34  0  0  1  0  0  0  0  0999 V2000
  183.8250  179.2680  144.7250 O   0  0  0  0  0  0  0  0  0  0  0  0
  184.7290  178.7150  144.0410 C   0  0  0  0  0  0  0  0  0  0  0  0
  185.8460  178.0610  144.7540 C   0  0  0  0  0  0  0  0  0  0  0  0
  188.4570  177.2140  146.2920 C   0  0  1  0  0  3  0  0  0  0  0  0
  186.2420  178.5600  146.0370 N   0  0  0  0  0  2  0  0  0  0  0  0
  186.4290  177.0620  144.2540 O   0  0  0  0  0  0  0  0  0  0  0  0
  189.3140  177.1280  147.5250 C   0  0  0  0  0  3  0  0  0  0  0  0
  188.7610  177.8780  148.4680 C   0  0  0  0  0  3  0  0  0  0  0  0
  187.3790  178.1230  146.7890 C   0  0  0  0  0  0  0  0  0  0  0  0
  187.5660  178.4950  148.0090 N   0  0  0  0  0  0  0  0  0  0  0  0
  191.3020  178.1770  144.3910 C   0  0  1  0  0  3  0  0  0  0  0  0
  189.4270  176.7440  144.1690 C   0  0  0  0  0  2  0  0  0  0  0  0
  190.7500  177.0700  143.5340 C   0  0  0  0  0  2  0  0  0  0  0  0
  191.3320  179.3500  143.6610 F   0  0  0  0  0  0  0  0  0  0  0  0
  189.1550  177.8000  145.1330 N   0  0  2  0  0  0  0  0  0  0  0  0
  190.4010  178.3370  145.5240 N   0  0  0  0  0  2  0  0  0  0  0  0
  183.4310  178.6000  141.8620 C   0  0  0  0  0  3  0  0  0  0  0  0
  184.6230  178.7590  142.5660 C   0  0  0  0  0  0  0  0  0  0  0  0
  183.5890  178.6840  140.4720 C   0  0  0  0  0  3  0  0  0  0  0  0
  185.8750  179.0030  141.4620 S   0  0  0  0  0  0  0  0  0  0  0  0
  184.9050  178.9240  140.0990 C   0  0  0  0  0  0  0  0  0  0  0  0
  185.4040  179.0050  138.7610 N   0  0  0  0  0  2  0  0  0  0  0  0
  188.6640  178.5100  139.0790 C   0  0  0  0  0  3  0  0  0  0  0  0
  189.2860  176.3770  137.9390 C   0  0  0  0  0  3  0  0  0  0  0  0
  186.8680  176.1940  137.2120 N   0  0  0  0  0  2  0  0  0  0  0  0
  189.8060  177.4930  138.8710 C   0  0  0  0  0  3  0  0  0  0  0  0
  185.8590  176.9450  137.5670 O   0  0  0  0  0  0  0  0  0  0  0  0
  187.6530  178.0660  138.1000 C   0  0  0  0  0  0  0  0  0  0  0  0
  187.9730  176.8990  137.5190 C   0  0  0  0  0  0  0  0  0  0  0  0
  186.2760  178.0560  138.1350 C   0  0  0  0  0  0  0  0  0  0  0  0
  2  1  2  0  0  0  0
  2  3  1  0  0  0  0
  3  5  1  0  0  0  0
  4  9  1  0  0  0  0
  4  7  1  1  0  0  0
  5  9  1  0  0  0  0
  6  3  2  0  0  0  0
  7  8  2  0  0  0  0
  9 10  2  0  0  0  0
 10  8  1  0  0  0  0
 11 14  1  6  0  0  0
 11 16  1  0  0  0  0
 13 12  1  0  0  0  0
 13 11  1  0  0  0  0
 15 12  1  6  0  0  0
 15 16  1  0  0  0  0
 15  4  1  0  0  0  0
 17 18  2  0  0  0  0
 18  2  1  0  0  0  0
 19 17  1  0  0  0  0
 20 18  1  0  0  0  0
 21 19  2  0  0  0  0
 21 20  1  0  0  0  0
 22 21  1  0  0  0  0
 24 26  1  0  0  0  0
 25 29  1  0  0  0  0
 25 27  1  0  0  0  0
 26 23  2  0  0  0  0
 27 30  1  0  0  0  0
 28 30  2  0  0  0  0
 28 23  1  0  0  0  0
 29 24  2  0  0  0  0
 29 28  1  0  0  0  0
 30 22  1  0  0  0  0
M  END
>  <MODEL>
2

>  <REMARK>
 VINA RESULT:      -9.1      3.001      7.752
  Name = 
  5 active torsions:
  status: ('A' for Active; 'I' for Inactive)
    1  A    between atoms: C_2  and  C_28
    2  A    between atoms: C_3  and  N_25
    3  A    between atoms: C_8  and  C_28
    4  A    between atoms: C_21  and  N_22
    5  A    between atoms: N_22  and  C_30
                            x       y       z     vdW  Elec       q    Type
                         _______ _______ _______ _____ _____    ______ ____

>  <TORSDO>
F 5

$$$$
=
 OpenBabel11062413203D

 30 34  0  0  1  0  0  0  0  0999 V2000
  192.2350  177.1180  141.3030 O   0  0  0  0  0  0  0  0  0  0  0  0
  191.0020  177.3830  141.2960 C   0  0  0  0  0  0  0  0  0  0  0  0
  190.3280  177.5460  139.9910 C   0  0  0  0  0  0  0  0  0  0  0  0
  188.5290  177.4630  137.4110 C   0  0  1  0  0  3  0  0  0  0  0  0
  188.9190  177.8080  139.9630 N   0  0  0  0  0  2  0  0  0  0  0  0
  190.9830  177.4800  138.9170 O   0  0  0  0  0  0  0  0  0  0  0  0
  187.2660  177.7640  136.6510 C   0  0  0  0  0  3  0  0  0  0  0  0
  186.3640  178.2200  137.5090 C   0  0  0  0  0  3  0  0  0  0  0  0
  188.1030  177.8600  138.7880 C   0  0  0  0  0  0  0  0  0  0  0  0
  186.8830  178.2750  138.8310 N   0  0  0  0  0  0  0  0  0  0  0  0
  188.1930  174.0620  136.4380 C   0  0  1  0  0  3  0  0  0  0  0  0
  189.7550  175.8270  136.1910 C   0  0  0  0  0  2  0  0  0  0  0  0
  189.4290  174.4540  135.6750 C   0  0  0  0  0  2  0  0  0  0  0  0
  188.4960  173.0210  137.2960 F   0  0  0  0  0  0  0  0  0  0  0  0
  188.9170  176.0420  137.3620 N   0  0  2  0  0  0  0  0  0  0  0  0
  187.7780  175.2220  137.2140 N   0  0  0  0  0  2  0  0  0  0  0  0
  190.7150  178.3740  143.6160 C   0  0  0  0  0  3  0  0  0  0  0  0
  190.3040  177.5220  142.5930 C   0  0  0  0  0  0  0  0  0  0  0  0
  189.8870  178.3280  144.7460 C   0  0  0  0  0  3  0  0  0  0  0  0
  188.9120  176.7100  143.0910 S   0  0  0  0  0  0  0  0  0  0  0  0
  188.8230  177.4500  144.5910 C   0  0  0  0  0  0  0  0  0  0  0  0
  187.8360  177.1330  145.5780 N   0  0  0  0  0  2  0  0  0  0  0  0
  185.4300  178.1580  143.5450 C   0  0  0  0  0  3  0  0  0  0  0  0
  183.5240  179.0300  144.9030 C   0  0  0  0  0  3  0  0  0  0  0  0
  184.9410  178.6000  146.9560 N   0  0  0  0  0  2  0  0  0  0  0  0
  183.9650  178.6400  143.4760 C   0  0  0  0  0  3  0  0  0  0  0  0
  186.0960  177.9950  147.0280 O   0  0  0  0  0  0  0  0  0  0  0  0
  185.8190  178.5050  144.9250 C   0  0  0  0  0  0  0  0  0  0  0  0
  184.7840  178.9360  145.6620 C   0  0  0  0  0  0  0  0  0  0  0  0
  186.6430  177.8820  145.8370 C   0  0  0  0  0  0  0  0  0  0  0  0
  2  1  2  0  0  0  0
  2 18  1  0  0  0  0
  3  2  1  0  0  0  0
  4  7  1  6  0  0  0
  4  9  1  0  0  0  0
  5  3  1  0  0  0  0
  6  3  2  0  0  0  0
  7  8  2  0  0  0  0
  8 10  1  0  0  0  0
  9 10  2  0  0  0  0
  9  5  1  0  0  0  0
 11 16  1  0  0  0  0
 11 14  1  1  0  0  0
 13 12  1  0  0  0  0
 13 11  1  0  0  0  0
 15 12  1  6  0  0  0
 15  4  1  0  0  0  0
 16 15  1  0  0  0  0
 17 19  1  0  0  0  0
 18 20  1  0  0  0  0
 18 17  2  0  0  0  0
 20 21  1  0  0  0  0
 21 19  2  0  0  0  0
 21 22  1  0  0  0  0
 22 30  1  0  0  0  0
 23 28  1  0  0  0  0
 24 29  2  0  0  0  0
 25 27  1  0  0  0  0
 26 23  2  0  0  0  0
 26 24  1  0  0  0  0
 28 29  1  0  0  0  0
 28 30  2  0  0  0  0
 29 25  1  0  0  0  0
 30 27  1  0  0  0  0
M  END
>  <MODEL>
3

>  <REMARK>
 VINA RESULT:      -9.1      1.319      1.594
  Name = 
  5 active torsions:
  status: ('A' for Active; 'I' for Inactive)
    1  A    between atoms: C_2  and  C_28
    2  A    between atoms: C_3  and  N_25
    3  A    between atoms: C_8  and  C_28
    4  A    between atoms: C_21  and  N_22
    5  A    between atoms: N_22  and  C_30
                            x       y       z     vdW  Elec       q    Type
                         _______ _______ _______ _____ _____    ______ ____

>  <TORSDO>
F 5

$$$$
=
 OpenBabel11062413203D

 30 34  0  0  1  0  0  0  0  0999 V2000
  191.7310  177.6820  140.8260 O   0  0  0  0  0  0  0  0  0  0  0  0
  190.6290  177.1500  140.5220 C   0  0  0  0  0  0  0  0  0  0  0  0
  190.4460  176.6530  139.1430 C   0  0  0  0  0  0  0  0  0  0  0  0
  189.4770  175.7000  136.3050 C   0  0  1  0  0  3  0  0  0  0  0  0
  189.7530  177.4720  138.1930 N   0  0  0  0  0  2  0  0  0  0  0  0
  190.9100  175.5350  138.7970 O   0  0  0  0  0  0  0  0  0  0  0  0
  188.9750  175.9510  134.9100 C   0  0  0  0  0  3  0  0  0  0  0  0
  188.6700  177.2370  134.8030 C   0  0  0  0  0  3  0  0  0  0  0  0
  189.3820  177.0820  136.8660 C   0  0  0  0  0  0  0  0  0  0  0  0
  188.9200  177.9330  136.0160 N   0  0  0  0  0  0  0  0  0  0  0  0
  186.7650  173.4520  136.7780 C   0  0  1  0  0  3  0  0  0  0  0  0
  189.1340  173.4060  136.8430 C   0  0  0  0  0  2  0  0  0  0  0  0
  187.9320  172.5030  136.8330 C   0  0  0  0  0  2  0  0  0  0  0  0
  186.0660  173.3870  137.9690 F   0  0  0  0  0  0  0  0  0  0  0  0
  188.6400  174.7570  137.0680 N   0  0  2  0  0  0  0  0  0  0  0  0
  187.3060  174.7930  136.6070 N   0  0  0  0  0  2  0  0  0  0  0  0
  189.4830  176.0210  142.4870 C   0  0  0  0  0  3  0  0  0  0  0  0
  189.5810  177.0600  141.5630 C   0  0  0  0  0  0  0  0  0  0  0  0
  188.4050  176.1610  143.3720 C   0  0  0  0  0  3  0  0  0  0  0  0
  188.3280  178.1530  141.8440 S   0  0  0  0  0  0  0  0  0  0  0  0
  187.6760  177.3200  143.1430 C   0  0  0  0  0  0  0  0  0  0  0  0
  186.4890  177.7230  143.8330 N   0  0  0  0  0  2  0  0  0  0  0  0
  188.6800  177.3380  146.2880 C   0  0  0  0  0  3  0  0  0  0  0  0
  187.8360  178.4980  148.3310 C   0  0  0  0  0  3  0  0  0  0  0  0
  185.7430  179.0460  147.0160 N   0  0  0  0  0  2  0  0  0  0  0  0
  189.0600  177.7900  147.7140 C   0  0  0  0  0  3  0  0  0  0  0  0
  185.5120  178.8470  145.7460 O   0  0  0  0  0  0  0  0  0  0  0  0
  187.2280  177.5940  146.2440 C   0  0  0  0  0  0  0  0  0  0  0  0
  186.7860  178.2530  147.3260 C   0  0  0  0  0  0  0  0  0  0  0  0
  186.3940  178.0160  145.2320 C   0  0  0  0  0  0  0  0  0  0  0  0
  2  1  2  0  0  0  0
  2 18  1  0  0  0  0
  3  2  1  0  0  0  0
  4  7  1  6  0  0  0
  4  9  1  0  0  0  0
  4 15  1  0  0  0  0
  5  3  1  0  0  0  0
  6  3  2  0  0  0  0
  8  7  2  0  0  0  0
  8 10  1  0  0  0  0
  9  5  1  0  0  0  0
 10  9  2  0  0  0  0
 11 13  1  0  0  0  0
 11 14  1  1  0  0  0
 13 12  1  0  0  0  0
 15 12  1  6  0  0  0
 16 11  1  0  0  0  0
 16 15  1  0  0  0  0
 17 19  1  0  0  0  0
 18 20  1  0  0  0  0
 18 17  2  0  0  0  0
 20 21  1  0  0  0  0
 21 19  2  0  0  0  0
 21 22  1  0  0  0  0
 22 30  1  0  0  0  0
 23 26  2  0  0  0  0
 25 29  1  0  0  0  0
 26 24  1  0  0  0  0
 27 25  1  0  0  0  0
 28 23  1  0  0  0  0
 28 29  1  0  0  0  0
 29 24  2  0  0  0  0
 30 27  1  0  0  0  0
 30 28  2  0  0  0  0
M  END
>  <MODEL>
4

>  <REMARK>
 VINA RESULT:      -8.8      2.198      3.482
  Name = 
  5 active torsions:
  status: ('A' for Active; 'I' for Inactive)
    1  A    between atoms: C_2  and  C_28
    2  A    between atoms: C_3  and  N_25
    3  A    between atoms: C_8  and  C_28
    4  A    between atoms: C_21  and  N_22
    5  A    between atoms: N_22  and  C_30
                            x       y       z     vdW  Elec       q    Type
                         _______ _______ _______ _____ _____    ______ ____

>  <TORSDO>
F 5

$$$$
=
 OpenBabel11062413203D

 30 34  0  0  1  0  0  0  0  0999 V2000
  182.3240  178.6280  141.2540 O   0  0  0  0  0  0  0  0  0  0  0  0
  183.5840  178.6320  141.2970 C   0  0  0  0  0  0  0  0  0  0  0  0
  184.3290  178.7000  140.0240 C   0  0  0  0  0  0  0  0  0  0  0  0
  186.1890  178.3520  137.5080 C   0  0  1  0  0  3  0  0  0  0  0  0
  184.3370  177.5580  139.1590 N   0  0  0  0  0  2  0  0  0  0  0  0
  184.9320  179.7540  139.6880 O   0  0  0  0  0  0  0  0  0  0  0  0
  186.5810  177.6870  136.2180 C   0  0  0  0  0  3  0  0  0  0  0  0
  185.8350  176.6020  136.0660 C   0  0  0  0  0  3  0  0  0  0  0  0
  185.1120  177.4200  137.9630 C   0  0  0  0  0  0  0  0  0  0  0  0
  184.9300  176.4370  137.1490 N   0  0  0  0  0  0  0  0  0  0  0  0
  189.0370  177.1310  139.2460 C   0  0  1  0  0  3  0  0  0  0  0  0
  188.4710  178.9470  137.8320 C   0  0  0  0  0  2  0  0  0  0  0  0
  189.6520  178.2460  138.4450 C   0  0  0  0  0  2  0  0  0  0  0  0
  189.2340  177.3730  140.5930 F   0  0  0  0  0  0  0  0  0  0  0  0
  187.2850  178.4190  138.4910 N   0  0  2  0  0  0  0  0  0  0  0  0
  187.6100  177.1270  138.9590 N   0  0  0  0  0  2  0  0  0  0  0  0
  183.6610  179.0000  143.8090 C   0  0  0  0  0  3  0  0  0  0  0  0
  184.2440  178.5640  142.6200 C   0  0  0  0  0  0  0  0  0  0  0  0
  184.4850  178.8280  144.9300 C   0  0  0  0  0  3  0  0  0  0  0  0
  185.7830  177.9640  142.9600 S   0  0  0  0  0  0  0  0  0  0  0  0
  185.7030  178.2420  144.6100 C   0  0  0  0  0  0  0  0  0  0  0  0
  186.7820  177.9860  145.5140 N   0  0  0  0  0  2  0  0  0  0  0  0
  189.4510  177.2970  147.3530 C   0  0  0  0  0  3  0  0  0  0  0  0
  191.3670  176.7550  145.8470 C   0  0  0  0  0  3  0  0  0  0  0  0
  189.8370  177.2810  143.8990 N   0  0  0  0  0  2  0  0  0  0  0  0
  190.8940  176.7510  147.3160 C   0  0  0  0  0  3  0  0  0  0  0  0
  188.5560  177.5370  143.9250 O   0  0  0  0  0  0  0  0  0  0  0  0
  189.2570  177.7910  145.9760 C   0  0  0  0  0  0  0  0  0  0  0  0
  190.2710  177.4630  145.1610 C   0  0  0  0  0  0  0  0  0  0  0  0
  188.1560  177.8120  145.1480 C   0  0  0  0  0  0  0  0  0  0  0  0
  1  2  2  0  0  0  0
  2 18  1  0  0  0  0
  3  2  1  0  0  0  0
  4  7  1  6  0  0  0
  4  9  1  0  0  0  0
  4 15  1  0  0  0  0
  5  3  1  0  0  0  0
  6  3  2  0  0  0  0
  8  7  2  0  0  0  0
  8 10  1  0  0  0  0
  9  5  1  0  0  0  0
 10  9  2  0  0  0  0
 11 14  1  1  0  0  0
 12 13  1  0  0  0  0
 13 11  1  0  0  0  0
 15 12  1  6  0  0  0
 15 16  1  0  0  0  0
 16 11  1  0  0  0  0
 17 19  1  0  0  0  0
 18 20  1  0  0  0  0
 18 17  2  0  0  0  0
 20 21  1  0  0  0  0
 21 19  2  0  0  0  0
 21 22  1  0  0  0  0
 24 26  1  0  0  0  0
 25 27  1  0  0  0  0
 25 29  1  0  0  0  0
 26 23  2  0  0  0  0
 27 30  1  0  0  0  0
 28 23  1  0  0  0  0
 29 24  2  0  0  0  0
 29 28  1  0  0  0  0
 30 22  1  0  0  0  0
 30 28  2  0  0  0  0
M  END
>  <MODEL>
5

>  <REMARK>
 VINA RESULT:      -8.7      2.748      5.491
  Name = 
  5 active torsions:
  status: ('A' for Active; 'I' for Inactive)
    1  A    between atoms: C_2  and  C_28
    2  A    between atoms: C_3  and  N_25
    3  A    between atoms: C_8  and  C_28
    4  A    between atoms: C_21  and  N_22
    5  A    between atoms: N_22  and  C_30
                            x       y       z     vdW  Elec       q    Type
                         _______ _______ _______ _____ _____    ______ ____

>  <TORSDO>
F 5

$$$$
=
 OpenBabel11062413203D

 30 34  0  0  1  0  0  0  0  0999 V2000
  185.6860  179.5930  146.9910 O   0  0  0  0  0  0  0  0  0  0  0  0
  185.8440  178.8230  146.0050 C   0  0  0  0  0  0  0  0  0  0  0  0
  187.0210  177.9310  145.9930 C   0  0  0  0  0  0  0  0  0  0  0  0
  189.8420  176.5370  145.9270 C   0  0  1  0  0  3  0  0  0  0  0  0
  188.0640  178.1400  146.9530 N   0  0  0  0  0  2  0  0  0  0  0  0
  187.1010  176.9840  145.1660 O   0  0  0  0  0  0  0  0  0  0  0  0
  191.1490  176.1340  146.5530 C   0  0  0  0  0  3  0  0  0  0  0  0
  191.2600  176.7530  147.7200 C   0  0  0  0  0  3  0  0  0  0  0  0
  189.3190  177.4510  146.9880 C   0  0  0  0  0  0  0  0  0  0  0  0
  190.1270  177.5700  147.9840 N   0  0  0  0  0  0  0  0  0  0  0  0
  191.6550  177.7840  143.1360 C   0  0  1  0  0  3  0  0  0  0  0  0
  189.8690  176.2840  143.5600 C   0  0  0  0  0  2  0  0  0  0  0  0
  190.8140  176.7230  142.4760 C   0  0  0  0  0  2  0  0  0  0  0  0
  191.3720  179.0110  142.5660 F   0  0  0  0  0  0  0  0  0  0  0  0
  190.0010  177.2460  144.6440 N   0  0  2  0  0  0  0  0  0  0  0  0
  191.2920  177.8090  144.5450 N   0  0  0  0  0  2  0  0  0  0  0  0
  183.4710  178.9900  145.1150 C   0  0  0  0  0  3  0  0  0  0  0  0
  184.8450  178.8610  144.9140 C   0  0  0  0  0  0  0  0  0  0  0  0
  182.7320  179.0030  143.9240 C   0  0  0  0  0  3  0  0  0  0  0  0
  185.1420  178.7640  143.2570 S   0  0  0  0  0  0  0  0  0  0  0  0
  183.5370  178.9010  142.7970 C   0  0  0  0  0  0  0  0  0  0  0  0
  183.0880  178.8280  141.4410 N   0  0  0  0  0  2  0  0  0  0  0  0
  183.0470  176.6770  138.9210 C   0  0  0  0  0  3  0  0  0  0  0  0
  184.6040  177.4730  137.1380 C   0  0  0  0  0  3  0  0  0  0  0  0
  185.2200  179.3790  138.6860 N   0  0  0  0  0  2  0  0  0  0  0  0
  183.5070  176.4380  137.4670 C   0  0  0  0  0  3  0  0  0  0  0  0
  184.6750  179.7000  139.8290 O   0  0  0  0  0  0  0  0  0  0  0  0
  184.0360  177.6550  139.4160 C   0  0  0  0  0  0  0  0  0  0  0  0
  184.8450  178.1080  138.4460 C   0  0  0  0  0  0  0  0  0  0  0  0
  183.9290  178.7160  140.2870 C   0  0  0  0  0  0  0  0  0  0  0  0
  2  1  2  0  0  0  0
  3  2  1  0  0  0  0
  3  5  1  0  0  0  0
  4  7  1  1  0  0  0
  4  9  1  0  0  0  0
  5  9  1  0  0  0  0
  6  3  2  0  0  0  0
  7  8  2  0  0  0  0
  8 10  1  0  0  0  0
  9 10  2  0  0  0  0
 11 14  1  6  0  0  0
 11 16  1  0  0  0  0
 13 11  1  0  0  0  0
 13 12  1  0  0  0  0
 15 12  1  6  0  0  0
 15  4  1  0  0  0  0
 16 15  1  0  0  0  0
 18 17  2  0  0  0  0
 18  2  1  0  0  0  0
 19 17  1  0  0  0  0
 20 18  1  0  0  0  0
 21 20  1  0  0  0  0
 21 19  2  0  0  0  0
 22 21  1  0  0  0  0
 23 28  1  0  0  0  0
 24 26  1  0  0  0  0
 24 29  2  0  0  0  0
 25 27  1  0  0  0  0
 26 23  2  0  0  0  0
 27 30  1  0  0  0  0
 28 30  2  0  0  0  0
 29 25  1  0  0  0  0
 29 28  1  0  0  0  0
 30 22  1  0  0  0  0
M  END
>  <MODEL>
6

>  <REMARK>
 VINA RESULT:      -8.6      3.862      6.881
  Name = 
  5 active torsions:
  status: ('A' for Active; 'I' for Inactive)
    1  A    between atoms: C_2  and  C_28
    2  A    between atoms: C_3  and  N_25
    3  A    between atoms: C_8  and  C_28
    4  A    between atoms: C_21  and  N_22
    5  A    between atoms: N_22  and  C_30
                            x       y       z     vdW  Elec       q    Type
                         _______ _______ _______ _____ _____    ______ ____

>  <TORSDO>
F 5

$$$$
=
 OpenBabel11062413203D

 30 34  0  0  1  0  0  0  0  0999 V2000
  184.2600  178.9070  145.1330 O   0  0  0  0  0  0  0  0  0  0  0  0
  185.1120  178.4350  144.3320 C   0  0  0  0  0  0  0  0  0  0  0  0
  186.3020  177.7610  144.8900 C   0  0  0  0  0  0  0  0  0  0  0  0
  189.0930  176.8650  146.0370 C   0  0  1  0  0  3  0  0  0  0  0  0
  186.9170  178.2960  146.0690 N   0  0  0  0  0  2  0  0  0  0  0  0
  186.7610  176.7180  144.3540 O   0  0  0  0  0  0  0  0  0  0  0  0
  190.1310  176.7930  147.1220 C   0  0  0  0  0  3  0  0  0  0  0  0
  189.7640  177.6050  148.1040 C   0  0  0  0  0  3  0  0  0  0  0  0
  188.1420  177.8410  146.6540 C   0  0  0  0  0  0  0  0  0  0  0  0
  188.5340  178.2550  147.8090 N   0  0  0  0  0  0  0  0  0  0  0  0
  191.3290  178.6940  143.9670 C   0  0  1  0  0  3  0  0  0  0  0  0
  190.6350  176.4480  144.2720 C   0  0  0  0  0  2  0  0  0  0  0  0
  191.6810  177.2820  143.5850 C   0  0  0  0  0  2  0  0  0  0  0  0
  190.8970  179.3770  142.8460 F   0  0  0  0  0  0  0  0  0  0  0  0
  189.6180  177.3710  144.7560 N   0  0  2  0  0  0  0  0  0  0  0  0
  190.2450  178.6230  144.9370 N   0  0  0  0  0  2  0  0  0  0  0  0
  183.6190  178.4840  142.2780 C   0  0  0  0  0  3  0  0  0  0  0  0
  184.8730  178.5860  142.8790 C   0  0  0  0  0  0  0  0  0  0  0  0
  183.6510  178.6680  140.8890 C   0  0  0  0  0  3  0  0  0  0  0  0
  186.0210  178.9050  141.6860 S   0  0  0  0  0  0  0  0  0  0  0  0
  184.9300  178.9290  140.4160 C   0  0  0  0  0  0  0  0  0  0  0  0
  185.3060  179.1060  139.0460 N   0  0  0  0  0  2  0  0  0  0  0  0
  185.0470  177.0290  136.4780 C   0  0  0  0  0  3  0  0  0  0  0  0
  187.3320  176.4750  135.6370 C   0  0  0  0  0  3  0  0  0  0  0  0
  188.2470  177.8710  137.5410 N   0  0  0  0  0  2  0  0  0  0  0  0
  185.8250  176.3450  135.3340 C   0  0  0  0  0  3  0  0  0  0  0  0
  187.5860  178.6220  138.3810 O   0  0  0  0  0  0  0  0  0  0  0  0
  186.1060  177.3040  137.4680 C   0  0  0  0  0  0  0  0  0  0  0  0
  187.3350  177.0420  136.9970 C   0  0  0  0  0  0  0  0  0  0  0  0
  186.3000  178.3460  138.3480 C   0  0  0  0  0  0  0  0  0  0  0  0
  2  3  1  0  0  0  0
  2  1  2  0  0  0  0
  3  5  1  0  0  0  0
  4  9  1  0  0  0  0
  4  7  1  1  0  0  0
  5  9  1  0  0  0  0
  6  3  2  0  0  0  0
  7  8  2  0  0  0  0
  9 10  2  0  0  0  0
 10  8  1  0  0  0  0
 11 14  1  6  0  0  0
 11 16  1  0  0  0  0
 13 11  1  0  0  0  0
 13 12  1  0  0  0  0
 15 12  1  1  0  0  0
 15 16  1  0  0  0  0
 15  4  1  0  0  0  0
 17 18  2  0  0  0  0
 18  2  1  0  0  0  0
 19 17  1  0  0  0  0
 20 18  1  0  0  0  0
 21 19  2  0  0  0  0
 21 20  1  0  0  0  0
 22 21  1  0  0  0  0
 23 28  1  0  0  0  0
 24 29  2  0  0  0  0
 25 27  1  0  0  0  0
 26 24  1  0  0  0  0
 26 23  2  0  0  0  0
 28 30  2  0  0  0  0
 29 28  1  0  0  0  0
 29 25  1  0  0  0  0
 30 27  1  0  0  0  0
 30 22  1  0  0  0  0
M  END
>  <MODEL>
7

>  <REMARK>
 VINA RESULT:      -8.5      3.056      7.608
  Name = 
  5 active torsions:
  status: ('A' for Active; 'I' for Inactive)
    1  A    between atoms: C_2  and  C_28
    2  A    between atoms: C_3  and  N_25
    3  A    between atoms: C_8  and  C_28
    4  A    between atoms: C_21  and  N_22
    5  A    between atoms: N_22  and  C_30
                            x       y       z     vdW  Elec       q    Type
                         _______ _______ _______ _____ _____    ______ ____

>  <TORSDO>
F 5

$$$$
=
 OpenBabel11062413203D

 30 34  0  0  1  0  0  0  0  0999 V2000
  192.0330  177.1210  140.9440 O   0  0  0  0  0  0  0  0  0  0  0  0
  191.0680  177.4950  141.6650 C   0  0  0  0  0  0  0  0  0  0  0  0
  191.2840  177.6060  143.1230 C   0  0  0  0  0  0  0  0  0  0  0  0
  191.3050  177.4400  146.2650 C   0  0  1  0  0  3  0  0  0  0  0  0
  191.5450  176.4190  143.8810 N   0  0  0  0  0  2  0  0  0  0  0  0
  191.2620  178.7300  143.6910 O   0  0  0  0  0  0  0  0  0  0  0  0
  191.6350  176.7610  147.5660 C   0  0  0  0  0  3  0  0  0  0  0  0
  192.0540  175.5320  147.2980 C   0  0  0  0  0  3  0  0  0  0  0  0
  191.6440  176.3430  145.3080 C   0  0  0  0  0  0  0  0  0  0  0  0
  192.0550  175.2750  145.9000 N   0  0  0  0  0  0  0  0  0  0  0  0
  187.7970  176.8680  146.2570 C   0  0  1  0  0  3  0  0  0  0  0  0
  189.3800  178.1420  147.4780 C   0  0  0  0  0  2  0  0  0  0  0  0
  187.9470  177.6870  147.5110 C   0  0  0  0  0  2  0  0  0  0  0  0
  186.9500  177.5220  145.3820 F   0  0  0  0  0  0  0  0  0  0  0  0
  189.8870  177.8280  146.1500 N   0  0  2  0  0  0  0  0  0  0  0  0
  189.1180  176.7530  145.6550 N   0  0  0  0  0  2  0  0  0  0  0  0
  189.4790  177.4880  139.6850 C   0  0  0  0  0  3  0  0  0  0  0  0
  189.7750  177.7960  141.0120 C   0  0  0  0  0  0  0  0  0  0  0  0
  188.1870  177.8720  139.2990 C   0  0  0  0  0  3  0  0  0  0  0  0
  188.4340  178.5470  141.7050 S   0  0  0  0  0  0  0  0  0  0  0  0
  187.4760  178.4650  140.3340 C   0  0  0  0  0  0  0  0  0  0  0  0
  186.1590  179.0160  140.2480 N   0  0  0  0  0  2  0  0  0  0  0  0
  185.3040  179.6070  143.3940 C   0  0  0  0  0  3  0  0  0  0  0  0
  182.9620  178.8260  143.7680 C   0  0  0  0  0  3  0  0  0  0  0  0
  182.9830  177.9810  141.3820 N   0  0  0  0  0  2  0  0  0  0  0  0
  184.1280  179.6190  144.3940 C   0  0  0  0  0  3  0  0  0  0  0  0
  183.9020  178.1610  140.4700 O   0  0  0  0  0  0  0  0  0  0  0  0
  184.8510  178.6400  142.3750 C   0  0  0  0  0  0  0  0  0  0  0  0
  183.5790  178.2540  142.5580 C   0  0  0  0  0  0  0  0  0  0  0  0
  185.0230  178.5890  141.0090 C   0  0  0  0  0  0  0  0  0  0  0  0
  1  2  2  0  0  0  0
  2  3  1  0  0  0  0
  3  6  2  0  0  0  0
  3  5  1  0  0  0  0
  4  7  1  1  0  0  0
  5  9  1  0  0  0  0
  8  7  2  0  0  0  0
  9 10  2  0  0  0  0
  9  4  1  0  0  0  0
 10  8  1  0  0  0  0
 11 14  1  6  0  0  0
 11 13  1  0  0  0  0
 12 13  1  0  0  0  0
 15  4  1  0  0  0  0
 15 12  1  1  0  0  0
 16 15  1  0  0  0  0
 16 11  1  0  0  0  0
 17 18  2  0  0  0  0
 18  2  1  0  0  0  0
 18 20  1  0  0  0  0
 19 17  1  0  0  0  0
 19 21  2  0  0  0  0
 21 20  1  0  0  0  0
 22 21  1  0  0  0  0
 22 30  1  0  0  0  0
 23 26  2  0  0  0  0
 24 26  1  0  0  0  0
 25 29  1  0  0  0  0
 27 30  1  0  0  0  0
 27 25  1  0  0  0  0
 28 29  1  0  0  0  0
 28 23  1  0  0  0  0
 29 24  2  0  0  0  0
 30 28  2  0  0  0  0
M  END
>  <MODEL>
8

>  <REMARK>
 VINA RESULT:      -8.4      3.330      6.531
  Name = 
  5 active torsions:
  status: ('A' for Active; 'I' for Inactive)
    1  A    between atoms: C_2  and  C_28
    2  A    between atoms: C_3  and  N_25
    3  A    between atoms: C_8  and  C_28
    4  A    between atoms: C_21  and  N_22
    5  A    between atoms: N_22  and  C_30
                            x       y       z     vdW  Elec       q    Type
                         _______ _______ _______ _____ _____    ______ ____

>  <TORSDO>
F 5

$$$$
=
 OpenBabel11062413203D

 30 34  0  0  1  0  0  0  0  0999 V2000
  189.1140  179.6350  137.7250 O   0  0  0  0  0  0  0  0  0  0  0  0
  188.5150  178.6420  138.2200 C   0  0  0  0  0  0  0  0  0  0  0  0
  187.2150  178.2470  137.6400 C   0  0  0  0  0  0  0  0  0  0  0  0
  184.3750  177.1000  136.9130 C   0  0  1  0  0  3  0  0  0  0  0  0
  186.0160  178.4840  138.3890 N   0  0  0  0  0  2  0  0  0  0  0  0
  187.1540  177.7290  136.4930 O   0  0  0  0  0  0  0  0  0  0  0  0
  182.8770  177.0640  137.0360 C   0  0  0  0  0  3  0  0  0  0  0  0
  182.5240  177.8460  138.0460 C   0  0  0  0  0  3  0  0  0  0  0  0
  184.7030  178.0430  138.0260 C   0  0  0  0  0  0  0  0  0  0  0  0
  183.6560  178.4480  138.6590 N   0  0  0  0  0  0  0  0  0  0  0  0
  184.4210  173.5790  137.3880 C   0  0  1  0  0  3  0  0  0  0  0  0
  185.2350  175.1650  135.8260 C   0  0  0  0  0  2  0  0  0  0  0  0
  185.0330  173.6870  136.0170 C   0  0  0  0  0  2  0  0  0  0  0  0
  185.3180  172.9660  138.2420 F   0  0  0  0  0  0  0  0  0  0  0  0
  185.0130  175.7880  137.1230 N   0  0  2  0  0  0  0  0  0  0  0  0
  184.1590  174.9330  137.8530 N   0  0  0  0  0  2  0  0  0  0  0  0
  190.4570  177.4630  139.3540 C   0  0  0  0  0  3  0  0  0  0  0  0
  189.1450  177.9340  139.3560 C   0  0  0  0  0  0  0  0  0  0  0  0
  190.8220  176.8270  140.5490 C   0  0  0  0  0  3  0  0  0  0  0  0
  188.4380  177.5610  140.8410 S   0  0  0  0  0  0  0  0  0  0  0  0
  189.7960  176.8200  141.4840 C   0  0  0  0  0  0  0  0  0  0  0  0
  189.8310  176.2020  142.7740 N   0  0  0  0  0  2  0  0  0  0  0  0
  187.2270  177.1070  144.6120 C   0  0  0  0  0  3  0  0  0  0  0  0
  188.0290  177.8720  146.8500 C   0  0  0  0  0  3  0  0  0  0  0  0
  190.3870  177.5080  146.0020 N   0  0  0  0  0  2  0  0  0  0  0  0
  186.7720  177.5120  146.0300 C   0  0  0  0  0  3  0  0  0  0  0  0
  190.7650  176.9640  144.8760 O   0  0  0  0  0  0  0  0  0  0  0  0
  188.6580  177.4680  144.6170 C   0  0  0  0  0  0  0  0  0  0  0  0
  189.0930  177.8410  145.8310 C   0  0  0  0  0  0  0  0  0  0  0  0
  189.7600  176.8850  144.0310 C   0  0  0  0  0  0  0  0  0  0  0  0
  1  2  2  0  0  0  0
  2 18  1  0  0  0  0
  3  2  1  0  0  0  0
  3  5  1  0  0  0  0
  4  7  1  1  0  0  0
  4 15  1  0  0  0  0
  4  9  1  0  0  0  0
  6  3  2  0  0  0  0
  7  8  2  0  0  0  0
  8 10  1  0  0  0  0
  9  5  1  0  0  0  0
  9 10  2  0  0  0  0
 11 16  1  0  0  0  0
 11 14  1  1  0  0  0
 12 13  1  0  0  0  0
 13 11  1  0  0  0  0
 15 12  1  6  0  0  0
 15 16  1  0  0  0  0
 17 18  2  0  0  0  0
 17 19  1  0  0  0  0
 18 20  1  0  0  0  0
 19 21  2  0  0  0  0
 20 21  1  0  0  0  0
 21 22  1  0  0  0  0
 22 30  1  0  0  0  0
 23 28  1  0  0  0  0
 23 26  2  0  0  0  0
 26 24  1  0  0  0  0
 27 25  1  0  0  0  0
 28 29  1  0  0  0  0
 29 25  1  0  0  0  0
 29 24  2  0  0  0  0
 30 28  2  0  0  0  0
 30 27  1  0  0  0  0
M  END
>  <MODEL>
9

>  <REMARK>
 VINA RESULT:      -8.3      3.467      5.427
  Name = 
  5 active torsions:
  status: ('A' for Active; 'I' for Inactive)
    1  A    between atoms: C_2  and  C_28
    2  A    between atoms: C_3  and  N_25
    3  A    between atoms: C_8  and  C_28
    4  A    between atoms: C_21  and  N_22
    5  A    between atoms: N_22  and  C_30
                            x       y       z     vdW  Elec       q    Type
                         _______ _______ _______ _____ _____    ______ ____

>  <TORSDO>
F 5

$$$$
