=
 OpenBabel11062417393D

 65 71  0  0  1  0  0  0  0  0999 V2000
  187.8360  177.8860  141.7280 C   0  0  2  0  0  3  0  0  0  0  0  0
  187.7710  177.2080  139.2230 C   0  0  2  0  0  3  0  0  0  0  0  0
  187.5190  177.2290  137.7030 C   0  0  2  0  0  3  0  0  0  0  0  0
  187.5380  178.3060  140.2630 C   0  0  2  0  0  3  0  0  0  0  0  0
  190.0630  177.6060  139.7000 C   0  0  0  0  0  3  0  0  0  0  0  0
  190.5740  176.6690  138.8710 C   0  0  0  0  0  0  0  0  0  0  0  0
  189.8560  176.1190  137.6400 C   0  0  0  0  0  2  0  0  0  0  0  0
  188.7900  178.3320  139.3920 C   0  0  1  0  0  3  0  0  0  0  0  0
  188.8540  177.0520  136.9150 C   0  0  1  0  0  3  0  0  0  0  0  0
  186.6670  178.3650  137.1770 C   0  0  0  0  0  0  0  0  0  0  0  0
  187.2120  179.4700  136.9040 O   0  0  0  0  0  0  0  0  0  0  0  0
  185.3030  178.1810  136.9280 O   0  0  0  0  0  0  0  0  0  0  0  0
  184.1030  178.4820  138.1240 P   0  0  0  0  0  0  0  0  0  0  0  0
  182.6520  178.9260  137.3730 O   0  0  0  0  0  0  0  0  0  0  0  0
  183.8850  177.2260  138.9330 O   0  0  0  0  0  1  0  0  0  0  0  0
  184.6230  179.7340  139.1410 O   0  0  0  0  0  1  0  0  0  0  0  0
  188.5710  176.5110  135.6570 O   0  0  0  0  0  0  0  0  0  0  0  0
  188.8160  175.1430  135.7760 C   0  0  0  0  0  1  0  0  0  0  0  0
  191.8690  176.0180  139.2590 C   0  0  0  0  0  2  0  0  0  0  0  0
  194.6770  176.3590  136.7340 O   0  0  0  0  0  1  0  0  0  0  0  0
  193.6050  175.8520  137.3950 N   0  0  0  0  0  0  0  0  0  0  0  0
  193.0530  176.5730  138.5070 C   0  0  0  0  0  0  0  0  0  0  0  0
  193.5410  177.6960  138.8210 O   0  0  0  0  0  0  0  0  0  0  0  0
  193.0010  174.6170  136.9060 C   0  0  0  0  0  2  0  0  0  0  0  0
  194.0680  173.5500  136.7510 C   0  0  0  0  0  2  0  0  0  0  0  0
  196.1340  173.1960  137.8740 O   0  0  0  0  0  0  0  0  0  0  0  0
  194.7450  173.3040  138.0870 C   0  0  2  0  0  3  0  0  0  0  0  0
  195.4300  171.9920  138.0690 C   0  0  0  0  0  2  0  0  0  0  0  0
  186.5570  177.5530  142.5010 C   0  0  0  0  0  2  0  0  0  0  0  0
  185.3590  179.3700  143.6560 C   0  0  0  0  0  1  0  0  0  0  0  0
  185.5010  178.6370  142.3400 C   0  0  2  0  0  3  0  0  0  0  0  0
  184.1630  178.0130  141.9810 C   0  0  0  0  0  2  0  0  0  0  0  0
  183.0610  178.8830  142.3690 N   0  0  0  0  0  2  0  0  0  0  0  0
  182.0040  178.8010  141.3570 C   0  0  0  0  0  2  0  0  0  0  0  0
  180.7220  178.1390  141.8810 C   0  0  1  0  0  3  0  0  0  0  0  0
  180.2250  178.8320  142.9880 O   0  0  0  0  0  1  0  0  0  0  0  0
  179.7060  178.0490  140.7390 C   0  0  1  0  0  3  0  0  0  0  0  0
  180.1270  176.9430  139.7870 C   0  0  1  0  0  3  0  0  0  0  0  0
  178.9360  176.7420  140.7090 C   0  0  0  0  0  2  0  0  0  0  0  0
  179.6800  177.3320  138.3810 C   0  0  0  0  0  2  0  0  0  0  0  0
  182.7430  174.2430  134.5940 C   0  0  0  0  0  2  0  0  0  0  0  0
  182.1430  173.0080  135.2510 C   0  0  0  0  0  2  0  0  0  0  0  0
  181.8130  175.4260  134.7730 C   0  0  0  0  0  2  0  0  0  0  0  0
  181.1930  173.3260  136.4200 C   0  0  2  0  0  3  0  0  0  0  0  0
  180.5120  175.1470  138.1210 C   0  0  2  0  0  3  0  0  0  0  0  0
  181.5450  174.6690  137.1150 C   0  0  2  0  0  3  0  0  0  0  0  0
  179.6670  174.1510  138.5750 F   0  0  0  0  0  0  0  0  0  0  0  0
  180.5190  176.6190  136.3190 C   0  0  0  0  0  2  0  0  0  0  0  0
  181.7190  175.7990  136.1880 N   0  0  2  0  0  0  0  0  0  0  0  0
  179.7380  176.1910  137.4760 N   0  0  0  0  0  0  0  0  0  0  0  0
  181.1670  172.1540  137.4080 C   0  0  0  0  0  3  0  0  0  0  0  0
  180.0850  171.3140  137.1390 O   0  0  0  0  0  1  0  0  0  0  0  0
  182.3570  171.4240  137.3560 O   0  0  0  0  0  1  0  0  0  0  0  0
  188.8950  178.7780  142.4320 C   0  0  0  0  0  2  0  0  0  0  0  0
  191.4710  177.2750  145.4520 C   0  0  0  0  0  0  0  0  0  0  0  0
  190.9210  179.0270  143.8240 C   0  0  0  0  0  2  0  0  0  0  0  0
  192.0500  178.2040  144.4340 C   0  0  0  0  0  2  0  0  0  0  0  0
  189.8370  178.1500  143.3700 N   0  0  0  0  0  0  0  0  0  0  0  0
  191.8860  177.2680  146.5980 O   0  0  0  0  0  0  0  0  0  0  0  0
  190.3070  176.4270  145.0550 C   0  0  0  0  0  2  0  0  0  0  0  0
  189.2290  177.3170  144.4250 C   0  0  1  0  0  3  0  0  0  0  0  0
  188.5070  178.1390  145.4950 C   0  0  0  0  0  2  0  0  0  0  0  0
  188.2850  177.6750  147.9250 C   0  0  0  0  0  1  0  0  0  0  0  0
  186.4480  177.3900  146.4560 O   0  0  0  0  0  1  0  0  0  0  0  0
  187.8350  177.2590  146.5450 C   0  0  1  0  0  3  0  0  0  0  0  0
  1 54  1  1  0  0  0
  1 29  1  0  0  0  0
  2  8  1  0  0  0  0
  2  4  1  0  0  0  0
  3  2  1  0  0  0  0
  4  1  1  0  0  0  0
  6 19  1  0  0  0  0
  6  5  2  0  0  0  0
  7  6  1  0  0  0  0
  8  5  1  0  0  0  0
  8  4  1  0  0  0  0
  9  7  1  0  0  0  0
  9  3  1  0  0  0  0
 10  3  1  0  0  0  0
 11 10  2  0  0  0  0
 12 10  1  0  0  0  0
 12 13  1  0  0  0  0
 13 15  1  0  0  0  0
 13 16  1  0  0  0  0
 14 13  2  0  0  0  0
 17 18  1  0  0  0  0
 17  9  1  0  0  0  0
 20 21  1  0  0  0  0
 21 22  1  0  0  0  0
 22 23  2  0  0  0  0
 22 19  1  0  0  0  0
 24 21  1  0  0  0  0
 25 24  1  0  0  0  0
 25 27  1  0  0  0  0
 26 28  1  0  0  0  0
 26 27  1  0  0  0  0
 28 27  1  0  0  0  0
 31 29  1  0  0  0  0
 31 30  1  0  0  0  0
 32 31  1  0  0  0  0
 32 33  1  0  0  0  0
 34 35  1  0  0  0  0
 34 33  1  0  0  0  0
 35 36  1  0  0  0  0
 37 35  1  0  0  0  0
 38 39  1  0  0  0  0
 38 37  1  0  0  0  0
 39 37  1  0  0  0  0
 40 38  1  0  0  0  0
 41 43  1  0  0  0  0
 41 42  1  0  0  0  0
 42 44  1  0  0  0  0
 43 49  1  0  0  0  0
 44 46  1  0  0  0  0
 44 51  1  0  0  0  0
 45 47  1  0  0  0  0
 46 45  1  0  0  0  0
 48 50  1  0  0  0  0
 49 48  1  0  0  0  0
 49 46  1  0  0  0  0
 50 45  1  0  0  0  0
 50 40  1  0  0  0  0
 52 51  1  0  0  0  0
 53 51  1  0  0  0  0
 54 58  1  0  0  0  0
 55 59  2  0  0  0  0
 56 57  1  0  0  0  0
 57 55  1  0  0  0  0
 58 56  1  0  0  0  0
 58 61  1  0  0  0  0
 60 55  1  0  0  0  0
 61 60  1  0  0  0  0
 61 62  1  0  0  0  0
 62 65  1  0  0  0  0
 64 65  1  0  0  0  0
 65 63  1  0  0  0  0
M  END
>  <MODEL>
1

>  <REMARK>
 VINA RESULT:      -6.2      0.000      0.000
  Name = 
  24 active torsions:
  status: ('A' for Active; 'I' for Inactive)
    1  A    between atoms: C_2  and  C_38
    2  A    between atoms: C_3  and  N_20
    3  A    between atoms: C_3  and  C_54
    4  A    between atoms: P_4  and  O_17
    5  A    between atoms: N_10  and  C_18
    6  A    between atoms: C_11  and  C_62
    7  A    between atoms: C_12  and  C_41
    8  A    between atoms: O_17  and  C_41
    9  A    between atoms: C_18  and  C_34
   10  A    between atoms: C_19  and  C_29
   11  A    between atoms: C_22  and  C_34
   12  A    between atoms: C_23  and  C_29
   13  A    between atoms: C_23  and  N_40
   14  A    between atoms: C_24  and  C_26
   15  A    between atoms: C_25  and  C_54
   16  A    between atoms: C_26  and  N_61
   17  A    between atoms: O_28  and  C_57
   18  A    between atoms: C_35  and  C_62
   19  A    between atoms: N_40  and  C_49
   20  A    between atoms: C_49  and  C_52
   21  A    between atoms: C_52  and  C_64
   22  A    between atoms: C_54  and  C_64
   23  A    between atoms: C_58  and  C_60
   24  A    between atoms: C_60  and  C_63
                            x       y       z     vdW  Elec       q    Type
                         _______ _______ _______ _____ _____    ______ ____

>  <TORSDO>
F 24

$$$$
=
 OpenBabel11062417393D

 65 71  0  0  1  0  0  0  0  0999 V2000
  187.4650  178.4090  140.9150 C   0  0  2  0  0  3  0  0  0  0  0  0
  185.0160  178.1730  141.7430 C   0  0  2  0  0  3  0  0  0  0  0  0
  183.6900  178.4140  142.4900 C   0  0  2  0  0  3  0  0  0  0  0  0
  186.2900  179.0200  141.7260 C   0  0  2  0  0  3  0  0  0  0  0  0
  184.8430  178.8610  139.4770 C   0  0  0  0  0  3  0  0  0  0  0  0
  183.7130  178.1810  139.1800 C   0  0  0  0  0  0  0  0  0  0  0  0
  182.6730  177.7390  140.2070 C   0  0  0  0  0  2  0  0  0  0  0  0
  185.1050  179.4060  140.8480 C   0  0  1  0  0  3  0  0  0  0  0  0
  182.5110  178.6030  141.4830 C   0  0  1  0  0  3  0  0  0  0  0  0
  183.7110  179.4650  143.5800 C   0  0  0  0  0  0  0  0  0  0  0  0
  182.6460  180.0780  143.8660 O   0  0  0  0  0  0  0  0  0  0  0  0
  184.8760  179.7110  144.3130 O   0  0  0  0  0  0  0  0  0  0  0  0
  185.2980  178.7880  145.7030 P   0  0  0  0  0  0  0  0  0  0  0  0
  186.1210  177.3870  145.2250 O   0  0  0  0  0  0  0  0  0  0  0  0
  186.1920  179.6160  146.5940 O   0  0  0  0  0  1  0  0  0  0  0  0
  183.8900  178.3600  146.5440 O   0  0  0  0  0  1  0  0  0  0  0  0
  181.3150  178.2480  142.1140 O   0  0  0  0  0  0  0  0  0  0  0  0
  180.4790  177.7880  141.0950 C   0  0  0  0  0  1  0  0  0  0  0  0
  183.5340  177.6990  137.7700 C   0  0  0  0  0  2  0  0  0  0  0  0
  180.0390  176.8930  136.5400 O   0  0  0  0  0  1  0  0  0  0  0  0
  181.3040  176.7220  137.0020 N   0  0  0  0  0  0  0  0  0  0  0  0
  182.1230  177.8720  137.2650 C   0  0  0  0  0  0  0  0  0  0  0  0
  181.6350  179.0290  137.1130 O   0  0  0  0  0  0  0  0  0  0  0  0
  181.7690  175.3690  137.2860 C   0  0  0  0  0  2  0  0  0  0  0  0
  180.8670  174.7230  138.3200 C   0  0  0  0  0  2  0  0  0  0  0  0
  179.6230  173.5380  136.6750 O   0  0  0  0  0  0  0  0  0  0  0  0
  180.4150  173.3600  137.8280 C   0  0  2  0  0  3  0  0  0  0  0  0
  178.9390  173.2720  137.8770 C   0  0  0  0  0  2  0  0  0  0  0  0
  187.1000  178.2030  139.4430 C   0  0  0  0  0  2  0  0  0  0  0  0
  189.1070  178.9330  138.2140 C   0  0  0  0  0  1  0  0  0  0  0  0
  188.2920  177.7270  138.6250 C   0  0  2  0  0  3  0  0  0  0  0  0
  187.8140  177.0110  137.3740 C   0  0  0  0  0  2  0  0  0  0  0  0
  188.8130  176.0620  136.9030 N   0  0  0  0  0  2  0  0  0  0  0  0
  188.3330  174.6980  137.1470 C   0  0  0  0  0  2  0  0  0  0  0  0
  189.3840  173.6270  136.8280 C   0  0  1  0  0  3  0  0  0  0  0  0
  188.8020  172.5440  136.1640 O   0  0  0  0  0  1  0  0  0  0  0  0
  190.5180  174.2680  136.0230 C   0  0  1  0  0  3  0  0  0  0  0  0
  191.8440  173.6860  136.4840 C   0  0  1  0  0  3  0  0  0  0  0  0
  191.2660  173.2890  135.1360 C   0  0  0  0  0  2  0  0  0  0  0  0
  192.9130  174.7640  136.3340 C   0  0  0  0  0  2  0  0  0  0  0  0
  198.5540  174.1700  137.3770 C   0  0  0  0  0  2  0  0  0  0  0  0
  198.3820  172.7080  136.9880 C   0  0  0  0  0  2  0  0  0  0  0  0
  197.4960  175.0140  136.6950 C   0  0  0  0  0  2  0  0  0  0  0  0
  196.9370  172.3340  136.6100 C   0  0  2  0  0  3  0  0  0  0  0  0
  194.4680  173.0650  136.8120 C   0  0  2  0  0  3  0  0  0  0  0  0
  195.8900  173.2350  137.3180 C   0  0  2  0  0  3  0  0  0  0  0  0
  194.2490  171.8780  136.1390 F   0  0  0  0  0  0  0  0  0  0  0  0
  195.2080  175.1920  136.2240 C   0  0  0  0  0  2  0  0  0  0  0  0
  196.1620  174.6780  137.2010 N   0  0  2  0  0  0  0  0  0  0  0  0
  194.1900  174.1860  135.9340 N   0  0  0  0  0  0  0  0  0  0  0  0
  196.6940  170.8440  136.8830 C   0  0  0  0  0  3  0  0  0  0  0  0
  196.6370  170.1320  135.6830 O   0  0  0  0  0  1  0  0  0  0  0  0
  197.6930  170.3120  137.7020 O   0  0  0  0  0  1  0  0  0  0  0  0
  188.1940  177.2480  141.6480 C   0  0  0  0  0  2  0  0  0  0  0  0
  190.8720  177.7930  144.8950 C   0  0  0  0  0  0  0  0  0  0  0  0
  189.0360  176.5380  143.8600 C   0  0  0  0  0  2  0  0  0  0  0  0
  189.5700  177.1130  145.1670 C   0  0  0  0  0  2  0  0  0  0  0  0
  189.0330  177.5650  142.8130 N   0  0  0  0  0  0  0  0  0  0  0  0
  191.8770  177.4910  145.5160 O   0  0  0  0  0  0  0  0  0  0  0  0
  190.9340  178.7840  143.7780 C   0  0  0  0  0  2  0  0  0  0  0  0
  190.3550  178.1460  142.5090 C   0  0  1  0  0  3  0  0  0  0  0  0
  191.3330  177.1300  141.9150 C   0  0  0  0  0  2  0  0  0  0  0  0
  192.9590  177.4290  140.0610 C   0  0  0  0  0  1  0  0  0  0  0  0
  190.9660  176.1860  139.7470 O   0  0  0  0  0  1  0  0  0  0  0  0
  191.4950  177.2970  140.4070 C   0  0  1  0  0  3  0  0  0  0  0  0
  1 29  1  6  0  0  0
  1 54  1  0  0  0  0
  1  4  1  0  0  0  0
  2  3  1  0  0  0  0
  3 10  1  0  0  0  0
  4  2  1  0  0  0  0
  5  8  1  0  0  0  0
  6  5  2  0  0  0  0
  6  7  1  0  0  0  0
  7  9  1  0  0  0  0
  8  4  1  0  0  0  0
  8  2  1  0  0  0  0
  9 17  1  0  0  0  0
  9  3  1  0  0  0  0
 10 11  2  0  0  0  0
 10 12  1  0  0  0  0
 12 13  1  0  0  0  0
 13 16  1  0  0  0  0
 13 15  1  0  0  0  0
 14 13  2  0  0  0  0
 18 17  1  0  0  0  0
 19  6  1  0  0  0  0
 20 21  1  0  0  0  0
 21 22  1  0  0  0  0
 21 24  1  0  0  0  0
 22 19  1  0  0  0  0
 23 22  2  0  0  0  0
 24 25  1  0  0  0  0
 26 27  1  0  0  0  0
 26 28  1  0  0  0  0
 27 28  1  0  0  0  0
 27 25  1  0  0  0  0
 30 31  1  0  0  0  0
 31 29  1  0  0  0  0
 32 31  1  0  0  0  0
 33 34  1  0  0  0  0
 33 32  1  0  0  0  0
 35 34  1  0  0  0  0
 36 35  1  0  0  0  0
 37 38  1  0  0  0  0
 37 35  1  0  0  0  0
 39 37  1  0  0  0  0
 39 38  1  0  0  0  0
 40 38  1  0  0  0  0
 42 41  1  0  0  0  0
 43 49  1  0  0  0  0
 43 41  1  0  0  0  0
 44 51  1  0  0  0  0
 44 42  1  0  0  0  0
 44 46  1  0  0  0  0
 45 46  1  0  0  0  0
 47 45  1  0  0  0  0
 48 49  1  0  0  0  0
 49 46  1  0  0  0  0
 50 48  1  0  0  0  0
 50 40  1  0  0  0  0
 50 45  1  0  0  0  0
 51 53  1  0  0  0  0
 52 51  1  0  0  0  0
 54 58  1  0  0  0  0
 55 57  1  0  0  0  0
 55 59  2  0  0  0  0
 56 57  1  0  0  0  0
 58 56  1  0  0  0  0
 60 55  1  0  0  0  0
 61 58  1  0  0  0  0
 61 60  1  0  0  0  0
 62 61  1  0  0  0  0
 63 65  1  0  0  0  0
 64 65  1  0  0  0  0
 65 62  1  0  0  0  0
M  END
>  <MODEL>
2

>  <REMARK>
 VINA RESULT:      -5.5      3.034     10.553
  Name = 
  24 active torsions:
  status: ('A' for Active; 'I' for Inactive)
    1  A    between atoms: C_2  and  C_38
    2  A    between atoms: C_3  and  N_20
    3  A    between atoms: C_3  and  C_54
    4  A    between atoms: P_4  and  O_17
    5  A    between atoms: N_10  and  C_18
    6  A    between atoms: C_11  and  C_62
    7  A    between atoms: C_12  and  C_41
    8  A    between atoms: O_17  and  C_41
    9  A    between atoms: C_18  and  C_34
   10  A    between atoms: C_19  and  C_29
   11  A    between atoms: C_22  and  C_34
   12  A    between atoms: C_23  and  C_29
   13  A    between atoms: C_23  and  N_40
   14  A    between atoms: C_24  and  C_26
   15  A    between atoms: C_25  and  C_54
   16  A    between atoms: C_26  and  N_61
   17  A    between atoms: O_28  and  C_57
   18  A    between atoms: C_35  and  C_62
   19  A    between atoms: N_40  and  C_49
   20  A    between atoms: C_49  and  C_52
   21  A    between atoms: C_52  and  C_64
   22  A    between atoms: C_54  and  C_64
   23  A    between atoms: C_58  and  C_60
   24  A    between atoms: C_60  and  C_63
                            x       y       z     vdW  Elec       q    Type
                         _______ _______ _______ _____ _____    ______ ____

>  <TORSDO>
F 24

$$$$
=
 OpenBabel11062417393D

 65 71  0  0  1  0  0  0  0  0999 V2000
  189.3610  176.4400  141.6520 C   0  0  2  0  0  3  0  0  0  0  0  0
  189.0350  176.6630  139.0870 C   0  0  2  0  0  3  0  0  0  0  0  0
  188.6930  177.2270  137.6950 C   0  0  2  0  0  3  0  0  0  0  0  0
  189.0400  177.3640  140.4470 C   0  0  2  0  0  3  0  0  0  0  0  0
  191.3860  176.5910  139.4110 C   0  0  0  0  0  3  0  0  0  0  0  0
  191.6940  175.9340  138.2700 C   0  0  0  0  0  0  0  0  0  0  0  0
  190.8240  175.9250  137.0150 C   0  0  0  0  0  2  0  0  0  0  0  0
  190.2230  177.5300  139.4980 C   0  0  1  0  0  3  0  0  0  0  0  0
  189.9340  177.1640  136.7490 C   0  0  1  0  0  3  0  0  0  0  0  0
  187.9940  178.5700  137.6650 C   0  0  0  0  0  0  0  0  0  0  0  0
  188.6150  179.5970  138.0530 O   0  0  0  0  0  0  0  0  0  0  0  0
  186.6990  178.6910  137.1510 O   0  0  0  0  0  0  0  0  0  0  0  0
  185.4400  177.5930  137.5670 P   0  0  0  0  0  0  0  0  0  0  0  0
  184.9420  177.8780  139.1600 O   0  0  0  0  0  1  0  0  0  0  0  0
  184.2730  177.8020  136.6310 O   0  0  0  0  0  0  0  0  0  0  0  0
  186.0100  176.0040  137.4260 O   0  0  0  0  0  1  0  0  0  0  0  0
  189.4920  177.1200  135.4230 O   0  0  0  0  0  0  0  0  0  0  0  0
  188.8250  175.9000  135.2930 C   0  0  0  0  0  1  0  0  0  0  0  0
  192.8960  175.0360  138.2800 C   0  0  0  0  0  2  0  0  0  0  0  0
  195.8410  174.7350  135.9080 O   0  0  0  0  0  1  0  0  0  0  0  0
  195.0020  174.4830  136.9460 N   0  0  0  0  0  0  0  0  0  0  0  0
  193.8330  175.2960  137.1260 C   0  0  0  0  0  0  0  0  0  0  0  0
  193.5730  176.2030  136.2830 O   0  0  0  0  0  0  0  0  0  0  0  0
  195.2810  173.3400  137.8090 C   0  0  0  0  0  2  0  0  0  0  0  0
  196.6840  173.4530  138.3730 C   0  0  0  0  0  2  0  0  0  0  0  0
  198.2720  174.9700  139.2860 O   0  0  0  0  0  0  0  0  0  0  0  0
  196.9480  174.8820  138.8120 C   0  0  2  0  0  3  0  0  0  0  0  0
  197.2550  174.9150  140.2590 C   0  0  0  0  0  2  0  0  0  0  0  0
  188.1760  176.3190  142.6140 C   0  0  0  0  0  2  0  0  0  0  0  0
  187.4750  177.6580  144.5590 C   0  0  0  0  0  1  0  0  0  0  0  0
  187.6660  177.6810  143.0590 C   0  0  2  0  0  3  0  0  0  0  0  0
  186.3300  177.9790  142.4000 C   0  0  0  0  0  2  0  0  0  0  0  0
  185.4910  178.7950  143.2670 N   0  0  0  0  0  2  0  0  0  0  0  0
  184.0860  178.6020  142.8970 C   0  0  0  0  0  2  0  0  0  0  0  0
  183.1350  178.6630  144.1000 C   0  0  1  0  0  3  0  0  0  0  0  0
  183.7540  179.2850  145.1880 O   0  0  0  0  0  1  0  0  0  0  0  0
  181.8430  179.3680  143.6780 C   0  0  1  0  0  3  0  0  0  0  0  0
  181.2180  178.6070  142.5210 C   0  0  1  0  0  3  0  0  0  0  0  0
  180.5930  178.5370  143.9040 C   0  0  0  0  0  2  0  0  0  0  0  0
  180.4880  179.6090  141.6330 C   0  0  0  0  0  2  0  0  0  0  0  0
  181.0830  178.9320  135.9360 C   0  0  0  0  0  2  0  0  0  0  0  0
  180.7920  177.4560  136.1710 C   0  0  0  0  0  2  0  0  0  0  0  0
  180.4460  179.7640  137.0310 C   0  0  0  0  0  2  0  0  0  0  0  0
  180.5600  177.0970  137.6500 C   0  0  2  0  0  3  0  0  0  0  0  0
  180.9280  177.9000  140.0770 C   0  0  2  0  0  3  0  0  0  0  0  0
  181.3020  178.0620  138.6140 C   0  0  2  0  0  3  0  0  0  0  0  0
  180.3430  176.6840  140.3770 F   0  0  0  0  0  0  0  0  0  0  0  0
  180.1610  179.9730  139.3470 C   0  0  0  0  0  2  0  0  0  0  0  0
  181.0820  179.4890  138.3230 N   0  0  2  0  0  0  0  0  0  0  0  0
  180.0160  178.9790  140.4060 N   0  0  0  0  0  0  0  0  0  0  0  0
  180.9350  175.6310  137.8980 C   0  0  0  0  0  3  0  0  0  0  0  0
  180.4610  174.8240  136.8620 O   0  0  0  0  0  1  0  0  0  0  0  0
  182.3180  175.4780  138.0240 O   0  0  0  0  0  1  0  0  0  0  0  0
  190.7690  176.6790  142.2660 C   0  0  0  0  0  2  0  0  0  0  0  0
  191.8260  175.8890  146.3000 C   0  0  0  0  0  0  0  0  0  0  0  0
  192.1230  175.4250  143.9080 C   0  0  0  0  0  2  0  0  0  0  0  0
  192.0260  174.8000  145.2960 C   0  0  0  0  0  2  0  0  0  0  0  0
  190.9930  176.3310  143.6760 N   0  0  0  0  0  0  0  0  0  0  0  0
  192.5780  176.0070  147.2510 O   0  0  0  0  0  0  0  0  0  0  0  0
  190.7410  176.8870  146.0550 C   0  0  0  0  0  2  0  0  0  0  0  0
  190.8860  177.4470  144.6350 C   0  0  1  0  0  3  0  0  0  0  0  0
  192.0620  178.4230  144.5520 C   0  0  0  0  0  2  0  0  0  0  0  0
  190.3420  179.6480  143.2440 C   0  0  0  0  0  1  0  0  0  0  0  0
  191.4890  180.6960  145.0330 O   0  0  0  0  0  1  0  0  0  0  0  0
  191.6480  179.7800  143.9900 C   0  0  1  0  0  3  0  0  0  0  0  0
  1 54  1  1  0  0  0
  1 29  1  0  0  0  0
  2  8  1  0  0  0  0
  2  4  1  0  0  0  0
  3  2  1  0  0  0  0
  4  1  1  0  0  0  0
  5  8  1  0  0  0  0
  6 19  1  0  0  0  0
  6  5  2  0  0  0  0
  7  6  1  0  0  0  0
  8  4  1  0  0  0  0
  9  7  1  0  0  0  0
  9  3  1  0  0  0  0
 10  3  1  0  0  0  0
 10 11  2  0  0  0  0
 12 13  1  0  0  0  0
 12 10  1  0  0  0  0
 13 14  1  0  0  0  0
 15 13  2  0  0  0  0
 16 13  1  0  0  0  0
 17  9  1  0  0  0  0
 18 17  1  0  0  0  0
 20 21  1  0  0  0  0
 21 22  1  0  0  0  0
 21 24  1  0  0  0  0
 22 19  1  0  0  0  0
 23 22  2  0  0  0  0
 24 25  1  0  0  0  0
 25 27  1  0  0  0  0
 26 28  1  0  0  0  0
 27 26  1  0  0  0  0
 27 28  1  0  0  0  0
 29 31  1  0  0  0  0
 31 30  1  0  0  0  0
 32 31  1  0  0  0  0
 32 33  1  0  0  0  0
 34 33  1  0  0  0  0
 34 35  1  0  0  0  0
 35 36  1  0  0  0  0
 37 39  1  0  0  0  0
 37 35  1  0  0  0  0
 38 37  1  0  0  0  0
 38 39  1  0  0  0  0
 40 38  1  0  0  0  0
 41 42  1  0  0  0  0
 41 43  1  0  0  0  0
 42 44  1  0  0  0  0
 43 49  1  0  0  0  0
 44 51  1  0  0  0  0
 44 46  1  0  0  0  0
 45 47  1  0  0  0  0
 45 50  1  0  0  0  0
 46 45  1  0  0  0  0
 48 50  1  0  0  0  0
 49 46  1  0  0  0  0
 49 48  1  0  0  0  0
 50 40  1  0  0  0  0
 51 53  1  0  0  0  0
 52 51  1  0  0  0  0
 54 58  1  0  0  0  0
 55 59  2  0  0  0  0
 56 57  1  0  0  0  0
 57 55  1  0  0  0  0
 58 56  1  0  0  0  0
 58 61  1  0  0  0  0
 60 55  1  0  0  0  0
 61 60  1  0  0  0  0
 62 61  1  0  0  0  0
 63 65  1  0  0  0  0
 65 62  1  0  0  0  0
 65 64  1  0  0  0  0
M  END
>  <MODEL>
3

>  <REMARK>
 VINA RESULT:      -4.6      2.084      3.163
  Name = 
  24 active torsions:
  status: ('A' for Active; 'I' for Inactive)
    1  A    between atoms: C_2  and  C_38
    2  A    between atoms: C_3  and  N_20
    3  A    between atoms: C_3  and  C_54
    4  A    between atoms: P_4  and  O_17
    5  A    between atoms: N_10  and  C_18
    6  A    between atoms: C_11  and  C_62
    7  A    between atoms: C_12  and  C_41
    8  A    between atoms: O_17  and  C_41
    9  A    between atoms: C_18  and  C_34
   10  A    between atoms: C_19  and  C_29
   11  A    between atoms: C_22  and  C_34
   12  A    between atoms: C_23  and  C_29
   13  A    between atoms: C_23  and  N_40
   14  A    between atoms: C_24  and  C_26
   15  A    between atoms: C_25  and  C_54
   16  A    between atoms: C_26  and  N_61
   17  A    between atoms: O_28  and  C_57
   18  A    between atoms: C_35  and  C_62
   19  A    between atoms: N_40  and  C_49
   20  A    between atoms: C_49  and  C_52
   21  A    between atoms: C_52  and  C_64
   22  A    between atoms: C_54  and  C_64
   23  A    between atoms: C_58  and  C_60
   24  A    between atoms: C_60  and  C_63
                            x       y       z     vdW  Elec       q    Type
                         _______ _______ _______ _____ _____    ______ ____

>  <TORSDO>
F 24

$$$$
=
 OpenBabel11062417393D

 65 71  0  0  1  0  0  0  0  0999 V2000
  188.4770  176.2970  137.0580 C   0  0  2  0  0  3  0  0  0  0  0  0
  190.5380  177.1180  138.4080 C   0  0  2  0  0  3  0  0  0  0  0  0
  191.5140  177.4060  139.5630 C   0  0  2  0  0  3  0  0  0  0  0  0
  189.2490  176.2930  138.4060 C   0  0  2  0  0  3  0  0  0  0  0  0
  191.3530  175.3600  137.0350 C   0  0  0  0  0  3  0  0  0  0  0  0
  192.5880  175.8680  136.8260 C   0  0  0  0  0  0  0  0  0  0  0  0
  193.2850  176.8610  137.7550 C   0  0  0  0  0  2  0  0  0  0  0  0
  190.6020  175.5960  138.3090 C   0  0  1  0  0  3  0  0  0  0  0  0
  192.9250  176.8100  139.2620 C   0  0  1  0  0  3  0  0  0  0  0  0
  191.0220  177.0850  140.9580 C   0  0  0  0  0  0  0  0  0  0  0  0
  190.5370  175.9440  141.1940 O   0  0  0  0  0  0  0  0  0  0  0  0
  191.1610  178.0100  141.9970 O   0  0  0  0  0  0  0  0  0  0  0  0
  190.5880  177.6960  143.5890 P   0  0  0  0  0  0  0  0  0  0  0  0
  190.6430  176.0320  143.8950 O   0  0  0  0  0  1  0  0  0  0  0  0
  191.4670  178.4180  144.5830 O   0  0  0  0  0  1  0  0  0  0  0  0
  188.9920  178.2470  143.7320 O   0  0  0  0  0  0  0  0  0  0  0  0
  193.8860  177.5330  139.9750 O   0  0  0  0  0  0  0  0  0  0  0  0
  194.7730  176.5790  140.4770 C   0  0  0  0  0  1  0  0  0  0  0  0
  193.2670  175.5520  135.5260 C   0  0  0  0  0  2  0  0  0  0  0  0
  196.9080  174.6420  136.0750 O   0  0  0  0  0  1  0  0  0  0  0  0
  195.5570  174.5260  135.9970 N   0  0  0  0  0  0  0  0  0  0  0  0
  194.7700  175.6620  135.6070 C   0  0  0  0  0  0  0  0  0  0  0  0
  195.3510  176.7390  135.2890 O   0  0  0  0  0  0  0  0  0  0  0  0
  194.9510  173.2230  136.2470 C   0  0  0  0  0  2  0  0  0  0  0  0
  195.8140  172.1310  135.6430 C   0  0  0  0  0  2  0  0  0  0  0  0
  196.6040  170.8940  137.5140 O   0  0  0  0  0  0  0  0  0  0  0  0
  195.6740  170.8570  136.4560 C   0  0  2  0  0  3  0  0  0  0  0  0
  196.9370  170.0880  136.4070 C   0  0  0  0  0  2  0  0  0  0  0  0
  188.0720  177.7110  136.6330 C   0  0  0  0  0  2  0  0  0  0  0  0
  186.6940  178.8660  134.9490 C   0  0  0  0  0  1  0  0  0  0  0  0
  186.7150  177.7270  135.9440 C   0  0  2  0  0  3  0  0  0  0  0  0
  185.6130  177.9500  136.9660 C   0  0  0  0  0  2  0  0  0  0  0  0
  186.1560  178.4720  138.2130 N   0  0  0  0  0  2  0  0  0  0  0  0
  185.1310  179.2790  138.8830 C   0  0  0  0  0  2  0  0  0  0  0  0
  184.6740  178.6770  140.2180 C   0  0  1  0  0  3  0  0  0  0  0  0
  185.3320  179.2890  141.2880 O   0  0  0  0  0  1  0  0  0  0  0  0
  183.1500  178.7960  140.3210 C   0  0  1  0  0  3  0  0  0  0  0  0
  182.5120  177.9290  139.2490 C   0  0  1  0  0  3  0  0  0  0  0  0
  182.4620  177.4990  140.7050 C   0  0  0  0  0  2  0  0  0  0  0  0
  181.2050  178.5900  138.8210 C   0  0  0  0  0  2  0  0  0  0  0  0
  179.1730  181.9530  134.5990 C   0  0  0  0  0  2  0  0  0  0  0  0
  179.9010  183.1010  135.2840 C   0  0  0  0  0  2  0  0  0  0  0  0
  179.8570  180.6400  134.9250 C   0  0  0  0  0  2  0  0  0  0  0  0
  180.6420  182.6870  136.5680 C   0  0  2  0  0  3  0  0  0  0  0  0
  180.8000  180.8670  138.3950 C   0  0  2  0  0  3  0  0  0  0  0  0
  179.9860  181.4610  137.2580 C   0  0  2  0  0  3  0  0  0  0  0  0
  181.7480  181.7280  138.9160 F   0  0  0  0  0  0  0  0  0  0  0  0
  180.7400  179.3270  136.6520 C   0  0  0  0  0  2  0  0  0  0  0  0
  179.7240  180.3300  136.3510 N   0  0  2  0  0  0  0  0  0  0  0  0
  181.4480  179.6760  137.8800 N   0  0  0  0  0  0  0  0  0  0  0  0
  180.7600  183.8880  137.5150 C   0  0  0  0  0  3  0  0  0  0  0  0
  181.8370  184.6960  137.1460 O   0  0  0  0  0  1  0  0  0  0  0  0
  179.5830  184.6400  137.5240 O   0  0  0  0  0  1  0  0  0  0  0  0
  187.4100  175.1740  136.9450 C   0  0  0  0  0  2  0  0  0  0  0  0
  188.2630  171.2980  135.4400 C   0  0  0  0  0  0  0  0  0  0  0  0
  188.6600  173.0490  137.1130 C   0  0  0  0  0  2  0  0  0  0  0  0
  189.3210  171.9890  136.2390 C   0  0  0  0  0  2  0  0  0  0  0  0
  187.7850  173.9040  136.3050 N   0  0  0  0  0  0  0  0  0  0  0  0
  188.1440  170.0850  135.4780 O   0  0  0  0  0  0  0  0  0  0  0  0
  187.2950  172.1370  134.6720 C   0  0  0  0  0  2  0  0  0  0  0  0
  186.6960  173.1950  135.6060 C   0  0  1  0  0  3  0  0  0  0  0  0
  185.6810  172.5650  136.5630 C   0  0  0  0  0  2  0  0  0  0  0  0
  183.3850  171.7970  136.0080 C   0  0  0  0  0  1  0  0  0  0  0  0
  183.7380  173.7190  137.3480 O   0  0  0  0  0  1  0  0  0  0  0  0
  184.2520  173.0070  136.2630 C   0  0  1  0  0  3  0  0  0  0  0  0
  1 29  1  1  0  0  0
  1  4  1  0  0  0  0
  2  3  1  0  0  0  0
  3 10  1  0  0  0  0
  4  2  1  0  0  0  0
  5  8  1  0  0  0  0
  6  5  2  0  0  0  0
  6  7  1  0  0  0  0
  7  9  1  0  0  0  0
  8  4  1  0  0  0  0
  8  2  1  0  0  0  0
  9  3  1  0  0  0  0
  9 17  1  0  0  0  0
 10 11  2  0  0  0  0
 10 12  1  0  0  0  0
 12 13  1  0  0  0  0
 13 16  2  0  0  0  0
 13 14  1  0  0  0  0
 13 15  1  0  0  0  0
 17 18  1  0  0  0  0
 19 22  1  0  0  0  0
 19  6  1  0  0  0  0
 21 20  1  0  0  0  0
 21 24  1  0  0  0  0
 22 21  1  0  0  0  0
 23 22  2  0  0  0  0
 25 24  1  0  0  0  0
 25 27  1  0  0  0  0
 27 26  1  0  0  0  0
 28 27  1  0  0  0  0
 28 26  1  0  0  0  0
 30 31  1  0  0  0  0
 31 29  1  0  0  0  0
 31 32  1  0  0  0  0
 32 33  1  0  0  0  0
 33 34  1  0  0  0  0
 34 35  1  0  0  0  0
 35 37  1  0  0  0  0
 35 36  1  0  0  0  0
 37 39  1  0  0  0  0
 38 37  1  0  0  0  0
 38 39  1  0  0  0  0
 40 38  1  0  0  0  0
 41 43  1  0  0  0  0
 41 42  1  0  0  0  0
 42 44  1  0  0  0  0
 43 49  1  0  0  0  0
 44 46  1  0  0  0  0
 44 51  1  0  0  0  0
 45 47  1  0  0  0  0
 46 45  1  0  0  0  0
 48 50  1  0  0  0  0
 49 48  1  0  0  0  0
 49 46  1  0  0  0  0
 50 45  1  0  0  0  0
 50 40  1  0  0  0  0
 51 53  1  0  0  0  0
 52 51  1  0  0  0  0
 54  1  1  0  0  0  0
 55 59  2  0  0  0  0
 55 57  1  0  0  0  0
 57 56  1  0  0  0  0
 58 54  1  0  0  0  0
 58 56  1  0  0  0  0
 60 55  1  0  0  0  0
 60 61  1  0  0  0  0
 61 58  1  0  0  0  0
 61 62  1  0  0  0  0
 63 65  1  0  0  0  0
 65 62  1  0  0  0  0
 65 64  1  0  0  0  0
M  END
>  <MODEL>
4

>  <REMARK>
 VINA RESULT:      -4.1      3.603      7.386
  Name = 
  24 active torsions:
  status: ('A' for Active; 'I' for Inactive)
    1  A    between atoms: C_2  and  C_38
    2  A    between atoms: C_3  and  N_20
    3  A    between atoms: C_3  and  C_54
    4  A    between atoms: P_4  and  O_17
    5  A    between atoms: N_10  and  C_18
    6  A    between atoms: C_11  and  C_62
    7  A    between atoms: C_12  and  C_41
    8  A    between atoms: O_17  and  C_41
    9  A    between atoms: C_18  and  C_34
   10  A    between atoms: C_19  and  C_29
   11  A    between atoms: C_22  and  C_34
   12  A    between atoms: C_23  and  C_29
   13  A    between atoms: C_23  and  N_40
   14  A    between atoms: C_24  and  C_26
   15  A    between atoms: C_25  and  C_54
   16  A    between atoms: C_26  and  N_61
   17  A    between atoms: O_28  and  C_57
   18  A    between atoms: C_35  and  C_62
   19  A    between atoms: N_40  and  C_49
   20  A    between atoms: C_49  and  C_52
   21  A    between atoms: C_52  and  C_64
   22  A    between atoms: C_54  and  C_64
   23  A    between atoms: C_58  and  C_60
   24  A    between atoms: C_60  and  C_63
                            x       y       z     vdW  Elec       q    Type
                         _______ _______ _______ _____ _____    ______ ____

>  <TORSDO>
F 24

$$$$
=
 OpenBabel11062417393D

 65 71  0  0  1  0  0  0  0  0999 V2000
  187.1780  177.7180  138.2080 C   0  0  2  0  0  3  0  0  0  0  0  0
  189.6740  177.6710  138.9220 C   0  0  2  0  0  3  0  0  0  0  0  0
  190.9610  177.4630  139.7420 C   0  0  2  0  0  3  0  0  0  0  0  0
  188.2360  177.2590  139.2480 C   0  0  2  0  0  3  0  0  0  0  0  0
  189.4820  176.0230  137.2230 C   0  0  0  0  0  3  0  0  0  0  0  0
  190.7120  176.1890  136.6880 C   0  0  0  0  0  0  0  0  0  0  0  0
  191.9120  176.7650  137.4380 C   0  0  0  0  0  2  0  0  0  0  0  0
  189.2140  176.2350  138.6820 C   0  0  1  0  0  3  0  0  0  0  0  0
  191.9700  176.5540  138.9720 C   0  0  1  0  0  3  0  0  0  0  0  0
  190.7820  177.0550  141.1880 C   0  0  0  0  0  0  0  0  0  0  0  0
  189.9980  176.1070  141.4690 O   0  0  0  0  0  0  0  0  0  0  0  0
  191.5220  177.6700  142.2030 O   0  0  0  0  0  0  0  0  0  0  0  0
  190.8100  178.1620  143.6900 P   0  0  0  0  0  0  0  0  0  0  0  0
  189.1410  177.8770  143.6420 O   0  0  0  0  0  0  0  0  0  0  0  0
  191.4220  177.3670  144.8190 O   0  0  0  0  0  1  0  0  0  0  0  0
  191.0970  179.8140  143.9320 O   0  0  0  0  0  1  0  0  0  0  0  0
  193.2660  176.8380  139.4130 O   0  0  0  0  0  0  0  0  0  0  0  0
  194.0000  177.1150  138.2580 C   0  0  0  0  0  1  0  0  0  0  0  0
  190.8810  175.9260  135.2200 C   0  0  0  0  0  2  0  0  0  0  0  0
  192.1380  172.4020  134.6000 O   0  0  0  0  0  1  0  0  0  0  0  0
  192.1350  173.7240  134.9130 N   0  0  0  0  0  0  0  0  0  0  0  0
  190.8990  174.4550  134.8850 C   0  0  0  0  0  0  0  0  0  0  0  0
  189.8240  173.8460  134.6210 O   0  0  0  0  0  0  0  0  0  0  0  0
  193.3840  174.3450  135.3400 C   0  0  0  0  0  2  0  0  0  0  0  0
  193.8180  173.7630  136.6710 C   0  0  0  0  0  2  0  0  0  0  0  0
  196.0160  173.1020  136.0480 O   0  0  0  0  0  0  0  0  0  0  0  0
  195.3040  173.9960  136.8740 C   0  0  2  0  0  3  0  0  0  0  0  0
  195.9350  172.7720  137.4160 C   0  0  0  0  0  2  0  0  0  0  0  0
  185.8990  178.2280  138.8770 C   0  0  0  0  0  2  0  0  0  0  0  0
  186.9790  178.0720  141.0860 C   0  0  0  0  0  1  0  0  0  0  0  0
  186.1960  178.9810  140.1650 C   0  0  2  0  0  3  0  0  0  0  0  0
  184.8990  179.3740  140.8520 C   0  0  0  0  0  2  0  0  0  0  0  0
  184.6320  178.5110  141.9940 N   0  0  0  0  0  2  0  0  0  0  0  0
  184.3670  179.3410  143.1730 C   0  0  0  0  0  2  0  0  0  0  0  0
  183.3270  178.7260  144.1180 C   0  0  1  0  0  3  0  0  0  0  0  0
  183.7570  178.8010  145.4450 O   0  0  0  0  0  1  0  0  0  0  0  0
  181.9810  179.4240  143.8970 C   0  0  1  0  0  3  0  0  0  0  0  0
  181.2690  178.7700  142.7250 C   0  0  1  0  0  3  0  0  0  0  0  0
  180.7810  178.5280  144.1440 C   0  0  0  0  0  2  0  0  0  0  0  0
  180.4310  179.8350  142.0250 C   0  0  0  0  0  2  0  0  0  0  0  0
  181.6590  178.6840  136.5080 C   0  0  0  0  0  2  0  0  0  0  0  0
  180.7930  177.4420  136.6670 C   0  0  0  0  0  2  0  0  0  0  0  0
  181.2160  179.7510  137.4890 C   0  0  0  0  0  2  0  0  0  0  0  0
  180.1990  177.2770  138.0770 C   0  0  2  0  0  3  0  0  0  0  0  0
  180.4380  178.0070  140.5440 C   0  0  2  0  0  3  0  0  0  0  0  0
  181.0810  177.9380  139.1700 C   0  0  2  0  0  3  0  0  0  0  0  0
  179.3920  177.1200  140.7190 F   0  0  0  0  0  0  0  0  0  0  0  0
  180.6520  180.1740  139.7230 C   0  0  0  0  0  2  0  0  0  0  0  0
  181.4740  179.3250  138.8670 N   0  0  2  0  0  0  0  0  0  0  0  0
  179.9650  179.3660  140.7260 N   0  0  0  0  0  0  0  0  0  0  0  0
  179.9390  175.7930  138.3650 C   0  0  0  0  0  3  0  0  0  0  0  0
  179.1910  175.2200  137.3350 O   0  0  0  0  0  1  0  0  0  0  0  0
  181.1370  175.0930  138.5270 O   0  0  0  0  0  1  0  0  0  0  0  0
  187.0260  176.7500  137.0020 C   0  0  0  0  0  2  0  0  0  0  0  0
  183.7670  174.0980  136.4050 C   0  0  0  0  0  0  0  0  0  0  0  0
  184.9720  176.1390  135.7720 C   0  0  0  0  0  2  0  0  0  0  0  0
  183.5950  175.5240  135.9940 C   0  0  0  0  0  2  0  0  0  0  0  0
  185.8350  175.8910  136.9310 N   0  0  0  0  0  0  0  0  0  0  0  0
  183.2160  173.2000  135.7910 O   0  0  0  0  0  0  0  0  0  0  0  0
  184.7070  173.7920  137.5250 C   0  0  0  0  0  2  0  0  0  0  0  0
  186.0560  174.4660  137.2470 C   0  0  1  0  0  3  0  0  0  0  0  0
  186.8210  173.7210  136.1510 C   0  0  0  0  0  2  0  0  0  0  0  0
  187.6470  171.5270  135.3310 C   0  0  0  0  0  1  0  0  0  0  0  0
  188.0440  172.2240  137.5610 O   0  0  0  0  0  1  0  0  0  0  0  0
  187.1040  172.2700  136.5280 C   0  0  1  0  0  3  0  0  0  0  0  0
  1 54  1  6  0  0  0
  1 29  1  0  0  0  0
  1  4  1  0  0  0  0
  2  4  1  0  0  0  0
  2  3  1  0  0  0  0
  3 10  1  0  0  0  0
  5  8  1  0  0  0  0
  6  5  2  0  0  0  0
  6  7  1  0  0  0  0
  7  9  1  0  0  0  0
  8  2  1  0  0  0  0
  8  4  1  0  0  0  0
  9 17  1  0  0  0  0
  9  3  1  0  0  0  0
 10 11  2  0  0  0  0
 10 12  1  0  0  0  0
 12 13  1  0  0  0  0
 13 16  1  0  0  0  0
 13 15  1  0  0  0  0
 14 13  2  0  0  0  0
 18 17  1  0  0  0  0
 19  6  1  0  0  0  0
 20 21  1  0  0  0  0
 21 24  1  0  0  0  0
 22 21  1  0  0  0  0
 22 19  1  0  0  0  0
 23 22  2  0  0  0  0
 24 25  1  0  0  0  0
 25 27  1  0  0  0  0
 26 27  1  0  0  0  0
 26 28  1  0  0  0  0
 27 28  1  0  0  0  0
 29 31  1  0  0  0  0
 31 32  1  0  0  0  0
 31 30  1  0  0  0  0
 32 33  1  0  0  0  0
 33 34  1  0  0  0  0
 34 35  1  0  0  0  0
 35 36  1  0  0  0  0
 37 35  1  0  0  0  0
 37 39  1  0  0  0  0
 38 37  1  0  0  0  0
 38 39  1  0  0  0  0
 40 38  1  0  0  0  0
 41 42  1  0  0  0  0
 41 43  1  0  0  0  0
 42 44  1  0  0  0  0
 43 49  1  0  0  0  0
 44 51  1  0  0  0  0
 44 46  1  0  0  0  0
 45 47  1  0  0  0  0
 45 50  1  0  0  0  0
 46 45  1  0  0  0  0
 48 50  1  0  0  0  0
 49 46  1  0  0  0  0
 49 48  1  0  0  0  0
 50 40  1  0  0  0  0
 51 53  1  0  0  0  0
 52 51  1  0  0  0  0
 55 60  1  0  0  0  0
 56 57  1  0  0  0  0
 56 58  1  0  0  0  0
 57 55  1  0  0  0  0
 58 54  1  0  0  0  0
 58 61  1  0  0  0  0
 59 55  2  0  0  0  0
 61 60  1  0  0  0  0
 62 65  1  0  0  0  0
 62 61  1  0  0  0  0
 63 65  1  0  0  0  0
 65 64  1  0  0  0  0
M  END
>  <MODEL>
5

>  <REMARK>
 VINA RESULT:      -4.1      3.102      6.271
  Name = 
  24 active torsions:
  status: ('A' for Active; 'I' for Inactive)
    1  A    between atoms: C_2  and  C_38
    2  A    between atoms: C_3  and  N_20
    3  A    between atoms: C_3  and  C_54
    4  A    between atoms: P_4  and  O_17
    5  A    between atoms: N_10  and  C_18
    6  A    between atoms: C_11  and  C_62
    7  A    between atoms: C_12  and  C_41
    8  A    between atoms: O_17  and  C_41
    9  A    between atoms: C_18  and  C_34
   10  A    between atoms: C_19  and  C_29
   11  A    between atoms: C_22  and  C_34
   12  A    between atoms: C_23  and  C_29
   13  A    between atoms: C_23  and  N_40
   14  A    between atoms: C_24  and  C_26
   15  A    between atoms: C_25  and  C_54
   16  A    between atoms: C_26  and  N_61
   17  A    between atoms: O_28  and  C_57
   18  A    between atoms: C_35  and  C_62
   19  A    between atoms: N_40  and  C_49
   20  A    between atoms: C_49  and  C_52
   21  A    between atoms: C_52  and  C_64
   22  A    between atoms: C_54  and  C_64
   23  A    between atoms: C_58  and  C_60
   24  A    between atoms: C_60  and  C_63
                            x       y       z     vdW  Elec       q    Type
                         _______ _______ _______ _____ _____    ______ ____

>  <TORSDO>
F 24

$$$$
=
 OpenBabel11062417393D

 65 71  0  0  1  0  0  0  0  0999 V2000
  187.6480  177.4640  141.6710 C   0  0  2  0  0  3  0  0  0  0  0  0
  188.7010  178.1400  139.3970 C   0  0  2  0  0  3  0  0  0  0  0  0
  189.6250  178.1900  138.1650 C   0  0  2  0  0  3  0  0  0  0  0  0
  188.6800  177.1420  140.5570 C   0  0  2  0  0  3  0  0  0  0  0  0
  186.6180  177.1410  138.8460 C   0  0  0  0  0  3  0  0  0  0  0  0
  186.3430  177.9080  137.7680 C   0  0  0  0  0  0  0  0  0  0  0  0
  187.3940  178.6330  136.9300 C   0  0  0  0  0  2  0  0  0  0  0  0
  188.0210  176.7830  139.2290 C   0  0  1  0  0  3  0  0  0  0  0  0
  188.8070  178.0040  136.8480 C   0  0  1  0  0  3  0  0  0  0  0  0
  190.8660  177.3250  138.2180 C   0  0  0  0  0  0  0  0  0  0  0  0
  191.5750  177.3260  139.2620 O   0  0  0  0  0  0  0  0  0  0  0  0
  191.1960  176.4800  137.1540 O   0  0  0  0  0  0  0  0  0  0  0  0
  192.6590  175.5740  137.1190 P   0  0  0  0  0  0  0  0  0  0  0  0
  193.9080  176.4880  137.8060 O   0  0  0  0  0  1  0  0  0  0  0  0
  192.4730  174.3030  137.9120 O   0  0  0  0  0  1  0  0  0  0  0  0
  193.0490  175.1950  135.5140 O   0  0  0  0  0  0  0  0  0  0  0  0
  189.5030  178.6030  135.7930 O   0  0  0  0  0  0  0  0  0  0  0  0
  189.2110  177.8310  134.6680 C   0  0  0  0  0  1  0  0  0  0  0  0
  184.9020  178.1870  137.4540 C   0  0  0  0  0  2  0  0  0  0  0  0
  183.2610  175.0760  136.0360 O   0  0  0  0  0  1  0  0  0  0  0  0
  184.0220  176.1990  136.1170 N   0  0  0  0  0  0  0  0  0  0  0  0
  184.0700  176.9330  137.3500 C   0  0  0  0  0  0  0  0  0  0  0  0
  183.4450  176.4940  138.3580 O   0  0  0  0  0  0  0  0  0  0  0  0
  184.8260  176.5840  134.9630 C   0  0  0  0  0  2  0  0  0  0  0  0
  185.7990  175.4720  134.6210 C   0  0  0  0  0  2  0  0  0  0  0  0
  187.8250  174.8630  135.7080 O   0  0  0  0  0  0  0  0  0  0  0  0
  186.4290  174.9310  135.8920 C   0  0  2  0  0  3  0  0  0  0  0  0
  187.1140  173.6510  135.6080 C   0  0  0  0  0  2  0  0  0  0  0  0
  187.4120  178.9700  141.8170 C   0  0  0  0  0  2  0  0  0  0  0  0
  185.6750  180.3500  142.8890 C   0  0  0  0  0  1  0  0  0  0  0  0
  185.9300  179.3140  141.8170 C   0  0  2  0  0  3  0  0  0  0  0  0
  185.1070  178.0750  142.1290 C   0  0  0  0  0  2  0  0  0  0  0  0
  184.2640  178.2900  143.2970 N   0  0  0  0  0  2  0  0  0  0  0  0
  182.8630  178.0640  142.9270 C   0  0  0  0  0  2  0  0  0  0  0  0
  182.5200  178.5940  141.5280 C   0  0  1  0  0  3  0  0  0  0  0  0
  182.0600  177.5610  140.7070 O   0  0  0  0  0  1  0  0  0  0  0  0
  181.5060  179.7330  141.6640 C   0  0  1  0  0  3  0  0  0  0  0  0
  180.2490  179.3740  140.8900 C   0  0  1  0  0  3  0  0  0  0  0  0
  180.2430  179.3410  142.4090 C   0  0  0  0  0  2  0  0  0  0  0  0
  179.6320  180.6650  140.3610 C   0  0  0  0  0  2  0  0  0  0  0  0
  180.5090  180.7460  134.6610 C   0  0  0  0  0  2  0  0  0  0  0  0
  180.7070  182.2490  134.8030 C   0  0  0  0  0  2  0  0  0  0  0  0
  180.8550  180.0550  135.9640 C   0  0  0  0  0  2  0  0  0  0  0  0
  180.5470  182.7620  136.2450 C   0  0  2  0  0  3  0  0  0  0  0  0
  179.5800  182.1900  138.5710 C   0  0  2  0  0  3  0  0  0  0  0  0
  179.5970  181.8690  137.0870 C   0  0  2  0  0  3  0  0  0  0  0  0
  180.0500  183.4540  138.8780 F   0  0  0  0  0  0  0  0  0  0  0  0
  180.5400  180.0900  138.2850 C   0  0  0  0  0  2  0  0  0  0  0  0
  179.9060  180.4300  137.0160 N   0  0  2  0  0  0  0  0  0  0  0  0
  180.3940  181.1890  139.2350 N   0  0  0  0  0  0  0  0  0  0  0  0
  180.0990  184.2290  136.2320 C   0  0  0  0  0  3  0  0  0  0  0  0
  181.2030  185.0770  136.3460 O   0  0  0  0  0  1  0  0  0  0  0  0
  179.3890  184.5290  135.0670 O   0  0  0  0  0  1  0  0  0  0  0  0
  187.8500  176.6350  142.9700 C   0  0  0  0  0  2  0  0  0  0  0  0
  187.9700  178.2520  146.8920 C   0  0  0  0  0  0  0  0  0  0  0  0
  186.8560  176.8410  145.2230 C   0  0  0  0  0  2  0  0  0  0  0  0
  186.6400  177.8600  146.3360 C   0  0  0  0  0  2  0  0  0  0  0  0
  187.8480  177.3360  144.2630 N   0  0  0  0  0  0  0  0  0  0  0  0
  188.2030  178.1520  148.0850 O   0  0  0  0  0  0  0  0  0  0  0  0
  189.0380  178.6790  145.9390 C   0  0  0  0  0  2  0  0  0  0  0  0
  189.1770  177.6220  144.8360 C   0  0  1  0  0  3  0  0  0  0  0  0
  189.8840  176.3720  145.3650 C   0  0  0  0  0  2  0  0  0  0  0  0
  191.6540  177.2670  143.8690 C   0  0  0  0  0  1  0  0  0  0  0  0
  192.0830  176.8700  146.1660 O   0  0  0  0  0  1  0  0  0  0  0  0
  191.3800  176.3830  145.0620 C   0  0  1  0  0  3  0  0  0  0  0  0
  1 29  1  1  0  0  0
  1 54  1  0  0  0  0
  2  4  1  0  0  0  0
  3 10  1  0  0  0  0
  3  2  1  0  0  0  0
  4  1  1  0  0  0  0
  5  8  1  0  0  0  0
  6  5  2  0  0  0  0
  7  6  1  0  0  0  0
  8  2  1  0  0  0  0
  8  4  1  0  0  0  0
  9  7  1  0  0  0  0
  9  3  1  0  0  0  0
 10 11  2  0  0  0  0
 12 10  1  0  0  0  0
 13 12  1  0  0  0  0
 13 14  1  0  0  0  0
 13 15  1  0  0  0  0
 16 13  2  0  0  0  0
 17  9  1  0  0  0  0
 18 17  1  0  0  0  0
 19  6  1  0  0  0  0
 20 21  1  0  0  0  0
 21 22  1  0  0  0  0
 22 19  1  0  0  0  0
 22 23  2  0  0  0  0
 24 21  1  0  0  0  0
 25 24  1  0  0  0  0
 25 27  1  0  0  0  0
 26 27  1  0  0  0  0
 28 26  1  0  0  0  0
 28 27  1  0  0  0  0
 31 29  1  0  0  0  0
 31 32  1  0  0  0  0
 31 30  1  0  0  0  0
 32 33  1  0  0  0  0
 34 33  1  0  0  0  0
 35 37  1  0  0  0  0
 35 34  1  0  0  0  0
 36 35  1  0  0  0  0
 37 39  1  0  0  0  0
 38 37  1  0  0  0  0
 38 39  1  0  0  0  0
 40 38  1  0  0  0  0
 41 42  1  0  0  0  0
 41 43  1  0  0  0  0
 42 44  1  0  0  0  0
 43 49  1  0  0  0  0
 44 46  1  0  0  0  0
 45 47  1  0  0  0  0
 45 50  1  0  0  0  0
 46 45  1  0  0  0  0
 48 50  1  0  0  0  0
 49 46  1  0  0  0  0
 49 48  1  0  0  0  0
 50 40  1  0  0  0  0
 51 44  1  0  0  0  0
 51 52  1  0  0  0  0
 53 51  1  0  0  0  0
 54 58  1  0  0  0  0
 55 59  2  0  0  0  0
 56 57  1  0  0  0  0
 57 55  1  0  0  0  0
 58 61  1  0  0  0  0
 58 56  1  0  0  0  0
 60 55  1  0  0  0  0
 61 62  1  0  0  0  0
 61 60  1  0  0  0  0
 63 65  1  0  0  0  0
 65 62  1  0  0  0  0
 65 64  1  0  0  0  0
M  END
>  <MODEL>
6

>  <REMARK>
 VINA RESULT:      -3.8      3.346      6.453
  Name = 
  24 active torsions:
  status: ('A' for Active; 'I' for Inactive)
    1  A    between atoms: C_2  and  C_38
    2  A    between atoms: C_3  and  N_20
    3  A    between atoms: C_3  and  C_54
    4  A    between atoms: P_4  and  O_17
    5  A    between atoms: N_10  and  C_18
    6  A    between atoms: C_11  and  C_62
    7  A    between atoms: C_12  and  C_41
    8  A    between atoms: O_17  and  C_41
    9  A    between atoms: C_18  and  C_34
   10  A    between atoms: C_19  and  C_29
   11  A    between atoms: C_22  and  C_34
   12  A    between atoms: C_23  and  C_29
   13  A    between atoms: C_23  and  N_40
   14  A    between atoms: C_24  and  C_26
   15  A    between atoms: C_25  and  C_54
   16  A    between atoms: C_26  and  N_61
   17  A    between atoms: O_28  and  C_57
   18  A    between atoms: C_35  and  C_62
   19  A    between atoms: N_40  and  C_49
   20  A    between atoms: C_49  and  C_52
   21  A    between atoms: C_52  and  C_64
   22  A    between atoms: C_54  and  C_64
   23  A    between atoms: C_58  and  C_60
   24  A    between atoms: C_60  and  C_63
                            x       y       z     vdW  Elec       q    Type
                         _______ _______ _______ _____ _____    ______ ____

>  <TORSDO>
F 24

$$$$
=
 OpenBabel11062417393D

 65 71  0  0  1  0  0  0  0  0999 V2000
  187.1180  177.8250  141.8600 C   0  0  2  0  0  3  0  0  0  0  0  0
  188.1710  178.4090  139.5600 C   0  0  2  0  0  3  0  0  0  0  0  0
  189.1190  178.4420  138.3460 C   0  0  2  0  0  3  0  0  0  0  0  0
  188.2010  177.5050  140.7950 C   0  0  2  0  0  3  0  0  0  0  0  0
  186.1910  177.2020  139.0490 C   0  0  0  0  0  3  0  0  0  0  0  0
  185.8810  177.8590  137.9100 C   0  0  0  0  0  0  0  0  0  0  0  0
  186.8910  178.6030  137.0380 C   0  0  0  0  0  2  0  0  0  0  0  0
  187.6080  176.9920  139.4860 C   0  0  1  0  0  3  0  0  0  0  0  0
  188.3530  178.0890  137.0330 C   0  0  1  0  0  3  0  0  0  0  0  0
  190.4240  177.6900  138.4900 C   0  0  0  0  0  0  0  0  0  0  0  0
  190.9820  177.6330  139.6210 O   0  0  0  0  0  0  0  0  0  0  0  0
  190.9800  177.0060  137.4050 O   0  0  0  0  0  0  0  0  0  0  0  0
  191.2910  175.3140  137.4480 P   0  0  0  0  0  0  0  0  0  0  0  0
  191.9000  174.8100  135.9510 O   0  0  0  0  0  0  0  0  0  0  0  0
  192.3090  175.0250  138.5260 O   0  0  0  0  0  1  0  0  0  0  0  0
  189.8520  174.4850  137.7840 O   0  0  0  0  0  1  0  0  0  0  0  0
  189.0230  178.6620  135.9480 O   0  0  0  0  0  0  0  0  0  0  0  0
  189.0570  177.6710  134.9650 C   0  0  0  0  0  1  0  0  0  0  0  0
  184.4310  177.9930  137.5480 C   0  0  0  0  0  2  0  0  0  0  0  0
  183.4160  175.1750  135.2220 O   0  0  0  0  0  1  0  0  0  0  0  0
  183.7330  175.8440  136.3610 N   0  0  0  0  0  0  0  0  0  0  0  0
  184.0670  177.2380  136.2930 C   0  0  0  0  0  0  0  0  0  0  0  0
  184.0110  177.8360  135.1800 O   0  0  0  0  0  0  0  0  0  0  0  0
  183.6530  175.1350  137.6330 C   0  0  0  0  0  2  0  0  0  0  0  0
  182.2660  174.5470  137.8070 C   0  0  0  0  0  2  0  0  0  0  0  0
  180.0320  175.0680  138.4360 O   0  0  0  0  0  0  0  0  0  0  0  0
  181.2730  175.6540  138.1140 C   0  0  2  0  0  3  0  0  0  0  0  0
  180.1580  175.6120  137.1430 C   0  0  0  0  0  2  0  0  0  0  0  0
  186.9400  179.3320  142.0640 C   0  0  0  0  0  2  0  0  0  0  0  0
  185.3160  179.9340  143.8160 C   0  0  0  0  0  1  0  0  0  0  0  0
  185.4890  179.6990  142.3310 C   0  0  2  0  0  3  0  0  0  0  0  0
  184.5750  178.5620  141.9070 C   0  0  0  0  0  2  0  0  0  0  0  0
  183.6360  178.2240  142.9680 N   0  0  0  0  0  2  0  0  0  0  0  0
  182.2990  178.0530  142.3890 C   0  0  0  0  0  2  0  0  0  0  0  0
  182.1470  178.7310  141.0220 C   0  0  1  0  0  3  0  0  0  0  0  0
  182.1700  177.7850  139.9940 O   0  0  0  0  0  1  0  0  0  0  0  0
  180.8630  179.5670  141.0220 C   0  0  1  0  0  3  0  0  0  0  0  0
  179.8570  178.9300  140.0790 C   0  0  1  0  0  3  0  0  0  0  0  0
  179.6580  178.8340  141.5830 C   0  0  0  0  0  2  0  0  0  0  0  0
  179.0020  180.0410  139.4770 C   0  0  0  0  0  2  0  0  0  0  0  0
  180.5370  183.2210  134.9170 C   0  0  0  0  0  2  0  0  0  0  0  0
  180.5570  184.4110  135.8650 C   0  0  0  0  0  2  0  0  0  0  0  0
  180.7970  181.9420  135.6870 C   0  0  0  0  0  2  0  0  0  0  0  0
  180.1730  184.0570  137.3130 C   0  0  2  0  0  3  0  0  0  0  0  0
  179.0020  182.2920  138.7910 C   0  0  2  0  0  3  0  0  0  0  0  0
  179.2300  182.8260  137.3880 C   0  0  2  0  0  3  0  0  0  0  0  0
  179.2960  183.1980  139.7930 F   0  0  0  0  0  0  0  0  0  0  0  0
  180.2060  180.7060  137.5870 C   0  0  0  0  0  2  0  0  0  0  0  0
  179.6950  181.6640  136.6130 N   0  0  2  0  0  0  0  0  0  0  0  0
  179.8320  181.1110  138.9390 N   0  0  0  0  0  0  0  0  0  0  0  0
  179.5760  185.2850  138.0120 C   0  0  0  0  0  3  0  0  0  0  0  0
  180.5710  185.9890  138.6930 O   0  0  0  0  0  1  0  0  0  0  0  0
  178.9410  186.1270  137.0970 O   0  0  0  0  0  1  0  0  0  0  0  0
  187.2040  176.9290  143.1270 C   0  0  0  0  0  2  0  0  0  0  0  0
  189.0940  178.0950  146.7440 C   0  0  0  0  0  0  0  0  0  0  0  0
  187.2140  177.0120  145.5970 C   0  0  0  0  0  2  0  0  0  0  0  0
  187.6090  177.9260  146.7520 C   0  0  0  0  0  2  0  0  0  0  0  0
  187.8140  177.4830  144.3440 N   0  0  0  0  0  0  0  0  0  0  0  0
  189.7560  177.8410  147.7360 O   0  0  0  0  0  0  0  0  0  0  0  0
  189.7550  178.4880  145.4640 C   0  0  0  0  0  2  0  0  0  0  0  0
  189.2890  177.5460  144.3480 C   0  0  1  0  0  3  0  0  0  0  0  0
  189.9470  176.1710  144.4850 C   0  0  0  0  0  2  0  0  0  0  0  0
  191.5340  177.2780  142.9290 C   0  0  0  0  0  1  0  0  0  0  0  0
  192.1090  175.2560  144.0230 O   0  0  0  0  0  1  0  0  0  0  0  0
  191.0410  175.9480  143.4460 C   0  0  1  0  0  3  0  0  0  0  0  0
  1 29  1  1  0  0  0
  1 54  1  0  0  0  0
  2  4  1  0  0  0  0
  3 10  1  0  0  0  0
  3  2  1  0  0  0  0
  4  1  1  0  0  0  0
  5  8  1  0  0  0  0
  6  5  2  0  0  0  0
  7  6  1  0  0  0  0
  8  2  1  0  0  0  0
  8  4  1  0  0  0  0
  9  7  1  0  0  0  0
  9  3  1  0  0  0  0
 10 11  2  0  0  0  0
 12 13  1  0  0  0  0
 12 10  1  0  0  0  0
 13 16  1  0  0  0  0
 13 15  1  0  0  0  0
 14 13  2  0  0  0  0
 17  9  1  0  0  0  0
 18 17  1  0  0  0  0
 19  6  1  0  0  0  0
 20 21  1  0  0  0  0
 21 24  1  0  0  0  0
 22 21  1  0  0  0  0
 22 19  1  0  0  0  0
 23 22  2  0  0  0  0
 24 25  1  0  0  0  0
 25 27  1  0  0  0  0
 27 26  1  0  0  0  0
 28 27  1  0  0  0  0
 28 26  1  0  0  0  0
 29 31  1  0  0  0  0
 31 30  1  0  0  0  0
 32 31  1  0  0  0  0
 32 33  1  0  0  0  0
 34 33  1  0  0  0  0
 35 34  1  0  0  0  0
 36 35  1  0  0  0  0
 37 35  1  0  0  0  0
 37 39  1  0  0  0  0
 38 37  1  0  0  0  0
 38 39  1  0  0  0  0
 40 38  1  0  0  0  0
 41 43  1  0  0  0  0
 41 42  1  0  0  0  0
 42 44  1  0  0  0  0
 43 49  1  0  0  0  0
 44 46  1  0  0  0  0
 44 51  1  0  0  0  0
 45 50  1  0  0  0  0
 45 47  1  0  0  0  0
 46 45  1  0  0  0  0
 48 50  1  0  0  0  0
 49 46  1  0  0  0  0
 49 48  1  0  0  0  0
 50 40  1  0  0  0  0
 51 52  1  0  0  0  0
 53 51  1  0  0  0  0
 54 58  1  0  0  0  0
 55 57  1  0  0  0  0
 55 59  2  0  0  0  0
 56 57  1  0  0  0  0
 58 61  1  0  0  0  0
 58 56  1  0  0  0  0
 60 55  1  0  0  0  0
 61 62  1  0  0  0  0
 61 60  1  0  0  0  0
 63 65  1  0  0  0  0
 65 64  1  0  0  0  0
 65 62  1  0  0  0  0
M  END
>  <MODEL>
7

>  <REMARK>
 VINA RESULT:      -3.8      3.539      7.220
  Name = 
  24 active torsions:
  status: ('A' for Active; 'I' for Inactive)
    1  A    between atoms: C_2  and  C_38
    2  A    between atoms: C_3  and  N_20
    3  A    between atoms: C_3  and  C_54
    4  A    between atoms: P_4  and  O_17
    5  A    between atoms: N_10  and  C_18
    6  A    between atoms: C_11  and  C_62
    7  A    between atoms: C_12  and  C_41
    8  A    between atoms: O_17  and  C_41
    9  A    between atoms: C_18  and  C_34
   10  A    between atoms: C_19  and  C_29
   11  A    between atoms: C_22  and  C_34
   12  A    between atoms: C_23  and  C_29
   13  A    between atoms: C_23  and  N_40
   14  A    between atoms: C_24  and  C_26
   15  A    between atoms: C_25  and  C_54
   16  A    between atoms: C_26  and  N_61
   17  A    between atoms: O_28  and  C_57
   18  A    between atoms: C_35  and  C_62
   19  A    between atoms: N_40  and  C_49
   20  A    between atoms: C_49  and  C_52
   21  A    between atoms: C_52  and  C_64
   22  A    between atoms: C_54  and  C_64
   23  A    between atoms: C_58  and  C_60
   24  A    between atoms: C_60  and  C_63
                            x       y       z     vdW  Elec       q    Type
                         _______ _______ _______ _____ _____    ______ ____

>  <TORSDO>
F 24

$$$$
=
 OpenBabel11062417393D

 65 71  0  0  1  0  0  0  0  0999 V2000
  187.2690  177.8810  141.2910 C   0  0  2  0  0  3  0  0  0  0  0  0
  188.7450  177.9500  139.1560 C   0  0  2  0  0  3  0  0  0  0  0  0
  189.8650  177.6670  138.1370 C   0  0  2  0  0  3  0  0  0  0  0  0
  188.4440  177.2590  140.4880 C   0  0  2  0  0  3  0  0  0  0  0  0
  186.7090  176.9370  138.4720 C   0  0  0  0  0  3  0  0  0  0  0  0
  186.6850  177.4360  137.2160 C   0  0  0  0  0  0  0  0  0  0  0  0
  187.9210  177.8970  136.4440 C   0  0  0  0  0  2  0  0  0  0  0  0
  187.9920  176.6220  139.1780 C   0  0  1  0  0  3  0  0  0  0  0  0
  189.2700  177.2070  136.7690 C   0  0  1  0  0  3  0  0  0  0  0  0
  191.0020  176.7880  138.6130 C   0  0  0  0  0  0  0  0  0  0  0  0
  191.3870  176.8730  139.8110 O   0  0  0  0  0  0  0  0  0  0  0  0
  191.5810  175.8430  137.7600 O   0  0  0  0  0  0  0  0  0  0  0  0
  193.2690  175.8210  137.4240 P   0  0  0  0  0  0  0  0  0  0  0  0
  193.5430  176.3940  135.8550 O   0  0  0  0  0  0  0  0  0  0  0  0
  193.9820  176.7100  138.4150 O   0  0  0  0  0  1  0  0  0  0  0  0
  193.8490  174.2340  137.5580 O   0  0  0  0  0  1  0  0  0  0  0  0
  190.1810  177.5090  135.7530 O   0  0  0  0  0  0  0  0  0  0  0  0
  189.4160  177.6430  134.5940 C   0  0  0  0  0  1  0  0  0  0  0  0
  185.3470  177.6930  136.5870 C   0  0  0  0  0  2  0  0  0  0  0  0
  182.9750  175.3750  134.7480 O   0  0  0  0  0  1  0  0  0  0  0  0
  183.4410  176.4580  135.4230 N   0  0  0  0  0  0  0  0  0  0  0  0
  184.8180  176.5020  135.8270 C   0  0  0  0  0  0  0  0  0  0  0  0
  185.5900  175.5550  135.5020 O   0  0  0  0  0  0  0  0  0  0  0  0
  182.5370  177.5790  135.6550 C   0  0  0  0  0  2  0  0  0  0  0  0
  181.3230  177.4550  134.7540 C   0  0  0  0  0  2  0  0  0  0  0  0
  178.9510  177.6210  134.8000 O   0  0  0  0  0  0  0  0  0  0  0  0
  180.0700  177.3060  135.5970 C   0  0  2  0  0  3  0  0  0  0  0  0
  179.3800  178.6110  135.7060 C   0  0  0  0  0  2  0  0  0  0  0  0
  186.4540  178.8640  140.4460 C   0  0  0  0  0  2  0  0  0  0  0  0
  184.6760  177.9540  141.8890 C   0  0  0  0  0  1  0  0  0  0  0  0
  185.0950  179.1530  141.0670 C   0  0  2  0  0  3  0  0  0  0  0  0
  184.0620  179.3850  139.9780 C   0  0  0  0  0  2  0  0  0  0  0  0
  183.8920  178.1940  139.1580 N   0  0  0  0  0  2  0  0  0  0  0  0
  182.6280  177.5410  139.5140 C   0  0  0  0  0  2  0  0  0  0  0  0
  181.4390  178.5100  139.5340 C   0  0  1  0  0  3  0  0  0  0  0  0
  181.6300  179.5490  138.6200 O   0  0  0  0  0  1  0  0  0  0  0  0
  180.1520  177.7240  139.2690 C   0  0  1  0  0  3  0  0  0  0  0  0
  180.3020  176.3210  139.8320 C   0  0  1  0  0  3  0  0  0  0  0  0
  179.4060  177.3300  140.5300 C   0  0  0  0  0  2  0  0  0  0  0  0
  179.4910  175.3690  138.9590 C   0  0  0  0  0  2  0  0  0  0  0  0
  180.5010  170.8970  135.4590 C   0  0  0  0  0  2  0  0  0  0  0  0
  181.9710  171.0590  135.8230 C   0  0  0  0  0  2  0  0  0  0  0  0
  179.6310  171.4300  136.5800 C   0  0  0  0  0  2  0  0  0  0  0  0
  182.2450  172.2210  136.7950 C   0  0  2  0  0  3  0  0  0  0  0  0
  181.2730  174.4110  137.7590 C   0  0  2  0  0  3  0  0  0  0  0  0
  181.1890  173.3520  136.6740 C   0  0  2  0  0  3  0  0  0  0  0  0
  182.4930  174.4540  138.4090 F   0  0  0  0  0  0  0  0  0  0  0  0
  179.2880  173.2300  138.0390 C   0  0  0  0  0  2  0  0  0  0  0  0
  179.7940  172.8800  136.7160 N   0  0  2  0  0  0  0  0  0  0  0  0
  180.2180  174.1300  138.7140 N   0  0  0  0  0  0  0  0  0  0  0  0
  183.6740  172.7420  136.5990 C   0  0  0  0  0  3  0  0  0  0  0  0
  184.5110  172.2600  137.6080 O   0  0  0  0  0  1  0  0  0  0  0  0
  184.1780  172.3740  135.3490 O   0  0  0  0  0  1  0  0  0  0  0  0
  187.6550  178.3130  142.7320 C   0  0  0  0  0  2  0  0  0  0  0  0
  191.2610  177.2370  144.6940 C   0  0  0  0  0  0  0  0  0  0  0  0
  190.0230  178.7890  143.2530 C   0  0  0  0  0  2  0  0  0  0  0  0
  191.3570  178.0820  143.4650 C   0  0  0  0  0  2  0  0  0  0  0  0
  188.9200  177.8240  143.3010 N   0  0  0  0  0  0  0  0  0  0  0  0
  192.0640  177.3640  145.6030 O   0  0  0  0  0  0  0  0  0  0  0  0
  190.1030  176.3030  144.8230 C   0  0  0  0  0  2  0  0  0  0  0  0
  188.8030  177.0770  144.5690 C   0  0  1  0  0  3  0  0  0  0  0  0
  188.4590  177.9710  145.7620 C   0  0  0  0  0  2  0  0  0  0  0  0
  187.9820  177.7880  148.1930 C   0  0  0  0  0  1  0  0  0  0  0  0
  186.2910  177.3810  146.5840 O   0  0  0  0  0  1  0  0  0  0  0  0
  187.6570  177.2300  146.8270 C   0  0  1  0  0  3  0  0  0  0  0  0
  1 29  1  6  0  0  0
  1 54  1  0  0  0  0
  2  8  1  0  0  0  0
  2  4  1  0  0  0  0
  3 10  1  0  0  0  0
  3  2  1  0  0  0  0
  4  1  1  0  0  0  0
  5  8  1  0  0  0  0
  6  5  2  0  0  0  0
  7  9  1  0  0  0  0
  7  6  1  0  0  0  0
  8  4  1  0  0  0  0
  9  3  1  0  0  0  0
 10 11  2  0  0  0  0
 12 10  1  0  0  0  0
 13 16  1  0  0  0  0
 13 12  1  0  0  0  0
 13 15  1  0  0  0  0
 14 13  2  0  0  0  0
 17  9  1  0  0  0  0
 18 17  1  0  0  0  0
 19  6  1  0  0  0  0
 20 21  1  0  0  0  0
 21 24  1  0  0  0  0
 21 22  1  0  0  0  0
 22 19  1  0  0  0  0
 23 22  2  0  0  0  0
 25 27  1  0  0  0  0
 25 24  1  0  0  0  0
 26 27  1  0  0  0  0
 26 28  1  0  0  0  0
 27 28  1  0  0  0  0
 29 31  1  0  0  0  0
 31 30  1  0  0  0  0
 32 31  1  0  0  0  0
 33 34  1  0  0  0  0
 33 32  1  0  0  0  0
 34 35  1  0  0  0  0
 36 35  1  0  0  0  0
 37 35  1  0  0  0  0
 37 38  1  0  0  0  0
 37 39  1  0  0  0  0
 38 39  1  0  0  0  0
 40 38  1  0  0  0  0
 41 42  1  0  0  0  0
 41 43  1  0  0  0  0
 42 44  1  0  0  0  0
 43 49  1  0  0  0  0
 45 47  1  0  0  0  0
 45 50  1  0  0  0  0
 46 49  1  0  0  0  0
 46 44  1  0  0  0  0
 46 45  1  0  0  0  0
 48 50  1  0  0  0  0
 49 48  1  0  0  0  0
 50 40  1  0  0  0  0
 51 44  1  0  0  0  0
 51 52  1  0  0  0  0
 53 51  1  0  0  0  0
 54 58  1  0  0  0  0
 55 60  1  0  0  0  0
 55 59  2  0  0  0  0
 56 58  1  0  0  0  0
 56 57  1  0  0  0  0
 57 55  1  0  0  0  0
 58 61  1  0  0  0  0
 61 60  1  0  0  0  0
 61 62  1  0  0  0  0
 62 65  1  0  0  0  0
 64 65  1  0  0  0  0
 65 63  1  0  0  0  0
M  END
>  <MODEL>
8

>  <REMARK>
 VINA RESULT:      -3.8      2.662      6.129
  Name = 
  24 active torsions:
  status: ('A' for Active; 'I' for Inactive)
    1  A    between atoms: C_2  and  C_38
    2  A    between atoms: C_3  and  N_20
    3  A    between atoms: C_3  and  C_54
    4  A    between atoms: P_4  and  O_17
    5  A    between atoms: N_10  and  C_18
    6  A    between atoms: C_11  and  C_62
    7  A    between atoms: C_12  and  C_41
    8  A    between atoms: O_17  and  C_41
    9  A    between atoms: C_18  and  C_34
   10  A    between atoms: C_19  and  C_29
   11  A    between atoms: C_22  and  C_34
   12  A    between atoms: C_23  and  C_29
   13  A    between atoms: C_23  and  N_40
   14  A    between atoms: C_24  and  C_26
   15  A    between atoms: C_25  and  C_54
   16  A    between atoms: C_26  and  N_61
   17  A    between atoms: O_28  and  C_57
   18  A    between atoms: C_35  and  C_62
   19  A    between atoms: N_40  and  C_49
   20  A    between atoms: C_49  and  C_52
   21  A    between atoms: C_52  and  C_64
   22  A    between atoms: C_54  and  C_64
   23  A    between atoms: C_58  and  C_60
   24  A    between atoms: C_60  and  C_63
                            x       y       z     vdW  Elec       q    Type
                         _______ _______ _______ _____ _____    ______ ____

>  <TORSDO>
F 24

$$$$
=
 OpenBabel11062417393D

 65 71  0  0  1  0  0  0  0  0999 V2000
  187.7530  178.3240  141.2540 C   0  0  2  0  0  3  0  0  0  0  0  0
  185.3100  178.1810  142.1200 C   0  0  2  0  0  3  0  0  0  0  0  0
  183.9970  178.4900  142.8640 C   0  0  2  0  0  3  0  0  0  0  0  0
  186.5980  179.0040  142.0370 C   0  0  2  0  0  3  0  0  0  0  0  0
  185.1230  178.7300  139.8180 C   0  0  0  0  0  3  0  0  0  0  0  0
  183.9800  178.0520  139.5740 C   0  0  0  0  0  0  0  0  0  0  0  0
  182.9440  177.6920  140.6380 C   0  0  0  0  0  2  0  0  0  0  0  0
  185.4090  179.3550  141.1490 C   0  0  1  0  0  3  0  0  0  0  0  0
  182.8100  178.6350  141.8600 C   0  0  1  0  0  3  0  0  0  0  0  0
  184.0470  179.6050  143.8860 C   0  0  0  0  0  0  0  0  0  0  0  0
  183.0760  180.4050  143.9740 O   0  0  0  0  0  0  0  0  0  0  0  0
  185.1220  179.7150  144.7730 O   0  0  0  0  0  0  0  0  0  0  0  0
  185.3130  178.6600  146.1190 P   0  0  0  0  0  0  0  0  0  0  0  0
  186.1040  177.2470  145.6260 O   0  0  0  0  0  0  0  0  0  0  0  0
  186.1380  179.3520  147.1780 O   0  0  0  0  0  1  0  0  0  0  0  0
  183.7890  178.2670  146.7470 O   0  0  0  0  0  1  0  0  0  0  0  0
  181.6150  178.3400  142.5230 O   0  0  0  0  0  0  0  0  0  0  0  0
  180.6460  178.2520  141.5230 C   0  0  0  0  0  1  0  0  0  0  0  0
  183.7770  177.4860  138.1990 C   0  0  0  0  0  2  0  0  0  0  0  0
  180.9250  177.9690  135.7470 O   0  0  0  0  0  1  0  0  0  0  0  0
  181.9780  177.4020  136.3900 N   0  0  0  0  0  0  0  0  0  0  0  0
  182.6000  178.0990  137.4800 C   0  0  0  0  0  0  0  0  0  0  0  0
  182.1250  179.2070  137.8600 O   0  0  0  0  0  0  0  0  0  0  0  0
  182.4000  176.0620  135.9950 C   0  0  0  0  0  2  0  0  0  0  0  0
  183.7940  176.1170  135.4010 C   0  0  0  0  0  2  0  0  0  0  0  0
  183.5720  173.7670  135.6850 O   0  0  0  0  0  0  0  0  0  0  0  0
  184.5190  174.8110  135.6700 C   0  0  2  0  0  3  0  0  0  0  0  0
  184.0350  174.2190  136.9370 C   0  0  0  0  0  2  0  0  0  0  0  0
  187.4800  178.2830  139.7480 C   0  0  0  0  0  2  0  0  0  0  0  0
  189.7290  178.0220  138.7770 C   0  0  0  0  0  1  0  0  0  0  0  0
  188.4130  177.3200  139.0290 C   0  0  2  0  0  3  0  0  0  0  0  0
  187.8130  176.9110  137.6950 C   0  0  0  0  0  2  0  0  0  0  0  0
  188.6720  175.9560  137.0080 N   0  0  0  0  0  2  0  0  0  0  0  0
  187.9890  174.6600  136.9360 C   0  0  0  0  0  2  0  0  0  0  0  0
  188.8590  173.5580  136.3190 C   0  0  1  0  0  3  0  0  0  0  0  0
  188.2260  172.9890  135.2110 O   0  0  0  0  0  1  0  0  0  0  0  0
  190.2320  174.1430  135.9740 C   0  0  1  0  0  3  0  0  0  0  0  0
  191.2910  173.4530  136.8170 C   0  0  1  0  0  3  0  0  0  0  0  0
  191.1780  173.1430  135.3340 C   0  0  0  0  0  2  0  0  0  0  0  0
  192.4070  174.4570  137.0900 C   0  0  0  0  0  2  0  0  0  0  0  0
  197.6400  176.0020  135.2210 C   0  0  0  0  0  2  0  0  0  0  0  0
  198.1100  174.6260  135.6720 C   0  0  0  0  0  2  0  0  0  0  0  0
  196.1620  175.9600  134.8900 C   0  0  0  0  0  2  0  0  0  0  0  0
  196.9990  173.7670  136.3030 C   0  0  2  0  0  3  0  0  0  0  0  0
  194.6600  173.8520  137.3950 C   0  0  2  0  0  3  0  0  0  0  0  0
  195.8890  174.6300  136.9610 C   0  0  2  0  0  3  0  0  0  0  0  0
  194.8770  172.4940  137.5390 F   0  0  0  0  0  0  0  0  0  0  0  0
  194.0580  175.2570  135.6410 C   0  0  0  0  0  2  0  0  0  0  0  0
  195.3700  175.7040  136.0960 N   0  0  2  0  0  0  0  0  0  0  0  0
  193.6330  174.0820  136.3960 N   0  0  0  0  0  0  0  0  0  0  0  0
  197.6090  172.7620  137.2870 C   0  0  0  0  0  3  0  0  0  0  0  0
  197.6300  171.4830  136.7280 O   0  0  0  0  0  1  0  0  0  0  0  0
  198.9030  173.1390  137.6560 O   0  0  0  0  0  1  0  0  0  0  0  0
  188.2890  177.0300  141.9270 C   0  0  0  0  0  2  0  0  0  0  0  0
  191.7240  177.5140  144.3710 C   0  0  0  0  0  0  0  0  0  0  0  0
  190.1960  178.4110  142.6740 C   0  0  0  0  0  2  0  0  0  0  0  0
  191.6570  178.2890  143.0950 C   0  0  0  0  0  2  0  0  0  0  0  0
  189.5530  177.0930  142.6760 N   0  0  0  0  0  0  0  0  0  0  0  0
  192.2840  177.9730  145.3520 O   0  0  0  0  0  0  0  0  0  0  0  0
  191.0070  176.2060  144.4440 C   0  0  0  0  0  2  0  0  0  0  0  0
  189.5590  176.4010  143.9790 C   0  0  1  0  0  3  0  0  0  0  0  0
  188.7370  177.1270  145.0470 C   0  0  0  0  0  2  0  0  0  0  0  0
  189.1480  178.3890  147.1460 C   0  0  0  0  0  1  0  0  0  0  0  0
  188.9010  176.0320  147.1680 O   0  0  0  0  0  1  0  0  0  0  0  0
  189.4090  177.0930  146.4160 C   0  0  1  0  0  3  0  0  0  0  0  0
  1 29  1  6  0  0  0
  1 54  1  0  0  0  0
  1  4  1  0  0  0  0
  2  3  1  0  0  0  0
  3 10  1  0  0  0  0
  4  2  1  0  0  0  0
  5  8  1  0  0  0  0
  6  5  2  0  0  0  0
  6  7  1  0  0  0  0
  7  9  1  0  0  0  0
  8  4  1  0  0  0  0
  8  2  1  0  0  0  0
  9 17  1  0  0  0  0
  9  3  1  0  0  0  0
 10 11  2  0  0  0  0
 10 12  1  0  0  0  0
 12 13  1  0  0  0  0
 13 16  1  0  0  0  0
 13 15  1  0  0  0  0
 14 13  2  0  0  0  0
 18 17  1  0  0  0  0
 19  6  1  0  0  0  0
 20 21  1  0  0  0  0
 21 22  1  0  0  0  0
 22 23  2  0  0  0  0
 22 19  1  0  0  0  0
 24 21  1  0  0  0  0
 25 27  1  0  0  0  0
 25 24  1  0  0  0  0
 26 28  1  0  0  0  0
 27 26  1  0  0  0  0
 27 28  1  0  0  0  0
 30 31  1  0  0  0  0
 31 29  1  0  0  0  0
 32 31  1  0  0  0  0
 33 32  1  0  0  0  0
 34 33  1  0  0  0  0
 35 34  1  0  0  0  0
 36 35  1  0  0  0  0
 37 35  1  0  0  0  0
 37 38  1  0  0  0  0
 38 40  1  0  0  0  0
 39 37  1  0  0  0  0
 39 38  1  0  0  0  0
 41 42  1  0  0  0  0
 42 44  1  0  0  0  0
 43 41  1  0  0  0  0
 43 49  1  0  0  0  0
 44 46  1  0  0  0  0
 44 51  1  0  0  0  0
 45 47  1  0  0  0  0
 46 45  1  0  0  0  0
 48 49  1  0  0  0  0
 48 50  1  0  0  0  0
 49 46  1  0  0  0  0
 50 40  1  0  0  0  0
 50 45  1  0  0  0  0
 51 53  1  0  0  0  0
 52 51  1  0  0  0  0
 54 58  1  0  0  0  0
 55 60  1  0  0  0  0
 55 59  2  0  0  0  0
 56 58  1  0  0  0  0
 56 57  1  0  0  0  0
 57 55  1  0  0  0  0
 58 61  1  0  0  0  0
 61 60  1  0  0  0  0
 61 62  1  0  0  0  0
 62 65  1  0  0  0  0
 65 63  1  0  0  0  0
 65 64  1  0  0  0  0
M  END
>  <MODEL>
9

>  <REMARK>
 VINA RESULT:      -3.7      3.220      9.969
  Name = 
  24 active torsions:
  status: ('A' for Active; 'I' for Inactive)
    1  A    between atoms: C_2  and  C_38
    2  A    between atoms: C_3  and  N_20
    3  A    between atoms: C_3  and  C_54
    4  A    between atoms: P_4  and  O_17
    5  A    between atoms: N_10  and  C_18
    6  A    between atoms: C_11  and  C_62
    7  A    between atoms: C_12  and  C_41
    8  A    between atoms: O_17  and  C_41
    9  A    between atoms: C_18  and  C_34
   10  A    between atoms: C_19  and  C_29
   11  A    between atoms: C_22  and  C_34
   12  A    between atoms: C_23  and  C_29
   13  A    between atoms: C_23  and  N_40
   14  A    between atoms: C_24  and  C_26
   15  A    between atoms: C_25  and  C_54
   16  A    between atoms: C_26  and  N_61
   17  A    between atoms: O_28  and  C_57
   18  A    between atoms: C_35  and  C_62
   19  A    between atoms: N_40  and  C_49
   20  A    between atoms: C_49  and  C_52
   21  A    between atoms: C_52  and  C_64
   22  A    between atoms: C_54  and  C_64
   23  A    between atoms: C_58  and  C_60
   24  A    between atoms: C_60  and  C_63
                            x       y       z     vdW  Elec       q    Type
                         _______ _______ _______ _____ _____    ______ ____

>  <TORSDO>
F 24

$$$$
