=
 OpenBabel11062415023D

 31 34  0  0  1  0  0  0  0  0999 V2000
  188.3490  178.9180  141.2960 O   0  0  0  0  0  0  0  0  0  0  0  0
  184.8190  178.6930  141.1290 C   0  0  0  0  0  0  0  0  0  0  0  0
  183.1200  178.8940  142.8810 N   0  0  0  0  0  0  0  0  0  0  0  0
  182.3520  178.5810  140.6040 C   0  0  1  0  0  3  0  0  0  0  0  0
  187.1320  178.7700  141.0120 C   0  0  0  0  0  0  0  0  0  0  0  0
  182.0200  179.8650  139.9070 C   0  0  0  0  0  0  0  0  0  0  0  0
  184.6040  178.2010  138.7610 O   0  0  0  0  0  0  0  0  0  0  0  0
  181.7270  178.6520  142.9100 C   0  0  0  0  0  0  0  0  0  0  0  0
  182.5520  180.2270  138.7890 N   0  0  0  0  0  2  0  0  0  0  0  0
  186.1340  177.6130  142.9350 C   0  0  0  0  0  1  0  0  0  0  0  0
  183.5310  178.7670  141.5210 C   0  0  0  0  0  0  0  0  0  0  0  0
  180.0410  181.2150  139.8280 O   0  0  0  0  0  0  0  0  0  0  0  0
  180.1910  179.3800  141.2440 O   0  0  0  0  0  0  0  0  0  0  0  0
  186.0260  178.8230  142.0210 C   0  0  2  0  0  3  0  0  0  0  0  0
  185.3110  178.4700  139.7660 C   0  0  0  0  0  0  0  0  0  0  0  0
  186.6880  178.5380  139.7210 O   0  0  0  0  0  0  0  0  0  0  0  0
  181.1430  178.3710  141.5680 C   0  0  1  0  0  3  0  0  0  0  0  0
  181.0470  178.6900  143.9690 O   0  0  0  0  0  0  0  0  0  0  0  0
  180.6890  180.2440  140.2970 C   0  0  0  0  0  0  0  0  0  0  0  0
  183.8180  179.6470  143.9170 C   0  0  0  0  0  2  0  0  0  0  0  0
  183.9470  178.8040  145.1770 C   0  0  0  0  0  2  0  0  0  0  0  0
  185.1920  179.1980  145.9570 C   0  0  0  0  0  2  0  0  0  0  0  0
  185.8950  177.9860  146.5580 C   0  0  0  0  0  2  0  0  0  0  0  0
  187.7610  177.8490  148.1960 C   0  0  0  0  0  1  0  0  0  0  0  0
  187.3770  178.2550  146.7870 C   0  0  1  0  0  3  0  0  0  0  0  0
  188.2080  177.4480  145.8050 C   0  0  0  0  0  2  0  0  0  0  0  0
  189.4900  176.9720  146.4610 C   0  0  0  0  0  2  0  0  0  0  0  0
  190.6750  177.4040  145.6270 C   0  0  0  0  0  2  0  0  0  0  0  0
  191.0910  177.8440  143.2320 C   0  0  0  0  0  2  0  0  0  0  0  0
  190.1900  178.1600  144.4080 C   0  0  0  0  0  3  0  0  0  0  0  0
  191.2560  179.1480  143.9840 C   0  0  0  0  0  2  0  0  0  0  0  0
  2 11  2  0  0  0  0
  2 14  1  0  0  0  0
  3  8  1  0  0  0  0
  3 20  1  0  0  0  0
  4  6  1  1  0  0  0
  4 11  1  0  0  0  0
  4 17  1  0  0  0  0
  5  1  2  0  0  0  0
  5 14  1  0  0  0  0
  6 19  1  0  0  0  0
  7 15  2  0  0  0  0
  8 18  2  0  0  0  0
  9  6  2  0  0  0  0
 11  3  1  0  0  0  0
 12 19  2  0  0  0  0
 14 10  1  1  0  0  0
 15  2  1  0  0  0  0
 16 15  1  0  0  0  0
 16  5  1  0  0  0  0
 17 13  1  6  0  0  0
 17  8  1  0  0  0  0
 19 13  1  0  0  0  0
 20 21  1  0  0  0  0
 21 22  1  0  0  0  0
 22 23  1  0  0  0  0
 23 25  1  0  0  0  0
 25 24  1  1  0  0  0
 26 27  1  0  0  0  0
 26 25  1  0  0  0  0
 28 27  1  0  0  0  0
 29 31  1  0  0  0  0
 29 30  1  0  0  0  0
 30 28  1  0  0  0  0
 31 30  1  0  0  0  0
M  END
>  <MODEL>
1

>  <REMARK>
 VINA RESULT:      -8.0      0.000      0.000
  Name = 
  9 active torsions:
  status: ('A' for Active; 'I' for Inactive)
    1  A    between atoms: C_1  and  C_14
    2  A    between atoms: C_1  and  C_17
    3  A    between atoms: N_4  and  C_18
    4  A    between atoms: C_5  and  C_9
    5  A    between atoms: C_5  and  C_25
    6  A    between atoms: C_9  and  C_19
    7  A    between atoms: C_14  and  C_18
    8  A    between atoms: C_17  and  C_22
    9  A    between atoms: C_19  and  C_22
                            x       y       z     vdW  Elec       q    Type
                         _______ _______ _______ _____ _____    ______ ____

>  <TORSDO>
F 9

$$$$
=
 OpenBabel11062415023D

 31 34  0  0  1  0  0  0  0  0999 V2000
  183.7270  178.9900  140.8380 O   0  0  0  0  0  0  0  0  0  0  0  0
  187.0500  178.2230  139.8820 C   0  0  0  0  0  0  0  0  0  0  0  0
  188.9620  177.4690  141.2120 N   0  0  0  0  0  0  0  0  0  0  0  0
  189.2680  177.6630  138.8150 C   0  0  1  0  0  3  0  0  0  0  0  0
  184.8430  178.8030  140.2870 C   0  0  0  0  0  0  0  0  0  0  0  0
  189.0610  176.3730  138.0830 C   0  0  0  0  0  0  0  0  0  0  0  0
  186.8700  178.7490  137.5170 O   0  0  0  0  0  0  0  0  0  0  0  0
  190.3380  177.3090  140.9240 C   0  0  0  0  0  0  0  0  0  0  0  0
  188.2160  176.2290  137.1190 N   0  0  0  0  0  2  0  0  0  0  0  0
  186.5250  179.5400  141.9190 C   0  0  0  0  0  1  0  0  0  0  0  0
  188.3170  177.7720  139.9760 C   0  0  0  0  0  0  0  0  0  0  0  0
  190.5070  174.5280  137.5850 O   0  0  0  0  0  0  0  0  0  0  0  0
  191.1990  176.2600  138.9680 O   0  0  0  0  0  0  0  0  0  0  0  0
  186.0810  178.3940  141.0230 C   0  0  2  0  0  3  0  0  0  0  0  0
  186.3550  178.6400  138.6600 C   0  0  0  0  0  0  0  0  0  0  0  0
  185.0400  178.9640  138.9250 O   0  0  0  0  0  0  0  0  0  0  0  0
  190.6680  177.4790  139.4810 C   0  0  1  0  0  3  0  0  0  0  0  0
  191.1930  177.0310  141.8050 O   0  0  0  0  0  0  0  0  0  0  0  0
  190.2800  175.6170  138.1710 C   0  0  0  0  0  0  0  0  0  0  0  0
  188.3240  176.8930  142.3900 C   0  0  0  0  0  2  0  0  0  0  0  0
  188.7480  177.6540  143.6370 C   0  0  0  0  0  2  0  0  0  0  0  0
  189.3240  176.7000  144.6740 C   0  0  0  0  0  2  0  0  0  0  0  0
  190.2880  177.4030  145.6220 C   0  0  0  0  0  2  0  0  0  0  0  0
  191.5090  176.6390  147.6490 C   0  0  0  0  0  1  0  0  0  0  0  0
  190.1400  176.8940  147.0500 C   0  0  1  0  0  3  0  0  0  0  0  0
  189.4230  177.9300  147.8980 C   0  0  0  0  0  2  0  0  0  0  0  0
  187.9950  177.4970  148.1700 C   0  0  0  0  0  2  0  0  0  0  0  0
  187.0400  178.5460  147.6470 C   0  0  0  0  0  2  0  0  0  0  0  0
  185.6310  179.1380  145.7070 C   0  0  0  0  0  2  0  0  0  0  0  0
  186.2810  177.9950  146.4580 C   0  0  0  0  0  3  0  0  0  0  0  0
  184.8050  178.2780  146.6410 C   0  0  0  0  0  2  0  0  0  0  0  0
  2 11  2  0  0  0  0
  2 14  1  0  0  0  0
  3 20  1  0  0  0  0
  4  6  1  6  0  0  0
  4 17  1  0  0  0  0
  4 11  1  0  0  0  0
  5  1  2  0  0  0  0
  5 14  1  0  0  0  0
  6 19  1  0  0  0  0
  7 15  2  0  0  0  0
  8  3  1  0  0  0  0
  8 18  2  0  0  0  0
  9  6  2  0  0  0  0
 11  3  1  0  0  0  0
 12 19  2  0  0  0  0
 14 10  1  1  0  0  0
 15 16  1  0  0  0  0
 15  2  1  0  0  0  0
 16  5  1  0  0  0  0
 17 13  1  6  0  0  0
 17  8  1  0  0  0  0
 19 13  1  0  0  0  0
 20 21  1  0  0  0  0
 21 22  1  0  0  0  0
 22 23  1  0  0  0  0
 23 25  1  0  0  0  0
 25 24  1  1  0  0  0
 25 26  1  0  0  0  0
 26 27  1  0  0  0  0
 28 27  1  0  0  0  0
 29 30  1  0  0  0  0
 29 31  1  0  0  0  0
 30 31  1  0  0  0  0
 30 28  1  0  0  0  0
M  END
>  <MODEL>
2

>  <REMARK>
 VINA RESULT:      -7.9      3.003      6.350
  Name = 
  9 active torsions:
  status: ('A' for Active; 'I' for Inactive)
    1  A    between atoms: C_1  and  C_14
    2  A    between atoms: C_1  and  C_17
    3  A    between atoms: N_4  and  C_18
    4  A    between atoms: C_5  and  C_9
    5  A    between atoms: C_5  and  C_25
    6  A    between atoms: C_9  and  C_19
    7  A    between atoms: C_14  and  C_18
    8  A    between atoms: C_17  and  C_22
    9  A    between atoms: C_19  and  C_22
                            x       y       z     vdW  Elec       q    Type
                         _______ _______ _______ _____ _____    ______ ____

>  <TORSDO>
F 9

$$$$
=
 OpenBabel11062415023D

 31 34  0  0  1  0  0  0  0  0999 V2000
  183.4120  178.9120  145.8820 O   0  0  0  0  0  0  0  0  0  0  0  0
  183.6840  178.7310  142.3550 C   0  0  0  0  0  0  0  0  0  0  0  0
  185.6510  178.5110  140.9130 N   0  0  0  0  0  0  0  0  0  0  0  0
  183.4730  178.5190  139.8480 C   0  0  1  0  0  3  0  0  0  0  0  0
  183.2770  178.8980  144.6300 C   0  0  0  0  0  0  0  0  0  0  0  0
  182.9310  177.1460  139.5930 C   0  0  0  0  0  0  0  0  0  0  0  0
  181.3310  178.9690  141.8030 O   0  0  0  0  0  0  0  0  0  0  0  0
  185.8390  178.6000  139.5140 C   0  0  0  0  0  0  0  0  0  0  0  0
  181.7870  176.7400  140.0290 N   0  0  0  0  0  2  0  0  0  0  0  0
  185.2130  180.1160  143.7340 C   0  0  0  0  0  1  0  0  0  0  0  0
  184.2430  178.5530  141.1410 C   0  0  0  0  0  0  0  0  0  0  0  0
  183.2170  175.5850  137.7970 O   0  0  0  0  0  0  0  0  0  0  0  0
  184.4490  177.5520  137.8910 O   0  0  0  0  0  0  0  0  0  0  0  0
  184.4200  178.8200  143.6660 C   0  0  2  0  0  3  0  0  0  0  0  0
  182.2550  178.8750  142.6510 C   0  0  0  0  0  0  0  0  0  0  0  0
  182.0390  178.9550  144.0110 O   0  0  0  0  0  0  0  0  0  0  0  0
  184.5660  178.6860  138.7460 C   0  0  1  0  0  3  0  0  0  0  0  0
  186.9770  178.5880  138.9750 O   0  0  0  0  0  0  0  0  0  0  0  0
  183.5180  176.6610  138.3740 C   0  0  0  0  0  0  0  0  0  0  0  0
  186.6460  177.9420  141.8150 C   0  0  0  0  0  2  0  0  0  0  0  0
  187.9700  178.6710  141.6570 C   0  0  0  0  0  2  0  0  0  0  0  0
  189.1220  177.6780  141.5900 C   0  0  0  0  0  2  0  0  0  0  0  0
  189.1540  176.7610  142.8070 C   0  0  0  0  0  2  0  0  0  0  0  0
  191.5010  177.5830  142.7560 C   0  0  0  0  0  1  0  0  0  0  0  0
  190.4260  176.9600  143.6240 C   0  0  1  0  0  3  0  0  0  0  0  0
  190.1490  177.8840  144.7960 C   0  0  0  0  0  2  0  0  0  0  0  0
  190.2520  177.1240  146.1060 C   0  0  0  0  0  2  0  0  0  0  0  0
  188.8970  177.0860  146.7760 C   0  0  0  0  0  2  0  0  0  0  0  0
  186.7080  178.2240  146.9000 C   0  0  0  0  0  2  0  0  0  0  0  0
  187.9460  178.0180  146.0530 C   0  0  0  0  0  3  0  0  0  0  0  0
  186.6730  177.2680  145.7270 C   0  0  0  0  0  2  0  0  0  0  0  0
  2 15  1  0  0  0  0
  2 14  1  0  0  0  0
  3 11  1  0  0  0  0
  3 20  1  0  0  0  0
  4  6  1  6  0  0  0
  4 11  1  0  0  0  0
  5  1  2  0  0  0  0
  6  9  2  0  0  0  0
  7 15  2  0  0  0  0
  8  3  1  0  0  0  0
 11  2  2  0  0  0  0
 12 19  2  0  0  0  0
 13 19  1  0  0  0  0
 14 10  1  6  0  0  0
 14  5  1  0  0  0  0
 15 16  1  0  0  0  0
 16  5  1  0  0  0  0
 17 13  1  6  0  0  0
 17  8  1  0  0  0  0
 17  4  1  0  0  0  0
 18  8  2  0  0  0  0
 19  6  1  0  0  0  0
 21 20  1  0  0  0  0
 22 21  1  0  0  0  0
 22 23  1  0  0  0  0
 23 25  1  0  0  0  0
 25 24  1  6  0  0  0
 25 26  1  0  0  0  0
 26 27  1  0  0  0  0
 27 28  1  0  0  0  0
 30 28  1  0  0  0  0
 30 29  1  0  0  0  0
 31 30  1  0  0  0  0
 31 29  1  0  0  0  0
M  END
>  <MODEL>
3

>  <REMARK>
 VINA RESULT:      -7.7      1.687      4.631
  Name = 
  9 active torsions:
  status: ('A' for Active; 'I' for Inactive)
    1  A    between atoms: C_1  and  C_14
    2  A    between atoms: C_1  and  C_17
    3  A    between atoms: N_4  and  C_18
    4  A    between atoms: C_5  and  C_9
    5  A    between atoms: C_5  and  C_25
    6  A    between atoms: C_9  and  C_19
    7  A    between atoms: C_14  and  C_18
    8  A    between atoms: C_17  and  C_22
    9  A    between atoms: C_19  and  C_22
                            x       y       z     vdW  Elec       q    Type
                         _______ _______ _______ _____ _____    ______ ____

>  <TORSDO>
F 9

$$$$
=
 OpenBabel11062415023D

 31 34  0  0  1  0  0  0  0  0999 V2000
  184.9010  178.8430  141.0870 O   0  0  0  0  0  0  0  0  0  0  0  0
  188.0560  177.9740  139.7340 C   0  0  0  0  0  0  0  0  0  0  0  0
  190.1720  177.4250  140.8370 N   0  0  0  0  0  0  0  0  0  0  0  0
  190.0980  177.2860  138.4180 C   0  0  1  0  0  3  0  0  0  0  0  0
  185.9230  178.5900  140.3980 C   0  0  0  0  0  0  0  0  0  0  0  0
  189.8170  175.9050  137.9110 C   0  0  0  0  0  0  0  0  0  0  0  0
  187.4980  178.1640  137.3780 O   0  0  0  0  0  0  0  0  0  0  0  0
  191.4910  177.2360  140.3610 C   0  0  0  0  0  0  0  0  0  0  0  0
  188.8370  175.6220  137.1200 N   0  0  0  0  0  2  0  0  0  0  0  0
  187.8160  179.5580  141.6290 C   0  0  0  0  0  1  0  0  0  0  0  0
  189.3350  177.5490  139.6890 C   0  0  0  0  0  0  0  0  0  0  0  0
  191.2210  174.0180  137.4480 O   0  0  0  0  0  0  0  0  0  0  0  0
  192.0680  175.9310  138.4560 O   0  0  0  0  0  0  0  0  0  0  0  0
  187.2720  178.2950  140.9790 C   0  0  2  0  0  3  0  0  0  0  0  0
  187.1690  178.2120  138.5910 C   0  0  0  0  0  0  0  0  0  0  0  0
  185.9020  178.5600  139.0130 O   0  0  0  0  0  0  0  0  0  0  0  0
  191.5890  177.2060  138.8740 C   0  0  1  0  0  3  0  0  0  0  0  0
  192.4800  177.0890  141.1250 O   0  0  0  0  0  0  0  0  0  0  0  0
  191.0560  175.1770  137.9080 C   0  0  0  0  0  0  0  0  0  0  0  0
  189.7410  177.0150  142.1680 C   0  0  0  0  0  2  0  0  0  0  0  0
  190.4120  177.8810  143.2230 C   0  0  0  0  0  2  0  0  0  0  0  0
  189.4790  178.0970  144.4070 C   0  0  0  0  0  2  0  0  0  0  0  0
  189.9890  177.4080  145.6670 C   0  0  0  0  0  2  0  0  0  0  0  0
  189.1360  177.9630  147.9360 C   0  0  0  0  0  1  0  0  0  0  0  0
  188.8670  177.1740  146.6700 C   0  0  1  0  0  3  0  0  0  0  0  0
  187.5430  177.6320  146.0830 C   0  0  0  0  0  2  0  0  0  0  0  0
  186.6430  178.1860  147.1710 C   0  0  0  0  0  2  0  0  0  0  0  0
  185.6110  179.1030  146.5560 C   0  0  0  0  0  2  0  0  0  0  0  0
  184.7460  179.5250  144.2810 C   0  0  0  0  0  2  0  0  0  0  0  0
  185.0310  178.4560  145.3150 C   0  0  0  0  0  3  0  0  0  0  0  0
  183.6170  178.9570  145.1140 C   0  0  0  0  0  2  0  0  0  0  0  0
  2 14  1  0  0  0  0
  3 20  1  0  0  0  0
  4  6  1  1  0  0  0
  4 17  1  0  0  0  0
  4 11  1  0  0  0  0
  5 14  1  0  0  0  0
  5  1  2  0  0  0  0
  7 15  2  0  0  0  0
  8  3  1  0  0  0  0
  8 18  2  0  0  0  0
  9  6  2  0  0  0  0
 11  2  2  0  0  0  0
 11  3  1  0  0  0  0
 12 19  2  0  0  0  0
 14 10  1  6  0  0  0
 15 16  1  0  0  0  0
 15  2  1  0  0  0  0
 16  5  1  0  0  0  0
 17 13  1  1  0  0  0
 17  8  1  0  0  0  0
 19  6  1  0  0  0  0
 19 13  1  0  0  0  0
 20 21  1  0  0  0  0
 21 22  1  0  0  0  0
 22 23  1  0  0  0  0
 23 25  1  0  0  0  0
 25 24  1  1  0  0  0
 26 25  1  0  0  0  0
 26 27  1  0  0  0  0
 28 27  1  0  0  0  0
 29 31  1  0  0  0  0
 29 30  1  0  0  0  0
 30 28  1  0  0  0  0
 31 30  1  0  0  0  0
M  END
>  <MODEL>
4

>  <REMARK>
 VINA RESULT:      -7.5      3.437      6.985
  Name = 
  9 active torsions:
  status: ('A' for Active; 'I' for Inactive)
    1  A    between atoms: C_1  and  C_14
    2  A    between atoms: C_1  and  C_17
    3  A    between atoms: N_4  and  C_18
    4  A    between atoms: C_5  and  C_9
    5  A    between atoms: C_5  and  C_25
    6  A    between atoms: C_9  and  C_19
    7  A    between atoms: C_14  and  C_18
    8  A    between atoms: C_17  and  C_22
    9  A    between atoms: C_19  and  C_22
                            x       y       z     vdW  Elec       q    Type
                         _______ _______ _______ _____ _____    ______ ____

>  <TORSDO>
F 9

$$$$
=
 OpenBabel11062415023D

 31 34  0  0  1  0  0  0  0  0999 V2000
  179.6550  178.0140  144.4450 O   0  0  0  0  0  0  0  0  0  0  0  0
  181.8580  178.5730  141.7290 C   0  0  0  0  0  0  0  0  0  0  0  0
  184.3050  178.6310  141.6420 N   0  0  0  0  0  0  0  0  0  0  0  0
  183.1000  178.8960  139.5550 C   0  0  1  0  0  3  0  0  0  0  0  0
  180.2410  178.2640  143.3590 C   0  0  0  0  0  0  0  0  0  0  0  0
  182.9410  177.6150  138.7940 C   0  0  0  0  0  0  0  0  0  0  0  0
  180.1990  178.9570  139.9970 O   0  0  0  0  0  0  0  0  0  0  0  0
  185.2280  179.0090  140.6390 C   0  0  0  0  0  0  0  0  0  0  0  0
  181.7980  177.1440  138.4240 N   0  0  0  0  0  2  0  0  0  0  0  0
  182.2040  179.6140  143.9550 C   0  0  0  0  0  1  0  0  0  0  0  0
  183.0130  178.6460  141.0370 C   0  0  0  0  0  0  0  0  0  0  0  0
  184.3410  176.4620  137.2280 O   0  0  0  0  0  0  0  0  0  0  0  0
  185.0950  178.3460  138.3570 O   0  0  0  0  0  0  0  0  0  0  0  0
  181.7270  178.3740  143.2170 C   0  0  2  0  0  3  0  0  0  0  0  0
  180.5000  178.6740  141.1860 C   0  0  0  0  0  0  0  0  0  0  0  0
  179.5570  178.4690  142.1720 O   0  0  0  0  0  0  0  0  0  0  0  0
  184.5950  179.2740  139.3160 C   0  0  1  0  0  3  0  0  0  0  0  0
  186.4670  179.0940  140.8460 O   0  0  0  0  0  0  0  0  0  0  0  0
  184.1540  177.3880  138.0580 C   0  0  0  0  0  0  0  0  0  0  0  0
  184.6850  177.8710  142.8270 C   0  0  0  0  0  2  0  0  0  0  0  0
  185.5370  178.7300  143.7470 C   0  0  0  0  0  2  0  0  0  0  0  0
  186.5290  177.8690  144.5150 C   0  0  0  0  0  2  0  0  0  0  0  0
  187.1810  176.8190  143.6240 C   0  0  0  0  0  2  0  0  0  0  0  0
  189.1200  177.6500  142.3060 C   0  0  0  0  0  1  0  0  0  0  0  0
  188.6970  176.9730  143.5940 C   0  0  1  0  0  3  0  0  0  0  0  0
  189.1530  177.8270  144.7650 C   0  0  0  0  0  2  0  0  0  0  0  0
  190.2640  177.1290  145.5280 C   0  0  0  0  0  2  0  0  0  0  0  0
  189.8160  176.8740  146.9500 C   0  0  0  0  0  2  0  0  0  0  0  0
  188.9740  178.3560  148.7370 C   0  0  0  0  0  2  0  0  0  0  0  0
  188.7310  177.8610  147.3270 C   0  0  0  0  0  3  0  0  0  0  0  0
  187.9270  177.2940  148.4770 C   0  0  0  0  0  2  0  0  0  0  0  0
  2 14  1  0  0  0  0
  3 20  1  0  0  0  0
  4  6  1  6  0  0  0
  4 11  1  0  0  0  0
  5  1  2  0  0  0  0
  7 15  2  0  0  0  0
  8 18  2  0  0  0  0
  8  3  1  0  0  0  0
  9  6  2  0  0  0  0
 11  3  1  0  0  0  0
 11  2  2  0  0  0  0
 12 19  2  0  0  0  0
 14  5  1  0  0  0  0
 14 10  1  1  0  0  0
 15  2  1  0  0  0  0
 15 16  1  0  0  0  0
 16  5  1  0  0  0  0
 17 13  1  6  0  0  0
 17  4  1  0  0  0  0
 17  8  1  0  0  0  0
 19 13  1  0  0  0  0
 19  6  1  0  0  0  0
 20 21  1  0  0  0  0
 21 22  1  0  0  0  0
 23 22  1  0  0  0  0
 25 24  1  6  0  0  0
 25 23  1  0  0  0  0
 25 26  1  0  0  0  0
 26 27  1  0  0  0  0
 27 28  1  0  0  0  0
 28 30  1  0  0  0  0
 30 31  1  0  0  0  0
 30 29  1  0  0  0  0
 31 29  1  0  0  0  0
M  END
>  <MODEL>
5

>  <REMARK>
 VINA RESULT:      -7.3      1.621      4.616
  Name = 
  9 active torsions:
  status: ('A' for Active; 'I' for Inactive)
    1  A    between atoms: C_1  and  C_14
    2  A    between atoms: C_1  and  C_17
    3  A    between atoms: N_4  and  C_18
    4  A    between atoms: C_5  and  C_9
    5  A    between atoms: C_5  and  C_25
    6  A    between atoms: C_9  and  C_19
    7  A    between atoms: C_14  and  C_18
    8  A    between atoms: C_17  and  C_22
    9  A    between atoms: C_19  and  C_22
                            x       y       z     vdW  Elec       q    Type
                         _______ _______ _______ _____ _____    ______ ____

>  <TORSDO>
F 9

$$$$
=
 OpenBabel11062415023D

 31 34  0  0  1  0  0  0  0  0999 V2000
  183.7060  179.9800  143.9210 O   0  0  0  0  0  0  0  0  0  0  0  0
  186.6540  178.0180  143.9660 C   0  0  0  0  0  0  0  0  0  0  0  0
  188.3220  177.5990  142.2230 N   0  0  0  0  0  0  0  0  0  0  0  0
  188.7150  176.6290  144.4100 C   0  0  1  0  0  3  0  0  0  0  0  0
  184.6760  179.2110  144.1500 C   0  0  0  0  0  0  0  0  0  0  0  0
  189.5990  177.4670  145.2810 C   0  0  0  0  0  0  0  0  0  0  0  0
  186.4730  177.1550  146.2290 O   0  0  0  0  0  0  0  0  0  0  0  0
  189.4150  176.7060  142.1250 C   0  0  0  0  0  0  0  0  0  0  0  0
  189.2550  177.8830  146.4540 N   0  0  0  0  0  2  0  0  0  0  0  0
  185.0750  177.9970  142.0520 C   0  0  0  0  0  1  0  0  0  0  0  0
  187.8300  177.5000  143.5590 C   0  0  0  0  0  0  0  0  0  0  0  0
  191.9780  177.6360  145.5130 O   0  0  0  0  0  0  0  0  0  0  0  0
  191.0200  176.3360  143.8430 O   0  0  0  0  0  0  0  0  0  0  0  0
  185.7160  178.8520  143.1340 C   0  0  2  0  0  3  0  0  0  0  0  0
  186.0450  177.8780  145.2930 C   0  0  0  0  0  0  0  0  0  0  0  0
  184.8790  178.6100  145.3810 O   0  0  0  0  0  0  0  0  0  0  0  0
  189.7130  175.9870  143.3950 C   0  0  1  0  0  3  0  0  0  0  0  0
  190.0800  176.5530  141.0670 O   0  0  0  0  0  0  0  0  0  0  0  0
  190.9620  177.1900  144.9210 C   0  0  0  0  0  0  0  0  0  0  0  0
  188.1410  178.7360  141.3280 C   0  0  0  0  0  2  0  0  0  0  0  0
  187.8950  178.2480  139.9090 C   0  0  0  0  0  2  0  0  0  0  0  0
  189.0500  178.6450  139.0010 C   0  0  0  0  0  2  0  0  0  0  0  0
  188.6000  178.8310  137.5560 C   0  0  0  0  0  2  0  0  0  0  0  0
  190.1510  176.8920  137.4270 C   0  0  0  0  0  1  0  0  0  0  0  0
  189.1840  177.7580  136.6460 C   0  0  1  0  0  3  0  0  0  0  0  0
  188.0710  176.8780  136.1030 C   0  0  0  0  0  2  0  0  0  0  0  0
  187.0320  177.7190  135.3850 C   0  0  0  0  0  2  0  0  0  0  0  0
  185.6490  177.2090  135.7200 C   0  0  0  0  0  2  0  0  0  0  0  0
  184.1540  176.5960  137.5880 C   0  0  0  0  0  2  0  0  0  0  0  0
  185.5970  176.8030  137.1780 C   0  0  0  0  0  3  0  0  0  0  0  0
  184.8720  177.8760  137.9620 C   0  0  0  0  0  2  0  0  0  0  0  0
  1  5  2  0  0  0  0
  2 15  1  0  0  0  0
  3 11  1  0  0  0  0
  4 11  1  6  0  0  0
  4  6  1  0  0  0  0
  5 16  1  0  0  0  0
  6  9  2  0  0  0  0
  8  3  1  0  0  0  0
 11  2  2  0  0  0  0
 13 19  1  0  0  0  0
 14 10  1  6  0  0  0
 14  2  1  0  0  0  0
 14  5  1  0  0  0  0
 15 16  1  0  0  0  0
 15  7  2  0  0  0  0
 17  8  1  6  0  0  0
 17 13  1  0  0  0  0
 17  4  1  0  0  0  0
 18  8  2  0  0  0  0
 19  6  1  0  0  0  0
 19 12  2  0  0  0  0
 20  3  1  0  0  0  0
 21 20  1  0  0  0  0
 22 21  1  0  0  0  0
 23 22  1  0  0  0  0
 25 24  1  1  0  0  0
 25 23  1  0  0  0  0
 26 25  1  0  0  0  0
 27 28  1  0  0  0  0
 27 26  1  0  0  0  0
 28 30  1  0  0  0  0
 29 31  1  0  0  0  0
 30 29  1  0  0  0  0
 30 31  1  0  0  0  0
M  END
>  <MODEL>
6

>  <REMARK>
 VINA RESULT:      -7.2      3.530      8.488
  Name = 
  9 active torsions:
  status: ('A' for Active; 'I' for Inactive)
    1  A    between atoms: C_1  and  C_14
    2  A    between atoms: C_1  and  C_17
    3  A    between atoms: N_4  and  C_18
    4  A    between atoms: C_5  and  C_9
    5  A    between atoms: C_5  and  C_25
    6  A    between atoms: C_9  and  C_19
    7  A    between atoms: C_14  and  C_18
    8  A    between atoms: C_17  and  C_22
    9  A    between atoms: C_19  and  C_22
                            x       y       z     vdW  Elec       q    Type
                         _______ _______ _______ _____ _____    ______ ____

>  <TORSDO>
F 9

$$$$
=
 OpenBabel11062415023D

 31 34  0  0  1  0  0  0  0  0999 V2000
  179.5180  178.2350  144.3410 O   0  0  0  0  0  0  0  0  0  0  0  0
  181.6740  178.7140  141.5720 C   0  0  0  0  0  0  0  0  0  0  0  0
  184.1170  178.6600  141.4210 N   0  0  0  0  0  0  0  0  0  0  0  0
  182.8720  178.9980  139.3680 C   0  0  1  0  0  3  0  0  0  0  0  0
  180.0870  178.4670  143.2420 C   0  0  0  0  0  0  0  0  0  0  0  0
  182.6340  177.7330  138.6030 C   0  0  0  0  0  0  0  0  0  0  0  0
  179.9900  179.1900  139.8880 O   0  0  0  0  0  0  0  0  0  0  0  0
  185.0310  179.0030  140.3960 C   0  0  0  0  0  0  0  0  0  0  0  0
  181.4610  177.3180  138.2590 N   0  0  0  0  0  2  0  0  0  0  0  0
  182.1260  179.7200  143.7960 C   0  0  0  0  0  1  0  0  0  0  0  0
  182.8120  178.7400  140.8500 C   0  0  0  0  0  0  0  0  0  0  0  0
  183.9370  176.5300  136.9910 O   0  0  0  0  0  0  0  0  0  0  0  0
  184.8070  178.3670  138.1140 O   0  0  0  0  0  0  0  0  0  0  0  0
  181.5720  178.5090  143.0610 C   0  0  2  0  0  3  0  0  0  0  0  0
  180.3080  178.8830  141.0660 C   0  0  0  0  0  0  0  0  0  0  0  0
  179.3830  178.7140  142.0750 O   0  0  0  0  0  0  0  0  0  0  0  0
  184.3770  179.3090  139.0930 C   0  0  1  0  0  3  0  0  0  0  0  0
  186.2770  179.0290  140.5710 O   0  0  0  0  0  0  0  0  0  0  0  0
  183.8150  177.4570  137.8330 C   0  0  0  0  0  0  0  0  0  0  0  0
  184.4920  177.8720  142.5890 C   0  0  0  0  0  2  0  0  0  0  0  0
  185.5210  178.6260  143.4170 C   0  0  0  0  0  2  0  0  0  0  0  0
  186.5570  177.6650  143.9840 C   0  0  0  0  0  2  0  0  0  0  0  0
  186.2810  177.3270  145.4440 C   0  0  0  0  0  2  0  0  0  0  0  0
  186.0560  178.9960  147.2740 C   0  0  0  0  0  1  0  0  0  0  0  0
  187.0370  178.2560  146.3860 C   0  0  1  0  0  3  0  0  0  0  0  0
  187.9770  177.4500  147.2650 C   0  0  0  0  0  2  0  0  0  0  0  0
  189.2210  177.0580  146.4900 C   0  0  0  0  0  2  0  0  0  0  0  0
  189.7310  178.2520  145.7140 C   0  0  0  0  0  2  0  0  0  0  0  0
  191.3110  178.9930  143.9670 C   0  0  0  0  0  2  0  0  0  0  0  0
  190.6870  177.7870  144.6360 C   0  0  0  0  0  3  0  0  0  0  0  0
  190.1760  178.2550  143.2900 C   0  0  0  0  0  2  0  0  0  0  0  0
  2 14  1  0  0  0  0
  3 20  1  0  0  0  0
  4  6  1  6  0  0  0
  4 11  1  0  0  0  0
  5  1  2  0  0  0  0
  7 15  2  0  0  0  0
  8 18  2  0  0  0  0
  8  3  1  0  0  0  0
  9  6  2  0  0  0  0
 11  3  1  0  0  0  0
 11  2  2  0  0  0  0
 12 19  2  0  0  0  0
 14  5  1  0  0  0  0
 14 10  1  1  0  0  0
 15  2  1  0  0  0  0
 15 16  1  0  0  0  0
 16  5  1  0  0  0  0
 17 13  1  6  0  0  0
 17  4  1  0  0  0  0
 17  8  1  0  0  0  0
 19 13  1  0  0  0  0
 19  6  1  0  0  0  0
 20 21  1  0  0  0  0
 21 22  1  0  0  0  0
 22 23  1  0  0  0  0
 23 25  1  0  0  0  0
 25 26  1  0  0  0  0
 25 24  1  1  0  0  0
 27 26  1  0  0  0  0
 28 27  1  0  0  0  0
 29 30  1  0  0  0  0
 30 28  1  0  0  0  0
 31 29  1  0  0  0  0
 31 30  1  0  0  0  0
M  END
>  <MODEL>
7

>  <REMARK>
 VINA RESULT:      -7.1      1.441      4.160
  Name = 
  9 active torsions:
  status: ('A' for Active; 'I' for Inactive)
    1  A    between atoms: C_1  and  C_14
    2  A    between atoms: C_1  and  C_17
    3  A    between atoms: N_4  and  C_18
    4  A    between atoms: C_5  and  C_9
    5  A    between atoms: C_5  and  C_25
    6  A    between atoms: C_9  and  C_19
    7  A    between atoms: C_14  and  C_18
    8  A    between atoms: C_17  and  C_22
    9  A    between atoms: C_19  and  C_22
                            x       y       z     vdW  Elec       q    Type
                         _______ _______ _______ _____ _____    ______ ____

>  <TORSDO>
F 9

$$$$
=
 OpenBabel11062415023D

 31 34  0  0  1  0  0  0  0  0999 V2000
  183.6640  179.9830  143.9810 O   0  0  0  0  0  0  0  0  0  0  0  0
  186.6140  178.0240  143.9580 C   0  0  0  0  0  0  0  0  0  0  0  0
  188.2520  177.6220  142.1830 N   0  0  0  0  0  0  0  0  0  0  0  0
  188.6840  176.6340  144.3540 C   0  0  1  0  0  3  0  0  0  0  0  0
  184.6390  179.2140  144.1860 C   0  0  0  0  0  0  0  0  0  0  0  0
  189.5820  177.4660  145.2170 C   0  0  0  0  0  0  0  0  0  0  0  0
  186.4740  177.1420  146.2170 O   0  0  0  0  0  0  0  0  0  0  0  0
  189.3440  176.7310  142.0580 C   0  0  0  0  0  0  0  0  0  0  0  0
  189.2580  177.8710  146.3990 N   0  0  0  0  0  2  0  0  0  0  0  0
  185.0030  178.0180  142.0720 C   0  0  0  0  0  1  0  0  0  0  0  0
  187.7840  177.5110  143.5260 C   0  0  0  0  0  0  0  0  0  0  0  0
  191.9650  177.6350  145.4090 O   0  0  0  0  0  0  0  0  0  0  0  0
  190.9790  176.3490  143.7450 O   0  0  0  0  0  0  0  0  0  0  0  0
  185.6610  178.8650  143.1500 C   0  0  2  0  0  3  0  0  0  0  0  0
  186.0280  177.8720  145.2940 C   0  0  0  0  0  0  0  0  0  0  0  0
  184.8640  178.6020  145.4090 O   0  0  0  0  0  0  0  0  0  0  0  0
  189.6650  176.0020  143.3170 C   0  0  1  0  0  3  0  0  0  0  0  0
  189.9910  176.5880  140.9880 O   0  0  0  0  0  0  0  0  0  0  0  0
  190.9390  177.1930  144.8310 C   0  0  0  0  0  0  0  0  0  0  0  0
  188.0540  178.7660  141.3010 C   0  0  0  0  0  2  0  0  0  0  0  0
  187.6630  178.2910  139.9110 C   0  0  0  0  0  2  0  0  0  0  0  0
  188.7370  178.6610  138.8980 C   0  0  0  0  0  2  0  0  0  0  0  0
  188.4360  178.0930  137.5160 C   0  0  0  0  0  2  0  0  0  0  0  0
  186.7130  176.4940  136.7060 C   0  0  0  0  0  1  0  0  0  0  0  0
  187.9260  176.6600  137.5980 C   0  0  1  0  0  3  0  0  0  0  0  0
  189.0070  175.6980  137.1350 C   0  0  0  0  0  2  0  0  0  0  0  0
  189.7850  176.2940  135.9760 C   0  0  0  0  0  2  0  0  0  0  0  0
  191.2640  176.0740  136.1960 C   0  0  0  0  0  2  0  0  0  0  0  0
  192.8340  176.3020  138.0890 C   0  0  0  0  0  2  0  0  0  0  0  0
  191.5150  175.7070  137.6430 C   0  0  0  0  0  3  0  0  0  0  0  0
  192.7490  174.8350  137.7240 C   0  0  0  0  0  2  0  0  0  0  0  0
  1  5  2  0  0  0  0
  2 15  1  0  0  0  0
  3 11  1  0  0  0  0
  4 11  1  6  0  0  0
  4  6  1  0  0  0  0
  5 16  1  0  0  0  0
  6  9  2  0  0  0  0
  8  3  1  0  0  0  0
 11  2  2  0  0  0  0
 13 19  1  0  0  0  0
 14 10  1  6  0  0  0
 14  2  1  0  0  0  0
 14  5  1  0  0  0  0
 15 16  1  0  0  0  0
 15  7  2  0  0  0  0
 17  8  1  6  0  0  0
 17 13  1  0  0  0  0
 17  4  1  0  0  0  0
 18  8  2  0  0  0  0
 19  6  1  0  0  0  0
 19 12  2  0  0  0  0
 20  3  1  0  0  0  0
 21 20  1  0  0  0  0
 22 21  1  0  0  0  0
 23 25  1  0  0  0  0
 23 22  1  0  0  0  0
 25 24  1  6  0  0  0
 26 25  1  0  0  0  0
 27 28  1  0  0  0  0
 27 26  1  0  0  0  0
 28 30  1  0  0  0  0
 30 31  1  0  0  0  0
 30 29  1  0  0  0  0
 31 29  1  0  0  0  0
M  END
>  <MODEL>
8

>  <REMARK>
 VINA RESULT:      -7.1      4.013      8.143
  Name = 
  9 active torsions:
  status: ('A' for Active; 'I' for Inactive)
    1  A    between atoms: C_1  and  C_14
    2  A    between atoms: C_1  and  C_17
    3  A    between atoms: N_4  and  C_18
    4  A    between atoms: C_5  and  C_9
    5  A    between atoms: C_5  and  C_25
    6  A    between atoms: C_9  and  C_19
    7  A    between atoms: C_14  and  C_18
    8  A    between atoms: C_17  and  C_22
    9  A    between atoms: C_19  and  C_22
                            x       y       z     vdW  Elec       q    Type
                         _______ _______ _______ _____ _____    ______ ____

>  <TORSDO>
F 9

$$$$
=
 OpenBabel11062415023D

 31 34  0  0  1  0  0  0  0  0999 V2000
  183.5200  179.9700  143.9570 O   0  0  0  0  0  0  0  0  0  0  0  0
  186.4920  178.0440  143.9270 C   0  0  0  0  0  0  0  0  0  0  0  0
  188.1140  177.6370  142.1390 N   0  0  0  0  0  0  0  0  0  0  0  0
  188.5820  176.6820  144.3180 C   0  0  1  0  0  3  0  0  0  0  0  0
  184.5060  179.2140  144.1610 C   0  0  0  0  0  0  0  0  0  0  0  0
  189.4790  177.5350  145.1600 C   0  0  0  0  0  0  0  0  0  0  0  0
  186.3860  177.1900  146.1980 O   0  0  0  0  0  0  0  0  0  0  0  0
  189.2150  176.7570  142.0140 C   0  0  0  0  0  0  0  0  0  0  0  0
  189.1640  177.9530  146.3400 N   0  0  0  0  0  2  0  0  0  0  0  0
  184.8600  177.9940  142.0580 C   0  0  0  0  0  1  0  0  0  0  0  0
  187.6630  177.5380  143.4880 C   0  0  0  0  0  0  0  0  0  0  0  0
  191.8620  177.7340  145.3230 O   0  0  0  0  0  0  0  0  0  0  0  0
  190.8730  176.4150  143.6870 O   0  0  0  0  0  0  0  0  0  0  0  0
  185.5200  178.8630  143.1180 C   0  0  2  0  0  3  0  0  0  0  0  0
  185.9230  177.9030  145.2710 C   0  0  0  0  0  0  0  0  0  0  0  0
  184.7510  178.6220  145.3890 O   0  0  0  0  0  0  0  0  0  0  0  0
  189.5580  176.0480  143.2780 C   0  0  1  0  0  3  0  0  0  0  0  0
  189.8520  176.6060  140.9380 O   0  0  0  0  0  0  0  0  0  0  0  0
  190.8350  177.2730  144.7620 C   0  0  0  0  0  0  0  0  0  0  0  0
  187.8940  178.7670  141.2440 C   0  0  0  0  0  2  0  0  0  0  0  0
  188.2200  178.3690  139.8130 C   0  0  0  0  0  2  0  0  0  0  0  0
  186.9430  178.2000  139.0020 C   0  0  0  0  0  2  0  0  0  0  0  0
  187.2250  177.6770  137.5990 C   0  0  0  0  0  2  0  0  0  0  0  0
  186.2980  177.4900  135.2990 C   0  0  0  0  0  1  0  0  0  0  0  0
  185.9490  177.5810  136.7710 C   0  0  1  0  0  3  0  0  0  0  0  0
  185.1680  176.3390  137.1640 C   0  0  0  0  0  2  0  0  0  0  0  0
  183.6890  176.6560  137.2750 C   0  0  0  0  0  2  0  0  0  0  0  0
  183.4190  177.3590  138.5860 C   0  0  0  0  0  2  0  0  0  0  0  0
  183.5790  179.7820  139.0380 C   0  0  0  0  0  2  0  0  0  0  0  0
  182.7890  178.7090  138.3180 C   0  0  0  0  0  3  0  0  0  0  0  0
  182.2750  179.2810  139.6220 C   0  0  0  0  0  2  0  0  0  0  0  0
  1  5  2  0  0  0  0
  2 15  1  0  0  0  0
  3 11  1  0  0  0  0
  4 11  1  6  0  0  0
  4  6  1  0  0  0  0
  5 16  1  0  0  0  0
  6  9  2  0  0  0  0
  8  3  1  0  0  0  0
 11  2  2  0  0  0  0
 13 19  1  0  0  0  0
 14 10  1  6  0  0  0
 14  2  1  0  0  0  0
 14  5  1  0  0  0  0
 15 16  1  0  0  0  0
 15  7  2  0  0  0  0
 17  8  1  6  0  0  0
 17 13  1  0  0  0  0
 17  4  1  0  0  0  0
 18  8  2  0  0  0  0
 19  6  1  0  0  0  0
 19 12  2  0  0  0  0
 20  3  1  0  0  0  0
 21 20  1  0  0  0  0
 22 21  1  0  0  0  0
 23 22  1  0  0  0  0
 25 24  1  6  0  0  0
 25 26  1  0  0  0  0
 25 23  1  0  0  0  0
 26 27  1  0  0  0  0
 27 28  1  0  0  0  0
 29 31  1  0  0  0  0
 30 28  1  0  0  0  0
 30 29  1  0  0  0  0
 30 31  1  0  0  0  0
M  END
>  <MODEL>
9

>  <REMARK>
 VINA RESULT:      -7.0      3.103      8.456
  Name = 
  9 active torsions:
  status: ('A' for Active; 'I' for Inactive)
    1  A    between atoms: C_1  and  C_14
    2  A    between atoms: C_1  and  C_17
    3  A    between atoms: N_4  and  C_18
    4  A    between atoms: C_5  and  C_9
    5  A    between atoms: C_5  and  C_25
    6  A    between atoms: C_9  and  C_19
    7  A    between atoms: C_14  and  C_18
    8  A    between atoms: C_17  and  C_22
    9  A    between atoms: C_19  and  C_22
                            x       y       z     vdW  Elec       q    Type
                         _______ _______ _______ _____ _____    ______ ____

>  <TORSDO>
F 9

$$$$
