=
 OpenBabel11062417503D

 58 65  0  0  1  0  0  0  0  0999 V2000
  184.0260  174.6490  138.1290 C   0  0  0  0  0  1  0  0  0  0  0  0
  189.0860  175.7640  137.0700 C   0  0  0  0  0  2  0  0  0  0  0  0
  183.9480  178.2380  137.5030 C   0  0  1  0  0  3  0  0  0  0  0  0
  189.6810  177.1140  137.2320 C   0  0  0  0  0  2  0  0  0  0  0  0
  184.6930  177.0340  137.9560 C   0  0  1  0  0  3  0  0  0  0  0  0
  188.4980  177.9520  137.6890 C   0  0  2  0  0  3  0  0  0  0  0  0
  182.7760  176.2260  136.8880 O   0  0  0  0  0  0  0  0  0  0  0  0
  184.8670  175.5190  135.8730 C   0  0  1  0  0  3  0  0  0  0  0  0
  184.1020  175.8490  137.1950 C   0  0  2  0  0  0  0  0  0  0  0  0
  187.2400  177.2320  137.1570 C   0  0  2  0  0  0  0  0  0  0  0  0
  182.7050  177.6400  136.8790 C   0  0  2  0  0  3  0  0  0  0  0  0
  188.6280  179.2720  137.2560 O   0  0  0  0  0  1  0  0  0  0  0  0
  185.9460  174.4300  135.9470 C   0  0  0  0  0  2  0  0  0  0  0  0
  186.9380  174.5900  137.0890 C   0  0  0  0  0  2  0  0  0  0  0  0
  186.1880  177.2370  138.2830 C   0  0  0  0  0  2  0  0  0  0  0  0
  187.7650  175.8320  136.9820 C   0  0  2  0  0  3  0  0  0  0  0  0
  187.5470  177.4090  134.6020 C   0  0  0  0  0  1  0  0  0  0  0  0
  186.6270  179.2110  135.8610 O   0  0  0  0  0  1  0  0  0  0  0  0
  186.7230  177.8210  135.8130 C   0  0  2  0  0  3  0  0  0  0  0  0
  183.5580  179.0750  138.7200 C   0  0  0  0  0  2  0  0  0  0  0  0
  184.6750  179.2260  140.8710 O   0  0  0  0  0  0  0  0  0  0  0  0
  183.8030  178.4360  140.0980 C   0  0  1  0  0  3  0  0  0  0  0  0
  183.3120  179.2480  141.2340 C   0  0  1  0  0  3  0  0  0  0  0  0
  183.1060  178.3890  142.3910 N   0  0  0  0  0  2  0  0  0  0  0  0
  183.5430  179.1280  143.5670 C   0  0  0  0  0  2  0  0  0  0  0  0
  184.3240  178.8360  145.7940 O   0  0  0  0  0  0  0  0  0  0  0  0
  184.2050  178.1860  144.5540 C   0  0  2  0  0  3  0  0  0  0  0  0
  185.4910  178.7560  145.0090 C   0  0  2  0  0  3  0  0  0  0  0  0
  188.6370  177.8150  145.4970 C   0  0  0  0  0  0  0  0  0  0  0  0
  186.3880  177.6810  145.6000 C   0  0  1  0  0  3  0  0  0  0  0  0
  187.5890  177.5200  144.7890 N   0  0  0  0  0  0  0  0  0  0  0  0
  186.2940  178.4450  147.9170 O   0  0  0  0  0  0  0  0  0  0  0  0
  188.3740  178.2190  146.8350 N   0  0  0  0  0  2  0  0  0  0  0  0
  186.9630  178.1480  146.8870 C   0  0  0  0  0  0  0  0  0  0  0  0
  190.0200  177.6810  144.9610 C   0  0  0  0  0  2  0  0  0  0  0  0
  190.0540  178.1360  143.5790 N   0  0  0  0  0  2  0  0  0  0  0  0
  192.1160  177.0530  142.8440 O   0  0  0  0  0  1  0  0  0  0  0  0
  190.1230  176.7850  141.4140 C   0  0  1  0  0  3  0  0  0  0  0  0
  190.7250  177.1270  142.7680 C   0  0  2  0  0  0  0  0  0  0  0  0
  190.0050  175.8120  142.5910 C   0  0  0  0  0  2  0  0  0  0  0  0
  188.7790  177.4500  141.1830 C   0  0  0  0  0  1  0  0  0  0  0  0
  182.5300  178.1600  135.4580 C   0  0  0  0  0  2  0  0  0  0  0  0
  181.1000  178.6230  135.1980 C   0  0  0  0  0  2  0  0  0  0  0  0
  180.9300  180.0770  135.5100 C   0  0  0  0  0  0  0  0  0  0  0  0
  181.1680  180.9150  134.6510 O   0  0  0  0  0  0  0  0  0  0  0  0
  180.4410  180.5040  136.8630 C   0  0  0  0  0  3  0  0  0  0  0  0
  178.9570  180.8440  136.7980 C   0  0  0  0  0  2  0  0  0  0  0  0
  179.4050  179.5170  137.3780 C   0  0  0  0  0  2  0  0  0  0  0  0
  183.9280  175.1780  134.7130 C   0  0  0  0  0  2  0  0  0  0  0  0
  183.7110  173.6800  134.5960 C   0  0  0  0  0  2  0  0  0  0  0  0
  182.2310  173.3560  134.6980 C   0  0  0  0  0  2  0  0  0  0  0  0
  181.9210  172.7280  136.0470 C   0  0  2  0  0  3  0  0  0  0  0  0
  182.6950  171.4690  136.2550 C   0  0  0  0  0  0  0  0  0  0  0  0
  182.4100  170.3580  135.4750 O   0  0  0  0  0  0  0  0  0  0  0  0
  183.6050  171.4080  137.1180 O   0  0  0  0  0  1  0  0  0  0  0  0
  180.4210  172.5350  136.2830 C   0  0  0  0  0  2  0  0  0  0  0  0
  179.9250  173.2430  137.5430 C   0  0  0  0  0  2  0  0  0  0  0  0
  180.0360  174.6220  137.3780 O   0  0  0  0  0  1  0  0  0  0  0  0
  2  4  1  0  0  0  0
  3  5  1  0  0  0  0
  3 20  1  1  0  0  0
  4  6  1  0  0  0  0
  5 15  1  6  0  0  0
  6 12  1  6  0  0  0
  7  9  1  0  0  0  0
  8 49  1  6  0  0  0
  8 13  1  0  0  0  0
  8  9  1  0  0  0  0
  9  5  1  0  0  0  0
  9  1  1  1  0  0  0
 10 19  1  6  0  0  0
 10  6  1  0  0  0  0
 10 15  1  0  0  0  0
 11 42  1  6  0  0  0
 11  7  1  0  0  0  0
 11  3  1  0  0  0  0
 13 14  1  0  0  0  0
 16  2  1  1  0  0  0
 16 14  1  0  0  0  0
 16 10  1  0  0  0  0
 19 17  1  6  0  0  0
 19 18  1  0  0  0  0
 21 23  1  0  0  0  0
 22 20  1  6  0  0  0
 22 21  1  0  0  0  0
 22 23  1  0  0  0  0
 23 24  1  1  0  0  0
 24 25  1  0  0  0  0
 27 25  1  6  0  0  0
 27 28  1  0  0  0  0
 27 26  1  0  0  0  0
 28 30  1  0  0  0  0
 28 26  1  1  0  0  0
 29 33  1  0  0  0  0
 30 31  1  6  0  0  0
 30 34  1  0  0  0  0
 31 29  2  0  0  0  0
 33 34  1  0  0  0  0
 34 32  2  0  0  0  0
 35 29  1  0  0  0  0
 36 35  1  0  0  0  0
 38 41  1  1  0  0  0
 38 40  1  0  0  0  0
 38 39  1  0  0  0  0
 39 37  1  1  0  0  0
 39 36  1  0  0  0  0
 40 39  1  0  0  0  0
 43 42  1  0  0  0  0
 43 44  1  0  0  0  0
 44 46  1  0  0  0  0
 45 44  2  0  0  0  0
 46 48  1  0  0  0  0
 47 46  1  0  0  0  0
 47 48  1  0  0  0  0
 50 51  1  0  0  0  0
 50 49  1  0  0  0  0
 52 51  1  6  0  0  0
 52 53  1  0  0  0  0
 52 56  1  0  0  0  0
 53 55  1  0  0  0  0
 54 53  2  0  0  0  0
 56 57  1  0  0  0  0
 58 57  1  0  0  0  0
M  END
>  <MODEL>
1

>  <REMARK>
 VINA RESULT:      -5.3      0.000      0.000
  Name = 
  21 active torsions:
  status: ('A' for Active; 'I' for Inactive)
    1  A    between atoms: C_2  and  C_22
    2  A    between atoms: C_2  and  C_26
    3  A    between atoms: C_2  and  C_29
    4  A    between atoms: C_3  and  C_40
    5  A    between atoms: C_7  and  C_19
    6  A    between atoms: C_9  and  C_11
    7  A    between atoms: C_9  and  C_21
    8  A    between atoms: C_10  and  C_11
    9  A    between atoms: C_12  and  C_55
   10  A    between atoms: C_16  and  C_20
   11  A    between atoms: C_16  and  C_22
   12  A    between atoms: C_19  and  C_44
   13  A    between atoms: C_20  and  C_30
   14  A    between atoms: C_21  and  C_38
   15  A    between atoms: C_26  and  C_28
   16  A    between atoms: N_27  and  C_39
   17  A    between atoms: N_27  and  C_40
   18  A    between atoms: N_31  and  C_42
   19  A    between atoms: N_31  and  C_52
   20  A    between atoms: C_34  and  C_42
   21  A    between atoms: C_37  and  C_48
                            x       y       z     vdW  Elec       q    Type
                         _______ _______ _______ _____ _____    ______ ____

>  <TORSDO>
F 21

$$$$
=
 OpenBabel11062417503D

 58 65  0  0  1  0  0  0  0  0999 V2000
  181.4690  180.2500  136.2880 C   0  0  0  0  0  1  0  0  0  0  0  0
  178.9320  180.2530  140.9280 C   0  0  0  0  0  2  0  0  0  0  0  0
  183.4240  177.9050  138.2780 C   0  0  1  0  0  3  0  0  0  0  0  0
  179.5690  179.8730  142.2120 C   0  0  0  0  0  2  0  0  0  0  0  0
  182.5320  179.0930  138.2100 C   0  0  1  0  0  3  0  0  0  0  0  0
  180.9780  179.4880  141.7900 C   0  0  2  0  0  3  0  0  0  0  0  0
  182.4090  178.0880  136.1020 O   0  0  0  0  0  0  0  0  0  0  0  0
  180.2910  178.2080  137.2850 C   0  0  1  0  0  3  0  0  0  0  0  0
  181.6550  178.9040  136.9740 C   0  0  2  0  0  0  0  0  0  0  0  0
  180.8730  179.0620  140.3090 C   0  0  2  0  0  0  0  0  0  0  0  0
  183.3360  177.3470  136.8740 C   0  0  2  0  0  3  0  0  0  0  0  0
  181.4980  178.5050  142.6330 O   0  0  0  0  0  1  0  0  0  0  0  0
  179.0820  179.1230  137.5210 C   0  0  0  0  0  2  0  0  0  0  0  0
  179.3190  180.2540  138.5100 C   0  0  0  0  0  2  0  0  0  0  0  0
  182.0690  179.6800  139.5600 C   0  0  0  0  0  2  0  0  0  0  0  0
  179.6130  179.7730  139.8960 C   0  0  2  0  0  3  0  0  0  0  0  0
  179.4690  176.9350  140.7090 C   0  0  0  0  0  1  0  0  0  0  0  0
  181.8500  176.8470  140.6460 O   0  0  0  0  0  1  0  0  0  0  0  0
  180.7460  177.5220  140.1260 C   0  0  2  0  0  3  0  0  0  0  0  0
  184.8530  178.3650  138.5580 C   0  0  0  0  0  2  0  0  0  0  0  0
  186.8960  179.0330  137.4270 O   0  0  0  0  0  0  0  0  0  0  0  0
  185.9020  178.0380  137.4810 C   0  0  1  0  0  3  0  0  0  0  0  0
  187.2630  177.8050  138.0150 C   0  0  1  0  0  3  0  0  0  0  0  0
  188.0320  177.0210  137.0600 N   0  0  0  0  0  2  0  0  0  0  0  0
  189.1160  176.3820  137.7920 C   0  0  0  0  0  2  0  0  0  0  0  0
  190.6760  176.6780  139.5620 O   0  0  0  0  0  0  0  0  0  0  0  0
  189.6080  177.3000  138.8940 C   0  0  2  0  0  3  0  0  0  0  0  0
  189.4270  176.6480  140.2100 C   0  0  2  0  0  3  0  0  0  0  0  0
  188.1850  177.4380  143.1860 C   0  0  0  0  0  0  0  0  0  0  0  0
  189.4510  177.6710  141.3340 C   0  0  1  0  0  3  0  0  0  0  0  0
  188.1290  177.7930  141.9380 N   0  0  0  0  0  0  0  0  0  0  0  0
  191.4780  176.8670  142.4320 O   0  0  0  0  0  0  0  0  0  0  0  0
  189.4650  177.0200  143.6440 N   0  0  0  0  0  2  0  0  0  0  0  0
  190.2490  177.1540  142.4750 C   0  0  0  0  0  0  0  0  0  0  0  0
  187.0020  177.5190  144.0870 C   0  0  0  0  0  2  0  0  0  0  0  0
  185.8720  178.0780  143.3600 N   0  0  0  0  0  2  0  0  0  0  0  0
  184.9460  180.3010  143.7630 O   0  0  0  0  0  1  0  0  0  0  0  0
  185.3800  178.8800  145.7330 C   0  0  1  0  0  3  0  0  0  0  0  0
  185.1630  179.0060  144.2340 C   0  0  2  0  0  0  0  0  0  0  0  0
  184.0660  178.4250  145.0920 C   0  0  0  0  0  2  0  0  0  0  0  0
  186.1980  177.6590  146.1080 C   0  0  0  0  0  1  0  0  0  0  0  0
  182.9430  175.8760  136.9180 C   0  0  0  0  0  2  0  0  0  0  0  0
  183.6650  175.1320  138.0370 C   0  0  0  0  0  2  0  0  0  0  0  0
  184.4440  173.9680  137.5080 C   0  0  0  0  0  0  0  0  0  0  0  0
  184.0710  172.8280  137.7490 O   0  0  0  0  0  0  0  0  0  0  0  0
  185.6610  174.1980  136.6620 C   0  0  0  0  0  3  0  0  0  0  0  0
  186.8450  173.4230  137.2290 C   0  0  0  0  0  2  0  0  0  0  0  0
  186.1030  172.8930  136.0180 C   0  0  0  0  0  2  0  0  0  0  0  0
  179.9000  177.1690  136.2320 C   0  0  0  0  0  2  0  0  0  0  0  0
  179.0300  176.0750  136.8260 C   0  0  0  0  0  2  0  0  0  0  0  0
  179.2920  174.7560  136.1210 C   0  0  0  0  0  2  0  0  0  0  0  0
  180.3530  173.9630  136.8660 C   0  0  2  0  0  3  0  0  0  0  0  0
  180.3720  172.5340  136.4320 C   0  0  0  0  0  0  0  0  0  0  0  0
  179.4220  172.0850  135.5260 O   0  0  0  0  0  0  0  0  0  0  0  0
  181.2420  171.7400  136.8680 O   0  0  0  0  0  1  0  0  0  0  0  0
  180.2470  174.1080  138.3860 C   0  0  0  0  0  2  0  0  0  0  0  0
  178.9390  173.5490  138.9440 C   0  0  0  0  0  2  0  0  0  0  0  0
  179.0820  173.2990  140.3070 O   0  0  0  0  0  1  0  0  0  0  0  0
  2  4  1  0  0  0  0
  3 20  1  6  0  0  0
  5  3  1  0  0  0  0
  5 15  1  1  0  0  0
  6  4  1  0  0  0  0
  6 12  1  1  0  0  0
  7 11  1  0  0  0  0
  7  9  1  0  0  0  0
  8 49  1  6  0  0  0
  8 13  1  0  0  0  0
  9  1  1  6  0  0  0
  9  8  1  0  0  0  0
  9  5  1  0  0  0  0
 10 19  1  6  0  0  0
 10  6  1  0  0  0  0
 11 42  1  1  0  0  0
 11  3  1  0  0  0  0
 13 14  1  0  0  0  0
 15 10  1  0  0  0  0
 16 14  1  6  0  0  0
 16 10  1  0  0  0  0
 16  2  1  0  0  0  0
 19 18  1  0  0  0  0
 19 17  1  1  0  0  0
 21 22  1  0  0  0  0
 21 23  1  0  0  0  0
 22 23  1  0  0  0  0
 22 20  1  1  0  0  0
 23 24  1  6  0  0  0
 24 25  1  0  0  0  0
 27 25  1  6  0  0  0
 27 26  1  0  0  0  0
 27 28  1  0  0  0  0
 28 26  1  1  0  0  0
 28 30  1  0  0  0  0
 29 33  1  0  0  0  0
 29 35  1  0  0  0  0
 30 31  1  1  0  0  0
 30 34  1  0  0  0  0
 31 29  2  0  0  0  0
 32 34  2  0  0  0  0
 34 33  1  0  0  0  0
 36 35  1  0  0  0  0
 36 39  1  0  0  0  0
 38 41  1  6  0  0  0
 39 37  1  6  0  0  0
 39 40  1  0  0  0  0
 39 38  1  0  0  0  0
 40 38  1  0  0  0  0
 42 43  1  0  0  0  0
 44 45  2  0  0  0  0
 44 43  1  0  0  0  0
 46 47  1  0  0  0  0
 46 44  1  0  0  0  0
 48 46  1  0  0  0  0
 48 47  1  0  0  0  0
 49 50  1  0  0  0  0
 51 50  1  0  0  0  0
 52 51  1  6  0  0  0
 52 56  1  0  0  0  0
 53 52  1  0  0  0  0
 53 55  1  0  0  0  0
 54 53  2  0  0  0  0
 56 57  1  0  0  0  0
 57 58  1  0  0  0  0
M  END
>  <MODEL>
2

>  <REMARK>
 VINA RESULT:      -4.5      2.223      6.442
  Name = 
  21 active torsions:
  status: ('A' for Active; 'I' for Inactive)
    1  A    between atoms: C_2  and  C_22
    2  A    between atoms: C_2  and  C_26
    3  A    between atoms: C_2  and  C_29
    4  A    between atoms: C_3  and  C_40
    5  A    between atoms: C_7  and  C_19
    6  A    between atoms: C_9  and  C_11
    7  A    between atoms: C_9  and  C_21
    8  A    between atoms: C_10  and  C_11
    9  A    between atoms: C_12  and  C_55
   10  A    between atoms: C_16  and  C_20
   11  A    between atoms: C_16  and  C_22
   12  A    between atoms: C_19  and  C_44
   13  A    between atoms: C_20  and  C_30
   14  A    between atoms: C_21  and  C_38
   15  A    between atoms: C_26  and  C_28
   16  A    between atoms: N_27  and  C_39
   17  A    between atoms: N_27  and  C_40
   18  A    between atoms: N_31  and  C_42
   19  A    between atoms: N_31  and  C_52
   20  A    between atoms: C_34  and  C_42
   21  A    between atoms: C_37  and  C_48
                            x       y       z     vdW  Elec       q    Type
                         _______ _______ _______ _____ _____    ______ ____

>  <TORSDO>
F 21

$$$$
=
 OpenBabel11062417503D

 58 65  0  0  1  0  0  0  0  0999 V2000
  186.7900  177.6550  135.0090 C   0  0  0  0  0  1  0  0  0  0  0  0
  184.0950  173.1200  134.6440 C   0  0  0  0  0  2  0  0  0  0  0  0
  184.5620  177.8070  137.8880 C   0  0  1  0  0  3  0  0  0  0  0  0
  182.7570  172.9080  135.2510 C   0  0  0  0  0  2  0  0  0  0  0  0
  184.8430  177.3210  136.5110 C   0  0  1  0  0  3  0  0  0  0  0  0
  182.4920  174.2290  135.9530 C   0  0  2  0  0  3  0  0  0  0  0  0
  186.8800  178.1330  137.3230 O   0  0  0  0  0  0  0  0  0  0  0  0
  186.8960  175.7740  136.7430 C   0  0  1  0  0  3  0  0  0  0  0  0
  186.3610  177.2010  136.3970 C   0  0  2  0  0  0  0  0  0  0  0  0
  183.8810  174.8370  136.2480 C   0  0  2  0  0  0  0  0  0  0  0  0
  185.9010  178.3640  138.3200 C   0  0  2  0  0  3  0  0  0  0  0  0
  181.6980  174.0400  137.0850 O   0  0  0  0  0  1  0  0  0  0  0  0
  187.1240  174.8140  135.5670 C   0  0  0  0  0  2  0  0  0  0  0  0
  185.9600  174.7050  134.5950 C   0  0  0  0  0  2  0  0  0  0  0  0
  183.8150  176.3390  135.9090 C   0  0  0  0  0  2  0  0  0  0  0  0
  184.7240  174.1360  135.2170 C   0  0  2  0  0  3  0  0  0  0  0  0
  185.0570  173.1870  137.8450 C   0  0  0  0  0  1  0  0  0  0  0  0
  183.3540  174.6590  138.6290 O   0  0  0  0  0  1  0  0  0  0  0  0
  184.3810  174.5420  137.6920 C   0  0  2  0  0  3  0  0  0  0  0  0
  183.5350  178.9360  137.8230 C   0  0  0  0  0  2  0  0  0  0  0  0
  181.5930  179.4240  139.1960 O   0  0  0  0  0  0  0  0  0  0  0  0
  182.9990  179.4540  139.1690 C   0  0  1  0  0  3  0  0  0  0  0  0
  182.2610  178.4410  139.9550 C   0  0  1  0  0  3  0  0  0  0  0  0
  182.2540  178.8260  141.3580 N   0  0  0  0  0  2  0  0  0  0  0  0
  183.6400  178.9940  141.7720 C   0  0  0  0  0  2  0  0  0  0  0  0
  183.4470  178.7330  144.1280 O   0  0  0  0  0  0  0  0  0  0  0  0
  183.9350  178.1090  142.9670 C   0  0  2  0  0  3  0  0  0  0  0  0
  184.8350  178.8140  143.9050 C   0  0  2  0  0  3  0  0  0  0  0  0
  187.6020  178.2040  145.6360 C   0  0  0  0  0  0  0  0  0  0  0  0
  185.5240  177.8350  144.8420 C   0  0  1  0  0  3  0  0  0  0  0  0
  186.9580  177.8050  144.5810 N   0  0  0  0  0  0  0  0  0  0  0  0
  184.4390  178.5710  146.9020 O   0  0  0  0  0  0  0  0  0  0  0  0
  186.7890  178.5710  146.7440 N   0  0  0  0  0  2  0  0  0  0  0  0
  185.4880  178.3520  146.2340 C   0  0  0  0  0  0  0  0  0  0  0  0
  189.0900  178.2190  145.6980 C   0  0  0  0  0  2  0  0  0  0  0  0
  189.5700  176.9540  146.2340 N   0  0  0  0  0  2  0  0  0  0  0  0
  190.5960  176.1730  144.1600 O   0  0  0  0  0  1  0  0  0  0  0  0
  191.8580  175.8230  146.2510 C   0  0  1  0  0  3  0  0  0  0  0  0
  190.7600  176.5510  145.4930 C   0  0  2  0  0  0  0  0  0  0  0  0
  192.0400  177.2810  145.8170 C   0  0  0  0  0  2  0  0  0  0  0  0
  191.6090  175.7770  147.7460 C   0  0  0  0  0  1  0  0  0  0  0  0
  186.3260  177.7400  139.6430 C   0  0  0  0  0  2  0  0  0  0  0  0
  186.9890  178.7610  140.5620 C   0  0  0  0  0  2  0  0  0  0  0  0
  188.3630  178.3250  140.9660 C   0  0  0  0  0  0  0  0  0  0  0  0
  188.8890  178.8140  141.9560 O   0  0  0  0  0  0  0  0  0  0  0  0
  189.0810  177.2710  140.1750 C   0  0  0  0  0  3  0  0  0  0  0  0
  190.4610  177.7740  139.7680 C   0  0  0  0  0  2  0  0  0  0  0  0
  190.3190  176.8090  140.9280 C   0  0  0  0  0  2  0  0  0  0  0  0
  188.1750  175.8060  137.5830 C   0  0  0  0  0  2  0  0  0  0  0  0
  189.3970  176.0820  136.7260 C   0  0  0  0  0  2  0  0  0  0  0  0
  190.5460  175.1840  137.1460 C   0  0  0  0  0  2  0  0  0  0  0  0
  191.2910  174.6750  135.9230 C   0  0  2  0  0  3  0  0  0  0  0  0
  191.1490  173.1960  135.7730 C   0  0  0  0  0  0  0  0  0  0  0  0
  189.8810  172.6340  135.7380 O   0  0  0  0  0  1  0  0  0  0  0  0
  192.1610  172.4590  135.6700 O   0  0  0  0  0  0  0  0  0  0  0  0
  192.7530  175.1270  135.8850 C   0  0  0  0  0  2  0  0  0  0  0  0
  193.3890  175.1880  137.2720 C   0  0  0  0  0  2  0  0  0  0  0  0
  192.5550  175.8930  138.1370 O   0  0  0  0  0  1  0  0  0  0  0  0
  2 16  1  0  0  0  0
  2  4  1  0  0  0  0
  3 20  1  6  0  0  0
  3 11  1  0  0  0  0
  4  6  1  0  0  0  0
  5 15  1  1  0  0  0
  5  3  1  0  0  0  0
  6 10  1  0  0  0  0
  6 12  1  1  0  0  0
  7 11  1  0  0  0  0
  8 49  1  6  0  0  0
  9  1  1  6  0  0  0
  9  5  1  0  0  0  0
  9  8  1  0  0  0  0
  9  7  1  0  0  0  0
 10 19  1  1  0  0  0
 11 42  1  1  0  0  0
 13  8  1  0  0  0  0
 14 13  1  0  0  0  0
 15 10  1  0  0  0  0
 16 14  1  6  0  0  0
 16 10  1  0  0  0  0
 19 17  1  6  0  0  0
 19 18  1  0  0  0  0
 21 23  1  0  0  0  0
 22 20  1  6  0  0  0
 22 21  1  0  0  0  0
 22 23  1  0  0  0  0
 23 24  1  1  0  0  0
 24 25  1  0  0  0  0
 27 25  1  6  0  0  0
 27 28  1  0  0  0  0
 27 26  1  0  0  0  0
 28 26  1  1  0  0  0
 28 30  1  0  0  0  0
 29 35  1  0  0  0  0
 29 33  1  0  0  0  0
 30 31  1  6  0  0  0
 30 34  1  0  0  0  0
 31 29  2  0  0  0  0
 34 33  1  0  0  0  0
 34 32  2  0  0  0  0
 35 36  1  0  0  0  0
 38 41  1  1  0  0  0
 39 37  1  6  0  0  0
 39 40  1  0  0  0  0
 39 36  1  0  0  0  0
 39 38  1  0  0  0  0
 40 38  1  0  0  0  0
 42 43  1  0  0  0  0
 43 44  1  0  0  0  0
 44 45  2  0  0  0  0
 46 48  1  0  0  0  0
 46 44  1  0  0  0  0
 47 46  1  0  0  0  0
 47 48  1  0  0  0  0
 50 51  1  0  0  0  0
 50 49  1  0  0  0  0
 52 56  1  1  0  0  0
 52 51  1  0  0  0  0
 53 52  1  0  0  0  0
 54 53  1  0  0  0  0
 55 53  2  0  0  0  0
 56 57  1  0  0  0  0
 57 58  1  0  0  0  0
M  END
>  <MODEL>
3

>  <REMARK>
 VINA RESULT:      -3.9      2.340      6.250
  Name = 
  21 active torsions:
  status: ('A' for Active; 'I' for Inactive)
    1  A    between atoms: C_2  and  C_22
    2  A    between atoms: C_2  and  C_26
    3  A    between atoms: C_2  and  C_29
    4  A    between atoms: C_3  and  C_40
    5  A    between atoms: C_7  and  C_19
    6  A    between atoms: C_9  and  C_11
    7  A    between atoms: C_9  and  C_21
    8  A    between atoms: C_10  and  C_11
    9  A    between atoms: C_12  and  C_55
   10  A    between atoms: C_16  and  C_20
   11  A    between atoms: C_16  and  C_22
   12  A    between atoms: C_19  and  C_44
   13  A    between atoms: C_20  and  C_30
   14  A    between atoms: C_21  and  C_38
   15  A    between atoms: C_26  and  C_28
   16  A    between atoms: N_27  and  C_39
   17  A    between atoms: N_27  and  C_40
   18  A    between atoms: N_31  and  C_42
   19  A    between atoms: N_31  and  C_52
   20  A    between atoms: C_34  and  C_42
   21  A    between atoms: C_37  and  C_48
                            x       y       z     vdW  Elec       q    Type
                         _______ _______ _______ _____ _____    ______ ____

>  <TORSDO>
F 21

$$$$
=
 OpenBabel11062417503D

 58 65  0  0  1  0  0  0  0  0999 V2000
  188.7210  178.8550  136.9200 C   0  0  0  0  0  1  0  0  0  0  0  0
  189.9070  173.9480  135.3470 C   0  0  0  0  0  2  0  0  0  0  0  0
  185.4510  177.2590  136.7180 C   0  0  1  0  0  3  0  0  0  0  0  0
  188.9500  173.0550  134.6470 C   0  0  0  0  0  2  0  0  0  0  0  0
  186.8610  177.3510  136.2550 C   0  0  1  0  0  3  0  0  0  0  0  0
  187.6840  173.8940  134.5940 C   0  0  2  0  0  3  0  0  0  0  0  0
  186.7530  178.6280  138.2110 O   0  0  0  0  0  0  0  0  0  0  0  0
  188.2930  176.7530  138.3170 C   0  0  1  0  0  3  0  0  0  0  0  0
  187.6690  177.8830  137.4360 C   0  0  2  0  0  0  0  0  0  0  0  0
  187.7840  174.8870  135.7730 C   0  0  2  0  0  0  0  0  0  0  0  0
  185.4480  178.1490  137.9430 C   0  0  2  0  0  3  0  0  0  0  0  0
  186.5490  173.0820  134.6250 O   0  0  0  0  0  1  0  0  0  0  0  0
  189.7430  176.3530  138.0090 C   0  0  0  0  0  2  0  0  0  0  0  0
  190.0330  176.0810  136.5410 C   0  0  0  0  0  2  0  0  0  0  0  0
  187.3280  176.2660  135.2610 C   0  0  0  0  0  2  0  0  0  0  0  0
  189.2730  174.9140  135.9960 C   0  0  2  0  0  3  0  0  0  0  0  0
  187.4860  173.0500  137.5600 C   0  0  0  0  0  1  0  0  0  0  0  0
  185.6450  174.3830  136.8410 O   0  0  0  0  0  1  0  0  0  0  0  0
  187.0250  174.4050  137.0420 C   0  0  2  0  0  3  0  0  0  0  0  0
  184.5320  177.8530  135.6520 C   0  0  0  0  0  2  0  0  0  0  0  0
  182.3460  177.8780  134.5940 O   0  0  0  0  0  0  0  0  0  0  0  0
  183.0390  177.4980  135.7580 C   0  0  1  0  0  3  0  0  0  0  0  0
  182.5840  176.4990  134.7650 C   0  0  1  0  0  3  0  0  0  0  0  0
  181.3710  175.8550  135.2450 N   0  0  0  0  0  2  0  0  0  0  0  0
  181.7390  174.5300  135.7220 C   0  0  0  0  0  2  0  0  0  0  0  0
  181.1330  173.5140  137.7850 O   0  0  0  0  0  0  0  0  0  0  0  0
  181.9030  174.5490  137.2290 C   0  0  2  0  0  3  0  0  0  0  0  0
  180.5980  174.8130  137.8740 C   0  0  2  0  0  3  0  0  0  0  0  0
  179.9920  177.3040  139.9840 C   0  0  0  0  0  0  0  0  0  0  0  0
  180.7820  175.3050  139.3000 C   0  0  1  0  0  3  0  0  0  0  0  0
  180.9620  176.7520  139.3190 N   0  0  0  0  0  0  0  0  0  0  0  0
  178.9310  174.0610  140.2920 O   0  0  0  0  0  0  0  0  0  0  0  0
  179.0200  176.4050  140.5030 N   0  0  0  0  0  2  0  0  0  0  0  0
  179.5130  175.1560  140.0570 C   0  0  0  0  0  0  0  0  0  0  0  0
  179.9370  178.7710  140.2330 C   0  0  0  0  0  2  0  0  0  0  0  0
  180.9590  179.4400  139.4430 N   0  0  0  0  0  2  0  0  0  0  0  0
  179.8420  181.4490  140.2690 O   0  0  0  0  0  1  0  0  0  0  0  0
  180.2380  181.2900  137.8390 C   0  0  1  0  0  3  0  0  0  0  0  0
  180.5690  180.8320  139.2500 C   0  0  2  0  0  0  0  0  0  0  0  0
  181.5460  181.7150  138.5130 C   0  0  0  0  0  2  0  0  0  0  0  0
  180.5380  180.2340  136.7920 C   0  0  0  0  0  1  0  0  0  0  0  0
  184.8990  177.3870  139.1420 C   0  0  0  0  0  2  0  0  0  0  0  0
  183.9950  178.2640  140.0030 C   0  0  0  0  0  2  0  0  0  0  0  0
  184.7920  179.1260  140.9330 C   0  0  0  0  0  0  0  0  0  0  0  0
  185.7710  179.7270  140.5140 O   0  0  0  0  0  0  0  0  0  0  0  0
  184.3730  179.2730  142.3660 C   0  0  0  0  0  3  0  0  0  0  0  0
  182.9440  178.7760  142.5460 C   0  0  0  0  0  2  0  0  0  0  0  0
  184.1080  177.9040  142.9740 C   0  0  0  0  0  2  0  0  0  0  0  0
  188.1890  177.0420  139.8160 C   0  0  0  0  0  2  0  0  0  0  0  0
  189.1330  178.1550  140.2340 C   0  0  0  0  0  2  0  0  0  0  0  0
  188.7060  178.7290  141.5730 C   0  0  0  0  0  2  0  0  0  0  0  0
  189.3000  177.9130  142.7100 C   0  0  2  0  0  3  0  0  0  0  0  0
  190.4130  177.0400  142.2320 C   0  0  0  0  0  0  0  0  0  0  0  0
  191.6320  177.6120  141.9000 O   0  0  0  0  0  0  0  0  0  0  0  0
  190.2610  175.7970  142.1350 O   0  0  0  0  0  1  0  0  0  0  0  0
  188.2450  177.1330  143.4980 C   0  0  0  0  0  2  0  0  0  0  0  0
  188.1970  177.5300  144.9720 C   0  0  0  0  0  2  0  0  0  0  0  0
  189.3710  178.1960  145.3160 O   0  0  0  0  0  1  0  0  0  0  0  0
  3 20  1  6  0  0  0
  3 11  1  0  0  0  0
  4  2  1  0  0  0  0
  5 15  1  1  0  0  0
  5  3  1  0  0  0  0
  5  9  1  0  0  0  0
  6 12  1  1  0  0  0
  6  4  1  0  0  0  0
  6 10  1  0  0  0  0
  8 49  1  1  0  0  0
  9  1  1  6  0  0  0
  9  7  1  0  0  0  0
  9  8  1  0  0  0  0
 10 16  1  0  0  0  0
 10 19  1  1  0  0  0
 11  7  1  0  0  0  0
 11 42  1  1  0  0  0
 13  8  1  0  0  0  0
 14 13  1  0  0  0  0
 15 10  1  0  0  0  0
 16  2  1  6  0  0  0
 16 14  1  0  0  0  0
 18 19  1  0  0  0  0
 19 17  1  6  0  0  0
 21 23  1  0  0  0  0
 21 22  1  0  0  0  0
 22 20  1  6  0  0  0
 23 24  1  1  0  0  0
 23 22  1  0  0  0  0
 24 25  1  0  0  0  0
 27 25  1  6  0  0  0
 27 26  1  0  0  0  0
 27 28  1  0  0  0  0
 28 26  1  1  0  0  0
 28 30  1  0  0  0  0
 29 35  1  0  0  0  0
 29 33  1  0  0  0  0
 30 31  1  6  0  0  0
 30 34  1  0  0  0  0
 31 29  2  0  0  0  0
 34 32  2  0  0  0  0
 34 33  1  0  0  0  0
 36 35  1  0  0  0  0
 38 41  1  6  0  0  0
 38 40  1  0  0  0  0
 38 39  1  0  0  0  0
 39 36  1  0  0  0  0
 39 37  1  1  0  0  0
 40 39  1  0  0  0  0
 42 43  1  0  0  0  0
 43 44  1  0  0  0  0
 44 46  1  0  0  0  0
 45 44  2  0  0  0  0
 46 47  1  0  0  0  0
 46 48  1  0  0  0  0
 47 48  1  0  0  0  0
 49 50  1  0  0  0  0
 50 51  1  0  0  0  0
 52 51  1  6  0  0  0
 52 56  1  0  0  0  0
 53 52  1  0  0  0  0
 54 53  2  0  0  0  0
 55 53  1  0  0  0  0
 56 57  1  0  0  0  0
 57 58  1  0  0  0  0
M  END
>  <MODEL>
4

>  <REMARK>
 VINA RESULT:      -3.7      2.993      8.221
  Name = 
  21 active torsions:
  status: ('A' for Active; 'I' for Inactive)
    1  A    between atoms: C_2  and  C_22
    2  A    between atoms: C_2  and  C_26
    3  A    between atoms: C_2  and  C_29
    4  A    between atoms: C_3  and  C_40
    5  A    between atoms: C_7  and  C_19
    6  A    between atoms: C_9  and  C_11
    7  A    between atoms: C_9  and  C_21
    8  A    between atoms: C_10  and  C_11
    9  A    between atoms: C_12  and  C_55
   10  A    between atoms: C_16  and  C_20
   11  A    between atoms: C_16  and  C_22
   12  A    between atoms: C_19  and  C_44
   13  A    between atoms: C_20  and  C_30
   14  A    between atoms: C_21  and  C_38
   15  A    between atoms: C_26  and  C_28
   16  A    between atoms: N_27  and  C_39
   17  A    between atoms: N_27  and  C_40
   18  A    between atoms: N_31  and  C_42
   19  A    between atoms: N_31  and  C_52
   20  A    between atoms: C_34  and  C_42
   21  A    between atoms: C_37  and  C_48
                            x       y       z     vdW  Elec       q    Type
                         _______ _______ _______ _____ _____    ______ ____

>  <TORSDO>
F 21

$$$$
=
 OpenBabel11062417503D

 58 65  0  0  1  0  0  0  0  0999 V2000
  189.0540  179.8370  137.3480 C   0  0  0  0  0  1  0  0  0  0  0  0
  185.6490  176.8640  134.6040 C   0  0  0  0  0  2  0  0  0  0  0  0
  187.3260  177.9720  139.9580 C   0  0  1  0  0  3  0  0  0  0  0  0
  184.3980  176.3070  135.1770 C   0  0  0  0  0  2  0  0  0  0  0  0
  187.3200  178.5760  138.6000 C   0  0  1  0  0  3  0  0  0  0  0  0
  184.4520  176.7720  136.6230 C   0  0  2  0  0  3  0  0  0  0  0  0
  189.5570  178.5710  139.2810 O   0  0  0  0  0  0  0  0  0  0  0  0
  189.1140  177.2790  137.2720 C   0  0  1  0  0  3  0  0  0  0  0  0
  188.7670  178.5510  138.1100 C   0  0  2  0  0  0  0  0  0  0  0  0
  185.9480  176.9860  136.9420 C   0  0  2  0  0  0  0  0  0  0  0  0
  188.7860  178.0560  140.3500 C   0  0  2  0  0  3  0  0  0  0  0  0
  183.8140  175.8590  137.4620 O   0  0  0  0  0  1  0  0  0  0  0  0
  189.0110  177.4030  135.7460 C   0  0  0  0  0  2  0  0  0  0  0  0
  187.7140  178.0150  135.2400 C   0  0  0  0  0  2  0  0  0  0  0  0
  186.0730  178.3020  137.7330 C   0  0  0  0  0  2  0  0  0  0  0  0
  186.5080  177.1890  135.5600 C   0  0  2  0  0  3  0  0  0  0  0  0
  187.1120  174.6970  136.6920 C   0  0  0  0  0  1  0  0  0  0  0  0
  185.7390  175.1830  138.5790 O   0  0  0  0  0  1  0  0  0  0  0  0
  186.6010  175.7640  137.6490 C   0  0  2  0  0  3  0  0  0  0  0  0
  186.4930  178.8420  140.8980 C   0  0  0  0  0  2  0  0  0  0  0  0
  186.1510  178.6050  143.2910 O   0  0  0  0  0  0  0  0  0  0  0  0
  185.7550  178.1120  142.0340 C   0  0  1  0  0  3  0  0  0  0  0  0
  184.8710  178.9840  142.8380 C   0  0  1  0  0  3  0  0  0  0  0  0
  183.8620  178.1740  143.5030 N   0  0  0  0  0  2  0  0  0  0  0  0
  182.8070  179.0710  143.9520 C   0  0  0  0  0  2  0  0  0  0  0  0
  180.5740  179.5340  143.2780 O   0  0  0  0  0  0  0  0  0  0  0  0
  181.8870  179.4090  142.7950 C   0  0  2  0  0  3  0  0  0  0  0  0
  180.8890  178.3330  142.6140 C   0  0  2  0  0  3  0  0  0  0  0  0
  180.7970  180.0050  139.7480 C   0  0  0  0  0  0  0  0  0  0  0  0
  180.2750  178.3830  141.2250 C   0  0  1  0  0  3  0  0  0  0  0  0
  180.0820  179.7660  140.8050 N   0  0  0  0  0  0  0  0  0  0  0  0
  181.7520  176.7430  140.1810 O   0  0  0  0  0  0  0  0  0  0  0  0
  181.5760  178.9110  139.2780 N   0  0  0  0  0  2  0  0  0  0  0  0
  181.2560  177.9030  140.2180 C   0  0  0  0  0  0  0  0  0  0  0  0
  180.7580  181.3170  139.0440 C   0  0  0  0  0  2  0  0  0  0  0  0
  179.6590  181.3270  138.0910 N   0  0  0  0  0  2  0  0  0  0  0  0
  181.2510  180.2850  136.5600 O   0  0  0  0  0  1  0  0  0  0  0  0
  180.2360  182.4210  135.8570 C   0  0  1  0  0  3  0  0  0  0  0  0
  180.2040  181.1870  136.7440 C   0  0  2  0  0  0  0  0  0  0  0  0
  179.2240  181.3000  135.6020 C   0  0  0  0  0  2  0  0  0  0  0  0
  179.5190  183.6070  136.4730 C   0  0  0  0  0  1  0  0  0  0  0  0
  189.2960  176.6830  140.7670 C   0  0  0  0  0  2  0  0  0  0  0  0
  190.2350  176.7690  141.9660 C   0  0  0  0  0  2  0  0  0  0  0  0
  189.4790  176.7440  143.2580 C   0  0  0  0  0  0  0  0  0  0  0  0
  188.5710  175.9400  143.4150 O   0  0  0  0  0  0  0  0  0  0  0  0
  189.8530  177.6830  144.3660 C   0  0  0  0  0  3  0  0  0  0  0  0
  191.2600  177.3710  144.8630 C   0  0  0  0  0  2  0  0  0  0  0  0
  191.0270  178.5510  143.9400 C   0  0  0  0  0  2  0  0  0  0  0  0
  190.4910  176.7020  137.6090 C   0  0  0  0  0  2  0  0  0  0  0  0
  190.4930  175.1860  137.5260 C   0  0  0  0  0  2  0  0  0  0  0  0
  191.2500  174.7300  136.2920 C   0  0  0  0  0  2  0  0  0  0  0  0
  192.7240  175.0790  136.4180 C   0  0  2  0  0  3  0  0  0  0  0  0
  193.4840  174.6950  135.1920 C   0  0  0  0  0  0  0  0  0  0  0  0
  194.3310  175.6200  134.5990 O   0  0  0  0  0  0  0  0  0  0  0  0
  193.3730  173.5460  134.6980 O   0  0  0  0  0  1  0  0  0  0  0  0
  193.3590  174.5240  137.6960 C   0  0  0  0  0  2  0  0  0  0  0  0
  194.7670  173.9790  137.4660 C   0  0  0  0  0  2  0  0  0  0  0  0
  194.9300  172.7920  138.1770 O   0  0  0  0  0  1  0  0  0  0  0  0
  2  4  1  0  0  0  0
  3 11  1  0  0  0  0
  3 20  1  1  0  0  0
  4  6  1  0  0  0  0
  5 15  1  6  0  0  0
  5  3  1  0  0  0  0
  6 10  1  0  0  0  0
  6 12  1  1  0  0  0
  7 11  1  0  0  0  0
  8 49  1  6  0  0  0
  8  9  1  0  0  0  0
  9  1  1  6  0  0  0
  9  5  1  0  0  0  0
  9  7  1  0  0  0  0
 10 19  1  1  0  0  0
 10 15  1  0  0  0  0
 11 42  1  6  0  0  0
 13  8  1  0  0  0  0
 14 16  1  0  0  0  0
 14 13  1  0  0  0  0
 16  2  1  6  0  0  0
 16 10  1  0  0  0  0
 19 17  1  6  0  0  0
 19 18  1  0  0  0  0
 22 20  1  6  0  0  0
 22 23  1  0  0  0  0
 22 21  1  0  0  0  0
 23 21  1  0  0  0  0
 23 24  1  1  0  0  0
 24 25  1  0  0  0  0
 27 26  1  0  0  0  0
 27 25  1  1  0  0  0
 28 27  1  0  0  0  0
 28 26  1  1  0  0  0
 29 31  2  0  0  0  0
 30 34  1  6  0  0  0
 30 28  1  0  0  0  0
 31 30  1  0  0  0  0
 32 34  2  0  0  0  0
 33 29  1  0  0  0  0
 33 34  1  0  0  0  0
 35 29  1  0  0  0  0
 36 35  1  0  0  0  0
 38 41  1  1  0  0  0
 38 39  1  0  0  0  0
 39 37  1  6  0  0  0
 39 36  1  0  0  0  0
 40 38  1  0  0  0  0
 40 39  1  0  0  0  0
 42 43  1  0  0  0  0
 43 44  1  0  0  0  0
 44 45  2  0  0  0  0
 44 46  1  0  0  0  0
 46 47  1  0  0  0  0
 48 46  1  0  0  0  0
 48 47  1  0  0  0  0
 50 49  1  0  0  0  0
 51 50  1  0  0  0  0
 52 51  1  6  0  0  0
 52 56  1  0  0  0  0
 53 52  1  0  0  0  0
 54 53  2  0  0  0  0
 55 53  1  0  0  0  0
 57 56  1  0  0  0  0
 57 58  1  0  0  0  0
M  END
>  <MODEL>
5

>  <REMARK>
 VINA RESULT:      -3.2      3.003      8.860
  Name = 
  21 active torsions:
  status: ('A' for Active; 'I' for Inactive)
    1  A    between atoms: C_2  and  C_22
    2  A    between atoms: C_2  and  C_26
    3  A    between atoms: C_2  and  C_29
    4  A    between atoms: C_3  and  C_40
    5  A    between atoms: C_7  and  C_19
    6  A    between atoms: C_9  and  C_11
    7  A    between atoms: C_9  and  C_21
    8  A    between atoms: C_10  and  C_11
    9  A    between atoms: C_12  and  C_55
   10  A    between atoms: C_16  and  C_20
   11  A    between atoms: C_16  and  C_22
   12  A    between atoms: C_19  and  C_44
   13  A    between atoms: C_20  and  C_30
   14  A    between atoms: C_21  and  C_38
   15  A    between atoms: C_26  and  C_28
   16  A    between atoms: N_27  and  C_39
   17  A    between atoms: N_27  and  C_40
   18  A    between atoms: N_31  and  C_42
   19  A    between atoms: N_31  and  C_52
   20  A    between atoms: C_34  and  C_42
   21  A    between atoms: C_37  and  C_48
                            x       y       z     vdW  Elec       q    Type
                         _______ _______ _______ _____ _____    ______ ____

>  <TORSDO>
F 21

$$$$
=
 OpenBabel11062417503D

 58 65  0  0  1  0  0  0  0  0999 V2000
  187.8440  172.9770  137.4130 C   0  0  0  0  0  1  0  0  0  0  0  0
  192.6750  173.5450  135.3360 C   0  0  0  0  0  2  0  0  0  0  0  0
  188.7410  176.3770  138.3730 C   0  0  1  0  0  3  0  0  0  0  0  0
  193.6740  174.5220  135.8360 C   0  0  0  0  0  2  0  0  0  0  0  0
  189.1590  174.9930  138.0270 C   0  0  1  0  0  3  0  0  0  0  0  0
  192.9240  175.2330  136.9490 C   0  0  2  0  0  3  0  0  0  0  0  0
  186.9110  175.1500  137.4020 O   0  0  0  0  0  0  0  0  0  0  0  0
  188.4320  174.6570  135.5730 C   0  0  1  0  0  3  0  0  0  0  0  0
  188.0910  174.4430  137.0830 C   0  0  2  0  0  0  0  0  0  0  0  0
  191.4240  175.0930  136.6060 C   0  0  2  0  0  0  0  0  0  0  0  0
  187.2750  176.3820  137.9960 C   0  0  2  0  0  3  0  0  0  0  0  0
  193.3590  176.5520  137.0780 O   0  0  0  0  0  1  0  0  0  0  0  0
  189.1170  173.4940  134.8430 C   0  0  0  0  0  2  0  0  0  0  0  0
  190.3210  172.9080  135.5640 C   0  0  0  0  0  2  0  0  0  0  0  0
  190.6780  174.7450  137.9080 C   0  0  0  0  0  2  0  0  0  0  0  0
  191.4490  173.8800  135.7140 C   0  0  2  0  0  3  0  0  0  0  0  0
  191.6250  176.7210  134.6150 C   0  0  0  0  0  1  0  0  0  0  0  0
  190.7480  177.4390  136.7110 O   0  0  0  0  0  1  0  0  0  0  0  0
  190.8500  176.3340  135.8660 C   0  0  2  0  0  3  0  0  0  0  0  0
  188.8830  176.5830  139.8800 C   0  0  0  0  0  2  0  0  0  0  0  0
  189.7420  178.6210  140.8820 O   0  0  0  0  0  0  0  0  0  0  0  0
  190.1160  177.3730  140.3510 C   0  0  1  0  0  3  0  0  0  0  0  0
  190.1450  177.6350  141.8070 C   0  0  1  0  0  3  0  0  0  0  0  0
  191.5130  177.8970  142.2260 N   0  0  0  0  0  2  0  0  0  0  0  0
  191.7730  177.0790  143.4030 C   0  0  0  0  0  2  0  0  0  0  0  0
  191.4930  176.9670  145.7620 O   0  0  0  0  0  0  0  0  0  0  0  0
  191.3120  177.8080  144.6510 C   0  0  2  0  0  3  0  0  0  0  0  0
  190.1790  177.0830  145.2670 C   0  0  2  0  0  3  0  0  0  0  0  0
  187.1690  177.7780  146.4820 C   0  0  0  0  0  0  0  0  0  0  0  0
  189.3970  177.9880  146.2050 C   0  0  1  0  0  3  0  0  0  0  0  0
  188.0660  178.2470  145.6680 N   0  0  0  0  0  0  0  0  0  0  0  0
  189.9210  176.8040  148.2750 O   0  0  0  0  0  0  0  0  0  0  0  0
  187.6760  177.1400  147.6470 N   0  0  0  0  0  2  0  0  0  0  0  0
  189.0720  177.2610  147.4590 C   0  0  0  0  0  0  0  0  0  0  0  0
  185.7100  177.9500  146.2370 C   0  0  0  0  0  2  0  0  0  0  0  0
  185.4660  179.2540  145.6370 N   0  0  0  0  0  2  0  0  0  0  0  0
  183.1150  178.9250  145.0630 O   0  0  0  0  0  1  0  0  0  0  0  0
  184.7870  178.4290  143.3180 C   0  0  1  0  0  3  0  0  0  0  0  0
  184.4250  179.1170  144.6240 C   0  0  2  0  0  0  0  0  0  0  0  0
  184.5840  179.9460  143.3730 C   0  0  0  0  0  2  0  0  0  0  0  0
  186.2690  178.1290  143.2030 C   0  0  0  0  0  1  0  0  0  0  0  0
  186.9820  177.5410  137.0510 C   0  0  0  0  0  2  0  0  0  0  0  0
  185.7050  178.2790  137.4420 C   0  0  0  0  0  2  0  0  0  0  0  0
  185.6320  178.5040  138.9200 C   0  0  0  0  0  0  0  0  0  0  0  0
  186.5090  179.1460  139.4810 O   0  0  0  0  0  0  0  0  0  0  0  0
  184.4730  177.9670  139.7070 C   0  0  0  0  0  3  0  0  0  0  0  0
  183.2800  178.9080  139.5870 C   0  0  0  0  0  2  0  0  0  0  0  0
  183.3210  177.6300  138.7730 C   0  0  0  0  0  2  0  0  0  0  0  0
  187.2180  175.0860  134.7450 C   0  0  0  0  0  2  0  0  0  0  0  0
  186.2110  173.9580  134.6090 C   0  0  0  0  0  2  0  0  0  0  0  0
  185.2640  173.9550  135.7960 C   0  0  0  0  0  2  0  0  0  0  0  0
  184.1380  172.9590  135.5690 C   0  0  2  0  0  3  0  0  0  0  0  0
  182.8160  173.5300  135.9610 C   0  0  0  0  0  0  0  0  0  0  0  0
  182.5880  174.8900  135.8040 O   0  0  0  0  0  0  0  0  0  0  0  0
  181.9080  172.7950  136.4210 O   0  0  0  0  0  1  0  0  0  0  0  0
  184.4040  171.6010  136.2230 C   0  0  0  0  0  2  0  0  0  0  0  0
  184.5130  170.4670  135.2070 C   0  0  0  0  0  2  0  0  0  0  0  0
  185.7810  170.4750  134.6310 O   0  0  0  0  0  1  0  0  0  0  0  0
  2  4  1  0  0  0  0
  3 20  1  1  0  0  0
  4  6  1  0  0  0  0
  5 15  1  6  0  0  0
  5  3  1  0  0  0  0
  6 12  1  6  0  0  0
  7 11  1  0  0  0  0
  8 49  1  6  0  0  0
  8  9  1  0  0  0  0
  9  7  1  0  0  0  0
  9  1  1  1  0  0  0
  9  5  1  0  0  0  0
 10 19  1  6  0  0  0
 10  6  1  0  0  0  0
 10 15  1  0  0  0  0
 11 42  1  6  0  0  0
 11  3  1  0  0  0  0
 13 14  1  0  0  0  0
 13  8  1  0  0  0  0
 14 16  1  0  0  0  0
 16  2  1  1  0  0  0
 16 10  1  0  0  0  0
 19 17  1  6  0  0  0
 19 18  1  0  0  0  0
 21 23  1  0  0  0  0
 22 20  1  1  0  0  0
 22 21  1  0  0  0  0
 22 23  1  0  0  0  0
 23 24  1  6  0  0  0
 24 25  1  0  0  0  0
 27 25  1  6  0  0  0
 27 28  1  0  0  0  0
 27 26  1  0  0  0  0
 28 26  1  1  0  0  0
 28 30  1  0  0  0  0
 29 33  1  0  0  0  0
 30 31  1  6  0  0  0
 30 34  1  0  0  0  0
 31 29  2  0  0  0  0
 34 33  1  0  0  0  0
 34 32  2  0  0  0  0
 35 29  1  0  0  0  0
 36 35  1  0  0  0  0
 38 41  1  1  0  0  0
 38 40  1  0  0  0  0
 38 39  1  0  0  0  0
 39 37  1  1  0  0  0
 39 36  1  0  0  0  0
 40 39  1  0  0  0  0
 42 43  1  0  0  0  0
 43 44  1  0  0  0  0
 44 45  2  0  0  0  0
 44 46  1  0  0  0  0
 47 46  1  0  0  0  0
 48 47  1  0  0  0  0
 48 46  1  0  0  0  0
 50 49  1  0  0  0  0
 50 51  1  0  0  0  0
 52 51  1  1  0  0  0
 52 53  1  0  0  0  0
 52 56  1  0  0  0  0
 53 55  1  0  0  0  0
 54 53  2  0  0  0  0
 57 56  1  0  0  0  0
 58 57  1  0  0  0  0
M  END
>  <MODEL>
6

>  <REMARK>
 VINA RESULT:      -3.0      2.483      5.142
  Name = 
  21 active torsions:
  status: ('A' for Active; 'I' for Inactive)
    1  A    between atoms: C_2  and  C_22
    2  A    between atoms: C_2  and  C_26
    3  A    between atoms: C_2  and  C_29
    4  A    between atoms: C_3  and  C_40
    5  A    between atoms: C_7  and  C_19
    6  A    between atoms: C_9  and  C_11
    7  A    between atoms: C_9  and  C_21
    8  A    between atoms: C_10  and  C_11
    9  A    between atoms: C_12  and  C_55
   10  A    between atoms: C_16  and  C_20
   11  A    between atoms: C_16  and  C_22
   12  A    between atoms: C_19  and  C_44
   13  A    between atoms: C_20  and  C_30
   14  A    between atoms: C_21  and  C_38
   15  A    between atoms: C_26  and  C_28
   16  A    between atoms: N_27  and  C_39
   17  A    between atoms: N_27  and  C_40
   18  A    between atoms: N_31  and  C_42
   19  A    between atoms: N_31  and  C_52
   20  A    between atoms: C_34  and  C_42
   21  A    between atoms: C_37  and  C_48
                            x       y       z     vdW  Elec       q    Type
                         _______ _______ _______ _____ _____    ______ ____

>  <TORSDO>
F 21

$$$$
=
 OpenBabel11062417503D

 58 65  0  0  1  0  0  0  0  0999 V2000
  189.1020  179.5980  137.3700 C   0  0  0  0  0  1  0  0  0  0  0  0
  186.0110  176.3190  134.6020 C   0  0  0  0  0  2  0  0  0  0  0  0
  187.2230  177.8710  139.9710 C   0  0  1  0  0  3  0  0  0  0  0  0
  184.7350  175.7630  135.1160 C   0  0  0  0  0  2  0  0  0  0  0  0
  187.3090  178.3740  138.5750 C   0  0  1  0  0  3  0  0  0  0  0  0
  184.6600  176.3340  136.5230 C   0  0  2  0  0  3  0  0  0  0  0  0
  189.4840  178.4950  139.4260 O   0  0  0  0  0  0  0  0  0  0  0  0
  189.2380  177.0450  137.4920 C   0  0  1  0  0  3  0  0  0  0  0  0
  188.7900  178.3630  138.2020 C   0  0  2  0  0  0  0  0  0  0  0  0
  186.1190  176.6220  136.9400 C   0  0  2  0  0  0  0  0  0  0  0  0
  188.6440  178.0330  140.4680 C   0  0  2  0  0  3  0  0  0  0  0  0
  183.9820  175.4630  137.3770 O   0  0  0  0  0  1  0  0  0  0  0  0
  189.2550  177.0540  135.9570 C   0  0  0  0  0  2  0  0  0  0  0  0
  187.9860  177.5830  135.3080 C   0  0  0  0  0  2  0  0  0  0  0  0
  186.1430  177.9950  137.6370 C   0  0  0  0  0  2  0  0  0  0  0  0
  186.7820  176.7410  135.5940 C   0  0  2  0  0  3  0  0  0  0  0  0
  187.8330  174.6970  137.0590 C   0  0  0  0  0  1  0  0  0  0  0  0
  185.7790  174.5950  138.2630 O   0  0  0  0  0  1  0  0  0  0  0  0
  186.7480  175.4770  137.7860 C   0  0  2  0  0  3  0  0  0  0  0  0
  186.2940  178.7780  140.7760 C   0  0  0  0  0  2  0  0  0  0  0  0
  186.5140  179.1910  143.1590 O   0  0  0  0  0  0  0  0  0  0  0  0
  185.9550  178.3190  142.2050 C   0  0  1  0  0  3  0  0  0  0  0  0
  185.1200  179.2760  142.9640 C   0  0  1  0  0  3  0  0  0  0  0  0
  184.4370  178.5760  144.0410 N   0  0  0  0  0  2  0  0  0  0  0  0
  183.0280  178.9380  143.9730 C   0  0  0  0  0  2  0  0  0  0  0  0
  181.3090  179.7000  142.5170 O   0  0  0  0  0  0  0  0  0  0  0  0
  182.6500  179.2790  142.5450 C   0  0  2  0  0  3  0  0  0  0  0  0
  181.5660  178.3850  142.0840 C   0  0  2  0  0  3  0  0  0  0  0  0
  180.5620  176.6330  139.4480 C   0  0  0  0  0  0  0  0  0  0  0  0
  181.4850  178.3600  140.5660 C   0  0  1  0  0  3  0  0  0  0  0  0
  181.6420  176.9970  140.0710 N   0  0  0  0  0  0  0  0  0  0  0  0
  179.5020  179.7660  140.3440 O   0  0  0  0  0  0  0  0  0  0  0  0
  179.5240  177.6040  139.4090 N   0  0  0  0  0  2  0  0  0  0  0  0
  180.1030  178.6770  140.1250 C   0  0  0  0  0  0  0  0  0  0  0  0
  180.4440  175.3110  138.7730 C   0  0  0  0  0  2  0  0  0  0  0  0
  179.7760  175.4760  137.4910 N   0  0  0  0  0  2  0  0  0  0  0  0
  181.0270  173.4100  137.1280 O   0  0  0  0  0  1  0  0  0  0  0  0
  180.1850  174.5900  135.1310 C   0  0  1  0  0  3  0  0  0  0  0  0
  180.1230  174.3490  136.6310 C   0  0  2  0  0  0  0  0  0  0  0  0
  179.0250  173.8040  135.7510 C   0  0  0  0  0  2  0  0  0  0  0  0
  179.6950  175.9700  134.7360 C   0  0  0  0  0  1  0  0  0  0  0  0
  189.1570  176.7120  141.0260 C   0  0  0  0  0  2  0  0  0  0  0  0
  190.5390  176.8630  141.6530 C   0  0  0  0  0  2  0  0  0  0  0  0
  190.4580  177.4660  143.0210 C   0  0  0  0  0  0  0  0  0  0  0  0
  190.4220  178.6820  143.1470 O   0  0  0  0  0  0  0  0  0  0  0  0
  190.3930  176.5820  144.2310 C   0  0  0  0  0  3  0  0  0  0  0  0
  190.0780  177.4140  145.4690 C   0  0  0  0  0  2  0  0  0  0  0  0
  188.9860  176.5940  144.8100 C   0  0  0  0  0  2  0  0  0  0  0  0
  190.6000  176.5410  137.9780 C   0  0  0  0  0  2  0  0  0  0  0  0
  191.3580  175.8330  136.8690 C   0  0  0  0  0  2  0  0  0  0  0  0
  192.8340  176.1830  136.9370 C   0  0  0  0  0  2  0  0  0  0  0  0
  193.6790  174.9250  136.8230 C   0  0  2  0  0  3  0  0  0  0  0  0
  194.2160  174.5060  138.1510 C   0  0  0  0  0  0  0  0  0  0  0  0
  194.4030  175.4590  139.1420 O   0  0  0  0  0  1  0  0  0  0  0  0
  194.4910  173.3030  138.3850 O   0  0  0  0  0  0  0  0  0  0  0  0
  194.7750  175.0380  135.7610 C   0  0  0  0  0  2  0  0  0  0  0  0
  194.7520  173.8830  134.7620 C   0  0  0  0  0  2  0  0  0  0  0  0
  193.5230  173.2300  134.8320 O   0  0  0  0  0  1  0  0  0  0  0  0
  2  4  1  0  0  0  0
  3 11  1  0  0  0  0
  3 20  1  1  0  0  0
  4  6  1  0  0  0  0
  5 15  1  6  0  0  0
  5  3  1  0  0  0  0
  6 10  1  0  0  0  0
  6 12  1  1  0  0  0
  7 11  1  0  0  0  0
  8 49  1  1  0  0  0
  8  9  1  0  0  0  0
  9  1  1  6  0  0  0
  9  5  1  0  0  0  0
  9  7  1  0  0  0  0
 10 15  1  0  0  0  0
 10 19  1  1  0  0  0
 11 42  1  6  0  0  0
 13  8  1  0  0  0  0
 14 16  1  0  0  0  0
 14 13  1  0  0  0  0
 16  2  1  6  0  0  0
 16 10  1  0  0  0  0
 19 17  1  6  0  0  0
 19 18  1  0  0  0  0
 22 20  1  6  0  0  0
 22 23  1  0  0  0  0
 22 21  1  0  0  0  0
 23 21  1  0  0  0  0
 23 24  1  1  0  0  0
 25 24  1  0  0  0  0
 26 27  1  0  0  0  0
 27 25  1  1  0  0  0
 28 26  1  1  0  0  0
 28 27  1  0  0  0  0
 29 31  2  0  0  0  0
 30 31  1  1  0  0  0
 30 28  1  0  0  0  0
 33 29  1  0  0  0  0
 33 34  1  0  0  0  0
 34 32  2  0  0  0  0
 34 30  1  0  0  0  0
 35 29  1  0  0  0  0
 36 35  1  0  0  0  0
 38 41  1  1  0  0  0
 38 40  1  0  0  0  0
 38 39  1  0  0  0  0
 39 37  1  1  0  0  0
 39 36  1  0  0  0  0
 40 39  1  0  0  0  0
 42 43  1  0  0  0  0
 43 44  1  0  0  0  0
 44 45  2  0  0  0  0
 44 46  1  0  0  0  0
 46 48  1  0  0  0  0
 46 47  1  0  0  0  0
 48 47  1  0  0  0  0
 50 51  1  0  0  0  0
 50 49  1  0  0  0  0
 52 56  1  6  0  0  0
 52 51  1  0  0  0  0
 52 53  1  0  0  0  0
 53 55  2  0  0  0  0
 53 54  1  0  0  0  0
 57 58  1  0  0  0  0
 57 56  1  0  0  0  0
M  END
>  <MODEL>
7

>  <REMARK>
 VINA RESULT:      -2.9      3.037      8.958
  Name = 
  21 active torsions:
  status: ('A' for Active; 'I' for Inactive)
    1  A    between atoms: C_2  and  C_22
    2  A    between atoms: C_2  and  C_26
    3  A    between atoms: C_2  and  C_29
    4  A    between atoms: C_3  and  C_40
    5  A    between atoms: C_7  and  C_19
    6  A    between atoms: C_9  and  C_11
    7  A    between atoms: C_9  and  C_21
    8  A    between atoms: C_10  and  C_11
    9  A    between atoms: C_12  and  C_55
   10  A    between atoms: C_16  and  C_20
   11  A    between atoms: C_16  and  C_22
   12  A    between atoms: C_19  and  C_44
   13  A    between atoms: C_20  and  C_30
   14  A    between atoms: C_21  and  C_38
   15  A    between atoms: C_26  and  C_28
   16  A    between atoms: N_27  and  C_39
   17  A    between atoms: N_27  and  C_40
   18  A    between atoms: N_31  and  C_42
   19  A    between atoms: N_31  and  C_52
   20  A    between atoms: C_34  and  C_42
   21  A    between atoms: C_37  and  C_48
                            x       y       z     vdW  Elec       q    Type
                         _______ _______ _______ _____ _____    ______ ____

>  <TORSDO>
F 21

$$$$
=
 OpenBabel11062417503D

 58 65  0  0  1  0  0  0  0  0999 V2000
  189.5810  174.6190  142.4780 C   0  0  0  0  0  1  0  0  0  0  0  0
  191.9680  176.3300  146.8760 C   0  0  0  0  0  2  0  0  0  0  0  0
  187.6370  177.5740  143.3540 C   0  0  1  0  0  3  0  0  0  0  0  0
  191.3030  177.1790  147.8950 C   0  0  0  0  0  2  0  0  0  0  0  0
  188.4930  176.4350  143.7760 C   0  0  1  0  0  3  0  0  0  0  0  0
  189.9210  177.3980  147.3010 C   0  0  2  0  0  3  0  0  0  0  0  0
  188.7140  176.5650  141.4520 O   0  0  0  0  0  0  0  0  0  0  0  0
  190.7890  176.8670  142.6780 C   0  0  1  0  0  3  0  0  0  0  0  0
  189.4150  176.1270  142.5980 C   0  0  2  0  0  0  0  0  0  0  0  0
  190.0850  177.2310  145.7750 C   0  0  2  0  0  0  0  0  0  0  0  0
  187.7860  177.5580  141.8480 C   0  0  2  0  0  3  0  0  0  0  0  0
  189.4040  178.6350  147.6880 O   0  0  0  0  0  1  0  0  0  0  0  0
  191.9620  176.0890  143.2920 C   0  0  0  0  0  2  0  0  0  0  0  0
  191.6580  175.4210  144.6240 C   0  0  0  0  0  2  0  0  0  0  0  0
  188.8950  176.3950  145.2660 C   0  0  0  0  0  2  0  0  0  0  0  0
  191.3350  176.3950  145.7130 C   0  0  2  0  0  3  0  0  0  0  0  0
  191.7160  179.0190  144.8810 C   0  0  0  0  0  1  0  0  0  0  0  0
  189.5310  179.6070  145.6290 O   0  0  0  0  0  1  0  0  0  0  0  0
  190.2650  178.5840  145.0290 C   0  0  2  0  0  3  0  0  0  0  0  0
  186.1860  177.2780  143.7280 C   0  0  0  0  0  2  0  0  0  0  0  0
  185.1550  179.3220  142.9190 O   0  0  0  0  0  0  0  0  0  0  0  0
  185.2980  178.4930  144.0470 C   0  0  1  0  0  3  0  0  0  0  0  0
  184.0370  178.5390  143.2730 C   0  0  1  0  0  3  0  0  0  0  0  0
  183.0680  179.3680  143.9730 N   0  0  0  0  0  2  0  0  0  0  0  0
  181.7470  179.0070  143.4790 C   0  0  0  0  0  2  0  0  0  0  0  0
  180.3240  179.3450  141.6030 O   0  0  0  0  0  0  0  0  0  0  0  0
  181.6730  179.2400  141.9820 C   0  0  2  0  0  3  0  0  0  0  0  0
  180.9600  178.1190  141.3330 C   0  0  2  0  0  3  0  0  0  0  0  0
  181.6880  176.1150  138.7880 C   0  0  0  0  0  0  0  0  0  0  0  0
  181.2690  178.0610  139.8460 C   0  0  1  0  0  3  0  0  0  0  0  0
  182.2300  177.0010  139.5670 N   0  0  0  0  0  0  0  0  0  0  0  0
  178.9630  178.1740  139.0520 O   0  0  0  0  0  0  0  0  0  0  0  0
  180.3390  176.3720  138.4180 N   0  0  0  0  0  2  0  0  0  0  0  0
  180.0790  177.5840  139.0960 C   0  0  0  0  0  0  0  0  0  0  0  0
  182.4480  174.9420  138.2720 C   0  0  0  0  0  2  0  0  0  0  0  0
  183.8220  175.3330  137.9950 N   0  0  0  0  0  2  0  0  0  0  0  0
  184.9470  173.1660  137.9800 O   0  0  0  0  0  1  0  0  0  0  0  0
  185.2930  174.6360  136.0290 C   0  0  1  0  0  3  0  0  0  0  0  0
  184.4760  174.2600  137.2550 C   0  0  2  0  0  0  0  0  0  0  0  0
  183.9300  173.9540  135.8820 C   0  0  0  0  0  2  0  0  0  0  0  0
  185.1580  176.1010  135.6580 C   0  0  0  0  0  1  0  0  0  0  0  0
  188.2230  178.9300  141.3500 C   0  0  0  0  0  2  0  0  0  0  0  0
  188.6460  178.8910  139.8850 C   0  0  0  0  0  2  0  0  0  0  0  0
  187.5270  178.4320  139.0030 C   0  0  0  0  0  0  0  0  0  0  0  0
  186.3680  178.6210  139.3440 O   0  0  0  0  0  0  0  0  0  0  0  0
  187.8270  177.7690  137.6910 C   0  0  0  0  0  3  0  0  0  0  0  0
  187.6640  178.7680  136.5510 C   0  0  0  0  0  2  0  0  0  0  0  0
  189.0490  178.4090  137.0510 C   0  0  0  0  0  2  0  0  0  0  0  0
  191.2450  177.4240  141.3280 C   0  0  0  0  0  2  0  0  0  0  0  0
  191.1460  176.3770  140.2330 C   0  0  0  0  0  2  0  0  0  0  0  0
  191.7940  176.8880  138.9590 C   0  0  0  0  0  2  0  0  0  0  0  0
  192.2470  175.7220  138.0950 C   0  0  2  0  0  3  0  0  0  0  0  0
  193.6960  175.8250  137.7530 C   0  0  0  0  0  0  0  0  0  0  0  0
  194.6460  175.5770  138.7340 O   0  0  0  0  0  1  0  0  0  0  0  0
  194.0650  176.1240  136.5910 O   0  0  0  0  0  0  0  0  0  0  0  0
  191.3690  175.5220  136.8560 C   0  0  0  0  0  2  0  0  0  0  0  0
  190.8320  174.0980  136.7360 C   0  0  0  0  0  2  0  0  0  0  0  0
  189.5040  174.1340  136.3150 O   0  0  0  0  0  1  0  0  0  0  0  0
  2  4  1  0  0  0  0
  3 20  1  6  0  0  0
  3  5  1  0  0  0  0
  5 15  1  1  0  0  0
  6 12  1  6  0  0  0
  6  4  1  0  0  0  0
  7 11  1  0  0  0  0
  7  9  1  0  0  0  0
  8 49  1  6  0  0  0
  8 13  1  0  0  0  0
  9  1  1  6  0  0  0
  9  8  1  0  0  0  0
  9  5  1  0  0  0  0
 10 19  1  6  0  0  0
 10  6  1  0  0  0  0
 11 42  1  1  0  0  0
 11  3  1  0  0  0  0
 13 14  1  0  0  0  0
 15 10  1  0  0  0  0
 16 14  1  1  0  0  0
 16 10  1  0  0  0  0
 16  2  1  0  0  0  0
 19 17  1  1  0  0  0
 19 18  1  0  0  0  0
 21 23  1  0  0  0  0
 21 22  1  0  0  0  0
 22 20  1  6  0  0  0
 23 24  1  1  0  0  0
 23 22  1  0  0  0  0
 25 24  1  0  0  0  0
 26 27  1  0  0  0  0
 27 25  1  1  0  0  0
 28 26  1  6  0  0  0
 28 27  1  0  0  0  0
 29 31  2  0  0  0  0
 30 34  1  6  0  0  0
 30 28  1  0  0  0  0
 31 30  1  0  0  0  0
 32 34  2  0  0  0  0
 33 29  1  0  0  0  0
 33 34  1  0  0  0  0
 35 29  1  0  0  0  0
 36 35  1  0  0  0  0
 38 41  1  6  0  0  0
 38 39  1  0  0  0  0
 39 37  1  1  0  0  0
 39 36  1  0  0  0  0
 40 38  1  0  0  0  0
 40 39  1  0  0  0  0
 43 42  1  0  0  0  0
 44 45  2  0  0  0  0
 44 43  1  0  0  0  0
 46 44  1  0  0  0  0
 47 48  1  0  0  0  0
 47 46  1  0  0  0  0
 48 46  1  0  0  0  0
 50 49  1  0  0  0  0
 51 50  1  0  0  0  0
 52 56  1  6  0  0  0
 52 51  1  0  0  0  0
 53 52  1  0  0  0  0
 53 54  1  0  0  0  0
 55 53  2  0  0  0  0
 57 56  1  0  0  0  0
 58 57  1  0  0  0  0
M  END
>  <MODEL>
8

>  <REMARK>
 VINA RESULT:      -2.7      2.919      8.879
  Name = 
  21 active torsions:
  status: ('A' for Active; 'I' for Inactive)
    1  A    between atoms: C_2  and  C_22
    2  A    between atoms: C_2  and  C_26
    3  A    between atoms: C_2  and  C_29
    4  A    between atoms: C_3  and  C_40
    5  A    between atoms: C_7  and  C_19
    6  A    between atoms: C_9  and  C_11
    7  A    between atoms: C_9  and  C_21
    8  A    between atoms: C_10  and  C_11
    9  A    between atoms: C_12  and  C_55
   10  A    between atoms: C_16  and  C_20
   11  A    between atoms: C_16  and  C_22
   12  A    between atoms: C_19  and  C_44
   13  A    between atoms: C_20  and  C_30
   14  A    between atoms: C_21  and  C_38
   15  A    between atoms: C_26  and  C_28
   16  A    between atoms: N_27  and  C_39
   17  A    between atoms: N_27  and  C_40
   18  A    between atoms: N_31  and  C_42
   19  A    between atoms: N_31  and  C_52
   20  A    between atoms: C_34  and  C_42
   21  A    between atoms: C_37  and  C_48
                            x       y       z     vdW  Elec       q    Type
                         _______ _______ _______ _____ _____    ______ ____

>  <TORSDO>
F 21

$$$$
=
 OpenBabel11062417503D

 58 65  0  0  1  0  0  0  0  0999 V2000
  189.5820  174.6750  142.4780 C   0  0  0  0  0  1  0  0  0  0  0  0
  191.9750  176.3290  146.8940 C   0  0  0  0  0  2  0  0  0  0  0  0
  187.6570  177.6360  143.3780 C   0  0  1  0  0  3  0  0  0  0  0  0
  191.3140  177.1730  147.9190 C   0  0  0  0  0  2  0  0  0  0  0  0
  188.5050  176.4860  143.7910 C   0  0  1  0  0  3  0  0  0  0  0  0
  189.9350  177.4070  147.3260 C   0  0  2  0  0  3  0  0  0  0  0  0
  188.7300  176.6360  141.4680 O   0  0  0  0  0  0  0  0  0  0  0  0
  190.8050  176.9130  142.7000 C   0  0  1  0  0  3  0  0  0  0  0  0
  189.4260  176.1830  142.6110 C   0  0  2  0  0  0  0  0  0  0  0  0
  190.1000  177.2520  145.7990 C   0  0  2  0  0  0  0  0  0  0  0  0
  187.8090  177.6320  141.8720 C   0  0  2  0  0  3  0  0  0  0  0  0
  189.4260  178.6440  147.7240 O   0  0  0  0  0  1  0  0  0  0  0  0
  191.9710  176.1210  143.3080 C   0  0  0  0  0  2  0  0  0  0  0  0
  191.6610  175.4420  144.6330 C   0  0  0  0  0  2  0  0  0  0  0  0
  188.9050  176.4290  145.2810 C   0  0  0  0  0  2  0  0  0  0  0  0
  191.3440  176.4090  145.7300 C   0  0  2  0  0  3  0  0  0  0  0  0
  191.7450  179.0330  144.9150 C   0  0  0  0  0  1  0  0  0  0  0  0
  189.5690  179.6350  145.6790 O   0  0  0  0  0  1  0  0  0  0  0  0
  190.2900  178.6110  145.0650 C   0  0  2  0  0  3  0  0  0  0  0  0
  186.2040  177.3460  143.7470 C   0  0  0  0  0  2  0  0  0  0  0  0
  185.1190  179.3530  142.9160 O   0  0  0  0  0  0  0  0  0  0  0  0
  185.3210  178.5660  144.0650 C   0  0  1  0  0  3  0  0  0  0  0  0
  184.0250  178.5750  143.3490 C   0  0  1  0  0  3  0  0  0  0  0  0
  183.0820  179.4210  144.0640 N   0  0  0  0  0  2  0  0  0  0  0  0
  181.7450  178.9130  143.7910 C   0  0  0  0  0  2  0  0  0  0  0  0
  179.8950  179.2180  142.3280 O   0  0  0  0  0  0  0  0  0  0  0  0
  181.2900  179.3650  142.4170 C   0  0  2  0  0  3  0  0  0  0  0  0
  180.6740  178.2330  141.6920 C   0  0  2  0  0  3  0  0  0  0  0  0
  180.5940  180.5840  139.3500 C   0  0  0  0  0  0  0  0  0  0  0  0
  180.6420  178.4940  140.1950 C   0  0  1  0  0  3  0  0  0  0  0  0
  179.8450  179.6800  139.9040 N   0  0  0  0  0  0  0  0  0  0  0  0
  183.0320  178.2160  139.7860 O   0  0  0  0  0  0  0  0  0  0  0  0
  181.9590  180.2220  139.1770 N   0  0  0  0  0  2  0  0  0  0  0  0
  181.9840  178.9180  139.7230 C   0  0  0  0  0  0  0  0  0  0  0  0
  180.0470  181.8850  138.8760 C   0  0  0  0  0  2  0  0  0  0  0  0
  180.9980  182.5140  137.9710 N   0  0  0  0  0  2  0  0  0  0  0  0
  179.3700  184.3340  137.9790 O   0  0  0  0  0  1  0  0  0  0  0  0
  180.0760  183.4560  135.7850 C   0  0  1  0  0  3  0  0  0  0  0  0
  180.3310  183.6090  137.2750 C   0  0  2  0  0  0  0  0  0  0  0  0
  181.1670  184.4000  136.2990 C   0  0  0  0  0  2  0  0  0  0  0  0
  180.7270  182.2170  135.2010 C   0  0  0  0  0  1  0  0  0  0  0  0
  188.2560  179.0050  141.3870 C   0  0  0  0  0  2  0  0  0  0  0  0
  188.7240  178.9670  139.9360 C   0  0  0  0  0  2  0  0  0  0  0  0
  187.6320  178.5100  139.0190 C   0  0  0  0  0  0  0  0  0  0  0  0
  186.4640  178.6280  139.3600 O   0  0  0  0  0  0  0  0  0  0  0  0
  187.9700  177.9350  137.6760 C   0  0  0  0  0  3  0  0  0  0  0  0
  187.5700  178.9120  136.5750 C   0  0  0  0  0  2  0  0  0  0  0  0
  189.0230  178.7930  136.9920 C   0  0  0  0  0  2  0  0  0  0  0  0
  191.2670  177.4780  141.3550 C   0  0  0  0  0  2  0  0  0  0  0  0
  191.6350  176.3710  140.3830 C   0  0  0  0  0  2  0  0  0  0  0  0
  191.5640  176.8820  138.9550 C   0  0  0  0  0  2  0  0  0  0  0  0
  191.8630  175.7570  137.9780 C   0  0  2  0  0  3  0  0  0  0  0  0
  193.2940  175.7650  137.5560 C   0  0  0  0  0  0  0  0  0  0  0  0
  193.9440  176.9780  137.3750 O   0  0  0  0  0  1  0  0  0  0  0  0
  193.9190  174.6910  137.3730 O   0  0  0  0  0  0  0  0  0  0  0  0
  190.9030  175.7340  136.7850 C   0  0  0  0  0  2  0  0  0  0  0  0
  190.9070  174.3950  136.0500 C   0  0  0  0  0  2  0  0  0  0  0  0
  190.5890  173.3720  136.9410 O   0  0  0  0  0  1  0  0  0  0  0  0
  2  4  1  0  0  0  0
  3 20  1  6  0  0  0
  3  5  1  0  0  0  0
  5 15  1  1  0  0  0
  6 12  1  6  0  0  0
  6  4  1  0  0  0  0
  7 11  1  0  0  0  0
  7  9  1  0  0  0  0
  8 49  1  6  0  0  0
  8 13  1  0  0  0  0
  9  1  1  6  0  0  0
  9  8  1  0  0  0  0
  9  5  1  0  0  0  0
 10 19  1  6  0  0  0
 10  6  1  0  0  0  0
 11 42  1  1  0  0  0
 11  3  1  0  0  0  0
 13 14  1  0  0  0  0
 15 10  1  0  0  0  0
 16 14  1  1  0  0  0
 16 10  1  0  0  0  0
 16  2  1  0  0  0  0
 19 17  1  1  0  0  0
 19 18  1  0  0  0  0
 21 23  1  0  0  0  0
 21 22  1  0  0  0  0
 22 20  1  6  0  0  0
 23 24  1  1  0  0  0
 23 22  1  0  0  0  0
 25 24  1  0  0  0  0
 26 27  1  0  0  0  0
 27 25  1  1  0  0  0
 28 26  1  1  0  0  0
 28 27  1  0  0  0  0
 29 31  2  0  0  0  0
 30 34  1  1  0  0  0
 30 28  1  0  0  0  0
 31 30  1  0  0  0  0
 33 29  1  0  0  0  0
 33 34  1  0  0  0  0
 34 32  2  0  0  0  0
 35 29  1  0  0  0  0
 36 35  1  0  0  0  0
 38 41  1  6  0  0  0
 38 40  1  0  0  0  0
 38 39  1  0  0  0  0
 39 36  1  0  0  0  0
 39 37  1  1  0  0  0
 40 39  1  0  0  0  0
 43 42  1  0  0  0  0
 44 45  2  0  0  0  0
 44 43  1  0  0  0  0
 46 44  1  0  0  0  0
 47 48  1  0  0  0  0
 47 46  1  0  0  0  0
 48 46  1  0  0  0  0
 50 49  1  0  0  0  0
 51 50  1  0  0  0  0
 52 56  1  6  0  0  0
 52 51  1  0  0  0  0
 53 52  1  0  0  0  0
 54 53  1  0  0  0  0
 55 53  2  0  0  0  0
 57 56  1  0  0  0  0
 57 58  1  0  0  0  0
M  END
>  <MODEL>
9

>  <REMARK>
 VINA RESULT:      -2.4      4.052      9.423
  Name = 
  21 active torsions:
  status: ('A' for Active; 'I' for Inactive)
    1  A    between atoms: C_2  and  C_22
    2  A    between atoms: C_2  and  C_26
    3  A    between atoms: C_2  and  C_29
    4  A    between atoms: C_3  and  C_40
    5  A    between atoms: C_7  and  C_19
    6  A    between atoms: C_9  and  C_11
    7  A    between atoms: C_9  and  C_21
    8  A    between atoms: C_10  and  C_11
    9  A    between atoms: C_12  and  C_55
   10  A    between atoms: C_16  and  C_20
   11  A    between atoms: C_16  and  C_22
   12  A    between atoms: C_19  and  C_44
   13  A    between atoms: C_20  and  C_30
   14  A    between atoms: C_21  and  C_38
   15  A    between atoms: C_26  and  C_28
   16  A    between atoms: N_27  and  C_39
   17  A    between atoms: N_27  and  C_40
   18  A    between atoms: N_31  and  C_42
   19  A    between atoms: N_31  and  C_52
   20  A    between atoms: C_34  and  C_42
   21  A    between atoms: C_37  and  C_48
                            x       y       z     vdW  Elec       q    Type
                         _______ _______ _______ _____ _____    ______ ____

>  <TORSDO>
F 21

$$$$
