=
 OpenBabel11062417443D

 39 42  0  0  1  0  0  0  0  0999 V2000
  185.9320  178.4760  139.7720 C   0  0  0  0  0  0  0  0  0  0  0  0
  183.1890  178.7800  140.3980 C   0  0  0  0  0  0  0  0  0  0  0  0
  183.6190  178.6770  139.0540 C   0  0  0  0  0  0  0  0  0  0  0  0
  182.7230  178.7400  137.9950 O   0  0  0  0  0  1  0  0  0  0  0  0
  185.5120  178.5940  141.1000 C   0  0  0  0  0  3  0  0  0  0  0  0
  184.1610  178.7390  141.4280 C   0  0  0  0  0  0  0  0  0  0  0  0
  184.9730  178.5240  138.7580 C   0  0  0  0  0  3  0  0  0  0  0  0
  188.4390  178.2950  140.3310 C   0  0  0  0  0  0  0  0  0  0  0  0
  188.3660  178.4440  141.7450 N   0  0  0  0  0  1  0  0  0  0  0  0
  189.3160  178.0490  138.3760 N   0  0  0  0  0  0  0  0  0  0  0  0
  187.9820  178.1530  138.2160 C   0  0  0  0  0  0  0  0  0  0  0  0
  187.3700  178.3180  139.4520 C   0  0  0  0  0  0  0  0  0  0  0  0
  189.5970  178.1400  139.6660 N   0  0  0  0  0  2  0  0  0  0  0  0
  187.1880  178.0190  136.6120 S   0  0  0  0  0  0  0  0  0  0  0  0
  186.1360  174.0510  137.1280 C   0  0  0  0  0  0  0  0  0  0  0  0
  185.9190  175.4680  136.6800 C   0  0  1  0  0  3  0  0  0  0  0  0
  188.3960  175.6000  136.5890 C   0  0  0  0  0  3  0  0  0  0  0  0
  184.8790  173.1740  137.6890 S   0  0  0  0  0  0  0  0  0  0  0  0
  187.4140  173.4290  136.9500 N   0  0  0  0  0  0  0  0  0  0  0  0
  187.2200  176.2300  136.6520 C   0  0  0  0  0  0  0  0  0  0  0  0
  188.4770  174.1230  136.6750 C   0  0  0  0  0  0  0  0  0  0  0  0
  185.3610  175.4660  135.3980 O   0  0  0  0  0  0  0  0  0  0  0  0
  184.1600  176.1670  135.5200 C   0  0  0  0  0  1  0  0  0  0  0  0
  189.6930  173.4580  136.4970 O   0  0  0  0  0  0  0  0  0  0  0  0
  190.9450  174.1290  136.4900 C   0  0  0  0  0  2  0  0  0  0  0  0
  191.3780  174.3720  137.8560 N   0  0  0  0  0  1  0  0  0  0  0  0
  180.8840  177.8950  140.8270 C   0  0  0  0  0  1  0  0  0  0  0  0
  181.8380  178.9450  140.7440 O   0  0  0  0  0  0  0  0  0  0  0  0
  183.8340  178.8520  142.8210 N   0  0  0  0  0  2  0  0  0  0  0  0
  184.6440  179.5090  143.8390 C   0  0  0  0  0  2  0  0  0  0  0  0
  184.6580  178.6670  145.1030 C   0  0  0  0  0  2  0  0  0  0  0  0
  185.9230  178.9380  145.9040 C   0  0  1  0  0  3  0  0  0  0  0  0
  185.6060  179.6110  147.0870 O   0  0  0  0  0  1  0  0  0  0  0  0
  188.9690  177.9060  145.1970 C   0  0  0  0  0  2  0  0  0  0  0  0
  188.7030  177.5900  147.6630 C   0  0  0  0  0  3  0  0  0  0  0  0
  187.5970  177.2610  145.0320 C   0  0  0  0  0  2  0  0  0  0  0  0
  186.6670  177.6340  146.1970 C   0  0  1  0  0  3  0  0  0  0  0  0
  189.6080  177.3850  146.4780 C   0  0  0  0  0  2  0  0  0  0  0  0
  187.3700  177.6640  147.5400 C   0  0  0  0  0  3  0  0  0  0  0  0
  1  5  1  0  0  0  0
  2 28  1  0  0  0  0
  2  6  1  0  0  0  0
  3  2  2  0  0  0  0
  4  3  1  0  0  0  0
  5  6  2  0  0  0  0
  6 29  1  0  0  0  0
  7  3  1  0  0  0  0
  7  1  2  0  0  0  0
  8  9  1  0  0  0  0
 10 13  1  0  0  0  0
 11 10  2  0  0  0  0
 11 12  1  0  0  0  0
 12  1  1  0  0  0  0
 12  8  2  0  0  0  0
 13  8  1  0  0  0  0
 14 20  1  0  0  0  0
 14 11  1  0  0  0  0
 15 18  2  0  0  0  0
 16 22  1  6  0  0  0
 16 15  1  0  0  0  0
 17 20  2  0  0  0  0
 17 21  1  0  0  0  0
 19 15  1  0  0  0  0
 20 16  1  0  0  0  0
 21 19  2  0  0  0  0
 22 23  1  0  0  0  0
 24 21  1  0  0  0  0
 25 24  1  0  0  0  0
 25 26  1  0  0  0  0
 28 27  1  0  0  0  0
 29 30  1  0  0  0  0
 30 31  1  0  0  0  0
 31 32  1  0  0  0  0
 32 33  1  1  0  0  0
 34 38  1  0  0  0  0
 36 34  1  0  0  0  0
 36 37  1  0  0  0  0
 37 32  1  6  0  0  0
 37 39  1  0  0  0  0
 38 35  1  0  0  0  0
 39 35  2  0  0  0  0
M  END
>  <MODEL>
1

>  <REMARK>
 VINA RESULT:      -7.9      0.000      0.000
  Name = 
  12 active torsions:
  status: ('A' for Active; 'I' for Inactive)
    1  A    between atoms: S_1  and  C_19
    2  A    between atoms: S_1  and  C_30
    3  A    between atoms: C_2  and  C_32
    4  A    between atoms: C_5  and  C_13
    5  A    between atoms: C_5  and  C_38
    6  A    between atoms: C_9  and  O_23
    7  A    between atoms: C_12  and  O_35
    8  A    between atoms: O_18  and  C_22
    9  A    between atoms: O_18  and  C_39
   10  A    between atoms: C_26  and  N_34
   11  A    between atoms: C_26  and  C_38
   12  A    between atoms: C_29  and  N_34
                            x       y       z     vdW  Elec       q    Type
                         _______ _______ _______ _____ _____    ______ ____

>  <TORSDO>
F 12

$$$$
=
 OpenBabel11062417443D

 39 42  0  0  1  0  0  0  0  0999 V2000
  183.3650  178.6690  140.6100 C   0  0  0  0  0  0  0  0  0  0  0  0
  184.8650  178.7840  143.0060 C   0  0  0  0  0  0  0  0  0  0  0  0
  183.4520  178.7360  143.0380 C   0  0  0  0  0  0  0  0  0  0  0  0
  182.7480  178.7630  144.2340 O   0  0  0  0  0  1  0  0  0  0  0  0
  184.7600  178.7330  140.5750 C   0  0  0  0  0  3  0  0  0  0  0  0
  185.5180  178.7850  141.7480 C   0  0  0  0  0  0  0  0  0  0  0  0
  182.7240  178.6750  141.8500 C   0  0  0  0  0  3  0  0  0  0  0  0
  182.2210  179.6580  138.5260 C   0  0  0  0  0  0  0  0  0  0  0  0
  182.5120  181.0350  138.7420 N   0  0  0  0  0  1  0  0  0  0  0  0
  181.4070  177.8960  137.5840 N   0  0  0  0  0  0  0  0  0  0  0  0
  182.0460  177.5030  138.7040 C   0  0  0  0  0  0  0  0  0  0  0  0
  182.5860  178.6080  139.3510 C   0  0  1  0  0  3  0  0  0  0  0  0
  181.5100  179.2110  137.4760 N   0  0  0  0  0  0  0  0  0  0  0  0
  182.1890  175.7800  139.1800 S   0  0  0  0  0  0  0  0  0  0  0  0
  184.1550  173.9190  136.0520 C   0  0  0  0  0  0  0  0  0  0  0  0
  182.9480  174.3760  136.8190 C   0  0  1  0  0  3  0  0  0  0  0  0
  184.4500  176.1250  137.7390 C   0  0  0  0  0  3  0  0  0  0  0  0
  184.1170  172.5020  135.2430 S   0  0  0  0  0  0  0  0  0  0  0  0
  185.2940  174.7790  135.9270 N   0  0  0  0  0  0  0  0  0  0  0  0
  183.3220  175.4170  137.8430 C   0  0  0  0  0  0  0  0  0  0  0  0
  185.4450  175.8250  136.6830 C   0  0  0  0  0  0  0  0  0  0  0  0
  182.0150  174.9200  135.9310 O   0  0  0  0  0  0  0  0  0  0  0  0
  180.8380  174.2020  136.1500 C   0  0  0  0  0  1  0  0  0  0  0  0
  186.5690  176.6340  136.5020 O   0  0  0  0  0  0  0  0  0  0  0  0
  187.2780  177.2210  137.5850 C   0  0  0  0  0  2  0  0  0  0  0  0
  186.9540  178.6360  137.6720 N   0  0  0  0  0  1  0  0  0  0  0  0
  185.9400  177.7560  145.0230 C   0  0  0  0  0  1  0  0  0  0  0  0
  185.6410  178.8560  144.1750 O   0  0  0  0  0  0  0  0  0  0  0  0
  186.9450  178.8490  141.6040 N   0  0  0  0  0  2  0  0  0  0  0  0
  187.8660  177.7250  141.7090 C   0  0  0  0  0  2  0  0  0  0  0  0
  189.0790  178.1330  142.5270 C   0  0  0  0  0  2  0  0  0  0  0  0
  189.2810  177.1720  143.6890 C   0  0  1  0  0  3  0  0  0  0  0  0
  189.7950  175.9590  143.2250 O   0  0  0  0  0  1  0  0  0  0  0  0
  189.4240  176.8630  146.9650 C   0  0  0  0  0  2  0  0  0  0  0  0
  191.7320  176.3690  146.1370 C   0  0  0  0  0  3  0  0  0  0  0  0
  189.4240  178.0780  146.0430 C   0  0  0  0  0  2  0  0  0  0  0  0
  190.1990  177.7890  144.7460 C   0  0  1  0  0  3  0  0  0  0  0  0
  190.8620  176.5400  147.3530 C   0  0  0  0  0  2  0  0  0  0  0  0
  191.4520  176.9650  144.9680 C   0  0  0  0  0  3  0  0  0  0  0  0
  1  7  1  0  0  0  0
  2  3  1  0  0  0  0
  2 28  1  0  0  0  0
  3  4  1  0  0  0  0
  5  1  2  0  0  0  0
  5  6  1  0  0  0  0
  6  2  2  0  0  0  0
  7  3  2  0  0  0  0
  8  9  1  0  0  0  0
  8 12  1  0  0  0  0
 10 11  2  0  0  0  0
 11 14  1  0  0  0  0
 11 12  1  0  0  0  0
 12  1  1  6  0  0  0
 13 10  1  0  0  0  0
 13  8  2  0  0  0  0
 15 16  1  0  0  0  0
 16 22  1  6  0  0  0
 16 20  1  0  0  0  0
 17 20  2  0  0  0  0
 18 15  2  0  0  0  0
 19 15  1  0  0  0  0
 19 21  2  0  0  0  0
 20 14  1  0  0  0  0
 21 17  1  0  0  0  0
 22 23  1  0  0  0  0
 24 21  1  0  0  0  0
 24 25  1  0  0  0  0
 25 26  1  0  0  0  0
 28 27  1  0  0  0  0
 29 30  1  0  0  0  0
 29  6  1  0  0  0  0
 30 31  1  0  0  0  0
 31 32  1  0  0  0  0
 32 33  1  6  0  0  0
 34 38  1  0  0  0  0
 35 38  1  0  0  0  0
 36 34  1  0  0  0  0
 37 32  1  6  0  0  0
 37 39  1  0  0  0  0
 37 36  1  0  0  0  0
 39 35  2  0  0  0  0
M  END
>  <MODEL>
2

>  <REMARK>
 VINA RESULT:      -7.9      2.772      4.674
  Name = 
  12 active torsions:
  status: ('A' for Active; 'I' for Inactive)
    1  A    between atoms: S_1  and  C_19
    2  A    between atoms: S_1  and  C_30
    3  A    between atoms: C_2  and  C_32
    4  A    between atoms: C_5  and  C_13
    5  A    between atoms: C_5  and  C_38
    6  A    between atoms: C_9  and  O_23
    7  A    between atoms: C_12  and  O_35
    8  A    between atoms: O_18  and  C_22
    9  A    between atoms: O_18  and  C_39
   10  A    between atoms: C_26  and  N_34
   11  A    between atoms: C_26  and  C_38
   12  A    between atoms: C_29  and  N_34
                            x       y       z     vdW  Elec       q    Type
                         _______ _______ _______ _____ _____    ______ ____

>  <TORSDO>
F 12

$$$$
=
 OpenBabel11062417443D

 39 42  0  0  1  0  0  0  0  0999 V2000
  182.6370  178.4360  140.8140 C   0  0  0  0  0  0  0  0  0  0  0  0
  185.3950  178.8710  141.2680 C   0  0  0  0  0  0  0  0  0  0  0  0
  184.8660  178.8880  139.9560 C   0  0  0  0  0  0  0  0  0  0  0  0
  185.6730  179.0960  138.8460 O   0  0  0  0  0  1  0  0  0  0  0  0
  183.1600  178.4030  142.1090 C   0  0  0  0  0  3  0  0  0  0  0  0
  184.5190  178.6220  142.3530 C   0  0  0  0  0  0  0  0  0  0  0  0
  183.5030  178.6760  139.7460 C   0  0  0  0  0  3  0  0  0  0  0  0
  180.1420  179.0730  140.8410 C   0  0  0  0  0  0  0  0  0  0  0  0
  180.2480  180.3740  141.4090 N   0  0  0  0  0  1  0  0  0  0  0  0
  179.2190  177.3010  140.0260 N   0  0  0  0  0  0  0  0  0  0  0  0
  180.5500  177.0910  140.0600 C   0  0  0  0  0  0  0  0  0  0  0  0
  181.1910  178.2070  140.5830 C   0  0  1  0  0  3  0  0  0  0  0  0
  178.9690  178.5090  140.5060 N   0  0  0  0  0  0  0  0  0  0  0  0
  181.3070  175.5880  139.4380 S   0  0  0  0  0  0  0  0  0  0  0  0
  183.4630  176.9130  136.1640 C   0  0  0  0  0  0  0  0  0  0  0  0
  183.0170  175.8990  137.1790 C   0  0  1  0  0  3  0  0  0  0  0  0
  180.9680  177.2890  137.3640 C   0  0  0  0  0  3  0  0  0  0  0  0
  184.9970  176.8890  135.6090 S   0  0  0  0  0  0  0  0  0  0  0  0
  182.5130  177.8200  135.5920 N   0  0  0  0  0  0  0  0  0  0  0  0
  181.7710  176.3620  137.8920 C   0  0  0  0  0  0  0  0  0  0  0  0
  181.3380  177.9970  136.1160 C   0  0  0  0  0  0  0  0  0  0  0  0
  182.7550  174.6860  136.5360 O   0  0  0  0  0  0  0  0  0  0  0  0
  183.4850  173.7310  137.2440 C   0  0  0  0  0  1  0  0  0  0  0  0
  180.4490  178.8840  135.5030 O   0  0  0  0  0  0  0  0  0  0  0  0
  180.6570  180.2900  135.4790 C   0  0  0  0  0  2  0  0  0  0  0  0
  180.8630  180.7770  136.8330 N   0  0  0  0  0  1  0  0  0  0  0  0
  187.7500  178.0500  141.5160 C   0  0  0  0  0  1  0  0  0  0  0  0
  186.7620  179.0700  141.5290 O   0  0  0  0  0  0  0  0  0  0  0  0
  184.9560  178.5660  143.7190 N   0  0  0  0  0  2  0  0  0  0  0  0
  184.2500  179.1220  144.8660 C   0  0  0  0  0  2  0  0  0  0  0  0
  184.7200  178.4370  146.1370 C   0  0  0  0  0  2  0  0  0  0  0  0
  186.1800  178.7700  146.4090 C   0  0  1  0  0  3  0  0  0  0  0  0
  186.2900  179.5210  147.5820 O   0  0  0  0  0  1  0  0  0  0  0  0
  189.1020  177.9380  145.1390 C   0  0  0  0  0  2  0  0  0  0  0  0
  189.2750  177.4810  147.5920 C   0  0  0  0  0  3  0  0  0  0  0  0
  187.7510  177.2300  145.1690 C   0  0  0  0  0  2  0  0  0  0  0  0
  187.0180  177.4930  146.4940 C   0  0  1  0  0  3  0  0  0  0  0  0
  189.9720  177.3850  146.2610 C   0  0  0  0  0  2  0  0  0  0  0  0
  187.9380  177.4910  147.6990 C   0  0  0  0  0  3  0  0  0  0  0  0
  1  5  1  0  0  0  0
  2 28  1  0  0  0  0
  2  6  1  0  0  0  0
  3  2  2  0  0  0  0
  4  3  1  0  0  0  0
  5  6  2  0  0  0  0
  6 29  1  0  0  0  0
  7  3  1  0  0  0  0
  7  1  2  0  0  0  0
  8  9  1  0  0  0  0
 10 11  2  0  0  0  0
 10 13  1  0  0  0  0
 11 12  1  0  0  0  0
 12  1  1  6  0  0  0
 12  8  1  0  0  0  0
 13  8  2  0  0  0  0
 14 11  1  0  0  0  0
 15 16  1  0  0  0  0
 16 22  1  6  0  0  0
 16 20  1  0  0  0  0
 17 20  2  0  0  0  0
 18 15  2  0  0  0  0
 19 21  2  0  0  0  0
 19 15  1  0  0  0  0
 20 14  1  0  0  0  0
 21 17  1  0  0  0  0
 22 23  1  0  0  0  0
 24 21  1  0  0  0  0
 25 24  1  0  0  0  0
 25 26  1  0  0  0  0
 27 28  1  0  0  0  0
 29 30  1  0  0  0  0
 30 31  1  0  0  0  0
 31 32  1  0  0  0  0
 32 33  1  1  0  0  0
 34 36  1  0  0  0  0
 34 38  1  0  0  0  0
 35 39  2  0  0  0  0
 36 37  1  0  0  0  0
 37 32  1  6  0  0  0
 37 39  1  0  0  0  0
 38 35  1  0  0  0  0
M  END
>  <MODEL>
3

>  <REMARK>
 VINA RESULT:      -7.8      3.632      5.778
  Name = 
  12 active torsions:
  status: ('A' for Active; 'I' for Inactive)
    1  A    between atoms: S_1  and  C_19
    2  A    between atoms: S_1  and  C_30
    3  A    between atoms: C_2  and  C_32
    4  A    between atoms: C_5  and  C_13
    5  A    between atoms: C_5  and  C_38
    6  A    between atoms: C_9  and  O_23
    7  A    between atoms: C_12  and  O_35
    8  A    between atoms: O_18  and  C_22
    9  A    between atoms: O_18  and  C_39
   10  A    between atoms: C_26  and  N_34
   11  A    between atoms: C_26  and  C_38
   12  A    between atoms: C_29  and  N_34
                            x       y       z     vdW  Elec       q    Type
                         _______ _______ _______ _____ _____    ______ ____

>  <TORSDO>
F 12

$$$$
=
 OpenBabel11062417443D

 39 42  0  0  1  0  0  0  0  0999 V2000
  190.7730  177.0840  139.6210 C   0  0  0  0  0  0  0  0  0  0  0  0
  193.1740  176.1480  138.4540 C   0  0  0  0  0  0  0  0  0  0  0  0
  193.1980  176.9210  139.6390 C   0  0  0  0  0  0  0  0  0  0  0  0
  194.3900  177.2670  140.2600 O   0  0  0  0  0  1  0  0  0  0  0  0
  190.7480  176.3340  138.4430 C   0  0  0  0  0  3  0  0  0  0  0  0
  191.9230  175.8580  137.8550 C   0  0  0  0  0  0  0  0  0  0  0  0
  192.0070  177.3740  140.2060 C   0  0  0  0  0  3  0  0  0  0  0  0
  188.6160  178.4870  139.7030 C   0  0  0  0  0  0  0  0  0  0  0  0
  188.7450  179.1720  138.4610 N   0  0  0  0  0  1  0  0  0  0  0  0
  187.7800  177.9120  141.6070 N   0  0  0  0  0  0  0  0  0  0  0  0
  188.9310  177.2300  141.4420 C   0  0  0  0  0  0  0  0  0  0  0  0
  189.5110  177.5710  140.2270 C   0  0  0  0  0  0  0  0  0  0  0  0
  187.5880  178.6820  140.5480 N   0  0  0  0  0  2  0  0  0  0  0  0
  189.5200  176.0270  142.6350 S   0  0  0  0  0  0  0  0  0  0  0  0
  188.6700  177.6510  146.3440 C   0  0  0  0  0  0  0  0  0  0  0  0
  189.5280  177.3850  145.1410 C   0  0  1  0  0  3  0  0  0  0  0  0
  187.3820  177.0430  143.9420 C   0  0  0  0  0  3  0  0  0  0  0  0
  189.3530  177.7720  147.8210 S   0  0  0  0  0  0  0  0  0  0  0  0
  187.2730  177.9230  146.1830 N   0  0  0  0  0  0  0  0  0  0  0  0
  188.7020  176.8530  143.9970 C   0  0  0  0  0  0  0  0  0  0  0  0
  186.6530  177.6700  145.0690 C   0  0  0  0  0  0  0  0  0  0  0  0
  190.1500  178.5720  144.7450 O   0  0  0  0  0  0  0  0  0  0  0  0
  191.4850  178.2310  144.5230 C   0  0  0  0  0  1  0  0  0  0  0  0
  185.2930  177.9720  144.9670 O   0  0  0  0  0  0  0  0  0  0  0  0
  184.7610  178.7980  143.9400 C   0  0  0  0  0  2  0  0  0  0  0  0
  183.4740  179.3290  144.3580 N   0  0  0  0  0  1  0  0  0  0  0  0
  195.0480  174.5000  138.2160 C   0  0  0  0  0  1  0  0  0  0  0  0
  194.3480  175.6780  137.8400 O   0  0  0  0  0  0  0  0  0  0  0  0
  191.7890  175.0970  136.6450 N   0  0  0  0  0  2  0  0  0  0  0  0
  191.0510  175.5030  135.4570 C   0  0  0  0  0  2  0  0  0  0  0  0
  190.0810  174.4040  135.0570 C   0  0  0  0  0  2  0  0  0  0  0  0
  188.6870  174.9780  134.8540 C   0  0  1  0  0  3  0  0  0  0  0  0
  187.7220  174.0070  135.1380 O   0  0  0  0  0  1  0  0  0  0  0  0
  186.4490  177.3930  134.7890 C   0  0  0  0  0  2  0  0  0  0  0  0
  186.4270  176.5130  137.1300 C   0  0  0  0  0  3  0  0  0  0  0  0
  187.9720  177.4000  134.8750 C   0  0  0  0  0  2  0  0  0  0  0  0
  188.4830  176.2220  135.7210 C   0  0  1  0  0  3  0  0  0  0  0  0
  185.8760  177.5530  136.1920 C   0  0  0  0  0  2  0  0  0  0  0  0
  187.6240  175.9400  136.9380 C   0  0  0  0  0  3  0  0  0  0  0  0
  1  7  1  0  0  0  0
  1 12  1  0  0  0  0
  2  3  1  0  0  0  0
  3  7  2  0  0  0  0
  3  4  1  0  0  0  0
  5  1  2  0  0  0  0
  6  5  1  0  0  0  0
  6  2  2  0  0  0  0
  8 12  2  0  0  0  0
  8 13  1  0  0  0  0
  9  8  1  0  0  0  0
 11 10  2  0  0  0  0
 11 14  1  0  0  0  0
 12 11  1  0  0  0  0
 13 10  1  0  0  0  0
 14 20  1  0  0  0  0
 15 18  2  0  0  0  0
 16 22  1  6  0  0  0
 16 15  1  0  0  0  0
 17 20  2  0  0  0  0
 17 21  1  0  0  0  0
 19 15  1  0  0  0  0
 20 16  1  0  0  0  0
 21 19  2  0  0  0  0
 23 22  1  0  0  0  0
 24 21  1  0  0  0  0
 25 26  1  0  0  0  0
 25 24  1  0  0  0  0
 28 27  1  0  0  0  0
 28  2  1  0  0  0  0
 29  6  1  0  0  0  0
 30 29  1  0  0  0  0
 31 30  1  0  0  0  0
 32 31  1  0  0  0  0
 32 33  1  1  0  0  0
 34 36  1  0  0  0  0
 34 38  1  0  0  0  0
 36 37  1  0  0  0  0
 37 32  1  6  0  0  0
 37 39  1  0  0  0  0
 38 35  1  0  0  0  0
 39 35  2  0  0  0  0
M  END
>  <MODEL>
4

>  <REMARK>
 VINA RESULT:      -7.8      3.441      9.733
  Name = 
  12 active torsions:
  status: ('A' for Active; 'I' for Inactive)
    1  A    between atoms: S_1  and  C_19
    2  A    between atoms: S_1  and  C_30
    3  A    between atoms: C_2  and  C_32
    4  A    between atoms: C_5  and  C_13
    5  A    between atoms: C_5  and  C_38
    6  A    between atoms: C_9  and  O_23
    7  A    between atoms: C_12  and  O_35
    8  A    between atoms: O_18  and  C_22
    9  A    between atoms: O_18  and  C_39
   10  A    between atoms: C_26  and  N_34
   11  A    between atoms: C_26  and  C_38
   12  A    between atoms: C_29  and  N_34
                            x       y       z     vdW  Elec       q    Type
                         _______ _______ _______ _____ _____    ______ ____

>  <TORSDO>
F 12

$$$$
=
 OpenBabel11062417443D

 39 42  0  0  1  0  0  0  0  0999 V2000
  183.4960  178.6170  142.2270 C   0  0  0  0  0  0  0  0  0  0  0  0
  185.2290  178.3580  144.4480 C   0  0  0  0  0  0  0  0  0  0  0  0
  183.8910  178.7880  144.6180 C   0  0  0  0  0  0  0  0  0  0  0  0
  183.3850  179.1160  145.8690 O   0  0  0  0  0  1  0  0  0  0  0  0
  184.8210  178.2080  142.0530 C   0  0  0  0  0  3  0  0  0  0  0  0
  185.6890  178.0690  143.1400 C   0  0  0  0  0  0  0  0  0  0  0  0
  183.0460  178.9080  143.5160 C   0  0  0  0  0  3  0  0  0  0  0  0
  181.2180  178.6020  141.0250 C   0  0  0  0  0  0  0  0  0  0  0  0
  180.3840  178.2650  142.1280 N   0  0  0  0  0  1  0  0  0  0  0  0
  181.7800  179.0730  138.9960 N   0  0  0  0  0  0  0  0  0  0  0  0
  182.9050  179.0550  139.7390 C   0  0  0  0  0  0  0  0  0  0  0  0
  182.5940  178.7510  141.0580 C   0  0  1  0  0  3  0  0  0  0  0  0
  180.7510  178.7940  139.7800 N   0  0  0  0  0  0  0  0  0  0  0  0
  184.5190  179.4440  139.0570 S   0  0  0  0  0  0  0  0  0  0  0  0
  185.4910  176.5140  136.3030 C   0  0  0  0  0  0  0  0  0  0  0  0
  185.7890  177.6290  137.2650 C   0  0  1  0  0  3  0  0  0  0  0  0
  183.6540  176.9810  138.3540 C   0  0  0  0  0  3  0  0  0  0  0  0
  186.3890  176.3460  134.9510 S   0  0  0  0  0  0  0  0  0  0  0  0
  184.5050  175.5280  136.6300 N   0  0  0  0  0  0  0  0  0  0  0  0
  184.6060  177.8980  138.1610 C   0  0  0  0  0  0  0  0  0  0  0  0
  183.6530  175.7090  137.5940 C   0  0  0  0  0  0  0  0  0  0  0  0
  186.8900  177.2780  138.0520 O   0  0  0  0  0  0  0  0  0  0  0  0
  187.8640  178.2360  137.7670 C   0  0  0  0  0  1  0  0  0  0  0  0
  182.7250  174.7040  137.8750 O   0  0  0  0  0  0  0  0  0  0  0  0
  181.3200  174.9190  137.8370 C   0  0  0  0  0  2  0  0  0  0  0  0
  180.7960  174.9620  139.1920 N   0  0  0  0  0  1  0  0  0  0  0  0
  186.1830  179.1130  146.6400 C   0  0  0  0  0  1  0  0  0  0  0  0
  186.1200  178.2310  145.5270 O   0  0  0  0  0  0  0  0  0  0  0  0
  187.0310  177.6430  142.8560 N   0  0  0  0  0  2  0  0  0  0  0  0
  187.8320  178.0510  141.7100 C   0  0  0  0  0  2  0  0  0  0  0  0
  189.2960  177.7410  141.9730 C   0  0  0  0  0  2  0  0  0  0  0  0
  189.4410  176.9180  143.2440 C   0  0  1  0  0  3  0  0  0  0  0  0
  189.9050  175.6360  142.9350 O   0  0  0  0  0  1  0  0  0  0  0  0
  189.4270  177.1490  146.5290 C   0  0  0  0  0  2  0  0  0  0  0  0
  191.7040  176.3120  145.9190 C   0  0  0  0  0  3  0  0  0  0  0  0
  189.5840  178.1870  145.4230 C   0  0  0  0  0  2  0  0  0  0  0  0
  190.3750  177.6150  144.2350 C   0  0  1  0  0  3  0  0  0  0  0  0
  190.8090  176.7640  147.0420 C   0  0  0  0  0  2  0  0  0  0  0  0
  191.5300  176.7280  144.6560 C   0  0  0  0  0  3  0  0  0  0  0  0
  1  7  1  0  0  0  0
  2  3  1  0  0  0  0
  2 28  1  0  0  0  0
  3  4  1  0  0  0  0
  5  1  2  0  0  0  0
  5  6  1  0  0  0  0
  6  2  2  0  0  0  0
  7  3  2  0  0  0  0
  8 12  1  0  0  0  0
  8  9  1  0  0  0  0
 10 11  2  0  0  0  0
 10 13  1  0  0  0  0
 11 12  1  0  0  0  0
 12  1  1  1  0  0  0
 13  8  2  0  0  0  0
 14 11  1  0  0  0  0
 15 19  1  0  0  0  0
 15 16  1  0  0  0  0
 16 22  1  1  0  0  0
 16 20  1  0  0  0  0
 18 15  2  0  0  0  0
 19 21  2  0  0  0  0
 20 17  2  0  0  0  0
 20 14  1  0  0  0  0
 21 24  1  0  0  0  0
 21 17  1  0  0  0  0
 23 22  1  0  0  0  0
 25 24  1  0  0  0  0
 25 26  1  0  0  0  0
 28 27  1  0  0  0  0
 29  6  1  0  0  0  0
 30 31  1  0  0  0  0
 30 29  1  0  0  0  0
 31 32  1  0  0  0  0
 32 33  1  6  0  0  0
 34 38  1  0  0  0  0
 35 38  1  0  0  0  0
 36 34  1  0  0  0  0
 37 32  1  6  0  0  0
 37 39  1  0  0  0  0
 37 36  1  0  0  0  0
 39 35  2  0  0  0  0
M  END
>  <MODEL>
5

>  <REMARK>
 VINA RESULT:      -7.7      2.917      5.546
  Name = 
  12 active torsions:
  status: ('A' for Active; 'I' for Inactive)
    1  A    between atoms: S_1  and  C_19
    2  A    between atoms: S_1  and  C_30
    3  A    between atoms: C_2  and  C_32
    4  A    between atoms: C_5  and  C_13
    5  A    between atoms: C_5  and  C_38
    6  A    between atoms: C_9  and  O_23
    7  A    between atoms: C_12  and  O_35
    8  A    between atoms: O_18  and  C_22
    9  A    between atoms: O_18  and  C_39
   10  A    between atoms: C_26  and  N_34
   11  A    between atoms: C_26  and  C_38
   12  A    between atoms: C_29  and  N_34
                            x       y       z     vdW  Elec       q    Type
                         _______ _______ _______ _____ _____    ______ ____

>  <TORSDO>
F 12

$$$$
=
 OpenBabel11062417443D

 39 42  0  0  1  0  0  0  0  0999 V2000
  186.1770  177.9360  144.1300 C   0  0  0  0  0  0  0  0  0  0  0  0
  188.8490  177.0750  144.4830 C   0  0  0  0  0  0  0  0  0  0  0  0
  188.0750  177.5060  145.5860 C   0  0  0  0  0  0  0  0  0  0  0  0
  188.5970  177.5430  146.8720 O   0  0  0  0  0  1  0  0  0  0  0  0
  186.9440  177.5270  143.0370 C   0  0  0  0  0  3  0  0  0  0  0  0
  188.2640  177.0930  143.1930 C   0  0  0  0  0  0  0  0  0  0  0  0
  186.7580  177.9240  145.4000 C   0  0  0  0  0  3  0  0  0  0  0  0
  183.8450  178.6980  144.9110 C   0  0  0  0  0  0  0  0  0  0  0  0
  184.0440  178.6280  146.3190 N   0  0  0  0  0  1  0  0  0  0  0  0
  182.8240  179.0060  143.0360 N   0  0  0  0  0  0  0  0  0  0  0  0
  184.0790  178.6020  142.7570 C   0  0  0  0  0  0  0  0  0  0  0  0
  184.7780  178.3860  143.9380 C   0  0  0  0  0  0  0  0  0  0  0  0
  182.6790  179.0610  144.3500 N   0  0  0  0  0  2  0  0  0  0  0  0
  184.6970  178.4550  141.0790 S   0  0  0  0  0  0  0  0  0  0  0  0
  180.7650  178.7570  139.8250 C   0  0  0  0  0  0  0  0  0  0  0  0
  182.1960  179.2010  139.9320 C   0  0  1  0  0  3  0  0  0  0  0  0
  182.6960  176.8010  140.3240 C   0  0  0  0  0  3  0  0  0  0  0  0
  179.5710  179.8670  139.7780 S   0  0  0  0  0  0  0  0  0  0  0  0
  180.4560  177.3710  139.6390 N   0  0  0  0  0  0  0  0  0  0  0  0
  183.0740  178.0780  140.4260 C   0  0  0  0  0  0  0  0  0  0  0  0
  181.3420  176.4410  139.8420 C   0  0  0  0  0  0  0  0  0  0  0  0
  182.6460  179.6170  138.6760 O   0  0  0  0  0  0  0  0  0  0  0  0
  182.6140  181.0120  138.7190 C   0  0  0  0  0  1  0  0  0  0  0  0
  180.9850  175.1080  139.6290 O   0  0  0  0  0  0  0  0  0  0  0  0
  179.6810  174.6080  139.8920 C   0  0  0  0  0  2  0  0  0  0  0  0
  179.6940  173.8260  141.1170 N   0  0  0  0  0  1  0  0  0  0  0  0
  191.3090  177.5190  144.6720 C   0  0  0  0  0  1  0  0  0  0  0  0
  190.1830  176.6540  144.6190 O   0  0  0  0  0  0  0  0  0  0  0  0
  188.9660  176.6930  142.0060 N   0  0  0  0  0  2  0  0  0  0  0  0
  189.8400  177.5390  141.2040 C   0  0  0  0  0  2  0  0  0  0  0  0
  189.3020  177.6320  139.7870 C   0  0  0  0  0  2  0  0  0  0  0  0
  190.3360  177.1240  138.7940 C   0  0  1  0  0  3  0  0  0  0  0  0
  190.5730  175.7620  139.0020 O   0  0  0  0  0  1  0  0  0  0  0  0
  187.7300  176.0960  137.0620 C   0  0  0  0  0  2  0  0  0  0  0  0
  187.7320  178.5900  136.8660 C   0  0  0  0  0  3  0  0  0  0  0  0
  189.2230  176.1360  136.7530 C   0  0  0  0  0  2  0  0  0  0  0  0
  189.8800  177.3870  137.3570 C   0  0  1  0  0  3  0  0  0  0  0  0
  187.0650  177.3130  136.4300 C   0  0  0  0  0  2  0  0  0  0  0  0
  189.0170  178.6290  137.2480 C   0  0  0  0  0  3  0  0  0  0  0  0
  1  7  1  0  0  0  0
  2 28  1  0  0  0  0
  2  3  1  0  0  0  0
  3  4  1  0  0  0  0
  5  6  1  0  0  0  0
  5  1  2  0  0  0  0
  6  2  2  0  0  0  0
  7  3  2  0  0  0  0
  8  9  1  0  0  0  0
 10 13  1  0  0  0  0
 11 10  2  0  0  0  0
 11 12  1  0  0  0  0
 12  1  1  0  0  0  0
 12  8  2  0  0  0  0
 13  8  1  0  0  0  0
 14 11  1  0  0  0  0
 15 16  1  0  0  0  0
 16 22  1  6  0  0  0
 16 20  1  0  0  0  0
 17 20  2  0  0  0  0
 18 15  2  0  0  0  0
 19 15  1  0  0  0  0
 19 21  2  0  0  0  0
 20 14  1  0  0  0  0
 21 17  1  0  0  0  0
 22 23  1  0  0  0  0
 24 21  1  0  0  0  0
 24 25  1  0  0  0  0
 25 26  1  0  0  0  0
 28 27  1  0  0  0  0
 29  6  1  0  0  0  0
 30 29  1  0  0  0  0
 31 30  1  0  0  0  0
 32 33  1  6  0  0  0
 32 31  1  0  0  0  0
 35 39  2  0  0  0  0
 36 34  1  0  0  0  0
 36 37  1  0  0  0  0
 37 32  1  1  0  0  0
 38 35  1  0  0  0  0
 38 34  1  0  0  0  0
 39 37  1  0  0  0  0
M  END
>  <MODEL>
6

>  <REMARK>
 VINA RESULT:      -7.6      2.975      8.091
  Name = 
  12 active torsions:
  status: ('A' for Active; 'I' for Inactive)
    1  A    between atoms: S_1  and  C_19
    2  A    between atoms: S_1  and  C_30
    3  A    between atoms: C_2  and  C_32
    4  A    between atoms: C_5  and  C_13
    5  A    between atoms: C_5  and  C_38
    6  A    between atoms: C_9  and  O_23
    7  A    between atoms: C_12  and  O_35
    8  A    between atoms: O_18  and  C_22
    9  A    between atoms: O_18  and  C_39
   10  A    between atoms: C_26  and  N_34
   11  A    between atoms: C_26  and  C_38
   12  A    between atoms: C_29  and  N_34
                            x       y       z     vdW  Elec       q    Type
                         _______ _______ _______ _____ _____    ______ ____

>  <TORSDO>
F 12

$$$$
=
 OpenBabel11062417443D

 39 42  0  0  1  0  0  0  0  0999 V2000
  185.1760  178.4830  142.3660 C   0  0  0  0  0  0  0  0  0  0  0  0
  185.4450  178.2410  145.1720 C   0  0  0  0  0  0  0  0  0  0  0  0
  184.3030  178.8530  144.6030 C   0  0  0  0  0  0  0  0  0  0  0  0
  183.2860  179.3730  145.3920 O   0  0  0  0  0  1  0  0  0  0  0  0
  186.3130  177.8930  142.9250 C   0  0  0  0  0  3  0  0  0  0  0  0
  186.4600  177.7590  144.3080 C   0  0  0  0  0  0  0  0  0  0  0  0
  184.1810  178.9630  143.2180 C   0  0  0  0  0  3  0  0  0  0  0  0
  186.0540  178.6600  139.9510 C   0  0  0  0  0  0  0  0  0  0  0  0
  187.4520  178.6260  140.2160 N   0  0  0  0  0  1  0  0  0  0  0  0
  184.2220  178.7960  138.8190 N   0  0  0  0  0  0  0  0  0  0  0  0
  183.8910  178.6930  140.1220 C   0  0  0  0  0  0  0  0  0  0  0  0
  185.0420  178.6060  140.8950 C   0  0  1  0  0  3  0  0  0  0  0  0
  185.5410  178.7800  138.7140 N   0  0  0  0  0  0  0  0  0  0  0  0
  182.1890  178.6190  140.6830 S   0  0  0  0  0  0  0  0  0  0  0  0
  180.9840  179.2130  136.7700 C   0  0  0  0  0  0  0  0  0  0  0  0
  181.0570  178.4680  138.0720 C   0  0  1  0  0  3  0  0  0  0  0  0
  181.5150  180.6890  139.0810 C   0  0  0  0  0  3  0  0  0  0  0  0
  180.9200  178.3890  135.3640 S   0  0  0  0  0  0  0  0  0  0  0  0
  180.8460  180.6390  136.7660 N   0  0  0  0  0  0  0  0  0  0  0  0
  181.5710  179.3590  139.1750 C   0  0  0  0  0  0  0  0  0  0  0  0
  181.0640  181.3480  137.8330 C   0  0  0  0  0  0  0  0  0  0  0  0
  179.7820  178.0060  138.4120 O   0  0  0  0  0  0  0  0  0  0  0  0
  179.9090  176.6200  138.5160 C   0  0  0  0  0  1  0  0  0  0  0  0
  180.8970  182.7340  137.7700 O   0  0  0  0  0  0  0  0  0  0  0  0
  180.8160  183.4460  136.5430 C   0  0  0  0  0  2  0  0  0  0  0  0
  181.5540  184.6940  136.6520 N   0  0  0  0  0  1  0  0  0  0  0  0
  186.0350  179.1620  147.4270 C   0  0  0  0  0  1  0  0  0  0  0  0
  185.6180  178.1160  146.5610 O   0  0  0  0  0  0  0  0  0  0  0  0
  187.6650  177.1380  144.7820 N   0  0  0  0  0  2  0  0  0  0  0  0
  188.6310  177.7330  145.6960 C   0  0  0  0  0  2  0  0  0  0  0  0
  189.8020  176.7860  145.8890 C   0  0  0  0  0  2  0  0  0  0  0  0
  191.1170  177.5430  145.7790 C   0  0  1  0  0  3  0  0  0  0  0  0
  192.0330  177.0520  146.7130 O   0  0  0  0  0  1  0  0  0  0  0  0
  190.3660  175.6170  143.2160 C   0  0  0  0  0  2  0  0  0  0  0  0
  190.2570  177.9630  142.3540 C   0  0  0  0  0  3  0  0  0  0  0  0
  191.6910  175.9890  143.8720 C   0  0  0  0  0  2  0  0  0  0  0  0
  191.6780  177.4480  144.3580 C   0  0  1  0  0  3  0  0  0  0  0  0
  190.1560  176.5050  141.9950 C   0  0  0  0  0  2  0  0  0  0  0  0
  190.9780  178.3920  143.4010 C   0  0  0  0  0  3  0  0  0  0  0  0
  1  5  2  0  0  0  0
  1  7  1  0  0  0  0
  2 28  1  0  0  0  0
  3  2  1  0  0  0  0
  3  4  1  0  0  0  0
  5  6  1  0  0  0  0
  6 29  1  0  0  0  0
  6  2  2  0  0  0  0
  7  3  2  0  0  0  0
  8  9  1  0  0  0  0
  8 12  1  0  0  0  0
 10 11  2  0  0  0  0
 11 14  1  0  0  0  0
 11 12  1  0  0  0  0
 12  1  1  6  0  0  0
 13 10  1  0  0  0  0
 13  8  2  0  0  0  0
 15 16  1  0  0  0  0
 16 22  1  1  0  0  0
 16 20  1  0  0  0  0
 17 20  2  0  0  0  0
 18 15  2  0  0  0  0
 19 15  1  0  0  0  0
 19 21  2  0  0  0  0
 20 14  1  0  0  0  0
 21 17  1  0  0  0  0
 22 23  1  0  0  0  0
 24 21  1  0  0  0  0
 25 26  1  0  0  0  0
 25 24  1  0  0  0  0
 28 27  1  0  0  0  0
 29 30  1  0  0  0  0
 30 31  1  0  0  0  0
 32 31  1  0  0  0  0
 32 33  1  1  0  0  0
 34 36  1  0  0  0  0
 35 39  2  0  0  0  0
 36 37  1  0  0  0  0
 37 32  1  1  0  0  0
 38 35  1  0  0  0  0
 38 34  1  0  0  0  0
 39 37  1  0  0  0  0
M  END
>  <MODEL>
7

>  <REMARK>
 VINA RESULT:      -7.5      3.973      6.793
  Name = 
  12 active torsions:
  status: ('A' for Active; 'I' for Inactive)
    1  A    between atoms: S_1  and  C_19
    2  A    between atoms: S_1  and  C_30
    3  A    between atoms: C_2  and  C_32
    4  A    between atoms: C_5  and  C_13
    5  A    between atoms: C_5  and  C_38
    6  A    between atoms: C_9  and  O_23
    7  A    between atoms: C_12  and  O_35
    8  A    between atoms: O_18  and  C_22
    9  A    between atoms: O_18  and  C_39
   10  A    between atoms: C_26  and  N_34
   11  A    between atoms: C_26  and  C_38
   12  A    between atoms: C_29  and  N_34
                            x       y       z     vdW  Elec       q    Type
                         _______ _______ _______ _____ _____    ______ ____

>  <TORSDO>
F 12

$$$$
=
 OpenBabel11062417443D

 39 42  0  0  1  0  0  0  0  0999 V2000
  182.8840  178.6260  142.1800 C   0  0  0  0  0  0  0  0  0  0  0  0
  185.0110  178.5980  144.0450 C   0  0  0  0  0  0  0  0  0  0  0  0
  183.6760  178.7980  144.4710 C   0  0  0  0  0  0  0  0  0  0  0  0
  183.3600  179.0060  145.8060 O   0  0  0  0  0  1  0  0  0  0  0  0
  184.2020  178.4450  141.7550 C   0  0  0  0  0  3  0  0  0  0  0  0
  185.2650  178.4230  142.6630 C   0  0  0  0  0  0  0  0  0  0  0  0
  182.6360  178.8050  143.5420 C   0  0  0  0  0  3  0  0  0  0  0  0
  180.5070  178.1020  141.3380 C   0  0  0  0  0  0  0  0  0  0  0  0
  180.0160  177.3970  142.4740 N   0  0  0  0  0  1  0  0  0  0  0  0
  180.5300  178.9720  139.3650 N   0  0  0  0  0  0  0  0  0  0  0  0
  181.7380  179.1870  139.9200 C   0  0  0  0  0  0  0  0  0  0  0  0
  181.7750  178.6390  141.1970 C   0  0  1  0  0  3  0  0  0  0  0  0
  179.7790  178.3060  140.2270 N   0  0  0  0  0  0  0  0  0  0  0  0
  183.0320  180.1140  139.0920 S   0  0  0  0  0  0  0  0  0  0  0  0
  183.6040  176.2630  137.6920 C   0  0  0  0  0  0  0  0  0  0  0  0
  182.8660  177.5640  137.8300 C   0  0  1  0  0  3  0  0  0  0  0  0
  185.0930  178.5360  138.3340 C   0  0  0  0  0  3  0  0  0  0  0  0
  182.7720  174.8660  137.5590 S   0  0  0  0  0  0  0  0  0  0  0  0
  185.0290  176.2580  137.5510 N   0  0  0  0  0  0  0  0  0  0  0  0
  183.7630  178.6350  138.3980 C   0  0  0  0  0  0  0  0  0  0  0  0
  185.7440  177.3090  137.8210 C   0  0  0  0  0  0  0  0  0  0  0  0
  182.4040  177.9690  136.5750 O   0  0  0  0  0  0  0  0  0  0  0  0
  181.1420  177.3880  136.4430 C   0  0  0  0  0  1  0  0  0  0  0  0
  187.1300  177.2470  137.6490 O   0  0  0  0  0  0  0  0  0  0  0  0
  187.8880  178.3220  137.1120 C   0  0  0  0  0  2  0  0  0  0  0  0
  188.6140  178.9910  138.1790 N   0  0  0  0  0  1  0  0  0  0  0  0
  186.3220  177.6020  145.9350 C   0  0  0  0  0  1  0  0  0  0  0  0
  186.0920  178.5920  144.9420 O   0  0  0  0  0  0  0  0  0  0  0  0
  186.5820  178.2310  142.1240 N   0  0  0  0  0  2  0  0  0  0  0  0
  187.4850  177.1340  142.4450 C   0  0  0  0  0  2  0  0  0  0  0  0
  188.8530  177.6860  142.8060 C   0  0  0  0  0  2  0  0  0  0  0  0
  189.6700  176.6350  143.5420 C   0  0  1  0  0  3  0  0  0  0  0  0
  190.2980  175.7870  142.6260 O   0  0  0  0  0  1  0  0  0  0  0  0
  189.6740  177.2470  146.7780 C   0  0  0  0  0  2  0  0  0  0  0  0
  191.8030  176.0160  146.3190 C   0  0  0  0  0  3  0  0  0  0  0  0
  189.9910  178.1140  145.5640 C   0  0  0  0  0  2  0  0  0  0  0  0
  190.6930  177.2970  144.4680 C   0  0  1  0  0  3  0  0  0  0  0  0
  190.9800  176.7240  147.3630 C   0  0  0  0  0  2  0  0  0  0  0  0
  191.7000  176.3030  145.0130 C   0  0  0  0  0  3  0  0  0  0  0  0
  1  7  1  0  0  0  0
  2  3  1  0  0  0  0
  2 28  1  0  0  0  0
  3  4  1  0  0  0  0
  5  1  2  0  0  0  0
  5  6  1  0  0  0  0
  6  2  2  0  0  0  0
  7  3  2  0  0  0  0
  8  9  1  0  0  0  0
 10 11  2  0  0  0  0
 10 13  1  0  0  0  0
 11 12  1  0  0  0  0
 12  8  1  0  0  0  0
 12  1  1  1  0  0  0
 13  8  2  0  0  0  0
 14 11  1  0  0  0  0
 15 16  1  0  0  0  0
 16 22  1  6  0  0  0
 16 20  1  0  0  0  0
 17 20  2  0  0  0  0
 18 15  2  0  0  0  0
 19 15  1  0  0  0  0
 19 21  2  0  0  0  0
 20 14  1  0  0  0  0
 21 17  1  0  0  0  0
 23 22  1  0  0  0  0
 24 21  1  0  0  0  0
 25 24  1  0  0  0  0
 25 26  1  0  0  0  0
 28 27  1  0  0  0  0
 29 30  1  0  0  0  0
 29  6  1  0  0  0  0
 30 31  1  0  0  0  0
 31 32  1  0  0  0  0
 32 33  1  6  0  0  0
 34 38  1  0  0  0  0
 35 38  1  0  0  0  0
 36 34  1  0  0  0  0
 37 32  1  1  0  0  0
 37 39  1  0  0  0  0
 37 36  1  0  0  0  0
 39 35  2  0  0  0  0
M  END
>  <MODEL>
8

>  <REMARK>
 VINA RESULT:      -7.4      2.639      5.271
  Name = 
  12 active torsions:
  status: ('A' for Active; 'I' for Inactive)
    1  A    between atoms: S_1  and  C_19
    2  A    between atoms: S_1  and  C_30
    3  A    between atoms: C_2  and  C_32
    4  A    between atoms: C_5  and  C_13
    5  A    between atoms: C_5  and  C_38
    6  A    between atoms: C_9  and  O_23
    7  A    between atoms: C_12  and  O_35
    8  A    between atoms: O_18  and  C_22
    9  A    between atoms: O_18  and  C_39
   10  A    between atoms: C_26  and  N_34
   11  A    between atoms: C_26  and  C_38
   12  A    between atoms: C_29  and  N_34
                            x       y       z     vdW  Elec       q    Type
                         _______ _______ _______ _____ _____    ______ ____

>  <TORSDO>
F 12

$$$$
=
 OpenBabel11062417443D

 39 42  0  0  1  0  0  0  0  0999 V2000
  182.8590  177.4330  139.7610 C   0  0  0  0  0  0  0  0  0  0  0  0
  181.5720  178.7700  141.8970 C   0  0  0  0  0  0  0  0  0  0  0  0
  180.8290  178.2720  140.8000 C   0  0  0  0  0  0  0  0  0  0  0  0
  179.4530  178.4360  140.7180 O   0  0  0  0  0  1  0  0  0  0  0  0
  183.5980  177.9380  140.8340 C   0  0  0  0  0  3  0  0  0  0  0  0
  182.9780  178.5950  141.9010 C   0  0  0  0  0  0  0  0  0  0  0  0
  181.4750  177.6120  139.7550 C   0  0  0  0  0  3  0  0  0  0  0  0
  183.2400  175.4930  138.1110 C   0  0  0  0  0  0  0  0  0  0  0  0
  182.2080  174.6170  138.5510 N   0  0  0  0  0  1  0  0  0  0  0  0
  184.9260  176.2040  136.9670 N   0  0  0  0  0  0  0  0  0  0  0  0
  184.6220  177.1490  137.8790 C   0  0  0  0  0  0  0  0  0  0  0  0
  183.5400  176.7350  138.6450 C   0  0  1  0  0  3  0  0  0  0  0  0
  184.0860  175.1910  137.1110 N   0  0  0  0  0  0  0  0  0  0  0  0
  185.4940  178.7140  137.9750 S   0  0  0  0  0  0  0  0  0  0  0  0
  188.7180  176.1660  137.4970 C   0  0  0  0  0  0  0  0  0  0  0  0
  187.6170  177.0700  137.0200 C   0  0  1  0  0  3  0  0  0  0  0  0
  187.8020  178.1300  139.2580 C   0  0  0  0  0  3  0  0  0  0  0  0
  189.1300  174.8530  136.6180 S   0  0  0  0  0  0  0  0  0  0  0  0
  189.4880  176.5190  138.6510 N   0  0  0  0  0  0  0  0  0  0  0  0
  187.0850  177.9120  138.1520 C   0  0  0  0  0  0  0  0  0  0  0  0
  189.0970  177.4450  139.4740 C   0  0  0  0  0  0  0  0  0  0  0  0
  188.1100  177.9090  136.0160 O   0  0  0  0  0  0  0  0  0  0  0  0
  187.3240  177.6390  134.8950 C   0  0  0  0  0  1  0  0  0  0  0  0
  189.9000  177.7560  140.5750 O   0  0  0  0  0  0  0  0  0  0  0  0
  189.4360  177.6730  141.9150 C   0  0  0  0  0  2  0  0  0  0  0  0
  188.8810  176.3510  142.1600 N   0  0  0  0  0  1  0  0  0  0  0  0
  180.2350  178.8310  144.0160 C   0  0  0  0  0  1  0  0  0  0  0  0
  180.9680  179.4500  142.9670 O   0  0  0  0  0  0  0  0  0  0  0  0
  183.8260  179.0760  142.9550 N   0  0  0  0  0  2  0  0  0  0  0  0
  184.8200  178.2930  143.6780 C   0  0  0  0  0  2  0  0  0  0  0  0
  184.6120  178.4570  145.1730 C   0  0  0  0  0  2  0  0  0  0  0  0
  185.9140  178.8640  145.8460 C   0  0  1  0  0  3  0  0  0  0  0  0
  185.6560  179.7650  146.8840 O   0  0  0  0  0  1  0  0  0  0  0  0
  189.0570  177.9130  145.6080 C   0  0  0  0  0  2  0  0  0  0  0  0
  188.5100  177.8380  148.0480 C   0  0  0  0  0  3  0  0  0  0  0  0
  187.7390  177.1890  145.3570 C   0  0  0  0  0  2  0  0  0  0  0  0
  186.6630  177.6340  146.3610 C   0  0  1  0  0  3  0  0  0  0  0  0
  189.5570  177.5560  147.0030 C   0  0  0  0  0  2  0  0  0  0  0  0
  187.1990  177.8350  147.7650 C   0  0  0  0  0  3  0  0  0  0  0  0
  1  5  1  0  0  0  0
  2  6  1  0  0  0  0
  2 28  1  0  0  0  0
  3  2  2  0  0  0  0
  4  3  1  0  0  0  0
  5  6  2  0  0  0  0
  6 29  1  0  0  0  0
  7  1  2  0  0  0  0
  7  3  1  0  0  0  0
  8  9  1  0  0  0  0
  8 12  1  0  0  0  0
 10 13  1  0  0  0  0
 10 11  2  0  0  0  0
 11 14  1  0  0  0  0
 11 12  1  0  0  0  0
 12  1  1  6  0  0  0
 13  8  2  0  0  0  0
 14 20  1  0  0  0  0
 15 19  1  0  0  0  0
 16 22  1  6  0  0  0
 16 15  1  0  0  0  0
 16 20  1  0  0  0  0
 17 21  1  0  0  0  0
 18 15  2  0  0  0  0
 19 21  2  0  0  0  0
 20 17  2  0  0  0  0
 21 24  1  0  0  0  0
 23 22  1  0  0  0  0
 24 25  1  0  0  0  0
 25 26  1  0  0  0  0
 28 27  1  0  0  0  0
 29 30  1  0  0  0  0
 30 31  1  0  0  0  0
 31 32  1  0  0  0  0
 32 33  1  1  0  0  0
 34 38  1  0  0  0  0
 36 34  1  0  0  0  0
 36 37  1  0  0  0  0
 37 32  1  6  0  0  0
 37 39  1  0  0  0  0
 38 35  1  0  0  0  0
 39 35  2  0  0  0  0
M  END
>  <MODEL>
9

>  <REMARK>
 VINA RESULT:      -7.4      2.257      3.656
  Name = 
  12 active torsions:
  status: ('A' for Active; 'I' for Inactive)
    1  A    between atoms: S_1  and  C_19
    2  A    between atoms: S_1  and  C_30
    3  A    between atoms: C_2  and  C_32
    4  A    between atoms: C_5  and  C_13
    5  A    between atoms: C_5  and  C_38
    6  A    between atoms: C_9  and  O_23
    7  A    between atoms: C_12  and  O_35
    8  A    between atoms: O_18  and  C_22
    9  A    between atoms: O_18  and  C_39
   10  A    between atoms: C_26  and  N_34
   11  A    between atoms: C_26  and  C_38
   12  A    between atoms: C_29  and  N_34
                            x       y       z     vdW  Elec       q    Type
                         _______ _______ _______ _____ _____    ______ ____

>  <TORSDO>
F 12

$$$$
