=
 OpenBabel11062416203D

 29 32  0  0  1  0  0  0  0  0999 V2000
  192.5750  176.3120  138.3070 C   0  0  0  0  0  0  0  0  0  0  0  0
  193.4220  177.0400  138.8950 O   0  0  0  0  0  0  0  0  0  0  0  0
  189.6230  173.4290  137.2810 N   0  0  0  0  0  1  0  0  0  0  0  0
  190.5900  174.4550  137.4780 C   0  0  0  0  0  0  0  0  0  0  0  0
  193.0010  175.1320  137.6060 N   0  0  0  0  0  0  0  0  0  0  0  0
  192.3360  173.1630  136.5270 O   0  0  0  0  0  0  0  0  0  0  0  0
  190.2270  175.5750  138.0300 N   0  0  0  0  0  0  0  0  0  0  0  0
  192.0040  174.2040  137.1570 C   0  0  0  0  0  0  0  0  0  0  0  0
  191.1180  176.7220  138.2460 C   0  0  1  0  0  3  0  0  0  0  0  0
  195.8910  172.9360  138.2180 C   0  0  0  0  0  3  0  0  0  0  0  0
  196.9450  173.0020  137.4020 C   0  0  0  0  0  0  0  0  0  0  0  0
  194.3970  174.8150  137.4840 C   0  0  2  0  0  3  0  0  0  0  0  0
  196.5580  175.2180  136.2860 C   0  0  0  0  0  0  0  0  0  0  0  0
  196.9960  176.2310  135.4600 O   0  0  0  0  0  0  0  0  0  0  0  0
  195.0530  174.1040  138.6260 C   0  0  0  0  0  2  0  0  0  0  0  0
  195.9200  177.0300  134.9830 C   0  0  0  0  0  3  0  0  0  0  0  0
  194.6360  176.4170  135.5670 C   0  0  0  0  0  3  0  0  0  0  0  0
  195.1290  175.3640  136.5030 C   0  0  0  0  0  0  0  0  0  0  0  0
  197.7220  171.8610  137.2500 O   0  0  0  0  0  1  0  0  0  0  0  0
  197.3540  174.2140  136.6640 C   0  0  0  0  0  2  0  0  0  0  0  0
  190.6620  177.4770  139.4560 C   0  0  0  0  0  3  0  0  0  0  0  0
  190.2090  176.8370  140.5250 C   0  0  0  0  0  3  0  0  0  0  0  0
  189.8040  177.5460  141.6560 O   0  0  0  0  0  0  0  0  0  0  0  0
  190.3870  175.5560  142.9090 C   0  0  0  0  0  1  0  0  0  0  0  0
  190.4760  177.7990  143.9860 C   0  0  0  0  0  2  0  0  0  0  0  0
  188.3200  176.8260  143.4070 C   0  0  0  0  0  2  0  0  0  0  0  0
  189.7610  176.9420  142.9480 C   0  0  0  0  0  0  0  0  0  0  0  0
  188.3370  177.1180  144.8900 C   0  0  0  0  0  2  0  0  0  0  0  0
  189.4730  178.0940  145.0870 C   0  0  0  0  0  2  0  0  0  0  0  0
  1  2  2  0  0  0  0
  3  4  1  0  0  0  0
  4  7  2  0  0  0  0
  5  1  1  0  0  0  0
  6  8  2  0  0  0  0
  7  9  1  0  0  0  0
  8  4  1  0  0  0  0
  8  5  1  0  0  0  0
  9  1  1  0  0  0  0
  9 21  1  1  0  0  0
 10 15  1  0  0  0  0
 11 10  2  0  0  0  0
 12  5  1  1  0  0  0
 12 15  1  0  0  0  0
 13 18  2  0  0  0  0
 13 20  1  0  0  0  0
 14 13  1  0  0  0  0
 16 14  1  0  0  0  0
 16 17  2  0  0  0  0
 17 18  1  0  0  0  0
 18 12  1  0  0  0  0
 19 11  1  0  0  0  0
 20 11  1  0  0  0  0
 21 22  2  0  0  0  0
 22 23  1  0  0  0  0
 23 27  1  0  0  0  0
 24 27  1  0  0  0  0
 25 29  1  0  0  0  0
 26 28  1  0  0  0  0
 27 26  1  0  0  0  0
 27 25  1  0  0  0  0
 28 29  1  0  0  0  0
M  END
>  <MODEL>
1

>  <REMARK>
 VINA RESULT:      -7.6      0.000      0.000
  Name = 
  4 active torsions:
  status: ('A' for Active; 'I' for Inactive)
    1  A    between atoms: C_7  and  N_10
    2  A    between atoms: C_12  and  C_29
    3  A    between atoms: C_13  and  O_18
    4  A    between atoms: O_18  and  C_20
                            x       y       z     vdW  Elec       q    Type
                         _______ _______ _______ _____ _____    ______ ____

>  <TORSDO>
F 4

$$$$
=
 OpenBabel11062416203D

 29 32  0  0  1  0  0  0  0  0999 V2000
  189.9460  177.0790  139.1240 C   0  0  0  0  0  0  0  0  0  0  0  0
  190.4510  176.3460  140.0190 O   0  0  0  0  0  0  0  0  0  0  0  0
  187.4600  178.8490  136.1630 N   0  0  0  0  0  1  0  0  0  0  0  0
  188.3840  178.3870  137.1420 C   0  0  0  0  0  0  0  0  0  0  0  0
  190.2920  176.8740  137.7440 N   0  0  0  0  0  0  0  0  0  0  0  0
  189.8090  177.4100  135.5170 O   0  0  0  0  0  0  0  0  0  0  0  0
  188.1550  178.6280  138.3990 N   0  0  0  0  0  0  0  0  0  0  0  0
  189.5280  177.5540  136.7380 C   0  0  0  0  0  0  0  0  0  0  0  0
  189.0510  178.2430  139.4960 C   0  0  1  0  0  3  0  0  0  0  0  0
  193.7180  175.5330  137.8530 C   0  0  0  0  0  3  0  0  0  0  0  0
  193.9190  174.2360  137.6120 C   0  0  0  0  0  0  0  0  0  0  0  0
  191.2820  175.9020  137.3730 C   0  0  2  0  0  3  0  0  0  0  0  0
  191.7650  173.6120  136.4840 C   0  0  0  0  0  0  0  0  0  0  0  0
  190.9990  172.6950  135.7950 O   0  0  0  0  0  0  0  0  0  0  0  0
  192.6880  176.3780  137.1770 C   0  0  0  0  0  2  0  0  0  0  0  0
  189.6120  173.0000  135.8660 C   0  0  0  0  0  3  0  0  0  0  0  0
  189.4920  174.2620  136.7370 C   0  0  0  0  0  3  0  0  0  0  0  0
  190.9070  174.6790  136.9690 C   0  0  0  0  0  0  0  0  0  0  0  0
  195.0220  173.6290  138.1970 O   0  0  0  0  0  1  0  0  0  0  0  0
  193.0570  173.4050  136.7460 C   0  0  0  0  0  2  0  0  0  0  0  0
  188.2400  177.9980  140.7300 C   0  0  0  0  0  3  0  0  0  0  0  0
  188.5650  178.5710  141.8810 C   0  0  0  0  0  3  0  0  0  0  0  0
  187.7930  178.3530  143.0230 O   0  0  0  0  0  0  0  0  0  0  0  0
  187.9310  176.0030  143.5930 C   0  0  0  0  0  1  0  0  0  0  0  0
  189.6680  177.6000  144.3880 C   0  0  0  0  0  2  0  0  0  0  0  0
  187.4170  177.7120  145.3100 C   0  0  0  0  0  2  0  0  0  0  0  0
  188.1930  177.4330  144.0380 C   0  0  0  0  0  0  0  0  0  0  0  0
  188.3940  177.4960  146.4430 C   0  0  0  0  0  2  0  0  0  0  0  0
  189.7420  177.8780  145.8790 C   0  0  0  0  0  2  0  0  0  0  0  0
  1  9  1  0  0  0  0
  1  2  2  0  0  0  0
  3  4  1  0  0  0  0
  4  7  2  0  0  0  0
  5  1  1  0  0  0  0
  6  8  2  0  0  0  0
  7  9  1  0  0  0  0
  8  4  1  0  0  0  0
  8  5  1  0  0  0  0
  9 21  1  1  0  0  0
 11 10  2  0  0  0  0
 11 19  1  0  0  0  0
 12 15  1  6  0  0  0
 12  5  1  0  0  0  0
 13 20  1  0  0  0  0
 13 18  2  0  0  0  0
 14 16  1  0  0  0  0
 14 13  1  0  0  0  0
 15 10  1  0  0  0  0
 16 17  2  0  0  0  0
 17 18  1  0  0  0  0
 18 12  1  0  0  0  0
 20 11  1  0  0  0  0
 21 22  2  0  0  0  0
 22 23  1  0  0  0  0
 23 27  1  0  0  0  0
 24 27  1  0  0  0  0
 25 29  1  0  0  0  0
 26 28  1  0  0  0  0
 27 25  1  0  0  0  0
 27 26  1  0  0  0  0
 29 28  1  0  0  0  0
M  END
>  <MODEL>
2

>  <REMARK>
 VINA RESULT:      -7.4      2.339      3.940
  Name = 
  4 active torsions:
  status: ('A' for Active; 'I' for Inactive)
    1  A    between atoms: C_7  and  N_10
    2  A    between atoms: C_12  and  C_29
    3  A    between atoms: C_13  and  O_18
    4  A    between atoms: O_18  and  C_20
                            x       y       z     vdW  Elec       q    Type
                         _______ _______ _______ _____ _____    ______ ____

>  <TORSDO>
F 4

$$$$
=
 OpenBabel11062416203D

 29 32  0  0  1  0  0  0  0  0999 V2000
  190.2490  176.6850  138.7420 C   0  0  0  0  0  0  0  0  0  0  0  0
  190.7880  175.7380  139.3780 O   0  0  0  0  0  0  0  0  0  0  0  0
  187.5490  179.3460  136.8150 N   0  0  0  0  0  1  0  0  0  0  0  0
  188.5660  178.5650  137.4340 C   0  0  0  0  0  0  0  0  0  0  0  0
  190.1630  176.6360  137.3090 N   0  0  0  0  0  0  0  0  0  0  0  0
  189.2480  177.5970  135.3800 O   0  0  0  0  0  0  0  0  0  0  0  0
  188.7380  178.6470  138.7210 N   0  0  0  0  0  0  0  0  0  0  0  0
  189.3390  177.5990  136.6380 C   0  0  0  0  0  0  0  0  0  0  0  0
  189.7770  177.9290  139.4680 C   0  0  1  0  0  3  0  0  0  0  0  0
  193.1120  174.8270  136.0500 C   0  0  0  0  0  3  0  0  0  0  0  0
  193.0030  173.5310  135.7480 C   0  0  0  0  0  0  0  0  0  0  0  0
  190.7680  175.5590  136.5750 C   0  0  2  0  0  3  0  0  0  0  0  0
  190.5110  173.2830  135.5650 C   0  0  0  0  0  0  0  0  0  0  0  0
  189.4080  172.5250  135.2360 O   0  0  0  0  0  0  0  0  0  0  0  0
  192.0400  175.8460  135.8390 C   0  0  0  0  0  2  0  0  0  0  0  0
  188.2230  173.0150  135.8510 C   0  0  0  0  0  3  0  0  0  0  0  0
  188.6460  174.2250  136.7000 C   0  0  0  0  0  3  0  0  0  0  0  0
  190.0840  174.4270  136.3520 C   0  0  0  0  0  0  0  0  0  0  0  0
  194.1410  172.7420  135.8480 O   0  0  0  0  0  1  0  0  0  0  0  0
  191.7560  172.8830  135.2940 C   0  0  0  0  0  2  0  0  0  0  0  0
  189.2850  177.6560  140.8560 C   0  0  0  0  0  3  0  0  0  0  0  0
  190.1310  177.5810  141.8740 C   0  0  0  0  0  3  0  0  0  0  0  0
  189.6640  177.3450  143.1670 O   0  0  0  0  0  0  0  0  0  0  0  0
  191.0640  179.1190  144.0400 C   0  0  0  0  0  1  0  0  0  0  0  0
  189.4590  177.9290  145.5260 C   0  0  0  0  0  2  0  0  0  0  0  0
  191.4260  176.7590  144.6950 C   0  0  0  0  0  2  0  0  0  0  0  0
  190.3800  177.7900  144.3190 C   0  0  0  0  0  0  0  0  0  0  0  0
  191.4460  176.7260  146.2060 C   0  0  0  0  0  2  0  0  0  0  0  0
  190.0320  177.0530  146.6260 C   0  0  0  0  0  2  0  0  0  0  0  0
  1  2  2  0  0  0  0
  1  9  1  0  0  0  0
  3  4  1  0  0  0  0
  4  7  2  0  0  0  0
  5  1  1  0  0  0  0
  6  8  2  0  0  0  0
  7  9  1  0  0  0  0
  8  5  1  0  0  0  0
  8  4  1  0  0  0  0
  9 21  1  1  0  0  0
 11 19  1  0  0  0  0
 11 10  2  0  0  0  0
 12 15  1  6  0  0  0
 12  5  1  0  0  0  0
 13 18  2  0  0  0  0
 14 13  1  0  0  0  0
 14 16  1  0  0  0  0
 15 10  1  0  0  0  0
 16 17  2  0  0  0  0
 18 12  1  0  0  0  0
 18 17  1  0  0  0  0
 20 13  1  0  0  0  0
 20 11  1  0  0  0  0
 21 22  2  0  0  0  0
 22 23  1  0  0  0  0
 23 27  1  0  0  0  0
 24 27  1  0  0  0  0
 25 29  1  0  0  0  0
 26 28  1  0  0  0  0
 27 26  1  0  0  0  0
 27 25  1  0  0  0  0
 28 29  1  0  0  0  0
M  END
>  <MODEL>
3

>  <REMARK>
 VINA RESULT:      -7.3      2.662      4.488
  Name = 
  4 active torsions:
  status: ('A' for Active; 'I' for Inactive)
    1  A    between atoms: C_7  and  N_10
    2  A    between atoms: C_12  and  C_29
    3  A    between atoms: C_13  and  O_18
    4  A    between atoms: O_18  and  C_20
                            x       y       z     vdW  Elec       q    Type
                         _______ _______ _______ _____ _____    ______ ____

>  <TORSDO>
F 4

$$$$
=
 OpenBabel11062416203D

 29 32  0  0  1  0  0  0  0  0999 V2000
  184.7100  179.0010  140.5330 C   0  0  0  0  0  0  0  0  0  0  0  0
  185.1290  178.8180  139.3570 O   0  0  0  0  0  0  0  0  0  0  0  0
  183.4450  178.5760  144.5710 N   0  0  0  0  0  1  0  0  0  0  0  0
  183.8590  178.8760  143.2420 C   0  0  0  0  0  0  0  0  0  0  0  0
  183.2990  179.0190  140.8020 N   0  0  0  0  0  0  0  0  0  0  0  0
  181.6300  179.0140  142.4440 O   0  0  0  0  0  0  0  0  0  0  0  0
  185.1290  178.9570  142.9740 N   0  0  0  0  0  0  0  0  0  0  0  0
  182.8600  178.9860  142.1670 C   0  0  0  0  0  0  0  0  0  0  0  0
  185.6800  179.3020  141.6580 C   0  0  1  0  0  3  0  0  0  0  0  0
  181.5240  180.4420  137.9070 C   0  0  0  0  0  3  0  0  0  0  0  0
  181.0150  179.6210  136.9860 C   0  0  0  0  0  0  0  0  0  0  0  0
  182.3470  178.9230  139.7300 C   0  0  2  0  0  3  0  0  0  0  0  0
  180.9870  177.4440  138.2370 C   0  0  0  0  0  0  0  0  0  0  0  0
  180.6200  176.1180  138.3170 O   0  0  0  0  0  0  0  0  0  0  0  0
  181.5740  180.1550  139.3730 C   0  0  0  0  0  2  0  0  0  0  0  0
  181.3990  175.4060  139.2700 C   0  0  0  0  0  3  0  0  0  0  0  0
  182.4070  176.4170  139.8440 C   0  0  0  0  0  3  0  0  0  0  0  0
  181.9880  177.7230  139.2520 C   0  0  0  0  0  0  0  0  0  0  0  0
  180.8900  180.0980  135.6880 O   0  0  0  0  0  1  0  0  0  0  0  0
  180.5560  178.2440  137.2590 C   0  0  0  0  0  2  0  0  0  0  0  0
  187.0100  178.6340  141.4910 C   0  0  0  0  0  3  0  0  0  0  0  0
  187.4240  177.7210  142.3580 C   0  0  0  0  0  3  0  0  0  0  0  0
  188.6560  177.0880  142.1860 O   0  0  0  0  0  0  0  0  0  0  0  0
  190.3080  175.6280  143.1880 C   0  0  0  0  0  1  0  0  0  0  0  0
  190.6230  178.0980  143.2130 C   0  0  0  0  0  2  0  0  0  0  0  0
  188.8770  177.0930  144.5810 C   0  0  0  0  0  2  0  0  0  0  0  0
  189.5970  176.9710  143.2520 C   0  0  0  0  0  0  0  0  0  0  0  0
  189.8050  177.8780  145.4800 C   0  0  0  0  0  2  0  0  0  0  0  0
  190.5600  178.8040  144.5550 C   0  0  0  0  0  2  0  0  0  0  0  0
  1  5  1  0  0  0  0
  1  9  1  0  0  0  0
  2  1  2  0  0  0  0
  4  3  1  0  0  0  0
  5  8  1  0  0  0  0
  7  4  2  0  0  0  0
  8  6  2  0  0  0  0
  8  4  1  0  0  0  0
  9 21  1  6  0  0  0
  9  7  1  0  0  0  0
 10 15  1  0  0  0  0
 11 20  1  0  0  0  0
 11 10  2  0  0  0  0
 12 15  1  1  0  0  0
 12  5  1  0  0  0  0
 13 14  1  0  0  0  0
 13 18  2  0  0  0  0
 14 16  1  0  0  0  0
 16 17  2  0  0  0  0
 18 12  1  0  0  0  0
 18 17  1  0  0  0  0
 19 11  1  0  0  0  0
 20 13  1  0  0  0  0
 21 22  2  0  0  0  0
 23 22  1  0  0  0  0
 23 27  1  0  0  0  0
 24 27  1  0  0  0  0
 25 27  1  0  0  0  0
 25 29  1  0  0  0  0
 26 28  1  0  0  0  0
 27 26  1  0  0  0  0
 29 28  1  0  0  0  0
M  END
>  <MODEL>
4

>  <REMARK>
 VINA RESULT:      -7.3      6.996     11.233
  Name = 
  4 active torsions:
  status: ('A' for Active; 'I' for Inactive)
    1  A    between atoms: C_7  and  N_10
    2  A    between atoms: C_12  and  C_29
    3  A    between atoms: C_13  and  O_18
    4  A    between atoms: O_18  and  C_20
                            x       y       z     vdW  Elec       q    Type
                         _______ _______ _______ _____ _____    ______ ____

>  <TORSDO>
F 4

$$$$
=
 OpenBabel11062416203D

 29 32  0  0  1  0  0  0  0  0999 V2000
  184.5850  178.6510  140.6190 C   0  0  0  0  0  0  0  0  0  0  0  0
  185.0620  178.2680  139.5150 O   0  0  0  0  0  0  0  0  0  0  0  0
  183.2970  178.9910  144.6570 N   0  0  0  0  0  1  0  0  0  0  0  0
  183.6910  179.0320  143.2890 C   0  0  0  0  0  0  0  0  0  0  0  0
  183.1850  178.4860  140.8950 N   0  0  0  0  0  0  0  0  0  0  0  0
  181.4960  178.5830  142.5140 O   0  0  0  0  0  0  0  0  0  0  0  0
  184.9350  179.2670  142.9910 N   0  0  0  0  0  0  0  0  0  0  0  0
  182.7190  178.7050  142.2340 C   0  0  0  0  0  0  0  0  0  0  0  0
  185.4550  179.3770  141.6230 C   0  0  1  0  0  3  0  0  0  0  0  0
  181.0320  175.8340  139.5230 C   0  0  0  0  0  3  0  0  0  0  0  0
  180.0450  176.1620  138.6850 C   0  0  0  0  0  0  0  0  0  0  0  0
  182.2940  177.9720  139.8910 C   0  0  2  0  0  3  0  0  0  0  0  0
  180.7520  178.4670  137.9820 C   0  0  0  0  0  0  0  0  0  0  0  0
  180.5860  179.5720  137.1750 O   0  0  0  0  0  0  0  0  0  0  0  0
  182.3630  176.5090  139.5800 C   0  0  0  0  0  2  0  0  0  0  0  0
  181.2070  180.7280  137.7220 C   0  0  0  0  0  3  0  0  0  0  0  0
  181.8190  180.2940  139.0650 C   0  0  0  0  0  3  0  0  0  0  0  0
  181.6210  178.8140  139.0920 C   0  0  0  0  0  0  0  0  0  0  0  0
  178.9310  175.3350  138.6370 O   0  0  0  0  0  1  0  0  0  0  0  0
  180.0680  177.3360  137.7890 C   0  0  0  0  0  2  0  0  0  0  0  0
  186.8850  178.9320  141.6040 C   0  0  0  0  0  3  0  0  0  0  0  0
  187.2760  177.8750  142.3030 C   0  0  0  0  0  3  0  0  0  0  0  0
  188.6050  177.4540  142.2640 O   0  0  0  0  0  0  0  0  0  0  0  0
  188.4500  177.1320  144.6600 C   0  0  0  0  0  1  0  0  0  0  0  0
  190.2550  176.0250  143.3500 C   0  0  0  0  0  2  0  0  0  0  0  0
  190.2990  178.4400  143.6590 C   0  0  0  0  0  2  0  0  0  0  0  0
  189.3680  177.2600  143.4550 C   0  0  0  0  0  0  0  0  0  0  0  0
  191.5850  177.8600  144.2020 C   0  0  0  0  0  2  0  0  0  0  0  0
  191.6840  176.4810  143.5920 C   0  0  0  0  0  2  0  0  0  0  0  0
  1  5  1  0  0  0  0
  1  9  1  0  0  0  0
  2  1  2  0  0  0  0
  4  3  1  0  0  0  0
  5  8  1  0  0  0  0
  7  4  2  0  0  0  0
  8  6  2  0  0  0  0
  8  4  1  0  0  0  0
  9 21  1  1  0  0  0
  9  7  1  0  0  0  0
 10 15  1  0  0  0  0
 11 10  2  0  0  0  0
 12 15  1  6  0  0  0
 12  5  1  0  0  0  0
 13 18  2  0  0  0  0
 14 16  1  0  0  0  0
 14 13  1  0  0  0  0
 16 17  2  0  0  0  0
 17 18  1  0  0  0  0
 18 12  1  0  0  0  0
 19 11  1  0  0  0  0
 20 13  1  0  0  0  0
 20 11  1  0  0  0  0
 21 22  2  0  0  0  0
 23 22  1  0  0  0  0
 23 27  1  0  0  0  0
 25 27  1  0  0  0  0
 25 29  1  0  0  0  0
 26 28  1  0  0  0  0
 27 26  1  0  0  0  0
 27 24  1  0  0  0  0
 29 28  1  0  0  0  0
M  END
>  <MODEL>
5

>  <REMARK>
 VINA RESULT:      -7.0      6.961     11.316
  Name = 
  4 active torsions:
  status: ('A' for Active; 'I' for Inactive)
    1  A    between atoms: C_7  and  N_10
    2  A    between atoms: C_12  and  C_29
    3  A    between atoms: C_13  and  O_18
    4  A    between atoms: O_18  and  C_20
                            x       y       z     vdW  Elec       q    Type
                         _______ _______ _______ _____ _____    ______ ____

>  <TORSDO>
F 4

$$$$
=
 OpenBabel11062416203D

 29 32  0  0  1  0  0  0  0  0999 V2000
  190.0510  176.5640  138.5440 C   0  0  0  0  0  0  0  0  0  0  0  0
  190.8940  175.7510  139.0150 O   0  0  0  0  0  0  0  0  0  0  0  0
  186.5340  178.7230  137.5200 N   0  0  0  0  0  1  0  0  0  0  0  0
  187.7930  178.1160  137.7890 C   0  0  0  0  0  0  0  0  0  0  0  0
  189.4730  176.3340  137.2490 N   0  0  0  0  0  0  0  0  0  0  0  0
  187.8250  176.9700  135.7130 O   0  0  0  0  0  0  0  0  0  0  0  0
  188.3950  178.3670  138.9140 N   0  0  0  0  0  0  0  0  0  0  0  0
  188.3520  177.1330  136.8470 C   0  0  0  0  0  0  0  0  0  0  0  0
  189.7120  177.8390  139.2890 C   0  0  1  0  0  3  0  0  0  0  0  0
  192.0610  174.5490  135.3340 C   0  0  0  0  0  3  0  0  0  0  0  0
  191.9390  173.2340  135.1400 C   0  0  0  0  0  0  0  0  0  0  0  0
  189.9110  175.2340  136.4350 C   0  0  2  0  0  3  0  0  0  0  0  0
  189.5050  172.8920  135.6520 C   0  0  0  0  0  0  0  0  0  0  0  0
  188.3920  172.0780  135.6730 O   0  0  0  0  0  0  0  0  0  0  0  0
  190.9230  175.5160  135.3680 C   0  0  0  0  0  2  0  0  0  0  0  0
  187.3930  172.5660  136.5590 C   0  0  0  0  0  3  0  0  0  0  0  0
  187.9690  173.8410  137.1980 C   0  0  0  0  0  3  0  0  0  0  0  0
  189.2490  174.0680  136.4640 C   0  0  0  0  0  0  0  0  0  0  0  0
  193.0990  172.4910  134.9690 O   0  0  0  0  0  1  0  0  0  0  0  0
  190.6490  172.5170  135.0750 C   0  0  0  0  0  2  0  0  0  0  0  0
  189.7790  177.6940  140.7770 C   0  0  0  0  0  3  0  0  0  0  0  0
  188.9030  178.3090  141.5590 C   0  0  0  0  0  3  0  0  0  0  0  0
  188.9590  178.1540  142.9450 O   0  0  0  0  0  0  0  0  0  0  0  0
  188.0540  175.9560  143.4150 C   0  0  0  0  0  1  0  0  0  0  0  0
  188.0350  177.7320  145.1610 C   0  0  0  0  0  2  0  0  0  0  0  0
  186.5790  177.9360  143.2200 C   0  0  0  0  0  2  0  0  0  0  0  0
  187.9460  177.4530  143.6650 C   0  0  0  0  0  0  0  0  0  0  0  0
  185.7280  177.9680  144.4690 C   0  0  0  0  0  2  0  0  0  0  0  0
  186.6880  178.2840  145.5920 C   0  0  0  0  0  2  0  0  0  0  0  0
  1  2  2  0  0  0  0
  1  9  1  0  0  0  0
  3  4  1  0  0  0  0
  4  7  2  0  0  0  0
  5  1  1  0  0  0  0
  6  8  2  0  0  0  0
  7  9  1  0  0  0  0
  8  5  1  0  0  0  0
  8  4  1  0  0  0  0
  9 21  1  1  0  0  0
 10 15  1  0  0  0  0
 11 10  2  0  0  0  0
 12 15  1  6  0  0  0
 12 18  1  0  0  0  0
 12  5  1  0  0  0  0
 13 14  1  0  0  0  0
 13 18  2  0  0  0  0
 14 16  1  0  0  0  0
 16 17  2  0  0  0  0
 18 17  1  0  0  0  0
 19 11  1  0  0  0  0
 20 11  1  0  0  0  0
 20 13  1  0  0  0  0
 21 22  2  0  0  0  0
 22 23  1  0  0  0  0
 23 27  1  0  0  0  0
 24 27  1  0  0  0  0
 25 29  1  0  0  0  0
 26 27  1  0  0  0  0
 26 28  1  0  0  0  0
 27 25  1  0  0  0  0
 28 29  1  0  0  0  0
M  END
>  <MODEL>
6

>  <REMARK>
 VINA RESULT:      -6.7      3.269      5.000
  Name = 
  4 active torsions:
  status: ('A' for Active; 'I' for Inactive)
    1  A    between atoms: C_7  and  N_10
    2  A    between atoms: C_12  and  C_29
    3  A    between atoms: C_13  and  O_18
    4  A    between atoms: O_18  and  C_20
                            x       y       z     vdW  Elec       q    Type
                         _______ _______ _______ _____ _____    ______ ____

>  <TORSDO>
F 4

$$$$
=
 OpenBabel11062416203D

 29 32  0  0  1  0  0  0  0  0999 V2000
  185.6820  178.0590  142.6790 C   0  0  0  0  0  0  0  0  0  0  0  0
  184.9400  177.5850  143.5840 O   0  0  0  0  0  0  0  0  0  0  0  0
  188.1050  178.6820  139.2420 N   0  0  0  0  0  1  0  0  0  0  0  0
  187.3030  178.6320  140.4160 C   0  0  0  0  0  0  0  0  0  0  0  0
  187.1070  178.0900  142.8570 N   0  0  0  0  0  0  0  0  0  0  0  0
  189.1870  178.4570  141.8460 O   0  0  0  0  0  0  0  0  0  0  0  0
  186.0080  178.6900  140.3070 N   0  0  0  0  0  0  0  0  0  0  0  0
  187.9320  178.4070  141.7280 C   0  0  0  0  0  0  0  0  0  0  0  0
  185.0770  178.6910  141.4420 C   0  0  1  0  0  3  0  0  0  0  0  0
  189.8970  176.6790  144.8000 C   0  0  0  0  0  3  0  0  0  0  0  0
  189.9980  176.9670  146.1000 C   0  0  0  0  0  0  0  0  0  0  0  0
  187.7010  177.6710  144.0970 C   0  0  2  0  0  3  0  0  0  0  0  0
  187.6800  177.7940  146.5970 C   0  0  0  0  0  0  0  0  0  0  0  0
  186.7280  178.2020  147.5060 O   0  0  0  0  0  0  0  0  0  0  0  0
  188.6100  176.4820  144.0670 C   0  0  0  0  0  2  0  0  0  0  0  0
  185.6910  178.9540  146.8880 C   0  0  0  0  0  3  0  0  0  0  0  0
  186.0580  179.0520  145.3980 C   0  0  0  0  0  3  0  0  0  0  0  0
  187.2530  178.1670  145.2600 C   0  0  0  0  0  0  0  0  0  0  0  0
  191.2640  176.9550  146.6710 O   0  0  0  0  0  1  0  0  0  0  0  0
  188.8510  177.2780  146.9770 C   0  0  0  0  0  2  0  0  0  0  0  0
  183.7880  178.0590  141.0200 C   0  0  0  0  0  3  0  0  0  0  0  0
  182.6300  178.6690  141.2340 C   0  0  0  0  0  3  0  0  0  0  0  0
  181.4340  178.0830  140.8210 O   0  0  0  0  0  0  0  0  0  0  0  0
  179.0400  177.8770  140.5110 C   0  0  0  0  0  1  0  0  0  0  0  0
  179.9870  178.3430  142.7660 C   0  0  0  0  0  2  0  0  0  0  0  0
  180.0820  180.0600  141.0420 C   0  0  0  0  0  2  0  0  0  0  0  0
  180.1660  178.5630  141.2680 C   0  0  0  0  0  0  0  0  0  0  0  0
  179.3410  180.6150  142.2370 C   0  0  0  0  0  2  0  0  0  0  0  0
  179.7030  179.7010  143.3840 C   0  0  0  0  0  2  0  0  0  0  0  0
  1  5  1  0  0  0  0
  1  2  2  0  0  0  0
  3  4  1  0  0  0  0
  4  8  1  0  0  0  0
  7  4  2  0  0  0  0
  7  9  1  0  0  0  0
  8  6  2  0  0  0  0
  8  5  1  0  0  0  0
  9 21  1  6  0  0  0
  9  1  1  0  0  0  0
 10 11  2  0  0  0  0
 11 19  1  0  0  0  0
 11 20  1  0  0  0  0
 12  5  1  6  0  0  0
 12 18  1  0  0  0  0
 13 20  1  0  0  0  0
 13 14  1  0  0  0  0
 15 12  1  0  0  0  0
 15 10  1  0  0  0  0
 16 14  1  0  0  0  0
 17 16  2  0  0  0  0
 18 17  1  0  0  0  0
 18 13  2  0  0  0  0
 21 22  2  0  0  0  0
 23 22  1  0  0  0  0
 23 27  1  0  0  0  0
 24 27  1  0  0  0  0
 25 29  1  0  0  0  0
 26 27  1  0  0  0  0
 26 28  1  0  0  0  0
 27 25  1  0  0  0  0
 28 29  1  0  0  0  0
M  END
>  <MODEL>
7

>  <REMARK>
 VINA RESULT:      -6.7      7.165     10.335
  Name = 
  4 active torsions:
  status: ('A' for Active; 'I' for Inactive)
    1  A    between atoms: C_7  and  N_10
    2  A    between atoms: C_12  and  C_29
    3  A    between atoms: C_13  and  O_18
    4  A    between atoms: O_18  and  C_20
                            x       y       z     vdW  Elec       q    Type
                         _______ _______ _______ _____ _____    ______ ____

>  <TORSDO>
F 4

$$$$
=
 OpenBabel11062416203D

 29 32  0  0  1  0  0  0  0  0999 V2000
  185.2750  178.1590  141.0570 C   0  0  0  0  0  0  0  0  0  0  0  0
  184.2070  177.7210  141.5670 O   0  0  0  0  0  0  0  0  0  0  0  0
  189.0060  178.6240  139.0710 N   0  0  0  0  0  1  0  0  0  0  0  0
  187.7510  178.6280  139.7440 C   0  0  0  0  0  0  0  0  0  0  0  0
  186.4540  178.3010  141.8650 N   0  0  0  0  0  0  0  0  0  0  0  0
  188.7590  178.7120  141.8880 O   0  0  0  0  0  0  0  0  0  0  0  0
  186.6540  178.5900  139.0460 N   0  0  0  0  0  0  0  0  0  0  0  0
  187.7040  178.5670  141.2130 C   0  0  0  0  0  0  0  0  0  0  0  0
  185.3030  178.6330  139.6180 C   0  0  1  0  0  3  0  0  0  0  0  0
  188.0050  177.1280  144.9910 C   0  0  0  0  0  3  0  0  0  0  0  0
  187.5400  177.5770  146.1580 C   0  0  0  0  0  0  0  0  0  0  0  0
  186.4120  178.0380  143.2770 C   0  0  2  0  0  3  0  0  0  0  0  0
  185.2980  178.4760  145.4750 C   0  0  0  0  0  0  0  0  0  0  0  0
  184.0690  179.0030  145.8130 O   0  0  0  0  0  0  0  0  0  0  0  0
  187.1650  176.8490  143.7870 C   0  0  0  0  0  2  0  0  0  0  0  0
  183.4600  179.6770  144.7190 C   0  0  0  0  0  3  0  0  0  0  0  0
  184.4540  179.5840  143.5480 C   0  0  0  0  0  3  0  0  0  0  0  0
  185.5280  178.6800  144.0560 C   0  0  0  0  0  0  0  0  0  0  0  0
  188.4200  177.6300  147.2320 O   0  0  0  0  0  1  0  0  0  0  0  0
  186.1460  178.0040  146.3920 C   0  0  0  0  0  2  0  0  0  0  0  0
  184.3660  177.8800  138.7260 C   0  0  0  0  0  3  0  0  0  0  0  0
  184.8010  177.3160  137.6070 C   0  0  0  0  0  3  0  0  0  0  0  0
  183.9270  176.5990  136.7900 O   0  0  0  0  0  0  0  0  0  0  0  0
  183.3710  174.8640  135.1930 C   0  0  0  0  0  1  0  0  0  0  0  0
  185.6610  175.0040  136.1630 C   0  0  0  0  0  2  0  0  0  0  0  0
  183.7940  174.3300  137.5740 C   0  0  0  0  0  2  0  0  0  0  0  0
  184.1780  175.2430  136.4260 C   0  0  0  0  0  0  0  0  0  0  0  0
  184.8370  173.2350  137.5940 C   0  0  0  0  0  2  0  0  0  0  0  0
  186.1030  173.8880  137.0920 C   0  0  0  0  0  2  0  0  0  0  0  0
  1  2  2  0  0  0  0
  1  5  1  0  0  0  0
  3  4  1  0  0  0  0
  4  8  1  0  0  0  0
  7  9  1  0  0  0  0
  7  4  2  0  0  0  0
  8  5  1  0  0  0  0
  8  6  2  0  0  0  0
  9 21  1  6  0  0  0
  9  1  1  0  0  0  0
 10 11  2  0  0  0  0
 11 20  1  0  0  0  0
 11 19  1  0  0  0  0
 12  5  1  6  0  0  0
 12 15  1  0  0  0  0
 12 18  1  0  0  0  0
 13 14  1  0  0  0  0
 13 20  1  0  0  0  0
 15 10  1  0  0  0  0
 16 14  1  0  0  0  0
 17 18  1  0  0  0  0
 17 16  2  0  0  0  0
 18 13  2  0  0  0  0
 22 21  2  0  0  0  0
 23 22  1  0  0  0  0
 24 27  1  0  0  0  0
 25 27  1  0  0  0  0
 25 29  1  0  0  0  0
 26 28  1  0  0  0  0
 27 23  1  0  0  0  0
 27 26  1  0  0  0  0
 29 28  1  0  0  0  0
M  END
>  <MODEL>
8

>  <REMARK>
 VINA RESULT:      -6.6      6.986     10.498
  Name = 
  4 active torsions:
  status: ('A' for Active; 'I' for Inactive)
    1  A    between atoms: C_7  and  N_10
    2  A    between atoms: C_12  and  C_29
    3  A    between atoms: C_13  and  O_18
    4  A    between atoms: O_18  and  C_20
                            x       y       z     vdW  Elec       q    Type
                         _______ _______ _______ _____ _____    ______ ____

>  <TORSDO>
F 4

$$$$
=
 OpenBabel11062416203D

 29 32  0  0  1  0  0  0  0  0999 V2000
  182.5110  178.3530  141.3420 C   0  0  0  0  0  0  0  0  0  0  0  0
  183.5090  178.1080  140.6090 O   0  0  0  0  0  0  0  0  0  0  0  0
  179.4710  178.3110  144.3150 N   0  0  0  0  0  1  0  0  0  0  0  0
  180.4330  178.4690  143.2770 C   0  0  0  0  0  0  0  0  0  0  0  0
  181.2070  177.8850  140.9640 N   0  0  0  0  0  0  0  0  0  0  0  0
  178.9820  177.5780  141.6270 O   0  0  0  0  0  0  0  0  0  0  0  0
  181.5980  178.9720  143.5590 N   0  0  0  0  0  0  0  0  0  0  0  0
  180.1440  177.9660  141.9250 C   0  0  0  0  0  0  0  0  0  0  0  0
  182.6560  179.2250  142.5730 C   0  0  1  0  0  3  0  0  0  0  0  0
  180.2570  174.9320  138.9820 C   0  0  0  0  0  3  0  0  0  0  0  0
  179.8290  175.0980  137.7280 C   0  0  0  0  0  0  0  0  0  0  0  0
  181.0020  177.2160  139.7090 C   0  0  2  0  0  3  0  0  0  0  0  0
  180.6440  177.4220  137.2400 C   0  0  0  0  0  0  0  0  0  0  0  0
  180.8490  178.4530  136.3470 O   0  0  0  0  0  0  0  0  0  0  0  0
  181.3180  175.7550  139.6380 C   0  0  0  0  0  2  0  0  0  0  0  0
  181.0190  179.7010  137.0060 C   0  0  0  0  0  3  0  0  0  0  0  0
  180.8730  179.4180  138.5110 C   0  0  0  0  0  3  0  0  0  0  0  0
  180.7870  177.9300  138.5940 C   0  0  0  0  0  0  0  0  0  0  0  0
  178.9580  174.1500  137.2080 O   0  0  0  0  0  1  0  0  0  0  0  0
  180.2370  176.2120  136.8480 C   0  0  0  0  0  2  0  0  0  0  0  0
  183.9900  179.0960  143.2390 C   0  0  0  0  0  3  0  0  0  0  0  0
  184.2300  179.6900  144.4000 C   0  0  0  0  0  3  0  0  0  0  0  0
  185.4690  179.5500  145.0250 O   0  0  0  0  0  0  0  0  0  0  0  0
  184.3600  178.0430  146.5630 C   0  0  0  0  0  1  0  0  0  0  0  0
  186.5730  177.4500  145.5870 C   0  0  0  0  0  2  0  0  0  0  0  0
  186.4190  179.2550  147.2150 C   0  0  0  0  0  2  0  0  0  0  0  0
  185.6860  178.5950  146.0630 C   0  0  0  0  0  0  0  0  0  0  0  0
  187.3880  178.2160  147.7330 C   0  0  0  0  0  2  0  0  0  0  0  0
  187.7650  177.3910  146.5250 C   0  0  0  0  0  2  0  0  0  0  0  0
  1  9  1  0  0  0  0
  2  1  2  0  0  0  0
  4  7  2  0  0  0  0
  4  3  1  0  0  0  0
  5  1  1  0  0  0  0
  5  8  1  0  0  0  0
  6  8  2  0  0  0  0
  8  4  1  0  0  0  0
  9 21  1  1  0  0  0
  9  7  1  0  0  0  0
 10 15  1  0  0  0  0
 11 10  2  0  0  0  0
 12 15  1  6  0  0  0
 12  5  1  0  0  0  0
 13 18  2  0  0  0  0
 14 16  1  0  0  0  0
 14 13  1  0  0  0  0
 16 17  2  0  0  0  0
 17 18  1  0  0  0  0
 18 12  1  0  0  0  0
 19 11  1  0  0  0  0
 20 13  1  0  0  0  0
 20 11  1  0  0  0  0
 21 22  2  0  0  0  0
 22 23  1  0  0  0  0
 23 27  1  0  0  0  0
 25 27  1  0  0  0  0
 25 29  1  0  0  0  0
 26 28  1  0  0  0  0
 27 24  1  0  0  0  0
 27 26  1  0  0  0  0
 29 28  1  0  0  0  0
M  END
>  <MODEL>
9

>  <REMARK>
 VINA RESULT:      -6.5     10.374     12.292
  Name = 
  4 active torsions:
  status: ('A' for Active; 'I' for Inactive)
    1  A    between atoms: C_7  and  N_10
    2  A    between atoms: C_12  and  C_29
    3  A    between atoms: C_13  and  O_18
    4  A    between atoms: O_18  and  C_20
                            x       y       z     vdW  Elec       q    Type
                         _______ _______ _______ _____ _____    ______ ____

>  <TORSDO>
F 4

$$$$
