=
 OpenBabel11062416133D

 44 49  0  0  1  0  0  0  0  0999 V2000
  187.3150  177.9760  143.5590 C   0  0  0  0  0  0  0  0  0  0  0  0
  189.9500  176.6120  146.3190 C   0  0  0  0  0  0  0  0  0  0  0  0
  183.1980  178.7810  144.6440 C   0  0  0  0  0  2  0  0  0  0  0  0
  186.3180  178.1350  142.4350 C   0  0  0  0  0  2  0  0  0  0  0  0
  183.8830  178.4400  141.7850 C   0  0  2  0  0  3  0  0  0  0  0  0
  191.6750  178.8580  143.4900 O   0  0  0  0  0  0  0  0  0  0  0  0
  186.4410  176.1110  144.7570 O   0  0  0  0  0  1  0  0  0  0  0  0
  189.1430  177.4880  145.6870 C   0  0  0  0  0  0  0  0  0  0  0  0
  191.0200  178.0360  144.1110 C   0  0  0  0  0  0  0  0  0  0  0  0
  182.2520  179.2540  143.5470 C   0  0  0  0  0  2  0  0  0  0  0  0
  184.8600  178.0530  142.9100 C   0  0  2  0  0  3  0  0  0  0  0  0
  186.7720  177.4600  144.8960 C   0  0  1  0  0  0  0  0  0  0  0  0
  187.3960  178.9450  146.7230 C   0  0  0  0  0  2  0  0  0  0  0  0
  185.0330  180.3420  143.9720 C   0  0  0  0  0  1  0  0  0  0  0  0
  191.6230  176.7160  144.4610 C   0  0  0  0  0  2  0  0  0  0  0  0
  188.6270  178.2860  143.3640 C   0  0  0  0  0  0  0  0  0  0  0  0
  189.4600  175.8410  147.3670 O   0  0  0  0  0  1  0  0  0  0  0  0
  187.7130  177.6080  146.0840 C   0  0  2  0  0  3  0  0  0  0  0  0
  185.5200  178.2390  145.3320 C   0  0  2  0  0  3  0  0  0  0  0  0
  184.6610  178.8700  144.2060 C   0  0  1  0  0  0  0  0  0  0  0  0
  182.4190  178.4120  142.2850 C   0  0  1  0  0  3  0  0  0  0  0  0
  185.1850  178.8830  147.6050 O   0  0  0  0  0  1  0  0  0  0  0  0
  189.6010  178.3420  144.5280 C   0  0  1  0  0  3  0  0  0  0  0  0
  191.3990  176.4640  145.9460 C   0  0  0  0  0  2  0  0  0  0  0  0
  185.9210  179.1870  146.4610 C   0  0  1  0  0  3  0  0  0  0  0  0
  181.3820  178.8830  141.2490 C   0  0  1  0  0  3  0  0  0  0  0  0
  182.0360  179.3590  139.9530 C   0  0  0  0  0  1  0  0  0  0  0  0
  180.2790  177.8450  140.9970 C   0  0  1  0  0  3  0  0  0  0  0  0
  178.9310  179.2350  142.0820 C   0  0  0  0  0  1  0  0  0  0  0  0
  179.0310  178.4730  140.9160 O   0  0  0  0  0  0  0  0  0  0  0  0
  180.5340  177.0720  139.7340 C   0  0  0  0  0  0  0  0  0  0  0  0
  180.2490  177.5750  138.6580 O   0  0  0  0  0  0  0  0  0  0  0  0
  181.0660  174.4180  137.6850 C   0  0  0  0  0  0  0  0  0  0  0  0
  179.1360  174.3470  139.2360 N   0  0  0  0  0  2  0  0  0  0  0  0
  181.7030  175.2850  138.4690 C   0  0  0  0  0  3  0  0  0  0  0  0
  180.0980  174.6600  140.2940 C   0  0  0  0  0  2  0  0  0  0  0  0
  179.8400  173.8260  138.1330 N   0  0  0  0  0  2  0  0  0  0  0  0
  181.6450  174.0110  136.4520 N   0  0  0  0  0  1  0  0  0  0  0  0
  181.1230  175.6890  139.7970 C   0  0  2  0  0  3  0  0  0  0  0  0
  189.4140  177.9200  141.0070 N   0  0  0  0  0  1  0  0  0  0  0  0
  189.1190  178.7550  142.0940 N   0  0  0  0  0  2  0  0  0  0  0  0
  184.0640  177.4830  140.6130 C   0  0  0  0  0  2  0  0  0  0  0  0
  184.8300  178.1720  139.5030 C   0  0  0  0  0  2  0  0  0  0  0  0
  184.5450  177.4740  138.1890 C   0  0  0  0  0  1  0  0  0  0  0  0
  1 12  1  0  0  0  0
  2 17  1  0  0  0  0
  4  1  1  0  0  0  0
  5 42  1  6  0  0  0
  5 21  1  0  0  0  0
  5 11  1  0  0  0  0
  6  9  2  0  0  0  0
  8 18  1  0  0  0  0
  8  2  2  0  0  0  0
  9 15  1  0  0  0  0
  9 23  1  0  0  0  0
 10  3  1  0  0  0  0
 11  4  1  6  0  0  0
 11 20  1  0  0  0  0
 12  7  1  6  0  0  0
 12 19  1  0  0  0  0
 12 18  1  0  0  0  0
 14 20  1  0  0  0  0
 15 24  1  0  0  0  0
 16  1  2  0  0  0  0
 16 23  1  0  0  0  0
 18 13  1  6  0  0  0
 19 25  1  0  0  0  0
 20  3  1  0  0  0  0
 20 19  1  0  0  0  0
 21 10  1  0  0  0  0
 23  8  1  0  0  0  0
 24  2  1  0  0  0  0
 25 13  1  0  0  0  0
 25 22  1  0  0  0  0
 26 21  1  0  0  0  0
 27 26  1  0  0  0  0
 28 26  1  0  0  0  0
 30 28  1  0  0  0  0
 30 29  1  0  0  0  0
 31 39  1  0  0  0  0
 31 28  1  0  0  0  0
 32 31  2  0  0  0  0
 33 37  1  0  0  0  0
 33 35  2  0  0  0  0
 34 36  1  0  0  0  0
 35 39  1  0  0  0  0
 37 34  1  0  0  0  0
 38 33  1  0  0  0  0
 39 36  1  0  0  0  0
 40 41  1  0  0  0  0
 41 16  1  0  0  0  0
 43 42  1  0  0  0  0
 44 43  1  0  0  0  0
M  END
>  <MODEL>
1

>  <REMARK>
 VINA RESULT:      -7.7      0.000      0.000
  Name = 
  8 active torsions:
  status: ('A' for Active; 'I' for Inactive)
    1  A    between atoms: C_6  and  C_15
    2  A    between atoms: C_7  and  C_15
    3  A    between atoms: C_8  and  C_33
    4  A    between atoms: C_8  and  C_37
    5  A    between atoms: O_17  and  C_33
    6  A    between atoms: C_26  and  C_33
    7  A    between atoms: C_26  and  C_41
    8  A    between atoms: N_27  and  C_31
                            x       y       z     vdW  Elec       q    Type
                         _______ _______ _______ _____ _____    ______ ____

>  <TORSDO>
F 8

$$$$
=
 OpenBabel11062416133D

 44 49  0  0  1  0  0  0  0  0999 V2000
  187.9900  177.9080  143.3930 C   0  0  0  0  0  0  0  0  0  0  0  0
  189.3540  176.5250  146.9490 C   0  0  0  0  0  0  0  0  0  0  0  0
  183.7690  178.6820  142.7960 C   0  0  0  0  0  2  0  0  0  0  0  0
  187.5090  178.0750  141.9710 C   0  0  0  0  0  2  0  0  0  0  0  0
  185.5160  178.3760  140.4260 C   0  0  2  0  0  3  0  0  0  0  0  0
  192.0250  178.8110  145.0350 O   0  0  0  0  0  0  0  0  0  0  0  0
  186.7350  176.0260  144.1400 O   0  0  0  0  0  1  0  0  0  0  0  0
  188.8500  177.4050  146.0610 C   0  0  0  0  0  0  0  0  0  0  0  0
  191.1870  177.9780  145.3450 C   0  0  0  0  0  0  0  0  0  0  0  0
  183.3210  179.1630  141.4210 C   0  0  0  0  0  2  0  0  0  0  0  0
  185.9810  177.9810  141.8400 C   0  0  2  0  0  3  0  0  0  0  0  0
  186.9740  177.3750  144.4080 C   0  0  1  0  0  0  0  0  0  0  0  0
  186.8240  178.8420  146.3470 C   0  0  0  0  0  2  0  0  0  0  0  0
  185.7080  180.2580  142.9050 C   0  0  0  0  0  1  0  0  0  0  0  0
  191.6170  176.6570  145.8910 C   0  0  0  0  0  2  0  0  0  0  0  0
  189.2720  178.2260  143.7270 C   0  0  0  0  0  0  0  0  0  0  0  0
  188.5010  175.7400  147.7180 O   0  0  0  0  0  1  0  0  0  0  0  0
  187.3760  177.5140  145.8710 C   0  0  2  0  0  3  0  0  0  0  0  0
  185.6440  178.1430  144.3290 C   0  0  2  0  0  3  0  0  0  0  0  0
  185.2860  178.7830  142.9630 C   0  0  1  0  0  0  0  0  0  0  0  0
  183.9730  178.3360  140.3170 C   0  0  1  0  0  3  0  0  0  0  0  0
  184.4450  178.7600  146.2980 O   0  0  0  0  0  1  0  0  0  0  0  0
  189.7150  178.2740  145.1790 C   0  0  1  0  0  3  0  0  0  0  0  0
  190.8350  176.3880  147.1700 C   0  0  0  0  0  2  0  0  0  0  0  0
  185.5660  179.0800  145.5330 C   0  0  1  0  0  3  0  0  0  0  0  0
  183.4170  178.8140  138.9630 C   0  0  1  0  0  3  0  0  0  0  0  0
  183.4510  177.7130  137.9040 C   0  0  0  0  0  1  0  0  0  0  0  0
  182.0310  179.4620  139.0840 C   0  0  1  0  0  3  0  0  0  0  0  0
  181.7750  181.5700  138.4370 C   0  0  0  0  0  1  0  0  0  0  0  0
  181.7670  180.2570  137.9630 O   0  0  0  0  0  0  0  0  0  0  0  0
  180.9530  178.4250  139.2280 C   0  0  0  0  0  0  0  0  0  0  0  0
  181.1560  177.2920  138.8220 O   0  0  0  0  0  0  0  0  0  0  0  0
  179.7560  179.5600  142.1960 C   0  0  0  0  0  0  0  0  0  0  0  0
  179.5700  177.1430  141.6920 N   0  0  0  0  0  2  0  0  0  0  0  0
  179.8050  179.8580  140.8990 C   0  0  0  0  0  3  0  0  0  0  0  0
  178.9310  177.5510  140.4400 C   0  0  0  0  0  2  0  0  0  0  0  0
  179.4890  178.2130  142.6040 N   0  0  0  0  0  2  0  0  0  0  0  0
  179.8760  180.5900  143.1690 N   0  0  0  0  0  1  0  0  0  0  0  0
  179.6350  178.7850  139.8580 C   0  0  2  0  0  3  0  0  0  0  0  0
  190.9940  177.8840  141.9320 N   0  0  0  0  0  1  0  0  0  0  0  0
  190.2160  178.7120  142.7530 N   0  0  0  0  0  2  0  0  0  0  0  0
  186.1470  177.4340  139.4090 C   0  0  0  0  0  2  0  0  0  0  0  0
  187.0340  178.2170  138.4650 C   0  0  0  0  0  2  0  0  0  0  0  0
  187.1460  177.4770  137.1500 C   0  0  0  0  0  1  0  0  0  0  0  0
  1 16  2  0  0  0  0
  1 12  1  0  0  0  0
  2 24  1  0  0  0  0
  2 17  1  0  0  0  0
  3 20  1  0  0  0  0
  4  1  1  0  0  0  0
  5 42  1  6  0  0  0
  5 11  1  0  0  0  0
  6  9  2  0  0  0  0
  8  2  2  0  0  0  0
  9 15  1  0  0  0  0
 10  3  1  0  0  0  0
 11  4  1  6  0  0  0
 11 20  1  0  0  0  0
 12  7  1  6  0  0  0
 12 18  1  0  0  0  0
 14 20  1  0  0  0  0
 15 24  1  0  0  0  0
 16 23  1  0  0  0  0
 18  8  1  0  0  0  0
 18 13  1  6  0  0  0
 19 12  1  0  0  0  0
 19 25  1  0  0  0  0
 20 19  1  0  0  0  0
 21  5  1  0  0  0  0
 21 10  1  0  0  0  0
 23  9  1  0  0  0  0
 23  8  1  0  0  0  0
 25 22  1  0  0  0  0
 25 13  1  0  0  0  0
 26 28  1  0  0  0  0
 26 21  1  0  0  0  0
 27 26  1  0  0  0  0
 28 31  1  0  0  0  0
 30 29  1  0  0  0  0
 30 28  1  0  0  0  0
 31 39  1  0  0  0  0
 32 31  2  0  0  0  0
 33 37  1  0  0  0  0
 33 38  1  0  0  0  0
 34 37  1  0  0  0  0
 35 33  2  0  0  0  0
 36 34  1  0  0  0  0
 39 36  1  0  0  0  0
 39 35  1  0  0  0  0
 40 41  1  0  0  0  0
 41 16  1  0  0  0  0
 43 42  1  0  0  0  0
 44 43  1  0  0  0  0
M  END
>  <MODEL>
2

>  <REMARK>
 VINA RESULT:      -6.5      2.032      2.985
  Name = 
  8 active torsions:
  status: ('A' for Active; 'I' for Inactive)
    1  A    between atoms: C_6  and  C_15
    2  A    between atoms: C_7  and  C_15
    3  A    between atoms: C_8  and  C_33
    4  A    between atoms: C_8  and  C_37
    5  A    between atoms: O_17  and  C_33
    6  A    between atoms: C_26  and  C_33
    7  A    between atoms: C_26  and  C_41
    8  A    between atoms: N_27  and  C_31
                            x       y       z     vdW  Elec       q    Type
                         _______ _______ _______ _____ _____    ______ ____

>  <TORSDO>
F 8

$$$$
=
 OpenBabel11062416133D

 44 49  0  0  1  0  0  0  0  0999 V2000
  183.0090  178.8230  138.0490 C   0  0  0  0  0  0  0  0  0  0  0  0
  179.6880  180.7910  136.8170 C   0  0  0  0  0  0  0  0  0  0  0  0
  184.3250  179.0760  142.1690 C   0  0  0  0  0  2  0  0  0  0  0  0
  184.4160  178.3710  138.3570 C   0  0  0  0  0  2  0  0  0  0  0  0
  186.2450  178.1680  140.1070 C   0  0  2  0  0  3  0  0  0  0  0  0
  180.3360  177.4020  134.7880 O   0  0  0  0  0  0  0  0  0  0  0  0
  183.0460  181.1080  138.7200 O   0  0  0  0  0  1  0  0  0  0  0  0
  180.4220  179.8550  137.4500 C   0  0  0  0  0  0  0  0  0  0  0  0
  180.4350  178.4840  135.3470 C   0  0  0  0  0  0  0  0  0  0  0  0
  185.6040  178.3420  142.5530 C   0  0  0  0  0  2  0  0  0  0  0  0
  184.9040  178.8300  139.7380 C   0  0  2  0  0  3  0  0  0  0  0  0
  182.4080  179.8910  138.9690 C   0  0  1  0  0  0  0  0  0  0  0  0
  180.2530  179.1750  139.8490 C   0  0  0  0  0  2  0  0  0  0  0  0
  183.4020  177.1430  140.8760 C   0  0  0  0  0  1  0  0  0  0  0  0
  180.1480  179.7400  134.5940 C   0  0  0  0  0  2  0  0  0  0  0  0
  182.3280  178.2860  136.9960 C   0  0  0  0  0  0  0  0  0  0  0  0
  179.3450  181.9710  137.4680 O   0  0  0  0  0  1  0  0  0  0  0  0
  180.9050  180.0960  138.8380 C   0  0  2  0  0  3  0  0  0  0  0  0
  182.5920  179.5240  140.4500 C   0  0  2  0  0  3  0  0  0  0  0  0
  183.8040  178.6240  140.8030 C   0  0  1  0  0  0  0  0  0  0  0  0
  186.7030  178.5890  141.5230 C   0  0  1  0  0  3  0  0  0  0  0  0
  180.8510  179.8780  142.0440 O   0  0  0  0  0  1  0  0  0  0  0  0
  180.8480  178.5610  136.7970 C   0  0  1  0  0  3  0  0  0  0  0  0
  179.1820  180.5830  135.4160 C   0  0  0  0  0  2  0  0  0  0  0  0
  181.2440  179.0510  140.9920 C   0  0  1  0  0  3  0  0  0  0  0  0
  187.9870  177.8930  142.0110 C   0  0  1  0  0  3  0  0  0  0  0  0
  189.2480  178.6420  141.5810 C   0  0  0  0  0  1  0  0  0  0  0  0
  187.9700  177.6010  143.5180 C   0  0  1  0  0  3  0  0  0  0  0  0
  186.3910  177.1290  145.0050 C   0  0  0  0  0  1  0  0  0  0  0  0
  186.9700  176.6700  143.8200 O   0  0  0  0  0  0  0  0  0  0  0  0
  189.2990  177.0810  143.9900 C   0  0  0  0  0  0  0  0  0  0  0  0
  189.7180  176.0230  143.5460 O   0  0  0  0  0  0  0  0  0  0  0  0
  191.3310  176.4800  146.6420 C   0  0  0  0  0  0  0  0  0  0  0  0
  188.9790  177.1230  147.0760 N   0  0  0  0  0  2  0  0  0  0  0  0
  191.3050  177.0730  145.4510 C   0  0  0  0  0  3  0  0  0  0  0  0
  189.2330  178.2710  146.2040 C   0  0  0  0  0  2  0  0  0  0  0  0
  190.2160  176.6250  147.5300 N   0  0  0  0  0  2  0  0  0  0  0  0
  192.4950  175.7830  147.0680 N   0  0  0  0  0  1  0  0  0  0  0  0
  190.0970  177.8510  145.0060 C   0  0  2  0  0  3  0  0  0  0  0  0
  182.9840  175.9270  136.4400 N   0  0  0  0  0  1  0  0  0  0  0  0
  182.9170  177.2930  136.1350 N   0  0  0  0  0  2  0  0  0  0  0  0
  187.2940  178.5530  139.0710 C   0  0  0  0  0  2  0  0  0  0  0  0
  187.6460  177.3470  138.2250 C   0  0  0  0  0  2  0  0  0  0  0  0
  189.1030  176.9940  138.4340 C   0  0  0  0  0  1  0  0  0  0  0  0
  1  4  1  0  0  0  0
  1 12  1  0  0  0  0
  2  8  2  0  0  0  0
  2 17  1  0  0  0  0
  3 10  1  0  0  0  0
  5 42  1  6  0  0  0
  5 21  1  0  0  0  0
  6  9  2  0  0  0  0
  8 18  1  0  0  0  0
  9 23  1  0  0  0  0
 11  4  1  6  0  0  0
 11  5  1  0  0  0  0
 11 20  1  0  0  0  0
 12  7  1  6  0  0  0
 12 19  1  0  0  0  0
 13 25  1  0  0  0  0
 15  9  1  0  0  0  0
 15 24  1  0  0  0  0
 16  1  2  0  0  0  0
 18 12  1  0  0  0  0
 18 13  1  1  0  0  0
 19 20  1  0  0  0  0
 19 25  1  0  0  0  0
 20 14  1  0  0  0  0
 20  3  1  0  0  0  0
 21 26  1  0  0  0  0
 21 10  1  0  0  0  0
 23 16  1  0  0  0  0
 23  8  1  0  0  0  0
 24  2  1  0  0  0  0
 25 22  1  0  0  0  0
 26 28  1  0  0  0  0
 27 26  1  0  0  0  0
 28 30  1  0  0  0  0
 28 31  1  0  0  0  0
 30 29  1  0  0  0  0
 31 39  1  0  0  0  0
 32 31  2  0  0  0  0
 33 38  1  0  0  0  0
 33 37  1  0  0  0  0
 34 37  1  0  0  0  0
 35 33  2  0  0  0  0
 36 34  1  0  0  0  0
 39 35  1  0  0  0  0
 39 36  1  0  0  0  0
 41 40  1  0  0  0  0
 41 16  1  0  0  0  0
 43 44  1  0  0  0  0
 43 42  1  0  0  0  0
M  END
>  <MODEL>
3

>  <REMARK>
 VINA RESULT:      -6.3      3.014      9.832
  Name = 
  8 active torsions:
  status: ('A' for Active; 'I' for Inactive)
    1  A    between atoms: C_6  and  C_15
    2  A    between atoms: C_7  and  C_15
    3  A    between atoms: C_8  and  C_33
    4  A    between atoms: C_8  and  C_37
    5  A    between atoms: O_17  and  C_33
    6  A    between atoms: C_26  and  C_33
    7  A    between atoms: C_26  and  C_41
    8  A    between atoms: N_27  and  C_31
                            x       y       z     vdW  Elec       q    Type
                         _______ _______ _______ _____ _____    ______ ____

>  <TORSDO>
F 8

$$$$
=
 OpenBabel11062416133D

 44 49  0  0  1  0  0  0  0  0999 V2000
  183.8370  178.5730  138.2620 C   0  0  0  0  0  0  0  0  0  0  0  0
  180.5650  180.4020  136.7230 C   0  0  0  0  0  0  0  0  0  0  0  0
  184.9160  179.1110  142.4240 C   0  0  0  0  0  2  0  0  0  0  0  0
  185.2310  178.1660  138.6760 C   0  0  0  0  0  2  0  0  0  0  0  0
  186.9610  178.1070  140.5350 C   0  0  2  0  0  3  0  0  0  0  0  0
  181.3720  176.9020  134.9560 O   0  0  0  0  0  0  0  0  0  0  0  0
  183.8050  180.8970  138.7860 O   0  0  0  0  0  1  0  0  0  0  0  0
  181.2760  179.5210  137.4550 C   0  0  0  0  0  0  0  0  0  0  0  0
  181.4250  178.0180  135.4490 C   0  0  0  0  0  0  0  0  0  0  0  0
  186.1810  178.4250  142.9250 C   0  0  0  0  0  2  0  0  0  0  0  0
  185.6350  178.7210  140.0500 C   0  0  2  0  0  3  0  0  0  0  0  0
  183.1720  179.6880  139.0760 C   0  0  1  0  0  0  0  0  0  0  0  0
  180.9800  178.9920  139.8800 C   0  0  0  0  0  2  0  0  0  0  0  0
  184.0930  177.0840  141.2100 C   0  0  0  0  0  1  0  0  0  0  0  0
  181.1640  179.2190  134.6020 C   0  0  0  0  0  2  0  0  0  0  0  0
  183.2250  177.9590  137.2110 C   0  0  0  0  0  0  0  0  0  0  0  0
  180.1710  181.6150  137.2770 O   0  0  0  0  0  1  0  0  0  0  0  0
  181.6750  179.8580  138.8500 C   0  0  2  0  0  3  0  0  0  0  0  0
  183.2770  179.4190  140.5860 C   0  0  2  0  0  3  0  0  0  0  0  0
  184.4790  178.5640  141.0630 C   0  0  1  0  0  0  0  0  0  0  0  0
  187.3320  178.6240  141.9440 C   0  0  1  0  0  3  0  0  0  0  0  0
  181.4440  179.8440  142.0550 O   0  0  0  0  0  1  0  0  0  0  0  0
  181.7550  178.1950  136.9120 C   0  0  1  0  0  3  0  0  0  0  0  0
  180.1420  180.0960  135.3130 C   0  0  0  0  0  2  0  0  0  0  0  0
  181.9060  178.9580  141.0820 C   0  0  1  0  0  3  0  0  0  0  0  0
  188.5970  177.9840  142.5460 C   0  0  1  0  0  3  0  0  0  0  0  0
  189.5330  179.0220  143.1630 C   0  0  0  0  0  1  0  0  0  0  0  0
  188.2780  176.8380  143.5170 C   0  0  1  0  0  3  0  0  0  0  0  0
  190.0000  176.0040  142.3930 C   0  0  0  0  0  1  0  0  0  0  0  0
  188.8230  175.6380  143.0480 O   0  0  0  0  0  0  0  0  0  0  0  0
  188.8080  177.1240  144.8940 C   0  0  0  0  0  0  0  0  0  0  0  0
  189.9050  177.6490  145.0150 O   0  0  0  0  0  0  0  0  0  0  0  0
  186.8020  178.6270  147.1840 C   0  0  0  0  0  0  0  0  0  0  0  0
  189.1430  178.1200  147.8140 N   0  0  0  0  0  2  0  0  0  0  0  0
  186.8100  177.6660  146.2620 C   0  0  0  0  0  3  0  0  0  0  0  0
  188.8610  176.7500  147.3800 C   0  0  0  0  0  2  0  0  0  0  0  0
  187.9180  178.7670  148.0710 N   0  0  0  0  0  2  0  0  0  0  0  0
  185.6540  179.4500  147.3470 N   0  0  0  0  0  1  0  0  0  0  0  0
  188.0000  176.7580  146.1090 C   0  0  2  0  0  3  0  0  0  0  0  0
  184.7890  177.1650  135.4130 N   0  0  0  0  0  1  0  0  0  0  0  0
  183.8750  176.9240  136.4490 N   0  0  0  0  0  2  0  0  0  0  0  0
  188.0620  178.4420  139.5360 C   0  0  0  0  0  2  0  0  0  0  0  0
  188.7150  177.1670  139.0450 C   0  0  0  0  0  2  0  0  0  0  0  0
  189.2660  177.3900  137.6530 C   0  0  0  0  0  1  0  0  0  0  0  0
  1  4  1  0  0  0  0
  1 12  1  0  0  0  0
  2 17  1  0  0  0  0
  2  8  2  0  0  0  0
  3 10  1  0  0  0  0
  5 42  1  6  0  0  0
  5 21  1  0  0  0  0
  6  9  2  0  0  0  0
  8 18  1  0  0  0  0
  9 23  1  0  0  0  0
 11  4  1  6  0  0  0
 11  5  1  0  0  0  0
 11 20  1  0  0  0  0
 12  7  1  6  0  0  0
 12 19  1  0  0  0  0
 13 25  1  0  0  0  0
 15 24  1  0  0  0  0
 15  9  1  0  0  0  0
 16  1  2  0  0  0  0
 18 12  1  0  0  0  0
 18 13  1  1  0  0  0
 19 20  1  0  0  0  0
 19 25  1  0  0  0  0
 20 14  1  0  0  0  0
 20  3  1  0  0  0  0
 21 26  1  0  0  0  0
 21 10  1  0  0  0  0
 23 16  1  0  0  0  0
 23  8  1  0  0  0  0
 24  2  1  0  0  0  0
 25 22  1  0  0  0  0
 26 27  1  0  0  0  0
 26 28  1  0  0  0  0
 28 31  1  0  0  0  0
 29 30  1  0  0  0  0
 30 28  1  0  0  0  0
 31 32  2  0  0  0  0
 31 39  1  0  0  0  0
 33 38  1  0  0  0  0
 33 37  1  0  0  0  0
 34 37  1  0  0  0  0
 35 33  2  0  0  0  0
 36 34  1  0  0  0  0
 39 35  1  0  0  0  0
 39 36  1  0  0  0  0
 40 41  1  0  0  0  0
 41 16  1  0  0  0  0
 43 42  1  0  0  0  0
 44 43  1  0  0  0  0
M  END
>  <MODEL>
4

>  <REMARK>
 VINA RESULT:      -6.2      3.076      9.480
  Name = 
  8 active torsions:
  status: ('A' for Active; 'I' for Inactive)
    1  A    between atoms: C_6  and  C_15
    2  A    between atoms: C_7  and  C_15
    3  A    between atoms: C_8  and  C_33
    4  A    between atoms: C_8  and  C_37
    5  A    between atoms: O_17  and  C_33
    6  A    between atoms: C_26  and  C_33
    7  A    between atoms: C_26  and  C_41
    8  A    between atoms: N_27  and  C_31
                            x       y       z     vdW  Elec       q    Type
                         _______ _______ _______ _____ _____    ______ ____

>  <TORSDO>
F 8

$$$$
=
 OpenBabel11062416133D

 44 49  0  0  1  0  0  0  0  0999 V2000
  184.0720  177.3460  137.9920 C   0  0  0  0  0  0  0  0  0  0  0  0
  180.2150  176.9110  139.1560 C   0  0  0  0  0  0  0  0  0  0  0  0
  185.7680  174.7600  134.9580 C   0  0  0  0  0  2  0  0  0  0  0  0
  185.5760  177.3230  137.8610 C   0  0  0  0  0  2  0  0  0  0  0  0
  187.5930  176.2660  136.7360 C   0  0  2  0  0  3  0  0  0  0  0  0
  181.5060  180.6920  139.4110 O   0  0  0  0  0  0  0  0  0  0  0  0
  183.5680  175.0790  138.5240 O   0  0  0  0  0  1  0  0  0  0  0  0
  181.2490  177.2380  138.3560 C   0  0  0  0  0  0  0  0  0  0  0  0
  181.3750  179.4790  139.4790 C   0  0  0  0  0  0  0  0  0  0  0  0
  187.2360  174.9540  134.5970 C   0  0  0  0  0  2  0  0  0  0  0  0
  186.0880  176.1340  137.0340 C   0  0  2  0  0  3  0  0  0  0  0  0
  183.3220  176.0760  137.5770 C   0  0  1  0  0  0  0  0  0  0  0  0
  181.5690  176.5830  135.9640 C   0  0  0  0  0  2  0  0  0  0  0  0
  185.2540  177.2070  134.9010 C   0  0  0  0  0  1  0  0  0  0  0  0
  180.6660  178.8720  140.6440 C   0  0  0  0  0  2  0  0  0  0  0  0
  183.4390  178.4600  138.4570 C   0  0  0  0  0  0  0  0  0  0  0  0
  179.6480  175.6440  139.0850 O   0  0  0  0  0  1  0  0  0  0  0  0
  181.8150  176.2290  137.4170 C   0  0  2  0  0  3  0  0  0  0  0  0
  183.7800  175.5780  136.1970 C   0  0  2  0  0  3  0  0  0  0  0  0
  185.2250  175.9390  135.7670 C   0  0  1  0  0  0  0  0  0  0  0  0
  188.0900  175.0970  135.8530 C   0  0  1  0  0  3  0  0  0  0  0  0
  182.2190  174.7480  134.5940 O   0  0  0  0  0  1  0  0  0  0  0  0
  181.9270  178.5870  138.3930 C   0  0  1  0  0  3  0  0  0  0  0  0
  179.6160  177.9030  140.1150 C   0  0  0  0  0  2  0  0  0  0  0  0
  182.6890  175.9210  135.1830 C   0  0  1  0  0  3  0  0  0  0  0  0
  189.5650  175.2050  135.4250 C   0  0  1  0  0  3  0  0  0  0  0  0
  190.1690  176.5650  135.7680 C   0  0  0  0  0  1  0  0  0  0  0  0
  190.4210  174.0410  135.9450 C   0  0  1  0  0  3  0  0  0  0  0  0
  190.4660  172.0750  134.9140 C   0  0  0  0  0  1  0  0  0  0  0  0
  191.0140  173.3590  134.8760 O   0  0  0  0  0  0  0  0  0  0  0  0
  191.4900  174.5240  136.8840 C   0  0  0  0  0  0  0  0  0  0  0  0
  191.1830  174.8550  138.0190 O   0  0  0  0  0  0  0  0  0  0  0  0
  194.6070  173.9470  138.0980 C   0  0  0  0  0  0  0  0  0  0  0  0
  193.7850  176.2810  138.0150 N   0  0  0  0  0  2  0  0  0  0  0  0
  193.7750  173.5860  137.1230 C   0  0  0  0  0  3  0  0  0  0  0  0
  193.4890  176.0240  136.6040 C   0  0  0  0  0  2  0  0  0  0  0  0
  194.7260  175.3290  138.4530 N   0  0  0  0  0  2  0  0  0  0  0  0
  195.4410  172.9770  138.7190 N   0  0  0  0  0  1  0  0  0  0  0  0
  192.9210  174.6090  136.4260 C   0  0  2  0  0  3  0  0  0  0  0  0
  184.8820  179.7530  140.0550 N   0  0  0  0  0  1  0  0  0  0  0  0
  184.1650  179.6390  138.8560 N   0  0  0  0  0  2  0  0  0  0  0  0
  188.3620  176.3060  138.0510 C   0  0  0  0  0  2  0  0  0  0  0  0
  188.9930  177.6700  138.2350 C   0  0  0  0  0  2  0  0  0  0  0  0
  188.6400  178.2060  139.6050 C   0  0  0  0  0  1  0  0  0  0  0  0
  1 16  2  0  0  0  0
  2 24  1  0  0  0  0
  3 20  1  0  0  0  0
  4  1  1  0  0  0  0
  5 11  1  0  0  0  0
  5 42  1  1  0  0  0
  6  9  2  0  0  0  0
  8 23  1  0  0  0  0
  8  2  2  0  0  0  0
  9 15  1  0  0  0  0
 10  3  1  0  0  0  0
 10 21  1  0  0  0  0
 11  4  1  6  0  0  0
 12  1  1  0  0  0  0
 12  7  1  1  0  0  0
 14 20  1  0  0  0  0
 16 41  1  0  0  0  0
 17  2  1  0  0  0  0
 18 13  1  6  0  0  0
 18 12  1  0  0  0  0
 18  8  1  0  0  0  0
 19 12  1  0  0  0  0
 20 19  1  0  0  0  0
 20 11  1  0  0  0  0
 21  5  1  0  0  0  0
 22 25  1  0  0  0  0
 23 16  1  0  0  0  0
 23  9  1  0  0  0  0
 24 15  1  0  0  0  0
 25 13  1  0  0  0  0
 25 19  1  0  0  0  0
 26 27  1  0  0  0  0
 26 21  1  0  0  0  0
 26 28  1  0  0  0  0
 28 31  1  0  0  0  0
 30 29  1  0  0  0  0
 30 28  1  0  0  0  0
 31 32  2  0  0  0  0
 33 37  1  0  0  0  0
 33 38  1  0  0  0  0
 34 37  1  0  0  0  0
 35 33  2  0  0  0  0
 36 34  1  0  0  0  0
 39 36  1  0  0  0  0
 39 31  1  0  0  0  0
 39 35  1  0  0  0  0
 41 40  1  0  0  0  0
 42 43  1  0  0  0  0
 43 44  1  0  0  0  0
M  END
>  <MODEL>
5

>  <REMARK>
 VINA RESULT:      -6.2      5.101     10.758
  Name = 
  8 active torsions:
  status: ('A' for Active; 'I' for Inactive)
    1  A    between atoms: C_6  and  C_15
    2  A    between atoms: C_7  and  C_15
    3  A    between atoms: C_8  and  C_33
    4  A    between atoms: C_8  and  C_37
    5  A    between atoms: O_17  and  C_33
    6  A    between atoms: C_26  and  C_33
    7  A    between atoms: C_26  and  C_41
    8  A    between atoms: N_27  and  C_31
                            x       y       z     vdW  Elec       q    Type
                         _______ _______ _______ _____ _____    ______ ____

>  <TORSDO>
F 8

$$$$
=
 OpenBabel11062416133D

 44 49  0  0  1  0  0  0  0  0999 V2000
  183.7320  178.1810  138.4090 C   0  0  0  0  0  0  0  0  0  0  0  0
  180.6950  176.5760  136.2600 C   0  0  0  0  0  0  0  0  0  0  0  0
  187.8030  176.8070  137.8470 C   0  0  0  0  0  2  0  0  0  0  0  0
  184.7440  178.5550  139.4670 C   0  0  0  0  0  2  0  0  0  0  0  0
  187.1230  178.2920  140.3150 C   0  0  2  0  0  3  0  0  0  0  0  0
  180.0680  180.4100  137.2260 O   0  0  0  0  0  0  0  0  0  0  0  0
  183.7720  175.8000  138.4800 O   0  0  0  0  0  1  0  0  0  0  0  0
  181.7970  177.3110  136.5090 C   0  0  0  0  0  0  0  0  0  0  0  0
  180.3310  179.2180  137.2280 C   0  0  0  0  0  0  0  0  0  0  0  0
  188.8900  177.4260  138.7170 C   0  0  0  0  0  2  0  0  0  0  0  0
  186.0390  177.7350  139.3730 C   0  0  2  0  0  3  0  0  0  0  0  0
  183.9910  176.8870  137.6310 C   0  0  1  0  0  0  0  0  0  0  0  0
  183.9440  177.2870  135.2280 C   0  0  0  0  0  2  0  0  0  0  0  0
  186.7440  179.0070  137.3040 C   0  0  0  0  0  1  0  0  0  0  0  0
  179.2500  178.2180  137.4760 C   0  0  0  0  0  2  0  0  0  0  0  0
  182.6510  178.9790  138.1780 C   0  0  0  0  0  0  0  0  0  0  0  0
  180.8130  175.2550  135.8440 O   0  0  0  0  0  1  0  0  0  0  0  0
  183.1490  176.6980  136.3760 C   0  0  2  0  0  3  0  0  0  0  0  0
  185.4350  176.8270  137.1050 C   0  0  2  0  0  3  0  0  0  0  0  0
  186.5040  177.6140  137.9050 C   0  0  1  0  0  0  0  0  0  0  0  0
  188.4440  177.4990  140.1740 C   0  0  1  0  0  3  0  0  0  0  0  0
  185.9280  176.0080  134.9190 O   0  0  0  0  0  1  0  0  0  0  0  0
  181.7440  178.7440  136.9840 C   0  0  1  0  0  3  0  0  0  0  0  0
  179.3140  177.1600  136.3820 C   0  0  0  0  0  2  0  0  0  0  0  0
  185.4030  177.1030  135.6030 C   0  0  1  0  0  3  0  0  0  0  0  0
  189.6120  178.0530  141.0100 C   0  0  1  0  0  3  0  0  0  0  0  0
  189.1870  179.2290  141.8880 C   0  0  0  0  0  1  0  0  0  0  0  0
  190.3410  176.9640  141.8090 C   0  0  1  0  0  3  0  0  0  0  0  0
  192.0580  177.5100  140.5130 C   0  0  0  0  0  1  0  0  0  0  0  0
  191.7170  177.2190  141.8350 O   0  0  0  0  0  0  0  0  0  0  0  0
  189.8210  176.8770  143.2170 C   0  0  0  0  0  0  0  0  0  0  0  0
  188.8790  176.1380  143.4610 O   0  0  0  0  0  0  0  0  0  0  0  0
  191.2860  176.4220  146.2450 C   0  0  0  0  0  0  0  0  0  0  0  0
  188.9270  177.1740  146.1730 N   0  0  0  0  0  2  0  0  0  0  0  0
  191.5130  176.9200  145.0310 C   0  0  0  0  0  3  0  0  0  0  0  0
  189.3950  178.2400  145.2860 C   0  0  0  0  0  2  0  0  0  0  0  0
  190.0320  176.6740  146.8900 N   0  0  0  0  0  2  0  0  0  0  0  0
  192.3150  175.7240  146.9350 N   0  0  0  0  0  1  0  0  0  0  0  0
  190.4490  177.6990  144.3090 C   0  0  2  0  0  3  0  0  0  0  0  0
  182.9850  181.4290  138.6200 N   0  0  0  0  0  1  0  0  0  0  0  0
  182.4190  180.1840  138.9320 N   0  0  0  0  0  2  0  0  0  0  0  0
  186.6160  178.2330  141.7510 C   0  0  0  0  0  2  0  0  0  0  0  0
  185.6930  179.4030  142.0170 C   0  0  0  0  0  2  0  0  0  0  0  0
  184.8110  179.0870  143.2060 C   0  0  0  0  0  1  0  0  0  0  0  0
  1  4  1  0  0  0  0
  2 24  1  0  0  0  0
  2  8  2  0  0  0  0
  3 20  1  0  0  0  0
  3 10  1  0  0  0  0
  5 42  1  1  0  0  0
  6  9  2  0  0  0  0
  8 23  1  0  0  0  0
  9 15  1  0  0  0  0
 10 21  1  0  0  0  0
 11  4  1  6  0  0  0
 11  5  1  0  0  0  0
 12  1  1  0  0  0  0
 12  7  1  1  0  0  0
 13 25  1  0  0  0  0
 14 20  1  0  0  0  0
 16  1  2  0  0  0  0
 16 41  1  0  0  0  0
 17  2  1  0  0  0  0
 18 13  1  6  0  0  0
 18  8  1  0  0  0  0
 18 12  1  0  0  0  0
 19 12  1  0  0  0  0
 19 20  1  0  0  0  0
 20 11  1  0  0  0  0
 21  5  1  0  0  0  0
 21 26  1  0  0  0  0
 22 25  1  0  0  0  0
 23  9  1  0  0  0  0
 23 16  1  0  0  0  0
 24 15  1  0  0  0  0
 25 19  1  0  0  0  0
 26 28  1  0  0  0  0
 26 27  1  0  0  0  0
 28 30  1  0  0  0  0
 28 31  1  0  0  0  0
 29 30  1  0  0  0  0
 31 32  2  0  0  0  0
 31 39  1  0  0  0  0
 33 37  1  0  0  0  0
 33 38  1  0  0  0  0
 34 37  1  0  0  0  0
 35 33  2  0  0  0  0
 36 34  1  0  0  0  0
 39 35  1  0  0  0  0
 39 36  1  0  0  0  0
 40 41  1  0  0  0  0
 42 43  1  0  0  0  0
 43 44  1  0  0  0  0
M  END
>  <MODEL>
6

>  <REMARK>
 VINA RESULT:      -5.8      3.290     10.265
  Name = 
  8 active torsions:
  status: ('A' for Active; 'I' for Inactive)
    1  A    between atoms: C_6  and  C_15
    2  A    between atoms: C_7  and  C_15
    3  A    between atoms: C_8  and  C_33
    4  A    between atoms: C_8  and  C_37
    5  A    between atoms: O_17  and  C_33
    6  A    between atoms: C_26  and  C_33
    7  A    between atoms: C_26  and  C_41
    8  A    between atoms: N_27  and  C_31
                            x       y       z     vdW  Elec       q    Type
                         _______ _______ _______ _____ _____    ______ ____

>  <TORSDO>
F 8

$$$$
=
 OpenBabel11062416133D

 44 49  0  0  1  0  0  0  0  0999 V2000
  188.7260  174.9820  136.7450 C   0  0  0  0  0  0  0  0  0  0  0  0
  192.5670  175.8330  137.7150 C   0  0  0  0  0  0  0  0  0  0  0  0
  185.5860  177.8950  137.3980 C   0  0  0  0  0  2  0  0  0  0  0  0
  187.3000  174.4880  136.6980 C   0  0  0  0  0  2  0  0  0  0  0  0
  184.8460  175.0530  137.0250 C   0  0  2  0  0  3  0  0  0  0  0  0
  192.2600  173.3280  134.6080 O   0  0  0  0  0  0  0  0  0  0  0  0
  188.9000  175.8380  138.9610 O   0  0  0  0  0  1  0  0  0  0  0  0
  191.4120  175.8880  137.0240 C   0  0  0  0  0  0  0  0  0  0  0  0
  192.1510  173.8990  135.6820 C   0  0  0  0  0  0  0  0  0  0  0  0
  184.1580  177.4930  137.0470 C   0  0  0  0  0  2  0  0  0  0  0  0
  186.2980  175.4900  137.2910 C   0  0  2  0  0  3  0  0  0  0  0  0
  189.0040  176.2090  137.6190 C   0  0  1  0  0  0  0  0  0  0  0  0
  190.1550  177.9430  136.3520 C   0  0  0  0  0  2  0  0  0  0  0  0
  186.5450  176.9930  135.2710 C   0  0  0  0  0  1  0  0  0  0  0  0
  193.0770  173.5600  136.8020 C   0  0  0  0  0  2  0  0  0  0  0  0
  189.6980  174.3480  136.0300 C   0  0  0  0  0  0  0  0  0  0  0  0
  192.7980  176.7160  138.7640 O   0  0  0  0  0  1  0  0  0  0  0  0
  190.3590  176.8720  137.4040 C   0  0  2  0  0  3  0  0  0  0  0  0
  188.0040  177.3410  137.3350 C   0  0  2  0  0  3  0  0  0  0  0  0
  186.6080  176.9240  136.8040 C   0  0  1  0  0  0  0  0  0  0  0  0
  183.8420  176.0960  137.5720 C   0  0  1  0  0  3  0  0  0  0  0  0
  188.7040  179.6190  137.2180 O   0  0  0  0  0  1  0  0  0  0  0  0
  191.0850  174.9490  135.8870 C   0  0  1  0  0  3  0  0  0  0  0  0
  193.6530  174.8550  137.3600 C   0  0  0  0  0  2  0  0  0  0  0  0
  188.7220  178.4140  136.5180 C   0  0  1  0  0  3  0  0  0  0  0  0
  182.3660  175.7850  137.2600 C   0  0  1  0  0  3  0  0  0  0  0  0
  181.6500  175.1400  138.4450 C   0  0  0  0  0  1  0  0  0  0  0  0
  181.6060  177.0000  136.7110 C   0  0  1  0  0  3  0  0  0  0  0  0
  181.3550  178.0730  134.7850 C   0  0  0  0  0  1  0  0  0  0  0  0
  181.2860  176.8050  135.3630 O   0  0  0  0  0  0  0  0  0  0  0  0
  180.3470  177.2570  137.4920 C   0  0  0  0  0  0  0  0  0  0  0  0
  179.4410  176.4390  137.4490 O   0  0  0  0  0  0  0  0  0  0  0  0
  182.3100  179.4410  139.1950 C   0  0  0  0  0  0  0  0  0  0  0  0
  181.0720  177.7190  140.4740 N   0  0  0  0  0  2  0  0  0  0  0  0
  181.4320  179.3750  138.1970 C   0  0  0  0  0  3  0  0  0  0  0  0
  179.8780  178.1970  139.7760 C   0  0  0  0  0  2  0  0  0  0  0  0
  182.0590  178.7220  140.4080 N   0  0  0  0  0  2  0  0  0  0  0  0
  183.4430  180.2940  139.0930 N   0  0  0  0  0  1  0  0  0  0  0  0
  180.2050  178.5120  138.3090 C   0  0  2  0  0  3  0  0  0  0  0  0
  189.2280  171.8970  135.7440 N   0  0  0  0  0  1  0  0  0  0  0  0
  189.4160  173.1860  135.2250 N   0  0  0  0  0  2  0  0  0  0  0  0
  184.6060  173.6940  137.6690 C   0  0  0  0  0  2  0  0  0  0  0  0
  184.3610  172.6540  136.5960 C   0  0  0  0  0  2  0  0  0  0  0  0
  184.1690  173.3440  135.2620 C   0  0  0  0  0  1  0  0  0  0  0  0
  1 12  1  0  0  0  0
  2 17  1  0  0  0  0
  4  1  1  0  0  0  0
  5 11  1  0  0  0  0
  5 21  1  0  0  0  0
  5 42  1  1  0  0  0
  6  9  2  0  0  0  0
  8 18  1  0  0  0  0
  8  2  2  0  0  0  0
  9 23  1  0  0  0  0
  9 15  1  0  0  0  0
 10  3  1  0  0  0  0
 10 21  1  0  0  0  0
 11  4  1  6  0  0  0
 12  7  1  1  0  0  0
 13 25  1  0  0  0  0
 14 20  1  0  0  0  0
 15 24  1  0  0  0  0
 16  1  2  0  0  0  0
 18 13  1  6  0  0  0
 18 12  1  0  0  0  0
 19 12  1  0  0  0  0
 20 11  1  0  0  0  0
 20 19  1  0  0  0  0
 20  3  1  0  0  0  0
 23 16  1  0  0  0  0
 23  8  1  0  0  0  0
 24  2  1  0  0  0  0
 25 22  1  0  0  0  0
 25 19  1  0  0  0  0
 26 21  1  0  0  0  0
 26 27  1  0  0  0  0
 28 26  1  0  0  0  0
 28 31  1  0  0  0  0
 29 30  1  0  0  0  0
 30 28  1  0  0  0  0
 31 39  1  0  0  0  0
 32 31  2  0  0  0  0
 33 37  1  0  0  0  0
 35 39  1  0  0  0  0
 35 33  2  0  0  0  0
 36 34  1  0  0  0  0
 37 34  1  0  0  0  0
 38 33  1  0  0  0  0
 39 36  1  0  0  0  0
 41 40  1  0  0  0  0
 41 16  1  0  0  0  0
 43 42  1  0  0  0  0
 44 43  1  0  0  0  0
M  END
>  <MODEL>
7

>  <REMARK>
 VINA RESULT:      -5.7      5.647      7.389
  Name = 
  8 active torsions:
  status: ('A' for Active; 'I' for Inactive)
    1  A    between atoms: C_6  and  C_15
    2  A    between atoms: C_7  and  C_15
    3  A    between atoms: C_8  and  C_33
    4  A    between atoms: C_8  and  C_37
    5  A    between atoms: O_17  and  C_33
    6  A    between atoms: C_26  and  C_33
    7  A    between atoms: C_26  and  C_41
    8  A    between atoms: N_27  and  C_31
                            x       y       z     vdW  Elec       q    Type
                         _______ _______ _______ _____ _____    ______ ____

>  <TORSDO>
F 8

$$$$
=
 OpenBabel11062416133D

 44 49  0  0  1  0  0  0  0  0999 V2000
  182.5420  178.5510  138.8610 C   0  0  0  0  0  0  0  0  0  0  0  0
  179.5990  178.3270  141.6370 C   0  0  0  0  0  0  0  0  0  0  0  0
  184.2680  174.9510  137.1760 C   0  0  0  0  0  2  0  0  0  0  0  0
  183.8490  178.6900  138.1160 C   0  0  0  0  0  2  0  0  0  0  0  0
  185.7540  177.4990  136.9320 C   0  0  2  0  0  3  0  0  0  0  0  0
  179.3370  181.5980  139.3450 O   0  0  0  0  0  0  0  0  0  0  0  0
  183.1150  177.0560  140.6260 O   0  0  0  0  0  1  0  0  0  0  0  0
  180.1810  178.2460  140.4240 C   0  0  0  0  0  0  0  0  0  0  0  0
  179.7100  180.6860  140.0670 C   0  0  0  0  0  0  0  0  0  0  0  0
  185.3980  175.1090  136.1660 C   0  0  0  0  0  2  0  0  0  0  0  0
  184.5500  177.3440  137.8800 C   0  0  2  0  0  3  0  0  0  0  0  0
  182.2660  177.1980  139.5260 C   0  0  1  0  0  0  0  0  0  0  0  0
  180.1020  176.3130  138.8410 C   0  0  0  0  0  2  0  0  0  0  0  0
  182.8470  176.7180  136.1190 C   0  0  0  0  0  1  0  0  0  0  0  0
  179.6190  180.8270  141.5500 C   0  0  0  0  0  2  0  0  0  0  0  0
  181.6690  179.5950  138.9200 C   0  0  0  0  0  0  0  0  0  0  0  0
  179.5720  177.2180  142.4750 O   0  0  0  0  0  1  0  0  0  0  0  0
  180.8320  176.9780  139.9900 C   0  0  2  0  0  3  0  0  0  0  0  0
  182.5100  176.0330  138.5530 C   0  0  2  0  0  3  0  0  0  0  0  0
  183.5370  176.2740  137.4170 C   0  0  1  0  0  0  0  0  0  0  0  0
  186.4210  176.1320  136.6510 C   0  0  1  0  0  3  0  0  0  0  0  0
  181.0390  174.1560  138.4680 O   0  0  0  0  0  1  0  0  0  0  0  0
  180.2660  179.4150  139.4710 C   0  0  1  0  0  3  0  0  0  0  0  0
  178.9310  179.5890  142.1090 C   0  0  0  0  0  2  0  0  0  0  0  0
  181.1500  175.4980  138.1060 C   0  0  1  0  0  3  0  0  0  0  0  0
  187.5740  176.1830  135.6320 C   0  0  1  0  0  3  0  0  0  0  0  0
  188.1470  177.5910  135.4780 C   0  0  0  0  0  1  0  0  0  0  0  0
  188.6640  175.1390  135.9140 C   0  0  1  0  0  3  0  0  0  0  0  0
  188.6760  173.1050  135.0260 C   0  0  0  0  0  1  0  0  0  0  0  0
  188.9790  174.4380  134.7450 O   0  0  0  0  0  0  0  0  0  0  0  0
  189.9060  175.7800  136.4650 C   0  0  0  0  0  0  0  0  0  0  0  0
  190.3920  176.7390  135.8840 O   0  0  0  0  0  0  0  0  0  0  0  0
  192.6860  176.2950  138.3440 C   0  0  0  0  0  0  0  0  0  0  0  0
  192.6590  174.3810  136.7730 N   0  0  0  0  0  2  0  0  0  0  0  0
  191.3570  176.2990  138.4110 C   0  0  0  0  0  3  0  0  0  0  0  0
  191.4010  173.9960  137.4160 C   0  0  0  0  0  2  0  0  0  0  0  0
  193.3570  175.2430  137.6410 N   0  0  0  0  0  2  0  0  0  0  0  0
  193.4390  177.2780  139.0450 N   0  0  0  0  0  1  0  0  0  0  0  0
  190.5490  175.2390  137.7120 C   0  0  2  0  0  3  0  0  0  0  0  0
  182.9730  181.7330  138.7190 N   0  0  0  0  0  1  0  0  0  0  0  0
  181.9550  180.8640  138.2990 N   0  0  0  0  0  2  0  0  0  0  0  0
  186.7570  178.4650  137.5500 C   0  0  0  0  0  2  0  0  0  0  0  0
  187.3520  177.8540  138.8020 C   0  0  0  0  0  2  0  0  0  0  0  0
  188.6840  178.5100  139.0960 C   0  0  0  0  0  1  0  0  0  0  0  0
  1 16  2  0  0  0  0
  1 12  1  0  0  0  0
  2 24  1  0  0  0  0
  2 17  1  0  0  0  0
  3 20  1  0  0  0  0
  4  1  1  0  0  0  0
  5 42  1  1  0  0  0
  5 11  1  0  0  0  0
  6  9  2  0  0  0  0
  8  2  2  0  0  0  0
  9 15  1  0  0  0  0
 10 21  1  0  0  0  0
 10  3  1  0  0  0  0
 11  4  1  6  0  0  0
 12 18  1  0  0  0  0
 12  7  1  1  0  0  0
 14 20  1  0  0  0  0
 15 24  1  0  0  0  0
 16 23  1  0  0  0  0
 18 13  1  6  0  0  0
 18  8  1  0  0  0  0
 19 12  1  0  0  0  0
 20 11  1  0  0  0  0
 20 19  1  0  0  0  0
 21  5  1  0  0  0  0
 23  9  1  0  0  0  0
 23  8  1  0  0  0  0
 25 22  1  0  0  0  0
 25 19  1  0  0  0  0
 25 13  1  0  0  0  0
 26 28  1  0  0  0  0
 26 21  1  0  0  0  0
 27 26  1  0  0  0  0
 28 31  1  0  0  0  0
 30 29  1  0  0  0  0
 30 28  1  0  0  0  0
 31 39  1  0  0  0  0
 32 31  2  0  0  0  0
 33 35  2  0  0  0  0
 33 38  1  0  0  0  0
 34 36  1  0  0  0  0
 34 37  1  0  0  0  0
 36 39  1  0  0  0  0
 37 33  1  0  0  0  0
 39 35  1  0  0  0  0
 41 40  1  0  0  0  0
 41 16  1  0  0  0  0
 42 43  1  0  0  0  0
 43 44  1  0  0  0  0
M  END
>  <MODEL>
8

>  <REMARK>
 VINA RESULT:      -5.6      5.188      9.794
  Name = 
  8 active torsions:
  status: ('A' for Active; 'I' for Inactive)
    1  A    between atoms: C_6  and  C_15
    2  A    between atoms: C_7  and  C_15
    3  A    between atoms: C_8  and  C_33
    4  A    between atoms: C_8  and  C_37
    5  A    between atoms: O_17  and  C_33
    6  A    between atoms: C_26  and  C_33
    7  A    between atoms: C_26  and  C_41
    8  A    between atoms: N_27  and  C_31
                            x       y       z     vdW  Elec       q    Type
                         _______ _______ _______ _____ _____    ______ ____

>  <TORSDO>
F 8

$$$$
=
 OpenBabel11062416133D

 44 49  0  0  1  0  0  0  0  0999 V2000
  182.1150  177.3220  138.5260 C   0  0  0  0  0  0  0  0  0  0  0  0
  181.7370  174.8860  135.3100 C   0  0  0  0  0  0  0  0  0  0  0  0
  186.0140  178.1370  140.2320 C   0  0  0  0  0  2  0  0  0  0  0  0
  182.1550  177.9340  139.9060 C   0  0  0  0  0  2  0  0  0  0  0  0
  183.6000  178.6720  141.8590 C   0  0  2  0  0  3  0  0  0  0  0  0
  178.9360  177.7420  135.4420 O   0  0  0  0  0  0  0  0  0  0  0  0
  183.2770  175.2660  138.8430 O   0  0  0  0  0  1  0  0  0  0  0  0
  182.0560  175.9940  136.0070 C   0  0  0  0  0  0  0  0  0  0  0  0
  179.7100  176.8320  135.6950 C   0  0  0  0  0  0  0  0  0  0  0  0
  186.0780  179.0310  141.4650 C   0  0  0  0  0  2  0  0  0  0  0  0
  183.5420  177.8470  140.5600 C   0  0  2  0  0  3  0  0  0  0  0  0
  183.3140  176.4590  138.1170 C   0  0  1  0  0  0  0  0  0  0  0  0
  184.2440  177.2040  135.9920 C   0  0  0  0  0  2  0  0  0  0  0  0
  184.4290  179.6410  139.0140 C   0  0  0  0  0  1  0  0  0  0  0  0
  179.2960  175.4170  135.4620 C   0  0  0  0  0  2  0  0  0  0  0  0
  181.0520  177.5470  137.7040 C   0  0  0  0  0  0  0  0  0  0  0  0
  182.6710  173.8700  135.1430 O   0  0  0  0  0  1  0  0  0  0  0  0
  183.4010  176.1210  136.6350 C   0  0  2  0  0  3  0  0  0  0  0  0
  184.6440  177.1750  138.4000 C   0  0  2  0  0  3  0  0  0  0  0  0
  184.6480  178.2180  139.5470 C   0  0  1  0  0  0  0  0  0  0  0  0
  185.0150  178.6290  142.4830 C   0  0  1  0  0  3  0  0  0  0  0  0
  186.4600  177.0800  136.8540 O   0  0  0  0  0  1  0  0  0  0  0  0
  181.0850  177.1270  136.2450 C   0  0  1  0  0  3  0  0  0  0  0  0
  180.3900  174.7230  134.6610 C   0  0  0  0  0  2  0  0  0  0  0  0
  185.2120  177.6630  137.0670 C   0  0  1  0  0  3  0  0  0  0  0  0
  185.1870  179.5100  143.7340 C   0  0  1  0  0  3  0  0  0  0  0  0
  183.8890  180.2110  144.1300 C   0  0  0  0  0  1  0  0  0  0  0  0
  185.8230  178.7550  144.9100 C   0  0  1  0  0  3  0  0  0  0  0  0
  185.1910  178.2720  146.9820 C   0  0  0  0  0  1  0  0  0  0  0  0
  184.8380  178.0840  145.6450 O   0  0  0  0  0  0  0  0  0  0  0  0
  186.8520  177.7690  144.4350 C   0  0  0  0  0  0  0  0  0  0  0  0
  186.5310  176.6020  144.2730 O   0  0  0  0  0  0  0  0  0  0  0  0
  189.8360  176.4280  143.5260 C   0  0  0  0  0  0  0  0  0  0  0  0
  189.4510  176.9440  145.9180 N   0  0  0  0  0  2  0  0  0  0  0  0
  188.9330  177.3330  143.1540 C   0  0  0  0  0  3  0  0  0  0  0  0
  189.0850  178.2890  145.4690 C   0  0  0  0  0  2  0  0  0  0  0  0
  190.2110  176.3280  144.9050 N   0  0  0  0  0  2  0  0  0  0  0  0
  190.4910  175.6300  142.5490 N   0  0  0  0  0  1  0  0  0  0  0  0
  188.2650  178.2160  144.1730 C   0  0  2  0  0  3  0  0  0  0  0  0
  178.9330  177.9150  139.0010 N   0  0  0  0  0  1  0  0  0  0  0  0
  179.9280  178.3500  138.1140 N   0  0  0  0  0  2  0  0  0  0  0  0
  182.5680  178.1320  142.8410 C   0  0  0  0  0  2  0  0  0  0  0  0
  181.4140  179.1050  142.9590 C   0  0  0  0  0  2  0  0  0  0  0  0
  180.2440  178.4180  143.6320 C   0  0  0  0  0  1  0  0  0  0  0  0
  1  4  1  0  0  0  0
  2  8  2  0  0  0  0
  3 10  1  0  0  0  0
  5 21  1  0  0  0  0
  5 42  1  1  0  0  0
  6  9  2  0  0  0  0
  8 23  1  0  0  0  0
  8 18  1  0  0  0  0
  9 23  1  0  0  0  0
 10 21  1  0  0  0  0
 11  4  1  6  0  0  0
 11  5  1  0  0  0  0
 12 19  1  0  0  0  0
 12  1  1  0  0  0  0
 12  7  1  1  0  0  0
 13 25  1  0  0  0  0
 14 20  1  0  0  0  0
 15  9  1  0  0  0  0
 16 41  1  0  0  0  0
 16  1  2  0  0  0  0
 17  2  1  0  0  0  0
 18 13  1  6  0  0  0
 18 12  1  0  0  0  0
 19 20  1  0  0  0  0
 20  3  1  0  0  0  0
 20 11  1  0  0  0  0
 21 26  1  0  0  0  0
 22 25  1  0  0  0  0
 23 16  1  0  0  0  0
 24  2  1  0  0  0  0
 24 15  1  0  0  0  0
 25 19  1  0  0  0  0
 26 27  1  0  0  0  0
 26 28  1  0  0  0  0
 28 30  1  0  0  0  0
 30 29  1  0  0  0  0
 31 28  1  0  0  0  0
 32 31  2  0  0  0  0
 33 37  1  0  0  0  0
 35 33  2  0  0  0  0
 35 39  1  0  0  0  0
 36 34  1  0  0  0  0
 37 34  1  0  0  0  0
 38 33  1  0  0  0  0
 39 31  1  0  0  0  0
 39 36  1  0  0  0  0
 41 40  1  0  0  0  0
 42 43  1  0  0  0  0
 43 44  1  0  0  0  0
M  END
>  <MODEL>
9

>  <REMARK>
 VINA RESULT:      -5.6      2.525      9.463
  Name = 
  8 active torsions:
  status: ('A' for Active; 'I' for Inactive)
    1  A    between atoms: C_6  and  C_15
    2  A    between atoms: C_7  and  C_15
    3  A    between atoms: C_8  and  C_33
    4  A    between atoms: C_8  and  C_37
    5  A    between atoms: O_17  and  C_33
    6  A    between atoms: C_26  and  C_33
    7  A    between atoms: C_26  and  C_41
    8  A    between atoms: N_27  and  C_31
                            x       y       z     vdW  Elec       q    Type
                         _______ _______ _______ _____ _____    ______ ____

>  <TORSDO>
F 8

$$$$
