=
 OpenBabel11062417283D

 47 54  0  0  1  0  0  0  0  0999 V2000
  191.6200  175.4630  136.2440 N   0  0  0  0  0  0  0  0  0  0  0  0
  187.8640  174.1140  137.7900 C   0  0  0  0  0  2  0  0  0  0  0  0
  186.8420  178.1740  137.4410 C   0  0  1  0  0  3  0  0  0  0  0  0
  187.9830  177.6550  136.5710 C   0  0  0  0  0  2  0  0  0  0  0  0
  187.9860  176.1280  136.3870 C   0  0  1  0  0  0  0  0  0  0  0  0
  189.5790  174.2520  135.3250 C   0  0  0  0  0  2  0  0  0  0  0  0
  185.6650  173.1980  137.8940 O   0  0  0  0  0  1  0  0  0  0  0  0
  185.5580  176.6770  135.6980 C   0  0  1  0  0  3  0  0  0  0  0  0
  186.9630  175.2330  137.2090 C   0  0  2  0  0  0  0  0  0  0  0  0
  186.4150  178.2410  141.3140 C   0  0  0  0  0  2  0  0  0  0  0  0
  191.9470  176.0140  138.6320 C   0  0  0  0  0  2  0  0  0  0  0  0
  185.4790  177.7600  136.8280 C   0  0  1  0  0  3  0  0  0  0  0  0
  186.7160  175.6540  135.7560 C   0  0  2  0  0  3  0  0  0  0  0  0
  190.1390  177.6210  141.0660 O   0  0  0  0  0  0  0  0  0  0  0  0
  188.5390  177.9430  139.3110 C   0  0  0  0  0  2  0  0  0  0  0  0
  188.7970  177.4100  140.7160 C   0  0  2  0  0  3  0  0  0  0  0  0
  186.2440  178.6860  139.8550 C   0  0  0  0  0  2  0  0  0  0  0  0
  188.2720  178.5420  142.7430 O   0  0  0  0  0  0  0  0  0  0  0  0
  186.6550  173.7210  137.0650 C   0  0  0  0  0  0  0  0  0  0  0  0
  190.2150  175.0430  136.4630 C   0  0  2  0  0  3  0  0  0  0  0  0
  190.8650  176.5640  140.4960 C   0  0  0  0  0  2  0  0  0  0  0  0
  191.8840  176.5370  137.1990 C   0  0  0  0  0  2  0  0  0  0  0  0
  187.8720  178.1190  141.6700 C   0  0  0  0  0  0  0  0  0  0  0  0
  186.9380  173.0040  135.8960 O   0  0  0  0  0  1  0  0  0  0  0  0
  191.7320  177.0680  139.5200 O   0  0  0  0  0  0  0  0  0  0  0  0
  187.0620  177.7970  138.9240 C   0  0  1  0  0  3  0  0  0  0  0  0
  189.2010  175.7190  135.5350 C   0  0  2  0  0  3  0  0  0  0  0  0
  183.3440  173.0750  134.9520 C   0  0  0  0  0  1  0  0  0  0  0  0
  182.7860  174.2330  135.7680 C   0  0  0  0  0  0  0  0  0  0  0  0
  184.2480  175.9840  135.3130 C   0  0  2  0  0  3  0  0  0  0  0  0
  181.8040  176.3100  135.3670 C   0  0  2  0  0  3  0  0  0  0  0  0
  183.1290  176.9960  135.0710 C   0  0  0  0  0  2  0  0  0  0  0  0
  181.8620  174.9570  134.9560 O   0  0  0  0  0  0  0  0  0  0  0  0
  182.0340  173.6410  136.9490 C   0  0  0  0  0  1  0  0  0  0  0  0
  183.8640  175.0210  136.2730 O   0  0  0  0  0  0  0  0  0  0  0  0
  180.7000  177.0160  134.5940 C   0  0  0  0  0  2  0  0  0  0  0  0
  179.9890  177.8600  135.4450 O   0  0  0  0  0  1  0  0  0  0  0  0
  183.8100  178.5950  137.9130 F   0  0  0  0  0  0  0  0  0  0  0  0
  184.5160  177.4760  137.8100 O   0  0  0  0  0  0  0  0  0  0  0  0
  191.8940  176.0210  134.9190 C   0  0  0  0  0  2  0  0  0  0  0  0
  193.3690  175.9030  134.5940 C   0  0  0  0  0  2  0  0  0  0  0  0
  194.1920  173.5270  134.6140 C   0  0  0  0  0  2  0  0  0  0  0  0
  195.2770  175.2360  135.9890 N   0  0  0  0  0  2  0  0  0  0  0  0
  193.9930  174.8020  135.4350 C   0  0  1  0  0  3  0  0  0  0  0  0
  194.8050  172.4700  135.5290 C   0  0  0  0  0  2  0  0  0  0  0  0
  196.2730  174.2800  136.3790 C   0  0  0  0  0  3  0  0  0  0  0  0
  196.0790  172.9740  136.1570 C   0  0  0  0  0  3  0  0  0  0  0  0
  1 20  1  0  0  0  0
  1 22  1  0  0  0  0
  3  4  1  6  0  0  0
  3 26  1  0  0  0  0
  5  4  1  1  0  0  0
  5  9  1  0  0  0  0
  6 27  1  0  0  0  0
  6 20  1  0  0  0  0
  8 30  1  1  0  0  0
  8 13  1  0  0  0  0
  8 12  1  0  0  0  0
  9  2  1  1  0  0  0
 10 23  1  0  0  0  0
 11 25  1  0  0  0  0
 12  3  1  0  0  0  0
 12 39  1  1  0  0  0
 13  5  1  0  0  0  0
 13  9  1  0  0  0  0
 15 16  1  0  0  0  0
 16 14  1  0  0  0  0
 16 23  1  0  0  0  0
 17 10  1  0  0  0  0
 19  9  1  0  0  0  0
 19  2  1  0  0  0  0
 19  7  1  0  0  0  0
 21 14  1  0  0  0  0
 22 11  1  0  0  0  0
 23 18  2  0  0  0  0
 24 19  1  0  0  0  0
 25 21  1  0  0  0  0
 26 15  1  0  0  0  0
 26 17  1  0  0  0  0
 27  5  1  0  0  0  0
 27 20  1  0  0  0  0
 28 29  1  0  0  0  0
 29 35  1  0  0  0  0
 29 34  1  0  0  0  0
 30 35  1  0  0  0  0
 32 30  1  0  0  0  0
 32 31  1  0  0  0  0
 33 31  1  0  0  0  0
 33 29  1  0  0  0  0
 36 31  1  0  0  0  0
 36 37  1  0  0  0  0
 39 38  1  0  0  0  0
 40  1  1  0  0  0  0
 41 40  1  0  0  0  0
 41 44  1  0  0  0  0
 42 44  1  0  0  0  0
 42 45  1  0  0  0  0
 43 46  1  0  0  0  0
 44 43  1  0  0  0  0
 45 47  1  0  0  0  0
 47 46  2  0  0  0  0
M  END
>  <MODEL>
1

>  <REMARK>
 VINA RESULT:      -5.0      0.000      0.000
  Name = 
  6 active torsions:
  status: ('A' for Active; 'I' for Inactive)
    1  A    between atoms: N_2  and  C_18
    2  A    between atoms: C_5  and  C_15
    3  A    between atoms: C_9  and  C_16
    4  A    between atoms: C_18  and  C_24
    5  A    between atoms: C_19  and  C_24
    6  A    between atoms: C_23  and  O_33
                            x       y       z     vdW  Elec       q    Type
                         _______ _______ _______ _____ _____    ______ ____

>  <TORSDO>
F 6

$$$$
=
 OpenBabel11062417283D

 47 54  0  0  1  0  0  0  0  0999 V2000
  190.6780  178.1780  140.7710 N   0  0  0  0  0  0  0  0  0  0  0  0
  189.2060  178.0680  136.7540 C   0  0  0  0  0  2  0  0  0  0  0  0
  189.1620  173.9210  137.4250 C   0  0  1  0  0  3  0  0  0  0  0  0
  189.1120  174.8360  138.6460 C   0  0  0  0  0  2  0  0  0  0  0  0
  188.6540  176.2700  138.3350 C   0  0  1  0  0  0  0  0  0  0  0  0
  188.4550  178.6180  139.6120 C   0  0  0  0  0  2  0  0  0  0  0  0
  187.7150  178.1450  134.8940 O   0  0  0  0  0  1  0  0  0  0  0  0
  186.7350  174.9210  137.2560 C   0  0  1  0  0  3  0  0  0  0  0  0
  188.4430  176.7210  136.8270 C   0  0  2  0  0  0  0  0  0  0  0  0
  191.8190  173.5900  134.5940 C   0  0  0  0  0  2  0  0  0  0  0  0
  192.7930  177.7050  139.5800 C   0  0  0  0  0  2  0  0  0  0  0  0
  187.7620  173.8460  136.7630 C   0  0  1  0  0  3  0  0  0  0  0  0
  187.2860  176.2850  137.7330 C   0  0  2  0  0  3  0  0  0  0  0  0
  193.8310  175.4900  137.1740 O   0  0  0  0  0  0  0  0  0  0  0  0
  191.5790  174.6780  137.3080 C   0  0  0  0  0  2  0  0  0  0  0  0
  192.6830  175.2250  136.4100 C   0  0  2  0  0  3  0  0  0  0  0  0
  190.7100  173.1570  135.5630 C   0  0  0  0  0  2  0  0  0  0  0  0
  194.1180  173.9200  135.0300 O   0  0  0  0  0  0  0  0  0  0  0  0
  187.8220  178.0310  136.2780 C   0  0  0  0  0  0  0  0  0  0  0  0
  189.8750  178.0690  139.5290 C   0  0  2  0  0  3  0  0  0  0  0  0
  193.6330  176.7520  137.7550 C   0  0  0  0  0  2  0  0  0  0  0  0
  191.7880  177.2370  140.6300 C   0  0  0  0  0  2  0  0  0  0  0  0
  192.9720  174.2060  135.3380 C   0  0  0  0  0  0  0  0  0  0  0  0
  186.9700  178.8370  137.0430 O   0  0  0  0  0  1  0  0  0  0  0  0
  193.5480  176.6160  139.1440 O   0  0  0  0  0  0  0  0  0  0  0  0
  190.3350  174.3060  136.4940 C   0  0  1  0  0  3  0  0  0  0  0  0
  188.6880  177.1080  139.6270 C   0  0  2  0  0  3  0  0  0  0  0  0
  183.7660  173.3260  134.5940 C   0  0  0  0  0  1  0  0  0  0  0  0
  183.4220  174.2400  135.7620 C   0  0  0  0  0  0  0  0  0  0  0  0
  185.4790  175.1190  136.4000 C   0  0  2  0  0  3  0  0  0  0  0  0
  183.4590  176.5230  136.2340 C   0  0  2  0  0  3  0  0  0  0  0  0
  184.9580  176.5520  136.4940 C   0  0  0  0  0  2  0  0  0  0  0  0
  183.1610  175.5480  135.2540 O   0  0  0  0  0  0  0  0  0  0  0  0
  182.1520  173.7060  136.4040 C   0  0  0  0  0  1  0  0  0  0  0  0
  184.4700  174.1880  136.7310 O   0  0  0  0  0  0  0  0  0  0  0  0
  183.0230  177.8890  135.7240 C   0  0  0  0  0  2  0  0  0  0  0  0
  181.6860  177.8430  135.3300 O   0  0  0  0  0  1  0  0  0  0  0  0
  187.1870  172.6210  135.0820 F   0  0  0  0  0  0  0  0  0  0  0  0
  187.8380  173.7420  135.3650 O   0  0  0  0  0  0  0  0  0  0  0  0
  189.9720  177.7930  141.9930 C   0  0  0  0  0  2  0  0  0  0  0  0
  190.9320  177.1560  142.9760 C   0  0  0  0  0  2  0  0  0  0  0  0
  189.1220  177.1330  144.7210 C   0  0  0  0  0  2  0  0  0  0  0  0
  191.4760  176.9560  145.3630 N   0  0  0  0  0  2  0  0  0  0  0  0
  190.5550  177.5530  144.3940 C   0  0  1  0  0  3  0  0  0  0  0  0
  188.8150  177.5780  146.1480 C   0  0  0  0  0  2  0  0  0  0  0  0
  191.0810  176.7530  146.7270 C   0  0  0  0  0  3  0  0  0  0  0  0
  189.8290  177.0240  147.1150 C   0  0  0  0  0  3  0  0  0  0  0  0
  1 40  1  0  0  0  0
  3  4  1  1  0  0  0
  5  4  1  1  0  0  0
  5 27  1  0  0  0  0
  6 27  1  0  0  0  0
  7 19  1  0  0  0  0
  8 30  1  6  0  0  0
  8 13  1  0  0  0  0
  9  2  1  6  0  0  0
  9 13  1  0  0  0  0
  9  5  1  0  0  0  0
 10 23  1  0  0  0  0
 10 17  1  0  0  0  0
 11 22  1  0  0  0  0
 12 39  1  6  0  0  0
 12  8  1  0  0  0  0
 12  3  1  0  0  0  0
 13  5  1  0  0  0  0
 14 21  1  0  0  0  0
 16 14  1  0  0  0  0
 16 15  1  0  0  0  0
 17 26  1  0  0  0  0
 18 23  2  0  0  0  0
 19  2  1  0  0  0  0
 19  9  1  0  0  0  0
 19 24  1  0  0  0  0
 20  6  1  0  0  0  0
 20 27  1  0  0  0  0
 20  1  1  0  0  0  0
 21 25  1  0  0  0  0
 22  1  1  0  0  0  0
 23 16  1  0  0  0  0
 25 11  1  0  0  0  0
 26 15  1  0  0  0  0
 26  3  1  0  0  0  0
 28 29  1  0  0  0  0
 29 34  1  0  0  0  0
 29 35  1  0  0  0  0
 30 32  1  0  0  0  0
 30 35  1  0  0  0  0
 31 32  1  0  0  0  0
 33 29  1  0  0  0  0
 33 31  1  0  0  0  0
 36 31  1  0  0  0  0
 37 36  1  0  0  0  0
 38 39  1  0  0  0  0
 40 41  1  0  0  0  0
 41 44  1  0  0  0  0
 42 45  1  0  0  0  0
 43 46  1  0  0  0  0
 44 42  1  0  0  0  0
 44 43  1  0  0  0  0
 45 47  1  0  0  0  0
 46 47  2  0  0  0  0
M  END
>  <MODEL>
2

>  <REMARK>
 VINA RESULT:      -4.9      3.045      6.359
  Name = 
  6 active torsions:
  status: ('A' for Active; 'I' for Inactive)
    1  A    between atoms: N_2  and  C_18
    2  A    between atoms: C_5  and  C_15
    3  A    between atoms: C_9  and  C_16
    4  A    between atoms: C_18  and  C_24
    5  A    between atoms: C_19  and  C_24
    6  A    between atoms: C_23  and  O_33
                            x       y       z     vdW  Elec       q    Type
                         _______ _______ _______ _____ _____    ______ ____

>  <TORSDO>
F 6

$$$$
=
 OpenBabel11062417283D

 47 54  0  0  1  0  0  0  0  0999 V2000
  179.7790  179.2030  136.5450 N   0  0  0  0  0  0  0  0  0  0  0  0
  182.1730  177.4060  139.6040 C   0  0  0  0  0  2  0  0  0  0  0  0
  184.5660  176.2600  136.3480 C   0  0  1  0  0  3  0  0  0  0  0  0
  183.6490  177.4650  136.1610 C   0  0  0  0  0  2  0  0  0  0  0  0
  183.1850  178.1090  137.4790 C   0  0  1  0  0  0  0  0  0  0  0  0
  181.4670  180.0060  138.2720 C   0  0  0  0  0  2  0  0  0  0  0  0
  183.7820  177.1370  141.3440 O   0  0  0  0  0  1  0  0  0  0  0  0
  185.7410  178.0740  137.8480 C   0  0  1  0  0  3  0  0  0  0  0  0
  183.5340  177.4110  138.8620 C   0  0  2  0  0  0  0  0  0  0  0  0
  183.7600  172.5580  137.2560 C   0  0  0  0  0  2  0  0  0  0  0  0
  178.9310  176.8840  136.4100 C   0  0  0  0  0  2  0  0  0  0  0  0
  185.8270  176.6740  137.1500 C   0  0  1  0  0  3  0  0  0  0  0  0
  184.3480  178.5780  138.2920 C   0  0  2  0  0  3  0  0  0  0  0  0
  180.3220  173.7520  136.2240 O   0  0  0  0  0  0  0  0  0  0  0  0
  182.3990  174.9490  136.2370 C   0  0  0  0  0  2  0  0  0  0  0  0
  181.5510  173.8640  136.8920 C   0  0  2  0  0  3  0  0  0  0  0  0
  184.5180  173.7380  136.6330 C   0  0  0  0  0  2  0  0  0  0  0  0
  181.7680  171.5230  136.5170 O   0  0  0  0  0  0  0  0  0  0  0  0
  183.3390  177.9500  140.3030 C   0  0  0  0  0  0  0  0  0  0  0  0
  180.8150  178.8380  137.5410 C   0  0  2  0  0  3  0  0  0  0  0  0
  179.4970  174.7600  136.7470 C   0  0  0  0  0  2  0  0  0  0  0  0
  179.6110  178.0380  135.6770 C   0  0  0  0  0  2  0  0  0  0  0  0
  182.3150  172.5660  136.8370 C   0  0  0  0  0  0  0  0  0  0  0  0
  183.2090  179.3150  140.5830 O   0  0  0  0  0  1  0  0  0  0  0  0
  179.2030  175.6880  135.7430 O   0  0  0  0  0  0  0  0  0  0  0  0
  183.7800  175.0460  136.8950 C   0  0  1  0  0  3  0  0  0  0  0  0
  182.2330  179.2790  137.1680 C   0  0  2  0  0  3  0  0  0  0  0  0
  186.7380  179.5940  141.7380 C   0  0  0  0  0  1  0  0  0  0  0  0
  187.3050  178.2920  141.1910 C   0  0  0  0  0  0  0  0  0  0  0  0
  186.7890  178.3750  138.9240 C   0  0  2  0  0  3  0  0  0  0  0  0
  188.9970  177.6270  139.7300 C   0  0  2  0  0  3  0  0  0  0  0  0
  188.1860  177.9410  138.4820 C   0  0  0  0  0  2  0  0  0  0  0  0
  188.6480  178.5240  140.7670 O   0  0  0  0  0  0  0  0  0  0  0  0
  187.3220  177.2840  142.3290 C   0  0  0  0  0  1  0  0  0  0  0  0
  186.4460  177.7930  140.1650 O   0  0  0  0  0  0  0  0  0  0  0  0
  190.4750  177.7890  139.4100 C   0  0  0  0  0  2  0  0  0  0  0  0
  191.2400  177.4820  140.5340 O   0  0  0  0  0  1  0  0  0  0  0  0
  187.2830  175.0920  137.3370 F   0  0  0  0  0  0  0  0  0  0  0  0
  186.2790  175.6510  138.0000 O   0  0  0  0  0  0  0  0  0  0  0  0
  180.1390  180.3160  135.6660 C   0  0  0  0  0  2  0  0  0  0  0  0
  179.1700  181.4660  135.8520 C   0  0  0  0  0  2  0  0  0  0  0  0
  180.1410  183.7360  135.3790 C   0  0  0  0  0  2  0  0  0  0  0  0
  179.1440  183.2330  137.5570 N   0  0  0  0  0  2  0  0  0  0  0  0
  179.8990  182.6620  136.4400 C   0  0  1  0  0  3  0  0  0  0  0  0
  180.8880  184.8910  136.0410 C   0  0  0  0  0  2  0  0  0  0  0  0
  179.3310  184.6010  137.9500 C   0  0  0  0  0  3  0  0  0  0  0  0
  180.1340  185.4040  137.2410 C   0  0  0  0  0  3  0  0  0  0  0  0
  1 20  1  0  0  0  0
  2 19  1  0  0  0  0
  3  4  1  1  0  0  0
  3 26  1  0  0  0  0
  3 12  1  0  0  0  0
  5  4  1  6  0  0  0
  5 13  1  0  0  0  0
  5  9  1  0  0  0  0
  8 13  1  0  0  0  0
  8 30  1  1  0  0  0
  9  2  1  6  0  0  0
  9 19  1  0  0  0  0
 12  8  1  0  0  0  0
 12 39  1  1  0  0  0
 13  9  1  0  0  0  0
 14 21  1  0  0  0  0
 14 16  1  0  0  0  0
 15 16  1  0  0  0  0
 15 26  1  0  0  0  0
 17 26  1  0  0  0  0
 17 10  1  0  0  0  0
 18 23  2  0  0  0  0
 19 24  1  0  0  0  0
 19  7  1  0  0  0  0
 20  6  1  0  0  0  0
 22 11  1  0  0  0  0
 22  1  1  0  0  0  0
 23 16  1  0  0  0  0
 23 10  1  0  0  0  0
 25 11  1  0  0  0  0
 25 21  1  0  0  0  0
 27  5  1  0  0  0  0
 27 20  1  0  0  0  0
 27  6  1  0  0  0  0
 29 28  1  0  0  0  0
 29 34  1  0  0  0  0
 30 35  1  0  0  0  0
 31 33  1  0  0  0  0
 32 30  1  0  0  0  0
 32 31  1  0  0  0  0
 33 29  1  0  0  0  0
 35 29  1  0  0  0  0
 36 31  1  0  0  0  0
 36 37  1  0  0  0  0
 38 39  1  0  0  0  0
 40 41  1  0  0  0  0
 40  1  1  0  0  0  0
 41 44  1  0  0  0  0
 42 45  1  0  0  0  0
 42 44  1  0  0  0  0
 43 46  1  0  0  0  0
 44 43  1  0  0  0  0
 45 47  1  0  0  0  0
 47 46  2  0  0  0  0
M  END
>  <MODEL>
3

>  <REMARK>
 VINA RESULT:      -4.7      4.495     10.531
  Name = 
  6 active torsions:
  status: ('A' for Active; 'I' for Inactive)
    1  A    between atoms: N_2  and  C_18
    2  A    between atoms: C_5  and  C_15
    3  A    between atoms: C_9  and  C_16
    4  A    between atoms: C_18  and  C_24
    5  A    between atoms: C_19  and  C_24
    6  A    between atoms: C_23  and  O_33
                            x       y       z     vdW  Elec       q    Type
                         _______ _______ _______ _____ _____    ______ ____

>  <TORSDO>
F 6

$$$$
=
 OpenBabel11062417283D

 47 54  0  0  1  0  0  0  0  0999 V2000
  190.9980  177.8540  139.9290 N   0  0  0  0  0  0  0  0  0  0  0  0
  188.8520  177.8290  136.2260 C   0  0  0  0  0  2  0  0  0  0  0  0
  187.4680  174.1240  137.6400 C   0  0  1  0  0  3  0  0  0  0  0  0
  187.9780  175.1280  138.6700 C   0  0  0  0  0  2  0  0  0  0  0  0
  188.0080  176.5800  138.1660 C   0  0  1  0  0  0  0  0  0  0  0  0
  188.9000  178.9630  139.0090 C   0  0  0  0  0  2  0  0  0  0  0  0
  187.1640  178.2430  134.5940 O   0  0  0  0  0  1  0  0  0  0  0  0
  185.5680  175.9430  137.6100 C   0  0  1  0  0  3  0  0  0  0  0  0
  187.6890  176.8930  136.6420 C   0  0  2  0  0  0  0  0  0  0  0  0
  189.2490  172.4700  134.5940 C   0  0  0  0  0  2  0  0  0  0  0  0
  192.5420  176.4730  138.5780 C   0  0  0  0  0  2  0  0  0  0  0  0
  186.0340  174.5070  137.1910 C   0  0  1  0  0  3  0  0  0  0  0  0
  186.6470  177.0420  137.7560 C   0  0  2  0  0  3  0  0  0  0  0  0
  192.2520  173.7580  136.4990 O   0  0  0  0  0  0  0  0  0  0  0  0
  189.9280  173.8850  137.0720 C   0  0  0  0  0  2  0  0  0  0  0  0
  190.9630  173.8590  135.9530 C   0  0  2  0  0  3  0  0  0  0  0  0
  188.2630  172.6110  135.7610 C   0  0  0  0  0  2  0  0  0  0  0  0
  191.5530  171.9510  134.6580 O   0  0  0  0  0  0  0  0  0  0  0  0
  187.4820  178.2650  135.9500 C   0  0  0  0  0  0  0  0  0  0  0  0
  189.9900  177.9090  138.8430 C   0  0  2  0  0  3  0  0  0  0  0  0
  192.6290  175.0600  136.8620 C   0  0  0  0  0  2  0  0  0  0  0  0
  191.6550  176.5520  139.8170 C   0  0  0  0  0  2  0  0  0  0  0  0
  190.6640  172.6860  135.0560 C   0  0  0  0  0  0  0  0  0  0  0  0
  187.1320  179.4190  136.6600 O   0  0  0  0  0  1  0  0  0  0  0  0
  192.7650  175.1350  138.2520 O   0  0  0  0  0  0  0  0  0  0  0  0
  188.5030  173.9190  136.5090 C   0  0  1  0  0  3  0  0  0  0  0  0
  188.5800  177.4910  139.2680 C   0  0  2  0  0  3  0  0  0  0  0  0
  182.5330  175.5730  134.5950 C   0  0  0  0  0  1  0  0  0  0  0  0
  182.2310  176.0130  136.0210 C   0  0  0  0  0  0  0  0  0  0  0  0
  184.3270  176.4990  136.9050 C   0  0  2  0  0  3  0  0  0  0  0  0
  182.3800  177.9620  137.2920 C   0  0  2  0  0  3  0  0  0  0  0  0
  183.8770  177.8220  137.5220 C   0  0  0  0  0  2  0  0  0  0  0  0
  182.0370  177.4270  136.0280 O   0  0  0  0  0  0  0  0  0  0  0  0
  180.9330  175.3430  136.4420 C   0  0  0  0  0  1  0  0  0  0  0  0
  183.2710  175.5610  136.8880 O   0  0  0  0  0  0  0  0  0  0  0  0
  182.0140  179.4380  137.3210 C   0  0  0  0  0  2  0  0  0  0  0  0
  180.9470  179.6460  138.1940 O   0  0  0  0  0  1  0  0  0  0  0  0
  185.9530  175.3790  135.2190 F   0  0  0  0  0  0  0  0  0  0  0  0
  185.8030  174.2150  135.8370 O   0  0  0  0  0  0  0  0  0  0  0  0
  190.4460  177.9160  141.2820 C   0  0  0  0  0  2  0  0  0  0  0  0
  189.9880  176.5420  141.7260 C   0  0  0  0  0  2  0  0  0  0  0  0
  189.8980  177.9090  143.8340 C   0  0  0  0  0  2  0  0  0  0  0  0
  188.0110  176.4940  143.1820 N   0  0  0  0  0  2  0  0  0  0  0  0
  189.4710  176.6090  143.1530 C   0  0  1  0  0  3  0  0  0  0  0  0
  189.3560  177.8940  145.2610 C   0  0  0  0  0  2  0  0  0  0  0  0
  187.2530  177.0080  144.2870 C   0  0  0  0  0  3  0  0  0  0  0  0
  187.8630  177.6850  145.2680 C   0  0  0  0  0  3  0  0  0  0  0  0
  1 40  1  0  0  0  0
  3  4  1  1  0  0  0
  5  4  1  1  0  0  0
  5 27  1  0  0  0  0
  6 27  1  0  0  0  0
  7 19  1  0  0  0  0
  8 30  1  6  0  0  0
  8 13  1  0  0  0  0
  9  2  1  6  0  0  0
  9 13  1  0  0  0  0
  9  5  1  0  0  0  0
 10 23  1  0  0  0  0
 10 17  1  0  0  0  0
 11 22  1  0  0  0  0
 12 39  1  6  0  0  0
 12  8  1  0  0  0  0
 12  3  1  0  0  0  0
 13  5  1  0  0  0  0
 14 21  1  0  0  0  0
 16 14  1  0  0  0  0
 16 15  1  0  0  0  0
 17 26  1  0  0  0  0
 18 23  2  0  0  0  0
 19  2  1  0  0  0  0
 19  9  1  0  0  0  0
 19 24  1  0  0  0  0
 20  6  1  0  0  0  0
 20 27  1  0  0  0  0
 20  1  1  0  0  0  0
 21 25  1  0  0  0  0
 22  1  1  0  0  0  0
 23 16  1  0  0  0  0
 25 11  1  0  0  0  0
 26 15  1  0  0  0  0
 26  3  1  0  0  0  0
 28 29  1  0  0  0  0
 29 33  1  0  0  0  0
 29 34  1  0  0  0  0
 29 35  1  0  0  0  0
 30 32  1  0  0  0  0
 31 36  1  0  0  0  0
 31 32  1  0  0  0  0
 33 31  1  0  0  0  0
 35 30  1  0  0  0  0
 36 37  1  0  0  0  0
 38 39  1  0  0  0  0
 40 41  1  0  0  0  0
 41 44  1  0  0  0  0
 42 45  1  0  0  0  0
 43 46  1  0  0  0  0
 44 43  1  0  0  0  0
 44 42  1  0  0  0  0
 45 47  1  0  0  0  0
 46 47  2  0  0  0  0
M  END
>  <MODEL>
4

>  <REMARK>
 VINA RESULT:      -3.7      2.655      6.139
  Name = 
  6 active torsions:
  status: ('A' for Active; 'I' for Inactive)
    1  A    between atoms: N_2  and  C_18
    2  A    between atoms: C_5  and  C_15
    3  A    between atoms: C_9  and  C_16
    4  A    between atoms: C_18  and  C_24
    5  A    between atoms: C_19  and  C_24
    6  A    between atoms: C_23  and  O_33
                            x       y       z     vdW  Elec       q    Type
                         _______ _______ _______ _____ _____    ______ ____

>  <TORSDO>
F 6

$$$$
=
 OpenBabel11062417283D

 47 54  0  0  1  0  0  0  0  0999 V2000
  189.1840  176.9000  136.9370 N   0  0  0  0  0  0  0  0  0  0  0  0
  185.4380  175.3300  138.2850 C   0  0  0  0  0  2  0  0  0  0  0  0
  184.6770  179.3490  139.2410 C   0  0  1  0  0  3  0  0  0  0  0  0
  185.7290  179.0630  138.1730 C   0  0  0  0  0  2  0  0  0  0  0  0
  185.6170  177.6650  137.5430 C   0  0  1  0  0  0  0  0  0  0  0  0
  187.0160  176.1240  135.8530 C   0  0  0  0  0  2  0  0  0  0  0  0
  183.1900  174.5330  138.2730 O   0  0  0  0  0  1  0  0  0  0  0  0
  183.1980  178.5140  137.2320 C   0  0  1  0  0  3  0  0  0  0  0  0
  184.5830  176.6140  138.1340 C   0  0  2  0  0  0  0  0  0  0  0  0
  184.4750  178.2610  142.9770 C   0  0  0  0  0  2  0  0  0  0  0  0
  189.6810  176.6860  139.3500 C   0  0  0  0  0  2  0  0  0  0  0  0
  183.2570  179.2060  138.6360 C   0  0  1  0  0  3  0  0  0  0  0  0
  184.2850  177.4670  136.8940 C   0  0  2  0  0  3  0  0  0  0  0  0
  188.1280  177.5670  142.2800 O   0  0  0  0  0  0  0  0  0  0  0  0
  186.4570  178.4810  140.8250 C   0  0  0  0  0  2  0  0  0  0  0  0
  186.7560  177.5360  141.9830 C   0  0  2  0  0  3  0  0  0  0  0  0
  184.2520  179.1350  141.7350 C   0  0  0  0  0  2  0  0  0  0  0  0
  186.4260  178.0250  144.2900 O   0  0  0  0  0  0  0  0  0  0  0  0
  184.1650  175.2330  137.5670 C   0  0  0  0  0  0  0  0  0  0  0  0
  187.7680  176.5020  137.1240 C   0  0  2  0  0  3  0  0  0  0  0  0
  188.7470  176.6980  141.3680 C   0  0  0  0  0  2  0  0  0  0  0  0
  189.5740  177.6210  138.1480 C   0  0  0  0  0  2  0  0  0  0  0  0
  185.9370  177.9670  143.1720 C   0  0  0  0  0  0  0  0  0  0  0  0
  184.3330  174.8910  136.2200 O   0  0  0  0  0  1  0  0  0  0  0  0
  189.5890  177.4310  140.5260 O   0  0  0  0  0  0  0  0  0  0  0  0
  184.9550  178.5310  140.5240 C   0  0  1  0  0  3  0  0  0  0  0  0
  186.7520  177.4750  136.5200 C   0  0  2  0  0  3  0  0  0  0  0  0
  178.9420  179.0480  137.0340 C   0  0  0  0  0  1  0  0  0  0  0  0
  179.7810  178.6480  135.8280 C   0  0  0  0  0  0  0  0  0  0  0  0
  181.8240  178.0340  136.7550 C   0  0  2  0  0  3  0  0  0  0  0  0
  180.7530  176.7110  134.9700 C   0  0  2  0  0  3  0  0  0  0  0  0
  181.9330  176.7520  135.9310 C   0  0  0  0  0  2  0  0  0  0  0  0
  179.6060  177.2510  135.5970 O   0  0  0  0  0  0  0  0  0  0  0  0
  179.2470  179.4100  134.6260 C   0  0  0  0  0  1  0  0  0  0  0  0
  181.1370  179.0410  136.0410 O   0  0  0  0  0  0  0  0  0  0  0  0
  180.4770  175.2630  134.5940 C   0  0  0  0  0  2  0  0  0  0  0  0
  180.8930  174.4180  135.6210 O   0  0  0  0  0  1  0  0  0  0  0  0
  181.5600  179.7170  139.8680 F   0  0  0  0  0  0  0  0  0  0  0  0
  182.3340  178.6850  139.5560 O   0  0  0  0  0  0  0  0  0  0  0  0
  189.4200  177.8190  135.8230 C   0  0  0  0  0  2  0  0  0  0  0  0
  190.3900  177.2060  134.8340 C   0  0  0  0  0  2  0  0  0  0  0  0
  190.4140  174.7020  134.6090 C   0  0  0  0  0  2  0  0  0  0  0  0
  192.4040  175.9060  135.3700 N   0  0  0  0  0  2  0  0  0  0  0  0
  190.9400  175.9050  135.3930 C   0  0  1  0  0  3  0  0  0  0  0  0
  190.9950  173.4390  135.2380 C   0  0  0  0  0  2  0  0  0  0  0  0
  193.1420  174.6760  135.3620 C   0  0  0  0  0  3  0  0  0  0  0  0
  192.5000  173.5040  135.2840 C   0  0  0  0  0  3  0  0  0  0  0  0
  1 20  1  0  0  0  0
  1 22  1  0  0  0  0
  3  4  1  6  0  0  0
  3 26  1  0  0  0  0
  5  9  1  0  0  0  0
  5  4  1  1  0  0  0
  6 27  1  0  0  0  0
  6 20  1  0  0  0  0
  8 30  1  1  0  0  0
  8 12  1  0  0  0  0
  9  2  1  1  0  0  0
 10 23  1  0  0  0  0
 11 25  1  0  0  0  0
 12  3  1  0  0  0  0
 12 39  1  1  0  0  0
 13  8  1  0  0  0  0
 13  5  1  0  0  0  0
 13  9  1  0  0  0  0
 15 16  1  0  0  0  0
 16 14  1  0  0  0  0
 16 23  1  0  0  0  0
 17 10  1  0  0  0  0
 19  9  1  0  0  0  0
 19  7  1  0  0  0  0
 19  2  1  0  0  0  0
 21 14  1  0  0  0  0
 22 11  1  0  0  0  0
 23 18  2  0  0  0  0
 24 19  1  0  0  0  0
 25 21  1  0  0  0  0
 26 15  1  0  0  0  0
 26 17  1  0  0  0  0
 27 20  1  0  0  0  0
 27  5  1  0  0  0  0
 29 35  1  0  0  0  0
 29 28  1  0  0  0  0
 31 33  1  0  0  0  0
 31 32  1  0  0  0  0
 32 30  1  0  0  0  0
 33 29  1  0  0  0  0
 34 29  1  0  0  0  0
 35 30  1  0  0  0  0
 36 31  1  0  0  0  0
 36 37  1  0  0  0  0
 39 38  1  0  0  0  0
 40  1  1  0  0  0  0
 41 44  1  0  0  0  0
 41 40  1  0  0  0  0
 42 45  1  0  0  0  0
 42 44  1  0  0  0  0
 43 44  1  0  0  0  0
 45 47  1  0  0  0  0
 46 43  1  0  0  0  0
 47 46  2  0  0  0  0
M  END
>  <MODEL>
5

>  <REMARK>
 VINA RESULT:      -3.1      1.955      3.370
  Name = 
  6 active torsions:
  status: ('A' for Active; 'I' for Inactive)
    1  A    between atoms: N_2  and  C_18
    2  A    between atoms: C_5  and  C_15
    3  A    between atoms: C_9  and  C_16
    4  A    between atoms: C_18  and  C_24
    5  A    between atoms: C_19  and  C_24
    6  A    between atoms: C_23  and  O_33
                            x       y       z     vdW  Elec       q    Type
                         _______ _______ _______ _____ _____    ______ ____

>  <TORSDO>
F 6

$$$$
=
 OpenBabel11062417283D

 47 54  0  0  1  0  0  0  0  0999 V2000
  182.8760  175.0710  135.8430 N   0  0  0  0  0  0  0  0  0  0  0  0
  184.5240  178.5650  137.6850 C   0  0  0  0  0  2  0  0  0  0  0  0
  181.0340  178.3620  140.0130 C   0  0  1  0  0  3  0  0  0  0  0  0
  181.5130  177.0770  139.3440 C   0  0  0  0  0  2  0  0  0  0  0  0
  182.9940  177.1010  138.9310 C   0  0  1  0  0  0  0  0  0  0  0  0
  184.7010  175.5670  137.5460 C   0  0  0  0  0  2  0  0  0  0  0  0
  185.8270  179.9610  139.1130 O   0  0  0  0  0  1  0  0  0  0  0  0
  183.1890  177.7940  141.4110 C   0  0  1  0  0  3  0  0  0  0  0  0
  183.8280  178.4460  139.0640 C   0  0  2  0  0  0  0  0  0  0  0  0
  180.0030  181.7980  138.4910 C   0  0  0  0  0  2  0  0  0  0  0  0
  181.6350  176.8080  134.5940 C   0  0  0  0  0  2  0  0  0  0  0  0
  181.8820  178.6480  141.2790 C   0  0  1  0  0  3  0  0  0  0  0  0
  183.8840  177.3270  140.1100 C   0  0  2  0  0  3  0  0  0  0  0  0
  179.8510  179.6270  135.3960 O   0  0  0  0  0  0  0  0  0  0  0  0
  180.3740  179.0110  137.6530 C   0  0  0  0  0  2  0  0  0  0  0  0
  180.4340  180.0960  136.5840 C   0  0  2  0  0  3  0  0  0  0  0  0
  180.0220  180.6300  139.4870 C   0  0  0  0  0  2  0  0  0  0  0  0
  178.9310  181.9320  136.3900 O   0  0  0  0  0  0  0  0  0  0  0  0
  185.3520  178.6710  138.8880 C   0  0  0  0  0  0  0  0  0  0  0  0
  183.5110  176.0700  136.7350 C   0  0  2  0  0  3  0  0  0  0  0  0
  180.8420  178.8800  134.7400 C   0  0  0  0  0  2  0  0  0  0  0  0
  181.5500  175.5940  135.5150 C   0  0  0  0  0  2  0  0  0  0  0  0
  179.7060  181.3110  137.0990 C   0  0  0  0  0  0  0  0  0  0  0  0
  186.2820  177.6300  138.9940 O   0  0  0  0  0  1  0  0  0  0  0  0
  180.4500  177.5390  134.6810 O   0  0  0  0  0  0  0  0  0  0  0  0
  180.9340  179.5150  138.9880 C   0  0  1  0  0  3  0  0  0  0  0  0
  183.3500  175.7770  138.2290 C   0  0  2  0  0  3  0  0  0  0  0  0
  184.2010  180.1710  144.8410 C   0  0  0  0  0  1  0  0  0  0  0  0
  184.6600  178.7300  144.6710 C   0  0  0  0  0  0  0  0  0  0  0  0
  184.2270  178.2720  142.4320 C   0  0  2  0  0  3  0  0  0  0  0  0
  186.3280  177.5760  143.5190 C   0  0  2  0  0  3  0  0  0  0  0  0
  185.5900  177.6270  142.1890 C   0  0  0  0  0  2  0  0  0  0  0  0
  186.0320  178.7340  144.2760 O   0  0  0  0  0  0  0  0  0  0  0  0
  184.5480  178.0500  146.0250 C   0  0  0  0  0  1  0  0  0  0  0  0
  183.7910  178.0580  143.7580 O   0  0  0  0  0  0  0  0  0  0  0  0
  187.8240  177.5290  143.2490 C   0  0  0  0  0  2  0  0  0  0  0  0
  188.1160  178.2190  142.0740 O   0  0  0  0  0  1  0  0  0  0  0  0
  181.2640  180.3320  142.4800 F   0  0  0  0  0  0  0  0  0  0  0  0
  182.0870  180.0210  141.4860 O   0  0  0  0  0  0  0  0  0  0  0  0
  182.6560  173.7580  136.4510 C   0  0  0  0  0  2  0  0  0  0  0  0
  181.1980  173.5910  136.8270 C   0  0  0  0  0  2  0  0  0  0  0  0
  179.4960  171.9570  135.9590 C   0  0  0  0  0  2  0  0  0  0  0  0
  181.8630  171.3490  136.0760 N   0  0  0  0  0  2  0  0  0  0  0  0
  180.8060  172.1260  136.7270 C   0  0  1  0  0  3  0  0  0  0  0  0
  179.1640  170.4680  135.9160 C   0  0  0  0  0  2  0  0  0  0  0  0
  181.5680  170.1050  135.4250 C   0  0  0  0  0  3  0  0  0  0  0  0
  180.3030  169.6790  135.3230 C   0  0  0  0  0  3  0  0  0  0  0  0
  1 40  1  0  0  0  0
  1 20  1  0  0  0  0
  2 19  1  0  0  0  0
  3  4  1  6  0  0  0
  3 12  1  0  0  0  0
  5  9  1  0  0  0  0
  5  4  1  1  0  0  0
  5 13  1  0  0  0  0
  6 27  1  0  0  0  0
  8 30  1  6  0  0  0
  9  2  1  1  0  0  0
  9 13  1  0  0  0  0
 10 17  1  0  0  0  0
 11 25  1  0  0  0  0
 11 22  1  0  0  0  0
 12  8  1  0  0  0  0
 12 39  1  6  0  0  0
 13  8  1  0  0  0  0
 14 16  1  0  0  0  0
 15 26  1  0  0  0  0
 16 23  1  0  0  0  0
 16 15  1  0  0  0  0
 18 23  2  0  0  0  0
 19 24  1  0  0  0  0
 19  9  1  0  0  0  0
 19  7  1  0  0  0  0
 20  6  1  0  0  0  0
 20 27  1  0  0  0  0
 21 14  1  0  0  0  0
 22  1  1  0  0  0  0
 23 10  1  0  0  0  0
 25 21  1  0  0  0  0
 26 17  1  0  0  0  0
 26  3  1  0  0  0  0
 27  5  1  0  0  0  0
 29 28  1  0  0  0  0
 29 34  1  0  0  0  0
 30 35  1  0  0  0  0
 31 33  1  0  0  0  0
 32 30  1  0  0  0  0
 32 31  1  0  0  0  0
 33 29  1  0  0  0  0
 35 29  1  0  0  0  0
 36 31  1  0  0  0  0
 37 36  1  0  0  0  0
 39 38  1  0  0  0  0
 40 41  1  0  0  0  0
 42 44  1  0  0  0  0
 43 44  1  0  0  0  0
 44 41  1  0  0  0  0
 45 42  1  0  0  0  0
 46 43  1  0  0  0  0
 47 46  2  0  0  0  0
 47 45  1  0  0  0  0
M  END
>  <MODEL>
6

>  <REMARK>
 VINA RESULT:      -3.1      5.457      9.704
  Name = 
  6 active torsions:
  status: ('A' for Active; 'I' for Inactive)
    1  A    between atoms: N_2  and  C_18
    2  A    between atoms: C_5  and  C_15
    3  A    between atoms: C_9  and  C_16
    4  A    between atoms: C_18  and  C_24
    5  A    between atoms: C_19  and  C_24
    6  A    between atoms: C_23  and  O_33
                            x       y       z     vdW  Elec       q    Type
                         _______ _______ _______ _____ _____    ______ ____

>  <TORSDO>
F 6

$$$$
=
 OpenBabel11062417283D

 47 54  0  0  1  0  0  0  0  0999 V2000
  183.0180  174.5010  135.0500 N   0  0  0  0  0  0  0  0  0  0  0  0
  185.5440  177.8920  135.7080 C   0  0  0  0  0  2  0  0  0  0  0  0
  183.7620  177.8410  139.5110 C   0  0  1  0  0  3  0  0  0  0  0  0
  183.7640  176.5400  138.7140 C   0  0  0  0  0  2  0  0  0  0  0  0
  184.8150  176.4940  137.5920 C   0  0  1  0  0  0  0  0  0  0  0  0
  185.4820  174.8910  135.5510 C   0  0  0  0  0  2  0  0  0  0  0  0
  187.4630  179.2090  136.2290 O   0  0  0  0  0  1  0  0  0  0  0  0
  186.3000  177.1550  139.6000 C   0  0  1  0  0  3  0  0  0  0  0  0
  185.6590  177.7960  137.2500 C   0  0  2  0  0  0  0  0  0  0  0  0
  182.2540  181.3370  138.6820 C   0  0  0  0  0  2  0  0  0  0  0  0
  181.3930  176.3080  134.5940 C   0  0  0  0  0  2  0  0  0  0  0  0
  185.1560  178.0730  140.1490 C   0  0  1  0  0  3  0  0  0  0  0  0
  186.1970  176.6660  138.1360 C   0  0  2  0  0  3  0  0  0  0  0  0
  180.4170  179.2040  136.1530 O   0  0  0  0  0  0  0  0  0  0  0  0
  182.0050  178.5430  137.8230 C   0  0  0  0  0  2  0  0  0  0  0  0
  181.5530  179.6330  136.8580 C   0  0  2  0  0  3  0  0  0  0  0  0
  182.7310  180.1610  139.5450 C   0  0  0  0  0  2  0  0  0  0  0  0
  180.2550  181.5430  137.4380 O   0  0  0  0  0  0  0  0  0  0  0  0
  186.8800  177.9460  136.3060 C   0  0  0  0  0  0  0  0  0  0  0  0
  184.0700  175.4590  135.4650 C   0  0  2  0  0  3  0  0  0  0  0  0
  180.8880  178.4150  135.0920 C   0  0  0  0  0  2  0  0  0  0  0  0
  181.7410  175.0910  135.4470 C   0  0  0  0  0  2  0  0  0  0  0  0
  181.2550  180.8780  137.6540 C   0  0  0  0  0  0  0  0  0  0  0  0
  187.6800  176.8600  135.9330 O   0  0  0  0  0  1  0  0  0  0  0  0
  180.4600  177.0960  135.2690 O   0  0  0  0  0  0  0  0  0  0  0  0
  183.1980  179.0060  138.6650 C   0  0  1  0  0  3  0  0  0  0  0  0
  184.6930  175.1610  136.8320 C   0  0  2  0  0  3  0  0  0  0  0  0
  189.0590  179.3890  142.0150 C   0  0  0  0  0  1  0  0  0  0  0  0
  189.3030  177.9430  141.6060 C   0  0  0  0  0  0  0  0  0  0  0  0
  187.7370  177.5720  139.9270 C   0  0  2  0  0  3  0  0  0  0  0  0
  190.0670  176.7870  139.7310 C   0  0  2  0  0  3  0  0  0  0  0  0
  188.7420  176.9010  138.9920 C   0  0  0  0  0  2  0  0  0  0  0  0
  190.2600  177.9260  140.5470 O   0  0  0  0  0  0  0  0  0  0  0  0
  189.8940  177.2210  142.8060 C   0  0  0  0  0  1  0  0  0  0  0  0
  188.0580  177.3250  141.2800 O   0  0  0  0  0  0  0  0  0  0  0  0
  191.1940  176.7110  138.7110 C   0  0  0  0  0  2  0  0  0  0  0  0
  190.8070  177.3410  137.5290 O   0  0  0  0  0  1  0  0  0  0  0  0
  185.3660  179.7650  141.4720 F   0  0  0  0  0  0  0  0  0  0  0  0
  185.5020  179.4330  140.1950 O   0  0  0  0  0  0  0  0  0  0  0  0
  183.0840  173.1950  135.7070 C   0  0  0  0  0  2  0  0  0  0  0  0
  182.1050  173.1380  136.8610 C   0  0  0  0  0  2  0  0  0  0  0  0
  179.8840  172.0220  136.4810 C   0  0  0  0  0  2  0  0  0  0  0  0
  181.9690  170.8910  135.8790 N   0  0  0  0  0  2  0  0  0  0  0  0
  181.3570  171.8150  136.8350 C   0  0  1  0  0  3  0  0  0  0  0  0
  179.2010  170.6570  136.4910 C   0  0  0  0  0  2  0  0  0  0  0  0
  181.2120  169.8160  135.3050 C   0  0  0  0  0  3  0  0  0  0  0  0
  179.9040  169.6960  135.5660 C   0  0  0  0  0  3  0  0  0  0  0  0
  1 22  1  0  0  0  0
  1 20  1  0  0  0  0
  1 40  1  0  0  0  0
  2 19  1  0  0  0  0
  3  4  1  6  0  0  0
  3 12  1  0  0  0  0
  5 13  1  0  0  0  0
  5  4  1  1  0  0  0
  6 27  1  0  0  0  0
  7 19  1  0  0  0  0
  8 30  1  6  0  0  0
  8 12  1  0  0  0  0
  9  2  1  1  0  0  0
  9  5  1  0  0  0  0
  9 13  1  0  0  0  0
 10 17  1  0  0  0  0
 11 25  1  0  0  0  0
 11 22  1  0  0  0  0
 12 39  1  6  0  0  0
 13  8  1  0  0  0  0
 14 16  1  0  0  0  0
 15 26  1  0  0  0  0
 16 23  1  0  0  0  0
 16 15  1  0  0  0  0
 18 23  2  0  0  0  0
 19  9  1  0  0  0  0
 20  6  1  0  0  0  0
 20 27  1  0  0  0  0
 21 25  1  0  0  0  0
 21 14  1  0  0  0  0
 23 10  1  0  0  0  0
 24 19  1  0  0  0  0
 26  3  1  0  0  0  0
 26 17  1  0  0  0  0
 27  5  1  0  0  0  0
 29 28  1  0  0  0  0
 29 34  1  0  0  0  0
 30 35  1  0  0  0  0
 31 33  1  0  0  0  0
 32 31  1  0  0  0  0
 32 30  1  0  0  0  0
 33 29  1  0  0  0  0
 35 29  1  0  0  0  0
 36 31  1  0  0  0  0
 37 36  1  0  0  0  0
 39 38  1  0  0  0  0
 40 41  1  0  0  0  0
 42 45  1  0  0  0  0
 42 44  1  0  0  0  0
 43 44  1  0  0  0  0
 44 41  1  0  0  0  0
 46 47  2  0  0  0  0
 46 43  1  0  0  0  0
 47 45  1  0  0  0  0
M  END
>  <MODEL>
7

>  <REMARK>
 VINA RESULT:      -2.6      3.667      9.027
  Name = 
  6 active torsions:
  status: ('A' for Active; 'I' for Inactive)
    1  A    between atoms: N_2  and  C_18
    2  A    between atoms: C_5  and  C_15
    3  A    between atoms: C_9  and  C_16
    4  A    between atoms: C_18  and  C_24
    5  A    between atoms: C_19  and  C_24
    6  A    between atoms: C_23  and  O_33
                            x       y       z     vdW  Elec       q    Type
                         _______ _______ _______ _____ _____    ______ ____

>  <TORSDO>
F 6

$$$$
=
 OpenBabel11062417283D

 47 54  0  0  1  0  0  0  0  0999 V2000
  186.4400  178.4410  142.2860 N   0  0  0  0  0  0  0  0  0  0  0  0
  184.3580  179.7420  138.7810 C   0  0  0  0  0  2  0  0  0  0  0  0
  185.1120  175.8150  137.4950 C   0  0  1  0  0  3  0  0  0  0  0  0
  185.1160  176.0800  138.9980 C   0  0  0  0  0  2  0  0  0  0  0  0
  184.3820  177.3670  139.4090 C   0  0  1  0  0  0  0  0  0  0  0  0
  184.0130  178.8310  141.6240 C   0  0  0  0  0  2  0  0  0  0  0  0
  182.5870  180.2780  137.2760 O   0  0  0  0  0  1  0  0  0  0  0  0
  182.5590  176.2230  137.9810 C   0  0  1  0  0  3  0  0  0  0  0  0
  183.8510  178.3620  138.2900 C   0  0  2  0  0  0  0  0  0  0  0  0
  187.2780  177.3300  134.6330 C   0  0  0  0  0  2  0  0  0  0  0  0
  188.3760  179.0080  140.8560 C   0  0  0  0  0  2  0  0  0  0  0  0
  183.6530  175.7220  136.9780 C   0  0  1  0  0  3  0  0  0  0  0  0
  182.9490  177.3340  138.9840 C   0  0  2  0  0  3  0  0  0  0  0  0
  189.3500  178.3330  137.6360 O   0  0  0  0  0  0  0  0  0  0  0  0
  187.3170  177.0650  137.5550 C   0  0  0  0  0  2  0  0  0  0  0  0
  188.1510  178.1740  136.9230 C   0  0  2  0  0  3  0  0  0  0  0  0
  186.4320  176.2900  135.3800 C   0  0  0  0  0  2  0  0  0  0  0  0
  189.5310  177.9430  134.9970 O   0  0  0  0  0  0  0  0  0  0  0  0
  182.9400  179.6070  138.4460 C   0  0  0  0  0  0  0  0  0  0  0  0
  185.4710  178.7000  141.1950 C   0  0  2  0  0  3  0  0  0  0  0  0
  189.0460  179.1440  138.7400 C   0  0  0  0  0  2  0  0  0  0  0  0
  187.6510  177.9250  141.6510 C   0  0  0  0  0  2  0  0  0  0  0  0
  188.4210  177.8070  135.4870 C   0  0  0  0  0  0  0  0  0  0  0  0
  182.1060  179.7950  139.5540 O   0  0  0  0  0  1  0  0  0  0  0  0
  189.2170  178.4100  139.9180 O   0  0  0  0  0  0  0  0  0  0  0  0
  186.0340  176.8110  136.7560 C   0  0  1  0  0  3  0  0  0  0  0  0
  184.4910  177.5530  140.9330 C   0  0  2  0  0  3  0  0  0  0  0  0
  178.9880  178.6030  137.8390 C   0  0  0  0  0  1  0  0  0  0  0  0
  179.6820  178.0810  136.5890 C   0  0  0  0  0  0  0  0  0  0  0  0
  181.1630  176.4850  137.4060 C   0  0  2  0  0  3  0  0  0  0  0  0
  179.8010  176.0850  135.3890 C   0  0  2  0  0  3  0  0  0  0  0  0
  180.7870  175.4430  136.3540 C   0  0  0  0  0  2  0  0  0  0  0  0
  178.9440  176.9640  136.0940 O   0  0  0  0  0  0  0  0  0  0  0  0
  179.6440  179.1880  135.5480 C   0  0  0  0  0  1  0  0  0  0  0  0
  181.0480  177.7940  136.8890 O   0  0  0  0  0  0  0  0  0  0  0  0
  178.9650  174.9920  134.7400 C   0  0  0  0  0  2  0  0  0  0  0  0
  179.4550  173.7400  135.1060 O   0  0  0  0  0  1  0  0  0  0  0  0
  183.3050  175.1860  134.9170 F   0  0  0  0  0  0  0  0  0  0  0  0
  183.5110  176.2480  135.6840 O   0  0  0  0  0  0  0  0  0  0  0  0
  186.0200  177.4220  143.2500 C   0  0  0  0  0  2  0  0  0  0  0  0
  187.2310  176.7670  143.8810 C   0  0  0  0  0  2  0  0  0  0  0  0
  188.5350  177.5450  145.8850 C   0  0  0  0  0  2  0  0  0  0  0  0
  186.1150  177.8840  145.7630 N   0  0  0  0  0  2  0  0  0  0  0  0
  187.2050  176.9820  145.3860 C   0  0  1  0  0  3  0  0  0  0  0  0
  188.4350  177.7160  147.3990 C   0  0  0  0  0  2  0  0  0  0  0  0
  186.1640  178.6260  146.9890 C   0  0  0  0  0  3  0  0  0  0  0  0
  187.2530  178.5760  147.7660 C   0  0  0  0  0  3  0  0  0  0  0  0
  1 40  1  0  0  0  0
  3  4  1  1  0  0  0
  5  4  1  6  0  0  0
  5 27  1  0  0  0  0
  7 19  1  0  0  0  0
  8 30  1  6  0  0  0
  8 13  1  0  0  0  0
  9 19  1  0  0  0  0
  9  2  1  6  0  0  0
  9 13  1  0  0  0  0
  9  5  1  0  0  0  0
 10 17  1  0  0  0  0
 10 23  1  0  0  0  0
 11 22  1  0  0  0  0
 12 39  1  6  0  0  0
 12  3  1  0  0  0  0
 12  8  1  0  0  0  0
 13  5  1  0  0  0  0
 14 21  1  0  0  0  0
 16 15  1  0  0  0  0
 16 14  1  0  0  0  0
 17 26  1  0  0  0  0
 18 23  2  0  0  0  0
 19  2  1  0  0  0  0
 19 24  1  0  0  0  0
 20  6  1  0  0  0  0
 20  1  1  0  0  0  0
 21 25  1  0  0  0  0
 22  1  1  0  0  0  0
 23 16  1  0  0  0  0
 25 11  1  0  0  0  0
 26  3  1  0  0  0  0
 26 15  1  0  0  0  0
 27 20  1  0  0  0  0
 27  6  1  0  0  0  0
 29 35  1  0  0  0  0
 29 28  1  0  0  0  0
 31 33  1  0  0  0  0
 31 32  1  0  0  0  0
 32 30  1  0  0  0  0
 33 29  1  0  0  0  0
 34 29  1  0  0  0  0
 35 30  1  0  0  0  0
 36 37  1  0  0  0  0
 36 31  1  0  0  0  0
 38 39  1  0  0  0  0
 40 41  1  0  0  0  0
 41 44  1  0  0  0  0
 42 45  1  0  0  0  0
 43 46  1  0  0  0  0
 44 43  1  0  0  0  0
 44 42  1  0  0  0  0
 45 47  1  0  0  0  0
 46 47  2  0  0  0  0
M  END
>  <MODEL>
8

>  <REMARK>
 VINA RESULT:      -2.3      4.156      7.430
  Name = 
  6 active torsions:
  status: ('A' for Active; 'I' for Inactive)
    1  A    between atoms: N_2  and  C_18
    2  A    between atoms: C_5  and  C_15
    3  A    between atoms: C_9  and  C_16
    4  A    between atoms: C_18  and  C_24
    5  A    between atoms: C_19  and  C_24
    6  A    between atoms: C_23  and  O_33
                            x       y       z     vdW  Elec       q    Type
                         _______ _______ _______ _____ _____    ______ ____

>  <TORSDO>
F 6

$$$$
