=
 OpenBabel11062415323D

 35 38  0  0  1  0  0  0  0  0999 V2000
  189.3090  178.1830  141.6590 C   0  0  2  0  0  3  0  0  0  0  0  0
  187.7880  178.6870  139.8540 N   0  0  0  0  0  0  0  0  0  0  0  0
  187.9590  178.5630  141.1240 C   0  0  0  0  0  3  0  0  0  0  0  0
  188.8890  178.5000  138.9310 C   0  0  2  0  0  3  0  0  0  0  0  0
  189.2240  175.9950  138.6540 C   0  0  0  0  0  2  0  0  0  0  0  0
  190.0450  177.0100  136.4590 N   0  0  0  0  0  0  0  0  0  0  0  0
  189.4760  178.1690  136.5420 C   0  0  0  0  0  3  0  0  0  0  0  0
  188.3630  178.4670  137.4960 C   0  0  0  0  0  2  0  0  0  0  0  0
  189.7570  177.2650  139.3050 C   0  0  2  0  0  3  0  0  0  0  0  0
  189.6650  175.8050  137.1880 C   0  0  2  0  0  3  0  0  0  0  0  0
  189.8830  177.0350  140.8230 C   0  0  0  0  0  2  0  0  0  0  0  0
  188.0030  177.4660  143.6630 C   0  0  0  0  0  3  0  0  0  0  0  0
  190.2930  177.4810  145.2690 C   0  0  0  0  0  3  0  0  0  0  0  0
  189.2390  177.8200  143.1080 C   0  0  0  0  0  0  0  0  0  0  0  0
  189.0570  177.1240  145.8180 C   0  0  0  0  0  0  0  0  0  0  0  0
  190.3850  177.8250  143.9170 C   0  0  0  0  0  3  0  0  0  0  0  0
  187.9120  177.1220  145.0140 C   0  0  0  0  0  3  0  0  0  0  0  0
  188.9550  176.7730  147.2630 C   0  0  0  0  0  2  0  0  0  0  0  0
  188.6200  177.9800  148.0730 C   0  0  0  0  0  0  0  0  0  0  0  0
  187.3000  178.5090  148.0520 N   0  0  0  0  0  1  0  0  0  0  0  0
  189.5130  178.5490  148.7540 O   0  0  0  0  0  0  0  0  0  0  0  0
  189.2770  174.4490  135.0480 C   0  0  0  0  0  1  0  0  0  0  0  0
  188.6950  174.9520  136.3630 C   0  0  2  0  0  3  0  0  0  0  0  0
  186.0840  174.1440  137.4440 O   0  0  0  0  0  0  0  0  0  0  0  0
  187.4030  175.6120  136.1790 N   0  0  0  0  0  2  0  0  0  0  0  0
  186.1440  175.1520  136.6920 C   0  0  0  0  0  0  0  0  0  0  0  0
  184.8870  175.8890  136.3640 C   0  0  2  0  0  3  0  0  0  0  0  0
  185.0180  176.6410  135.0490 C   0  0  0  0  0  1  0  0  0  0  0  0
  184.4790  176.7990  137.4820 C   0  0  0  0  0  0  0  0  0  0  0  0
  183.4570  177.5730  139.4490 N   0  0  0  0  0  0  0  0  0  0  0  0
  182.9140  175.4060  138.6780 O   0  0  0  0  0  0  0  0  0  0  0  0
  183.5520  176.4840  138.5490 C   0  0  0  0  0  0  0  0  0  0  0  0
  184.2690  178.4530  138.9570 C   0  0  0  0  0  0  0  0  0  0  0  0
  184.9450  178.0190  137.7260 C   0  0  0  0  0  3  0  0  0  0  0  0
  184.4800  179.7190  139.5700 N   0  0  0  0  0  1  0  0  0  0  0  0
  1 14  1  1  0  0  0
  2  3  2  0  0  0  0
  3  1  1  0  0  0  0
  4  8  1  6  0  0  0
  4  9  1  0  0  0  0
  4  2  1  0  0  0  0
  6  7  2  0  0  0  0
  6 10  1  0  0  0  0
  7  8  1  0  0  0  0
  9  5  1  6  0  0  0
  9 11  1  0  0  0  0
 10 23  1  6  0  0  0
 10  5  1  0  0  0  0
 11  1  1  0  0  0  0
 12 17  1  0  0  0  0
 13 15  1  0  0  0  0
 14 12  2  0  0  0  0
 14 16  1  0  0  0  0
 15 18  1  0  0  0  0
 16 13  2  0  0  0  0
 17 15  2  0  0  0  0
 18 19  1  0  0  0  0
 19 21  2  0  0  0  0
 20 19  1  0  0  0  0
 23 22  1  6  0  0  0
 25 23  1  0  0  0  0
 25 26  1  0  0  0  0
 26 24  2  0  0  0  0
 27 28  1  6  0  0  0
 27 26  1  0  0  0  0
 27 29  1  0  0  0  0
 29 34  2  0  0  0  0
 29 32  1  0  0  0  0
 32 31  2  0  0  0  0
 32 30  1  0  0  0  0
 33 30  2  0  0  0  0
 33 35  1  0  0  0  0
 34 33  1  0  0  0  0
M  END
>  <MODEL>
1

>  <REMARK>
 VINA RESULT:      -8.2      0.000      0.000
  Name = 
  7 active torsions:
  status: ('A' for Active; 'I' for Inactive)
    1  A    between atoms: C_1  and  C_11
    2  A    between atoms: C_2  and  C_33
    3  A    between atoms: C_4  and  C_23
    4  A    between atoms: C_15  and  C_33
    5  A    between atoms: N_21  and  C_34
    6  A    between atoms: C_23  and  C_27
    7  A    between atoms: C_30  and  C_34
                            x       y       z     vdW  Elec       q    Type
                         _______ _______ _______ _____ _____    ______ ____

>  <TORSDO>
F 7

$$$$
=
 OpenBabel11062415323D

 35 38  0  0  1  0  0  0  0  0999 V2000
  184.6440  178.4250  145.0900 C   0  0  2  0  0  3  0  0  0  0  0  0
  186.0870  179.7620  146.4880 N   0  0  0  0  0  0  0  0  0  0  0  0
  185.2780  179.7270  145.4870 C   0  0  0  0  0  3  0  0  0  0  0  0
  186.3700  178.5710  147.2620 C   0  0  2  0  0  3  0  0  0  0  0  0
  188.0470  177.1920  145.9400 C   0  0  0  0  0  2  0  0  0  0  0  0
  188.4820  176.5830  148.3820 N   0  0  0  0  0  0  0  0  0  0  0  0
  187.8990  177.5870  148.9520 C   0  0  0  0  0  3  0  0  0  0  0  0
  187.5280  178.8400  148.2220 C   0  0  0  0  0  2  0  0  0  0  0  0
  186.5880  177.3270  146.3550 C   0  0  2  0  0  3  0  0  0  0  0  0
  188.9450  176.5210  146.9990 C   0  0  2  0  0  3  0  0  0  0  0  0
  185.7060  177.3200  145.0930 C   0  0  0  0  0  2  0  0  0  0  0  0
  184.7010  178.2370  142.6010 C   0  0  0  0  0  3  0  0  0  0  0  0
  182.0190  179.0050  142.3940 C   0  0  0  0  0  3  0  0  0  0  0  0
  183.9710  178.5300  143.7590 C   0  0  0  0  0  0  0  0  0  0  0  0
  182.7520  178.7060  141.2400 C   0  0  0  0  0  0  0  0  0  0  0  0
  182.6250  178.9150  143.6500 C   0  0  0  0  0  3  0  0  0  0  0  0
  184.0940  178.3270  141.3450 C   0  0  0  0  0  3  0  0  0  0  0  0
  182.1100  178.8190  139.8990 C   0  0  0  0  0  2  0  0  0  0  0  0
  183.1070  179.2490  138.8760 C   0  0  0  0  0  0  0  0  0  0  0  0
  183.5700  178.3250  137.8980 N   0  0  0  0  0  1  0  0  0  0  0  0
  183.5610  180.4230  138.8950 O   0  0  0  0  0  0  0  0  0  0  0  0
  190.9640  177.5950  148.1590 C   0  0  0  0  0  1  0  0  0  0  0  0
  190.4190  176.9300  146.9000 C   0  0  2  0  0  3  0  0  0  0  0  0
  191.6850  176.0340  144.4040 O   0  0  0  0  0  0  0  0  0  0  0  0
  190.6920  177.7170  145.6990 N   0  0  0  0  0  2  0  0  0  0  0  0
  191.3550  177.2440  144.5170 C   0  0  0  0  0  0  0  0  0  0  0  0
  191.6330  178.1810  143.3870 C   0  0  2  0  0  3  0  0  0  0  0  0
  191.2080  179.5990  143.7330 C   0  0  0  0  0  1  0  0  0  0  0  0
  190.9980  177.7080  142.1160 C   0  0  0  0  0  0  0  0  0  0  0  0
  189.3580  177.1850  140.5180 N   0  0  0  0  0  0  0  0  0  0  0  0
  188.6550  177.9090  142.6550 O   0  0  0  0  0  0  0  0  0  0  0  0
  189.5770  177.6280  141.8450 C   0  0  0  0  0  0  0  0  0  0  0  0
  190.5520  177.0250  140.0440 C   0  0  0  0  0  0  0  0  0  0  0  0
  191.6220  177.3460  141.0000 C   0  0  0  0  0  3  0  0  0  0  0  0
  190.7890  176.5840  138.7130 N   0  0  0  0  0  1  0  0  0  0  0  0
  1 14  1  6  0  0  0
  1 11  1  0  0  0  0
  1  3  1  0  0  0  0
  2  4  1  0  0  0  0
  3  2  2  0  0  0  0
  4  8  1  6  0  0  0
  5  9  1  0  0  0  0
  5 10  1  0  0  0  0
  6  7  2  0  0  0  0
  8  7  1  0  0  0  0
  9 11  1  6  0  0  0
  9  4  1  0  0  0  0
 10 23  1  1  0  0  0
 10  6  1  0  0  0  0
 12 14  1  0  0  0  0
 13 16  1  0  0  0  0
 15 17  1  0  0  0  0
 15 13  2  0  0  0  0
 16 14  2  0  0  0  0
 17 12  2  0  0  0  0
 18 15  1  0  0  0  0
 19 21  2  0  0  0  0
 19 18  1  0  0  0  0
 20 19  1  0  0  0  0
 23 22  1  1  0  0  0
 24 26  2  0  0  0  0
 25 23  1  0  0  0  0
 26 25  1  0  0  0  0
 27 28  1  1  0  0  0
 27 26  1  0  0  0  0
 29 27  1  0  0  0  0
 30 32  1  0  0  0  0
 32 29  1  0  0  0  0
 32 31  2  0  0  0  0
 33 30  2  0  0  0  0
 33 34  1  0  0  0  0
 34 29  2  0  0  0  0
 35 33  1  0  0  0  0
M  END
>  <MODEL>
2

>  <REMARK>
 VINA RESULT:      -8.0      3.270      8.882
  Name = 
  7 active torsions:
  status: ('A' for Active; 'I' for Inactive)
    1  A    between atoms: C_1  and  C_11
    2  A    between atoms: C_2  and  C_33
    3  A    between atoms: C_4  and  C_23
    4  A    between atoms: C_15  and  C_33
    5  A    between atoms: N_21  and  C_34
    6  A    between atoms: C_23  and  C_27
    7  A    between atoms: C_30  and  C_34
                            x       y       z     vdW  Elec       q    Type
                         _______ _______ _______ _____ _____    ______ ____

>  <TORSDO>
F 7

$$$$
=
 OpenBabel11062415323D

 35 38  0  0  1  0  0  0  0  0999 V2000
  189.6130  178.3090  141.8270 C   0  0  2  0  0  3  0  0  0  0  0  0
  187.7210  178.4520  140.3370 N   0  0  0  0  0  0  0  0  0  0  0  0
  188.1380  178.3500  141.5500 C   0  0  0  0  0  3  0  0  0  0  0  0
  188.6520  178.5650  139.2320 C   0  0  2  0  0  3  0  0  0  0  0  0
  189.5300  176.2290  138.7460 C   0  0  0  0  0  2  0  0  0  0  0  0
  189.6780  177.4620  136.5130 N   0  0  0  0  0  0  0  0  0  0  0  0
  188.8690  178.4390  136.7630 C   0  0  0  0  0  3  0  0  0  0  0  0
  187.9040  178.4310  137.9070 C   0  0  0  0  0  2  0  0  0  0  0  0
  189.8460  177.5790  139.3780 C   0  0  2  0  0  3  0  0  0  0  0  0
  189.7370  176.1850  137.2180 C   0  0  2  0  0  3  0  0  0  0  0  0
  190.2910  177.3570  140.8350 C   0  0  0  0  0  2  0  0  0  0  0  0
  188.8330  177.4730  144.0470 C   0  0  0  0  0  3  0  0  0  0  0  0
  191.4230  177.5860  145.0980 C   0  0  0  0  0  3  0  0  0  0  0  0
  189.8910  177.9100  143.2410 C   0  0  0  0  0  0  0  0  0  0  0  0
  190.3630  177.1460  145.8970 C   0  0  0  0  0  0  0  0  0  0  0  0
  191.1890  177.9650  143.7720 C   0  0  0  0  0  3  0  0  0  0  0  0
  189.0680  177.0940  145.3710 C   0  0  0  0  0  3  0  0  0  0  0  0
  190.6090  176.7580  147.3150 C   0  0  0  0  0  2  0  0  0  0  0  0
  191.9060  176.0320  147.4420 C   0  0  0  0  0  0  0  0  0  0  0  0
  192.8240  176.3850  148.4700 N   0  0  0  0  0  1  0  0  0  0  0  0
  192.2010  175.1240  146.6210 O   0  0  0  0  0  0  0  0  0  0  0  0
  188.7820  175.3160  135.0030 C   0  0  0  0  0  1  0  0  0  0  0  0
  188.8730  175.1330  136.5130 C   0  0  2  0  0  3  0  0  0  0  0  0
  186.9790  172.9000  136.2660 O   0  0  0  0  0  0  0  0  0  0  0  0
  187.5550  175.0000  137.1330 N   0  0  0  0  0  2  0  0  0  0  0  0
  186.6450  173.9060  136.9460 C   0  0  0  0  0  0  0  0  0  0  0  0
  185.2960  173.9350  137.5860 C   0  0  2  0  0  3  0  0  0  0  0  0
  184.6140  172.5800  137.4930 C   0  0  0  0  0  1  0  0  0  0  0  0
  184.4410  175.0230  137.0100 C   0  0  0  0  0  0  0  0  0  0  0  0
  182.8680  176.7600  136.8580 N   0  0  0  0  0  0  0  0  0  0  0  0
  183.0850  175.6170  138.9150 O   0  0  0  0  0  0  0  0  0  0  0  0
  183.4300  175.7820  137.7150 C   0  0  0  0  0  0  0  0  0  0  0  0
  183.5040  176.5950  135.7420 C   0  0  0  0  0  0  0  0  0  0  0  0
  184.5100  175.5230  135.7810 C   0  0  0  0  0  3  0  0  0  0  0  0
  183.2440  177.3930  134.5940 N   0  0  0  0  0  1  0  0  0  0  0  0
  1 14  1  1  0  0  0
  2  3  2  0  0  0  0
  3  1  1  0  0  0  0
  4  8  1  6  0  0  0
  4  9  1  0  0  0  0
  4  2  1  0  0  0  0
  6  7  2  0  0  0  0
  6 10  1  0  0  0  0
  7  8  1  0  0  0  0
  9  5  1  1  0  0  0
  9 11  1  0  0  0  0
 10 23  1  6  0  0  0
 10  5  1  0  0  0  0
 11  1  1  0  0  0  0
 12 17  1  0  0  0  0
 13 15  1  0  0  0  0
 14 16  1  0  0  0  0
 14 12  2  0  0  0  0
 15 18  1  0  0  0  0
 16 13  2  0  0  0  0
 17 15  2  0  0  0  0
 18 19  1  0  0  0  0
 19 20  1  0  0  0  0
 21 19  2  0  0  0  0
 23 22  1  6  0  0  0
 23 25  1  0  0  0  0
 24 26  2  0  0  0  0
 26 25  1  0  0  0  0
 26 27  1  0  0  0  0
 27 28  1  6  0  0  0
 29 27  1  0  0  0  0
 29 32  1  0  0  0  0
 30 32  1  0  0  0  0
 32 31  2  0  0  0  0
 33 34  1  0  0  0  0
 33 30  2  0  0  0  0
 34 29  2  0  0  0  0
 35 33  1  0  0  0  0
M  END
>  <MODEL>
3

>  <REMARK>
 VINA RESULT:      -7.6      1.963      2.333
  Name = 
  7 active torsions:
  status: ('A' for Active; 'I' for Inactive)
    1  A    between atoms: C_1  and  C_11
    2  A    between atoms: C_2  and  C_33
    3  A    between atoms: C_4  and  C_23
    4  A    between atoms: C_15  and  C_33
    5  A    between atoms: N_21  and  C_34
    6  A    between atoms: C_23  and  C_27
    7  A    between atoms: C_30  and  C_34
                            x       y       z     vdW  Elec       q    Type
                         _______ _______ _______ _____ _____    ______ ____

>  <TORSDO>
F 7

$$$$
=
 OpenBabel11062415323D

 35 38  0  0  1  0  0  0  0  0999 V2000
  183.9970  179.0700  143.6600 C   0  0  2  0  0  3  0  0  0  0  0  0
  181.6070  178.7690  143.7990 N   0  0  0  0  0  0  0  0  0  0  0  0
  182.7510  178.6360  144.3750 C   0  0  0  0  0  3  0  0  0  0  0  0
  181.4980  179.3640  142.4820 C   0  0  2  0  0  3  0  0  0  0  0  0
  182.1560  177.5830  140.7920 C   0  0  0  0  0  2  0  0  0  0  0  0
  180.5420  179.1110  139.5350 N   0  0  0  0  0  0  0  0  0  0  0  0
  179.9830  179.6960  140.5440 C   0  0  0  0  0  3  0  0  0  0  0  0
  180.0790  179.1790  141.9460 C   0  0  0  0  0  2  0  0  0  0  0  0
  182.6020  178.8460  141.5180 C   0  0  2  0  0  3  0  0  0  0  0  0
  181.2660  177.8440  139.5600 C   0  0  2  0  0  3  0  0  0  0  0  0
  183.9510  178.5760  142.2100 C   0  0  0  0  0  2  0  0  0  0  0  0
  186.1620  177.8270  143.6500 C   0  0  0  0  0  3  0  0  0  0  0  0
  186.6110  178.4110  146.3490 C   0  0  0  0  0  3  0  0  0  0  0  0
  185.2250  178.5850  144.3620 C   0  0  0  0  0  0  0  0  0  0  0  0
  187.5460  177.6580  145.6320 C   0  0  0  0  0  0  0  0  0  0  0  0
  185.4540  178.8760  145.7160 C   0  0  0  0  0  3  0  0  0  0  0  0
  187.3180  177.3640  144.2840 C   0  0  0  0  0  3  0  0  0  0  0  0
  188.7710  177.1470  146.3110 C   0  0  0  0  0  2  0  0  0  0  0  0
  189.9940  177.5380  145.5500 C   0  0  0  0  0  0  0  0  0  0  0  0
  191.1320  176.6850  145.5420 N   0  0  0  0  0  1  0  0  0  0  0  0
  190.0290  178.6380  144.9390 O   0  0  0  0  0  0  0  0  0  0  0  0
  179.7380  175.9840  140.4400 C   0  0  0  0  0  1  0  0  0  0  0  0
  180.3330  176.6770  139.2210 C   0  0  2  0  0  3  0  0  0  0  0  0
  180.5380  176.8810  136.2960 O   0  0  0  0  0  0  0  0  0  0  0  0
  180.9530  175.7290  138.2950 N   0  0  0  0  0  2  0  0  0  0  0  0
  180.9880  175.8520  136.8660 C   0  0  0  0  0  0  0  0  0  0  0  0
  181.5940  174.7680  136.0350 C   0  0  2  0  0  3  0  0  0  0  0  0
  180.7740  173.4900  136.1180 C   0  0  0  0  0  1  0  0  0  0  0  0
  183.0260  174.5310  136.4060 C   0  0  0  0  0  0  0  0  0  0  0  0
  185.3290  174.8870  136.6940 N   0  0  0  0  0  0  0  0  0  0  0  0
  184.0740  176.5270  135.5470 O   0  0  0  0  0  0  0  0  0  0  0  0
  184.1360  175.4250  136.1530 C   0  0  0  0  0  0  0  0  0  0  0  0
  184.9500  173.7700  137.2290 C   0  0  0  0  0  0  0  0  0  0  0  0
  183.5110  173.4980  137.0860 C   0  0  0  0  0  3  0  0  0  0  0  0
  185.8550  172.9010  137.8970 N   0  0  0  0  0  1  0  0  0  0  0  0
  1 14  1  1  0  0  0
  1  3  1  0  0  0  0
  2  3  2  0  0  0  0
  4  8  1  6  0  0  0
  4  2  1  0  0  0  0
  6 10  1  0  0  0  0
  6  7  2  0  0  0  0
  7  8  1  0  0  0  0
  9  5  1  1  0  0  0
  9 11  1  0  0  0  0
  9  4  1  0  0  0  0
 10 23  1  1  0  0  0
 10  5  1  0  0  0  0
 11  1  1  0  0  0  0
 12 17  2  0  0  0  0
 12 14  1  0  0  0  0
 14 16  2  0  0  0  0
 15 18  1  0  0  0  0
 15 13  2  0  0  0  0
 16 13  1  0  0  0  0
 17 15  1  0  0  0  0
 19 18  1  0  0  0  0
 20 19  1  0  0  0  0
 21 19  2  0  0  0  0
 23 22  1  1  0  0  0
 24 26  2  0  0  0  0
 25 23  1  0  0  0  0
 26 25  1  0  0  0  0
 27 28  1  1  0  0  0
 27 29  1  0  0  0  0
 27 26  1  0  0  0  0
 29 34  2  0  0  0  0
 30 33  2  0  0  0  0
 31 32  2  0  0  0  0
 32 29  1  0  0  0  0
 32 30  1  0  0  0  0
 33 35  1  0  0  0  0
 34 33  1  0  0  0  0
M  END
>  <MODEL>
4

>  <REMARK>
 VINA RESULT:      -7.5      3.644      6.213
  Name = 
  7 active torsions:
  status: ('A' for Active; 'I' for Inactive)
    1  A    between atoms: C_1  and  C_11
    2  A    between atoms: C_2  and  C_33
    3  A    between atoms: C_4  and  C_23
    4  A    between atoms: C_15  and  C_33
    5  A    between atoms: N_21  and  C_34
    6  A    between atoms: C_23  and  C_27
    7  A    between atoms: C_30  and  C_34
                            x       y       z     vdW  Elec       q    Type
                         _______ _______ _______ _____ _____    ______ ____

>  <TORSDO>
F 7

$$$$
=
 OpenBabel11062415323D

 35 38  0  0  1  0  0  0  0  0999 V2000
  189.3160  178.3170  141.9470 C   0  0  2  0  0  3  0  0  0  0  0  0
  187.5040  177.9570  140.3950 N   0  0  0  0  0  0  0  0  0  0  0  0
  187.9120  177.9020  141.6150 C   0  0  0  0  0  3  0  0  0  0  0  0
  188.3660  178.4480  139.3390 C   0  0  2  0  0  3  0  0  0  0  0  0
  189.9620  176.5650  138.7320 C   0  0  0  0  0  2  0  0  0  0  0  0
  189.7380  177.9470  136.5960 N   0  0  0  0  0  0  0  0  0  0  0  0
  188.6520  178.5890  136.8780 C   0  0  0  0  0  3  0  0  0  0  0  0
  187.7230  178.1820  137.9790 C   0  0  0  0  0  2  0  0  0  0  0  0
  189.8130  177.8920  139.4660 C   0  0  2  0  0  3  0  0  0  0  0  0
  190.1970  176.7070  137.2140 C   0  0  2  0  0  3  0  0  0  0  0  0
  190.2820  177.7140  140.9220 C   0  0  0  0  0  2  0  0  0  0  0  0
  190.9880  178.1620  143.7950 C   0  0  0  0  0  3  0  0  0  0  0  0
  189.1240  176.9590  145.4990 C   0  0  0  0  0  3  0  0  0  0  0  0
  189.6860  177.9220  143.3420 C   0  0  0  0  0  0  0  0  0  0  0  0
  190.4260  177.2060  145.9490 C   0  0  0  0  0  0  0  0  0  0  0  0
  188.7530  177.3190  144.2000 C   0  0  0  0  0  3  0  0  0  0  0  0
  191.3580  177.8030  145.0940 C   0  0  0  0  0  3  0  0  0  0  0  0
  190.8260  176.8070  147.3290 C   0  0  0  0  0  2  0  0  0  0  0  0
  192.0340  175.9330  147.2920 C   0  0  0  0  0  0  0  0  0  0  0  0
  193.0020  176.0100  148.3320 N   0  0  0  0  0  1  0  0  0  0  0  0
  192.2130  175.1470  146.3250 O   0  0  0  0  0  0  0  0  0  0  0  0
  188.7980  174.5600  137.1700 C   0  0  0  0  0  1  0  0  0  0  0  0
  189.7320  175.4910  136.4060 C   0  0  2  0  0  3  0  0  0  0  0  0
  191.9210  174.0810  137.7700 O   0  0  0  0  0  0  0  0  0  0  0  0
  190.8520  174.7720  135.8010 N   0  0  0  0  0  2  0  0  0  0  0  0
  191.9240  174.1350  136.5120 C   0  0  0  0  0  0  0  0  0  0  0  0
  193.0470  173.4970  135.7610 C   0  0  2  0  0  3  0  0  0  0  0  0
  192.9970  171.9820  135.8810 C   0  0  0  0  0  1  0  0  0  0  0  0
  194.3740  174.0420  136.1940 C   0  0  0  0  0  0  0  0  0  0  0  0
  196.1310  175.5510  136.5780 N   0  0  0  0  0  0  0  0  0  0  0  0
  194.2460  176.3060  135.3690 O   0  0  0  0  0  0  0  0  0  0  0  0
  194.8560  175.3910  135.9840 C   0  0  0  0  0  0  0  0  0  0  0  0
  196.3750  174.3930  137.1020 C   0  0  0  0  0  0  0  0  0  0  0  0
  195.3030  173.4070  136.8990 C   0  0  0  0  0  3  0  0  0  0  0  0
  197.5760  174.1180  137.8130 N   0  0  0  0  0  1  0  0  0  0  0  0
  1 14  1  1  0  0  0
  2  3  2  0  0  0  0
  3  1  1  0  0  0  0
  4  8  1  6  0  0  0
  4  9  1  0  0  0  0
  4  2  1  0  0  0  0
  6  7  2  0  0  0  0
  6 10  1  0  0  0  0
  7  8  1  0  0  0  0
  9  5  1  1  0  0  0
  9 11  1  0  0  0  0
 10 23  1  6  0  0  0
 10  5  1  0  0  0  0
 11  1  1  0  0  0  0
 12 17  1  0  0  0  0
 13 15  1  0  0  0  0
 14 12  2  0  0  0  0
 14 16  1  0  0  0  0
 15 18  1  0  0  0  0
 16 13  2  0  0  0  0
 17 15  2  0  0  0  0
 19 18  1  0  0  0  0
 19 20  1  0  0  0  0
 21 19  2  0  0  0  0
 23 22  1  1  0  0  0
 25 23  1  0  0  0  0
 25 26  1  0  0  0  0
 26 24  2  0  0  0  0
 27 28  1  1  0  0  0
 27 29  1  0  0  0  0
 27 26  1  0  0  0  0
 29 34  2  0  0  0  0
 30 33  2  0  0  0  0
 31 32  2  0  0  0  0
 32 29  1  0  0  0  0
 32 30  1  0  0  0  0
 33 35  1  0  0  0  0
 34 33  1  0  0  0  0
M  END
>  <MODEL>
5

>  <REMARK>
 VINA RESULT:      -7.5      3.761      6.378
  Name = 
  7 active torsions:
  status: ('A' for Active; 'I' for Inactive)
    1  A    between atoms: C_1  and  C_11
    2  A    between atoms: C_2  and  C_33
    3  A    between atoms: C_4  and  C_23
    4  A    between atoms: C_15  and  C_33
    5  A    between atoms: N_21  and  C_34
    6  A    between atoms: C_23  and  C_27
    7  A    between atoms: C_30  and  C_34
                            x       y       z     vdW  Elec       q    Type
                         _______ _______ _______ _____ _____    ______ ____

>  <TORSDO>
F 7

$$$$
=
 OpenBabel11062415323D

 35 38  0  0  1  0  0  0  0  0999 V2000
  184.8910  178.0860  144.7780 C   0  0  2  0  0  3  0  0  0  0  0  0
  186.5160  179.2280  146.1490 N   0  0  0  0  0  0  0  0  0  0  0  0
  185.3920  179.2890  145.5240 C   0  0  0  0  0  3  0  0  0  0  0  0
  187.2920  178.0040  146.1740 C   0  0  2  0  0  3  0  0  0  0  0  0
  188.5060  177.8340  143.9480 C   0  0  0  0  0  2  0  0  0  0  0  0
  189.9880  176.5680  145.5990 N   0  0  0  0  0  0  0  0  0  0  0  0
  189.5190  177.0450  146.7050 C   0  0  0  0  0  3  0  0  0  0  0  0
  188.6720  178.2780  146.7710 C   0  0  0  0  0  2  0  0  0  0  0  0
  187.3390  177.3180  144.7800 C   0  0  2  0  0  3  0  0  0  0  0  0
  189.8580  177.1650  144.2740 C   0  0  2  0  0  3  0  0  0  0  0  0
  186.0390  177.4730  143.9690 C   0  0  0  0  0  2  0  0  0  0  0  0
  183.8650  178.3070  142.5130 C   0  0  0  0  0  3  0  0  0  0  0  0
  181.4460  179.1990  143.5990 C   0  0  0  0  0  3  0  0  0  0  0  0
  183.7310  178.4330  143.9000 C   0  0  0  0  0  0  0  0  0  0  0  0
  181.5840  179.0660  142.2120 C   0  0  0  0  0  0  0  0  0  0  0  0
  182.5150  178.8810  144.4410 C   0  0  0  0  0  3  0  0  0  0  0  0
  182.7950  178.6240  141.6710 C   0  0  0  0  0  3  0  0  0  0  0  0
  180.4490  179.4210  141.3130 C   0  0  0  0  0  2  0  0  0  0  0  0
  180.0170  178.2330  140.5210 C   0  0  0  0  0  0  0  0  0  0  0  0
  179.4430  177.1080  141.1760 N   0  0  0  0  0  1  0  0  0  0  0  0
  180.1870  178.2130  139.2730 O   0  0  0  0  0  0  0  0  0  0  0  0
  190.9010  179.5050  144.3590 C   0  0  0  0  0  1  0  0  0  0  0  0
  191.0700  178.0460  143.9520 C   0  0  2  0  0  3  0  0  0  0  0  0
  190.4960  175.8380  142.1000 O   0  0  0  0  0  0  0  0  0  0  0  0
  191.4960  177.9080  142.5600 N   0  0  0  0  0  2  0  0  0  0  0  0
  191.2270  176.7850  141.7070 C   0  0  0  0  0  0  0  0  0  0  0  0
  191.7880  176.7440  140.3230 C   0  0  2  0  0  3  0  0  0  0  0  0
  193.0550  177.5780  140.2190 C   0  0  0  0  0  1  0  0  0  0  0  0
  190.7680  177.1610  139.3080 C   0  0  0  0  0  0  0  0  0  0  0  0
  189.6140  177.3400  137.2710 N   0  0  0  0  0  0  0  0  0  0  0  0
  191.6390  176.1240  137.3100 O   0  0  0  0  0  0  0  0  0  0  0  0
  190.7630  176.8070  137.9030 C   0  0  0  0  0  0  0  0  0  0  0  0
  188.9890  177.9500  138.2270 C   0  0  0  0  0  0  0  0  0  0  0  0
  189.6640  177.8640  139.5310 C   0  0  0  0  0  3  0  0  0  0  0  0
  187.7580  178.6320  138.0180 N   0  0  0  0  0  1  0  0  0  0  0  0
  1 14  1  6  0  0  0
  1  3  1  0  0  0  0
  2  4  1  0  0  0  0
  3  2  2  0  0  0  0
  4  8  1  6  0  0  0
  5 10  1  0  0  0  0
  6  7  2  0  0  0  0
  7  8  1  0  0  0  0
  9  5  1  6  0  0  0
  9  4  1  0  0  0  0
 10 23  1  1  0  0  0
 10  6  1  0  0  0  0
 11  1  1  0  0  0  0
 11  9  1  0  0  0  0
 12 14  1  0  0  0  0
 13 16  1  0  0  0  0
 14 16  2  0  0  0  0
 15 13  2  0  0  0  0
 17 15  1  0  0  0  0
 17 12  2  0  0  0  0
 18 15  1  0  0  0  0
 19 20  1  0  0  0  0
 19 18  1  0  0  0  0
 21 19  2  0  0  0  0
 23 22  1  6  0  0  0
 25 23  1  0  0  0  0
 26 24  2  0  0  0  0
 26 25  1  0  0  0  0
 27 28  1  1  0  0  0
 27 26  1  0  0  0  0
 29 34  2  0  0  0  0
 29 27  1  0  0  0  0
 30 32  1  0  0  0  0
 30 33  2  0  0  0  0
 31 32  2  0  0  0  0
 32 29  1  0  0  0  0
 33 34  1  0  0  0  0
 35 33  1  0  0  0  0
M  END
>  <MODEL>
6

>  <REMARK>
 VINA RESULT:      -7.5      3.307      7.928
  Name = 
  7 active torsions:
  status: ('A' for Active; 'I' for Inactive)
    1  A    between atoms: C_1  and  C_11
    2  A    between atoms: C_2  and  C_33
    3  A    between atoms: C_4  and  C_23
    4  A    between atoms: C_15  and  C_33
    5  A    between atoms: N_21  and  C_34
    6  A    between atoms: C_23  and  C_27
    7  A    between atoms: C_30  and  C_34
                            x       y       z     vdW  Elec       q    Type
                         _______ _______ _______ _____ _____    ______ ____

>  <TORSDO>
F 7

$$$$
=
 OpenBabel11062415323D

 35 38  0  0  1  0  0  0  0  0999 V2000
  184.1040  177.9250  137.8960 C   0  0  2  0  0  3  0  0  0  0  0  0
  185.5820  176.0890  137.3750 N   0  0  0  0  0  0  0  0  0  0  0  0
  184.4190  176.4610  137.7840 C   0  0  0  0  0  3  0  0  0  0  0  0
  186.5830  177.0620  136.9860 C   0  0  2  0  0  3  0  0  0  0  0  0
  187.6140  177.9800  139.1200 C   0  0  0  0  0  2  0  0  0  0  0  0
  189.4510  178.2000  137.3590 N   0  0  0  0  0  0  0  0  0  0  0  0
  188.9930  177.3740  136.4770 C   0  0  0  0  0  3  0  0  0  0  0  0
  187.9280  176.3650  136.7770 C   0  0  0  0  0  2  0  0  0  0  0  0
  186.6470  178.2580  137.9770 C   0  0  2  0  0  3  0  0  0  0  0  0
  189.0940  178.2450  138.7740 C   0  0  2  0  0  3  0  0  0  0  0  0
  185.2780  178.6490  138.5630 C   0  0  0  0  0  2  0  0  0  0  0  0
  182.3200  177.1290  139.4510 C   0  0  0  0  0  3  0  0  0  0  0  0
  180.9440  179.5580  139.2550 C   0  0  0  0  0  3  0  0  0  0  0  0
  182.8280  178.1530  138.6420 C   0  0  0  0  0  0  0  0  0  0  0  0
  180.4430  178.5330  140.0660 C   0  0  0  0  0  0  0  0  0  0  0  0
  182.1350  179.3700  138.5470 C   0  0  0  0  0  3  0  0  0  0  0  0
  181.1300  177.3190  140.1590 C   0  0  0  0  0  3  0  0  0  0  0  0
  179.1650  178.7280  140.8080 C   0  0  0  0  0  2  0  0  0  0  0  0
  179.4340  179.1140  142.2240 C   0  0  0  0  0  0  0  0  0  0  0  0
  179.8150  180.4480  142.5390 N   0  0  0  0  0  1  0  0  0  0  0  0
  179.3530  178.2510  143.1370 O   0  0  0  0  0  0  0  0  0  0  0  0
  190.8780  176.4050  138.8020 C   0  0  0  0  0  1  0  0  0  0  0  0
  190.0770  177.4180  139.6100 C   0  0  2  0  0  3  0  0  0  0  0  0
  189.4570  178.6750  142.1930 O   0  0  0  0  0  0  0  0  0  0  0  0
  189.4320  176.8100  140.7730 N   0  0  0  0  0  2  0  0  0  0  0  0
  189.1900  177.4550  142.0320 C   0  0  0  0  0  0  0  0  0  0  0  0
  188.5860  176.6890  143.1630 C   0  0  2  0  0  3  0  0  0  0  0  0
  187.1570  177.1350  143.4270 C   0  0  0  0  0  1  0  0  0  0  0  0
  189.4300  176.7800  144.3980 C   0  0  0  0  0  0  0  0  0  0  0  0
  191.3100  176.7540  145.8040 N   0  0  0  0  0  0  0  0  0  0  0  0
  191.5880  176.1190  143.5450 O   0  0  0  0  0  0  0  0  0  0  0  0
  190.8500  176.5100  144.4880 C   0  0  0  0  0  0  0  0  0  0  0  0
  190.2490  177.1430  146.4360 C   0  0  0  0  0  0  0  0  0  0  0  0
  189.0390  177.1870  145.6010 C   0  0  0  0  0  3  0  0  0  0  0  0
  190.2720  177.5000  147.8130 N   0  0  0  0  0  1  0  0  0  0  0  0
  1 11  1  0  0  0  0
  1 14  1  1  0  0  0
  2  3  2  0  0  0  0
  3  1  1  0  0  0  0
  4  8  1  1  0  0  0
  4  2  1  0  0  0  0
  4  9  1  0  0  0  0
  6 10  1  0  0  0  0
  7  8  1  0  0  0  0
  7  6  2  0  0  0  0
  9 11  1  1  0  0  0
  9  5  1  0  0  0  0
 10  5  1  0  0  0  0
 10 23  1  1  0  0  0
 12 17  1  0  0  0  0
 13 15  1  0  0  0  0
 14 12  2  0  0  0  0
 15 17  2  0  0  0  0
 15 18  1  0  0  0  0
 16 14  1  0  0  0  0
 16 13  2  0  0  0  0
 18 19  1  0  0  0  0
 19 20  1  0  0  0  0
 19 21  2  0  0  0  0
 23 22  1  6  0  0  0
 23 25  1  0  0  0  0
 25 26  1  0  0  0  0
 26 24  2  0  0  0  0
 26 27  1  0  0  0  0
 27 28  1  1  0  0  0
 27 29  1  0  0  0  0
 29 32  1  0  0  0  0
 29 34  2  0  0  0  0
 30 33  2  0  0  0  0
 31 32  2  0  0  0  0
 32 30  1  0  0  0  0
 33 35  1  0  0  0  0
 34 33  1  0  0  0  0
M  END
>  <MODEL>
7

>  <REMARK>
 VINA RESULT:      -7.2      3.108      7.762
  Name = 
  7 active torsions:
  status: ('A' for Active; 'I' for Inactive)
    1  A    between atoms: C_1  and  C_11
    2  A    between atoms: C_2  and  C_33
    3  A    between atoms: C_4  and  C_23
    4  A    between atoms: C_15  and  C_33
    5  A    between atoms: N_21  and  C_34
    6  A    between atoms: C_23  and  C_27
    7  A    between atoms: C_30  and  C_34
                            x       y       z     vdW  Elec       q    Type
                         _______ _______ _______ _____ _____    ______ ____

>  <TORSDO>
F 7

$$$$
=
 OpenBabel11062415323D

 35 38  0  0  1  0  0  0  0  0999 V2000
  189.6020  177.5120  142.1650 C   0  0  2  0  0  3  0  0  0  0  0  0
  187.9300  176.3140  143.4270 N   0  0  0  0  0  0  0  0  0  0  0  0
  188.9300  176.2490  142.6190 C   0  0  0  0  0  3  0  0  0  0  0  0
  187.4610  177.5880  143.9350 C   0  0  2  0  0  3  0  0  0  0  0  0
  186.0680  178.6650  142.1030 C   0  0  0  0  0  2  0  0  0  0  0  0
  185.1150  179.5970  144.2810 N   0  0  0  0  0  0  0  0  0  0  0  0
  185.5880  178.7210  145.1060 C   0  0  0  0  0  3  0  0  0  0  0  0
  186.1340  177.3970  144.6680 C   0  0  0  0  0  2  0  0  0  0  0  0
  187.4100  178.6730  142.8230 C   0  0  2  0  0  3  0  0  0  0  0  0
  184.9510  179.4320  142.8410 C   0  0  2  0  0  3  0  0  0  0  0  0
  188.5370  178.5460  141.7810 C   0  0  0  0  0  2  0  0  0  0  0  0
  190.0350  176.7490  139.8280 C   0  0  0  0  0  3  0  0  0  0  0  0
  192.7760  177.2540  140.0780 C   0  0  0  0  0  3  0  0  0  0  0  0
  190.5420  177.2520  141.0310 C   0  0  0  0  0  0  0  0  0  0  0  0
  192.2640  176.7550  138.8750 C   0  0  0  0  0  0  0  0  0  0  0  0
  191.9180  177.5050  141.1530 C   0  0  0  0  0  3  0  0  0  0  0  0
  190.8940  176.5000  138.7530 C   0  0  0  0  0  3  0  0  0  0  0  0
  193.1810  176.4720  137.7350 C   0  0  0  0  0  2  0  0  0  0  0  0
  193.8470  175.1490  137.9130 C   0  0  0  0  0  0  0  0  0  0  0  0
  195.1760  175.0810  138.4150 N   0  0  0  0  0  1  0  0  0  0  0  0
  193.2420  174.0920  137.5920 O   0  0  0  0  0  0  0  0  0  0  0  0
  182.8190  178.2850  143.6820 C   0  0  0  0  0  1  0  0  0  0  0  0
  183.5410  178.9320  142.5060 C   0  0  2  0  0  3  0  0  0  0  0  0
  182.3810  179.5380  139.8750 O   0  0  0  0  0  0  0  0  0  0  0  0
  183.5260  178.0850  141.3150 N   0  0  0  0  0  2  0  0  0  0  0  0
  182.9050  178.4090  140.0620 C   0  0  0  0  0  0  0  0  0  0  0  0
  182.9040  177.4140  138.9470 C   0  0  2  0  0  3  0  0  0  0  0  0
  182.6760  176.0050  139.4690 C   0  0  0  0  0  1  0  0  0  0  0  0
  184.1580  177.5050  138.1320 C   0  0  0  0  0  0  0  0  0  0  0  0
  185.6600  177.2720  136.3430 N   0  0  0  0  0  0  0  0  0  0  0  0
  183.5430  176.2370  136.1740 O   0  0  0  0  0  0  0  0  0  0  0  0
  184.3710  176.9330  136.8190 C   0  0  0  0  0  0  0  0  0  0  0  0
  186.1630  177.9910  137.2950 C   0  0  0  0  0  0  0  0  0  0  0  0
  185.2610  178.1780  138.4410 C   0  0  0  0  0  3  0  0  0  0  0  0
  187.4690  178.5480  137.2180 N   0  0  0  0  0  1  0  0  0  0  0  0
  1 14  1  6  0  0  0
  1  3  1  0  0  0  0
  2  4  1  0  0  0  0
  3  2  2  0  0  0  0
  4  8  1  6  0  0  0
  5  9  1  0  0  0  0
  5 10  1  0  0  0  0
  6  7  2  0  0  0  0
  8  7  1  0  0  0  0
  9 11  1  6  0  0  0
  9  4  1  0  0  0  0
 10 23  1  1  0  0  0
 10  6  1  0  0  0  0
 11  1  1  0  0  0  0
 12 14  1  0  0  0  0
 13 16  1  0  0  0  0
 14 16  2  0  0  0  0
 15 13  2  0  0  0  0
 17 15  1  0  0  0  0
 17 12  2  0  0  0  0
 18 19  1  0  0  0  0
 18 15  1  0  0  0  0
 19 20  1  0  0  0  0
 21 19  2  0  0  0  0
 23 22  1  1  0  0  0
 24 26  2  0  0  0  0
 25 23  1  0  0  0  0
 26 25  1  0  0  0  0
 27 28  1  1  0  0  0
 27 26  1  0  0  0  0
 29 34  2  0  0  0  0
 29 27  1  0  0  0  0
 30 32  1  0  0  0  0
 30 33  2  0  0  0  0
 31 32  2  0  0  0  0
 32 29  1  0  0  0  0
 33 34  1  0  0  0  0
 35 33  1  0  0  0  0
M  END
>  <MODEL>
8

>  <REMARK>
 VINA RESULT:      -7.1      3.104      6.744
  Name = 
  7 active torsions:
  status: ('A' for Active; 'I' for Inactive)
    1  A    between atoms: C_1  and  C_11
    2  A    between atoms: C_2  and  C_33
    3  A    between atoms: C_4  and  C_23
    4  A    between atoms: C_15  and  C_33
    5  A    between atoms: N_21  and  C_34
    6  A    between atoms: C_23  and  C_27
    7  A    between atoms: C_30  and  C_34
                            x       y       z     vdW  Elec       q    Type
                         _______ _______ _______ _____ _____    ______ ____

>  <TORSDO>
F 7

$$$$
=
 OpenBabel11062415323D

 35 38  0  0  1  0  0  0  0  0999 V2000
  189.7690  177.4150  139.2400 C   0  0  2  0  0  3  0  0  0  0  0  0
  188.6140  179.0890  137.9420 N   0  0  0  0  0  0  0  0  0  0  0  0
  189.2410  178.8050  139.0300 C   0  0  0  0  0  3  0  0  0  0  0  0
  188.4390  178.0990  136.8980 C   0  0  2  0  0  3  0  0  0  0  0  0
  186.5320  176.5790  137.6140 C   0  0  0  0  0  2  0  0  0  0  0  0
  186.5040  176.5050  135.0610 N   0  0  0  0  0  0  0  0  0  0  0  0
  187.1970  177.5690  134.8160 C   0  0  0  0  0  3  0  0  0  0  0  0
  187.4670  178.6240  135.8430 C   0  0  0  0  0  2  0  0  0  0  0  0
  188.0430  176.7110  137.4770 C   0  0  2  0  0  3  0  0  0  0  0  0
  185.8110  176.1900  136.3060 C   0  0  2  0  0  3  0  0  0  0  0  0
  188.6980  176.3960  138.8350 C   0  0  0  0  0  2  0  0  0  0  0  0
  189.2920  176.7090  141.5870 C   0  0  0  0  0  3  0  0  0  0  0  0
  191.9070  177.3000  142.3890 C   0  0  0  0  0  3  0  0  0  0  0  0
  190.2090  177.2080  140.6550 C   0  0  0  0  0  0  0  0  0  0  0  0
  190.9880  176.7970  143.3160 C   0  0  0  0  0  0  0  0  0  0  0  0
  191.5200  177.5030  141.0610 C   0  0  0  0  0  3  0  0  0  0  0  0
  189.6800  176.5060  142.9150 C   0  0  0  0  0  3  0  0  0  0  0  0
  191.3950  176.5960  144.7360 C   0  0  0  0  0  2  0  0  0  0  0  0
  190.4320  177.2660  145.6580 C   0  0  0  0  0  0  0  0  0  0  0  0
  190.2260  176.7550  146.9690 N   0  0  0  0  0  1  0  0  0  0  0  0
  189.7780  178.2680  145.2640 O   0  0  0  0  0  0  0  0  0  0  0  0
  183.8970  177.1030  134.8670 C   0  0  0  0  0  1  0  0  0  0  0  0
  184.3520  176.6540  136.2510 C   0  0  2  0  0  3  0  0  0  0  0  0
  182.9860  176.2360  138.8190 O   0  0  0  0  0  0  0  0  0  0  0  0
  184.0510  177.6470  137.2800 N   0  0  0  0  0  2  0  0  0  0  0  0
  183.3400  177.4020  138.5020 C   0  0  0  0  0  0  0  0  0  0  0  0
  183.0380  178.5300  139.4340 C   0  0  2  0  0  3  0  0  0  0  0  0
  183.1190  179.8690  138.7180 C   0  0  0  0  0  1  0  0  0  0  0  0
  183.9260  178.4950  140.6400 C   0  0  0  0  0  0  0  0  0  0  0  0
  185.8370  178.6770  141.9920 N   0  0  0  0  0  0  0  0  0  0  0  0
  186.0720  179.0030  139.6630 O   0  0  0  0  0  0  0  0  0  0  0  0
  185.3510  178.7490  140.6640 C   0  0  0  0  0  0  0  0  0  0  0  0
  184.7830  178.4100  142.6930 C   0  0  0  0  0  0  0  0  0  0  0  0
  183.5510  178.2920  141.8990 C   0  0  0  0  0  3  0  0  0  0  0  0
  184.8280  178.2550  144.1060 N   0  0  0  0  0  1  0  0  0  0  0  0
  1 14  1  1  0  0  0
  2  3  2  0  0  0  0
  3  1  1  0  0  0  0
  4  8  1  6  0  0  0
  4  9  1  0  0  0  0
  4  2  1  0  0  0  0
  6 10  1  0  0  0  0
  7  6  2  0  0  0  0
  7  8  1  0  0  0  0
  9  5  1  1  0  0  0
  9 11  1  0  0  0  0
 10 23  1  6  0  0  0
 10  5  1  0  0  0  0
 11  1  1  0  0  0  0
 12 17  1  0  0  0  0
 13 15  1  0  0  0  0
 14 16  1  0  0  0  0
 14 12  2  0  0  0  0
 15 18  1  0  0  0  0
 16 13  2  0  0  0  0
 17 15  2  0  0  0  0
 18 19  1  0  0  0  0
 19 20  1  0  0  0  0
 21 19  2  0  0  0  0
 23 22  1  6  0  0  0
 23 25  1  0  0  0  0
 25 26  1  0  0  0  0
 26 24  2  0  0  0  0
 26 27  1  0  0  0  0
 27 28  1  6  0  0  0
 27 29  1  0  0  0  0
 29 32  1  0  0  0  0
 29 34  2  0  0  0  0
 30 33  2  0  0  0  0
 31 32  2  0  0  0  0
 32 30  1  0  0  0  0
 33 35  1  0  0  0  0
 34 33  1  0  0  0  0
M  END
>  <MODEL>
9

>  <REMARK>
 VINA RESULT:      -7.1      2.152      3.619
  Name = 
  7 active torsions:
  status: ('A' for Active; 'I' for Inactive)
    1  A    between atoms: C_1  and  C_11
    2  A    between atoms: C_2  and  C_33
    3  A    between atoms: C_4  and  C_23
    4  A    between atoms: C_15  and  C_33
    5  A    between atoms: N_21  and  C_34
    6  A    between atoms: C_23  and  C_27
    7  A    between atoms: C_30  and  C_34
                            x       y       z     vdW  Elec       q    Type
                         _______ _______ _______ _____ _____    ______ ____

>  <TORSDO>
F 7

$$$$
