=
 OpenBabel11062418003D

 40 43  0  0  1  0  0  0  0  0999 V2000
  189.6450  176.5200  137.7950 C   0  0  2  0  0  0  0  0  0  0  0  0
  188.9140  177.9730  136.0730 C   0  0  1  0  0  3  0  0  0  0  0  0
  190.6640  176.3270  135.4540 C   0  0  0  0  0  2  0  0  0  0  0  0
  190.3990  175.6220  136.7970 C   0  0  0  0  0  2  0  0  0  0  0  0
  187.8740  176.1000  137.7400 S   0  0  0  0  0  0  0  0  0  0  0  0
  187.5750  177.3600  136.4470 C   0  0  1  0  0  3  0  0  0  0  0  0
  189.7320  177.9640  137.3570 C   0  0  0  0  0  2  0  0  0  0  0  0
  189.5200  177.1430  135.0100 N   0  0  0  0  0  2  0  0  0  0  0  0
  189.7590  177.0880  140.1470 N   0  0  0  0  0  0  0  0  0  0  0  0
  190.1930  176.3650  139.1780 C   0  0  0  0  0  3  0  0  0  0  0  0
  191.7260  177.4460  141.5060 C   0  0  0  0  0  1  0  0  0  0  0  0
  190.2930  176.9340  141.4770 C   0  0  1  0  0  3  0  0  0  0  0  0
  188.7320  178.7150  141.8490 F   0  0  0  0  0  0  0  0  0  0  0  0
  189.4330  177.7050  142.4890 C   0  0  1  0  0  3  0  0  0  0  0  0
  188.4360  176.8010  143.2330 C   0  0  0  0  0  0  0  0  0  0  0  0
  188.8330  175.4780  143.1070 F   0  0  0  0  0  0  0  0  0  0  0  0
  187.1900  176.9270  142.6410 F   0  0  0  0  0  0  0  0  0  0  0  0
  189.3950  177.0320  145.5760 C   0  0  0  0  0  0  0  0  0  0  0  0
  189.2560  177.3730  146.8860 N   0  0  0  0  0  0  0  0  0  0  0  0
  186.9870  178.0340  146.5350 C   0  0  0  0  0  0  0  0  0  0  0  0
  188.0040  178.2030  148.7650 N   0  0  0  0  0  1  0  0  0  0  0  0
  190.5820  176.5400  145.1420 F   0  0  0  0  0  0  0  0  0  0  0  0
  185.6910  178.5690  147.0390 C   0  0  0  0  0  1  0  0  0  0  0  0
  187.1070  177.6900  145.1890 C   0  0  0  0  0  3  0  0  0  0  0  0
  188.0900  177.8640  147.3830 C   0  0  0  0  0  0  0  0  0  0  0  0
  188.3140  177.1860  144.6880 C   0  0  0  0  0  0  0  0  0  0  0  0
  186.6920  178.3920  136.9660 N   0  0  0  0  0  2  0  0  0  0  0  0
  185.4250  177.7530  137.2790 C   0  0  0  0  0  2  0  0  0  0  0  0
  185.9060  178.6520  139.5260 N   0  0  0  0  0  0  0  0  0  0  0  0
  185.5490  179.0260  140.7830 C   0  0  0  0  0  3  0  0  0  0  0  0
  185.0010  178.1290  138.6550 C   0  0  0  0  0  0  0  0  0  0  0  0
  183.2720  178.3520  140.3310 C   0  0  0  0  0  0  0  0  0  0  0  0
  184.2270  178.8820  141.2080 C   0  0  0  0  0  3  0  0  0  0  0  0
  183.6670  177.9760  139.0410 C   0  0  0  0  0  3  0  0  0  0  0  0
  181.8700  178.1940  140.7600 C   0  0  0  0  0  0  0  0  0  0  0  0
  181.2660  177.1120  140.5220 O   0  0  0  0  0  0  0  0  0  0  0  0
  181.0470  179.4080  142.7300 C   0  0  0  0  0  3  0  0  0  0  0  0
  181.2130  179.2740  141.4450 N   0  0  0  0  0  0  0  0  0  0  0  0
  182.7680  178.9690  144.4250 C   0  0  0  0  0  1  0  0  0  0  0  0
  181.5310  178.4230  143.7410 C   0  0  0  0  0  2  0  0  0  0  0  0
  1 10  1  1  0  0  0
  2  6  1  0  0  0  0
  2  7  1  1  0  0  0
  3  4  1  0  0  0  0
  4  1  1  0  0  0  0
  5  1  1  0  0  0  0
  6 27  1  1  0  0  0
  6  5  1  0  0  0  0
  7  1  1  0  0  0  0
  8  3  1  0  0  0  0
  8  2  1  0  0  0  0
  9 12  1  0  0  0  0
 10  9  2  0  0  0  0
 12 11  1  6  0  0  0
 12 14  1  0  0  0  0
 14 13  1  6  0  0  0
 14 15  1  0  0  0  0
 15 26  1  0  0  0  0
 16 15  1  0  0  0  0
 17 15  1  0  0  0  0
 18 19  1  0  0  0  0
 19 25  2  0  0  0  0
 20 23  1  0  0  0  0
 20 25  1  0  0  0  0
 22 18  1  0  0  0  0
 24 20  2  0  0  0  0
 25 21  1  0  0  0  0
 26 24  1  0  0  0  0
 26 18  2  0  0  0  0
 27 28  1  0  0  0  0
 28 31  1  0  0  0  0
 29 30  1  0  0  0  0
 30 33  2  0  0  0  0
 31 34  1  0  0  0  0
 31 29  2  0  0  0  0
 32 35  1  0  0  0  0
 32 33  1  0  0  0  0
 34 32  2  0  0  0  0
 35 38  1  0  0  0  0
 36 35  2  0  0  0  0
 37 40  1  0  0  0  0
 38 37  2  0  0  0  0
 40 39  1  0  0  0  0
M  END
>  <MODEL>
1

>  <REMARK>
 VINA RESULT:      -8.9      0.000      0.000
  Name = 
  11 active torsions:
  status: ('A' for Active; 'I' for Inactive)
    1  A    between atoms: N_1  and  C_11
    2  A    between atoms: C_2  and  C_17
    3  A    between atoms: C_6  and  C_38
    4  A    between atoms: C_8  and  C_23
    5  A    between atoms: C_9  and  C_35
    6  A    between atoms: C_9  and  C_40
    7  A    between atoms: C_11  and  C_35
    8  A    between atoms: C_20  and  C_29
    9  A    between atoms: C_23  and  N_31
   10  A    between atoms: C_27  and  N_39
   11  A    between atoms: C_38  and  N_39
                            x       y       z     vdW  Elec       q    Type
                         _______ _______ _______ _____ _____    ______ ____

>  <TORSDO>
F 11

$$$$
=
 OpenBabel11062418003D

 40 43  0  0  1  0  0  0  0  0999 V2000
  188.8220  176.9750  138.1370 C   0  0  2  0  0  0  0  0  0  0  0  0
  186.7830  177.6720  137.1540 C   0  0  1  0  0  3  0  0  0  0  0  0
  188.7570  179.1120  136.7290 C   0  0  0  0  0  2  0  0  0  0  0  0
  189.6340  177.9870  137.3100 C   0  0  0  0  0  2  0  0  0  0  0  0
  188.4490  175.5290  137.0940 S   0  0  0  0  0  0  0  0  0  0  0  0
  186.8720  176.2810  136.5470 C   0  0  1  0  0  3  0  0  0  0  0  0
  187.4800  177.5660  138.5040 C   0  0  0  0  0  2  0  0  0  0  0  0
  187.4580  178.6180  136.2400 N   0  0  0  0  0  2  0  0  0  0  0  0
  189.9380  177.4440  140.2360 N   0  0  0  0  0  0  0  0  0  0  0  0
  189.5630  176.5700  139.3720 C   0  0  0  0  0  3  0  0  0  0  0  0
  192.0990  177.5120  141.3150 C   0  0  0  0  0  1  0  0  0  0  0  0
  190.6540  177.0470  141.4220 C   0  0  1  0  0  3  0  0  0  0  0  0
  189.2890  178.7960  142.3330 F   0  0  0  0  0  0  0  0  0  0  0  0
  189.9930  177.6500  142.6700 C   0  0  1  0  0  3  0  0  0  0  0  0
  189.0390  176.6690  143.3710 C   0  0  0  0  0  0  0  0  0  0  0  0
  189.5610  175.3870  143.2930 F   0  0  0  0  0  0  0  0  0  0  0  0
  187.8250  176.6730  142.7060 F   0  0  0  0  0  0  0  0  0  0  0  0
  189.8150  176.9560  145.7760 C   0  0  0  0  0  0  0  0  0  0  0  0
  189.5670  177.3020  147.0680 N   0  0  0  0  0  0  0  0  0  0  0  0
  187.3070  177.8710  146.5450 C   0  0  0  0  0  0  0  0  0  0  0  0
  188.1500  178.0970  148.8420 N   0  0  0  0  0  1  0  0  0  0  0  0
  191.0490  176.5080  145.4340 F   0  0  0  0  0  0  0  0  0  0  0  0
  185.9570  178.3590  146.9480 C   0  0  0  0  0  1  0  0  0  0  0  0
  187.5380  177.5220  145.2160 C   0  0  0  0  0  3  0  0  0  0  0  0
  188.3500  177.7510  147.4740 C   0  0  0  0  0  0  0  0  0  0  0  0
  188.7970  177.0610  144.8100 C   0  0  0  0  0  0  0  0  0  0  0  0
  185.7580  175.4710  137.0120 N   0  0  0  0  0  2  0  0  0  0  0  0
  184.5440  176.0790  136.4930 C   0  0  0  0  0  2  0  0  0  0  0  0
  182.5600  175.3640  137.7740 N   0  0  0  0  0  0  0  0  0  0  0  0
  181.6610  175.4890  138.7870 C   0  0  0  0  0  3  0  0  0  0  0  0
  183.5650  176.2640  137.5980 C   0  0  0  0  0  0  0  0  0  0  0  0
  182.7850  177.4980  139.5260 C   0  0  0  0  0  0  0  0  0  0  0  0
  181.7570  176.5590  139.6790 C   0  0  0  0  0  3  0  0  0  0  0  0
  183.6990  177.3430  138.4760 C   0  0  0  0  0  3  0  0  0  0  0  0
  182.9050  178.6330  140.4600 C   0  0  0  0  0  0  0  0  0  0  0  0
  181.9060  178.9790  141.1490 O   0  0  0  0  0  0  0  0  0  0  0  0
  185.0760  179.1570  141.4820 C   0  0  0  0  0  3  0  0  0  0  0  0
  184.1600  179.3280  140.5730 N   0  0  0  0  0  0  0  0  0  0  0  0
  184.2310  178.8050  143.7600 C   0  0  0  0  0  1  0  0  0  0  0  0
  184.9700  178.1730  142.5990 C   0  0  0  0  0  2  0  0  0  0  0  0
  1  7  1  0  0  0  0
  1 10  1  1  0  0  0
  2  7  1  1  0  0  0
  3  4  1  0  0  0  0
  4  1  1  0  0  0  0
  5  1  1  0  0  0  0
  6 27  1  1  0  0  0
  6  5  1  0  0  0  0
  6  2  1  0  0  0  0
  8  3  1  0  0  0  0
  8  2  1  0  0  0  0
  9 12  1  0  0  0  0
 10  9  2  0  0  0  0
 12 11  1  6  0  0  0
 12 14  1  0  0  0  0
 14 13  1  6  0  0  0
 14 15  1  0  0  0  0
 15 26  1  0  0  0  0
 16 15  1  0  0  0  0
 17 15  1  0  0  0  0
 18 19  1  0  0  0  0
 19 25  2  0  0  0  0
 20 23  1  0  0  0  0
 20 25  1  0  0  0  0
 22 18  1  0  0  0  0
 24 20  2  0  0  0  0
 25 21  1  0  0  0  0
 26 24  1  0  0  0  0
 26 18  2  0  0  0  0
 28 27  1  0  0  0  0
 28 31  1  0  0  0  0
 29 30  1  0  0  0  0
 30 33  2  0  0  0  0
 31 29  2  0  0  0  0
 31 34  1  0  0  0  0
 32 33  1  0  0  0  0
 32 35  1  0  0  0  0
 34 32  2  0  0  0  0
 35 38  1  0  0  0  0
 35 36  2  0  0  0  0
 37 40  1  0  0  0  0
 38 37  2  0  0  0  0
 40 39  1  0  0  0  0
M  END
>  <MODEL>
2

>  <REMARK>
 VINA RESULT:      -8.7      1.519      2.181
  Name = 
  11 active torsions:
  status: ('A' for Active; 'I' for Inactive)
    1  A    between atoms: N_1  and  C_11
    2  A    between atoms: C_2  and  C_17
    3  A    between atoms: C_6  and  C_38
    4  A    between atoms: C_8  and  C_23
    5  A    between atoms: C_9  and  C_35
    6  A    between atoms: C_9  and  C_40
    7  A    between atoms: C_11  and  C_35
    8  A    between atoms: C_20  and  C_29
    9  A    between atoms: C_23  and  N_31
   10  A    between atoms: C_27  and  N_39
   11  A    between atoms: C_38  and  N_39
                            x       y       z     vdW  Elec       q    Type
                         _______ _______ _______ _____ _____    ______ ____

>  <TORSDO>
F 11

$$$$
=
 OpenBabel11062418003D

 40 43  0  0  1  0  0  0  0  0999 V2000
  189.5660  176.7600  138.1370 C   0  0  2  0  0  0  0  0  0  0  0  0
  189.3150  176.9860  135.7930 C   0  0  1  0  0  3  0  0  0  0  0  0
  191.5740  176.3560  136.6020 C   0  0  0  0  0  2  0  0  0  0  0  0
  190.9470  176.0990  137.9840 C   0  0  0  0  0  2  0  0  0  0  0  0
  188.2800  175.5110  137.8220 S   0  0  0  0  0  0  0  0  0  0  0  0
  188.2400  175.9420  136.0440 C   0  0  1  0  0  3  0  0  0  0  0  0
  189.3770  177.8140  137.0700 C   0  0  0  0  0  2  0  0  0  0  0  0
  190.5850  176.2820  135.5110 N   0  0  0  0  0  2  0  0  0  0  0  0
  190.1450  176.9910  140.4780 N   0  0  0  0  0  0  0  0  0  0  0  0
  189.4070  177.3660  139.4950 C   0  0  0  0  0  3  0  0  0  0  0  0
  188.6830  178.3640  141.8270 C   0  0  0  0  0  1  0  0  0  0  0  0
  189.9850  177.5780  141.7850 C   0  0  1  0  0  3  0  0  0  0  0  0
  190.3390  175.2650  142.3100 F   0  0  0  0  0  0  0  0  0  0  0  0
  189.9800  176.4850  142.8640 C   0  0  1  0  0  3  0  0  0  0  0  0
  190.9280  176.7990  144.0330 C   0  0  0  0  0  0  0  0  0  0  0  0
  191.7290  177.8790  143.6970 F   0  0  0  0  0  0  0  0  0  0  0  0
  191.7550  175.7080  144.2440 F   0  0  0  0  0  0  0  0  0  0  0  0
  190.7910  176.9820  146.5650 C   0  0  0  0  0  0  0  0  0  0  0  0
  190.0800  177.2200  147.7000 N   0  0  0  0  0  0  0  0  0  0  0  0
  188.0980  177.6520  146.4380 C   0  0  0  0  0  0  0  0  0  0  0  0
  188.0680  177.7870  148.8910 N   0  0  0  0  0  1  0  0  0  0  0  0
  192.1030  176.6500  146.6630 F   0  0  0  0  0  0  0  0  0  0  0  0
  186.6530  178.0100  146.3590 C   0  0  0  0  0  1  0  0  0  0  0  0
  188.8080  177.4110  145.2630 C   0  0  0  0  0  3  0  0  0  0  0  0
  188.7610  177.5490  147.6690 C   0  0  0  0  0  0  0  0  0  0  0  0
  190.1660  177.0740  145.3080 C   0  0  0  0  0  0  0  0  0  0  0  0
  186.9370  176.4880  135.7030 N   0  0  0  0  0  2  0  0  0  0  0  0
  185.9420  175.6720  136.3770 C   0  0  0  0  0  2  0  0  0  0  0  0
  183.5500  176.2730  136.4180 N   0  0  0  0  0  0  0  0  0  0  0  0
  182.4950  177.0240  136.8350 C   0  0  0  0  0  3  0  0  0  0  0  0
  184.8180  176.5320  136.8360 C   0  0  0  0  0  0  0  0  0  0  0  0
  183.9930  178.3750  138.1680 C   0  0  0  0  0  0  0  0  0  0  0  0
  182.6990  178.0890  137.7150 C   0  0  0  0  0  3  0  0  0  0  0  0
  185.0600  177.5840  137.7240 C   0  0  0  0  0  3  0  0  0  0  0  0
  184.2280  179.4930  139.0990 C   0  0  0  0  0  0  0  0  0  0  0  0
  183.5460  180.5490  138.9880 O   0  0  0  0  0  0  0  0  0  0  0  0
  185.0580  178.9510  141.3460 C   0  0  0  0  0  3  0  0  0  0  0  0
  185.2300  179.3630  140.1240 N   0  0  0  0  0  0  0  0  0  0  0  0
  183.7550  178.7020  143.4130 C   0  0  0  0  0  1  0  0  0  0  0  0
  183.7420  178.5280  141.9070 C   0  0  0  0  0  2  0  0  0  0  0  0
  1 10  1  1  0  0  0
  2  6  1  0  0  0  0
  2  7  1  1  0  0  0
  3  4  1  0  0  0  0
  4  1  1  0  0  0  0
  5  1  1  0  0  0  0
  6 27  1  1  0  0  0
  6  5  1  0  0  0  0
  7  1  1  0  0  0  0
  8  2  1  0  0  0  0
  8  3  1  0  0  0  0
  9 12  1  0  0  0  0
 10  9  2  0  0  0  0
 12 11  1  6  0  0  0
 12 14  1  0  0  0  0
 14 13  1  6  0  0  0
 14 15  1  0  0  0  0
 15 17  1  0  0  0  0
 15 26  1  0  0  0  0
 16 15  1  0  0  0  0
 18 22  1  0  0  0  0
 18 19  1  0  0  0  0
 20 25  1  0  0  0  0
 23 20  1  0  0  0  0
 24 26  1  0  0  0  0
 24 20  2  0  0  0  0
 25 19  2  0  0  0  0
 25 21  1  0  0  0  0
 26 18  2  0  0  0  0
 27 28  1  0  0  0  0
 28 31  1  0  0  0  0
 29 30  2  0  0  0  0
 29 31  1  0  0  0  0
 30 33  1  0  0  0  0
 31 34  2  0  0  0  0
 32 35  1  0  0  0  0
 33 32  2  0  0  0  0
 34 32  1  0  0  0  0
 35 38  1  0  0  0  0
 36 35  2  0  0  0  0
 37 40  1  0  0  0  0
 38 37  2  0  0  0  0
 40 39  1  0  0  0  0
M  END
>  <MODEL>
3

>  <REMARK>
 VINA RESULT:      -8.7      1.800      2.611
  Name = 
  11 active torsions:
  status: ('A' for Active; 'I' for Inactive)
    1  A    between atoms: N_1  and  C_11
    2  A    between atoms: C_2  and  C_17
    3  A    between atoms: C_6  and  C_38
    4  A    between atoms: C_8  and  C_23
    5  A    between atoms: C_9  and  C_35
    6  A    between atoms: C_9  and  C_40
    7  A    between atoms: C_11  and  C_35
    8  A    between atoms: C_20  and  C_29
    9  A    between atoms: C_23  and  N_31
   10  A    between atoms: C_27  and  N_39
   11  A    between atoms: C_38  and  N_39
                            x       y       z     vdW  Elec       q    Type
                         _______ _______ _______ _____ _____    ______ ____

>  <TORSDO>
F 11

$$$$
=
 OpenBabel11062418003D

 40 43  0  0  1  0  0  0  0  0999 V2000
  189.6630  176.8380  137.5010 C   0  0  2  0  0  0  0  0  0  0  0  0
  188.5580  178.0330  135.7800 C   0  0  1  0  0  3  0  0  0  0  0  0
  190.4550  176.5950  135.0780 C   0  0  0  0  0  2  0  0  0  0  0  0
  190.4320  175.9730  136.4870 C   0  0  0  0  0  2  0  0  0  0  0  0
  187.9750  176.1790  137.6750 S   0  0  0  0  0  0  0  0  0  0  0  0
  187.3670  177.2770  136.3430 C   0  0  1  0  0  3  0  0  0  0  0  0
  189.4970  178.2400  136.9610 C   0  0  0  0  0  2  0  0  0  0  0  0
  189.1650  177.2090  134.7130 N   0  0  0  0  0  2  0  0  0  0  0  0
  189.7150  176.7530  139.9220 N   0  0  0  0  0  0  0  0  0  0  0  0
  190.3660  176.8720  138.8210 C   0  0  0  0  0  3  0  0  0  0  0  0
  191.7310  177.5040  141.0230 C   0  0  0  0  0  1  0  0  0  0  0  0
  190.3990  176.7880  141.1900 C   0  0  1  0  0  3  0  0  0  0  0  0
  188.6100  178.3270  141.6170 F   0  0  0  0  0  0  0  0  0  0  0  0
  189.5390  177.5070  142.2400 C   0  0  1  0  0  3  0  0  0  0  0  0
  188.7960  176.5320  143.1680 C   0  0  0  0  0  0  0  0  0  0  0  0
  189.3590  175.2690  143.0530 F   0  0  0  0  0  0  0  0  0  0  0  0
  187.4750  176.4450  142.7630 F   0  0  0  0  0  0  0  0  0  0  0  0
  190.0050  176.9410  145.3680 C   0  0  0  0  0  0  0  0  0  0  0  0
  190.0020  177.3560  146.6630 N   0  0  0  0  0  0  0  0  0  0  0  0
  187.6820  177.9110  146.5420 C   0  0  0  0  0  0  0  0  0  0  0  0
  188.9380  178.2530  148.6250 N   0  0  0  0  0  1  0  0  0  0  0  0
  191.1560  176.4670  144.8260 F   0  0  0  0  0  0  0  0  0  0  0  0
  186.4300  178.4280  147.1630 C   0  0  0  0  0  1  0  0  0  0  0  0
  187.6630  177.4900  145.2130 C   0  0  0  0  0  3  0  0  0  0  0  0
  188.8800  177.8340  147.2640 C   0  0  0  0  0  0  0  0  0  0  0  0
  188.8250  177.0010  144.6040 C   0  0  0  0  0  0  0  0  0  0  0  0
  186.4030  178.2180  136.8880 N   0  0  0  0  0  2  0  0  0  0  0  0
  185.2210  177.4550  137.2550 C   0  0  0  0  0  2  0  0  0  0  0  0
  185.4920  178.5340  139.4570 N   0  0  0  0  0  0  0  0  0  0  0  0
  185.0160  179.0410  140.6250 C   0  0  0  0  0  3  0  0  0  0  0  0
  184.6650  177.9770  138.5320 C   0  0  0  0  0  0  0  0  0  0  0  0
  182.7700  178.4400  139.9620 C   0  0  0  0  0  0  0  0  0  0  0  0
  183.6470  179.0010  140.8990 C   0  0  0  0  0  3  0  0  0  0  0  0
  183.2880  177.9270  138.7660 C   0  0  0  0  0  3  0  0  0  0  0  0
  181.3210  178.3910  140.2310 C   0  0  0  0  0  0  0  0  0  0  0  0
  180.9140  178.1400  141.3980 O   0  0  0  0  0  0  0  0  0  0  0  0
  179.9980  179.7870  138.7030 C   0  0  0  0  0  3  0  0  0  0  0  0
  180.3930  178.6330  139.1590 N   0  0  0  0  0  0  0  0  0  0  0  0
  181.5530  181.6540  138.3460 C   0  0  0  0  0  1  0  0  0  0  0  0
  180.4630  181.1000  139.2400 C   0  0  0  0  0  2  0  0  0  0  0  0
  1  5  1  0  0  0  0
  1 10  1  1  0  0  0
  2  6  1  0  0  0  0
  2  7  1  1  0  0  0
  3  4  1  0  0  0  0
  4  1  1  0  0  0  0
  6 27  1  1  0  0  0
  6  5  1  0  0  0  0
  7  1  1  0  0  0  0
  8  3  1  0  0  0  0
  8  2  1  0  0  0  0
  9 12  1  0  0  0  0
 10  9  2  0  0  0  0
 12 11  1  6  0  0  0
 12 14  1  0  0  0  0
 14 13  1  6  0  0  0
 14 15  1  0  0  0  0
 15 26  1  0  0  0  0
 16 15  1  0  0  0  0
 17 15  1  0  0  0  0
 18 19  1  0  0  0  0
 19 25  2  0  0  0  0
 20 23  1  0  0  0  0
 20 25  1  0  0  0  0
 22 18  1  0  0  0  0
 24 20  2  0  0  0  0
 25 21  1  0  0  0  0
 26 24  1  0  0  0  0
 26 18  2  0  0  0  0
 27 28  1  0  0  0  0
 28 31  1  0  0  0  0
 29 30  1  0  0  0  0
 30 33  2  0  0  0  0
 31 34  1  0  0  0  0
 31 29  2  0  0  0  0
 32 35  1  0  0  0  0
 32 33  1  0  0  0  0
 34 32  2  0  0  0  0
 35 36  2  0  0  0  0
 37 38  2  0  0  0  0
 37 40  1  0  0  0  0
 38 35  1  0  0  0  0
 39 40  1  0  0  0  0
M  END
>  <MODEL>
4

>  <REMARK>
 VINA RESULT:      -8.0      1.224      1.665
  Name = 
  11 active torsions:
  status: ('A' for Active; 'I' for Inactive)
    1  A    between atoms: N_1  and  C_11
    2  A    between atoms: C_2  and  C_17
    3  A    between atoms: C_6  and  C_38
    4  A    between atoms: C_8  and  C_23
    5  A    between atoms: C_9  and  C_35
    6  A    between atoms: C_9  and  C_40
    7  A    between atoms: C_11  and  C_35
    8  A    between atoms: C_20  and  C_29
    9  A    between atoms: C_23  and  N_31
   10  A    between atoms: C_27  and  N_39
   11  A    between atoms: C_38  and  N_39
                            x       y       z     vdW  Elec       q    Type
                         _______ _______ _______ _____ _____    ______ ____

>  <TORSDO>
F 11

$$$$
=
 OpenBabel11062418003D

 40 43  0  0  1  0  0  0  0  0999 V2000
  188.9850  177.4310  144.9010 C   0  0  2  0  0  0  0  0  0  0  0  0
  190.8980  177.8950  143.5830 C   0  0  1  0  0  3  0  0  0  0  0  0
  191.3200  177.0000  145.8580 C   0  0  0  0  0  2  0  0  0  0  0  0
  189.8190  176.6700  145.9470 C   0  0  0  0  0  2  0  0  0  0  0  0
  188.6810  176.3320  143.4810 S   0  0  0  0  0  0  0  0  0  0  0  0
  190.1950  176.9290  142.6440 C   0  0  1  0  0  3  0  0  0  0  0  0
  189.7830  178.5910  144.3510 C   0  0  0  0  0  2  0  0  0  0  0  0
  191.7910  177.1130  144.4660 N   0  0  0  0  0  2  0  0  0  0  0  0
  186.5690  177.5910  144.9750 N   0  0  0  0  0  0  0  0  0  0  0  0
  187.7000  177.9190  145.4890 C   0  0  0  0  0  3  0  0  0  0  0  0
  185.5920  178.5570  146.9630 C   0  0  0  0  0  1  0  0  0  0  0  0
  185.3340  178.0660  145.5460 C   0  0  1  0  0  3  0  0  0  0  0  0
  185.5290  180.3410  144.8140 F   0  0  0  0  0  0  0  0  0  0  0  0
  184.7520  179.2000  144.6890 C   0  0  1  0  0  3  0  0  0  0  0  0
  184.6510  178.8280  143.2000 C   0  0  0  0  0  0  0  0  0  0  0  0
  185.3260  177.6380  142.9770 F   0  0  0  0  0  0  0  0  0  0  0  0
  185.2700  179.8130  142.4490 F   0  0  0  0  0  0  0  0  0  0  0  0
  182.8840  178.5110  141.3990 C   0  0  0  0  0  0  0  0  0  0  0  0
  181.5810  178.4310  141.0170 N   0  0  0  0  0  0  0  0  0  0  0  0
  180.8410  178.7570  143.2650 C   0  0  0  0  0  0  0  0  0  0  0  0
  179.2150  178.4560  141.4490 N   0  0  0  0  0  1  0  0  0  0  0  0
  183.8580  178.3930  140.4610 F   0  0  0  0  0  0  0  0  0  0  0  0
  179.7520  178.8920  144.2740 C   0  0  0  0  0  1  0  0  0  0  0  0
  182.1700  178.8430  143.6780 C   0  0  0  0  0  3  0  0  0  0  0  0
  180.5600  178.5480  141.9080 C   0  0  0  0  0  0  0  0  0  0  0  0
  183.2120  178.7190  142.7510 C   0  0  0  0  0  0  0  0  0  0  0  0
  189.8360  177.6150  141.4140 N   0  0  0  0  0  2  0  0  0  0  0  0
  190.7280  177.1270  140.3760 C   0  0  0  0  0  2  0  0  0  0  0  0
  190.3560  175.6840  138.4100 N   0  0  0  0  0  0  0  0  0  0  0  0
  189.6440  175.2710  137.3270 C   0  0  0  0  0  3  0  0  0  0  0  0
  189.9350  176.7200  139.1860 C   0  0  0  0  0  0  0  0  0  0  0  0
  187.9890  176.9750  137.7720 C   0  0  0  0  0  0  0  0  0  0  0  0
  188.4500  175.9100  136.9890 C   0  0  0  0  0  3  0  0  0  0  0  0
  188.7400  177.3790  138.8830 C   0  0  0  0  0  3  0  0  0  0  0  0
  186.7290  177.6620  137.4320 C   0  0  0  0  0  0  0  0  0  0  0  0
  186.2950  178.5740  138.1880 O   0  0  0  0  0  0  0  0  0  0  0  0
  185.0350  176.4300  136.1490 C   0  0  0  0  0  3  0  0  0  0  0  0
  186.0140  177.2830  136.2430 N   0  0  0  0  0  0  0  0  0  0  0  0
  185.0250  174.2650  137.3080 C   0  0  0  0  0  1  0  0  0  0  0  0
  184.4720  175.6760  137.3070 C   0  0  0  0  0  2  0  0  0  0  0  0
  1 10  1  1  0  0  0
  1  4  1  0  0  0  0
  2  7  1  1  0  0  0
  2  8  1  0  0  0  0
  3  4  1  0  0  0  0
  5  1  1  0  0  0  0
  6 27  1  6  0  0  0
  6  5  1  0  0  0  0
  6  2  1  0  0  0  0
  7  1  1  0  0  0  0
  8  3  1  0  0  0  0
  9 10  2  0  0  0  0
  9 12  1  0  0  0  0
 12 11  1  1  0  0  0
 14 13  1  6  0  0  0
 14 12  1  0  0  0  0
 15 14  1  0  0  0  0
 16 15  1  0  0  0  0
 17 15  1  0  0  0  0
 18 26  1  0  0  0  0
 19 18  2  0  0  0  0
 19 25  1  0  0  0  0
 20 24  1  0  0  0  0
 20 23  1  0  0  0  0
 21 25  1  0  0  0  0
 22 18  1  0  0  0  0
 25 20  2  0  0  0  0
 26 15  1  0  0  0  0
 26 24  2  0  0  0  0
 28 27  1  0  0  0  0
 29 31  1  0  0  0  0
 30 29  2  0  0  0  0
 31 28  1  0  0  0  0
 32 34  1  0  0  0  0
 33 30  1  0  0  0  0
 33 32  2  0  0  0  0
 34 31  2  0  0  0  0
 35 32  1  0  0  0  0
 35 36  2  0  0  0  0
 37 38  2  0  0  0  0
 37 40  1  0  0  0  0
 38 35  1  0  0  0  0
 40 39  1  0  0  0  0
M  END
>  <MODEL>
5

>  <REMARK>
 VINA RESULT:      -8.0      2.524      7.093
  Name = 
  11 active torsions:
  status: ('A' for Active; 'I' for Inactive)
    1  A    between atoms: N_1  and  C_11
    2  A    between atoms: C_2  and  C_17
    3  A    between atoms: C_6  and  C_38
    4  A    between atoms: C_8  and  C_23
    5  A    between atoms: C_9  and  C_35
    6  A    between atoms: C_9  and  C_40
    7  A    between atoms: C_11  and  C_35
    8  A    between atoms: C_20  and  C_29
    9  A    between atoms: C_23  and  N_31
   10  A    between atoms: C_27  and  N_39
   11  A    between atoms: C_38  and  N_39
                            x       y       z     vdW  Elec       q    Type
                         _______ _______ _______ _____ _____    ______ ____

>  <TORSDO>
F 11

$$$$
=
 OpenBabel11062418003D

 40 43  0  0  1  0  0  0  0  0999 V2000
  189.7910  176.3440  138.3270 C   0  0  2  0  0  0  0  0  0  0  0  0
  189.5590  177.5090  136.2780 C   0  0  1  0  0  3  0  0  0  0  0  0
  191.7060  176.3160  136.6280 C   0  0  0  0  0  2  0  0  0  0  0  0
  191.0580  175.6190  137.8390 C   0  0  0  0  0  2  0  0  0  0  0  0
  188.3310  175.5040  137.6350 S   0  0  0  0  0  0  0  0  0  0  0  0
  188.3430  176.6040  136.1720 C   0  0  1  0  0  3  0  0  0  0  0  0
  189.7530  177.7480  137.7700 C   0  0  0  0  0  2  0  0  0  0  0  0
  190.7090  176.8120  135.6630 N   0  0  0  0  0  2  0  0  0  0  0  0
  190.5280  177.1280  140.4980 N   0  0  0  0  0  0  0  0  0  0  0  0
  189.7340  176.3790  139.8210 C   0  0  0  0  0  3  0  0  0  0  0  0
  191.7000  177.8680  142.4780 C   0  0  0  0  0  1  0  0  0  0  0  0
  190.4690  177.1550  141.9380 C   0  0  1  0  0  3  0  0  0  0  0  0
  188.5070  178.3850  141.3160 F   0  0  0  0  0  0  0  0  0  0  0  0
  189.1930  177.8700  142.4050 C   0  0  1  0  0  3  0  0  0  0  0  0
  188.2500  176.9480  143.1960 C   0  0  0  0  0  0  0  0  0  0  0  0
  188.5480  175.6260  142.9030 F   0  0  0  0  0  0  0  0  0  0  0  0
  186.9470  177.1870  142.7930 F   0  0  0  0  0  0  0  0  0  0  0  0
  187.2600  177.7380  145.4010 C   0  0  0  0  0  0  0  0  0  0  0  0
  187.3740  177.9690  146.7360 N   0  0  0  0  0  0  0  0  0  0  0  0
  189.6230  177.1610  146.7450 C   0  0  0  0  0  0  0  0  0  0  0  0
  188.5780  177.9610  148.8190 N   0  0  0  0  0  1  0  0  0  0  0  0
  186.0950  178.0370  144.7740 F   0  0  0  0  0  0  0  0  0  0  0  0
  190.8940  176.8490  147.4560 C   0  0  0  0  0  1  0  0  0  0  0  0
  189.5270  176.9170  145.3760 C   0  0  0  0  0  3  0  0  0  0  0  0
  188.5180  177.6970  147.4200 C   0  0  0  0  0  0  0  0  0  0  0  0
  188.3440  177.2000  144.6830 C   0  0  0  0  0  0  0  0  0  0  0  0
  187.1330  177.4090  136.1570 N   0  0  0  0  0  2  0  0  0  0  0  0
  186.0300  176.5160  135.8470 C   0  0  0  0  0  2  0  0  0  0  0  0
  183.9950  175.7450  137.0090 N   0  0  0  0  0  0  0  0  0  0  0  0
  182.9920  175.8830  137.9170 C   0  0  0  0  0  3  0  0  0  0  0  0
  184.9330  176.7140  136.8320 C   0  0  0  0  0  0  0  0  0  0  0  0
  183.8630  178.0500  138.5410 C   0  0  0  0  0  0  0  0  0  0  0  0
  182.9080  177.0380  138.6970 C   0  0  0  0  0  3  0  0  0  0  0  0
  184.8870  177.8810  137.6000 C   0  0  0  0  0  3  0  0  0  0  0  0
  183.7930  179.2760  139.3570 C   0  0  0  0  0  0  0  0  0  0  0  0
  182.7850  180.0290  139.2620 O   0  0  0  0  0  0  0  0  0  0  0  0
  185.0370  179.1720  141.4720 C   0  0  0  0  0  3  0  0  0  0  0  0
  184.8730  179.5950  140.2520 N   0  0  0  0  0  0  0  0  0  0  0  0
  183.2070  179.0510  143.1050 C   0  0  0  0  0  1  0  0  0  0  0  0
  184.0930  178.2520  142.1700 C   0  0  0  0  0  2  0  0  0  0  0  0
  1 10  1  1  0  0  0
  2  7  1  1  0  0  0
  3  4  1  0  0  0  0
  4  1  1  0  0  0  0
  5  1  1  0  0  0  0
  6 27  1  1  0  0  0
  6  2  1  0  0  0  0
  6  5  1  0  0  0  0
  7  1  1  0  0  0  0
  8  2  1  0  0  0  0
  8  3  1  0  0  0  0
  9 12  1  0  0  0  0
 10  9  2  0  0  0  0
 12 14  1  0  0  0  0
 12 11  1  1  0  0  0
 14 13  1  6  0  0  0
 14 15  1  0  0  0  0
 15 26  1  0  0  0  0
 16 15  1  0  0  0  0
 17 15  1  0  0  0  0
 18 19  1  0  0  0  0
 19 25  2  0  0  0  0
 20 25  1  0  0  0  0
 20 23  1  0  0  0  0
 22 18  1  0  0  0  0
 24 20  2  0  0  0  0
 25 21  1  0  0  0  0
 26 24  1  0  0  0  0
 26 18  2  0  0  0  0
 28 27  1  0  0  0  0
 28 31  1  0  0  0  0
 29 30  1  0  0  0  0
 30 33  2  0  0  0  0
 31 29  2  0  0  0  0
 31 34  1  0  0  0  0
 32 33  1  0  0  0  0
 32 35  1  0  0  0  0
 34 32  2  0  0  0  0
 35 38  1  0  0  0  0
 36 35  2  0  0  0  0
 37 40  1  0  0  0  0
 38 37  2  0  0  0  0
 40 39  1  0  0  0  0
M  END
>  <MODEL>
6

>  <REMARK>
 VINA RESULT:      -7.9      1.491      2.370
  Name = 
  11 active torsions:
  status: ('A' for Active; 'I' for Inactive)
    1  A    between atoms: N_1  and  C_11
    2  A    between atoms: C_2  and  C_17
    3  A    between atoms: C_6  and  C_38
    4  A    between atoms: C_8  and  C_23
    5  A    between atoms: C_9  and  C_35
    6  A    between atoms: C_9  and  C_40
    7  A    between atoms: C_11  and  C_35
    8  A    between atoms: C_20  and  C_29
    9  A    between atoms: C_23  and  N_31
   10  A    between atoms: C_27  and  N_39
   11  A    between atoms: C_38  and  N_39
                            x       y       z     vdW  Elec       q    Type
                         _______ _______ _______ _____ _____    ______ ____

>  <TORSDO>
F 11

$$$$
=
 OpenBabel11062418003D

 40 43  0  0  1  0  0  0  0  0999 V2000
  182.8840  178.4600  140.5680 C   0  0  2  0  0  0  0  0  0  0  0  0
  182.9570  177.1130  138.6210 C   0  0  1  0  0  3  0  0  0  0  0  0
  180.7330  178.0100  139.2550 C   0  0  0  0  0  2  0  0  0  0  0  0
  181.4510  178.9300  140.2590 C   0  0  0  0  0  2  0  0  0  0  0  0
  184.0480  179.4200  139.5480 S   0  0  0  0  0  0  0  0  0  0  0  0
  183.9720  178.1680  138.2150 C   0  0  1  0  0  3  0  0  0  0  0  0
  183.0590  177.0220  140.1380 C   0  0  0  0  0  2  0  0  0  0  0  0
  181.6210  177.5590  138.1690 N   0  0  0  0  0  2  0  0  0  0  0  0
  184.3530  179.0050  142.4160 N   0  0  0  0  0  0  0  0  0  0  0  0
  183.1960  178.6070  142.0230 C   0  0  0  0  0  3  0  0  0  0  0  0
  183.3750  178.9210  144.6250 C   0  0  0  0  0  1  0  0  0  0  0  0
  184.6480  179.1420  143.8200 C   0  0  1  0  0  3  0  0  0  0  0  0
  186.8350  178.2450  143.4180 F   0  0  0  0  0  0  0  0  0  0  0  0
  185.7240  178.1310  144.2410 C   0  0  1  0  0  3  0  0  0  0  0  0
  186.1680  178.3080  145.7020 C   0  0  0  0  0  0  0  0  0  0  0  0
  185.3220  177.5860  146.5300 F   0  0  0  0  0  0  0  0  0  0  0  0
  186.0570  179.6440  146.0460 F   0  0  0  0  0  0  0  0  0  0  0  0
  188.1900  177.8720  147.1810 C   0  0  0  0  0  0  0  0  0  0  0  0
  189.4890  177.4980  147.3340 N   0  0  0  0  0  0  0  0  0  0  0  0
  189.7180  177.1200  144.9860 C   0  0  0  0  0  0  0  0  0  0  0  0
  191.6160  176.7450  146.5000 N   0  0  0  0  0  1  0  0  0  0  0  0
  187.4740  178.2390  148.2730 F   0  0  0  0  0  0  0  0  0  0  0  0
  190.5300  176.7200  143.8020 C   0  0  0  0  0  1  0  0  0  0  0  0
  188.3890  177.5010  144.8070 C   0  0  0  0  0  3  0  0  0  0  0  0
  190.2610  177.1260  146.2780 C   0  0  0  0  0  0  0  0  0  0  0  0
  187.6040  177.8810  145.9030 C   0  0  0  0  0  0  0  0  0  0  0  0
  185.2780  177.5530  138.0470 N   0  0  0  0  0  2  0  0  0  0  0  0
  185.1880  176.6650  136.9000 C   0  0  0  0  0  2  0  0  0  0  0  0
  186.1690  174.4230  136.5960 N   0  0  0  0  0  0  0  0  0  0  0  0
  187.2120  173.5500  136.5580 C   0  0  0  0  0  3  0  0  0  0  0  0
  186.3510  175.7380  136.8920 C   0  0  0  0  0  0  0  0  0  0  0  0
  188.7260  175.3470  137.1260 C   0  0  0  0  0  0  0  0  0  0  0  0
  188.5080  173.9970  136.8240 C   0  0  0  0  0  3  0  0  0  0  0  0
  187.6340  176.2240  137.1560 C   0  0  0  0  0  3  0  0  0  0  0  0
  190.0870  175.8390  137.4070 C   0  0  0  0  0  0  0  0  0  0  0  0
  190.7580  176.3750  136.4820 O   0  0  0  0  0  0  0  0  0  0  0  0
  190.5500  176.5620  139.7090 C   0  0  0  0  0  3  0  0  0  0  0  0
  190.6300  175.7040  138.7330 N   0  0  0  0  0  0  0  0  0  0  0  0
  188.6710  177.8980  140.5530 C   0  0  0  0  0  1  0  0  0  0  0  0
  189.8550  177.8780  139.6070 C   0  0  0  0  0  2  0  0  0  0  0  0
  1 10  1  1  0  0  0
  2  7  1  1  0  0  0
  3  4  1  0  0  0  0
  4  1  1  0  0  0  0
  5  1  1  0  0  0  0
  6 27  1  1  0  0  0
  6  2  1  0  0  0  0
  6  5  1  0  0  0  0
  7  1  1  0  0  0  0
  8  2  1  0  0  0  0
  8  3  1  0  0  0  0
  9 12  1  0  0  0  0
 10  9  2  0  0  0  0
 12 14  1  0  0  0  0
 12 11  1  1  0  0  0
 14 13  1  6  0  0  0
 14 15  1  0  0  0  0
 15 26  1  0  0  0  0
 15 17  1  0  0  0  0
 15 16  1  0  0  0  0
 18 19  1  0  0  0  0
 18 22  1  0  0  0  0
 20 25  1  0  0  0  0
 23 20  1  0  0  0  0
 24 20  2  0  0  0  0
 24 26  1  0  0  0  0
 25 21  1  0  0  0  0
 25 19  2  0  0  0  0
 26 18  2  0  0  0  0
 28 27  1  0  0  0  0
 29 31  1  0  0  0  0
 30 29  2  0  0  0  0
 30 33  1  0  0  0  0
 31 28  1  0  0  0  0
 31 34  2  0  0  0  0
 32 34  1  0  0  0  0
 32 35  1  0  0  0  0
 33 32  2  0  0  0  0
 35 38  1  0  0  0  0
 36 35  2  0  0  0  0
 38 37  2  0  0  0  0
 40 37  1  0  0  0  0
 40 39  1  0  0  0  0
M  END
>  <MODEL>
7

>  <REMARK>
 VINA RESULT:      -7.9      2.831      6.475
  Name = 
  11 active torsions:
  status: ('A' for Active; 'I' for Inactive)
    1  A    between atoms: N_1  and  C_11
    2  A    between atoms: C_2  and  C_17
    3  A    between atoms: C_6  and  C_38
    4  A    between atoms: C_8  and  C_23
    5  A    between atoms: C_9  and  C_35
    6  A    between atoms: C_9  and  C_40
    7  A    between atoms: C_11  and  C_35
    8  A    between atoms: C_20  and  C_29
    9  A    between atoms: C_23  and  N_31
   10  A    between atoms: C_27  and  N_39
   11  A    between atoms: C_38  and  N_39
                            x       y       z     vdW  Elec       q    Type
                         _______ _______ _______ _____ _____    ______ ____

>  <TORSDO>
F 11

$$$$
=
 OpenBabel11062418003D

 40 43  0  0  1  0  0  0  0  0999 V2000
  189.0080  177.3530  145.1450 C   0  0  2  0  0  0  0  0  0  0  0  0
  190.9960  178.0910  144.0890 C   0  0  1  0  0  3  0  0  0  0  0  0
  191.2690  176.9690  146.2840 C   0  0  0  0  0  2  0  0  0  0  0  0
  189.7950  176.5320  146.1820 C   0  0  0  0  0  2  0  0  0  0  0  0
  188.9250  176.4090  143.5900 S   0  0  0  0  0  0  0  0  0  0  0  0
  190.4610  177.1970  142.9830 C   0  0  1  0  0  3  0  0  0  0  0  0
  189.7620  178.6190  144.8090 C   0  0  0  0  0  2  0  0  0  0  0  0
  191.8580  177.2740  144.9680 N   0  0  0  0  0  2  0  0  0  0  0  0
  186.6750  177.9240  144.8340 N   0  0  0  0  0  0  0  0  0  0  0  0
  187.6390  177.6840  145.6470 C   0  0  0  0  0  3  0  0  0  0  0  0
  185.4710  178.8080  146.7330 C   0  0  0  0  0  1  0  0  0  0  0  0
  185.3580  178.2440  145.3250 C   0  0  1  0  0  3  0  0  0  0  0  0
  185.3620  180.4650  144.4220 F   0  0  0  0  0  0  0  0  0  0  0  0
  184.6750  179.2610  144.3990 C   0  0  1  0  0  3  0  0  0  0  0  0
  184.5810  178.7700  142.9440 C   0  0  0  0  0  0  0  0  0  0  0  0
  185.2550  177.5650  142.8220 F   0  0  0  0  0  0  0  0  0  0  0  0
  185.2060  179.6900  142.1200 F   0  0  0  0  0  0  0  0  0  0  0  0
  182.8240  178.2740  141.1750 C   0  0  0  0  0  0  0  0  0  0  0  0
  181.5230  178.1660  140.7930 N   0  0  0  0  0  0  0  0  0  0  0  0
  180.7700  178.7480  142.9840 C   0  0  0  0  0  0  0  0  0  0  0  0
  179.1540  178.2650  141.1980 N   0  0  0  0  0  1  0  0  0  0  0  0
  183.8030  178.0410  140.2640 F   0  0  0  0  0  0  0  0  0  0  0  0
  179.6760  179.0060  143.9620 C   0  0  0  0  0  1  0  0  0  0  0  0
  182.0970  178.8650  143.3960 C   0  0  0  0  0  3  0  0  0  0  0  0
  180.4970  178.3930  141.6560 C   0  0  0  0  0  0  0  0  0  0  0  0
  183.1450  178.6270  142.4980 C   0  0  0  0  0  0  0  0  0  0  0  0
  190.1680  177.9960  141.8050 N   0  0  0  0  0  2  0  0  0  0  0  0
  188.9100  177.5100  141.2620 C   0  0  0  0  0  2  0  0  0  0  0  0
  188.6090  178.6290  139.0840 N   0  0  0  0  0  0  0  0  0  0  0  0
  188.6740  178.6760  137.7260 C   0  0  0  0  0  3  0  0  0  0  0  0
  188.9720  177.5150  139.7760 C   0  0  0  0  0  0  0  0  0  0  0  0
  189.5080  176.4070  137.6940 C   0  0  0  0  0  0  0  0  0  0  0  0
  189.1220  177.5660  137.0080 C   0  0  0  0  0  3  0  0  0  0  0  0
  189.4330  176.3870  139.0920 C   0  0  0  0  0  3  0  0  0  0  0  0
  189.9860  175.2260  136.9530 C   0  0  0  0  0  0  0  0  0  0  0  0
  189.5670  175.0140  135.7820 O   0  0  0  0  0  0  0  0  0  0  0  0
  192.2240  174.4420  137.5950 C   0  0  0  0  0  3  0  0  0  0  0  0
  190.9270  174.3330  137.5750 N   0  0  0  0  0  0  0  0  0  0  0  0
  193.1950  176.6680  137.9550 C   0  0  0  0  0  1  0  0  0  0  0  0
  192.9770  175.5560  136.9490 C   0  0  0  0  0  2  0  0  0  0  0  0
  1 10  1  1  0  0  0
  1  4  1  0  0  0  0
  2  7  1  1  0  0  0
  2  8  1  0  0  0  0
  4  3  1  0  0  0  0
  5  1  1  0  0  0  0
  6 27  1  6  0  0  0
  6  5  1  0  0  0  0
  6  2  1  0  0  0  0
  7  1  1  0  0  0  0
  8  3  1  0  0  0  0
  9 12  1  0  0  0  0
  9 10  2  0  0  0  0
 12 11  1  1  0  0  0
 14 13  1  6  0  0  0
 14 12  1  0  0  0  0
 15 14  1  0  0  0  0
 16 15  1  0  0  0  0
 17 15  1  0  0  0  0
 18 26  1  0  0  0  0
 19 18  2  0  0  0  0
 19 25  1  0  0  0  0
 20 24  1  0  0  0  0
 20 23  1  0  0  0  0
 21 25  1  0  0  0  0
 22 18  1  0  0  0  0
 25 20  2  0  0  0  0
 26 15  1  0  0  0  0
 26 24  2  0  0  0  0
 28 27  1  0  0  0  0
 29 31  1  0  0  0  0
 30 29  2  0  0  0  0
 31 28  1  0  0  0  0
 32 34  1  0  0  0  0
 33 32  2  0  0  0  0
 33 30  1  0  0  0  0
 34 31  2  0  0  0  0
 35 38  1  0  0  0  0
 35 32  1  0  0  0  0
 36 35  2  0  0  0  0
 38 37  2  0  0  0  0
 40 37  1  0  0  0  0
 40 39  1  0  0  0  0
M  END
>  <MODEL>
8

>  <REMARK>
 VINA RESULT:      -7.9      2.894      8.001
  Name = 
  11 active torsions:
  status: ('A' for Active; 'I' for Inactive)
    1  A    between atoms: N_1  and  C_11
    2  A    between atoms: C_2  and  C_17
    3  A    between atoms: C_6  and  C_38
    4  A    between atoms: C_8  and  C_23
    5  A    between atoms: C_9  and  C_35
    6  A    between atoms: C_9  and  C_40
    7  A    between atoms: C_11  and  C_35
    8  A    between atoms: C_20  and  C_29
    9  A    between atoms: C_23  and  N_31
   10  A    between atoms: C_27  and  N_39
   11  A    between atoms: C_38  and  N_39
                            x       y       z     vdW  Elec       q    Type
                         _______ _______ _______ _____ _____    ______ ____

>  <TORSDO>
F 11

$$$$
=
 OpenBabel11062418003D

 40 43  0  0  1  0  0  0  0  0999 V2000
  188.2710  176.7880  137.4040 C   0  0  2  0  0  0  0  0  0  0  0  0
  186.3270  177.9220  136.6680 C   0  0  1  0  0  3  0  0  0  0  0  0
  188.2650  177.9440  135.1210 C   0  0  0  0  0  2  0  0  0  0  0  0
  188.9180  176.8700  136.0100 C   0  0  0  0  0  2  0  0  0  0  0  0
  187.0690  175.4200  137.4140 S   0  0  0  0  0  0  0  0  0  0  0  0
  185.7210  176.5480  136.9040 C   0  0  1  0  0  3  0  0  0  0  0  0
  187.4640  178.0370  137.6740 C   0  0  0  0  0  2  0  0  0  0  0  0
  186.8000  177.9840  135.2680 N   0  0  0  0  0  2  0  0  0  0  0  0
  189.1380  177.0790  139.6480 N   0  0  0  0  0  0  0  0  0  0  0  0
  189.3070  176.6010  138.4670 C   0  0  0  0  0  3  0  0  0  0  0  0
  191.4520  177.5090  140.1960 C   0  0  0  0  0  1  0  0  0  0  0  0
  190.1410  176.8970  140.6670 C   0  0  1  0  0  3  0  0  0  0  0  0
  188.7020  178.4920  141.7330 F   0  0  0  0  0  0  0  0  0  0  0  0
  189.6910  177.5520  141.9810 C   0  0  1  0  0  3  0  0  0  0  0  0
  189.1630  176.5320  143.0030 C   0  0  0  0  0  0  0  0  0  0  0  0
  189.3620  175.2490  142.5170 F   0  0  0  0  0  0  0  0  0  0  0  0
  187.8000  176.7190  143.1590 F   0  0  0  0  0  0  0  0  0  0  0  0
  191.1870  176.4080  144.5370 C   0  0  0  0  0  0  0  0  0  0  0  0
  191.7570  176.5550  145.7630 N   0  0  0  0  0  0  0  0  0  0  0  0
  189.6850  177.2870  146.7020 C   0  0  0  0  0  0  0  0  0  0  0  0
  191.6970  177.1160  148.1020 N   0  0  0  0  0  1  0  0  0  0  0  0
  191.9480  175.9700  143.5010 F   0  0  0  0  0  0  0  0  0  0  0  0
  188.8710  177.7570  147.8580 C   0  0  0  0  0  1  0  0  0  0  0  0
  189.0820  177.1420  145.4540 C   0  0  0  0  0  3  0  0  0  0  0  0
  191.0470  176.9820  146.8410 C   0  0  0  0  0  0  0  0  0  0  0  0
  189.8240  176.7020  144.3510 C   0  0  0  0  0  0  0  0  0  0  0  0
  184.7240  176.6270  137.9580 N   0  0  0  0  0  2  0  0  0  0  0  0
  184.6780  178.0110  138.4000 C   0  0  0  0  0  2  0  0  0  0  0  0
  182.3730  177.8980  139.2720 N   0  0  0  0  0  0  0  0  0  0  0  0
  181.4450  177.9950  140.2610 C   0  0  0  0  0  3  0  0  0  0  0  0
  183.6890  178.1520  139.5030 C   0  0  0  0  0  0  0  0  0  0  0  0
  183.1830  178.6210  141.8200 C   0  0  0  0  0  0  0  0  0  0  0  0
  181.8330  178.3600  141.5520 C   0  0  0  0  0  3  0  0  0  0  0  0
  184.1180  178.5110  140.7830 C   0  0  0  0  0  3  0  0  0  0  0  0
  183.6130  179.0050  143.1770 C   0  0  0  0  0  0  0  0  0  0  0  0
  182.7920  178.9360  144.1330 O   0  0  0  0  0  0  0  0  0  0  0  0
  185.8130  178.9970  144.2700 C   0  0  0  0  0  3  0  0  0  0  0  0
  184.9640  179.4500  143.3930 N   0  0  0  0  0  0  0  0  0  0  0  0
  185.2660  178.4860  146.6090 C   0  0  0  0  0  1  0  0  0  0  0  0
  185.5110  177.8980  145.2340 C   0  0  0  0  0  2  0  0  0  0  0  0
  1  5  1  0  0  0  0
  1  7  1  0  0  0  0
  1 10  1  1  0  0  0
  2  6  1  0  0  0  0
  2  7  1  1  0  0  0
  3  8  1  0  0  0  0
  3  4  1  0  0  0  0
  4  1  1  0  0  0  0
  6  5  1  0  0  0  0
  6 27  1  1  0  0  0
  8  2  1  0  0  0  0
  9 12  1  0  0  0  0
 10  9  2  0  0  0  0
 12 11  1  6  0  0  0
 12 14  1  0  0  0  0
 14 13  1  6  0  0  0
 14 15  1  0  0  0  0
 15 17  1  0  0  0  0
 15 26  1  0  0  0  0
 16 15  1  0  0  0  0
 18 19  1  0  0  0  0
 19 25  2  0  0  0  0
 20 25  1  0  0  0  0
 20 23  1  0  0  0  0
 22 18  1  0  0  0  0
 24 20  2  0  0  0  0
 25 21  1  0  0  0  0
 26 18  2  0  0  0  0
 26 24  1  0  0  0  0
 27 28  1  0  0  0  0
 28 31  1  0  0  0  0
 29 31  2  0  0  0  0
 29 30  1  0  0  0  0
 30 33  2  0  0  0  0
 31 34  1  0  0  0  0
 32 35  1  0  0  0  0
 33 32  1  0  0  0  0
 34 32  2  0  0  0  0
 35 38  1  0  0  0  0
 35 36  2  0  0  0  0
 37 40  1  0  0  0  0
 38 37  2  0  0  0  0
 40 39  1  0  0  0  0
M  END
>  <MODEL>
9

>  <REMARK>
 VINA RESULT:      -7.8      1.737      2.614
  Name = 
  11 active torsions:
  status: ('A' for Active; 'I' for Inactive)
    1  A    between atoms: N_1  and  C_11
    2  A    between atoms: C_2  and  C_17
    3  A    between atoms: C_6  and  C_38
    4  A    between atoms: C_8  and  C_23
    5  A    between atoms: C_9  and  C_35
    6  A    between atoms: C_9  and  C_40
    7  A    between atoms: C_11  and  C_35
    8  A    between atoms: C_20  and  C_29
    9  A    between atoms: C_23  and  N_31
   10  A    between atoms: C_27  and  N_39
   11  A    between atoms: C_38  and  N_39
                            x       y       z     vdW  Elec       q    Type
                         _______ _______ _______ _____ _____    ______ ____

>  <TORSDO>
F 11

$$$$
