=
 OpenBabel11062416393D

 62 68  0  0  1  0  0  0  0  0999 V2000
  184.2910  177.5920  138.3420 N   0  0  0  0  0  0  0  0  0  0  0  0
  183.2200  177.7210  139.3150 C   0  0  0  0  0  2  0  0  0  0  0  0
  184.0940  177.2180  137.1090 C   0  0  0  0  0  0  0  0  0  0  0  0
  180.7560  175.5210  134.7760 C   0  0  0  0  0  3  0  0  0  0  0  0
  182.5000  177.2960  135.1540 C   0  0  0  0  0  2  0  0  0  0  0  0
  185.2110  177.1240  136.2130 N   0  0  0  0  0  2  0  0  0  0  0  0
  179.5770  175.9000  136.9520 C   0  0  0  0  0  2  0  0  0  0  0  0
  180.6310  176.3090  137.9940 C   0  0  2  0  0  3  0  0  0  0  0  0
  181.5440  177.4340  137.4930 C   0  0  2  0  0  3  0  0  0  0  0  0
  181.1040  176.9710  134.6170 C   0  0  0  0  0  2  0  0  0  0  0  0
  180.0920  175.0230  135.8280 C   0  0  0  0  0  0  0  0  0  0  0  0
  182.6960  176.8800  136.6110 C   0  0  2  0  0  3  0  0  0  0  0  0
  182.0340  178.3500  138.6210 C   0  0  1  0  0  3  0  0  0  0  0  0
  187.2110  177.8920  137.2750 C   0  0  0  0  0  0  0  0  0  0  0  0
  188.0160  177.7720  138.3010 C   0  0  0  0  0  3  0  0  0  0  0  0
  186.3660  177.9670  136.2800 C   0  0  0  0  0  3  0  0  0  0  0  0
  189.4680  177.5450  138.1520 C   0  0  0  0  0  0  0  0  0  0  0  0
  189.9670  177.3510  137.0090 O   0  0  0  0  0  0  0  0  0  0  0  0
  190.3810  177.5430  139.3460 C   0  0  2  0  0  3  0  0  0  0  0  0
  191.7560  176.9550  139.0640 C   0  0  0  0  0  1  0  0  0  0  0  0
  189.5780  175.6930  140.6070 O   0  0  0  0  0  0  0  0  0  0  0  0
  189.7300  176.9440  140.5570 C   0  0  0  0  0  0  0  0  0  0  0  0
  189.2850  177.7610  141.6600 N   0  0  0  0  0  0  0  0  0  0  0  0
  189.5320  176.9060  143.9710 C   0  0  0  0  0  3  0  0  0  0  0  0
  191.8190  178.4750  144.3220 C   0  0  0  0  0  3  0  0  0  0  0  0
  189.9830  177.7190  142.9170 C   0  0  0  0  0  0  0  0  0  0  0  0
  190.2220  176.8770  145.1880 C   0  0  0  0  0  3  0  0  0  0  0  0
  191.3640  177.6610  145.3630 C   0  0  0  0  0  3  0  0  0  0  0  0
  191.1290  178.5040  143.1070 C   0  0  0  0  0  3  0  0  0  0  0  0
  188.2940  178.7150  141.4870 O   0  0  0  0  0  0  0  0  0  0  0  0
  186.9410  178.2550  143.4260 C   0  0  0  0  0  3  0  0  0  0  0  0
  185.7070  178.1670  144.0720 C   0  0  0  0  0  0  0  0  0  0  0  0
  184.5160  178.4630  143.3480 C   0  0  0  0  0  0  0  0  0  0  0  0
  184.6200  178.8320  141.9990 C   0  0  0  0  0  3  0  0  0  0  0  0
  185.8640  178.9190  141.3710 C   0  0  0  0  0  3  0  0  0  0  0  0
  185.7230  177.7590  145.5090 C   0  0  0  0  0  1  0  0  0  0  0  0
  187.0330  178.6390  142.0860 C   0  0  0  0  0  0  0  0  0  0  0  0
  182.0990  179.1280  143.3910 C   0  0  0  0  0  1  0  0  0  0  0  0
  183.2250  178.4190  143.8880 O   0  0  0  0  0  0  0  0  0  0  0  0
  181.0290  178.6600  139.5450 O   0  0  0  0  0  0  0  0  0  0  0  0
  179.9160  180.6120  140.3970 C   0  0  0  0  0  2  0  0  0  0  0  0
  181.1920  180.0240  139.8170 C   0  0  2  0  0  3  0  0  0  0  0  0
  180.1860  181.4810  138.1940 N   0  0  0  0  0  0  0  0  0  0  0  0
  181.4190  180.7720  138.5190 C   0  0  0  0  0  2  0  0  0  0  0  0
  180.5810  182.7600  137.6360 C   0  0  0  0  0  1  0  0  0  0  0  0
  179.5400  181.7430  139.4730 C   0  0  0  0  0  2  0  0  0  0  0  0
  181.3660  175.2100  138.4610 O   0  0  0  0  0  0  0  0  0  0  0  0
  181.0090  175.0700  139.8030 C   0  0  0  0  0  2  0  0  0  0  0  0
  179.5000  175.0560  139.9140 C   0  0  0  0  0  3  0  0  0  0  0  0
  179.1010  175.6960  141.2270 C   0  0  0  0  0  2  0  0  0  0  0  0
  179.0930  174.1900  141.0910 C   0  0  0  0  0  2  0  0  0  0  0  0
  179.7580  173.5590  135.8160 C   0  0  0  0  0  2  0  0  0  0  0  0
  180.3290  172.8580  134.5950 C   0  0  0  0  0  2  0  0  0  0  0  0
  182.8890  171.5260  137.1950 C   0  0  0  0  0  2  0  0  0  0  0  0
  182.3880  171.3610  134.6990 C   0  0  0  0  0  2  0  0  0  0  0  0
  179.6860  170.4240  136.7200 O   0  0  0  0  0  0  0  0  0  0  0  0
  183.2800  171.9820  135.7830 C   0  0  1  0  0  3  0  0  0  0  0  0
  180.8850  171.4890  134.9850 C   0  0  1  0  0  3  0  0  0  0  0  0
  181.4200  171.8110  137.4930 C   0  0  0  0  0  2  0  0  0  0  0  0
  180.5880  171.1840  136.4240 C   0  0  0  0  0  0  0  0  0  0  0  0
  183.2790  173.3760  135.7060 O   0  0  0  0  0  0  0  0  0  0  0  0
  184.3710  173.6670  135.0270 O   0  0  0  0  0  1  0  0  0  0  0  0
  1  2  1  0  0  0  0
  3  1  2  0  0  0  0
  4 11  2  0  0  0  0
  5 12  1  0  0  0  0
  6 16  1  0  0  0  0
  6  3  1  0  0  0  0
  7  8  1  0  0  0  0
  8 47  1  6  0  0  0
  9  8  1  0  0  0  0
  9 13  1  0  0  0  0
 10  4  1  0  0  0  0
 10  5  1  0  0  0  0
 11  7  1  0  0  0  0
 12  3  1  0  0  0  0
 12  9  1  0  0  0  0
 13  2  1  0  0  0  0
 13 40  1  0  0  0  0
 14 15  2  0  0  0  0
 16 14  2  0  0  0  0
 17 15  1  0  0  0  0
 17 19  1  0  0  0  0
 18 17  2  0  0  0  0
 19 22  1  0  0  0  0
 20 19  1  0  0  0  0
 22 21  2  0  0  0  0
 22 23  1  0  0  0  0
 23 26  1  0  0  0  0
 24 27  1  0  0  0  0
 25 28  1  0  0  0  0
 26 29  1  0  0  0  0
 26 24  2  0  0  0  0
 27 28  2  0  0  0  0
 29 25  2  0  0  0  0
 30 23  1  0  0  0  0
 30 37  1  0  0  0  0
 31 32  1  0  0  0  0
 32 36  1  0  0  0  0
 33 39  1  0  0  0  0
 33 32  2  0  0  0  0
 34 33  1  0  0  0  0
 35 34  2  0  0  0  0
 35 37  1  0  0  0  0
 37 31  2  0  0  0  0
 38 39  1  0  0  0  0
 40 42  1  0  0  0  0
 42 41  1  0  0  0  0
 43 44  1  0  0  0  0
 43 46  1  0  0  0  0
 44 42  1  0  0  0  0
 45 43  1  0  0  0  0
 46 41  1  0  0  0  0
 47 48  1  0  0  0  0
 48 49  1  0  0  0  0
 49 51  1  0  0  0  0
 49 50  1  0  0  0  0
 51 50  1  0  0  0  0
 52 11  1  0  0  0  0
 53 58  1  0  0  0  0
 53 52  1  0  0  0  0
 54 59  1  0  0  0  0
 55 58  1  0  0  0  0
 55 57  1  0  0  0  0
 57 54  1  0  0  0  0
 58 60  1  0  0  0  0
 60 56  2  0  0  0  0
 60 59  1  0  0  0  0
 61 57  1  0  0  0  0
 62 61  1  0  0  0  0
M  END
>  <MODEL>
1

>  <REMARK>
 VINA RESULT:      -6.9      0.000      0.000
  Name = 
  17 active torsions:
  status: ('A' for Active; 'I' for Inactive)
    1  A    between atoms: O_2  and  C_28
    2  A    between atoms: C_7  and  C_45
    3  A    between atoms: C_7  and  C_57
    4  A    between atoms: C_13  and  C_21
    5  A    between atoms: O_14  and  C_21
    6  A    between atoms: O_14  and  C_34
    7  A    between atoms: O_15  and  C_23
    8  A    between atoms: O_15  and  C_54
    9  A    between atoms: C_17  and  C_24
   10  A    between atoms: C_17  and  C_50
   11  A    between atoms: N_20  and  C_53
   12  A    between atoms: C_29  and  N_43
   13  A    between atoms: O_32  and  N_43
   14  A    between atoms: O_32  and  C_61
   15  A    between atoms: C_33  and  C_50
   16  A    between atoms: O_37  and  C_48
   17  A    between atoms: C_46  and  C_57
                            x       y       z     vdW  Elec       q    Type
                         _______ _______ _______ _____ _____    ______ ____

>  <TORSDO>
F 17

$$$$
=
 OpenBabel11062416393D

 62 68  0  0  1  0  0  0  0  0999 V2000
  188.6020  177.9680  137.7610 N   0  0  0  0  0  0  0  0  0  0  0  0
  189.5730  177.8590  138.8350 C   0  0  0  0  0  2  0  0  0  0  0  0
  188.4600  177.0650  136.8310 C   0  0  0  0  0  0  0  0  0  0  0  0
  190.6680  173.4920  135.4830 C   0  0  0  0  0  3  0  0  0  0  0  0
  188.5650  174.5970  136.3130 C   0  0  0  0  0  2  0  0  0  0  0  0
  187.4690  177.2510  135.8100 N   0  0  0  0  0  2  0  0  0  0  0  0
  192.0370  174.0770  137.4950 C   0  0  0  0  0  2  0  0  0  0  0  0
  191.5530  175.4410  138.0130 C   0  0  2  0  0  3  0  0  0  0  0  0
  190.0290  175.5010  138.1690 C   0  0  2  0  0  3  0  0  0  0  0  0
  189.4120  173.3230  136.2840 C   0  0  0  0  0  2  0  0  0  0  0  0
  191.8470  173.8510  136.0080 C   0  0  0  0  0  0  0  0  0  0  0  0
  189.3330  175.8180  136.8170 C   0  0  2  0  0  3  0  0  0  0  0  0
  189.5830  176.4240  139.3090 C   0  0  1  0  0  3  0  0  0  0  0  0
  185.1100  177.2730  136.2050 C   0  0  0  0  0  0  0  0  0  0  0  0
  184.0280  176.5580  136.3840 C   0  0  0  0  0  3  0  0  0  0  0  0
  186.2250  177.9290  136.0150 C   0  0  0  0  0  3  0  0  0  0  0  0
  183.1340  176.7440  137.5440 C   0  0  0  0  0  0  0  0  0  0  0  0
  183.3920  176.1790  138.6430 O   0  0  0  0  0  0  0  0  0  0  0  0
  181.9050  177.6040  137.4480 C   0  0  2  0  0  3  0  0  0  0  0  0
  181.3020  177.6610  136.0520 C   0  0  0  0  0  1  0  0  0  0  0  0
  183.2820  179.4470  138.0540 O   0  0  0  0  0  0  0  0  0  0  0  0
  182.1160  178.9640  138.0460 C   0  0  0  0  0  0  0  0  0  0  0  0
  181.0230  179.7270  138.5980 N   0  0  0  0  0  0  0  0  0  0  0  0
  181.1510  182.1560  138.1300 C   0  0  0  0  0  3  0  0  0  0  0  0
  178.9910  181.9440  136.3680 C   0  0  0  0  0  3  0  0  0  0  0  0
  180.5490  180.9040  137.9180 C   0  0  0  0  0  0  0  0  0  0  0  0
  180.6770  183.2910  137.4620 C   0  0  0  0  0  3  0  0  0  0  0  0
  179.5980  183.1840  136.5820 C   0  0  0  0  0  3  0  0  0  0  0  0
  179.4650  180.8110  137.0350 C   0  0  0  0  0  3  0  0  0  0  0  0
  180.3060  179.2600  139.6880 O   0  0  0  0  0  0  0  0  0  0  0  0
  180.0290  179.1840  142.0800 C   0  0  0  0  0  3  0  0  0  0  0  0
  180.5310  179.0150  143.3710 C   0  0  0  0  0  0  0  0  0  0  0  0
  181.9190  178.7500  143.5530 C   0  0  0  0  0  0  0  0  0  0  0  0
  182.7450  178.6700  142.4230 C   0  0  0  0  0  3  0  0  0  0  0  0
  182.2240  178.8370  141.1380 C   0  0  0  0  0  3  0  0  0  0  0  0
  179.5550  179.1280  144.4970 C   0  0  0  0  0  1  0  0  0  0  0  0
  180.8590  179.0860  140.9610 C   0  0  0  0  0  0  0  0  0  0  0  0
  183.8290  179.0170  145.1560 C   0  0  0  0  0  1  0  0  0  0  0  0
  182.5360  178.5530  144.7940 O   0  0  0  0  0  0  0  0  0  0  0  0
  190.3710  176.2890  140.4580 O   0  0  0  0  0  0  0  0  0  0  0  0
  189.2610  177.9740  141.7630 C   0  0  0  0  0  2  0  0  0  0  0  0
  189.4920  176.4900  141.5300 C   0  0  2  0  0  3  0  0  0  0  0  0
  190.5660  177.1430  143.5770 N   0  0  0  0  0  0  0  0  0  0  0  0
  190.1320  175.9830  142.8060 C   0  0  0  0  0  2  0  0  0  0  0  0
  190.3080  176.8330  144.9700 C   0  0  0  0  0  1  0  0  0  0  0  0
  189.6640  178.2220  143.1950 C   0  0  0  0  0  2  0  0  0  0  0  0
  192.0410  176.5040  137.2400 O   0  0  0  0  0  0  0  0  0  0  0  0
  193.2340  176.8890  137.8520 C   0  0  0  0  0  2  0  0  0  0  0  0
  193.1940  176.4880  139.3110 C   0  0  0  0  0  3  0  0  0  0  0  0
  193.0960  177.7390  140.1580 C   0  0  0  0  0  2  0  0  0  0  0  0
  194.4250  177.0310  140.0120 C   0  0  0  0  0  2  0  0  0  0  0  0
  193.0330  173.9150  135.0890 C   0  0  0  0  0  2  0  0  0  0  0  0
  194.2570  173.2500  135.6980 C   0  0  0  0  0  2  0  0  0  0  0  0
  197.8840  173.2760  137.0850 C   0  0  0  0  0  2  0  0  0  0  0  0
  195.5520  174.0880  137.7260 C   0  0  0  0  0  2  0  0  0  0  0  0
  196.6220  175.2670  134.6060 O   0  0  0  0  0  0  0  0  0  0  0  0
  196.6480  173.0390  137.9610 C   0  0  1  0  0  3  0  0  0  0  0  0
  195.2150  174.3090  136.2430 C   0  0  1  0  0  3  0  0  0  0  0  0
  197.5230  173.3380  135.6040 C   0  0  0  0  0  2  0  0  0  0  0  0
  196.4640  174.3730  135.4160 C   0  0  0  0  0  0  0  0  0  0  0  0
  196.1610  171.7440  137.7730 O   0  0  0  0  0  0  0  0  0  0  0  0
  195.1620  171.6420  138.6270 O   0  0  0  0  0  1  0  0  0  0  0  0
  1  2  1  0  0  0  0
  2 13  1  0  0  0  0
  3  1  2  0  0  0  0
  4 11  2  0  0  0  0
  4 10  1  0  0  0  0
  5 12  1  0  0  0  0
  6 16  1  0  0  0  0
  6  3  1  0  0  0  0
  7  8  1  0  0  0  0
  8 47  1  6  0  0  0
  8  9  1  0  0  0  0
  9 13  1  0  0  0  0
 10  5  1  0  0  0  0
 11  7  1  0  0  0  0
 12  3  1  0  0  0  0
 12  9  1  0  0  0  0
 13 40  1  0  0  0  0
 14 15  2  0  0  0  0
 15 17  1  0  0  0  0
 16 14  2  0  0  0  0
 17 18  2  0  0  0  0
 19 17  1  0  0  0  0
 19 22  1  0  0  0  0
 20 19  1  0  0  0  0
 22 21  2  0  0  0  0
 22 23  1  0  0  0  0
 23 30  1  0  0  0  0
 25 28  2  0  0  0  0
 25 29  1  0  0  0  0
 26 24  1  0  0  0  0
 26 23  1  0  0  0  0
 27 24  2  0  0  0  0
 28 27  1  0  0  0  0
 29 26  2  0  0  0  0
 30 37  1  0  0  0  0
 31 32  1  0  0  0  0
 32 33  2  0  0  0  0
 32 36  1  0  0  0  0
 33 39  1  0  0  0  0
 34 33  1  0  0  0  0
 35 34  2  0  0  0  0
 37 35  1  0  0  0  0
 37 31  2  0  0  0  0
 39 38  1  0  0  0  0
 40 42  1  0  0  0  0
 41 46  1  0  0  0  0
 42 41  1  0  0  0  0
 42 44  1  0  0  0  0
 43 45  1  0  0  0  0
 44 43  1  0  0  0  0
 46 43  1  0  0  0  0
 47 48  1  0  0  0  0
 48 49  1  0  0  0  0
 49 51  1  0  0  0  0
 49 50  1  0  0  0  0
 51 50  1  0  0  0  0
 52 53  1  0  0  0  0
 52 11  1  0  0  0  0
 53 58  1  0  0  0  0
 54 57  1  0  0  0  0
 55 57  1  0  0  0  0
 56 60  2  0  0  0  0
 58 55  1  0  0  0  0
 59 54  1  0  0  0  0
 60 59  1  0  0  0  0
 60 58  1  0  0  0  0
 61 57  1  0  0  0  0
 61 62  1  0  0  0  0
M  END
>  <MODEL>
2

>  <REMARK>
 VINA RESULT:      -6.0      3.381     10.561
  Name = 
  17 active torsions:
  status: ('A' for Active; 'I' for Inactive)
    1  A    between atoms: O_2  and  C_28
    2  A    between atoms: C_7  and  C_45
    3  A    between atoms: C_7  and  C_57
    4  A    between atoms: C_13  and  C_21
    5  A    between atoms: O_14  and  C_21
    6  A    between atoms: O_14  and  C_34
    7  A    between atoms: O_15  and  C_23
    8  A    between atoms: O_15  and  C_54
    9  A    between atoms: C_17  and  C_24
   10  A    between atoms: C_17  and  C_50
   11  A    between atoms: N_20  and  C_53
   12  A    between atoms: C_29  and  N_43
   13  A    between atoms: O_32  and  N_43
   14  A    between atoms: O_32  and  C_61
   15  A    between atoms: C_33  and  C_50
   16  A    between atoms: O_37  and  C_48
   17  A    between atoms: C_46  and  C_57
                            x       y       z     vdW  Elec       q    Type
                         _______ _______ _______ _____ _____    ______ ____

>  <TORSDO>
F 17

$$$$
=
 OpenBabel11062416393D

 62 68  0  0  1  0  0  0  0  0999 V2000
  188.7530  176.7550  139.3930 N   0  0  0  0  0  0  0  0  0  0  0  0
  188.3890  176.3810  138.0370 C   0  0  0  0  0  2  0  0  0  0  0  0
  189.9850  176.7840  139.8190 C   0  0  0  0  0  0  0  0  0  0  0  0
  193.9160  175.4460  138.3290 C   0  0  0  0  0  3  0  0  0  0  0  0
  192.3820  177.2500  139.1820 C   0  0  0  0  0  2  0  0  0  0  0  0
  190.2550  177.1720  141.1730 N   0  0  0  0  0  2  0  0  0  0  0  0
  192.5160  174.8900  136.3300 C   0  0  0  0  0  2  0  0  0  0  0  0
  191.0420  175.0930  136.7160 C   0  0  2  0  0  3  0  0  0  0  0  0
  190.7930  176.4510  137.3820 C   0  0  2  0  0  3  0  0  0  0  0  0
  193.5640  176.9030  138.2740 C   0  0  0  0  0  2  0  0  0  0  0  0
  193.4360  174.5280  137.4780 C   0  0  0  0  0  0  0  0  0  0  0  0
  191.1380  176.4110  138.8970 C   0  0  2  0  0  3  0  0  0  0  0  0
  189.3920  177.0080  137.0960 C   0  0  1  0  0  3  0  0  0  0  0  0
  188.1880  178.2600  141.6900 C   0  0  0  0  0  0  0  0  0  0  0  0
  186.9110  178.3600  141.4220 C   0  0  0  0  0  3  0  0  0  0  0  0
  189.4700  178.1170  141.9080 C   0  0  0  0  0  3  0  0  0  0  0  0
  185.8670  178.2470  142.4600 C   0  0  0  0  0  0  0  0  0  0  0  0
  185.8410  177.2470  143.2300 O   0  0  0  0  0  0  0  0  0  0  0  0
  184.8200  179.3120  142.6280 C   0  0  2  0  0  3  0  0  0  0  0  0
  184.9150  180.0620  143.9490 C   0  0  0  0  0  1  0  0  0  0  0  0
  182.6290  178.6850  143.3110 O   0  0  0  0  0  0  0  0  0  0  0  0
  183.4380  178.7980  142.3500 C   0  0  0  0  0  0  0  0  0  0  0  0
  183.0170  178.4410  141.0160 N   0  0  0  0  0  0  0  0  0  0  0  0
  182.4010  179.9090  139.1190 C   0  0  0  0  0  3  0  0  0  0  0  0
  179.8310  180.2190  140.1740 C   0  0  0  0  0  3  0  0  0  0  0  0
  182.0620  179.2600  140.3180 C   0  0  0  0  0  0  0  0  0  0  0  0
  181.4610  180.7020  138.4530 C   0  0  0  0  0  3  0  0  0  0  0  0
  180.1770  180.8570  138.9800 C   0  0  0  0  0  3  0  0  0  0  0  0
  180.7710  179.4260  140.8390 C   0  0  0  0  0  3  0  0  0  0  0  0
  183.6380  177.4130  140.3230 O   0  0  0  0  0  0  0  0  0  0  0  0
  181.7230  176.0200  139.8820 C   0  0  0  0  0  3  0  0  0  0  0  0
  181.0040  175.1370  139.0740 C   0  0  0  0  0  0  0  0  0  0  0  0
  181.5460  174.7390  137.8180 C   0  0  0  0  0  0  0  0  0  0  0  0
  182.7950  175.2460  137.4310 C   0  0  0  0  0  3  0  0  0  0  0  0
  183.4970  176.1310  138.2510 C   0  0  0  0  0  3  0  0  0  0  0  0
  179.6870  174.6620  139.5960 C   0  0  0  0  0  1  0  0  0  0  0  0
  182.9590  176.5290  139.4790 C   0  0  0  0  0  0  0  0  0  0  0  0
  181.0500  172.4570  136.9070 C   0  0  0  0  0  1  0  0  0  0  0  0
  180.9160  173.8710  136.9190 O   0  0  0  0  0  0  0  0  0  0  0  0
  188.9990  176.8290  135.7650 O   0  0  0  0  0  0  0  0  0  0  0  0
  187.3500  178.2360  136.8020 C   0  0  0  0  0  2  0  0  0  0  0  0
  188.0670  177.8460  135.5210 C   0  0  2  0  0  3  0  0  0  0  0  0
  185.7890  177.0910  135.4110 N   0  0  0  0  0  0  0  0  0  0  0  0
  186.9820  177.3230  134.6020 C   0  0  0  0  0  2  0  0  0  0  0  0
  184.6560  177.4860  134.5970 C   0  0  0  0  0  1  0  0  0  0  0  0
  185.8830  178.0330  136.5180 C   0  0  0  0  0  2  0  0  0  0  0  0
  190.5470  174.0340  137.4900 O   0  0  0  0  0  0  0  0  0  0  0  0
  190.1250  173.0710  136.5720 C   0  0  0  0  0  2  0  0  0  0  0  0
  188.6590  173.2870  136.2670 C   0  0  0  0  0  3  0  0  0  0  0  0
  187.8350  172.4050  137.1810 C   0  0  0  0  0  2  0  0  0  0  0  0
  188.0620  171.9950  135.7430 C   0  0  0  0  0  2  0  0  0  0  0  0
  193.9320  173.1180  137.6170 C   0  0  0  0  0  2  0  0  0  0  0  0
  195.4080  173.0690  137.9750 C   0  0  0  0  0  2  0  0  0  0  0  0
  198.5120  174.2190  135.9430 C   0  0  0  0  0  2  0  0  0  0  0  0
  196.1250  173.4090  135.5530 C   0  0  0  0  0  2  0  0  0  0  0  0
  198.0540  171.1790  137.4430 O   0  0  0  0  0  0  0  0  0  0  0  0
  197.0750  174.6150  135.5840 C   0  0  1  0  0  3  0  0  0  0  0  0
  196.2160  172.5180  136.8010 C   0  0  1  0  0  3  0  0  0  0  0  0
  198.5750  173.4650  137.2690 C   0  0  0  0  0  2  0  0  0  0  0  0
  197.6470  172.2980  137.1950 C   0  0  0  0  0  0  0  0  0  0  0  0
  196.6130  175.6050  136.4520 O   0  0  0  0  0  0  0  0  0  0  0  0
  196.5910  176.7000  135.7180 O   0  0  0  0  0  1  0  0  0  0  0  0
  1  3  2  0  0  0  0
  2  1  1  0  0  0  0
  3  6  1  0  0  0  0
  6 16  1  0  0  0  0
  7  8  1  0  0  0  0
  7 11  1  0  0  0  0
  8  9  1  0  0  0  0
  8 47  1  1  0  0  0
  9 12  1  0  0  0  0
 10  4  1  0  0  0  0
 10  5  1  0  0  0  0
 11 52  1  0  0  0  0
 11  4  2  0  0  0  0
 12  5  1  0  0  0  0
 12  3  1  0  0  0  0
 13  9  1  0  0  0  0
 13  2  1  0  0  0  0
 14 16  2  0  0  0  0
 15 14  2  0  0  0  0
 15 17  1  0  0  0  0
 17 19  1  0  0  0  0
 17 18  2  0  0  0  0
 19 20  1  0  0  0  0
 22 19  1  0  0  0  0
 22 21  2  0  0  0  0
 23 22  1  0  0  0  0
 24 26  1  0  0  0  0
 25 29  1  0  0  0  0
 26 29  2  0  0  0  0
 26 23  1  0  0  0  0
 27 28  1  0  0  0  0
 27 24  2  0  0  0  0
 28 25  2  0  0  0  0
 30 23  1  0  0  0  0
 32 36  1  0  0  0  0
 32 31  2  0  0  0  0
 33 32  1  0  0  0  0
 34 33  2  0  0  0  0
 34 35  1  0  0  0  0
 35 37  2  0  0  0  0
 37 31  1  0  0  0  0
 37 30  1  0  0  0  0
 38 39  1  0  0  0  0
 39 33  1  0  0  0  0
 40 13  1  0  0  0  0
 42 40  1  0  0  0  0
 42 41  1  0  0  0  0
 43 46  1  0  0  0  0
 44 43  1  0  0  0  0
 44 42  1  0  0  0  0
 45 43  1  0  0  0  0
 46 41  1  0  0  0  0
 48 47  1  0  0  0  0
 49 48  1  0  0  0  0
 49 50  1  0  0  0  0
 51 49  1  0  0  0  0
 51 50  1  0  0  0  0
 52 53  1  0  0  0  0
 54 59  1  0  0  0  0
 55 57  1  0  0  0  0
 55 58  1  0  0  0  0
 57 54  1  0  0  0  0
 57 61  1  0  0  0  0
 58 60  1  0  0  0  0
 58 53  1  0  0  0  0
 60 59  1  0  0  0  0
 60 56  2  0  0  0  0
 62 61  1  0  0  0  0
M  END
>  <MODEL>
3

>  <REMARK>
 VINA RESULT:      -5.9      3.615     10.275
  Name = 
  17 active torsions:
  status: ('A' for Active; 'I' for Inactive)
    1  A    between atoms: O_2  and  C_28
    2  A    between atoms: C_7  and  C_45
    3  A    between atoms: C_7  and  C_57
    4  A    between atoms: C_13  and  C_21
    5  A    between atoms: O_14  and  C_21
    6  A    between atoms: O_14  and  C_34
    7  A    between atoms: O_15  and  C_23
    8  A    between atoms: O_15  and  C_54
    9  A    between atoms: C_17  and  C_24
   10  A    between atoms: C_17  and  C_50
   11  A    between atoms: N_20  and  C_53
   12  A    between atoms: C_29  and  N_43
   13  A    between atoms: O_32  and  N_43
   14  A    between atoms: O_32  and  C_61
   15  A    between atoms: C_33  and  C_50
   16  A    between atoms: O_37  and  C_48
   17  A    between atoms: C_46  and  C_57
                            x       y       z     vdW  Elec       q    Type
                         _______ _______ _______ _____ _____    ______ ____

>  <TORSDO>
F 17

$$$$
=
 OpenBabel11062416393D

 62 68  0  0  1  0  0  0  0  0999 V2000
  188.3340  177.1380  140.0840 N   0  0  0  0  0  0  0  0  0  0  0  0
  188.0680  177.1860  138.6570 C   0  0  0  0  0  2  0  0  0  0  0  0
  189.5320  177.0130  140.5840 C   0  0  0  0  0  0  0  0  0  0  0  0
  193.5580  176.0800  139.0400 C   0  0  0  0  0  3  0  0  0  0  0  0
  191.9700  177.5900  140.2770 C   0  0  0  0  0  2  0  0  0  0  0  0
  189.7040  176.9820  142.0070 N   0  0  0  0  0  2  0  0  0  0  0  0
  192.3050  176.1640  136.8740 C   0  0  0  0  0  2  0  0  0  0  0  0
  190.8070  176.2800  137.2010 C   0  0  2  0  0  3  0  0  0  0  0  0
  190.5130  177.3890  138.2180 C   0  0  2  0  0  3  0  0  0  0  0  0
  193.2130  177.4960  139.3900 C   0  0  0  0  0  2  0  0  0  0  0  0
  193.1390  175.4620  137.9270 C   0  0  0  0  0  0  0  0  0  0  0  0
  190.7480  176.9000  139.6740 C   0  0  2  0  0  3  0  0  0  0  0  0
  189.1380  178.0360  138.0120 C   0  0  1  0  0  3  0  0  0  0  0  0
  187.7320  178.2180  142.5620 C   0  0  0  0  0  0  0  0  0  0  0  0
  186.6070  178.7280  142.1280 C   0  0  0  0  0  3  0  0  0  0  0  0
  188.8700  177.6890  142.9310 C   0  0  0  0  0  3  0  0  0  0  0  0
  185.3060  178.4460  142.7670 C   0  0  0  0  0  0  0  0  0  0  0  0
  185.2430  177.6930  143.7780 O   0  0  0  0  0  0  0  0  0  0  0  0
  184.0340  179.0460  142.2370 C   0  0  2  0  0  3  0  0  0  0  0  0
  182.8600  178.9450  143.2010 C   0  0  0  0  0  1  0  0  0  0  0  0
  184.6300  178.0880  140.1430 O   0  0  0  0  0  0  0  0  0  0  0  0
  183.7010  178.5460  140.8620 C   0  0  0  0  0  0  0  0  0  0  0  0
  182.3500  178.5710  140.3530 N   0  0  0  0  0  0  0  0  0  0  0  0
  180.3270  177.1870  140.7070 C   0  0  0  0  0  3  0  0  0  0  0  0
  181.5120  175.0750  139.3110 C   0  0  0  0  0  3  0  0  0  0  0  0
  181.6220  177.3430  140.1810 C   0  0  0  0  0  0  0  0  0  0  0  0
  179.6330  175.9850  140.5320 C   0  0  0  0  0  3  0  0  0  0  0  0
  180.2250  174.9300  139.8340 C   0  0  0  0  0  3  0  0  0  0  0  0
  182.2070  176.2750  139.4860 C   0  0  0  0  0  3  0  0  0  0  0  0
  181.6750  179.7700  140.1810 O   0  0  0  0  0  0  0  0  0  0  0  0
  181.0750  179.4800  137.8660 C   0  0  0  0  0  3  0  0  0  0  0  0
  180.7840  179.9870  136.5980 C   0  0  0  0  0  0  0  0  0  0  0  0
  180.8280  181.3940  136.3800 C   0  0  0  0  0  0  0  0  0  0  0  0
  181.1670  182.2330  137.4510 C   0  0  0  0  0  3  0  0  0  0  0  0
  181.4490  181.7080  138.7140 C   0  0  0  0  0  3  0  0  0  0  0  0
  180.4410  178.9940  135.5350 C   0  0  0  0  0  1  0  0  0  0  0  0
  181.3960  180.3270  138.9290 C   0  0  0  0  0  0  0  0  0  0  0  0
  179.4210  182.8410  134.8930 C   0  0  0  0  0  1  0  0  0  0  0  0
  180.5470  182.0190  135.1590 O   0  0  0  0  0  0  0  0  0  0  0  0
  188.8420  178.2640  136.6630 O   0  0  0  0  0  0  0  0  0  0  0  0
  187.8080  177.1890  134.7780 C   0  0  0  0  0  2  0  0  0  0  0  0
  188.0300  177.1870  136.2820 C   0  0  2  0  0  3  0  0  0  0  0  0
  185.7490  177.7840  135.8230 N   0  0  0  0  0  0  0  0  0  0  0  0
  186.6520  177.3580  136.8870 C   0  0  0  0  0  2  0  0  0  0  0  0
  184.4860  177.1130  136.0600 C   0  0  0  0  0  1  0  0  0  0  0  0
  186.3120  177.2380  134.5950 C   0  0  0  0  0  2  0  0  0  0  0  0
  190.2560  175.0510  137.5950 O   0  0  0  0  0  0  0  0  0  0  0  0
  189.8530  174.4310  136.4120 C   0  0  0  0  0  2  0  0  0  0  0  0
  189.1610  173.1280  136.7470 C   0  0  0  0  0  3  0  0  0  0  0  0
  188.3440  172.6870  135.5510 C   0  0  0  0  0  2  0  0  0  0  0  0
  187.6590  173.3410  136.7310 C   0  0  0  0  0  2  0  0  0  0  0  0
  193.6210  174.0610  137.6790 C   0  0  0  0  0  2  0  0  0  0  0  0
  195.0880  173.8960  138.0390 C   0  0  0  0  0  2  0  0  0  0  0  0
  197.8920  174.8500  135.5270 C   0  0  0  0  0  2  0  0  0  0  0  0
  195.5560  173.8260  135.5350 C   0  0  0  0  0  2  0  0  0  0  0  0
  197.8250  172.1190  137.5850 O   0  0  0  0  0  0  0  0  0  0  0  0
  196.4000  175.0770  135.2520 C   0  0  1  0  0  3  0  0  0  0  0  0
  195.8320  173.1900  136.9060 C   0  0  1  0  0  3  0  0  0  0  0  0
  198.1350  174.3620  136.9520 C   0  0  0  0  0  2  0  0  0  0  0  0
  197.3050  173.1430  137.1850 C   0  0  0  0  0  0  0  0  0  0  0  0
  195.9360  176.1790  135.9720 O   0  0  0  0  0  0  0  0  0  0  0  0
  196.7920  177.1400  135.6880 O   0  0  0  0  0  1  0  0  0  0  0  0
  1  3  2  0  0  0  0
  2  1  1  0  0  0  0
  3  6  1  0  0  0  0
  4 10  1  0  0  0  0
  6 16  1  0  0  0  0
  7  8  1  0  0  0  0
  7 11  1  0  0  0  0
  8 47  1  1  0  0  0
  8  9  1  0  0  0  0
  9 12  1  0  0  0  0
 10  5  1  0  0  0  0
 11  4  2  0  0  0  0
 12  5  1  0  0  0  0
 12  3  1  0  0  0  0
 13  9  1  0  0  0  0
 13  2  1  0  0  0  0
 14 16  2  0  0  0  0
 15 14  2  0  0  0  0
 15 17  1  0  0  0  0
 17 18  2  0  0  0  0
 19 17  1  0  0  0  0
 19 20  1  0  0  0  0
 21 22  2  0  0  0  0
 22 19  1  0  0  0  0
 23 22  1  0  0  0  0
 25 29  2  0  0  0  0
 25 28  1  0  0  0  0
 26 23  1  0  0  0  0
 26 24  2  0  0  0  0
 27 24  1  0  0  0  0
 28 27  2  0  0  0  0
 29 26  1  0  0  0  0
 30 23  1  0  0  0  0
 31 37  1  0  0  0  0
 32 31  2  0  0  0  0
 33 32  1  0  0  0  0
 33 34  2  0  0  0  0
 34 35  1  0  0  0  0
 35 37  2  0  0  0  0
 36 32  1  0  0  0  0
 37 30  1  0  0  0  0
 38 39  1  0  0  0  0
 39 33  1  0  0  0  0
 40 13  1  0  0  0  0
 41 42  1  0  0  0  0
 42 40  1  0  0  0  0
 42 44  1  0  0  0  0
 43 45  1  0  0  0  0
 43 44  1  0  0  0  0
 46 41  1  0  0  0  0
 46 43  1  0  0  0  0
 48 49  1  0  0  0  0
 48 47  1  0  0  0  0
 50 51  1  0  0  0  0
 50 49  1  0  0  0  0
 51 49  1  0  0  0  0
 52 11  1  0  0  0  0
 52 53  1  0  0  0  0
 54 59  1  0  0  0  0
 55 58  1  0  0  0  0
 57 54  1  0  0  0  0
 57 55  1  0  0  0  0
 57 61  1  0  0  0  0
 58 60  1  0  0  0  0
 58 53  1  0  0  0  0
 59 60  1  0  0  0  0
 60 56  2  0  0  0  0
 62 61  1  0  0  0  0
M  END
>  <MODEL>
4

>  <REMARK>
 VINA RESULT:      -5.4      3.403     10.329
  Name = 
  17 active torsions:
  status: ('A' for Active; 'I' for Inactive)
    1  A    between atoms: O_2  and  C_28
    2  A    between atoms: C_7  and  C_45
    3  A    between atoms: C_7  and  C_57
    4  A    between atoms: C_13  and  C_21
    5  A    between atoms: O_14  and  C_21
    6  A    between atoms: O_14  and  C_34
    7  A    between atoms: O_15  and  C_23
    8  A    between atoms: O_15  and  C_54
    9  A    between atoms: C_17  and  C_24
   10  A    between atoms: C_17  and  C_50
   11  A    between atoms: N_20  and  C_53
   12  A    between atoms: C_29  and  N_43
   13  A    between atoms: O_32  and  N_43
   14  A    between atoms: O_32  and  C_61
   15  A    between atoms: C_33  and  C_50
   16  A    between atoms: O_37  and  C_48
   17  A    between atoms: C_46  and  C_57
                            x       y       z     vdW  Elec       q    Type
                         _______ _______ _______ _____ _____    ______ ____

>  <TORSDO>
F 17

$$$$
=
 OpenBabel11062416393D

 62 68  0  0  1  0  0  0  0  0999 V2000
  181.3410  179.6930  141.8360 N   0  0  0  0  0  0  0  0  0  0  0  0
  180.1510  180.0800  141.0990 C   0  0  0  0  0  2  0  0  0  0  0  0
  182.3140  179.0020  141.3100 C   0  0  0  0  0  0  0  0  0  0  0  0
  182.9820  176.7510  137.5750 C   0  0  0  0  0  3  0  0  0  0  0  0
  183.6300  178.5580  139.2030 C   0  0  0  0  0  2  0  0  0  0  0  0
  183.4570  178.6690  142.1110 N   0  0  0  0  0  2  0  0  0  0  0  0
  180.7210  177.7020  137.0750 C   0  0  0  0  0  2  0  0  0  0  0  0
  180.1980  178.3730  138.3550 C   0  0  2  0  0  3  0  0  0  0  0  0
  181.2270  179.3200  138.9830 C   0  0  2  0  0  3  0  0  0  0  0  0
  183.6060  178.1040  137.7420 C   0  0  0  0  0  2  0  0  0  0  0  0
  181.6850  176.5550  137.2990 C   0  0  0  0  0  0  0  0  0  0  0  0
  182.2500  178.5460  139.8590 C   0  0  2  0  0  3  0  0  0  0  0  0
  180.5800  180.5040  139.7130 C   0  0  1  0  0  3  0  0  0  0  0  0
  184.3680  178.9900  144.2990 C   0  0  0  0  0  0  0  0  0  0  0  0
  184.7470  178.4220  145.4160 C   0  0  0  0  0  3  0  0  0  0  0  0
  183.9680  179.4960  143.1620 C   0  0  0  0  0  3  0  0  0  0  0  0
  186.0850  178.6330  146.0030 C   0  0  0  0  0  0  0  0  0  0  0  0
  186.2230  179.3570  147.0290 O   0  0  0  0  0  0  0  0  0  0  0  0
  187.3070  177.9960  145.4040 C   0  0  2  0  0  3  0  0  0  0  0  0
  187.1730  176.4950  145.1900 C   0  0  0  0  0  1  0  0  0  0  0  0
  188.4590  178.8590  147.2970 O   0  0  0  0  0  0  0  0  0  0  0  0
  188.5600  178.3680  146.1390 C   0  0  0  0  0  0  0  0  0  0  0  0
  189.8660  178.1710  145.5580 N   0  0  0  0  0  0  0  0  0  0  0  0
  191.4460  176.2960  145.2120 C   0  0  0  0  0  3  0  0  0  0  0  0
  191.7280  176.0040  147.9780 C   0  0  0  0  0  3  0  0  0  0  0  0
  190.7390  177.1500  146.0750 C   0  0  0  0  0  0  0  0  0  0  0  0
  192.2900  175.3070  145.7300 C   0  0  0  0  0  3  0  0  0  0  0  0
  192.4300  175.1620  147.1120 C   0  0  0  0  0  3  0  0  0  0  0  0
  190.8850  176.9910  147.4590 C   0  0  0  0  0  3  0  0  0  0  0  0
  190.2400  178.8360  144.4000 O   0  0  0  0  0  0  0  0  0  0  0  0
  188.7730  178.5490  142.5110 C   0  0  0  0  0  3  0  0  0  0  0  0
  188.4980  178.0720  141.2280 C   0  0  0  0  0  0  0  0  0  0  0  0
  189.4990  177.3440  140.5230 C   0  0  0  0  0  0  0  0  0  0  0  0
  190.7360  177.1230  141.1450 C   0  0  0  0  0  3  0  0  0  0  0  0
  190.9940  177.6110  142.4280 C   0  0  0  0  0  3  0  0  0  0  0  0
  187.1430  178.3670  140.6720 C   0  0  0  0  0  1  0  0  0  0  0  0
  190.0140  178.3350  143.1140 C   0  0  0  0  0  0  0  0  0  0  0  0
  190.3780  176.7080  138.2630 C   0  0  0  0  0  1  0  0  0  0  0  0
  189.3460  176.8270  139.2320 O   0  0  0  0  0  0  0  0  0  0  0  0
  179.5020  181.0520  139.0080 O   0  0  0  0  0  0  0  0  0  0  0  0
  181.4550  182.1170  138.0980 C   0  0  0  0  0  2  0  0  0  0  0  0
  180.0610  181.5730  137.8340 C   0  0  2  0  0  3  0  0  0  0  0  0
  180.0110  183.9700  137.6960 N   0  0  0  0  0  0  0  0  0  0  0  0
  179.2480  182.7670  137.3780 C   0  0  0  0  0  2  0  0  0  0  0  0
  179.8050  184.8920  136.5960 C   0  0  0  0  0  1  0  0  0  0  0  0
  181.4090  183.5620  137.6690 C   0  0  0  0  0  2  0  0  0  0  0  0
  179.7170  177.4370  139.2830 O   0  0  0  0  0  0  0  0  0  0  0  0
  179.1660  176.4080  138.5180 C   0  0  0  0  0  2  0  0  0  0  0  0
  178.9900  175.1840  139.3890 C   0  0  0  0  0  3  0  0  0  0  0  0
  178.9310  175.6190  140.8380 C   0  0  0  0  0  2  0  0  0  0  0  0
  180.2060  175.0250  140.2820 C   0  0  0  0  0  2  0  0  0  0  0  0
  181.2180  175.1420  137.0950 C   0  0  0  0  0  2  0  0  0  0  0  0
  182.1310  174.3750  136.1530 C   0  0  0  0  0  2  0  0  0  0  0  0
  183.4700  170.7300  136.0670 C   0  0  0  0  0  2  0  0  0  0  0  0
  182.1550  172.3530  134.6020 C   0  0  0  0  0  2  0  0  0  0  0  0
  180.7250  171.8670  137.7610 O   0  0  0  0  0  0  0  0  0  0  0  0
  183.5070  171.6710  134.8560 C   0  0  1  0  0  3  0  0  0  0  0  0
  181.5420  172.9970  135.8540 C   0  0  1  0  0  3  0  0  0  0  0  0
  182.9970  171.4500  137.3260 C   0  0  0  0  0  2  0  0  0  0  0  0
  181.6790  172.0900  137.0410 C   0  0  0  0  0  0  0  0  0  0  0  0
  184.5310  172.6090  135.0020 O   0  0  0  0  0  0  0  0  0  0  0  0
  185.1510  172.2480  136.1080 O   0  0  0  0  0  1  0  0  0  0  0  0
  2  1  1  0  0  0  0
  3  1  2  0  0  0  0
  3  6  1  0  0  0  0
  4 10  1  0  0  0  0
  5 12  1  0  0  0  0
  6 16  1  0  0  0  0
  7 11  1  0  0  0  0
  7  8  1  0  0  0  0
  8  9  1  0  0  0  0
  8 47  1  1  0  0  0
  9 13  1  0  0  0  0
  9 12  1  0  0  0  0
 10  5  1  0  0  0  0
 11  4  2  0  0  0  0
 12  3  1  0  0  0  0
 13  2  1  0  0  0  0
 14 15  2  0  0  0  0
 15 17  1  0  0  0  0
 16 14  2  0  0  0  0
 17 18  2  0  0  0  0
 19 17  1  0  0  0  0
 19 22  1  0  0  0  0
 20 19  1  0  0  0  0
 22 21  2  0  0  0  0
 23 26  1  0  0  0  0
 23 22  1  0  0  0  0
 24 27  2  0  0  0  0
 24 26  1  0  0  0  0
 26 29  2  0  0  0  0
 27 28  1  0  0  0  0
 28 25  2  0  0  0  0
 29 25  1  0  0  0  0
 30 23  1  0  0  0  0
 31 37  1  0  0  0  0
 32 31  2  0  0  0  0
 33 34  2  0  0  0  0
 33 32  1  0  0  0  0
 34 35  1  0  0  0  0
 35 37  2  0  0  0  0
 36 32  1  0  0  0  0
 37 30  1  0  0  0  0
 38 39  1  0  0  0  0
 39 33  1  0  0  0  0
 40 13  1  0  0  0  0
 42 41  1  0  0  0  0
 42 40  1  0  0  0  0
 44 43  1  0  0  0  0
 44 42  1  0  0  0  0
 45 43  1  0  0  0  0
 46 43  1  0  0  0  0
 46 41  1  0  0  0  0
 48 47  1  0  0  0  0
 48 49  1  0  0  0  0
 49 51  1  0  0  0  0
 49 50  1  0  0  0  0
 51 50  1  0  0  0  0
 52 11  1  0  0  0  0
 53 52  1  0  0  0  0
 54 59  1  0  0  0  0
 55 57  1  0  0  0  0
 55 58  1  0  0  0  0
 57 61  1  0  0  0  0
 57 54  1  0  0  0  0
 58 53  1  0  0  0  0
 58 60  1  0  0  0  0
 60 59  1  0  0  0  0
 60 56  2  0  0  0  0
 61 62  1  0  0  0  0
M  END
>  <MODEL>
5

>  <REMARK>
 VINA RESULT:      -5.0      2.041      4.591
  Name = 
  17 active torsions:
  status: ('A' for Active; 'I' for Inactive)
    1  A    between atoms: O_2  and  C_28
    2  A    between atoms: C_7  and  C_45
    3  A    between atoms: C_7  and  C_57
    4  A    between atoms: C_13  and  C_21
    5  A    between atoms: O_14  and  C_21
    6  A    between atoms: O_14  and  C_34
    7  A    between atoms: O_15  and  C_23
    8  A    between atoms: O_15  and  C_54
    9  A    between atoms: C_17  and  C_24
   10  A    between atoms: C_17  and  C_50
   11  A    between atoms: N_20  and  C_53
   12  A    between atoms: C_29  and  N_43
   13  A    between atoms: O_32  and  N_43
   14  A    between atoms: O_32  and  C_61
   15  A    between atoms: C_33  and  C_50
   16  A    between atoms: O_37  and  C_48
   17  A    between atoms: C_46  and  C_57
                            x       y       z     vdW  Elec       q    Type
                         _______ _______ _______ _____ _____    ______ ____

>  <TORSDO>
F 17

$$$$
=
 OpenBabel11062416393D

 62 68  0  0  1  0  0  0  0  0999 V2000
  184.5050  177.6370  138.3540 N   0  0  0  0  0  0  0  0  0  0  0  0
  183.5100  178.0870  139.3110 C   0  0  0  0  0  2  0  0  0  0  0  0
  184.2190  177.3160  137.1220 C   0  0  0  0  0  0  0  0  0  0  0  0
  180.5520  176.6240  134.7700 C   0  0  0  0  0  3  0  0  0  0  0  0
  182.7330  177.8220  135.1460 C   0  0  0  0  0  2  0  0  0  0  0  0
  185.2680  176.8890  136.2420 N   0  0  0  0  0  2  0  0  0  0  0  0
  179.5160  177.3640  136.9250 C   0  0  0  0  0  2  0  0  0  0  0  0
  180.6340  177.4660  137.9750 C   0  0  2  0  0  3  0  0  0  0  0  0
  181.8380  178.2700  137.4710 C   0  0  2  0  0  3  0  0  0  0  0  0
  181.3080  177.9080  134.5960 C   0  0  0  0  0  2  0  0  0  0  0  0
  179.7630  176.3570  135.8200 C   0  0  0  0  0  0  0  0  0  0  0  0
  182.7870  177.3910  136.6110 C   0  0  2  0  0  3  0  0  0  0  0  0
  182.5640  179.0220  138.5940 C   0  0  1  0  0  3  0  0  0  0  0  0
  187.2110  177.5690  137.4600 C   0  0  0  0  0  0  0  0  0  0  0  0
  187.7460  177.7630  138.6390 C   0  0  0  0  0  3  0  0  0  0  0  0
  186.6180  177.3600  136.3140 C   0  0  0  0  0  3  0  0  0  0  0  0
  189.0310  177.1560  139.0400 C   0  0  0  0  0  0  0  0  0  0  0  0
  189.6000  176.3160  138.2890 O   0  0  0  0  0  0  0  0  0  0  0  0
  189.6900  177.5200  140.3410 C   0  0  2  0  0  3  0  0  0  0  0  0
  190.0860  176.3170  141.1860 C   0  0  0  0  0  1  0  0  0  0  0  0
  188.1810  179.3530  140.4760 O   0  0  0  0  0  0  0  0  0  0  0  0
  188.9020  178.5370  141.1120 C   0  0  0  0  0  0  0  0  0  0  0  0
  188.9440  178.5950  142.5530 N   0  0  0  0  0  0  0  0  0  0  0  0
  187.7710  176.9630  144.0000 C   0  0  0  0  0  3  0  0  0  0  0  0
  185.5590  178.6660  144.1510 C   0  0  0  0  0  3  0  0  0  0  0  0
  187.7980  178.1960  143.3250 C   0  0  0  0  0  0  0  0  0  0  0  0
  186.6470  176.5890  144.7460 C   0  0  0  0  0  3  0  0  0  0  0  0
  185.5430  177.4400  144.8200 C   0  0  0  0  0  3  0  0  0  0  0  0
  186.6820  179.0390  143.4050 C   0  0  0  0  0  3  0  0  0  0  0  0
  190.1280  178.8710  143.2210 O   0  0  0  0  0  0  0  0  0  0  0  0
  189.8050  178.3910  145.5600 C   0  0  0  0  0  3  0  0  0  0  0  0
  190.1670  177.7480  146.7450 C   0  0  0  0  0  0  0  0  0  0  0  0
  191.3080  176.8940  146.7570 C   0  0  0  0  0  0  0  0  0  0  0  0
  192.0400  176.7290  145.5730 C   0  0  0  0  0  3  0  0  0  0  0  0
  191.6600  177.3780  144.3960 C   0  0  0  0  0  3  0  0  0  0  0  0
  189.3120  178.0050  147.9430 C   0  0  0  0  0  1  0  0  0  0  0  0
  190.5330  178.2060  144.3830 C   0  0  0  0  0  0  0  0  0  0  0  0
  193.0850  175.7100  148.0710 C   0  0  0  0  0  1  0  0  0  0  0  0
  191.7620  176.1890  147.8780 O   0  0  0  0  0  0  0  0  0  0  0  0
  181.6840  179.6250  139.5000 O   0  0  0  0  0  0  0  0  0  0  0  0
  180.1090  181.4320  139.3290 C   0  0  0  0  0  2  0  0  0  0  0  0
  181.5120  180.9320  139.0270 C   0  0  2  0  0  3  0  0  0  0  0  0
  180.2710  181.0840  136.9760 N   0  0  0  0  0  0  0  0  0  0  0  0
  181.6190  180.9370  137.5150 C   0  0  0  0  0  2  0  0  0  0  0  0
  180.3820  181.9460  135.8150 C   0  0  0  0  0  1  0  0  0  0  0  0
  179.5230  181.8130  137.9930 C   0  0  0  0  0  2  0  0  0  0  0  0
  181.0140  176.2090  138.4660 O   0  0  0  0  0  0  0  0  0  0  0  0
  180.6270  176.2030  139.8070 C   0  0  0  0  0  2  0  0  0  0  0  0
  180.4200  174.7730  140.2570 C   0  0  0  0  0  3  0  0  0  0  0  0
  179.0770  174.2920  139.7520 C   0  0  0  0  0  2  0  0  0  0  0  0
  179.2320  174.7120  141.1970 C   0  0  0  0  0  2  0  0  0  0  0  0
  179.0180  175.0530  135.8220 C   0  0  0  0  0  2  0  0  0  0  0  0
  179.8550  173.9220  135.2480 C   0  0  0  0  0  2  0  0  0  0  0  0
  182.4340  171.0660  135.7720 C   0  0  0  0  0  2  0  0  0  0  0  0
  180.9570  172.6270  137.1460 C   0  0  0  0  0  2  0  0  0  0  0  0
  183.1140  174.3200  134.9680 O   0  0  0  0  0  0  0  0  0  0  0  0
  181.1500  171.2050  136.5990 C   0  0  1  0  0  3  0  0  0  0  0  0
  181.1190  173.7250  136.0850 C   0  0  1  0  0  3  0  0  0  0  0  0
  182.4840  172.0800  134.6330 C   0  0  0  0  0  2  0  0  0  0  0  0
  182.3020  173.4460  135.2050 C   0  0  0  0  0  0  0  0  0  0  0  0
  180.0450  170.7920  135.8530 O   0  0  0  0  0  0  0  0  0  0  0  0
  179.0790  170.6670  136.7410 O   0  0  0  0  0  1  0  0  0  0  0  0
  1  2  1  0  0  0  0
  3  1  2  0  0  0  0
  4 11  2  0  0  0  0
  5 12  1  0  0  0  0
  6 16  1  0  0  0  0
  6  3  1  0  0  0  0
  7  8  1  0  0  0  0
  8 47  1  6  0  0  0
  9  8  1  0  0  0  0
  9 13  1  0  0  0  0
 10  4  1  0  0  0  0
 10  5  1  0  0  0  0
 11 52  1  0  0  0  0
 11  7  1  0  0  0  0
 12  3  1  0  0  0  0
 12  9  1  0  0  0  0
 13  2  1  0  0  0  0
 13 40  1  0  0  0  0
 14 15  2  0  0  0  0
 15 17  1  0  0  0  0
 16 14  2  0  0  0  0
 17 19  1  0  0  0  0
 18 17  2  0  0  0  0
 19 22  1  0  0  0  0
 19 20  1  0  0  0  0
 21 22  2  0  0  0  0
 22 23  1  0  0  0  0
 23 30  1  0  0  0  0
 23 26  1  0  0  0  0
 24 27  1  0  0  0  0
 25 28  1  0  0  0  0
 26 29  1  0  0  0  0
 26 24  2  0  0  0  0
 27 28  2  0  0  0  0
 29 25  2  0  0  0  0
 30 37  1  0  0  0  0
 31 32  1  0  0  0  0
 32 33  2  0  0  0  0
 32 36  1  0  0  0  0
 33 39  1  0  0  0  0
 34 33  1  0  0  0  0
 35 34  2  0  0  0  0
 37 35  1  0  0  0  0
 37 31  2  0  0  0  0
 39 38  1  0  0  0  0
 42 41  1  0  0  0  0
 42 40  1  0  0  0  0
 43 44  1  0  0  0  0
 43 46  1  0  0  0  0
 44 42  1  0  0  0  0
 45 43  1  0  0  0  0
 46 41  1  0  0  0  0
 47 48  1  0  0  0  0
 48 49  1  0  0  0  0
 49 51  1  0  0  0  0
 50 49  1  0  0  0  0
 50 51  1  0  0  0  0
 53 52  1  0  0  0  0
 53 58  1  0  0  0  0
 54 57  1  0  0  0  0
 56 60  2  0  0  0  0
 57 55  1  0  0  0  0
 58 55  1  0  0  0  0
 59 60  1  0  0  0  0
 59 54  1  0  0  0  0
 60 58  1  0  0  0  0
 61 57  1  0  0  0  0
 61 62  1  0  0  0  0
M  END
>  <MODEL>
6

>  <REMARK>
 VINA RESULT:      -4.5      1.596      3.647
  Name = 
  17 active torsions:
  status: ('A' for Active; 'I' for Inactive)
    1  A    between atoms: O_2  and  C_28
    2  A    between atoms: C_7  and  C_45
    3  A    between atoms: C_7  and  C_57
    4  A    between atoms: C_13  and  C_21
    5  A    between atoms: O_14  and  C_21
    6  A    between atoms: O_14  and  C_34
    7  A    between atoms: O_15  and  C_23
    8  A    between atoms: O_15  and  C_54
    9  A    between atoms: C_17  and  C_24
   10  A    between atoms: C_17  and  C_50
   11  A    between atoms: N_20  and  C_53
   12  A    between atoms: C_29  and  N_43
   13  A    between atoms: O_32  and  N_43
   14  A    between atoms: O_32  and  C_61
   15  A    between atoms: C_33  and  C_50
   16  A    between atoms: O_37  and  C_48
   17  A    between atoms: C_46  and  C_57
                            x       y       z     vdW  Elec       q    Type
                         _______ _______ _______ _____ _____    ______ ____

>  <TORSDO>
F 17

$$$$
=
 OpenBabel11062416393D

 62 68  0  0  1  0  0  0  0  0999 V2000
  188.3790  174.1570  136.9680 N   0  0  0  0  0  0  0  0  0  0  0  0
  189.6860  174.7900  136.9550 C   0  0  0  0  0  2  0  0  0  0  0  0
  187.3040  174.7470  137.4120 C   0  0  0  0  0  0  0  0  0  0  0  0
  186.3730  178.4340  139.6480 C   0  0  0  0  0  3  0  0  0  0  0  0
  186.0970  176.9530  137.6320 C   0  0  0  0  0  2  0  0  0  0  0  0
  186.0510  174.0490  137.3810 N   0  0  0  0  0  2  0  0  0  0  0  0
  188.8400  178.7500  139.3570 C   0  0  0  0  0  2  0  0  0  0  0  0
  189.4140  177.4530  138.7650 C   0  0  2  0  0  3  0  0  0  0  0  0
  188.6270  176.9680  137.5420 C   0  0  2  0  0  3  0  0  0  0  0  0
  186.1210  178.3850  138.1710 C   0  0  0  0  0  2  0  0  0  0  0  0
  187.5890  178.5750  140.1950 C   0  0  0  0  0  0  0  0  0  0  0  0
  187.3650  176.1650  137.9620 C   0  0  2  0  0  3  0  0  0  0  0  0
  189.5030  176.2270  136.5250 C   0  0  1  0  0  3  0  0  0  0  0  0
  184.6610  172.2990  136.5300 C   0  0  0  0  0  0  0  0  0  0  0  0
  183.6180  171.5350  136.7390 C   0  0  0  0  0  3  0  0  0  0  0  0
  185.6930  173.0870  136.3830 C   0  0  0  0  0  3  0  0  0  0  0  0
  182.5090  171.4180  135.7710 C   0  0  0  0  0  0  0  0  0  0  0  0
  182.2720  170.3140  135.2050 O   0  0  0  0  0  0  0  0  0  0  0  0
  181.6390  172.5970  135.4380 C   0  0  2  0  0  3  0  0  0  0  0  0
  182.3540  173.9370  135.5470 C   0  0  0  0  0  1  0  0  0  0  0  0
  179.8330  171.4540  136.4820 O   0  0  0  0  0  0  0  0  0  0  0  0
  180.3380  172.5710  136.1850 C   0  0  0  0  0  0  0  0  0  0  0  0
  179.6630  173.7860  136.5740 N   0  0  0  0  0  0  0  0  0  0  0  0
  178.9850  173.3500  138.9160 C   0  0  0  0  0  3  0  0  0  0  0  0
  180.1350  175.7700  139.7140 C   0  0  0  0  0  3  0  0  0  0  0  0
  179.6100  174.1690  137.9590 C   0  0  0  0  0  0  0  0  0  0  0  0
  178.9400  173.7380  140.2590 C   0  0  0  0  0  3  0  0  0  0  0  0
  179.5150  174.9470  140.6570 C   0  0  0  0  0  3  0  0  0  0  0  0
  180.1790  175.3820  138.3710 C   0  0  0  0  0  3  0  0  0  0  0  0
  179.2040  174.6830  135.6220 O   0  0  0  0  0  0  0  0  0  0  0  0
  180.8950  176.3240  136.1190 C   0  0  0  0  0  3  0  0  0  0  0  0
  181.4370  177.6050  136.0040 C   0  0  0  0  0  0  0  0  0  0  0  0
  180.7570  178.5850  135.2250 C   0  0  0  0  0  0  0  0  0  0  0  0
  179.5540  178.2330  134.5980 C   0  0  0  0  0  3  0  0  0  0  0  0
  179.0290  176.9450  134.7210 C   0  0  0  0  0  3  0  0  0  0  0  0
  182.7220  177.8630  136.7220 C   0  0  0  0  0  1  0  0  0  0  0  0
  179.7030  175.9800  135.4770 C   0  0  0  0  0  0  0  0  0  0  0  0
  180.3820  181.0160  134.7360 C   0  0  0  0  0  1  0  0  0  0  0  0
  181.2060  179.8960  135.0280 O   0  0  0  0  0  0  0  0  0  0  0  0
  190.7430  176.8440  136.3250 O   0  0  0  0  0  0  0  0  0  0  0  0
  192.7280  176.1870  137.5110 C   0  0  0  0  0  2  0  0  0  0  0  0
  191.6880  175.8190  136.4660 C   0  0  2  0  0  3  0  0  0  0  0  0
  193.7830  176.2520  135.3740 N   0  0  0  0  0  0  0  0  0  0  0  0
  192.4610  175.6680  135.1720 C   0  0  0  0  0  2  0  0  0  0  0  0
  194.7210  175.4030  134.6660 C   0  0  0  0  0  1  0  0  0  0  0  0
  194.0550  176.1120  136.7990 C   0  0  0  0  0  2  0  0  0  0  0  0
  189.5490  176.4450  139.7320 O   0  0  0  0  0  0  0  0  0  0  0  0
  190.4510  176.9510  140.6680 C   0  0  0  0  0  2  0  0  0  0  0  0
  189.8710  176.7830  142.0560 C   0  0  0  0  0  3  0  0  0  0  0  0
  190.8430  177.3560  143.0640 C   0  0  0  0  0  2  0  0  0  0  0  0
  190.7630  175.8590  142.8620 C   0  0  0  0  0  2  0  0  0  0  0  0
  187.6770  178.6740  141.6910 C   0  0  0  0  0  2  0  0  0  0  0  0
  186.4800  179.4020  142.2800 C   0  0  0  0  0  2  0  0  0  0  0  0
  185.5160  178.1630  145.8320 C   0  0  0  0  0  2  0  0  0  0  0  0
  186.1790  177.2180  143.5570 C   0  0  0  0  0  2  0  0  0  0  0  0
  183.3900  179.3330  143.4220 O   0  0  0  0  0  0  0  0  0  0  0  0
  186.6310  177.5280  144.9920 C   0  0  1  0  0  3  0  0  0  0  0  0
  185.4850  178.3970  142.8590 C   0  0  1  0  0  3  0  0  0  0  0  0
  184.9580  179.4200  145.1730 C   0  0  0  0  0  2  0  0  0  0  0  0
  184.5220  179.0750  143.7870 C   0  0  0  0  0  0  0  0  0  0  0  0
  187.7680  178.3380  145.0030 O   0  0  0  0  0  0  0  0  0  0  0  0
  188.6690  177.6280  145.6520 O   0  0  0  0  0  1  0  0  0  0  0  0
  1  3  2  0  0  0  0
  2  1  1  0  0  0  0
  3 12  1  0  0  0  0
  4 11  2  0  0  0  0
  5 12  1  0  0  0  0
  5 10  1  0  0  0  0
  6  3  1  0  0  0  0
  7 11  1  0  0  0  0
  8  7  1  0  0  0  0
  8 47  1  1  0  0  0
  9 12  1  0  0  0  0
  9  8  1  0  0  0  0
 10  4  1  0  0  0  0
 11 52  1  0  0  0  0
 13  2  1  0  0  0  0
 13  9  1  0  0  0  0
 14 15  2  0  0  0  0
 16 14  2  0  0  0  0
 16  6  1  0  0  0  0
 17 15  1  0  0  0  0
 18 17  2  0  0  0  0
 19 20  1  0  0  0  0
 19 17  1  0  0  0  0
 19 22  1  0  0  0  0
 22 21  2  0  0  0  0
 22 23  1  0  0  0  0
 23 26  1  0  0  0  0
 24 27  1  0  0  0  0
 25 28  1  0  0  0  0
 26 29  1  0  0  0  0
 26 24  2  0  0  0  0
 27 28  2  0  0  0  0
 29 25  2  0  0  0  0
 30 23  1  0  0  0  0
 32 31  1  0  0  0  0
 32 36  1  0  0  0  0
 33 32  2  0  0  0  0
 34 35  2  0  0  0  0
 34 33  1  0  0  0  0
 35 37  1  0  0  0  0
 37 30  1  0  0  0  0
 37 31  2  0  0  0  0
 38 39  1  0  0  0  0
 39 33  1  0  0  0  0
 40 42  1  0  0  0  0
 40 13  1  0  0  0  0
 42 41  1  0  0  0  0
 43 46  1  0  0  0  0
 44 43  1  0  0  0  0
 44 42  1  0  0  0  0
 45 43  1  0  0  0  0
 46 41  1  0  0  0  0
 47 48  1  0  0  0  0
 48 49  1  0  0  0  0
 49 51  1  0  0  0  0
 49 50  1  0  0  0  0
 51 50  1  0  0  0  0
 52 53  1  0  0  0  0
 53 58  1  0  0  0  0
 55 57  1  0  0  0  0
 56 60  2  0  0  0  0
 57 61  1  0  0  0  0
 57 54  1  0  0  0  0
 58 55  1  0  0  0  0
 58 60  1  0  0  0  0
 59 54  1  0  0  0  0
 60 59  1  0  0  0  0
 61 62  1  0  0  0  0
M  END
>  <MODEL>
7

>  <REMARK>
 VINA RESULT:      -4.4      2.551     10.472
  Name = 
  17 active torsions:
  status: ('A' for Active; 'I' for Inactive)
    1  A    between atoms: O_2  and  C_28
    2  A    between atoms: C_7  and  C_45
    3  A    between atoms: C_7  and  C_57
    4  A    between atoms: C_13  and  C_21
    5  A    between atoms: O_14  and  C_21
    6  A    between atoms: O_14  and  C_34
    7  A    between atoms: O_15  and  C_23
    8  A    between atoms: O_15  and  C_54
    9  A    between atoms: C_17  and  C_24
   10  A    between atoms: C_17  and  C_50
   11  A    between atoms: N_20  and  C_53
   12  A    between atoms: C_29  and  N_43
   13  A    between atoms: O_32  and  N_43
   14  A    between atoms: O_32  and  C_61
   15  A    between atoms: C_33  and  C_50
   16  A    between atoms: O_37  and  C_48
   17  A    between atoms: C_46  and  C_57
                            x       y       z     vdW  Elec       q    Type
                         _______ _______ _______ _____ _____    ______ ____

>  <TORSDO>
F 17

$$$$
=
 OpenBabel11062416393D

 62 68  0  0  1  0  0  0  0  0999 V2000
  189.1650  175.3390  137.9040 N   0  0  0  0  0  0  0  0  0  0  0  0
  190.5900  175.3290  138.1860 C   0  0  0  0  0  2  0  0  0  0  0  0
  188.3210  176.1250  138.5140 C   0  0  0  0  0  0  0  0  0  0  0  0
  188.4120  178.8160  142.0080 C   0  0  0  0  0  3  0  0  0  0  0  0
  188.0000  178.3990  139.5600 C   0  0  0  0  0  2  0  0  0  0  0  0
  186.9300  176.0720  138.1670 N   0  0  0  0  0  2  0  0  0  0  0  0
  190.8260  178.1560  141.9440 C   0  0  0  0  0  2  0  0  0  0  0  0
  190.9810  177.0380  140.9000 C   0  0  2  0  0  3  0  0  0  0  0  0
  190.3210  177.3900  139.5620 C   0  0  2  0  0  3  0  0  0  0  0  0
  188.4490  179.4000  140.6270 C   0  0  0  0  0  2  0  0  0  0  0  0
  189.4630  178.2350  142.6020 C   0  0  0  0  0  0  0  0  0  0  0  0
  188.7960  177.0950  139.5870 C   0  0  2  0  0  3  0  0  0  0  0  0
  191.0390  176.7620  138.3610 C   0  0  1  0  0  3  0  0  0  0  0  0
  185.2480  175.2660  136.6710 C   0  0  0  0  0  0  0  0  0  0  0  0
  184.0450  174.7610  136.5510 C   0  0  0  0  0  3  0  0  0  0  0  0
  186.4410  175.7660  136.8570 C   0  0  0  0  0  3  0  0  0  0  0  0
  183.0180  175.3510  135.6710 C   0  0  0  0  0  0  0  0  0  0  0  0
  183.3520  175.9270  134.5990 O   0  0  0  0  0  0  0  0  0  0  0  0
  181.5580  175.2800  136.0230 C   0  0  2  0  0  3  0  0  0  0  0  0
  180.6480  175.9500  135.0030 C   0  0  0  0  0  1  0  0  0  0  0  0
  181.1780  174.8650  138.3340 O   0  0  0  0  0  0  0  0  0  0  0  0
  181.2900  175.7350  137.4280 C   0  0  0  0  0  0  0  0  0  0  0  0
  181.1680  177.1340  137.7610 N   0  0  0  0  0  0  0  0  0  0  0  0
  182.0360  178.0350  139.8980 C   0  0  0  0  0  3  0  0  0  0  0  0
  184.3940  178.8270  138.6230 C   0  0  0  0  0  3  0  0  0  0  0  0
  182.1980  177.7860  138.5240 C   0  0  0  0  0  0  0  0  0  0  0  0
  183.0470  178.6720  140.6260 C   0  0  0  0  0  3  0  0  0  0  0  0
  184.2240  179.0670  139.9890 C   0  0  0  0  0  3  0  0  0  0  0  0
  183.3840  178.1910  137.8960 C   0  0  0  0  0  3  0  0  0  0  0  0
  180.1550  177.9100  137.2190 O   0  0  0  0  0  0  0  0  0  0  0  0
  179.8050  180.0800  138.2060 C   0  0  0  0  0  3  0  0  0  0  0  0
  179.8510  181.4740  138.1590 C   0  0  0  0  0  0  0  0  0  0  0  0
  180.3170  182.1200  136.9770 C   0  0  0  0  0  0  0  0  0  0  0  0
  180.7140  181.3300  135.8890 C   0  0  0  0  0  3  0  0  0  0  0  0
  180.6650  179.9360  135.9560 C   0  0  0  0  0  3  0  0  0  0  0  0
  179.3980  182.2070  139.3800 C   0  0  0  0  0  1  0  0  0  0  0  0
  180.2180  179.3040  137.1210 C   0  0  0  0  0  0  0  0  0  0  0  0
  181.5250  184.3040  137.2080 C   0  0  0  0  0  1  0  0  0  0  0  0
  180.4180  183.5060  136.8160 O   0  0  0  0  0  0  0  0  0  0  0  0
  192.4330  176.8330  138.4630 O   0  0  0  0  0  0  0  0  0  0  0  0
  194.0690  175.0730  138.4420 C   0  0  0  0  0  2  0  0  0  0  0  0
  192.9090  175.7430  137.7240 C   0  0  2  0  0  3  0  0  0  0  0  0
  194.9400  176.1790  136.5190 N   0  0  0  0  0  0  0  0  0  0  0  0
  193.4860  176.2380  136.4140 C   0  0  0  0  0  2  0  0  0  0  0  0
  195.4300  175.7530  135.2220 C   0  0  0  0  0  1  0  0  0  0  0  0
  195.2180  175.1080  137.4660 C   0  0  0  0  0  2  0  0  0  0  0  0
  190.5440  175.7970  141.3870 O   0  0  0  0  0  0  0  0  0  0  0  0
  190.5500  175.9220  142.7770 C   0  0  0  0  0  2  0  0  0  0  0  0
  191.7310  175.1600  143.3380 C   0  0  0  0  0  3  0  0  0  0  0  0
  191.3030  174.4640  144.6110 C   0  0  0  0  0  2  0  0  0  0  0  0
  192.1070  175.7430  144.6860 C   0  0  0  0  0  2  0  0  0  0  0  0
  189.2920  177.7550  144.0150 C   0  0  0  0  0  2  0  0  0  0  0  0
  188.1720  178.4920  144.7310 C   0  0  0  0  0  2  0  0  0  0  0  0
  184.9000  178.5970  146.8200 C   0  0  0  0  0  2  0  0  0  0  0  0
  186.9010  177.0670  146.4180 C   0  0  0  0  0  2  0  0  0  0  0  0
  185.1800  177.9010  143.4830 O   0  0  0  0  0  0  0  0  0  0  0  0
  186.2330  178.0720  147.3670 C   0  0  1  0  0  3  0  0  0  0  0  0
  186.9880  177.5540  144.9630 C   0  0  1  0  0  3  0  0  0  0  0  0
  185.0610  179.2100  145.4320 C   0  0  0  0  0  2  0  0  0  0  0  0
  185.7040  178.2020  144.5390 C   0  0  0  0  0  0  0  0  0  0  0  0
  187.0880  179.1350  147.6660 O   0  0  0  0  0  0  0  0  0  0  0  0
  188.0870  178.5770  148.3190 O   0  0  0  0  0  1  0  0  0  0  0  0
  1  2  1  0  0  0  0
  1  3  2  0  0  0  0
  2 13  1  0  0  0  0
  3 12  1  0  0  0  0
  4 11  2  0  0  0  0
  5 12  1  0  0  0  0
  5 10  1  0  0  0  0
  6  3  1  0  0  0  0
  7 11  1  0  0  0  0
  8 47  1  1  0  0  0
  8  7  1  0  0  0  0
  9 12  1  0  0  0  0
  9  8  1  0  0  0  0
 10  4  1  0  0  0  0
 11 52  1  0  0  0  0
 13 40  1  0  0  0  0
 13  9  1  0  0  0  0
 14 16  2  0  0  0  0
 15 14  2  0  0  0  0
 16  6  1  0  0  0  0
 17 19  1  0  0  0  0
 17 15  1  0  0  0  0
 18 17  2  0  0  0  0
 19 22  1  0  0  0  0
 20 19  1  0  0  0  0
 22 23  1  0  0  0  0
 22 21  2  0  0  0  0
 23 26  1  0  0  0  0
 24 27  1  0  0  0  0
 25 28  1  0  0  0  0
 26 24  2  0  0  0  0
 28 27  2  0  0  0  0
 29 26  1  0  0  0  0
 29 25  2  0  0  0  0
 30 23  1  0  0  0  0
 32 31  1  0  0  0  0
 32 36  1  0  0  0  0
 33 32  2  0  0  0  0
 34 35  2  0  0  0  0
 34 33  1  0  0  0  0
 35 37  1  0  0  0  0
 37 30  1  0  0  0  0
 37 31  2  0  0  0  0
 39 33  1  0  0  0  0
 39 38  1  0  0  0  0
 42 41  1  0  0  0  0
 42 40  1  0  0  0  0
 43 46  1  0  0  0  0
 44 43  1  0  0  0  0
 44 42  1  0  0  0  0
 45 43  1  0  0  0  0
 46 41  1  0  0  0  0
 47 48  1  0  0  0  0
 48 49  1  0  0  0  0
 49 50  1  0  0  0  0
 49 51  1  0  0  0  0
 50 51  1  0  0  0  0
 52 53  1  0  0  0  0
 53 58  1  0  0  0  0
 54 57  1  0  0  0  0
 55 57  1  0  0  0  0
 56 60  2  0  0  0  0
 57 61  1  0  0  0  0
 58 55  1  0  0  0  0
 59 54  1  0  0  0  0
 60 58  1  0  0  0  0
 60 59  1  0  0  0  0
 61 62  1  0  0  0  0
M  END
>  <MODEL>
8

>  <REMARK>
 VINA RESULT:      -4.0      2.643     10.602
  Name = 
  17 active torsions:
  status: ('A' for Active; 'I' for Inactive)
    1  A    between atoms: O_2  and  C_28
    2  A    between atoms: C_7  and  C_45
    3  A    between atoms: C_7  and  C_57
    4  A    between atoms: C_13  and  C_21
    5  A    between atoms: O_14  and  C_21
    6  A    between atoms: O_14  and  C_34
    7  A    between atoms: O_15  and  C_23
    8  A    between atoms: O_15  and  C_54
    9  A    between atoms: C_17  and  C_24
   10  A    between atoms: C_17  and  C_50
   11  A    between atoms: N_20  and  C_53
   12  A    between atoms: C_29  and  N_43
   13  A    between atoms: O_32  and  N_43
   14  A    between atoms: O_32  and  C_61
   15  A    between atoms: C_33  and  C_50
   16  A    between atoms: O_37  and  C_48
   17  A    between atoms: C_46  and  C_57
                            x       y       z     vdW  Elec       q    Type
                         _______ _______ _______ _____ _____    ______ ____

>  <TORSDO>
F 17

$$$$
