=
 OpenBabel11062412243D

 37 39  0  0  1  0  0  0  0  0999 V2000
  189.1870  177.6840  144.5160 C   0  0  0  0  0  2  0  0  0  0  0  0
  186.3610  177.9790  142.9630 N   0  0  0  0  0  0  0  0  0  0  0  0
  188.1200  177.6590  140.7910 C   0  0  0  0  0  3  0  0  0  0  0  0
  189.1830  176.8090  138.7980 C   0  0  0  0  0  3  0  0  0  0  0  0
  190.2710  176.3810  141.0000 C   0  0  0  0  0  2  0  0  0  0  0  0
  191.2650  177.4270  141.3980 C   0  0  0  0  0  0  0  0  0  0  0  0
  187.1020  178.0380  138.6250 C   0  0  0  0  0  0  0  0  0  0  0  0
  185.9840  178.9730  140.7000 C   0  0  0  0  0  0  0  0  0  0  0  0
  191.7780  178.1490  140.5560 O   0  0  0  0  0  0  0  0  0  0  0  0
  188.1650  177.3550  138.0110 C   0  0  0  0  0  0  0  0  0  0  0  0
  186.0590  177.9450  144.3580 C   0  0  0  0  0  0  0  0  0  0  0  0
  185.1740  178.7430  144.8550 N   0  0  0  0  0  2  0  0  0  0  0  0
  185.7110  178.8750  142.1030 N   0  0  0  0  0  0  0  0  0  0  0  0
  186.8870  177.1050  145.2710 C   0  0  0  0  0  2  0  0  0  0  0  0
  191.6800  177.5290  142.8260 C   0  0  0  0  0  2  0  0  0  0  0  0
  185.2710  179.7560  140.0190 O   0  0  0  0  0  0  0  0  0  0  0  0
  189.1640  176.9580  140.1830 C   0  0  0  0  0  0  0  0  0  0  0  0
  188.1730  177.8260  145.6380 C   0  0  0  0  0  2  0  0  0  0  0  0
  187.0730  178.2040  140.0310 C   0  0  0  0  0  0  0  0  0  0  0  0
  190.4070  178.5670  144.7550 C   0  0  2  0  0  3  0  0  0  0  0  0
  186.0800  178.5450  137.8260 O   0  0  0  0  0  1  0  0  0  0  0  0
  191.1420  178.8170  143.4410 C   0  0  0  0  0  2  0  0  0  0  0  0
  188.1710  177.1930  136.5870 N   0  0  0  0  0  2  0  0  0  0  0  0
  187.2820  176.3540  135.8370 C   0  0  0  0  0  0  0  0  0  0  0  0
  186.5490  176.8890  134.9620 O   0  0  0  0  0  0  0  0  0  0  0  0
  188.3810  174.4450  136.7110 O   0  0  0  0  0  1  0  0  0  0  0  0
  187.2420  174.1650  134.6650 C   0  0  0  0  0  1  0  0  0  0  0  0
  187.2310  174.8490  136.0240 C   0  0  2  0  0  0  0  0  0  0  0  0
  186.0040  174.3900  136.8390 C   0  0  0  0  0  0  0  0  0  0  0  0
  185.0360  173.8350  136.0210 F   0  0  0  0  0  0  0  0  0  0  0  0
  186.3870  173.4350  137.7650 F   0  0  0  0  0  0  0  0  0  0  0  0
  185.4570  175.4640  137.5190 F   0  0  0  0  0  0  0  0  0  0  0  0
  191.3460  177.9650  145.7950 C   0  0  0  0  0  2  0  0  0  0  0  0
  191.0910  176.4780  145.9490 C   0  0  0  0  0  2  0  0  0  0  0  0
  192.1790  176.8800  148.0220 O   0  0  0  0  0  0  0  0  0  0  0  0
  191.1820  176.0980  147.4120 C   0  0  2  0  0  3  0  0  0  0  0  0
  192.5240  175.5550  147.7070 C   0  0  0  0  0  2  0  0  0  0  0  0
  1 20  1  0  0  0  0
  1 18  1  0  0  0  0
  2 11  1  0  0  0  0
  4 17  2  0  0  0  0
  5  6  1  0  0  0  0
  6 15  1  0  0  0  0
  7 19  1  0  0  0  0
  8 13  1  0  0  0  0
  9  6  2  0  0  0  0
 10  7  2  0  0  0  0
 10  4  1  0  0  0  0
 11 12  2  0  0  0  0
 11 14  1  0  0  0  0
 13  2  2  0  0  0  0
 14 18  1  0  0  0  0
 15 22  1  0  0  0  0
 16  8  2  0  0  0  0
 17  3  1  0  0  0  0
 17  5  1  0  0  0  0
 19  8  1  0  0  0  0
 19  3  2  0  0  0  0
 20 33  1  1  0  0  0
 21  7  1  0  0  0  0
 22 20  1  0  0  0  0
 23 10  1  0  0  0  0
 24 28  1  0  0  0  0
 24 23  1  0  0  0  0
 25 24  2  0  0  0  0
 28 27  1  6  0  0  0
 28 26  1  0  0  0  0
 28 29  1  0  0  0  0
 29 32  1  0  0  0  0
 29 31  1  0  0  0  0
 30 29  1  0  0  0  0
 33 34  1  0  0  0  0
 36 34  1  6  0  0  0
 36 37  1  0  0  0  0
 36 35  1  0  0  0  0
 37 35  1  0  0  0  0
M  END
>  <MODEL>
1

>  <REMARK>
 VINA RESULT:      -8.5      0.000      0.000
  Name = 
  6 active torsions:
  status: ('A' for Active; 'I' for Inactive)
    1  A    between atoms: C_2  and  C_27
    2  A    between atoms: C_2  and  C_31
    3  A    between atoms: C_5  and  C_15
    4  A    between atoms: N_14  and  C_17
    5  A    between atoms: C_15  and  C_30
    6  A    between atoms: C_31  and  C_33
                            x       y       z     vdW  Elec       q    Type
                         _______ _______ _______ _____ _____    ______ ____

>  <TORSDO>
F 6

$$$$
=
 OpenBabel11062412243D

 37 39  0  0  1  0  0  0  0  0999 V2000
  189.0740  178.0250  143.9050 C   0  0  0  0  0  2  0  0  0  0  0  0
  189.6000  177.9330  140.7110 N   0  0  0  0  0  0  0  0  0  0  0  0
  186.8320  178.4290  140.7710 C   0  0  0  0  0  3  0  0  0  0  0  0
  184.6700  179.4490  140.4350 C   0  0  0  0  0  3  0  0  0  0  0  0
  185.7400  179.6420  142.6790 C   0  0  0  0  0  2  0  0  0  0  0  0
  185.3640  178.5450  143.6250 C   0  0  0  0  0  0  0  0  0  0  0  0
  185.7490  178.2800  138.6080 C   0  0  0  0  0  0  0  0  0  0  0  0
  188.0030  177.1700  138.9440 C   0  0  0  0  0  0  0  0  0  0  0  0
  184.3420  177.8990  143.4540 O   0  0  0  0  0  0  0  0  0  0  0  0
  184.6530  179.0000  139.1110 C   0  0  0  0  0  0  0  0  0  0  0  0
  190.8780  177.8370  141.3390 C   0  0  0  0  0  0  0  0  0  0  0  0
  191.7650  177.0100  140.8940 N   0  0  0  0  0  2  0  0  0  0  0  0
  189.2750  177.1360  139.6050 N   0  0  0  0  0  0  0  0  0  0  0  0
  191.1310  178.5700  142.6130 C   0  0  0  0  0  2  0  0  0  0  0  0
  186.2140  178.2980  144.8240 C   0  0  0  0  0  2  0  0  0  0  0  0
  187.8650  176.4690  137.9080 O   0  0  0  0  0  0  0  0  0  0  0  0
  185.7530  179.1680  141.2650 C   0  0  0  0  0  0  0  0  0  0  0  0
  190.5710  177.7930  143.7930 C   0  0  0  0  0  2  0  0  0  0  0  0
  186.8540  177.9800  139.4420 C   0  0  0  0  0  0  0  0  0  0  0  0
  188.4440  177.1010  144.9430 C   0  0  2  0  0  3  0  0  0  0  0  0
  185.7280  177.8720  137.2770 O   0  0  0  0  0  1  0  0  0  0  0  0
  186.9450  176.9660  144.6880 C   0  0  0  0  0  2  0  0  0  0  0  0
  183.5480  179.2990  138.2490 N   0  0  0  0  0  2  0  0  0  0  0  0
  182.1840  178.9190  138.4750 C   0  0  0  0  0  0  0  0  0  0  0  0
  181.3160  179.8280  138.5650 O   0  0  0  0  0  0  0  0  0  0  0  0
  182.5510  176.7080  137.7050 O   0  0  0  0  0  1  0  0  0  0  0  0
  180.3100  177.3400  138.0750 C   0  0  0  0  0  1  0  0  0  0  0  0
  181.7460  177.4680  138.5600 C   0  0  2  0  0  0  0  0  0  0  0  0
  181.8800  176.8860  139.9830 C   0  0  0  0  0  0  0  0  0  0  0  0
  181.7900  177.8790  140.9420 F   0  0  0  0  0  0  0  0  0  0  0  0
  180.8670  175.9700  140.2110 F   0  0  0  0  0  0  0  0  0  0  0  0
  183.0950  176.2390  140.1180 F   0  0  0  0  0  0  0  0  0  0  0  0
  188.7110  177.5820  146.3650 C   0  0  0  0  0  2  0  0  0  0  0  0
  189.5640  176.5800  147.1180 C   0  0  0  0  0  2  0  0  0  0  0  0
  191.8350  176.7750  146.4490 O   0  0  0  0  0  0  0  0  0  0  0  0
  190.9130  177.1930  147.4270 C   0  0  2  0  0  3  0  0  0  0  0  0
  191.9010  176.1260  147.6940 C   0  0  0  0  0  2  0  0  0  0  0  0
  1 20  1  0  0  0  0
  2 11  1  0  0  0  0
  3 17  1  0  0  0  0
  4 17  2  0  0  0  0
  5  6  1  0  0  0  0
  6 15  1  0  0  0  0
  7 10  2  0  0  0  0
  7 19  1  0  0  0  0
  8 19  1  0  0  0  0
  8 13  1  0  0  0  0
  9  6  2  0  0  0  0
 10  4  1  0  0  0  0
 11 14  1  0  0  0  0
 12 11  2  0  0  0  0
 13  2  2  0  0  0  0
 14 18  1  0  0  0  0
 16  8  2  0  0  0  0
 17  5  1  0  0  0  0
 18  1  1  0  0  0  0
 19  3  2  0  0  0  0
 20 33  1  1  0  0  0
 21  7  1  0  0  0  0
 22 15  1  0  0  0  0
 22 20  1  0  0  0  0
 23 24  1  0  0  0  0
 23 10  1  0  0  0  0
 24 28  1  0  0  0  0
 24 25  2  0  0  0  0
 26 28  1  0  0  0  0
 28 27  1  6  0  0  0
 28 29  1  0  0  0  0
 29 32  1  0  0  0  0
 29 31  1  0  0  0  0
 29 30  1  0  0  0  0
 33 34  1  0  0  0  0
 35 36  1  0  0  0  0
 35 37  1  0  0  0  0
 36 34  1  6  0  0  0
 36 37  1  0  0  0  0
M  END
>  <MODEL>
2

>  <REMARK>
 VINA RESULT:      -8.4      3.046      4.928
  Name = 
  6 active torsions:
  status: ('A' for Active; 'I' for Inactive)
    1  A    between atoms: C_2  and  C_27
    2  A    between atoms: C_2  and  C_31
    3  A    between atoms: C_5  and  C_15
    4  A    between atoms: N_14  and  C_17
    5  A    between atoms: C_15  and  C_30
    6  A    between atoms: C_31  and  C_33
                            x       y       z     vdW  Elec       q    Type
                         _______ _______ _______ _____ _____    ______ ____

>  <TORSDO>
F 6

$$$$
=
 OpenBabel11062412243D

 37 39  0  0  1  0  0  0  0  0999 V2000
  189.2100  178.0910  144.1340 C   0  0  0  0  0  2  0  0  0  0  0  0
  189.8090  177.9870  140.9530 N   0  0  0  0  0  0  0  0  0  0  0  0
  187.0310  178.4300  140.9480 C   0  0  0  0  0  3  0  0  0  0  0  0
  184.8580  179.4050  140.5570 C   0  0  0  0  0  3  0  0  0  0  0  0
  185.8730  179.6340  142.8230 C   0  0  0  0  0  2  0  0  0  0  0  0
  185.4980  178.5360  143.7680 C   0  0  0  0  0  0  0  0  0  0  0  0
  185.9990  178.2450  138.7630 C   0  0  0  0  0  0  0  0  0  0  0  0
  188.2670  177.1810  139.1570 C   0  0  0  0  0  0  0  0  0  0  0  0
  184.4920  177.8690  143.5790 O   0  0  0  0  0  0  0  0  0  0  0  0
  184.8790  178.9470  139.2370 C   0  0  0  0  0  0  0  0  0  0  0  0
  191.0740  177.9210  141.6100 C   0  0  0  0  0  0  0  0  0  0  0  0
  191.9870  177.1090  141.1900 N   0  0  0  0  0  2  0  0  0  0  0  0
  189.5240  177.1770  139.8460 N   0  0  0  0  0  0  0  0  0  0  0  0
  191.2840  178.6670  142.8840 C   0  0  0  0  0  2  0  0  0  0  0  0
  186.3260  178.3140  144.9880 C   0  0  0  0  0  2  0  0  0  0  0  0
  188.1650  176.4710  138.1230 O   0  0  0  0  0  0  0  0  0  0  0  0
  185.9270  179.1500  141.4130 C   0  0  0  0  0  0  0  0  0  0  0  0
  190.7130  177.8880  144.0570 C   0  0  0  0  0  2  0  0  0  0  0  0
  187.0910  177.9720  139.6230 C   0  0  0  0  0  0  0  0  0  0  0  0
  188.5760  177.1620  145.1640 C   0  0  2  0  0  3  0  0  0  0  0  0
  186.0170  177.8270  137.4350 O   0  0  0  0  0  1  0  0  0  0  0  0
  187.0850  176.9960  144.8770 C   0  0  0  0  0  2  0  0  0  0  0  0
  183.7880  179.2180  138.3470 N   0  0  0  0  0  2  0  0  0  0  0  0
  182.4400  178.7570  138.5120 C   0  0  0  0  0  0  0  0  0  0  0  0
  181.5210  179.6140  138.6050 O   0  0  0  0  0  0  0  0  0  0  0  0
  180.6880  177.1610  138.4780 O   0  0  0  0  0  1  0  0  0  0  0  0
  182.5490  176.6590  139.8360 C   0  0  0  0  0  1  0  0  0  0  0  0
  182.0810  177.2820  138.5300 C   0  0  2  0  0  0  0  0  0  0  0  0
  182.6720  176.5100  137.3320 C   0  0  0  0  0  0  0  0  0  0  0  0
  181.8030  175.5300  136.8870 F   0  0  0  0  0  0  0  0  0  0  0  0
  182.9120  177.3830  136.2850 F   0  0  0  0  0  0  0  0  0  0  0  0
  183.8700  175.9190  137.6930 F   0  0  0  0  0  0  0  0  0  0  0  0
  188.8010  177.6580  146.5880 C   0  0  0  0  0  2  0  0  0  0  0  0
  189.5640  176.6280  147.3990 C   0  0  0  0  0  2  0  0  0  0  0  0
  191.7820  176.8130  146.5660 O   0  0  0  0  0  0  0  0  0  0  0  0
  190.9660  177.1330  147.6670 C   0  0  2  0  0  3  0  0  0  0  0  0
  191.9110  175.9980  147.7030 C   0  0  0  0  0  2  0  0  0  0  0  0
  1 20  1  0  0  0  0
  2 11  1  0  0  0  0
  3 17  1  0  0  0  0
  4 17  2  0  0  0  0
  5  6  1  0  0  0  0
  6 15  1  0  0  0  0
  7 10  2  0  0  0  0
  7 19  1  0  0  0  0
  8 19  1  0  0  0  0
  8 13  1  0  0  0  0
  9  6  2  0  0  0  0
 10  4  1  0  0  0  0
 11 14  1  0  0  0  0
 12 11  2  0  0  0  0
 13  2  2  0  0  0  0
 14 18  1  0  0  0  0
 16  8  2  0  0  0  0
 17  5  1  0  0  0  0
 18  1  1  0  0  0  0
 19  3  2  0  0  0  0
 20 33  1  1  0  0  0
 21  7  1  0  0  0  0
 22 15  1  0  0  0  0
 22 20  1  0  0  0  0
 23 24  1  0  0  0  0
 23 10  1  0  0  0  0
 24 28  1  0  0  0  0
 24 25  2  0  0  0  0
 26 28  1  0  0  0  0
 28 27  1  1  0  0  0
 29 32  1  0  0  0  0
 29 28  1  0  0  0  0
 30 29  1  0  0  0  0
 31 29  1  0  0  0  0
 33 34  1  0  0  0  0
 35 36  1  0  0  0  0
 35 37  1  0  0  0  0
 36 34  1  6  0  0  0
 36 37  1  0  0  0  0
M  END
>  <MODEL>
3

>  <REMARK>
 VINA RESULT:      -7.9      2.754      4.694
  Name = 
  6 active torsions:
  status: ('A' for Active; 'I' for Inactive)
    1  A    between atoms: C_2  and  C_27
    2  A    between atoms: C_2  and  C_31
    3  A    between atoms: C_5  and  C_15
    4  A    between atoms: N_14  and  C_17
    5  A    between atoms: C_15  and  C_30
    6  A    between atoms: C_31  and  C_33
                            x       y       z     vdW  Elec       q    Type
                         _______ _______ _______ _____ _____    ______ ____

>  <TORSDO>
F 6

$$$$
=
 OpenBabel11062412243D

 37 39  0  0  1  0  0  0  0  0999 V2000
  189.2660  177.5230  142.4190 C   0  0  0  0  0  2  0  0  0  0  0  0
  189.1070  177.2460  139.1970 N   0  0  0  0  0  0  0  0  0  0  0  0
  186.4660  178.0120  139.7860 C   0  0  0  0  0  3  0  0  0  0  0  0
  184.3780  179.2220  139.8340 C   0  0  0  0  0  3  0  0  0  0  0  0
  185.9030  179.4050  141.7980 C   0  0  0  0  0  2  0  0  0  0  0  0
  185.6390  178.3900  142.8660 C   0  0  0  0  0  0  0  0  0  0  0  0
  184.9480  177.8780  137.9010 C   0  0  0  0  0  0  0  0  0  0  0  0
  187.1180  176.5690  137.8410 C   0  0  0  0  0  0  0  0  0  0  0  0
  184.5510  177.8400  142.9460 O   0  0  0  0  0  0  0  0  0  0  0  0
  184.0480  178.7220  138.5720 C   0  0  0  0  0  0  0  0  0  0  0  0
  190.4750  177.0520  139.5570 C   0  0  0  0  0  0  0  0  0  0  0  0
  191.1750  176.1250  138.9920 N   0  0  0  0  0  2  0  0  0  0  0  0
  188.4920  176.4390  138.2300 N   0  0  0  0  0  0  0  0  0  0  0  0
  191.0490  177.8100  140.7060 C   0  0  0  0  0  2  0  0  0  0  0  0
  186.6950  178.1120  143.8810 C   0  0  0  0  0  2  0  0  0  0  0  0
  186.7070  175.8410  136.8990 O   0  0  0  0  0  0  0  0  0  0  0  0
  185.5810  178.8720  140.4430 C   0  0  0  0  0  0  0  0  0  0  0  0
  190.6810  177.1420  142.0210 C   0  0  0  0  0  2  0  0  0  0  0  0
  186.1720  177.5070  138.5100 C   0  0  0  0  0  0  0  0  0  0  0  0
  188.7880  176.7100  143.6170 C   0  0  2  0  0  3  0  0  0  0  0  0
  184.6170  177.4180  136.6300 O   0  0  0  0  0  1  0  0  0  0  0  0
  187.2630  176.7110  143.6810 C   0  0  0  0  0  2  0  0  0  0  0  0
  182.8180  179.0910  137.9340 N   0  0  0  0  0  2  0  0  0  0  0  0
  181.5030  178.7560  138.3980 C   0  0  0  0  0  0  0  0  0  0  0  0
  180.7060  179.6940  138.6680 O   0  0  0  0  0  0  0  0  0  0  0  0
  181.5360  176.5830  137.4520 O   0  0  0  0  0  1  0  0  0  0  0  0
  179.5080  177.2790  138.4340 C   0  0  0  0  0  1  0  0  0  0  0  0
  181.0260  177.3210  138.5250 C   0  0  2  0  0  0  0  0  0  0  0  0
  181.4970  176.6490  139.8320 C   0  0  0  0  0  0  0  0  0  0  0  0
  180.5940  175.6920  140.2600 F   0  0  0  0  0  0  0  0  0  0  0  0
  182.7180  176.0310  139.6260 F   0  0  0  0  0  0  0  0  0  0  0  0
  181.6490  177.6000  140.8260 F   0  0  0  0  0  0  0  0  0  0  0  0
  189.3850  177.2220  144.9240 C   0  0  0  0  0  2  0  0  0  0  0  0
  190.7140  176.5470  145.2060 C   0  0  0  0  0  2  0  0  0  0  0  0
  192.1050  177.0250  147.0710 O   0  0  0  0  0  0  0  0  0  0  0  0
  190.9000  176.4010  146.7020 C   0  0  2  0  0  3  0  0  0  0  0  0
  192.1240  175.6230  146.9820 C   0  0  0  0  0  2  0  0  0  0  0  0
  1 20  1  0  0  0  0
  2 11  1  0  0  0  0
  3 17  1  0  0  0  0
  4 17  2  0  0  0  0
  5  6  1  0  0  0  0
  6  9  2  0  0  0  0
  6 15  1  0  0  0  0
  7 19  1  0  0  0  0
  7 10  2  0  0  0  0
  8 13  1  0  0  0  0
  8 19  1  0  0  0  0
 10  4  1  0  0  0  0
 11 14  1  0  0  0  0
 12 11  2  0  0  0  0
 13  2  2  0  0  0  0
 14 18  1  0  0  0  0
 16  8  2  0  0  0  0
 17  5  1  0  0  0  0
 18  1  1  0  0  0  0
 19  3  2  0  0  0  0
 20 22  1  0  0  0  0
 20 33  1  1  0  0  0
 21  7  1  0  0  0  0
 22 15  1  0  0  0  0
 23 24  1  0  0  0  0
 23 10  1  0  0  0  0
 24 28  1  0  0  0  0
 24 25  2  0  0  0  0
 26 28  1  0  0  0  0
 28 27  1  6  0  0  0
 28 29  1  0  0  0  0
 29 30  1  0  0  0  0
 29 32  1  0  0  0  0
 31 29  1  0  0  0  0
 33 34  1  0  0  0  0
 36 34  1  6  0  0  0
 36 37  1  0  0  0  0
 36 35  1  0  0  0  0
 37 35  1  0  0  0  0
M  END
>  <MODEL>
4

>  <REMARK>
 VINA RESULT:      -7.9      3.165      5.184
  Name = 
  6 active torsions:
  status: ('A' for Active; 'I' for Inactive)
    1  A    between atoms: C_2  and  C_27
    2  A    between atoms: C_2  and  C_31
    3  A    between atoms: C_5  and  C_15
    4  A    between atoms: N_14  and  C_17
    5  A    between atoms: C_15  and  C_30
    6  A    between atoms: C_31  and  C_33
                            x       y       z     vdW  Elec       q    Type
                         _______ _______ _______ _____ _____    ______ ____

>  <TORSDO>
F 6

$$$$
=
 OpenBabel11062412243D

 37 39  0  0  1  0  0  0  0  0999 V2000
  189.1800  177.6550  144.5290 C   0  0  0  0  0  2  0  0  0  0  0  0
  186.3540  177.9340  142.9730 N   0  0  0  0  0  0  0  0  0  0  0  0
  188.1250  177.6900  140.8010 C   0  0  0  0  0  3  0  0  0  0  0  0
  189.2090  176.9010  138.7940 C   0  0  0  0  0  3  0  0  0  0  0  0
  190.2980  176.4450  140.9900 C   0  0  0  0  0  2  0  0  0  0  0  0
  191.2720  177.4990  141.4130 C   0  0  0  0  0  0  0  0  0  0  0  0
  187.1080  178.0970  138.6390 C   0  0  0  0  0  0  0  0  0  0  0  0
  185.9680  178.9680  140.7290 C   0  0  0  0  0  0  0  0  0  0  0  0
  191.7760  178.2480  140.5880 O   0  0  0  0  0  0  0  0  0  0  0  0
  188.1840  177.4460  138.0150 C   0  0  0  0  0  0  0  0  0  0  0  0
  186.0500  177.8650  144.3650 C   0  0  0  0  0  0  0  0  0  0  0  0
  185.1490  178.6370  144.8760 N   0  0  0  0  0  2  0  0  0  0  0  0
  185.6920  178.8360  142.1300 N   0  0  0  0  0  0  0  0  0  0  0  0
  186.8880  177.0200  145.2630 C   0  0  0  0  0  2  0  0  0  0  0  0
  191.6810  177.5790  142.8440 C   0  0  0  0  0  2  0  0  0  0  0  0
  185.2440  179.7530  140.0630 O   0  0  0  0  0  0  0  0  0  0  0  0
  189.1830  177.0200  140.1810 C   0  0  0  0  0  0  0  0  0  0  0  0
  188.1610  177.7550  145.6500 C   0  0  0  0  0  2  0  0  0  0  0  0
  187.0720  178.2320  140.0480 C   0  0  0  0  0  0  0  0  0  0  0  0
  190.3850  178.5540  144.7900 C   0  0  2  0  0  3  0  0  0  0  0  0
  186.0800  178.6030  137.8480 O   0  0  0  0  0  1  0  0  0  0  0  0
  191.1190  178.8440  143.4840 C   0  0  0  0  0  2  0  0  0  0  0  0
  188.1980  177.3140  136.5870 N   0  0  0  0  0  2  0  0  0  0  0  0
  188.3180  176.0820  135.8620 C   0  0  0  0  0  0  0  0  0  0  0  0
  187.3890  175.7570  135.0750 O   0  0  0  0  0  0  0  0  0  0  0  0
  189.4490  174.1850  135.0040 O   0  0  0  0  0  1  0  0  0  0  0  0
  189.5570  174.5140  137.3360 C   0  0  0  0  0  1  0  0  0  0  0  0
  189.5410  175.1890  135.9730 C   0  0  2  0  0  0  0  0  0  0  0  0
  190.8610  175.9540  135.7440 C   0  0  0  0  0  0  0  0  0  0  0  0
  191.3070  176.5480  136.9110 F   0  0  0  0  0  0  0  0  0  0  0  0
  191.8380  175.0770  135.3040 F   0  0  0  0  0  0  0  0  0  0  0  0
  190.6830  176.9310  134.7810 F   0  0  0  0  0  0  0  0  0  0  0  0
  191.3310  177.9460  145.8200 C   0  0  0  0  0  2  0  0  0  0  0  0
  191.1460  176.4420  145.8950 C   0  0  0  0  0  2  0  0  0  0  0  0
  192.1400  176.7060  148.0370 O   0  0  0  0  0  0  0  0  0  0  0  0
  191.1350  176.0050  147.3450 C   0  0  2  0  0  3  0  0  0  0  0  0
  192.4270  175.3750  147.6890 C   0  0  0  0  0  2  0  0  0  0  0  0
  1 20  1  0  0  0  0
  1 18  1  0  0  0  0
  2 11  1  0  0  0  0
  4 17  2  0  0  0  0
  5  6  1  0  0  0  0
  6 15  1  0  0  0  0
  7 19  1  0  0  0  0
  8 13  1  0  0  0  0
  9  6  2  0  0  0  0
 10  7  2  0  0  0  0
 10  4  1  0  0  0  0
 11 12  2  0  0  0  0
 11 14  1  0  0  0  0
 13  2  2  0  0  0  0
 14 18  1  0  0  0  0
 15 22  1  0  0  0  0
 16  8  2  0  0  0  0
 17  3  1  0  0  0  0
 17  5  1  0  0  0  0
 19  8  1  0  0  0  0
 19  3  2  0  0  0  0
 20 33  1  1  0  0  0
 21  7  1  0  0  0  0
 22 20  1  0  0  0  0
 23 10  1  0  0  0  0
 24 28  1  0  0  0  0
 24 23  1  0  0  0  0
 25 24  2  0  0  0  0
 26 28  1  0  0  0  0
 28 27  1  1  0  0  0
 29 28  1  0  0  0  0
 29 30  1  0  0  0  0
 31 29  1  0  0  0  0
 32 29  1  0  0  0  0
 33 34  1  0  0  0  0
 36 34  1  6  0  0  0
 36 37  1  0  0  0  0
 36 35  1  0  0  0  0
 37 35  1  0  0  0  0
M  END
>  <MODEL>
5

>  <REMARK>
 VINA RESULT:      -7.6      1.967      2.179
  Name = 
  6 active torsions:
  status: ('A' for Active; 'I' for Inactive)
    1  A    between atoms: C_2  and  C_27
    2  A    between atoms: C_2  and  C_31
    3  A    between atoms: C_5  and  C_15
    4  A    between atoms: N_14  and  C_17
    5  A    between atoms: C_15  and  C_30
    6  A    between atoms: C_31  and  C_33
                            x       y       z     vdW  Elec       q    Type
                         _______ _______ _______ _____ _____    ______ ____

>  <TORSDO>
F 6

$$$$
=
 OpenBabel11062412243D

 37 39  0  0  1  0  0  0  0  0999 V2000
  185.0810  178.8010  144.3740 C   0  0  0  0  0  2  0  0  0  0  0  0
  188.0790  177.6320  144.7310 N   0  0  0  0  0  0  0  0  0  0  0  0
  187.9390  177.8670  141.9310 C   0  0  0  0  0  3  0  0  0  0  0  0
  188.4060  178.5030  139.6500 C   0  0  0  0  0  3  0  0  0  0  0  0
  186.4770  179.5740  140.8120 C   0  0  0  0  0  2  0  0  0  0  0  0
  185.1790  178.8540  140.6190 C   0  0  0  0  0  0  0  0  0  0  0  0
  189.8070  176.8650  140.7550 C   0  0  0  0  0  0  0  0  0  0  0  0
  189.3170  176.1530  143.1390 C   0  0  0  0  0  0  0  0  0  0  0  0
  185.0200  178.0990  139.6710 O   0  0  0  0  0  0  0  0  0  0  0  0
  189.4850  177.6150  139.6130 C   0  0  0  0  0  0  0  0  0  0  0  0
  187.5780  177.8800  146.0440 C   0  0  0  0  0  0  0  0  0  0  0  0
  187.7890  177.0320  146.9950 N   0  0  0  0  0  2  0  0  0  0  0  0
  188.8060  176.4700  144.4410 N   0  0  0  0  0  0  0  0  0  0  0  0
  186.6660  179.0360  146.2790 C   0  0  0  0  0  2  0  0  0  0  0  0
  184.0520  179.1240  141.5570 C   0  0  0  0  0  2  0  0  0  0  0  0
  190.0290  175.1210  143.0260 O   0  0  0  0  0  0  0  0  0  0  0  0
  187.6340  178.6320  140.8020 C   0  0  0  0  0  0  0  0  0  0  0  0
  185.2430  178.6800  145.8790 C   0  0  0  0  0  2  0  0  0  0  0  0
  189.0270  176.9800  141.9320 C   0  0  0  0  0  0  0  0  0  0  0  0
  183.7340  178.2520  143.9140 C   0  0  2  0  0  3  0  0  0  0  0  0
  190.9060  176.0120  140.7100 O   0  0  0  0  0  1  0  0  0  0  0  0
  183.7870  177.9020  142.4290 C   0  0  0  0  0  2  0  0  0  0  0  0
  190.2910  177.4890  138.4350 N   0  0  0  0  0  2  0  0  0  0  0  0
  189.8250  177.0800  137.1420 C   0  0  0  0  0  0  0  0  0  0  0  0
  189.9670  177.8760  136.1740 O   0  0  0  0  0  0  0  0  0  0  0  0
  189.5860  174.8600  137.9360 O   0  0  0  0  0  1  0  0  0  0  0  0
  189.7780  175.1340  135.6020 C   0  0  0  0  0  1  0  0  0  0  0  0
  189.2150  175.7130  136.8910 C   0  0  2  0  0  0  0  0  0  0  0  0
  187.6740  175.7490  136.8280 C   0  0  0  0  0  0  0  0  0  0  0  0
  187.1160  174.7420  137.5950 F   0  0  0  0  0  0  0  0  0  0  0  0
  187.2150  176.9640  137.3090 F   0  0  0  0  0  0  0  0  0  0  0  0
  187.2490  175.6070  135.5190 F   0  0  0  0  0  0  0  0  0  0  0  0
  182.5970  179.2280  144.2010 C   0  0  0  0  0  2  0  0  0  0  0  0
  181.2530  178.5660  143.9680 C   0  0  0  0  0  2  0  0  0  0  0  0
  180.1360  180.5240  143.2180 O   0  0  0  0  0  0  0  0  0  0  0  0
  180.5490  179.2420  142.8100 C   0  0  2  0  0  3  0  0  0  0  0  0
  179.1450  179.5280  143.1730 C   0  0  0  0  0  2  0  0  0  0  0  0
  1 18  1  0  0  0  0
  2 11  1  0  0  0  0
  3 19  1  0  0  0  0
  4 17  1  0  0  0  0
  6  5  1  0  0  0  0
  6 15  1  0  0  0  0
  7 19  2  0  0  0  0
  8 13  1  0  0  0  0
  9  6  2  0  0  0  0
 10  4  2  0  0  0  0
 10  7  1  0  0  0  0
 11 14  1  0  0  0  0
 11 12  2  0  0  0  0
 13  2  2  0  0  0  0
 15 22  1  0  0  0  0
 16  8  2  0  0  0  0
 17  5  1  0  0  0  0
 17  3  2  0  0  0  0
 18 14  1  0  0  0  0
 19  8  1  0  0  0  0
 20 33  1  6  0  0  0
 20  1  1  0  0  0  0
 21  7  1  0  0  0  0
 22 20  1  0  0  0  0
 23 10  1  0  0  0  0
 24 23  1  0  0  0  0
 25 24  2  0  0  0  0
 28 27  1  6  0  0  0
 28 24  1  0  0  0  0
 28 26  1  0  0  0  0
 29 28  1  0  0  0  0
 29 31  1  0  0  0  0
 29 30  1  0  0  0  0
 32 29  1  0  0  0  0
 34 33  1  0  0  0  0
 36 37  1  0  0  0  0
 36 35  1  0  0  0  0
 36 34  1  1  0  0  0
 37 35  1  0  0  0  0
M  END
>  <MODEL>
6

>  <REMARK>
 VINA RESULT:      -7.6      2.928      5.960
  Name = 
  6 active torsions:
  status: ('A' for Active; 'I' for Inactive)
    1  A    between atoms: C_2  and  C_27
    2  A    between atoms: C_2  and  C_31
    3  A    between atoms: C_5  and  C_15
    4  A    between atoms: N_14  and  C_17
    5  A    between atoms: C_15  and  C_30
    6  A    between atoms: C_31  and  C_33
                            x       y       z     vdW  Elec       q    Type
                         _______ _______ _______ _____ _____    ______ ____

>  <TORSDO>
F 6

$$$$
=
 OpenBabel11062412243D

 37 39  0  0  1  0  0  0  0  0999 V2000
  188.7400  178.0460  140.5320 C   0  0  0  0  0  2  0  0  0  0  0  0
  187.1020  177.6780  137.7630 N   0  0  0  0  0  0  0  0  0  0  0  0
  184.9860  178.0640  139.5750 C   0  0  0  0  0  3  0  0  0  0  0  0
  183.0300  178.9570  140.6710 C   0  0  0  0  0  3  0  0  0  0  0  0
  185.2650  179.4030  141.6810 C   0  0  0  0  0  2  0  0  0  0  0  0
  185.6870  178.3840  142.6930 C   0  0  0  0  0  0  0  0  0  0  0  0
  182.7880  177.6680  138.6340 C   0  0  0  0  0  0  0  0  0  0  0  0
  184.8230  176.6890  137.4830 C   0  0  0  0  0  0  0  0  0  0  0  0
  184.8570  177.6830  143.2520 O   0  0  0  0  0  0  0  0  0  0  0  0
  182.2100  178.3860  139.6930 C   0  0  0  0  0  0  0  0  0  0  0  0
  188.4880  177.6950  137.4190 C   0  0  0  0  0  0  0  0  0  0  0  0
  188.9540  176.8680  136.5440 N   0  0  0  0  0  2  0  0  0  0  0  0
  186.2190  176.7700  137.1650 N   0  0  0  0  0  0  0  0  0  0  0  0
  189.4290  178.5530  138.1940 C   0  0  0  0  0  2  0  0  0  0  0  0
  187.1260  178.2850  143.0680 C   0  0  0  0  0  2  0  0  0  0  0  0
  184.1180  175.8890  136.8140 O   0  0  0  0  0  0  0  0  0  0  0  0
  184.4130  178.7990  140.6160 C   0  0  0  0  0  0  0  0  0  0  0  0
  189.8310  177.8680  139.4900 C   0  0  0  0  0  2  0  0  0  0  0  0
  184.1920  177.4940  138.5680 C   0  0  0  0  0  0  0  0  0  0  0  0
  189.0110  177.1980  141.7700 C   0  0  2  0  0  3  0  0  0  0  0  0
  181.9560  177.1380  137.6510 O   0  0  0  0  0  1  0  0  0  0  0  0
  187.7170  176.9780  142.5510 C   0  0  0  0  0  2  0  0  0  0  0  0
  180.7870  178.5580  139.7370 N   0  0  0  0  0  2  0  0  0  0  0  0
  180.0200  179.4060  138.8720 C   0  0  0  0  0  0  0  0  0  0  0  0
  179.1230  178.8800  138.1580 O   0  0  0  0  0  0  0  0  0  0  0  0
  180.4850  181.3680  140.1170 O   0  0  0  0  0  1  0  0  0  0  0  0
  178.9310  181.5760  138.3570 C   0  0  0  0  0  1  0  0  0  0  0  0
  180.2160  180.9100  138.8230 C   0  0  2  0  0  0  0  0  0  0  0  0
  181.3910  181.3300  137.9140 C   0  0  0  0  0  0  0  0  0  0  0  0
  181.1240  182.5220  137.2650 F   0  0  0  0  0  0  0  0  0  0  0  0
  182.5340  181.4980  138.6760 F   0  0  0  0  0  0  0  0  0  0  0  0
  181.6340  180.3470  136.9700 F   0  0  0  0  0  0  0  0  0  0  0  0
  190.0810  177.8210  142.6600 C   0  0  0  0  0  2  0  0  0  0  0  0
  190.3870  176.9180  143.8400 C   0  0  0  0  0  2  0  0  0  0  0  0
  191.7040  177.6120  145.6910 O   0  0  0  0  0  0  0  0  0  0  0  0
  190.4300  177.7420  145.1100 C   0  0  2  0  0  3  0  0  0  0  0  0
  190.6680  176.8610  146.2720 C   0  0  0  0  0  2  0  0  0  0  0  0
  1 20  1  0  0  0  0
  3 17  1  0  0  0  0
  5  6  1  0  0  0  0
  6 15  1  0  0  0  0
  6  9  2  0  0  0  0
  7 10  2  0  0  0  0
  8 19  1  0  0  0  0
 10 23  1  0  0  0  0
 10  4  1  0  0  0  0
 11  2  1  0  0  0  0
 11 14  1  0  0  0  0
 12 11  2  0  0  0  0
 13  8  1  0  0  0  0
 13  2  2  0  0  0  0
 14 18  1  0  0  0  0
 16  8  2  0  0  0  0
 17  4  2  0  0  0  0
 17  5  1  0  0  0  0
 18  1  1  0  0  0  0
 19  7  1  0  0  0  0
 19  3  2  0  0  0  0
 20 22  1  0  0  0  0
 20 33  1  1  0  0  0
 21  7  1  0  0  0  0
 22 15  1  0  0  0  0
 24 23  1  0  0  0  0
 25 24  2  0  0  0  0
 28 27  1  6  0  0  0
 28 24  1  0  0  0  0
 28 26  1  0  0  0  0
 29 31  1  0  0  0  0
 29 28  1  0  0  0  0
 30 29  1  0  0  0  0
 32 29  1  0  0  0  0
 33 34  1  0  0  0  0
 35 37  1  0  0  0  0
 36 34  1  6  0  0  0
 36 35  1  0  0  0  0
 36 37  1  0  0  0  0
M  END
>  <MODEL>
7

>  <REMARK>
 VINA RESULT:      -7.5      3.936      6.541
  Name = 
  6 active torsions:
  status: ('A' for Active; 'I' for Inactive)
    1  A    between atoms: C_2  and  C_27
    2  A    between atoms: C_2  and  C_31
    3  A    between atoms: C_5  and  C_15
    4  A    between atoms: N_14  and  C_17
    5  A    between atoms: C_15  and  C_30
    6  A    between atoms: C_31  and  C_33
                            x       y       z     vdW  Elec       q    Type
                         _______ _______ _______ _____ _____    ______ ____

>  <TORSDO>
F 6

$$$$
=
 OpenBabel11062412243D

 37 39  0  0  1  0  0  0  0  0999 V2000
  183.6120  178.7410  141.8600 C   0  0  0  0  0  2  0  0  0  0  0  0
  186.5130  178.3470  143.2430 N   0  0  0  0  0  0  0  0  0  0  0  0
  187.1520  177.8780  140.5440 C   0  0  0  0  0  3  0  0  0  0  0  0
  188.1610  178.0400  138.3580 C   0  0  0  0  0  3  0  0  0  0  0  0
  185.8510  178.9240  138.6690 C   0  0  0  0  0  2  0  0  0  0  0  0
  184.7770  177.9220  138.3840 C   0  0  0  0  0  0  0  0  0  0  0  0
  189.3990  177.0420  140.1860 C   0  0  0  0  0  0  0  0  0  0  0  0
  188.3480  176.8280  142.4830 C   0  0  0  0  0  0  0  0  0  0  0  0
  185.0030  176.9490  137.6810 O   0  0  0  0  0  0  0  0  0  0  0  0
  189.3180  177.4160  138.8350 C   0  0  0  0  0  0  0  0  0  0  0  0
  185.6260  178.7870  144.2710 C   0  0  0  0  0  0  0  0  0  0  0  0
  185.6710  178.2530  145.4460 N   0  0  0  0  0  2  0  0  0  0  0  0
  187.4470  177.3290  143.4790 N   0  0  0  0  0  0  0  0  0  0  0  0
  184.5340  179.7470  143.9410 C   0  0  0  0  0  2  0  0  0  0  0  0
  183.4020  178.1640  138.9070 C   0  0  0  0  0  2  0  0  0  0  0  0
  189.1990  175.9720  142.8430 O   0  0  0  0  0  0  0  0  0  0  0  0
  187.0810  178.2720  139.2060 C   0  0  0  0  0  0  0  0  0  0  0  0
  183.3500  179.0160  143.3300 C   0  0  0  0  0  2  0  0  0  0  0  0
  188.3060  177.2660  141.0580 C   0  0  0  0  0  0  0  0  0  0  0  0
  182.5430  177.8270  141.2670 C   0  0  2  0  0  3  0  0  0  0  0  0
  190.5720  176.4540  140.6500 O   0  0  0  0  0  1  0  0  0  0  0  0
  183.0690  177.1550  140.0010 C   0  0  0  0  0  2  0  0  0  0  0  0
  190.4390  177.1870  137.9710 N   0  0  0  0  0  2  0  0  0  0  0  0
  190.4070  176.4580  136.7360 C   0  0  0  0  0  0  0  0  0  0  0  0
  190.7440  177.0550  135.6790 O   0  0  0  0  0  0  0  0  0  0  0  0
  190.3590  174.3870  137.8880 O   0  0  0  0  0  1  0  0  0  0  0  0
  190.8530  174.3040  135.5840 C   0  0  0  0  0  1  0  0  0  0  0  0
  190.0340  174.9880  136.6680 C   0  0  2  0  0  0  0  0  0  0  0  0
  188.5280  174.7670  136.4140 C   0  0  0  0  0  0  0  0  0  0  0  0
  187.8070  174.8110  137.5930 F   0  0  0  0  0  0  0  0  0  0  0  0
  188.0450  175.7550  135.5730 F   0  0  0  0  0  0  0  0  0  0  0  0
  188.3250  173.5390  135.8080 F   0  0  0  0  0  0  0  0  0  0  0  0
  181.2490  178.5820  140.9830 C   0  0  0  0  0  2  0  0  0  0  0  0
  180.1980  178.2530  142.0270 C   0  0  0  0  0  2  0  0  0  0  0  0
  180.0560  180.4800  142.8430 O   0  0  0  0  0  0  0  0  0  0  0  0
  179.3030  179.4560  142.2390 C   0  0  2  0  0  3  0  0  0  0  0  0
  179.1950  179.7530  143.6830 C   0  0  0  0  0  2  0  0  0  0  0  0
  1 18  1  0  0  0  0
  2 13  2  0  0  0  0
  2 11  1  0  0  0  0
  3 19  1  0  0  0  0
  4 10  2  0  0  0  0
  4 17  1  0  0  0  0
  5 17  1  0  0  0  0
  6  5  1  0  0  0  0
  6 15  1  0  0  0  0
  7 21  1  0  0  0  0
  7 19  2  0  0  0  0
  8 16  2  0  0  0  0
  8 13  1  0  0  0  0
  9  6  2  0  0  0  0
 10  7  1  0  0  0  0
 11 12  2  0  0  0  0
 14 11  1  0  0  0  0
 15 22  1  0  0  0  0
 17  3  2  0  0  0  0
 18 14  1  0  0  0  0
 19  8  1  0  0  0  0
 20 33  1  6  0  0  0
 20  1  1  0  0  0  0
 22 20  1  0  0  0  0
 23 10  1  0  0  0  0
 24 23  1  0  0  0  0
 25 24  2  0  0  0  0
 28 27  1  6  0  0  0
 28 24  1  0  0  0  0
 28 26  1  0  0  0  0
 29 28  1  0  0  0  0
 29 30  1  0  0  0  0
 31 29  1  0  0  0  0
 32 29  1  0  0  0  0
 33 34  1  0  0  0  0
 35 37  1  0  0  0  0
 36 34  1  1  0  0  0
 36 35  1  0  0  0  0
 36 37  1  0  0  0  0
M  END
>  <MODEL>
8

>  <REMARK>
 VINA RESULT:      -7.3      3.164      6.425
  Name = 
  6 active torsions:
  status: ('A' for Active; 'I' for Inactive)
    1  A    between atoms: C_2  and  C_27
    2  A    between atoms: C_2  and  C_31
    3  A    between atoms: C_5  and  C_15
    4  A    between atoms: N_14  and  C_17
    5  A    between atoms: C_15  and  C_30
    6  A    between atoms: C_31  and  C_33
                            x       y       z     vdW  Elec       q    Type
                         _______ _______ _______ _____ _____    ______ ____

>  <TORSDO>
F 6

$$$$
=
 OpenBabel11062412243D

 37 39  0  0  1  0  0  0  0  0999 V2000
  184.5920  177.6090  137.9350 C   0  0  0  0  0  2  0  0  0  0  0  0
  186.3930  178.6280  140.4260 N   0  0  0  0  0  0  0  0  0  0  0  0
  188.3560  177.4000  138.8290 C   0  0  0  0  0  3  0  0  0  0  0  0
  190.3300  177.0260  137.4920 C   0  0  0  0  0  3  0  0  0  0  0  0
  188.1330  177.2410  136.3330 C   0  0  0  0  0  2  0  0  0  0  0  0
  187.4280  175.9380  136.1250 C   0  0  0  0  0  0  0  0  0  0  0  0
  190.5200  177.1900  139.9010 C   0  0  0  0  0  0  0  0  0  0  0  0
  188.4570  177.5470  141.3320 C   0  0  0  0  0  0  0  0  0  0  0  0
  188.0500  174.8860  136.1340 O   0  0  0  0  0  0  0  0  0  0  0  0
  191.1180  176.9930  138.6460 C   0  0  0  0  0  0  0  0  0  0  0  0
  185.0760  179.1380  140.6370 C   0  0  0  0  0  0  0  0  0  0  0  0
  184.5490  179.1170  141.8160 N   0  0  0  0  0  2  0  0  0  0  0  0
  187.1410  178.0940  141.4830 N   0  0  0  0  0  0  0  0  0  0  0  0
  184.2450  179.5400  139.4660 C   0  0  0  0  0  2  0  0  0  0  0  0
  185.9670  175.9410  135.8310 C   0  0  0  0  0  2  0  0  0  0  0  0
  189.0590  177.1770  142.3740 O   0  0  0  0  0  0  0  0  0  0  0  0
  188.9550  177.2280  137.5780 C   0  0  0  0  0  0  0  0  0  0  0  0
  183.5950  178.3210  138.8310 C   0  0  0  0  0  2  0  0  0  0  0  0
  189.1220  177.3900  140.0060 C   0  0  0  0  0  0  0  0  0  0  0  0
  184.0450  176.2700  137.4490 C   0  0  2  0  0  3  0  0  0  0  0  0
  191.3260  177.1900  141.0360 O   0  0  0  0  0  1  0  0  0  0  0  0
  185.1900  175.3610  137.0090 C   0  0  0  0  0  2  0  0  0  0  0  0
  192.5360  176.8000  138.5620 N   0  0  0  0  0  2  0  0  0  0  0  0
  193.2250  176.1150  137.5070 C   0  0  0  0  0  0  0  0  0  0  0  0
  194.0870  176.7520  136.8430 O   0  0  0  0  0  0  0  0  0  0  0  0
  191.9170  174.1950  137.9730 O   0  0  0  0  0  1  0  0  0  0  0  0
  194.2170  173.8410  137.5940 C   0  0  0  0  0  1  0  0  0  0  0  0
  192.9900  174.6480  137.1980 C   0  0  2  0  0  0  0  0  0  0  0  0
  192.6460  174.3980  135.7150 C   0  0  0  0  0  0  0  0  0  0  0  0
  193.7900  174.2280  134.9550 F   0  0  0  0  0  0  0  0  0  0  0  0
  191.8760  173.2540  135.5990 F   0  0  0  0  0  0  0  0  0  0  0  0
  191.9250  175.4650  135.2090 F   0  0  0  0  0  0  0  0  0  0  0  0
  183.0310  176.4480  136.3240 C   0  0  0  0  0  2  0  0  0  0  0  0
  181.6870  175.8670  136.7180 C   0  0  0  0  0  2  0  0  0  0  0  0
  180.6830  174.3850  138.2810 O   0  0  0  0  0  0  0  0  0  0  0  0
  181.7930  175.2280  138.0870 C   0  0  2  0  0  3  0  0  0  0  0  0
  180.6440  175.6350  138.9220 C   0  0  0  0  0  2  0  0  0  0  0  0
  1 18  1  0  0  0  0
  2 11  1  0  0  0  0
  2 13  2  0  0  0  0
  3 19  1  0  0  0  0
  4 17  1  0  0  0  0
  4 10  2  0  0  0  0
  5 17  1  0  0  0  0
  6  9  2  0  0  0  0
  6  5  1  0  0  0  0
  7 19  2  0  0  0  0
  7 21  1  0  0  0  0
  8 13  1  0  0  0  0
  8 16  2  0  0  0  0
 10  7  1  0  0  0  0
 11 12  2  0  0  0  0
 14 11  1  0  0  0  0
 15  6  1  0  0  0  0
 15 22  1  0  0  0  0
 17  3  2  0  0  0  0
 18 14  1  0  0  0  0
 19  8  1  0  0  0  0
 20 33  1  6  0  0  0
 20  1  1  0  0  0  0
 22 20  1  0  0  0  0
 23 10  1  0  0  0  0
 24 23  1  0  0  0  0
 25 24  2  0  0  0  0
 28 24  1  0  0  0  0
 28 27  1  1  0  0  0
 28 26  1  0  0  0  0
 29 28  1  0  0  0  0
 30 29  1  0  0  0  0
 31 29  1  0  0  0  0
 32 29  1  0  0  0  0
 33 34  1  0  0  0  0
 35 37  1  0  0  0  0
 36 34  1  6  0  0  0
 36 35  1  0  0  0  0
 36 37  1  0  0  0  0
M  END
>  <MODEL>
9

>  <REMARK>
 VINA RESULT:      -7.2      3.861      7.560
  Name = 
  6 active torsions:
  status: ('A' for Active; 'I' for Inactive)
    1  A    between atoms: C_2  and  C_27
    2  A    between atoms: C_2  and  C_31
    3  A    between atoms: C_5  and  C_15
    4  A    between atoms: N_14  and  C_17
    5  A    between atoms: C_15  and  C_30
    6  A    between atoms: C_31  and  C_33
                            x       y       z     vdW  Elec       q    Type
                         _______ _______ _______ _____ _____    ______ ____

>  <TORSDO>
F 6

$$$$
