=
 OpenBabel11062413243D

 46 50  0  0  1  0  0  0  0  0999 V2000
  185.3140  178.5270  141.5790 C   0  0  0  0  0  0  0  0  0  0  0  0
  189.2550  176.6990  138.5740 C   0  0  2  0  0  3  0  0  0  0  0  0
  185.3530  177.0180  135.8850 O   0  0  0  0  0  0  0  0  0  0  0  0
  185.3490  177.0200  137.3900 S   0  0  0  0  0  0  0  0  0  0  0  0
  186.8780  177.5830  138.0370 N   0  0  2  0  0  0  0  0  0  0  0  0
  185.0840  175.6270  137.8900 O   0  0  0  0  0  0  0  0  0  0  0  0
  184.3080  178.2790  142.6490 C   0  0  0  0  0  2  0  0  0  0  0  0
  190.3880  176.9870  141.6960 N   0  0  0  0  0  0  0  0  0  0  0  0
  186.4410  178.5120  143.5400 N   0  0  0  0  0  0  0  0  0  0  0  0
  191.6830  178.1120  140.0900 O   0  0  0  0  0  0  0  0  0  0  0  0
  184.0350  178.1000  137.9720 C   0  0  2  0  0  3  0  0  0  0  0  0
  186.5050  178.6530  142.1310 C   0  0  0  0  0  0  0  0  0  0  0  0
  184.0270  178.1550  139.4530 C   0  0  0  0  0  0  0  0  0  0  0  0
  182.1370  178.0510  136.3250 C   0  0  0  0  0  1  0  0  0  0  0  0
  181.7730  177.6570  138.8790 C   0  0  1  0  0  3  0  0  0  0  0  0
  185.1130  178.5250  140.1280 C   0  0  0  0  0  3  0  0  0  0  0  0
  188.9770  176.6990  141.8750 C   0  0  0  0  0  2  0  0  0  0  0  0
  188.2570  177.4930  140.7720 C   0  0  1  0  0  3  0  0  0  0  0  0
  182.6800  177.5000  137.6350 C   0  0  2  0  0  3  0  0  0  0  0  0
  187.7180  175.5760  136.9170 O   0  0  0  0  0  1  0  0  0  0  0  0
  190.5700  177.6550  140.4640 C   0  0  0  0  0  0  0  0  0  0  0  0
  187.7620  177.9710  136.9150 C   0  0  0  0  0  2  0  0  0  0  0  0
  185.2020  178.3040  143.8520 C   0  0  0  0  0  3  0  0  0  0  0  0
  182.7470  177.7130  140.0550 C   0  0  0  0  0  2  0  0  0  0  0  0
  188.0260  176.7350  137.6400 C   0  0  2  0  0  0  0  0  0  0  0  0
  187.7850  178.8190  141.3670 C   0  0  0  0  0  2  0  0  0  0  0  0
  189.3110  177.7820  139.6820 C   0  0  1  0  0  3  0  0  0  0  0  0
  192.0960  177.7730  143.1110 O   0  0  0  0  0  1  0  0  0  0  0  0
  191.4540  176.6280  142.6270 C   0  0  1  0  0  3  0  0  0  0  0  0
  190.8990  175.7920  143.7790 C   0  0  1  0  0  3  0  0  0  0  0  0
  191.9480  174.8180  144.2830 C   0  0  0  0  0  1  0  0  0  0  0  0
  190.4730  176.6140  144.8270 O   0  0  0  0  0  1  0  0  0  0  0  0
  190.5270  176.6840  137.7230 C   0  0  0  0  0  2  0  0  0  0  0  0
  191.2750  175.3720  137.8840 C   0  0  0  0  0  3  0  0  0  0  0  0
  190.9460  174.4610  136.7200 C   0  0  0  0  0  1  0  0  0  0  0  0
  192.7680  175.6250  137.9100 C   0  0  0  0  0  1  0  0  0  0  0  0
  180.8850  178.9230  138.8610 C   0  0  1  0  0  3  0  0  0  0  0  0
  179.7100  178.9640  141.1070 C   0  0  0  0  0  0  0  0  0  0  0  0
  180.7150  179.4480  140.2100 N   0  0  0  0  0  2  0  0  0  0  0  0
  178.9310  178.0410  140.7540 O   0  0  0  0  0  0  0  0  0  0  0  0
  179.5800  179.5470  142.4720 C   0  0  2  0  0  3  0  0  0  0  0  0
  179.8660  180.9100  142.4340 O   0  0  0  0  0  1  0  0  0  0  0  0
  180.5200  178.8440  143.4370 C   0  0  0  0  0  2  0  0  0  0  0  0
  179.7890  178.1640  144.3930 F   0  0  0  0  0  0  0  0  0  0  0  0
  181.4340  180.0240  137.9410 C   0  0  0  0  0  2  0  0  0  0  0  0
  181.9470  181.2230  138.7240 C   0  0  0  0  0  1  0  0  0  0  0  0
  1 12  2  0  0  0  0
  1  7  1  0  0  0  0
  2 33  1  6  0  0  0
  2 27  1  0  0  0  0
  3  4  2  0  0  0  0
  4  6  2  0  0  0  0
  4 11  1  0  0  0  0
  4  5  1  0  0  0  0
  5 22  1  6  0  0  0
  7 23  1  0  0  0  0
  8 17  1  0  0  0  0
  8 29  1  0  0  0  0
  9 23  2  0  0  0  0
 10 21  2  0  0  0  0
 11 13  1  1  0  0  0
 12  9  1  0  0  0  0
 13 24  1  0  0  0  0
 13 16  2  0  0  0  0
 15 37  1  6  0  0  0
 15 24  1  0  0  0  0
 16  1  1  0  0  0  0
 18 26  1  1  0  0  0
 18 17  1  0  0  0  0
 19 14  1  6  0  0  0
 19 11  1  0  0  0  0
 19 15  1  0  0  0  0
 21  8  1  0  0  0  0
 22 25  1  0  0  0  0
 25 20  1  6  0  0  0
 25  5  1  0  0  0  0
 25  2  1  0  0  0  0
 26 12  1  0  0  0  0
 27 21  1  1  0  0  0
 27 18  1  0  0  0  0
 29 28  1  1  0  0  0
 29 30  1  0  0  0  0
 30 31  1  1  0  0  0
 30 32  1  0  0  0  0
 33 34  1  0  0  0  0
 34 36  1  0  0  0  0
 35 34  1  0  0  0  0
 37 45  1  6  0  0  0
 37 39  1  0  0  0  0
 38 41  1  0  0  0  0
 39 38  1  0  0  0  0
 40 38  2  0  0  0  0
 41 42  1  6  0  0  0
 41 43  1  0  0  0  0
 43 44  1  0  0  0  0
 45 46  1  0  0  0  0
M  END
>  <MODEL>
1

>  <REMARK>
 VINA RESULT:      -7.4      0.000      0.000
  Name = 
  9 active torsions:
  status: ('A' for Active; 'I' for Inactive)
    1  A    between atoms: C_1  and  C_2
    2  A    between atoms: C_2  and  C_5
    3  A    between atoms: C_3  and  C_12
    4  A    between atoms: C_3  and  C_29
    5  A    between atoms: C_3  and  N_31
    6  A    between atoms: C_6  and  C_34
    7  A    between atoms: C_10  and  C_18
    8  A    between atoms: N_16  and  C_34
    9  A    between atoms: C_17  and  C_18
                            x       y       z     vdW  Elec       q    Type
                         _______ _______ _______ _____ _____    ______ ____

>  <TORSDO>
F 9

$$$$
=
 OpenBabel11062413243D

 46 50  0  0  1  0  0  0  0  0999 V2000
  185.2630  178.1320  143.4100 C   0  0  0  0  0  0  0  0  0  0  0  0
  186.3530  178.4900  138.2540 C   0  0  2  0  0  3  0  0  0  0  0  0
  190.3590  177.3820  140.5530 O   0  0  0  0  0  0  0  0  0  0  0  0
  189.1300  177.9470  141.2130 S   0  0  0  0  0  0  0  0  0  0  0  0
  187.6820  177.5910  140.2900 N   0  0  2  0  0  0  0  0  0  0  0  0
  189.2770  179.4370  141.3480 O   0  0  0  0  0  0  0  0  0  0  0  0
  184.9550  178.8150  144.6970 C   0  0  0  0  0  2  0  0  0  0  0  0
  183.1600  179.3410  138.6930 N   0  0  0  0  0  0  0  0  0  0  0  0
  183.1140  178.8260  143.2800 N   0  0  0  0  0  0  0  0  0  0  0  0
  183.4970  177.6300  137.1180 O   0  0  0  0  0  0  0  0  0  0  0  0
  188.9660  177.2340  142.8550 C   0  0  2  0  0  3  0  0  0  0  0  0
  184.1910  178.1620  142.6410 C   0  0  0  0  0  0  0  0  0  0  0  0
  187.7420  177.7410  143.5200 C   0  0  0  0  0  0  0  0  0  0  0  0
  191.2530  176.7570  143.7800 C   0  0  0  0  0  1  0  0  0  0  0  0
  189.4650  178.1010  145.1220 C   0  0  1  0  0  3  0  0  0  0  0  0
  186.5470  177.5970  142.9530 C   0  0  0  0  0  3  0  0  0  0  0  0
  183.7910  179.7470  139.9360 C   0  0  0  0  0  2  0  0  0  0  0  0
  184.8010  178.6340  140.2610 C   0  0  1  0  0  3  0  0  0  0  0  0
  190.0860  177.7320  143.7530 C   0  0  2  0  0  3  0  0  0  0  0  0
  188.8010  178.9840  138.6180 O   0  0  0  0  0  1  0  0  0  0  0  0
  183.8740  178.2500  138.1480 C   0  0  0  0  0  0  0  0  0  0  0  0
  188.0490  176.7660  139.1180 C   0  0  0  0  0  2  0  0  0  0  0  0
  183.5270  179.1990  144.4490 C   0  0  0  0  0  3  0  0  0  0  0  0
  188.0110  178.4420  144.7980 C   0  0  0  0  0  2  0  0  0  0  0  0
  187.7060  178.1680  138.9260 C   0  0  2  0  0  0  0  0  0  0  0  0
  184.1390  177.6550  141.2310 C   0  0  0  0  0  2  0  0  0  0  0  0
  185.0890  177.9020  138.9330 C   0  0  1  0  0  3  0  0  0  0  0  0
  180.9140  179.0740  138.0450 O   0  0  0  0  0  1  0  0  0  0  0  0
  181.9880  179.9690  138.0900 C   0  0  1  0  0  3  0  0  0  0  0  0
  181.6050  181.2340  138.8560 C   0  0  1  0  0  3  0  0  0  0  0  0
  181.2840  182.3630  137.8920 C   0  0  0  0  0  1  0  0  0  0  0  0
  180.5080  180.9960  139.6890 O   0  0  0  0  0  1  0  0  0  0  0  0
  186.4330  178.1190  136.7720 C   0  0  0  0  0  2  0  0  0  0  0  0
  187.1160  176.7760  136.5810 C   0  0  0  0  0  3  0  0  0  0  0  0
  186.0890  175.7460  136.1590 C   0  0  0  0  0  1  0  0  0  0  0  0
  188.1830  176.8820  135.5120 C   0  0  0  0  0  1  0  0  0  0  0  0
  189.5260  176.9690  146.1730 C   0  0  1  0  0  3  0  0  0  0  0  0
  191.6080  176.1740  147.3810 C   0  0  0  0  0  0  0  0  0  0  0  0
  190.6370  177.1840  147.0930 N   0  0  0  0  0  2  0  0  0  0  0  0
  191.5400  175.0460  146.8280 O   0  0  0  0  0  0  0  0  0  0  0  0
  192.7160  176.4510  148.3380 C   0  0  2  0  0  3  0  0  0  0  0  0
  193.0040  175.3040  149.0750 O   0  0  0  0  0  1  0  0  0  0  0  0
  192.3350  177.5880  149.2710 C   0  0  0  0  0  2  0  0  0  0  0  0
  193.4000  177.8950  150.0970 F   0  0  0  0  0  0  0  0  0  0  0  0
  188.2180  176.8170  146.9640 C   0  0  0  0  0  2  0  0  0  0  0  0
  188.2550  177.5710  148.2840 C   0  0  0  0  0  1  0  0  0  0  0  0
  1  7  1  0  0  0  0
  2 33  1  6  0  0  0
  2 25  1  0  0  0  0
  2 27  1  0  0  0  0
  3  4  2  0  0  0  0
  4  6  2  0  0  0  0
  4 11  1  0  0  0  0
  5 22  1  6  0  0  0
  5  4  1  0  0  0  0
  8 17  1  0  0  0  0
  9 23  2  0  0  0  0
 10 21  2  0  0  0  0
 11 13  1  1  0  0  0
 11 19  1  0  0  0  0
 12  9  1  0  0  0  0
 12  1  2  0  0  0  0
 13 24  1  0  0  0  0
 15 37  1  1  0  0  0
 16  1  1  0  0  0  0
 16 13  2  0  0  0  0
 18 17  1  6  0  0  0
 18 26  1  0  0  0  0
 19 14  1  1  0  0  0
 19 15  1  0  0  0  0
 21  8  1  0  0  0  0
 23  7  1  0  0  0  0
 24 15  1  0  0  0  0
 25 20  1  6  0  0  0
 25 22  1  0  0  0  0
 25  5  1  0  0  0  0
 26 12  1  0  0  0  0
 27 21  1  6  0  0  0
 27 18  1  0  0  0  0
 29 28  1  1  0  0  0
 29  8  1  0  0  0  0
 29 30  1  0  0  0  0
 30 31  1  6  0  0  0
 30 32  1  0  0  0  0
 34 33  1  0  0  0  0
 35 34  1  0  0  0  0
 36 34  1  0  0  0  0
 37 45  1  1  0  0  0
 37 39  1  0  0  0  0
 38 41  1  0  0  0  0
 39 38  1  0  0  0  0
 40 38  2  0  0  0  0
 41 42  1  1  0  0  0
 41 43  1  0  0  0  0
 43 44  1  0  0  0  0
 45 46  1  0  0  0  0
M  END
>  <MODEL>
2

>  <REMARK>
 VINA RESULT:      -6.9      3.532      8.880
  Name = 
  9 active torsions:
  status: ('A' for Active; 'I' for Inactive)
    1  A    between atoms: C_1  and  C_2
    2  A    between atoms: C_2  and  C_5
    3  A    between atoms: C_3  and  C_12
    4  A    between atoms: C_3  and  C_29
    5  A    between atoms: C_3  and  N_31
    6  A    between atoms: C_6  and  C_34
    7  A    between atoms: C_10  and  C_18
    8  A    between atoms: N_16  and  C_34
    9  A    between atoms: C_17  and  C_18
                            x       y       z     vdW  Elec       q    Type
                         _______ _______ _______ _____ _____    ______ ____

>  <TORSDO>
F 9

$$$$
=
 OpenBabel11062413243D

 46 50  0  0  1  0  0  0  0  0999 V2000
  186.5840  176.6450  137.3450 C   0  0  0  0  0  0  0  0  0  0  0  0
  184.5530  178.4040  141.8930 C   0  0  2  0  0  3  0  0  0  0  0  0
  189.2860  178.3760  142.2840 O   0  0  0  0  0  0  0  0  0  0  0  0
  188.5170  177.6200  141.2350 S   0  0  0  0  0  0  0  0  0  0  0  0
  186.9560  178.3570  140.9240 N   0  0  2  0  0  0  0  0  0  0  0  0
  188.3120  176.2030  141.6910 O   0  0  0  0  0  0  0  0  0  0  0  0
  186.8570  175.5020  136.4300 C   0  0  0  0  0  3  0  0  0  0  0  0
  182.0240  177.5250  139.9070 N   0  0  0  0  0  0  0  0  0  0  0  0
  184.6180  176.1170  136.3590 N   0  0  0  0  0  0  0  0  0  0  0  0
  181.8890  179.7230  140.7290 O   0  0  0  0  0  0  0  0  0  0  0  0
  189.4680  177.6020  139.7100 C   0  0  2  0  0  3  0  0  0  0  0  0
  185.3040  176.9580  137.2700 C   0  0  1  0  0  3  0  0  0  0  0  0
  188.7210  176.8960  138.6410 C   0  0  0  0  0  0  0  0  0  0  0  0
  191.9190  177.6030  140.2660 C   0  0  0  0  0  1  0  0  0  0  0  0
  190.8680  175.8700  138.6230 C   0  0  1  0  0  3  0  0  0  0  0  0
  187.4990  177.2890  138.2900 C   0  0  0  0  0  3  0  0  0  0  0  0
  183.0940  176.6300  139.5050 C   0  0  0  0  0  2  0  0  0  0  0  0
  184.3700  177.4880  139.5300 C   0  0  1  0  0  3  0  0  0  0  0  0
  190.7160  176.7530  139.8850 C   0  0  2  0  0  3  0  0  0  0  0  0
  186.5690  177.7460  143.2620 O   0  0  0  0  0  1  0  0  0  0  0  0
  182.5850  178.7260  140.3970 C   0  0  0  0  0  0  0  0  0  0  0  0
  186.8310  179.5820  141.7460 C   0  0  0  0  0  2  0  0  0  0  0  0
  185.4840  175.2880  135.8700 C   0  0  0  0  0  3  0  0  0  0  0  0
  189.4440  175.7270  138.0870 C   0  0  0  0  0  2  0  0  0  0  0  0
  186.0800  178.3900  142.1180 C   0  0  2  0  0  0  0  0  0  0  0  0
  184.6310  177.9990  138.1130 C   0  0  0  0  0  2  0  0  0  0  0  0
  184.0720  178.6920  140.4480 C   0  0  1  0  0  3  0  0  0  0  0  0
  180.0030  177.8950  138.7610 O   0  0  0  0  0  1  0  0  0  0  0  0
  180.5960  177.2280  139.8380 C   0  0  1  0  0  3  0  0  0  0  0  0
  180.3680  175.7210  139.7300 C   0  0  1  0  0  3  0  0  0  0  0  0
  179.2790  175.2780  140.6910 C   0  0  0  0  0  1  0  0  0  0  0  0
  180.0200  175.3640  138.4240 O   0  0  0  0  0  1  0  0  0  0  0  0
  183.9080  179.3480  142.9110 C   0  0  0  0  0  2  0  0  0  0  0  0
  183.2580  178.5690  144.0420 C   0  0  0  0  0  3  0  0  0  0  0  0
  183.9070  178.9530  145.3540 C   0  0  0  0  0  1  0  0  0  0  0  0
  181.7780  178.8870  144.1070 C   0  0  0  0  0  1  0  0  0  0  0  0
  191.7890  176.4710  137.5350 C   0  0  1  0  0  3  0  0  0  0  0  0
  194.0530  175.3740  137.8480 C   0  0  0  0  0  0  0  0  0  0  0  0
  192.8150  175.5110  137.1450 N   0  0  0  0  0  2  0  0  0  0  0  0
  194.2970  176.0870  138.8570 O   0  0  0  0  0  0  0  0  0  0  0  0
  195.0660  174.3800  137.3960 C   0  0  2  0  0  3  0  0  0  0  0  0
  194.5670  173.6550  136.3150 O   0  0  0  0  0  1  0  0  0  0  0  0
  195.4250  173.4380  138.5330 C   0  0  0  0  0  2  0  0  0  0  0  0
  196.6890  173.7350  139.0070 F   0  0  0  0  0  0  0  0  0  0  0  0
  191.0180  176.9400  136.2920 C   0  0  0  0  0  2  0  0  0  0  0  0
  191.3120  176.0790  135.0740 C   0  0  0  0  0  1  0  0  0  0  0  0
  1 16  1  0  0  0  0
  2 25  1  0  0  0  0
  2 33  1  1  0  0  0
  4  6  2  0  0  0  0
  4  3  2  0  0  0  0
  5  4  1  0  0  0  0
  5 22  1  1  0  0  0
  5 25  1  0  0  0  0
  7  1  2  0  0  0  0
  8 21  1  0  0  0  0
  9 12  1  0  0  0  0
 11 13  1  6  0  0  0
 11 19  1  0  0  0  0
 11  4  1  0  0  0  0
 12  1  1  0  0  0  0
 12 26  1  1  0  0  0
 15 37  1  6  0  0  0
 15 19  1  0  0  0  0
 16 13  2  0  0  0  0
 17 18  1  0  0  0  0
 17  8  1  0  0  0  0
 18 26  1  6  0  0  0
 18 27  1  0  0  0  0
 19 14  1  6  0  0  0
 21 10  2  0  0  0  0
 22 25  1  0  0  0  0
 23  9  2  0  0  0  0
 23  7  1  0  0  0  0
 24 15  1  0  0  0  0
 24 13  1  0  0  0  0
 25 20  1  1  0  0  0
 27 21  1  1  0  0  0
 27  2  1  0  0  0  0
 29 28  1  6  0  0  0
 29  8  1  0  0  0  0
 30 29  1  0  0  0  0
 30 31  1  1  0  0  0
 32 30  1  0  0  0  0
 33 34  1  0  0  0  0
 34 36  1  0  0  0  0
 34 35  1  0  0  0  0
 37 45  1  6  0  0  0
 38 40  2  0  0  0  0
 39 37  1  0  0  0  0
 39 38  1  0  0  0  0
 41 42  1  6  0  0  0
 41 38  1  0  0  0  0
 41 43  1  0  0  0  0
 43 44  1  0  0  0  0
 46 45  1  0  0  0  0
M  END
>  <MODEL>
3

>  <REMARK>
 VINA RESULT:      -6.9      3.787     10.088
  Name = 
  9 active torsions:
  status: ('A' for Active; 'I' for Inactive)
    1  A    between atoms: C_1  and  C_2
    2  A    between atoms: C_2  and  C_5
    3  A    between atoms: C_3  and  C_12
    4  A    between atoms: C_3  and  C_29
    5  A    between atoms: C_3  and  N_31
    6  A    between atoms: C_6  and  C_34
    7  A    between atoms: C_10  and  C_18
    8  A    between atoms: N_16  and  C_34
    9  A    between atoms: C_17  and  C_18
                            x       y       z     vdW  Elec       q    Type
                         _______ _______ _______ _____ _____    ______ ____

>  <TORSDO>
F 9

$$$$
=
 OpenBabel11062413243D

 46 50  0  0  1  0  0  0  0  0999 V2000
  187.8860  173.6560  135.9250 C   0  0  0  0  0  0  0  0  0  0  0  0
  185.2210  177.7210  137.9930 C   0  0  2  0  0  3  0  0  0  0  0  0
  189.8640  178.5140  138.6050 O   0  0  0  0  0  0  0  0  0  0  0  0
  189.2680  177.1700  138.2820 S   0  0  0  0  0  0  0  0  0  0  0  0
  187.7270  177.3300  137.4600 N   0  0  2  0  0  0  0  0  0  0  0  0
  189.0710  176.3940  139.5540 O   0  0  0  0  0  0  0  0  0  0  0  0
  188.3230  172.2360  136.0280 C   0  0  0  0  0  2  0  0  0  0  0  0
  183.0050  175.4620  136.9460 N   0  0  0  0  0  0  0  0  0  0  0  0
  186.0850  172.3820  135.4210 N   0  0  0  0  0  0  0  0  0  0  0  0
  182.6690  177.6210  136.0790 O   0  0  0  0  0  0  0  0  0  0  0  0
  190.4040  176.2640  137.2240 C   0  0  2  0  0  3  0  0  0  0  0  0
  186.6130  173.6880  135.5790 C   0  0  0  0  0  0  0  0  0  0  0  0
  189.8290  174.9470  136.8550 C   0  0  0  0  0  0  0  0  0  0  0  0
  192.7620  176.9190  137.7930 C   0  0  0  0  0  1  0  0  0  0  0  0
  192.0050  174.4250  137.6640 C   0  0  1  0  0  3  0  0  0  0  0  0
  188.6450  174.8640  136.2540 C   0  0  0  0  0  3  0  0  0  0  0  0
  184.1560  174.6590  137.3140 C   0  0  0  0  0  2  0  0  0  0  0  0
  185.3790  175.4620  136.8420 C   0  0  1  0  0  3  0  0  0  0  0  0
  191.6560  175.8940  138.0010 C   0  0  2  0  0  3  0  0  0  0  0  0
  187.0760  178.3700  139.5770 O   0  0  0  0  0  1  0  0  0  0  0  0
  183.4450  176.7430  136.5430 C   0  0  0  0  0  0  0  0  0  0  0  0
  187.4440  178.7670  137.2440 C   0  0  0  0  0  2  0  0  0  0  0  0
  187.0420  171.5460  135.6670 C   0  0  0  0  0  3  0  0  0  0  0  0
  190.6680  173.7980  137.2720 C   0  0  0  0  0  2  0  0  0  0  0  0
  186.7070  178.0380  138.2680 C   0  0  2  0  0  0  0  0  0  0  0  0
  185.7930  174.9390  135.4660 C   0  0  0  0  0  2  0  0  0  0  0  0
  184.9130  176.9260  136.6990 C   0  0  1  0  0  3  0  0  0  0  0  0
  181.4910  173.6960  136.5910 O   0  0  0  0  0  1  0  0  0  0  0  0
  181.6110  175.0280  137.0020 C   0  0  1  0  0  3  0  0  0  0  0  0
  181.0490  175.2120  138.4110 C   0  0  1  0  0  3  0  0  0  0  0  0
  180.2620  176.5070  138.5050 C   0  0  0  0  0  1  0  0  0  0  0  0
  180.2320  174.1330  138.7630 O   0  0  0  0  0  1  0  0  0  0  0  0
  184.4120  179.0170  138.0770 C   0  0  0  0  0  2  0  0  0  0  0  0
  183.6620  179.1080  139.3950 C   0  0  0  0  0  3  0  0  0  0  0  0
  182.3030  179.7320  139.1560 C   0  0  0  0  0  1  0  0  0  0  0  0
  183.4780  177.7260  139.9850 C   0  0  0  0  0  1  0  0  0  0  0  0
  193.0280  174.2630  136.5150 C   0  0  1  0  0  3  0  0  0  0  0  0
  195.4960  174.7710  136.7950 C   0  0  0  0  0  0  0  0  0  0  0  0
  194.3500  173.9520  137.0460 N   0  0  0  0  0  2  0  0  0  0  0  0
  195.3940  175.8160  136.1010 O   0  0  0  0  0  0  0  0  0  0  0  0
  196.8230  174.3960  137.3590 C   0  0  2  0  0  3  0  0  0  0  0  0
  197.7490  175.4080  137.1050 O   0  0  0  0  0  1  0  0  0  0  0  0
  197.3030  173.0880  136.7550 C   0  0  0  0  0  2  0  0  0  0  0  0
  196.9630  172.0350  137.5840 F   0  0  0  0  0  0  0  0  0  0  0  0
  192.6140  173.1930  135.4940 C   0  0  0  0  0  2  0  0  0  0  0  0
  193.3750  171.8900  135.6870 C   0  0  0  0  0  1  0  0  0  0  0  0
  1  7  1  0  0  0  0
  1 16  1  0  0  0  0
  2 33  1  6  0  0  0
  2 25  1  0  0  0  0
  4  3  2  0  0  0  0
  4  6  2  0  0  0  0
  5 22  1  6  0  0  0
  5 25  1  0  0  0  0
  5  4  1  0  0  0  0
  8 29  1  0  0  0  0
  8 17  1  0  0  0  0
  9 12  1  0  0  0  0
  9 23  2  0  0  0  0
 10 21  2  0  0  0  0
 11 13  1  1  0  0  0
 11 19  1  0  0  0  0
 11  4  1  0  0  0  0
 12  1  2  0  0  0  0
 13 24  1  0  0  0  0
 15 37  1  6  0  0  0
 15 19  1  0  0  0  0
 16 13  2  0  0  0  0
 18 26  1  6  0  0  0
 18 17  1  0  0  0  0
 19 14  1  6  0  0  0
 21  8  1  0  0  0  0
 22 25  1  0  0  0  0
 23  7  1  0  0  0  0
 24 15  1  0  0  0  0
 25 20  1  1  0  0  0
 26 12  1  0  0  0  0
 27 21  1  1  0  0  0
 27 18  1  0  0  0  0
 27  2  1  0  0  0  0
 29 28  1  1  0  0  0
 29 30  1  0  0  0  0
 30 31  1  6  0  0  0
 30 32  1  0  0  0  0
 33 34  1  0  0  0  0
 34 36  1  0  0  0  0
 35 34  1  0  0  0  0
 37 45  1  6  0  0  0
 37 39  1  0  0  0  0
 38 39  1  0  0  0  0
 38 41  1  0  0  0  0
 40 38  2  0  0  0  0
 41 42  1  6  0  0  0
 43 41  1  0  0  0  0
 43 44  1  0  0  0  0
 45 46  1  0  0  0  0
M  END
>  <MODEL>
4

>  <REMARK>
 VINA RESULT:      -6.8      4.547     10.851
  Name = 
  9 active torsions:
  status: ('A' for Active; 'I' for Inactive)
    1  A    between atoms: C_1  and  C_2
    2  A    between atoms: C_2  and  C_5
    3  A    between atoms: C_3  and  C_12
    4  A    between atoms: C_3  and  C_29
    5  A    between atoms: C_3  and  N_31
    6  A    between atoms: C_6  and  C_34
    7  A    between atoms: C_10  and  C_18
    8  A    between atoms: N_16  and  C_34
    9  A    between atoms: C_17  and  C_18
                            x       y       z     vdW  Elec       q    Type
                         _______ _______ _______ _____ _____    ______ ____

>  <TORSDO>
F 9

$$$$
=
 OpenBabel11062413243D

 46 50  0  0  1  0  0  0  0  0999 V2000
  184.8630  178.8270  141.8540 C   0  0  0  0  0  0  0  0  0  0  0  0
  188.7340  176.9030  138.8190 C   0  0  2  0  0  3  0  0  0  0  0  0
  184.9010  177.5790  136.0980 O   0  0  0  0  0  0  0  0  0  0  0  0
  184.8730  177.5130  137.6000 S   0  0  0  0  0  0  0  0  0  0  0  0
  186.4240  177.9530  138.2930 N   0  0  2  0  0  0  0  0  0  0  0  0
  184.5180  176.1170  138.0320 O   0  0  0  0  0  0  0  0  0  0  0  0
  183.8280  178.5930  142.8980 C   0  0  0  0  0  2  0  0  0  0  0  0
  189.8330  176.9800  141.9640 N   0  0  0  0  0  0  0  0  0  0  0  0
  185.9570  178.6550  143.8260 N   0  0  0  0  0  0  0  0  0  0  0  0
  191.2190  178.0960  140.4290 O   0  0  0  0  0  0  0  0  0  0  0  0
  183.6180  178.6430  138.2150 C   0  0  2  0  0  3  0  0  0  0  0  0
  186.0510  178.8560  142.4270 C   0  0  0  0  0  0  0  0  0  0  0  0
  183.5900  178.6310  139.6970 C   0  0  0  0  0  0  0  0  0  0  0  0
  181.7460  178.7830  136.5430 C   0  0  0  0  0  1  0  0  0  0  0  0
  181.3190  178.2960  139.0710 C   0  0  1  0  0  3  0  0  0  0  0  0
  184.6850  178.9040  140.4020 C   0  0  0  0  0  3  0  0  0  0  0  0
  188.4050  176.7700  142.1120 C   0  0  0  0  0  2  0  0  0  0  0  0
  187.7520  177.6550  141.0380 C   0  0  1  0  0  3  0  0  0  0  0  0
  182.2350  178.1410  137.8340 C   0  0  2  0  0  3  0  0  0  0  0  0
  187.1590  175.9510  137.0920 O   0  0  0  0  0  1  0  0  0  0  0  0
  190.0750  177.6900  140.7680 C   0  0  0  0  0  0  0  0  0  0  0  0
  187.3460  178.3360  137.2010 C   0  0  0  0  0  2  0  0  0  0  0  0
  184.7020  178.5080  144.1120 C   0  0  0  0  0  3  0  0  0  0  0  0
  182.2760  178.2400  140.2610 C   0  0  0  0  0  2  0  0  0  0  0  0
  187.5240  177.0550  137.8720 C   0  0  2  0  0  0  0  0  0  0  0  0
  187.3510  178.9790  141.6880 C   0  0  0  0  0  2  0  0  0  0  0  0
  188.8380  177.9290  139.9760 C   0  0  1  0  0  3  0  0  0  0  0  0
  192.1230  176.9800  142.5070 O   0  0  0  0  0  1  0  0  0  0  0  0
  190.8620  176.5150  142.8920 C   0  0  1  0  0  3  0  0  0  0  0  0
  190.5350  176.9570  144.3180 C   0  0  1  0  0  3  0  0  0  0  0  0
  191.5760  176.4300  145.2890 C   0  0  0  0  0  1  0  0  0  0  0  0
  190.4710  178.3510  144.4010 O   0  0  0  0  0  1  0  0  0  0  0  0
  190.0160  176.8490  137.9840 C   0  0  0  0  0  2  0  0  0  0  0  0
  190.6820  175.4880  138.0930 C   0  0  0  0  0  3  0  0  0  0  0  0
  190.2080  174.6050  136.9590 C   0  0  0  0  0  1  0  0  0  0  0  0
  192.1870  175.6380  138.0110 C   0  0  0  0  0  1  0  0  0  0  0  0
  180.5090  179.6130  139.1000 C   0  0  1  0  0  3  0  0  0  0  0  0
  179.6360  181.1280  137.2630 C   0  0  0  0  0  0  0  0  0  0  0  0
  179.8330  179.8270  137.8250 N   0  0  0  0  0  2  0  0  0  0  0  0
  180.0610  182.1510  137.8590 O   0  0  0  0  0  0  0  0  0  0  0  0
  178.9310  181.2820  135.9600 C   0  0  2  0  0  3  0  0  0  0  0  0
  178.9790  180.0830  135.2510 O   0  0  0  0  0  1  0  0  0  0  0  0
  179.5660  182.3960  135.1450 C   0  0  0  0  0  2  0  0  0  0  0  0
  180.8210  182.0070  134.7160 F   0  0  0  0  0  0  0  0  0  0  0  0
  179.4850  179.6600  140.2440 C   0  0  0  0  0  2  0  0  0  0  0  0
  179.6800  180.8730  141.1410 C   0  0  0  0  0  1  0  0  0  0  0  0
  1 12  2  0  0  0  0
  1  7  1  0  0  0  0
  2 33  1  6  0  0  0
  2 27  1  0  0  0  0
  3  4  2  0  0  0  0
  4  6  2  0  0  0  0
  4 11  1  0  0  0  0
  4  5  1  0  0  0  0
  5 22  1  6  0  0  0
  7 23  1  0  0  0  0
  8 17  1  0  0  0  0
  8 29  1  0  0  0  0
  9 23  2  0  0  0  0
 10 21  2  0  0  0  0
 11 13  1  1  0  0  0
 12  9  1  0  0  0  0
 13 24  1  0  0  0  0
 13 16  2  0  0  0  0
 15 37  1  6  0  0  0
 15 24  1  0  0  0  0
 16  1  1  0  0  0  0
 18 26  1  1  0  0  0
 18 17  1  0  0  0  0
 19 14  1  6  0  0  0
 19 11  1  0  0  0  0
 19 15  1  0  0  0  0
 21  8  1  0  0  0  0
 22 25  1  0  0  0  0
 25 20  1  6  0  0  0
 25  5  1  0  0  0  0
 25  2  1  0  0  0  0
 26 12  1  0  0  0  0
 27 21  1  1  0  0  0
 27 18  1  0  0  0  0
 29 28  1  6  0  0  0
 29 30  1  0  0  0  0
 30 32  1  0  0  0  0
 30 31  1  1  0  0  0
 33 34  1  0  0  0  0
 35 34  1  0  0  0  0
 36 34  1  0  0  0  0
 37 45  1  1  0  0  0
 38 39  1  0  0  0  0
 38 40  2  0  0  0  0
 39 37  1  0  0  0  0
 41 42  1  6  0  0  0
 41 38  1  0  0  0  0
 43 41  1  0  0  0  0
 44 43  1  0  0  0  0
 45 46  1  0  0  0  0
M  END
>  <MODEL>
5

>  <REMARK>
 VINA RESULT:      -6.6      2.262      2.905
  Name = 
  9 active torsions:
  status: ('A' for Active; 'I' for Inactive)
    1  A    between atoms: C_1  and  C_2
    2  A    between atoms: C_2  and  C_5
    3  A    between atoms: C_3  and  C_12
    4  A    between atoms: C_3  and  C_29
    5  A    between atoms: C_3  and  N_31
    6  A    between atoms: C_6  and  C_34
    7  A    between atoms: C_10  and  C_18
    8  A    between atoms: N_16  and  C_34
    9  A    between atoms: C_17  and  C_18
                            x       y       z     vdW  Elec       q    Type
                         _______ _______ _______ _____ _____    ______ ____

>  <TORSDO>
F 9

$$$$
=
 OpenBabel11062413243D

 46 50  0  0  1  0  0  0  0  0999 V2000
  186.7240  177.7150  138.4760 C   0  0  0  0  0  0  0  0  0  0  0  0
  186.6780  178.2620  143.7290 C   0  0  2  0  0  3  0  0  0  0  0  0
  191.1240  177.2900  142.3690 O   0  0  0  0  0  0  0  0  0  0  0  0
  189.9050  177.0530  141.5190 S   0  0  0  0  0  0  0  0  0  0  0  0
  188.5830  178.1090  141.9780 N   0  0  2  0  0  0  0  0  0  0  0  0
  189.4680  175.6220  141.6630 O   0  0  0  0  0  0  0  0  0  0  0  0
  186.3960  176.8930  137.2780 C   0  0  0  0  0  3  0  0  0  0  0  0
  183.5380  178.5120  142.6400 N   0  0  0  0  0  0  0  0  0  0  0  0
  184.4890  177.8770  138.1690 N   0  0  0  0  0  0  0  0  0  0  0  0
  184.2520  180.3230  143.9570 O   0  0  0  0  0  0  0  0  0  0  0  0
  190.3230  177.3550  139.7970 C   0  0  2  0  0  3  0  0  0  0  0  0
  185.6140  178.2520  138.9440 C   0  0  1  0  0  3  0  0  0  0  0  0
  189.1330  177.1670  138.9340 C   0  0  0  0  0  0  0  0  0  0  0  0
  192.7340  176.7540  139.4150 C   0  0  0  0  0  1  0  0  0  0  0  0
  190.8170  175.8440  137.8970 C   0  0  1  0  0  3  0  0  0  0  0  0
  188.0160  177.8560  139.1510 C   0  0  0  0  0  3  0  0  0  0  0  0
  184.1580  177.6200  141.6770 C   0  0  0  0  0  2  0  0  0  0  0  0
  185.5670  178.1900  141.4460 C   0  0  1  0  0  3  0  0  0  0  0  0
  191.2880  176.2910  139.3010 C   0  0  2  0  0  3  0  0  0  0  0  0
  188.7510  176.8640  144.0780 O   0  0  0  0  0  1  0  0  0  0  0  0
  184.5210  179.3780  143.1680 C   0  0  0  0  0  0  0  0  0  0  0  0
  189.0420  179.0110  143.0580 C   0  0  0  0  0  2  0  0  0  0  0  0
  184.9140  177.1090  137.2160 C   0  0  0  0  0  3  0  0  0  0  0  0
  189.3150  176.1270  137.8930 C   0  0  0  0  0  2  0  0  0  0  0  0
  188.1410  177.9120  143.3780 C   0  0  2  0  0  0  0  0  0  0  0  0
  185.5270  179.0720  140.1970 C   0  0  0  0  0  2  0  0  0  0  0  0
  185.8900  179.0730  142.6700 C   0  0  1  0  0  3  0  0  0  0  0  0
  181.9700  178.9220  144.3470 O   0  0  0  0  0  1  0  0  0  0  0  0
  182.1280  178.5050  143.0210 C   0  0  1  0  0  3  0  0  0  0  0  0
  181.3150  179.3890  142.0760 C   0  0  1  0  0  3  0  0  0  0  0  0
  180.5070  178.5370  141.1140 C   0  0  0  0  0  1  0  0  0  0  0  0
  180.4610  180.2290  142.7970 O   0  0  0  0  0  1  0  0  0  0  0  0
  186.6430  178.9300  145.1060 C   0  0  0  0  0  2  0  0  0  0  0  0
  186.3240  177.9200  146.1950 C   0  0  0  0  0  3  0  0  0  0  0  0
  187.3020  178.0890  147.3380 C   0  0  0  0  0  1  0  0  0  0  0  0
  184.9160  178.1370  146.7080 C   0  0  0  0  0  1  0  0  0  0  0  0
  191.5040  176.5900  136.7290 C   0  0  1  0  0  3  0  0  0  0  0  0
  193.8730  176.0630  135.9970 C   0  0  0  0  0  0  0  0  0  0  0  0
  192.4840  175.7290  136.0780 N   0  0  0  0  0  2  0  0  0  0  0  0
  194.3040  177.1290  136.5080 O   0  0  0  0  0  0  0  0  0  0  0  0
  194.8260  175.1450  135.3110 C   0  0  2  0  0  3  0  0  0  0  0  0
  195.1770  174.1010  136.1660 O   0  0  0  0  0  1  0  0  0  0  0  0
  196.0690  175.9040  134.8780 C   0  0  0  0  0  2  0  0  0  0  0  0
  197.0410  175.8110  135.8560 F   0  0  0  0  0  0  0  0  0  0  0  0
  190.5050  177.1180  135.6880 C   0  0  0  0  0  2  0  0  0  0  0  0
  190.2240  176.1010  134.5940 C   0  0  0  0  0  1  0  0  0  0  0  0
  1 12  1  0  0  0  0
  1 16  1  0  0  0  0
  2 33  1  1  0  0  0
  4  6  2  0  0  0  0
  4  5  1  0  0  0  0
  4  3  2  0  0  0  0
  5 22  1  1  0  0  0
  5 25  1  0  0  0  0
  7  1  2  0  0  0  0
  8 29  1  0  0  0  0
  8 21  1  0  0  0  0
  9 12  1  0  0  0  0
 11 13  1  6  0  0  0
 11  4  1  0  0  0  0
 12 26  1  1  0  0  0
 13 16  2  0  0  0  0
 15 37  1  6  0  0  0
 15 19  1  0  0  0  0
 17  8  1  0  0  0  0
 18 26  1  6  0  0  0
 18 17  1  0  0  0  0
 18 27  1  0  0  0  0
 19 14  1  6  0  0  0
 19 11  1  0  0  0  0
 21 10  2  0  0  0  0
 22 25  1  0  0  0  0
 23  7  1  0  0  0  0
 23  9  2  0  0  0  0
 24 15  1  0  0  0  0
 24 13  1  0  0  0  0
 25  2  1  0  0  0  0
 25 20  1  1  0  0  0
 27 21  1  1  0  0  0
 27  2  1  0  0  0  0
 29 28  1  1  0  0  0
 30 31  1  6  0  0  0
 30 32  1  0  0  0  0
 30 29  1  0  0  0  0
 33 34  1  0  0  0  0
 34 36  1  0  0  0  0
 34 35  1  0  0  0  0
 37 45  1  6  0  0  0
 38 39  1  0  0  0  0
 38 40  2  0  0  0  0
 39 37  1  0  0  0  0
 41 38  1  0  0  0  0
 41 42  1  1  0  0  0
 43 41  1  0  0  0  0
 43 44  1  0  0  0  0
 46 45  1  0  0  0  0
M  END
>  <MODEL>
6

>  <REMARK>
 VINA RESULT:      -6.6      3.990      9.854
  Name = 
  9 active torsions:
  status: ('A' for Active; 'I' for Inactive)
    1  A    between atoms: C_1  and  C_2
    2  A    between atoms: C_2  and  C_5
    3  A    between atoms: C_3  and  C_12
    4  A    between atoms: C_3  and  C_29
    5  A    between atoms: C_3  and  N_31
    6  A    between atoms: C_6  and  C_34
    7  A    between atoms: C_10  and  C_18
    8  A    between atoms: N_16  and  C_34
    9  A    between atoms: C_17  and  C_18
                            x       y       z     vdW  Elec       q    Type
                         _______ _______ _______ _____ _____    ______ ____

>  <TORSDO>
F 9

$$$$
=
 OpenBabel11062413243D

 46 50  0  0  1  0  0  0  0  0999 V2000
  185.7080  178.2590  142.6460 C   0  0  0  0  0  0  0  0  0  0  0  0
  185.6340  178.1930  137.3640 C   0  0  2  0  0  3  0  0  0  0  0  0
  190.0620  177.2610  138.8070 O   0  0  0  0  0  0  0  0  0  0  0  0
  189.0010  177.8820  139.6730 S   0  0  0  0  0  0  0  0  0  0  0  0
  187.3900  177.4580  139.1230 N   0  0  2  0  0  0  0  0  0  0  0  0
  189.1520  179.3770  139.6530 O   0  0  0  0  0  0  0  0  0  0  0  0
  185.6810  179.0460  143.9100 C   0  0  0  0  0  2  0  0  0  0  0  0
  182.6040  179.0890  138.4260 N   0  0  0  0  0  0  0  0  0  0  0  0
  183.5730  178.9490  142.9360 N   0  0  0  0  0  0  0  0  0  0  0  0
  182.6110  177.2530  136.9570 O   0  0  0  0  0  0  0  0  0  0  0  0
  189.2110  177.3050  141.3630 C   0  0  2  0  0  3  0  0  0  0  0  0
  184.4930  178.2310  142.1320 C   0  0  0  0  0  0  0  0  0  0  0  0
  188.1560  177.8690  142.2380 C   0  0  0  0  0  0  0  0  0  0  0  0
  191.6530  176.8960  141.7960 C   0  0  0  0  0  1  0  0  0  0  0  0
  190.1840  178.3520  143.3870 C   0  0  1  0  0  3  0  0  0  0  0  0
  186.8680  177.6840  141.9610 C   0  0  0  0  0  3  0  0  0  0  0  0
  183.4860  179.5920  139.4620 C   0  0  0  0  0  2  0  0  0  0  0  0
  184.5590  178.5060  139.6450 C   0  0  1  0  0  3  0  0  0  0  0  0
  190.4940  177.8710  141.9500 C   0  0  2  0  0  3  0  0  0  0  0  0
  188.0950  178.7050  137.1390 O   0  0  0  0  0  1  0  0  0  0  0  0
  183.1960  177.9540  137.8260 C   0  0  0  0  0  0  0  0  0  0  0  0
  187.5030  176.5380  137.9690 C   0  0  0  0  0  2  0  0  0  0  0  0
  184.2280  179.4140  143.9510 C   0  0  0  0  0  3  0  0  0  0  0  0
  188.6890  178.6710  143.3650 C   0  0  0  0  0  2  0  0  0  0  0  0
  187.1060  177.9210  137.7450 C   0  0  2  0  0  0  0  0  0  0  0  0
  184.1400  177.6110  140.8120 C   0  0  0  0  0  2  0  0  0  0  0  0
  184.5590  177.6670  138.3490 C   0  0  1  0  0  3  0  0  0  0  0  0
  180.2620  178.8660  138.4870 O   0  0  0  0  0  1  0  0  0  0  0  0
  181.3190  179.6700  138.0460 C   0  0  1  0  0  3  0  0  0  0  0  0
  181.1880  181.0870  138.6020 C   0  0  1  0  0  3  0  0  0  0  0  0
  180.5800  182.0120  137.5630 C   0  0  0  0  0  1  0  0  0  0  0  0
  180.4050  181.0940  139.7600 O   0  0  0  0  0  1  0  0  0  0  0  0
  185.3910  177.7020  135.9350 C   0  0  0  0  0  2  0  0  0  0  0  0
  185.9310  176.2950  135.7420 C   0  0  0  0  0  3  0  0  0  0  0  0
  184.7850  175.3590  135.4210 C   0  0  0  0  0  1  0  0  0  0  0  0
  186.9270  176.2720  134.6020 C   0  0  0  0  0  1  0  0  0  0  0  0
  190.4900  177.3090  144.4860 C   0  0  1  0  0  3  0  0  0  0  0  0
  189.5010  177.0780  146.8090 C   0  0  0  0  0  0  0  0  0  0  0  0
  189.3540  177.1670  145.3890 N   0  0  0  0  0  2  0  0  0  0  0  0
  190.6420  177.1320  147.3370 O   0  0  0  0  0  0  0  0  0  0  0  0
  188.3010  176.9260  147.6790 C   0  0  2  0  0  3  0  0  0  0  0  0
  187.1450  177.1570  146.9350 O   0  0  0  0  0  1  0  0  0  0  0  0
  188.3710  177.8950  148.8480 C   0  0  0  0  0  2  0  0  0  0  0  0
  189.0480  179.0390  148.4700 F   0  0  0  0  0  0  0  0  0  0  0  0
  190.8730  175.9350  143.9150 C   0  0  0  0  0  2  0  0  0  0  0  0
  191.9980  175.2790  144.7010 C   0  0  0  0  0  1  0  0  0  0  0  0
  1  7  1  0  0  0  0
  2 33  1  6  0  0  0
  2 25  1  0  0  0  0
  2 27  1  0  0  0  0
  3  4  2  0  0  0  0
  4 11  1  0  0  0  0
  5 22  1  6  0  0  0
  5  4  1  0  0  0  0
  6  4  2  0  0  0  0
  7 23  1  0  0  0  0
  8 17  1  0  0  0  0
  9 23  2  0  0  0  0
 10 21  2  0  0  0  0
 11 19  1  0  0  0  0
 11 13  1  1  0  0  0
 12  1  2  0  0  0  0
 12  9  1  0  0  0  0
 13 24  1  0  0  0  0
 15 37  1  1  0  0  0
 16 13  2  0  0  0  0
 16  1  1  0  0  0  0
 18 17  1  6  0  0  0
 18 26  1  0  0  0  0
 19 14  1  1  0  0  0
 19 15  1  0  0  0  0
 21  8  1  0  0  0  0
 24 15  1  0  0  0  0
 25 20  1  6  0  0  0
 25 22  1  0  0  0  0
 25  5  1  0  0  0  0
 26 12  1  0  0  0  0
 27 21  1  6  0  0  0
 27 18  1  0  0  0  0
 29  8  1  0  0  0  0
 29 28  1  1  0  0  0
 29 30  1  0  0  0  0
 30 31  1  6  0  0  0
 30 32  1  0  0  0  0
 34 33  1  0  0  0  0
 35 34  1  0  0  0  0
 36 34  1  0  0  0  0
 37 45  1  6  0  0  0
 37 39  1  0  0  0  0
 38 40  2  0  0  0  0
 38 41  1  0  0  0  0
 39 38  1  0  0  0  0
 41 42  1  6  0  0  0
 41 43  1  0  0  0  0
 44 43  1  0  0  0  0
 45 46  1  0  0  0  0
M  END
>  <MODEL>
7

>  <REMARK>
 VINA RESULT:      -6.3      2.836      8.209
  Name = 
  9 active torsions:
  status: ('A' for Active; 'I' for Inactive)
    1  A    between atoms: C_1  and  C_2
    2  A    between atoms: C_2  and  C_5
    3  A    between atoms: C_3  and  C_12
    4  A    between atoms: C_3  and  C_29
    5  A    between atoms: C_3  and  N_31
    6  A    between atoms: C_6  and  C_34
    7  A    between atoms: C_10  and  C_18
    8  A    between atoms: N_16  and  C_34
    9  A    between atoms: C_17  and  C_18
                            x       y       z     vdW  Elec       q    Type
                         _______ _______ _______ _____ _____    ______ ____

>  <TORSDO>
F 9

$$$$
=
 OpenBabel11062413243D

 46 50  0  0  1  0  0  0  0  0999 V2000
  183.5140  178.7320  141.5150 C   0  0  0  0  0  0  0  0  0  0  0  0
  188.3820  177.6390  139.7810 C   0  0  2  0  0  3  0  0  0  0  0  0
  185.4200  177.5470  136.0690 O   0  0  0  0  0  0  0  0  0  0  0  0
  184.9810  177.4690  137.5060 S   0  0  0  0  0  0  0  0  0  0  0  0
  186.1570  178.2070  138.5790 N   0  0  2  0  0  0  0  0  0  0  0  0
  184.7950  176.0280  137.8930 O   0  0  0  0  0  0  0  0  0  0  0  0
  182.2910  178.2880  142.2410 C   0  0  0  0  0  3  0  0  0  0  0  0
  188.5090  177.9170  143.0990 N   0  0  0  0  0  0  0  0  0  0  0  0
  184.0160  178.7710  143.7200 N   0  0  0  0  0  0  0  0  0  0  0  0
  190.0290  179.2970  141.9550 O   0  0  0  0  0  0  0  0  0  0  0  0
  183.4090  178.3210  137.6880 C   0  0  2  0  0  3  0  0  0  0  0  0
  184.4620  178.9940  142.3940 C   0  0  1  0  0  3  0  0  0  0  0  0
  182.9660  178.2960  139.1020 C   0  0  0  0  0  0  0  0  0  0  0  0
  182.0970  178.0930  135.5570 C   0  0  0  0  0  1  0  0  0  0  0  0
  181.0750  177.5160  137.8870 C   0  0  1  0  0  3  0  0  0  0  0  0
  183.7420  178.7790  140.0690 C   0  0  0  0  0  3  0  0  0  0  0  0
  187.1660  177.4240  142.8550 C   0  0  0  0  0  2  0  0  0  0  0  0
  186.6850  178.1660  141.5970 C   0  0  1  0  0  3  0  0  0  0  0  0
  182.3150  177.5540  136.9630 C   0  0  2  0  0  3  0  0  0  0  0  0
  187.5750  176.4000  137.7350 O   0  0  0  0  0  1  0  0  0  0  0  0
  188.9370  178.6680  141.9820 C   0  0  0  0  0  0  0  0  0  0  0  0
  187.2580  178.7740  137.7690 C   0  0  0  0  0  2  0  0  0  0  0  0
  182.7850  178.3750  143.6530 C   0  0  0  0  0  3  0  0  0  0  0  0
  181.6480  177.6460  139.2980 C   0  0  0  0  0  2  0  0  0  0  0  0
  187.4840  177.5510  138.5280 C   0  0  2  0  0  0  0  0  0  0  0  0
  185.8680  179.3800  142.0400 C   0  0  0  0  0  2  0  0  0  0  0  0
  187.9530  178.6580  140.8660 C   0  0  1  0  0  3  0  0  0  0  0  0
  188.5980  176.8560  145.1980 O   0  0  0  0  0  1  0  0  0  0  0  0
  189.3030  177.6630  144.2990 C   0  0  1  0  0  3  0  0  0  0  0  0
  190.6400  177.0210  143.9300 C   0  0  1  0  0  3  0  0  0  0  0  0
  191.5180  176.8760  145.1600 C   0  0  0  0  0  1  0  0  0  0  0  0
  190.4410  175.7700  143.3390 O   0  0  0  0  0  1  0  0  0  0  0  0
  189.8320  177.8470  139.3390 C   0  0  0  0  0  2  0  0  0  0  0  0
  190.6940  176.6520  139.7110 C   0  0  0  0  0  3  0  0  0  0  0  0
  190.9070  175.7880  138.4870 C   0  0  0  0  0  1  0  0  0  0  0  0
  192.0370  177.1220  140.2300 C   0  0  0  0  0  1  0  0  0  0  0  0
  180.0510  178.6440  137.6220 C   0  0  1  0  0  3  0  0  0  0  0  0
  180.2430  181.1580  137.3580 C   0  0  0  0  0  0  0  0  0  0  0  0
  180.7200  179.8330  137.1070 N   0  0  0  0  0  2  0  0  0  0  0  0
  179.2140  181.3440  138.0570 O   0  0  0  0  0  0  0  0  0  0  0  0
  180.9670  182.3340  136.7980 C   0  0  2  0  0  3  0  0  0  0  0  0
  180.8570  183.4170  137.6680 O   0  0  0  0  0  1  0  0  0  0  0  0
  180.4030  182.7000  135.4360 C   0  0  0  0  0  2  0  0  0  0  0  0
  181.0280  183.8370  134.9590 F   0  0  0  0  0  0  0  0  0  0  0  0
  178.9320  178.2200  136.6580 C   0  0  0  0  0  2  0  0  0  0  0  0
  178.9360  176.7220  136.3950 C   0  0  0  0  0  1  0  0  0  0  0  0
  1  7  2  0  0  0  0
  1 12  1  0  0  0  0
  2 33  1  6  0  0  0
  2 27  1  0  0  0  0
  3  4  2  0  0  0  0
  4 11  1  0  0  0  0
  4  6  2  0  0  0  0
  4  5  1  0  0  0  0
  5 22  1  6  0  0  0
  7 23  1  0  0  0  0
  8 29  1  0  0  0  0
 10 21  2  0  0  0  0
 11 13  1  1  0  0  0
 12 26  1  6  0  0  0
 12  9  1  0  0  0  0
 13 24  1  0  0  0  0
 13 16  2  0  0  0  0
 15 37  1  6  0  0  0
 15 24  1  0  0  0  0
 16  1  1  0  0  0  0
 17  8  1  0  0  0  0
 18 26  1  1  0  0  0
 18 17  1  0  0  0  0
 19 14  1  6  0  0  0
 19 11  1  0  0  0  0
 19 15  1  0  0  0  0
 21  8  1  0  0  0  0
 22 25  1  0  0  0  0
 23  9  2  0  0  0  0
 25 20  1  6  0  0  0
 25  5  1  0  0  0  0
 25  2  1  0  0  0  0
 27 18  1  0  0  0  0
 27 21  1  1  0  0  0
 29 28  1  1  0  0  0
 30 29  1  0  0  0  0
 30 31  1  1  0  0  0
 32 30  1  0  0  0  0
 33 34  1  0  0  0  0
 34 36  1  0  0  0  0
 35 34  1  0  0  0  0
 37 45  1  6  0  0  0
 38 40  2  0  0  0  0
 39 38  1  0  0  0  0
 39 37  1  0  0  0  0
 41 38  1  0  0  0  0
 41 42  1  1  0  0  0
 43 41  1  0  0  0  0
 44 43  1  0  0  0  0
 46 45  1  0  0  0  0
M  END
>  <MODEL>
8

>  <REMARK>
 VINA RESULT:      -6.0      2.549      3.317
  Name = 
  9 active torsions:
  status: ('A' for Active; 'I' for Inactive)
    1  A    between atoms: C_1  and  C_2
    2  A    between atoms: C_2  and  C_5
    3  A    between atoms: C_3  and  C_12
    4  A    between atoms: C_3  and  C_29
    5  A    between atoms: C_3  and  N_31
    6  A    between atoms: C_6  and  C_34
    7  A    between atoms: C_10  and  C_18
    8  A    between atoms: N_16  and  C_34
    9  A    between atoms: C_17  and  C_18
                            x       y       z     vdW  Elec       q    Type
                         _______ _______ _______ _____ _____    ______ ____

>  <TORSDO>
F 9

$$$$
=
 OpenBabel11062413243D

 46 50  0  0  1  0  0  0  0  0999 V2000
  188.2700  177.7940  141.0810 C   0  0  0  0  0  0  0  0  0  0  0  0
  183.1680  178.7810  142.0250 C   0  0  2  0  0  3  0  0  0  0  0  0
  185.4530  178.6320  146.1860 O   0  0  0  0  0  0  0  0  0  0  0  0
  185.9970  178.0740  144.8990 S   0  0  0  0  0  0  0  0  0  0  0  0
  185.2950  178.8710  143.5030 N   0  0  2  0  0  0  0  0  0  0  0  0
  185.6990  176.6020  144.8280 O   0  0  0  0  0  0  0  0  0  0  0  0
  189.3290  176.8190  140.6970 C   0  0  0  0  0  2  0  0  0  0  0  0
  183.5310  178.2800  138.7500 N   0  0  0  0  0  0  0  0  0  0  0  0
  188.0720  177.4630  138.8520 N   0  0  0  0  0  0  0  0  0  0  0  0
  182.4830  180.3090  139.3070 O   0  0  0  0  0  0  0  0  0  0  0  0
  187.7790  178.3030  144.8660 C   0  0  2  0  0  3  0  0  0  0  0  0
  187.5860  178.1300  140.0040 C   0  0  0  0  0  0  0  0  0  0  0  0
  188.3440  177.7970  143.5920 C   0  0  0  0  0  0  0  0  0  0  0  0
  188.6690  178.1810  147.2140 C   0  0  0  0  0  1  0  0  0  0  0  0
  189.6790  176.7640  145.2700 C   0  0  1  0  0  3  0  0  0  0  0  0
  187.9090  178.2570  142.4220 C   0  0  0  0  0  3  0  0  0  0  0  0
  184.5720  177.4550  139.3340 C   0  0  0  0  0  2  0  0  0  0  0  0
  185.1380  178.2800  140.5010 C   0  0  1  0  0  3  0  0  0  0  0  0
  188.4360  177.4220  145.9160 C   0  0  2  0  0  3  0  0  0  0  0  0
  183.2380  177.8770  144.3810 O   0  0  0  0  0  1  0  0  0  0  0  0
  183.2740  179.3740  139.6060 C   0  0  0  0  0  0  0  0  0  0  0  0
  184.3830  179.9400  143.9690 C   0  0  0  0  0  2  0  0  0  0  0  0
  189.0640  176.7180  139.2260 C   0  0  0  0  0  3  0  0  0  0  0  0
  189.3560  176.7300  143.7760 C   0  0  0  0  0  2  0  0  0  0  0  0
  183.8250  178.7110  143.4210 C   0  0  2  0  0  0  0  0  0  0  0  0
  186.3800  179.0210  140.0050 C   0  0  0  0  0  2  0  0  0  0  0  0
  184.0550  179.3150  140.8720 C   0  0  1  0  0  3  0  0  0  0  0  0
  183.6540  177.2690  136.6290 O   0  0  0  0  0  1  0  0  0  0  0  0
  182.8430  178.0160  137.4890 C   0  0  1  0  0  3  0  0  0  0  0  0
  181.5180  177.2970  137.7430 C   0  0  1  0  0  3  0  0  0  0  0  0
  181.5730  176.5290  139.0510 C   0  0  0  0  0  1  0  0  0  0  0  0
  180.4580  178.2080  137.7720 O   0  0  0  0  0  1  0  0  0  0  0  0
  181.8470  179.5470  142.1340 C   0  0  0  0  0  2  0  0  0  0  0  0
  180.6640  178.5930  142.1620 C   0  0  0  0  0  3  0  0  0  0  0  0
  180.0170  178.6370  143.5290 C   0  0  0  0  0  1  0  0  0  0  0  0
  179.6460  178.9990  141.1160 C   0  0  0  0  0  1  0  0  0  0  0  0
  191.0000  177.5290  145.5120 C   0  0  1  0  0  3  0  0  0  0  0  0
  192.0440  176.8410  147.7180 C   0  0  0  0  0  0  0  0  0  0  0  0
  191.9250  176.7190  146.2980 N   0  0  0  0  0  2  0  0  0  0  0  0
  191.3300  177.6620  148.3510 O   0  0  0  0  0  0  0  0  0  0  0  0
  193.0130  175.9900  148.4650 C   0  0  2  0  0  3  0  0  0  0  0  0
  192.5450  174.6780  148.5210 O   0  0  0  0  0  1  0  0  0  0  0  0
  193.2160  176.5310  149.8700 C   0  0  0  0  0  2  0  0  0  0  0  0
  194.4590  177.1280  149.9680 F   0  0  0  0  0  0  0  0  0  0  0  0
  191.6800  177.9750  144.2090 C   0  0  0  0  0  2  0  0  0  0  0  0
  191.5390  179.4700  143.9690 C   0  0  0  0  0  1  0  0  0  0  0  0
  1 16  1  0  0  0  0
  2 33  1  1  0  0  0
  2 25  1  0  0  0  0
  4  3  2  0  0  0  0
  5 22  1  1  0  0  0
  5  4  1  0  0  0  0
  6  4  2  0  0  0  0
  7  1  1  0  0  0  0
  8 17  1  0  0  0  0
  8 21  1  0  0  0  0
  9 23  2  0  0  0  0
  9 12  1  0  0  0  0
 10 21  2  0  0  0  0
 11 13  1  6  0  0  0
 11  4  1  0  0  0  0
 11 19  1  0  0  0  0
 12 26  1  0  0  0  0
 12  1  2  0  0  0  0
 13 24  1  0  0  0  0
 15 37  1  6  0  0  0
 15 19  1  0  0  0  0
 16 13  2  0  0  0  0
 18 17  1  6  0  0  0
 18 27  1  0  0  0  0
 19 14  1  1  0  0  0
 23  7  1  0  0  0  0
 24 15  1  0  0  0  0
 25  5  1  0  0  0  0
 25 22  1  0  0  0  0
 25 20  1  1  0  0  0
 26 18  1  0  0  0  0
 27 21  1  6  0  0  0
 27  2  1  0  0  0  0
 29 28  1  6  0  0  0
 29 30  1  0  0  0  0
 29  8  1  0  0  0  0
 30 32  1  0  0  0  0
 30 31  1  1  0  0  0
 33 34  1  0  0  0  0
 34 35  1  0  0  0  0
 36 34  1  0  0  0  0
 37 45  1  6  0  0  0
 37 39  1  0  0  0  0
 38 40  2  0  0  0  0
 38 41  1  0  0  0  0
 39 38  1  0  0  0  0
 41 42  1  1  0  0  0
 41 43  1  0  0  0  0
 43 44  1  0  0  0  0
 46 45  1  0  0  0  0
M  END
>  <MODEL>
9

>  <REMARK>
 VINA RESULT:      -5.8      3.803     10.006
  Name = 
  9 active torsions:
  status: ('A' for Active; 'I' for Inactive)
    1  A    between atoms: C_1  and  C_2
    2  A    between atoms: C_2  and  C_5
    3  A    between atoms: C_3  and  C_12
    4  A    between atoms: C_3  and  C_29
    5  A    between atoms: C_3  and  N_31
    6  A    between atoms: C_6  and  C_34
    7  A    between atoms: C_10  and  C_18
    8  A    between atoms: N_16  and  C_34
    9  A    between atoms: C_17  and  C_18
                            x       y       z     vdW  Elec       q    Type
                         _______ _______ _______ _____ _____    ______ ____

>  <TORSDO>
F 9

$$$$
