=
 OpenBabel11062414213D

 45 51  0  0  1  0  0  0  0  0999 V2000
  188.6660  175.7700  137.4450 N   0  0  0  0  0  0  0  0  0  0  0  0
  185.1620  179.0220  140.0510 C   0  0  2  0  0  3  0  0  0  0  0  0
  186.7270  177.6800  141.9740 C   0  0  2  0  0  3  0  0  0  0  0  0
  187.2030  175.4630  135.2550 O   0  0  0  0  0  0  0  0  0  0  0  0
  186.1120  177.9060  139.5890 C   0  0  2  0  0  3  0  0  0  0  0  0
  185.8640  178.9250  142.2560 C   0  0  2  0  0  3  0  0  0  0  0  0
  189.7730  175.8030  136.7790 C   0  0  0  0  0  3  0  0  0  0  0  0
  191.1900  176.9000  138.5270 C   0  0  0  0  0  3  0  0  0  0  0  0
  189.3510  178.3700  139.2500 C   0  0  0  0  0  2  0  0  0  0  0  0
  190.1190  177.0930  139.5470 C   0  0  0  0  0  2  0  0  0  0  0  0
  187.7460  177.5640  142.9220 O   0  0  0  0  0  1  0  0  0  0  0  0
  184.5100  178.5470  142.8400 C   0  0  0  0  0  2  0  0  0  0  0  0
  187.2800  173.6040  136.8550 O   0  0  0  0  0  0  0  0  0  0  0  0
  191.0470  176.3290  137.3190 C   0  0  0  0  0  0  0  0  0  0  0  0
  185.7790  175.7230  137.5090 C   0  0  0  0  0  2  0  0  0  0  0  0
  185.6960  179.7690  141.1310 O   0  0  0  0  0  0  0  0  0  0  0  0
  182.8860  179.3490  141.1480 C   0  0  1  0  0  3  0  0  0  0  0  0
  188.4060  178.7120  140.3930 C   0  0  0  0  0  2  0  0  0  0  0  0
  185.5950  177.2100  137.2430 C   0  0  0  0  0  2  0  0  0  0  0  0
  187.2870  177.6720  140.5480 C   0  0  1  0  0  3  0  0  0  0  0  0
  187.2480  175.0990  136.7150 S   0  0  0  0  0  0  0  0  0  0  0  0
  183.4760  178.1020  141.7960 C   0  0  1  0  0  3  0  0  0  0  0  0
  186.5110  178.0450  138.1250 C   0  0  0  0  0  2  0  0  0  0  0  0
  183.7680  178.4320  140.3260 C   0  0  2  0  0  3  0  0  0  0  0  0
  192.2380  176.3050  136.3940 C   0  0  1  0  0  3  0  0  0  0  0  0
  192.6260  174.1310  137.4510 O   0  0  0  0  0  1  0  0  0  0  0  0
  193.5600  176.2870  137.1480 C   0  0  0  0  0  2  0  0  0  0  0  0
  193.0800  175.0220  136.4730 C   0  0  2  0  0  3  0  0  0  0  0  0
  181.1590  179.0840  140.7740 S   0  0  0  0  0  0  0  0  0  0  0  0
  180.5500  178.2440  141.8620 O   0  0  0  0  0  0  0  0  0  0  0  0
  180.4400  180.4060  140.7360 O   0  0  0  0  0  0  0  0  0  0  0  0
  180.7810  176.8200  139.1940 C   0  0  0  0  0  0  0  0  0  0  0  0
  180.9920  178.2450  139.2450 N   0  0  0  0  0  0  0  0  0  0  0  0
  180.6620  176.1470  140.2510 O   0  0  0  0  0  0  0  0  0  0  0  0
  180.6970  176.0990  137.8880 C   0  0  0  0  0  1  0  0  0  0  0  0
  179.9400  180.9200  137.4570 C   0  0  0  0  0  0  0  0  0  0  0  0
  178.9310  181.8250  137.1320 C   0  0  0  0  0  3  0  0  0  0  0  0
  182.0700  180.1720  138.0760 C   0  0  0  0  0  2  0  0  0  0  0  0
  181.0890  178.9810  137.9800 C   0  0  2  0  0  3  0  0  0  0  0  0
  181.5660  182.6790  137.6860 C   0  0  0  0  0  3  0  0  0  0  0  0
  181.2130  181.3310  137.7270 C   0  0  0  0  0  0  0  0  0  0  0  0
  179.2590  183.1890  137.0800 C   0  0  0  0  0  3  0  0  0  0  0  0
  179.7840  179.5230  137.5930 N   0  0  0  0  0  2  0  0  0  0  0  0
  180.5720  183.6160  137.3560 C   0  0  0  0  0  0  0  0  0  0  0  0
  180.9080  185.0630  137.2980 C   0  0  0  0  0  1  0  0  0  0  0  0
  2 24  1  0  0  0  0
  2 16  1  1  0  0  0
  3  6  1  0  0  0  0
  3 11  1  1  0  0  0
  4 21  2  0  0  0  0
  5 23  1  6  0  0  0
  5  2  1  0  0  0  0
  5 20  1  0  0  0  0
  6 12  1  6  0  0  0
  7 14  1  0  0  0  0
  7  1  2  0  0  0  0
  8 10  1  0  0  0  0
  9 10  1  0  0  0  0
  9 18  1  0  0  0  0
 14  8  2  0  0  0  0
 16  6  1  0  0  0  0
 17 29  1  6  0  0  0
 17 22  1  0  0  0  0
 19 15  1  0  0  0  0
 19 23  1  0  0  0  0
 20 18  1  1  0  0  0
 20  3  1  0  0  0  0
 21 13  2  0  0  0  0
 21  1  1  0  0  0  0
 21 15  1  0  0  0  0
 22 12  1  1  0  0  0
 24 17  1  0  0  0  0
 24 22  1  0  0  0  0
 25 28  1  0  0  0  0
 25 27  1  0  0  0  0
 25 14  1  0  0  0  0
 28 27  1  0  0  0  0
 28 26  1  0  0  0  0
 29 30  2  0  0  0  0
 31 29  2  0  0  0  0
 32 33  1  0  0  0  0
 32 34  2  0  0  0  0
 33 29  1  0  0  0  0
 35 32  1  0  0  0  0
 36 43  1  0  0  0  0
 36 41  1  0  0  0  0
 37 36  2  0  0  0  0
 39 38  1  0  0  0  0
 39 33  1  0  0  0  0
 40 41  2  0  0  0  0
 41 38  1  0  0  0  0
 42 37  1  0  0  0  0
 42 44  2  0  0  0  0
 43 39  1  0  0  0  0
 44 40  1  0  0  0  0
 45 44  1  0  0  0  0
M  END
>  <MODEL>
1

>  <REMARK>
 VINA RESULT:      -6.9      0.000      0.000
  Name = 
  4 active torsions:
  status: ('A' for Active; 'I' for Inactive)
    1  A    between atoms: S_2  and  C_28
    2  A    between atoms: S_2  and  N_35
    3  A    between atoms: C_8  and  C_22
    4  A    between atoms: C_18  and  N_35
                            x       y       z     vdW  Elec       q    Type
                         _______ _______ _______ _____ _____    ______ ____

>  <TORSDO>
F 4

$$$$
=
 OpenBabel11062414213D

 45 51  0  0  1  0  0  0  0  0999 V2000
  188.9160  175.5330  137.2850 N   0  0  0  0  0  0  0  0  0  0  0  0
  185.1570  178.8580  139.3960 C   0  0  2  0  0  3  0  0  0  0  0  0
  186.7250  177.8370  141.5050 C   0  0  2  0  0  3  0  0  0  0  0  0
  187.5470  174.8940  135.1060 O   0  0  0  0  0  0  0  0  0  0  0  0
  186.1800  177.7520  139.0940 C   0  0  2  0  0  3  0  0  0  0  0  0
  185.7880  179.0550  141.6160 C   0  0  2  0  0  3  0  0  0  0  0  0
  190.0420  175.5530  136.6510 C   0  0  0  0  0  3  0  0  0  0  0  0
  191.3380  176.9210  138.2980 C   0  0  0  0  0  3  0  0  0  0  0  0
  189.4000  178.3580  138.7930 C   0  0  0  0  0  2  0  0  0  0  0  0
  190.2240  177.1690  139.2580 C   0  0  0  0  0  2  0  0  0  0  0  0
  187.7150  177.8880  142.4880 O   0  0  0  0  0  1  0  0  0  0  0  0
  184.4360  178.6700  142.2030 C   0  0  0  0  0  2  0  0  0  0  0  0
  187.6690  173.2380  136.9140 O   0  0  0  0  0  0  0  0  0  0  0  0
  191.2670  176.2090  137.1610 C   0  0  0  0  0  0  0  0  0  0  0  0
  186.0350  175.3300  137.2740 C   0  0  0  0  0  2  0  0  0  0  0  0
  185.6130  179.7530  140.3970 O   0  0  0  0  0  0  0  0  0  0  0  0
  182.8310  179.1790  140.3840 C   0  0  1  0  0  3  0  0  0  0  0  0
  188.3990  178.7740  139.8620 C   0  0  0  0  0  2  0  0  0  0  0  0
  185.7810  176.7630  136.8310 C   0  0  0  0  0  2  0  0  0  0  0  0
  187.3330  177.6970  140.1060 C   0  0  1  0  0  3  0  0  0  0  0  0
  187.5620  174.7030  136.5990 S   0  0  0  0  0  0  0  0  0  0  0  0
  183.4640  178.0500  141.1890 C   0  0  1  0  0  3  0  0  0  0  0  0
  186.6210  177.7450  137.6360 C   0  0  0  0  0  2  0  0  0  0  0  0
  183.7880  178.2250  139.7000 C   0  0  2  0  0  3  0  0  0  0  0  0
  192.4880  176.1460  136.2780 C   0  0  1  0  0  3  0  0  0  0  0  0
  192.8990  174.0760  137.5180 O   0  0  0  0  0  1  0  0  0  0  0  0
  193.7840  176.2280  137.0720 C   0  0  0  0  0  2  0  0  0  0  0  0
  193.3620  174.8990  136.4870 C   0  0  2  0  0  3  0  0  0  0  0  0
  181.1340  178.7740  139.9950 S   0  0  0  0  0  0  0  0  0  0  0  0
  180.9700  177.2800  140.0350 O   0  0  0  0  0  0  0  0  0  0  0  0
  180.2200  179.3790  141.0270 O   0  0  0  0  0  0  0  0  0  0  0  0
  180.6390  180.7600  138.1060 C   0  0  0  0  0  0  0  0  0  0  0  0
  180.7250  179.3510  138.3930 N   0  0  0  0  0  0  0  0  0  0  0  0
  180.9040  181.6160  138.9900 O   0  0  0  0  0  0  0  0  0  0  0  0
  180.2330  181.2490  136.7540 C   0  0  0  0  0  1  0  0  0  0  0  0
  181.4350  176.3310  137.0360 C   0  0  0  0  0  0  0  0  0  0  0  0
  182.3590  175.3210  136.7720 C   0  0  0  0  0  3  0  0  0  0  0  0
  179.4320  177.3110  137.7520 C   0  0  0  0  0  2  0  0  0  0  0  0
  180.4380  178.4010  137.3130 C   0  0  2  0  0  3  0  0  0  0  0  0
  179.7860  174.7480  137.7910 C   0  0  0  0  0  3  0  0  0  0  0  0
  180.1920  176.0570  137.5310 C   0  0  0  0  0  0  0  0  0  0  0  0
  181.9750  173.9940  137.0220 C   0  0  0  0  0  3  0  0  0  0  0  0
  181.6590  177.7170  136.8830 N   0  0  0  0  0  2  0  0  0  0  0  0
  180.6930  173.7070  137.5300 C   0  0  0  0  0  0  0  0  0  0  0  0
  180.2980  172.2980  137.7910 C   0  0  0  0  0  1  0  0  0  0  0  0
  2 24  1  0  0  0  0
  2 16  1  1  0  0  0
  3  6  1  0  0  0  0
  3 11  1  1  0  0  0
  4 21  2  0  0  0  0
  5 23  1  6  0  0  0
  5  2  1  0  0  0  0
  5 20  1  0  0  0  0
  6 12  1  6  0  0  0
  7 14  1  0  0  0  0
  7  1  2  0  0  0  0
  8 10  1  0  0  0  0
  9 10  1  0  0  0  0
  9 18  1  0  0  0  0
 14  8  2  0  0  0  0
 16  6  1  0  0  0  0
 17 29  1  6  0  0  0
 17 22  1  0  0  0  0
 19 15  1  0  0  0  0
 19 23  1  0  0  0  0
 20 18  1  6  0  0  0
 20  3  1  0  0  0  0
 21 13  2  0  0  0  0
 21 15  1  0  0  0  0
 21  1  1  0  0  0  0
 22 12  1  1  0  0  0
 24 17  1  0  0  0  0
 24 22  1  0  0  0  0
 25 28  1  0  0  0  0
 25 27  1  0  0  0  0
 25 14  1  0  0  0  0
 28 27  1  0  0  0  0
 28 26  1  0  0  0  0
 29 30  2  0  0  0  0
 29 31  2  0  0  0  0
 32 33  1  0  0  0  0
 32 34  2  0  0  0  0
 33 29  1  0  0  0  0
 35 32  1  0  0  0  0
 36 41  1  0  0  0  0
 37 42  1  0  0  0  0
 37 36  2  0  0  0  0
 39 38  1  0  0  0  0
 39 33  1  0  0  0  0
 41 38  1  0  0  0  0
 41 40  2  0  0  0  0
 42 44  2  0  0  0  0
 43 36  1  0  0  0  0
 43 39  1  0  0  0  0
 44 45  1  0  0  0  0
 44 40  1  0  0  0  0
M  END
>  <MODEL>
2

>  <REMARK>
 VINA RESULT:      -6.5      1.208      3.779
  Name = 
  4 active torsions:
  status: ('A' for Active; 'I' for Inactive)
    1  A    between atoms: S_2  and  C_28
    2  A    between atoms: S_2  and  N_35
    3  A    between atoms: C_8  and  C_22
    4  A    between atoms: C_18  and  N_35
                            x       y       z     vdW  Elec       q    Type
                         _______ _______ _______ _____ _____    ______ ____

>  <TORSDO>
F 4

$$$$
=
 OpenBabel11062414213D

 45 51  0  0  1  0  0  0  0  0999 V2000
  188.6480  176.1840  135.5970 N   0  0  0  0  0  0  0  0  0  0  0  0
  183.8230  176.5970  138.0840 C   0  0  2  0  0  3  0  0  0  0  0  0
  183.4080  175.5110  135.5150 C   0  0  2  0  0  3  0  0  0  0  0  0
  189.8420  178.1230  136.9540 O   0  0  0  0  0  0  0  0  0  0  0  0
  185.0030  176.5410  137.1010 C   0  0  2  0  0  3  0  0  0  0  0  0
  182.3780  175.4790  136.6610 C   0  0  2  0  0  3  0  0  0  0  0  0
  189.7150  175.4550  135.5730 C   0  0  0  0  0  3  0  0  0  0  0  0
  188.6180  173.2600  135.0790 C   0  0  0  0  0  3  0  0  0  0  0  0
  186.6890  173.7770  136.5200 C   0  0  0  0  0  2  0  0  0  0  0  0
  187.2080  173.7450  135.0920 C   0  0  0  0  0  2  0  0  0  0  0  0
  183.1530  174.4910  134.5960 O   0  0  0  0  0  1  0  0  0  0  0  0
  181.3660  176.6100  136.5360 C   0  0  0  0  0  2  0  0  0  0  0  0
  189.1390  178.5980  134.6500 O   0  0  0  0  0  0  0  0  0  0  0  0
  189.7190  174.0040  135.2800 C   0  0  0  0  0  0  0  0  0  0  0  0
  187.2270  178.5210  136.5250 C   0  0  0  0  0  2  0  0  0  0  0  0
  182.9600  175.4800  137.9510 O   0  0  0  0  0  0  0  0  0  0  0  0
  181.7310  177.9630  138.5810 C   0  0  1  0  0  3  0  0  0  0  0  0
  185.1910  174.0480  136.5450 C   0  0  0  0  0  2  0  0  0  0  0  0
  186.8980  177.9640  137.9020 C   0  0  0  0  0  2  0  0  0  0  0  0
  184.8500  175.4530  136.0290 C   0  0  1  0  0  3  0  0  0  0  0  0
  188.7770  177.8790  135.9190 S   0  0  0  0  0  0  0  0  0  0  0  0
  181.8670  177.9630  137.0630 C   0  0  1  0  0  3  0  0  0  0  0  0
  186.3530  176.5460  137.8060 C   0  0  0  0  0  2  0  0  0  0  0  0
  183.1120  177.9560  137.9590 C   0  0  2  0  0  3  0  0  0  0  0  0
  191.0570  173.3090  135.3120 C   0  0  1  0  0  3  0  0  0  0  0  0
  191.0660  174.0990  137.6290 O   0  0  0  0  0  1  0  0  0  0  0  0
  192.2070  174.2740  135.5600 C   0  0  0  0  0  2  0  0  0  0  0  0
  191.7660  173.3530  136.6750 C   0  0  2  0  0  3  0  0  0  0  0  0
  181.2930  179.5980  139.1540 S   0  0  0  0  0  0  0  0  0  0  0  0
  182.4890  180.4970  139.0140 O   0  0  0  0  0  0  0  0  0  0  0  0
  180.1810  180.1520  138.3040 O   0  0  0  0  0  0  0  0  0  0  0  0
  179.9080  180.5170  141.3900 C   0  0  0  0  0  0  0  0  0  0  0  0
  180.8150  179.5420  140.8380 N   0  0  0  0  0  0  0  0  0  0  0  0
  179.3960  181.4070  140.6620 O   0  0  0  0  0  0  0  0  0  0  0  0
  179.5470  180.5010  142.8400 C   0  0  0  0  0  1  0  0  0  0  0  0
  183.5430  178.3600  142.4570 C   0  0  0  0  0  0  0  0  0  0  0  0
  184.9230  178.1680  142.5010 C   0  0  0  0  0  3  0  0  0  0  0  0
  181.4120  178.9830  143.1990 C   0  0  0  0  0  2  0  0  0  0  0  0
  181.3520  178.5070  141.7290 C   0  0  2  0  0  3  0  0  0  0  0  0
  183.4930  179.1650  144.7250 C   0  0  0  0  0  3  0  0  0  0  0  0
  182.8510  178.8440  143.5290 C   0  0  0  0  0  0  0  0  0  0  0  0
  185.5950  178.4800  143.6940 C   0  0  0  0  0  3  0  0  0  0  0  0
  182.7140  178.1390  141.3360 N   0  0  0  0  0  2  0  0  0  0  0  0
  184.8840  178.9770  144.8030 C   0  0  0  0  0  0  0  0  0  0  0  0
  185.6050  179.3030  146.0610 C   0  0  0  0  0  1  0  0  0  0  0  0
  1 21  1  0  0  0  0
  2 16  1  6  0  0  0
  3 11  1  6  0  0  0
  3 20  1  0  0  0  0
  3  6  1  0  0  0  0
  5 23  1  1  0  0  0
  5  2  1  0  0  0  0
  6 12  1  1  0  0  0
  6 16  1  0  0  0  0
  7  1  2  0  0  0  0
  8 10  1  0  0  0  0
  8 14  2  0  0  0  0
  9 18  1  0  0  0  0
 10  9  1  0  0  0  0
 13 21  2  0  0  0  0
 14 25  1  0  0  0  0
 14  7  1  0  0  0  0
 15 19  1  0  0  0  0
 17 29  1  1  0  0  0
 20 18  1  1  0  0  0
 20  5  1  0  0  0  0
 21 15  1  0  0  0  0
 21  4  2  0  0  0  0
 22 12  1  6  0  0  0
 22 24  1  0  0  0  0
 22 17  1  0  0  0  0
 23 19  1  0  0  0  0
 24  2  1  0  0  0  0
 24 17  1  0  0  0  0
 25 27  1  0  0  0  0
 25 28  1  0  0  0  0
 27 28  1  0  0  0  0
 28 26  1  0  0  0  0
 29 33  1  0  0  0  0
 30 29  2  0  0  0  0
 31 29  2  0  0  0  0
 32 35  1  0  0  0  0
 33 32  1  0  0  0  0
 33 39  1  0  0  0  0
 34 32  2  0  0  0  0
 36 37  2  0  0  0  0
 36 41  1  0  0  0  0
 37 42  1  0  0  0  0
 38 41  1  0  0  0  0
 39 38  1  0  0  0  0
 40 44  1  0  0  0  0
 41 40  2  0  0  0  0
 42 44  2  0  0  0  0
 43 39  1  0  0  0  0
 43 36  1  0  0  0  0
 44 45  1  0  0  0  0
M  END
>  <MODEL>
3

>  <REMARK>
 VINA RESULT:      -6.4      3.040      5.627
  Name = 
  4 active torsions:
  status: ('A' for Active; 'I' for Inactive)
    1  A    between atoms: S_2  and  C_28
    2  A    between atoms: S_2  and  N_35
    3  A    between atoms: C_8  and  C_22
    4  A    between atoms: C_18  and  N_35
                            x       y       z     vdW  Elec       q    Type
                         _______ _______ _______ _____ _____    ______ ____

>  <TORSDO>
F 4

$$$$
=
 OpenBabel11062414213D

 45 51  0  0  1  0  0  0  0  0999 V2000
  181.7780  177.9820  137.6760 N   0  0  0  0  0  0  0  0  0  0  0  0
  187.1430  177.4720  136.8980 C   0  0  2  0  0  3  0  0  0  0  0  0
  185.8750  175.1670  135.8840 C   0  0  2  0  0  3  0  0  0  0  0  0
  181.9410  179.6200  139.7540 O   0  0  0  0  0  0  0  0  0  0  0  0
  185.6390  177.2780  137.1520 C   0  0  2  0  0  3  0  0  0  0  0  0
  187.3240  175.5850  135.5680 C   0  0  2  0  0  3  0  0  0  0  0  0
  180.7390  178.5850  137.1990 C   0  0  0  0  0  3  0  0  0  0  0  0
  180.9070  177.7460  134.8460 C   0  0  0  0  0  3  0  0  0  0  0  0
  183.3660  177.8920  134.8550 C   0  0  0  0  0  2  0  0  0  0  0  0
  182.1700  176.9680  135.0120 C   0  0  0  0  0  2  0  0  0  0  0  0
  185.3760  174.3320  134.8830 O   0  0  0  0  0  1  0  0  0  0  0  0
  188.3230  174.8560  136.4570 C   0  0  0  0  0  2  0  0  0  0  0  0
  181.3800  177.2690  140.1850 O   0  0  0  0  0  0  0  0  0  0  0  0
  180.2730  178.4480  135.8010 C   0  0  0  0  0  0  0  0  0  0  0  0
  183.9310  177.8330  139.5960 C   0  0  0  0  0  2  0  0  0  0  0  0
  187.5400  176.9820  135.6290 O   0  0  0  0  0  0  0  0  0  0  0  0
  189.4080  176.6740  137.7480 C   0  0  1  0  0  3  0  0  0  0  0  0
  184.6610  177.0940  134.7920 C   0  0  0  0  0  2  0  0  0  0  0  0
  184.8210  178.8590  138.9090 C   0  0  0  0  0  2  0  0  0  0  0  0
  184.9600  176.3740  136.1140 C   0  0  1  0  0  3  0  0  0  0  0  0
  182.2040  178.1970  139.3390 S   0  0  0  0  0  0  0  0  0  0  0  0
  188.4820  175.4670  137.8570 C   0  0  1  0  0  3  0  0  0  0  0  0
  184.9150  178.5920  137.4140 C   0  0  0  0  0  2  0  0  0  0  0  0
  187.9440  176.8880  138.0740 C   0  0  2  0  0  3  0  0  0  0  0  0
  179.0500  179.2400  135.4130 C   0  0  1  0  0  3  0  0  0  0  0  0
  180.7190  180.8700  134.6710 O   0  0  0  0  0  1  0  0  0  0  0  0
  178.9310  180.5430  136.1910 C   0  0  0  0  0  2  0  0  0  0  0  0
  179.3510  180.5880  134.7390 C   0  0  2  0  0  3  0  0  0  0  0  0
  190.4180  176.8030  139.2160 S   0  0  0  0  0  0  0  0  0  0  0  0
  191.1060  175.4870  139.4490 O   0  0  0  0  0  0  0  0  0  0  0  0
  191.4710  177.8600  139.0150 O   0  0  0  0  0  0  0  0  0  0  0  0
  188.6730  178.4080  140.6780 C   0  0  0  0  0  0  0  0  0  0  0  0
  189.4220  177.1790  140.6060 N   0  0  0  0  0  0  0  0  0  0  0  0
  188.6770  179.2240  139.7190 O   0  0  0  0  0  0  0  0  0  0  0  0
  187.8700  178.7530  141.8900 C   0  0  0  0  0  1  0  0  0  0  0  0
  190.3700  176.5550  143.7960 C   0  0  0  0  0  0  0  0  0  0  0  0
  191.3220  176.6630  144.8080 C   0  0  0  0  0  3  0  0  0  0  0  0
  188.2710  176.6740  142.7660 C   0  0  0  0  0  2  0  0  0  0  0  0
  189.3490  176.2520  141.7420 C   0  0  2  0  0  3  0  0  0  0  0  0
  188.5950  177.2440  145.2690 C   0  0  0  0  0  3  0  0  0  0  0  0
  189.0520  176.8370  144.0160 C   0  0  0  0  0  0  0  0  0  0  0  0
  190.8890  177.0680  146.0810 C   0  0  0  0  0  3  0  0  0  0  0  0
  190.6280  176.2010  142.4540 N   0  0  0  0  0  2  0  0  0  0  0  0
  189.5300  177.3580  146.3120 C   0  0  0  0  0  0  0  0  0  0  0  0
  189.0830  177.7850  147.6630 C   0  0  0  0  0  1  0  0  0  0  0  0
  1 21  1  0  0  0  0
  2 16  1  6  0  0  0
  2  5  1  0  0  0  0
  2 24  1  0  0  0  0
  3 11  1  6  0  0  0
  3 20  1  0  0  0  0
  5 23  1  6  0  0  0
  6 16  1  0  0  0  0
  6  3  1  0  0  0  0
  6 12  1  1  0  0  0
  7  1  2  0  0  0  0
  8 10  1  0  0  0  0
  8 14  2  0  0  0  0
  9 10  1  0  0  0  0
 14  7  1  0  0  0  0
 17 22  1  0  0  0  0
 17 24  1  0  0  0  0
 17 29  1  1  0  0  0
 18  9  1  0  0  0  0
 19 15  1  0  0  0  0
 20 18  1  6  0  0  0
 20  5  1  0  0  0  0
 21 15  1  0  0  0  0
 21  4  2  0  0  0  0
 21 13  2  0  0  0  0
 22 12  1  6  0  0  0
 22 24  1  0  0  0  0
 23 19  1  0  0  0  0
 25 14  1  0  0  0  0
 25 27  1  0  0  0  0
 26 28  1  0  0  0  0
 28 25  1  0  0  0  0
 28 27  1  0  0  0  0
 29 30  2  0  0  0  0
 29 33  1  0  0  0  0
 31 29  2  0  0  0  0
 32 35  1  0  0  0  0
 33 32  1  0  0  0  0
 33 39  1  0  0  0  0
 34 32  2  0  0  0  0
 36 41  2  0  0  0  0
 36 37  1  0  0  0  0
 37 42  2  0  0  0  0
 38 41  1  0  0  0  0
 39 43  1  0  0  0  0
 39 38  1  0  0  0  0
 40 44  2  0  0  0  0
 41 40  1  0  0  0  0
 42 44  1  0  0  0  0
 43 36  1  0  0  0  0
 44 45  1  0  0  0  0
M  END
>  <MODEL>
4

>  <REMARK>
 VINA RESULT:      -5.9      3.105      9.854
  Name = 
  4 active torsions:
  status: ('A' for Active; 'I' for Inactive)
    1  A    between atoms: S_2  and  C_28
    2  A    between atoms: S_2  and  N_35
    3  A    between atoms: C_8  and  C_22
    4  A    between atoms: C_18  and  N_35
                            x       y       z     vdW  Elec       q    Type
                         _______ _______ _______ _____ _____    ______ ____

>  <TORSDO>
F 4

$$$$
=
 OpenBabel11062414213D

 45 51  0  0  1  0  0  0  0  0999 V2000
  188.4050  177.1400  144.0040 N   0  0  0  0  0  0  0  0  0  0  0  0
  186.1710  178.8920  139.3580 C   0  0  2  0  0  3  0  0  0  0  0  0
  184.2010  177.5060  140.8240 C   0  0  2  0  0  3  0  0  0  0  0  0
  190.8980  177.0420  143.1080 O   0  0  0  0  0  0  0  0  0  0  0  0
  186.5850  178.1380  140.6320 C   0  0  2  0  0  3  0  0  0  0  0  0
  183.9160  178.4420  139.6340 C   0  0  2  0  0  3  0  0  0  0  0  0
  188.7720  177.5580  145.1710 C   0  0  0  0  0  3  0  0  0  0  0  0
  186.5710  178.4980  145.9040 C   0  0  0  0  0  3  0  0  0  0  0  0
  186.0560  179.3410  143.6480 C   0  0  0  0  0  2  0  0  0  0  0  0
  185.8170  178.2210  144.6470 C   0  0  0  0  0  2  0  0  0  0  0  0
  183.0740  177.3930  141.6410 O   0  0  0  0  0  1  0  0  0  0  0  0
  183.7460  177.6630  138.3370 C   0  0  0  0  0  2  0  0  0  0  0  0
  189.6820  174.9240  143.3560 O   0  0  0  0  0  0  0  0  0  0  0  0
  187.8600  178.2030  146.1420 C   0  0  0  0  0  0  0  0  0  0  0  0
  189.0380  176.4710  141.2660 C   0  0  0  0  0  2  0  0  0  0  0  0
  184.8790  179.4660  139.4700 O   0  0  0  0  0  0  0  0  0  0  0  0
  185.6060  178.4700  136.9100 C   0  0  1  0  0  3  0  0  0  0  0  0
  185.1280  179.2040  142.4490 C   0  0  0  0  0  2  0  0  0  0  0  0
  189.0720  177.9060  140.7610 C   0  0  0  0  0  2  0  0  0  0  0  0
  185.4310  177.9440  141.6260 C   0  0  1  0  0  3  0  0  0  0  0  0
  189.5580  176.3710  142.9690 S   0  0  0  0  0  0  0  0  0  0  0  0
  185.0680  177.2610  137.6670 C   0  0  1  0  0  3  0  0  0  0  0  0
  187.8630  178.6900  141.2500 C   0  0  0  0  0  2  0  0  0  0  0  0
  186.3440  177.9740  138.1360 C   0  0  2  0  0  3  0  0  0  0  0  0
  188.4650  178.6440  147.4520 C   0  0  1  0  0  3  0  0  0  0  0  0
  188.3090  176.2570  147.9730 O   0  0  0  0  0  1  0  0  0  0  0  0
  187.5370  178.3970  148.6320 C   0  0  0  0  0  2  0  0  0  0  0  0
  188.7400  177.5020  148.4420 C   0  0  2  0  0  3  0  0  0  0  0  0
  186.4200  177.9390  135.4110 S   0  0  0  0  0  0  0  0  0  0  0  0
  185.4610  177.1090  134.6060 O   0  0  0  0  0  0  0  0  0  0  0  0
  186.8100  179.1410  134.5940 O   0  0  0  0  0  0  0  0  0  0  0  0
  189.0440  177.5790  136.2770 C   0  0  0  0  0  0  0  0  0  0  0  0
  187.8280  176.9710  135.7970 N   0  0  0  0  0  0  0  0  0  0  0  0
  189.1090  178.8200  136.4780 O   0  0  0  0  0  0  0  0  0  0  0  0
  190.2620  176.7570  136.5500 C   0  0  0  0  0  1  0  0  0  0  0  0
  186.3510  174.0520  136.6670 C   0  0  0  0  0  0  0  0  0  0  0  0
  185.7080  173.2700  137.6260 C   0  0  0  0  0  3  0  0  0  0  0  0
  186.7230  175.0790  134.5960 C   0  0  0  0  0  2  0  0  0  0  0  0
  187.8010  175.5160  135.6150 C   0  0  2  0  0  3  0  0  0  0  0  0
  184.7170  173.4940  134.9890 C   0  0  0  0  0  3  0  0  0  0  0  0
  185.8720  174.1630  135.3930 C   0  0  0  0  0  0  0  0  0  0  0  0
  184.5450  172.5830  137.2460 C   0  0  0  0  0  3  0  0  0  0  0  0
  187.5030  174.8390  136.8790 N   0  0  0  0  0  2  0  0  0  0  0  0
  184.0490  172.6930  135.9320 C   0  0  0  0  0  0  0  0  0  0  0  0
  182.8170  171.9610  135.5410 C   0  0  0  0  0  1  0  0  0  0  0  0
  1  7  2  0  0  0  0
  2 16  1  1  0  0  0
  2  5  1  0  0  0  0
  3 20  1  0  0  0  0
  3 11  1  1  0  0  0
  5 23  1  1  0  0  0
  5 20  1  0  0  0  0
  6 12  1  6  0  0  0
  6  3  1  0  0  0  0
  7 14  1  0  0  0  0
  8 14  2  0  0  0  0
  9 10  1  0  0  0  0
 10  8  1  0  0  0  0
 14 25  1  0  0  0  0
 15 21  1  0  0  0  0
 16  6  1  0  0  0  0
 17 29  1  6  0  0  0
 17 22  1  0  0  0  0
 17 24  1  0  0  0  0
 18  9  1  0  0  0  0
 19 23  1  0  0  0  0
 19 15  1  0  0  0  0
 20 18  1  6  0  0  0
 21  4  2  0  0  0  0
 21 13  2  0  0  0  0
 21  1  1  0  0  0  0
 22 24  1  0  0  0  0
 22 12  1  1  0  0  0
 24  2  1  0  0  0  0
 25 28  1  0  0  0  0
 25 27  1  0  0  0  0
 26 28  1  0  0  0  0
 28 27  1  0  0  0  0
 29 33  1  0  0  0  0
 30 29  2  0  0  0  0
 31 29  2  0  0  0  0
 32 34  2  0  0  0  0
 32 35  1  0  0  0  0
 33 32  1  0  0  0  0
 36 43  1  0  0  0  0
 36 37  1  0  0  0  0
 38 41  1  0  0  0  0
 38 39  1  0  0  0  0
 39 33  1  0  0  0  0
 39 43  1  0  0  0  0
 40 41  1  0  0  0  0
 40 44  2  0  0  0  0
 41 36  2  0  0  0  0
 42 37  2  0  0  0  0
 44 42  1  0  0  0  0
 45 44  1  0  0  0  0
M  END
>  <MODEL>
5

>  <REMARK>
 VINA RESULT:      -5.8      3.881      8.099
  Name = 
  4 active torsions:
  status: ('A' for Active; 'I' for Inactive)
    1  A    between atoms: S_2  and  C_28
    2  A    between atoms: S_2  and  N_35
    3  A    between atoms: C_8  and  C_22
    4  A    between atoms: C_18  and  N_35
                            x       y       z     vdW  Elec       q    Type
                         _______ _______ _______ _____ _____    ______ ____

>  <TORSDO>
F 4

$$$$
=
 OpenBabel11062414213D

 45 51  0  0  1  0  0  0  0  0999 V2000
  190.5830  176.0150  137.1920 N   0  0  0  0  0  0  0  0  0  0  0  0
  188.4900  178.4250  141.6020 C   0  0  2  0  0  3  0  0  0  0  0  0
  189.9820  176.1840  142.4390 C   0  0  2  0  0  3  0  0  0  0  0  0
  188.7370  176.8680  135.4910 O   0  0  0  0  0  0  0  0  0  0  0  0
  189.0410  177.4610  140.5400 C   0  0  2  0  0  3  0  0  0  0  0  0
  189.5140  177.3250  143.3630 C   0  0  2  0  0  3  0  0  0  0  0  0
  191.5340  176.1410  136.3250 C   0  0  0  0  0  3  0  0  0  0  0  0
  193.4550  176.1860  137.9280 C   0  0  0  0  0  3  0  0  0  0  0  0
  192.1870  177.5030  139.5790 C   0  0  0  0  0  2  0  0  0  0  0  0
  192.6560  176.1120  139.1860 C   0  0  0  0  0  2  0  0  0  0  0  0
  191.0870  175.5300  142.9870 O   0  0  0  0  0  1  0  0  0  0  0  0
  188.2290  176.9600  144.0950 C   0  0  0  0  0  2  0  0  0  0  0  0
  188.6260  174.5290  136.2300 O   0  0  0  0  0  0  0  0  0  0  0  0
  192.9710  176.1910  136.6750 C   0  0  0  0  0  0  0  0  0  0  0  0
  187.8290  176.4040  137.9690 C   0  0  0  0  0  2  0  0  0  0  0  0
  189.3690  178.5690  142.7050 O   0  0  0  0  0  0  0  0  0  0  0  0
  186.5870  178.6310  143.2840 C   0  0  1  0  0  3  0  0  0  0  0  0
  191.5660  177.4920  140.9690 C   0  0  0  0  0  2  0  0  0  0  0  0
  187.9740  177.8790  138.3170 C   0  0  0  0  0  2  0  0  0  0  0  0
  190.2690  176.6720  141.0150 C   0  0  1  0  0  3  0  0  0  0  0  0
  188.9400  175.9360  136.6550 S   0  0  0  0  0  0  0  0  0  0  0  0
  186.9540  177.1520  143.2610 C   0  0  1  0  0  3  0  0  0  0  0  0
  189.2050  178.1220  139.1770 C   0  0  0  0  0  2  0  0  0  0  0  0
  187.0620  178.0040  141.9900 C   0  0  2  0  0  3  0  0  0  0  0  0
  193.9420  176.3590  135.5330 C   0  0  1  0  0  3  0  0  0  0  0  0
  193.8230  173.9140  135.4780 O   0  0  0  0  0  1  0  0  0  0  0  0
  195.2990  175.7350  135.8280 C   0  0  0  0  0  2  0  0  0  0  0  0
  194.3660  175.0450  134.8590 C   0  0  2  0  0  3  0  0  0  0  0  0
  184.8100  178.8200  143.2930 S   0  0  0  0  0  0  0  0  0  0  0  0
  184.2280  177.8780  144.3090 O   0  0  0  0  0  0  0  0  0  0  0  0
  184.4530  180.2270  143.6900 O   0  0  0  0  0  0  0  0  0  0  0  0
  184.7120  179.0030  140.5140 C   0  0  0  0  0  0  0  0  0  0  0  0
  184.1530  178.4360  141.7150 N   0  0  0  0  0  0  0  0  0  0  0  0
  185.7220  179.7530  140.5650 O   0  0  0  0  0  0  0  0  0  0  0  0
  184.1130  178.7210  139.1760 C   0  0  0  0  0  1  0  0  0  0  0  0
  180.9530  178.1020  140.6620 C   0  0  0  0  0  0  0  0  0  0  0  0
  179.6950  178.6630  140.4470 C   0  0  0  0  0  3  0  0  0  0  0  0
  182.9070  176.9040  140.1840 C   0  0  0  0  0  2  0  0  0  0  0  0
  182.9970  177.5420  141.5900 C   0  0  2  0  0  3  0  0  0  0  0  0
  180.9700  177.0870  138.4790 C   0  0  0  0  0  3  0  0  0  0  0  0
  181.5720  177.3420  139.7100 C   0  0  0  0  0  0  0  0  0  0  0  0
  179.0640  178.4190  139.2170 C   0  0  0  0  0  3  0  0  0  0  0  0
  181.7470  178.2710  141.8160 N   0  0  0  0  0  2  0  0  0  0  0  0
  179.6990  177.6340  138.2350 C   0  0  0  0  0  0  0  0  0  0  0  0
  179.0220  177.3830  136.9360 C   0  0  0  0  0  1  0  0  0  0  0  0
  2 24  1  0  0  0  0
  2 16  1  1  0  0  0
  3 11  1  1  0  0  0
  3  6  1  0  0  0  0
  4 21  2  0  0  0  0
  5 23  1  6  0  0  0
  5 20  1  0  0  0  0
  5  2  1  0  0  0  0
  6 12  1  6  0  0  0
  7 14  1  0  0  0  0
  7  1  2  0  0  0  0
  8 10  1  0  0  0  0
  9 18  1  0  0  0  0
 10  9  1  0  0  0  0
 13 21  2  0  0  0  0
 14  8  2  0  0  0  0
 15 19  1  0  0  0  0
 16  6  1  0  0  0  0
 17 29  1  6  0  0  0
 19 23  1  0  0  0  0
 20 18  1  1  0  0  0
 20  3  1  0  0  0  0
 21  1  1  0  0  0  0
 21 15  1  0  0  0  0
 22 17  1  0  0  0  0
 22 12  1  1  0  0  0
 24 22  1  0  0  0  0
 24 17  1  0  0  0  0
 25 27  1  0  0  0  0
 25 14  1  0  0  0  0
 28 26  1  0  0  0  0
 28 25  1  0  0  0  0
 28 27  1  0  0  0  0
 29 31  2  0  0  0  0
 29 30  2  0  0  0  0
 32 34  2  0  0  0  0
 32 33  1  0  0  0  0
 33 29  1  0  0  0  0
 35 32  1  0  0  0  0
 36 43  1  0  0  0  0
 37 36  1  0  0  0  0
 38 39  1  0  0  0  0
 39 33  1  0  0  0  0
 39 43  1  0  0  0  0
 40 41  1  0  0  0  0
 41 38  1  0  0  0  0
 41 36  2  0  0  0  0
 42 37  2  0  0  0  0
 44 40  2  0  0  0  0
 44 42  1  0  0  0  0
 45 44  1  0  0  0  0
M  END
>  <MODEL>
6

>  <REMARK>
 VINA RESULT:      -5.5      2.928      3.936
  Name = 
  4 active torsions:
  status: ('A' for Active; 'I' for Inactive)
    1  A    between atoms: S_2  and  C_28
    2  A    between atoms: S_2  and  N_35
    3  A    between atoms: C_8  and  C_22
    4  A    between atoms: C_18  and  N_35
                            x       y       z     vdW  Elec       q    Type
                         _______ _______ _______ _____ _____    ______ ____

>  <TORSDO>
F 4

$$$$
=
 OpenBabel11062414213D

 45 51  0  0  1  0  0  0  0  0999 V2000
  188.1010  177.3990  144.4980 N   0  0  0  0  0  0  0  0  0  0  0  0
  186.2040  179.0660  139.6750 C   0  0  2  0  0  3  0  0  0  0  0  0
  184.1600  177.6340  140.9870 C   0  0  2  0  0  3  0  0  0  0  0  0
  190.6600  177.3650  143.8070 O   0  0  0  0  0  0  0  0  0  0  0  0
  186.5340  178.3300  140.9830 C   0  0  2  0  0  3  0  0  0  0  0  0
  183.9470  178.5570  139.7710 C   0  0  2  0  0  3  0  0  0  0  0  0
  188.3610  177.8330  145.6880 C   0  0  0  0  0  3  0  0  0  0  0  0
  186.0830  178.7160  146.2350 C   0  0  0  0  0  3  0  0  0  0  0  0
  185.7300  179.5330  143.9380 C   0  0  0  0  0  2  0  0  0  0  0  0
  185.4410  178.4120  144.9220 C   0  0  0  0  0  2  0  0  0  0  0  0
  182.9740  177.4940  141.7110 O   0  0  0  0  0  1  0  0  0  0  0  0
  183.9040  177.7660  138.4700 C   0  0  0  0  0  2  0  0  0  0  0  0
  189.4860  175.2160  143.9710 O   0  0  0  0  0  0  0  0  0  0  0  0
  187.3560  178.4570  146.5780 C   0  0  0  0  0  0  0  0  0  0  0  0
  188.9710  176.7340  141.8260 C   0  0  0  0  0  2  0  0  0  0  0  0
  184.8920  179.6050  139.6780 O   0  0  0  0  0  0  0  0  0  0  0  0
  185.8500  178.6170  137.1920 C   0  0  1  0  0  3  0  0  0  0  0  0
  184.9060  179.3650  142.6690 C   0  0  0  0  0  2  0  0  0  0  0  0
  189.0070  178.1670  141.3150 C   0  0  0  0  0  2  0  0  0  0  0  0
  185.3090  178.1090  141.8820 C   0  0  1  0  0  3  0  0  0  0  0  0
  189.3550  176.6570  143.5660 S   0  0  0  0  0  0  0  0  0  0  0  0
  185.2860  177.3980  137.9120 C   0  0  1  0  0  3  0  0  0  0  0  0
  187.7420  178.9200  141.6980 C   0  0  0  0  0  2  0  0  0  0  0  0
  186.5000  178.1470  138.4770 C   0  0  2  0  0  3  0  0  0  0  0  0
  187.8410  178.9200  147.9290 C   0  0  1  0  0  3  0  0  0  0  0  0
  189.4460  177.0960  147.6360 O   0  0  0  0  0  1  0  0  0  0  0  0
  187.6680  177.8570  149.0040 C   0  0  0  0  0  2  0  0  0  0  0  0
  189.0530  178.1460  148.4700 C   0  0  2  0  0  3  0  0  0  0  0  0
  186.7980  178.1010  135.7680 S   0  0  0  0  0  0  0  0  0  0  0  0
  186.4310  178.9720  134.5990 O   0  0  0  0  0  0  0  0  0  0  0  0
  188.2670  178.2760  136.0470 O   0  0  0  0  0  0  0  0  0  0  0  0
  185.1400  176.0460  134.8810 C   0  0  0  0  0  0  0  0  0  0  0  0
  186.4380  176.4340  135.3720 N   0  0  0  0  0  0  0  0  0  0  0  0
  184.2440  176.9060  134.6760 O   0  0  0  0  0  0  0  0  0  0  0  0
  184.8170  174.6150  134.6000 C   0  0  0  0  0  1  0  0  0  0  0  0
  189.7410  175.6910  135.3930 C   0  0  0  0  0  0  0  0  0  0  0  0
  191.0240  175.9110  134.8960 C   0  0  0  0  0  3  0  0  0  0  0  0
  188.0470  175.4090  136.9850 C   0  0  0  0  0  2  0  0  0  0  0  0
  187.4530  175.3900  135.5580 C   0  0  2  0  0  3  0  0  0  0  0  0
  190.5200  175.7410  137.6710 C   0  0  0  0  0  3  0  0  0  0  0  0
  189.4950  175.6110  136.7340 C   0  0  0  0  0  0  0  0  0  0  0  0
  192.0760  176.0420  135.8160 C   0  0  0  0  0  3  0  0  0  0  0  0
  188.5640  175.5730  134.6220 N   0  0  0  0  0  2  0  0  0  0  0  0
  191.8260  175.9580  137.2000 C   0  0  0  0  0  0  0  0  0  0  0  0
  192.9470  176.0990  138.1650 C   0  0  0  0  0  1  0  0  0  0  0  0
  1  7  2  0  0  0  0
  2 16  1  1  0  0  0
  2  5  1  0  0  0  0
  3 11  1  1  0  0  0
  3 20  1  0  0  0  0
  5 23  1  1  0  0  0
  5 20  1  0  0  0  0
  6 12  1  6  0  0  0
  6  3  1  0  0  0  0
  7 14  1  0  0  0  0
  8 14  2  0  0  0  0
  9 10  1  0  0  0  0
 10  8  1  0  0  0  0
 14 25  1  0  0  0  0
 15 21  1  0  0  0  0
 16  6  1  0  0  0  0
 17 29  1  6  0  0  0
 17 22  1  0  0  0  0
 17 24  1  0  0  0  0
 18  9  1  0  0  0  0
 19 23  1  0  0  0  0
 19 15  1  0  0  0  0
 20 18  1  6  0  0  0
 21  4  2  0  0  0  0
 21 13  2  0  0  0  0
 21  1  1  0  0  0  0
 22 12  1  1  0  0  0
 22 24  1  0  0  0  0
 24  2  1  0  0  0  0
 25 28  1  0  0  0  0
 25 27  1  0  0  0  0
 26 28  1  0  0  0  0
 28 27  1  0  0  0  0
 29 31  2  0  0  0  0
 30 29  2  0  0  0  0
 32 33  1  0  0  0  0
 33 39  1  0  0  0  0
 33 29  1  0  0  0  0
 34 32  2  0  0  0  0
 35 32  1  0  0  0  0
 36 41  1  0  0  0  0
 37 36  2  0  0  0  0
 37 42  1  0  0  0  0
 39 38  1  0  0  0  0
 41 38  1  0  0  0  0
 41 40  2  0  0  0  0
 42 44  2  0  0  0  0
 43 36  1  0  0  0  0
 43 39  1  0  0  0  0
 44 40  1  0  0  0  0
 44 45  1  0  0  0  0
M  END
>  <MODEL>
7

>  <REMARK>
 VINA RESULT:      -5.3      3.782      8.509
  Name = 
  4 active torsions:
  status: ('A' for Active; 'I' for Inactive)
    1  A    between atoms: S_2  and  C_28
    2  A    between atoms: S_2  and  N_35
    3  A    between atoms: C_8  and  C_22
    4  A    between atoms: C_18  and  N_35
                            x       y       z     vdW  Elec       q    Type
                         _______ _______ _______ _____ _____    ______ ____

>  <TORSDO>
F 4

$$$$
=
 OpenBabel11062414213D

 45 51  0  0  1  0  0  0  0  0999 V2000
  183.7020  173.7730  135.3810 N   0  0  0  0  0  0  0  0  0  0  0  0
  186.9860  177.0680  138.2080 C   0  0  2  0  0  3  0  0  0  0  0  0
  186.7650  178.0740  135.5840 C   0  0  2  0  0  3  0  0  0  0  0  0
  184.1550  171.6000  136.8300 O   0  0  0  0  0  0  0  0  0  0  0  0
  186.2580  176.2270  137.1480 C   0  0  2  0  0  3  0  0  0  0  0  0
  187.3090  178.8680  136.7870 C   0  0  2  0  0  3  0  0  0  0  0  0
  182.4530  173.4850  135.2200 C   0  0  0  0  0  3  0  0  0  0  0  0
  181.6510  175.7740  134.5990 C   0  0  0  0  0  3  0  0  0  0  0  0
  183.1710  176.8590  136.2050 C   0  0  0  0  0  2  0  0  0  0  0  0
  182.9570  176.4800  134.7490 C   0  0  0  0  0  2  0  0  0  0  0  0
  186.2980  178.9410  134.5940 O   0  0  0  0  0  1  0  0  0  0  0  0
  188.8310  178.8410  136.8340 C   0  0  0  0  0  2  0  0  0  0  0  0
  185.2340  171.7600  134.6310 O   0  0  0  0  0  0  0  0  0  0  0  0
  181.4260  174.4640  134.7950 C   0  0  0  0  0  0  0  0  0  0  0  0
  186.2610  173.2420  136.6120 C   0  0  0  0  0  2  0  0  0  0  0  0
  186.7710  178.4590  138.0300 O   0  0  0  0  0  0  0  0  0  0  0  0
  189.3400  177.6830  138.9660 C   0  0  1  0  0  3  0  0  0  0  0  0
  184.3780  177.7740  136.3550 C   0  0  0  0  0  2  0  0  0  0  0  0
  185.9230  173.8810  137.9500 C   0  0  0  0  0  2  0  0  0  0  0  0
  185.6890  177.0630  135.9930 C   0  0  1  0  0  3  0  0  0  0  0  0
  184.8130  172.5320  135.8490 S   0  0  0  0  0  0  0  0  0  0  0  0
  189.4180  177.5620  137.4480 C   0  0  1  0  0  3  0  0  0  0  0  0
  185.2700  175.2430  137.7610 C   0  0  0  0  0  2  0  0  0  0  0  0
  188.4710  176.6660  138.2570 C   0  0  2  0  0  3  0  0  0  0  0  0
  180.0120  173.9540  134.6750 C   0  0  1  0  0  3  0  0  0  0  0  0
  179.8570  174.7460  136.9860 O   0  0  0  0  0  1  0  0  0  0  0  0
  179.7250  172.8060  135.6320 C   0  0  0  0  0  2  0  0  0  0  0  0
  179.1470  174.1720  135.9260 C   0  0  2  0  0  3  0  0  0  0  0  0
  190.7620  176.9020  139.7150 S   0  0  0  0  0  0  0  0  0  0  0  0
  190.8530  175.4850  139.2210 O   0  0  0  0  0  0  0  0  0  0  0  0
  192.0140  177.6300  139.3040 O   0  0  0  0  0  0  0  0  0  0  0  0
  191.6070  177.4710  142.3080 C   0  0  0  0  0  0  0  0  0  0  0  0
  190.5980  176.8900  141.4580 N   0  0  0  0  0  0  0  0  0  0  0  0
  192.6110  178.0480  141.8150 O   0  0  0  0  0  0  0  0  0  0  0  0
  191.4930  177.4070  143.7960 C   0  0  0  0  0  1  0  0  0  0  0  0
  188.5710  176.8010  144.1690 C   0  0  0  0  0  0  0  0  0  0  0  0
  188.4000  176.9440  145.5450 C   0  0  0  0  0  3  0  0  0  0  0  0
  188.1440  177.0910  141.8850 C   0  0  0  0  0  2  0  0  0  0  0  0
  189.4330  176.2610  142.0910 C   0  0  2  0  0  3  0  0  0  0  0  0
  186.6100  178.1160  143.6990 C   0  0  0  0  0  3  0  0  0  0  0  0
  187.7090  177.3690  143.2750 C   0  0  0  0  0  0  0  0  0  0  0  0
  187.3000  177.6880  146.0000 C   0  0  0  0  0  3  0  0  0  0  0  0
  189.6350  176.1240  143.5350 N   0  0  0  0  0  2  0  0  0  0  0  0
  186.4070  178.2730  145.0800 C   0  0  0  0  0  0  0  0  0  0  0  0
  185.2460  179.0600  145.5730 C   0  0  0  0  0  1  0  0  0  0  0  0
  1 21  1  0  0  0  0
  2 16  1  6  0  0  0
  2 24  1  0  0  0  0
  3 11  1  6  0  0  0
  3 20  1  0  0  0  0
  3  6  1  0  0  0  0
  5 23  1  1  0  0  0
  5  2  1  0  0  0  0
  6 12  1  1  0  0  0
  6 16  1  0  0  0  0
  7  1  2  0  0  0  0
  8 10  1  0  0  0  0
  8 14  2  0  0  0  0
  9 18  1  0  0  0  0
 10  9  1  0  0  0  0
 13 21  2  0  0  0  0
 14  7  1  0  0  0  0
 15 19  1  0  0  0  0
 17 29  1  1  0  0  0
 20 18  1  1  0  0  0
 20  5  1  0  0  0  0
 21 15  1  0  0  0  0
 21  4  2  0  0  0  0
 22 12  1  6  0  0  0
 22 24  1  0  0  0  0
 22 17  1  0  0  0  0
 23 19  1  0  0  0  0
 24 17  1  0  0  0  0
 25 14  1  0  0  0  0
 25 27  1  0  0  0  0
 25 28  1  0  0  0  0
 27 28  1  0  0  0  0
 28 26  1  0  0  0  0
 29 33  1  0  0  0  0
 30 29  2  0  0  0  0
 31 29  2  0  0  0  0
 32 35  1  0  0  0  0
 33 39  1  0  0  0  0
 33 32  1  0  0  0  0
 34 32  2  0  0  0  0
 36 37  1  0  0  0  0
 37 42  2  0  0  0  0
 38 39  1  0  0  0  0
 38 41  1  0  0  0  0
 39 43  1  0  0  0  0
 40 44  2  0  0  0  0
 41 40  1  0  0  0  0
 41 36  2  0  0  0  0
 43 36  1  0  0  0  0
 44 45  1  0  0  0  0
 44 42  1  0  0  0  0
M  END
>  <MODEL>
8

>  <REMARK>
 VINA RESULT:      -5.3      4.426      9.137
  Name = 
  4 active torsions:
  status: ('A' for Active; 'I' for Inactive)
    1  A    between atoms: S_2  and  C_28
    2  A    between atoms: S_2  and  N_35
    3  A    between atoms: C_8  and  C_22
    4  A    between atoms: C_18  and  N_35
                            x       y       z     vdW  Elec       q    Type
                         _______ _______ _______ _____ _____    ______ ____

>  <TORSDO>
F 4

$$$$
=
 OpenBabel11062414213D

 45 51  0  0  1  0  0  0  0  0999 V2000
  193.1120  176.2880  138.8950 N   0  0  0  0  0  0  0  0  0  0  0  0
  187.7090  176.7570  138.4290 C   0  0  2  0  0  3  0  0  0  0  0  0
  188.8680  177.3110  135.9190 C   0  0  2  0  0  3  0  0  0  0  0  0
  193.2270  176.8150  141.4900 O   0  0  0  0  0  0  0  0  0  0  0  0
  189.2380  176.8700  138.3250 C   0  0  2  0  0  3  0  0  0  0  0  0
  187.3760  177.0000  136.1500 C   0  0  2  0  0  3  0  0  0  0  0  0
  194.0480  175.3990  138.9670 C   0  0  0  0  0  3  0  0  0  0  0  0
  193.5440  174.1950  136.8310 C   0  0  0  0  0  3  0  0  0  0  0  0
  191.1130  174.4400  137.1420 C   0  0  0  0  0  2  0  0  0  0  0  0
  192.3440  174.9920  136.4430 C   0  0  0  0  0  2  0  0  0  0  0  0
  189.2300  177.0300  134.6000 O   0  0  0  0  0  1  0  0  0  0  0  0
  186.5460  178.2740  136.2420 C   0  0  0  0  0  2  0  0  0  0  0  0
  193.9120  178.5800  139.9280 O   0  0  0  0  0  0  0  0  0  0  0  0
  194.2970  174.3730  137.9290 C   0  0  0  0  0  0  0  0  0  0  0  0
  191.2860  178.1180  140.1810 C   0  0  0  0  0  2  0  0  0  0  0  0
  187.1330  176.1730  137.2720 O   0  0  0  0  0  0  0  0  0  0  0  0
  185.6240  178.2180  138.5420 C   0  0  1  0  0  3  0  0  0  0  0  0
  189.8460  175.0820  136.5940 C   0  0  0  0  0  2  0  0  0  0  0  0
  190.2730  177.0600  140.5940 C   0  0  0  0  0  2  0  0  0  0  0  0
  189.7740  176.5820  136.9160 C   0  0  1  0  0  3  0  0  0  0  0  0
  192.9420  177.4560  140.1590 S   0  0  0  0  0  0  0  0  0  0  0  0
  186.5880  178.9530  137.6180 C   0  0  1  0  0  3  0  0  0  0  0  0
  189.9570  176.1210  139.4390 C   0  0  0  0  0  2  0  0  0  0  0  0
  187.1140  178.1270  138.7990 C   0  0  2  0  0  3  0  0  0  0  0  0
  195.4240  173.4050  138.1890 C   0  0  1  0  0  3  0  0  0  0  0  0
  196.7690  175.1680  137.1520 O   0  0  0  0  0  1  0  0  0  0  0  0
  196.0780  172.9160  136.9050 C   0  0  0  0  0  2  0  0  0  0  0  0
  196.8120  173.9150  137.7700 C   0  0  2  0  0  3  0  0  0  0  0  0
  184.8490  179.3750  139.6610 S   0  0  0  0  0  0  0  0  0  0  0  0
  185.8030  179.6800  140.7820 O   0  0  0  0  0  0  0  0  0  0  0  0
  184.5460  180.6580  138.9340 O   0  0  0  0  0  0  0  0  0  0  0  0
  182.1030  178.9060  139.7100 C   0  0  0  0  0  0  0  0  0  0  0  0
  183.3850  178.6840  140.3300 N   0  0  0  0  0  0  0  0  0  0  0  0
  182.0080  179.5660  138.6420 O   0  0  0  0  0  0  0  0  0  0  0  0
  180.8490  178.3640  140.3150 C   0  0  0  0  0  1  0  0  0  0  0  0
  185.1610  177.8780  143.0970 C   0  0  0  0  0  0  0  0  0  0  0  0
  186.3940  177.6840  143.7180 C   0  0  0  0  0  3  0  0  0  0  0  0
  182.9830  178.6820  142.7950 C   0  0  0  0  0  2  0  0  0  0  0  0
  183.4360  177.8780  141.5550 C   0  0  2  0  0  3  0  0  0  0  0  0
  184.3380  179.1880  144.9410 C   0  0  0  0  0  3  0  0  0  0  0  0
  184.1670  178.6060  143.6850 C   0  0  0  0  0  0  0  0  0  0  0  0
  186.5920  178.2570  144.9850 C   0  0  0  0  0  3  0  0  0  0  0  0
  184.8000  177.4120  141.8140 N   0  0  0  0  0  2  0  0  0  0  0  0
  185.5680  179.0060  145.5950 C   0  0  0  0  0  0  0  0  0  0  0  0
  185.7890  179.6070  146.9360 C   0  0  0  0  0  1  0  0  0  0  0  0
  1  7  2  0  0  0  0
  1 21  1  0  0  0  0
  2 16  1  6  0  0  0
  2 24  1  0  0  0  0
  3 11  1  6  0  0  0
  3  6  1  0  0  0  0
  3 20  1  0  0  0  0
  5  2  1  0  0  0  0
  5 23  1  1  0  0  0
  6 12  1  1  0  0  0
  6 16  1  0  0  0  0
  8 14  2  0  0  0  0
 10  8  1  0  0  0  0
 10  9  1  0  0  0  0
 13 21  2  0  0  0  0
 14 25  1  0  0  0  0
 14  7  1  0  0  0  0
 15 19  1  0  0  0  0
 17 24  1  0  0  0  0
 17 29  1  1  0  0  0
 18  9  1  0  0  0  0
 20 18  1  6  0  0  0
 20  5  1  0  0  0  0
 21 15  1  0  0  0  0
 21  4  2  0  0  0  0
 22 12  1  6  0  0  0
 22 17  1  0  0  0  0
 22 24  1  0  0  0  0
 23 19  1  0  0  0  0
 26 28  1  0  0  0  0
 27 28  1  0  0  0  0
 27 25  1  0  0  0  0
 28 25  1  0  0  0  0
 29 33  1  0  0  0  0
 29 30  2  0  0  0  0
 31 29  2  0  0  0  0
 32 35  1  0  0  0  0
 32 33  1  0  0  0  0
 33 39  1  0  0  0  0
 34 32  2  0  0  0  0
 36 41  2  0  0  0  0
 36 37  1  0  0  0  0
 37 42  2  0  0  0  0
 38 41  1  0  0  0  0
 39 43  1  0  0  0  0
 39 38  1  0  0  0  0
 40 44  2  0  0  0  0
 41 40  1  0  0  0  0
 42 44  1  0  0  0  0
 43 36  1  0  0  0  0
 44 45  1  0  0  0  0
M  END
>  <MODEL>
9

>  <REMARK>
 VINA RESULT:      -5.2      3.078      6.268
  Name = 
  4 active torsions:
  status: ('A' for Active; 'I' for Inactive)
    1  A    between atoms: S_2  and  C_28
    2  A    between atoms: S_2  and  N_35
    3  A    between atoms: C_8  and  C_22
    4  A    between atoms: C_18  and  N_35
                            x       y       z     vdW  Elec       q    Type
                         _______ _______ _______ _____ _____    ______ ____

>  <TORSDO>
F 4

$$$$
