=
 OpenBabel11062412243D

 37 41  0  0  1  0  0  0  0  0999 V2000
  183.1860  178.8900  141.4550 C   0  0  2  0  0  3  0  0  0  0  0  0
  183.5030  176.6810  137.0290 C   0  0  0  0  0  2  0  0  0  0  0  0
  184.0650  178.2110  140.4110 C   0  0  1  0  0  3  0  0  0  0  0  0
  183.2550  177.2330  139.5760 C   0  0  0  0  0  2  0  0  0  0  0  0
  184.7450  178.6610  138.2740 C   0  0  2  0  0  3  0  0  0  0  0  0
  184.7120  179.1720  139.5880 O   0  0  0  0  0  0  0  0  0  0  0  0
  182.7270  177.8100  137.3510 O   0  0  0  0  0  0  0  0  0  0  0  0
  183.7880  177.5080  138.2230 C   0  0  1  0  0  0  0  0  0  0  0  0
  188.2510  177.8080  138.2480 N   0  0  0  0  0  0  0  0  0  0  0  0
  186.1380  178.2500  137.9080 C   0  0  0  0  0  0  0  0  0  0  0  0
  187.9890  177.5340  136.8410 C   0  0  0  0  0  3  0  0  0  0  0  0
  186.5340  177.8590  136.7070 C   0  0  0  0  0  3  0  0  0  0  0  0
  187.2040  178.2120  138.8370 N   0  0  0  0  0  2  0  0  0  0  0  0
  184.9740  178.5810  142.9790 N   0  0  0  0  0  0  0  0  0  0  0  0
  183.7180  178.6720  142.7930 N   0  0  0  0  0  0  0  0  0  0  0  0
  186.6480  177.9430  146.8100 C   0  0  0  0  0  3  0  0  0  0  0  0
  185.5240  178.3690  144.2800 C   0  0  0  0  0  0  0  0  0  0  0  0
  186.8190  177.8530  144.3970 C   0  0  0  0  0  3  0  0  0  0  0  0
  185.3540  178.4580  146.7010 C   0  0  0  0  0  3  0  0  0  0  0  0
  184.7930  178.6710  145.4390 C   0  0  0  0  0  3  0  0  0  0  0  0
  187.3870  177.6390  145.6570 C   0  0  0  0  0  0  0  0  0  0  0  0
  188.7780  177.0810  145.7410 C   0  0  1  0  0  3  0  0  0  0  0  0
  189.6630  177.5470  144.6200 C   0  0  0  0  0  0  0  0  0  0  0  0
  190.0970  178.6890  144.5950 O   0  0  0  0  0  0  0  0  0  0  0  0
  190.0020  176.6060  143.5160 C   0  0  0  0  0  1  0  0  0  0  0  0
  189.4050  177.2750  147.0880 C   0  0  0  0  0  0  0  0  0  0  0  0
  189.1520  178.3090  147.7680 O   0  0  0  0  0  0  0  0  0  0  0  0
  191.6700  176.3360  147.2960 C   0  0  0  0  0  1  0  0  0  0  0  0
  190.2780  176.3010  147.5740 O   0  0  0  0  0  0  0  0  0  0  0  0
  181.8850  178.3840  141.3750 O   0  0  0  0  0  0  0  0  0  0  0  0
  179.0850  180.0200  139.7240 C   0  0  0  0  0  1  0  0  0  0  0  0
  181.0820  179.4940  141.0960 C   0  0  1  0  0  3  0  0  0  0  0  0
  179.4730  180.9160  142.2880 O   0  0  0  0  0  1  0  0  0  0  0  0
  179.6850  179.0170  140.6990 C   0  0  1  0  0  3  0  0  0  0  0  0
  179.9270  179.6110  142.0780 C   0  0  1  0  0  0  0  0  0  0  0  0
  179.8310  177.9510  144.1100 N   0  0  0  0  0  0  0  0  0  0  0  0
  179.8690  178.6840  143.2160 C   0  0  0  0  0  0  0  0  0  0  0  0
  1 30  1  1  0  0  0
  1 15  1  0  0  0  0
  2  7  1  0  0  0  0
  3  1  1  1  0  0  0
  4  3  1  0  0  0  0
  5 10  1  1  0  0  0
  5  6  1  0  0  0  0
  6  3  1  0  0  0  0
  7  8  1  0  0  0  0
  8  2  1  6  0  0  0
  8  5  1  0  0  0  0
  8  4  1  0  0  0  0
  9 13  1  0  0  0  0
 10 13  1  0  0  0  0
 11  9  2  0  0  0  0
 12 11  1  0  0  0  0
 12 10  2  0  0  0  0
 14 17  1  0  0  0  0
 15 14  2  0  0  0  0
 17 18  2  0  0  0  0
 17 20  1  0  0  0  0
 18 21  1  0  0  0  0
 19 16  1  0  0  0  0
 20 19  2  0  0  0  0
 21 22  1  0  0  0  0
 21 16  2  0  0  0  0
 22 23  1  6  0  0  0
 22 26  1  0  0  0  0
 24 23  2  0  0  0  0
 25 23  1  0  0  0  0
 26 29  1  0  0  0  0
 26 27  2  0  0  0  0
 28 29  1  0  0  0  0
 32 30  1  1  0  0  0
 32 35  1  0  0  0  0
 34 31  1  6  0  0  0
 34 32  1  0  0  0  0
 34 35  1  0  0  0  0
 35 33  1  1  0  0  0
 35 37  1  0  0  0  0
 37 36  3  0  0  0  0
M  END
>  <MODEL>
1

>  <REMARK>
 VINA RESULT:      -8.3      0.000      0.000
  Name = 
  11 active torsions:
  status: ('A' for Active; 'I' for Inactive)
    1  A    between atoms: C_3  and  C_12
    2  A    between atoms: C_5  and  C_11
    3  A    between atoms: O_7  and  C_29
    4  A    between atoms: C_8  and  N_25
    5  A    between atoms: C_11  and  O_23
    6  A    between atoms: C_11  and  N_26
    7  A    between atoms: C_12  and  C_29
    8  A    between atoms: C_12  and  C_30
    9  A    between atoms: C_13  and  C_18
   10  A    between atoms: C_16  and  O_23
   11  A    between atoms: C_33  and  C_35
                            x       y       z     vdW  Elec       q    Type
                         _______ _______ _______ _____ _____    ______ ____

>  <TORSDO>
F 11

$$$$
=
 OpenBabel11062412243D

 37 41  0  0  1  0  0  0  0  0999 V2000
  188.1090  178.1370  141.5510 C   0  0  2  0  0  3  0  0  0  0  0  0
  191.7490  175.5850  143.7430 C   0  0  0  0  0  2  0  0  0  0  0  0
  188.6400  177.4760  142.8180 C   0  0  1  0  0  3  0  0  0  0  0  0
  189.5850  176.3350  142.4760 C   0  0  0  0  0  2  0  0  0  0  0  0
  190.3980  177.8070  144.2450 C   0  0  2  0  0  3  0  0  0  0  0  0
  189.2740  178.4280  143.6620 O   0  0  0  0  0  0  0  0  0  0  0  0
  191.8990  176.6380  142.8210 O   0  0  0  0  0  0  0  0  0  0  0  0
  190.6570  176.5460  143.4750 C   0  0  1  0  0  0  0  0  0  0  0  0
  190.6570  176.9680  147.7460 N   0  0  0  0  0  0  0  0  0  0  0  0
  190.1480  177.5340  145.6970 C   0  0  0  0  0  0  0  0  0  0  0  0
  189.2410  177.3140  147.7470 C   0  0  0  0  0  2  0  0  0  0  0  0
  188.9900  177.6860  146.3200 C   0  0  0  0  0  3  0  0  0  0  0  0
  191.1550  177.0930  146.5870 N   0  0  0  0  0  0  0  0  0  0  0  0
  186.0070  177.9940  142.6360 N   0  0  0  0  0  0  0  0  0  0  0  0
  186.7170  178.5260  141.7230 N   0  0  0  0  0  0  0  0  0  0  0  0
  181.9470  179.0570  143.1600 C   0  0  0  0  0  3  0  0  0  0  0  0
  184.6390  178.3580  142.8290 C   0  0  0  0  0  0  0  0  0  0  0  0
  183.7670  178.3360  141.7350 C   0  0  0  0  0  3  0  0  0  0  0  0
  182.8130  179.0810  144.2570 C   0  0  0  0  0  3  0  0  0  0  0  0
  184.1560  178.7320  144.0920 C   0  0  0  0  0  3  0  0  0  0  0  0
  182.4210  178.6830  141.8940 C   0  0  0  0  0  0  0  0  0  0  0  0
  181.5170  178.6500  140.6960 C   0  0  1  0  0  3  0  0  0  0  0  0
  180.2910  179.5000  140.8660 C   0  0  0  0  0  0  0  0  0  0  0  0
  180.3680  180.7200  140.8680 O   0  0  0  0  0  0  0  0  0  0  0  0
  178.9660  178.8450  141.0510 C   0  0  0  0  0  1  0  0  0  0  0  0
  182.2380  178.9300  139.4120 C   0  0  0  0  0  0  0  0  0  0  0  0
  182.7400  180.0680  139.1960 O   0  0  0  0  0  0  0  0  0  0  0  0
  181.2990  176.9700  138.2590 C   0  0  0  0  0  1  0  0  0  0  0  0
  182.3380  177.9160  138.4590 O   0  0  0  0  0  0  0  0  0  0  0  0
  188.2240  177.2520  140.4750 O   0  0  0  0  0  0  0  0  0  0  0  0
  190.6550  177.2190  137.7680 C   0  0  0  0  0  1  0  0  0  0  0  0
  189.1030  177.8770  139.5860 C   0  0  1  0  0  3  0  0  0  0  0  0
  188.9600  179.3730  137.6430 O   0  0  0  0  0  1  0  0  0  0  0  0
  189.2610  177.0060  138.3390 C   0  0  1  0  0  3  0  0  0  0  0  0
  188.4080  178.2650  138.2900 C   0  0  1  0  0  0  0  0  0  0  0  0
  185.8100  177.9330  138.0940 N   0  0  0  0  0  0  0  0  0  0  0  0
  186.9550  178.0750  138.1820 C   0  0  0  0  0  0  0  0  0  0  0  0
  1 30  1  6  0  0  0
  1 15  1  0  0  0  0
  3  1  1  6  0  0  0
  3  6  1  0  0  0  0
  4  3  1  0  0  0  0
  5 10  1  1  0  0  0
  6  5  1  0  0  0  0
  7  8  1  0  0  0  0
  7  2  1  0  0  0  0
  8  4  1  6  0  0  0
  8  2  1  0  0  0  0
  8  5  1  0  0  0  0
  9 11  1  0  0  0  0
 10 12  2  0  0  0  0
 10 13  1  0  0  0  0
 12 11  1  0  0  0  0
 13  9  2  0  0  0  0
 14 17  1  0  0  0  0
 15 14  2  0  0  0  0
 16 19  1  0  0  0  0
 17 20  1  0  0  0  0
 18 21  1  0  0  0  0
 18 17  2  0  0  0  0
 20 19  2  0  0  0  0
 21 16  2  0  0  0  0
 22 26  1  6  0  0  0
 22 23  1  0  0  0  0
 22 21  1  0  0  0  0
 23 24  2  0  0  0  0
 23 25  1  0  0  0  0
 27 26  2  0  0  0  0
 28 29  1  0  0  0  0
 29 26  1  0  0  0  0
 32 30  1  1  0  0  0
 34 31  1  6  0  0  0
 34 32  1  0  0  0  0
 35 33  1  6  0  0  0
 35 34  1  0  0  0  0
 35 32  1  0  0  0  0
 36 37  3  0  0  0  0
 37 35  1  0  0  0  0
M  END
>  <MODEL>
2

>  <REMARK>
 VINA RESULT:      -8.3      2.625      8.722
  Name = 
  11 active torsions:
  status: ('A' for Active; 'I' for Inactive)
    1  A    between atoms: C_3  and  C_12
    2  A    between atoms: C_5  and  C_11
    3  A    between atoms: O_7  and  C_29
    4  A    between atoms: C_8  and  N_25
    5  A    between atoms: C_11  and  O_23
    6  A    between atoms: C_11  and  N_26
    7  A    between atoms: C_12  and  C_29
    8  A    between atoms: C_12  and  C_30
    9  A    between atoms: C_13  and  C_18
   10  A    between atoms: C_16  and  O_23
   11  A    between atoms: C_33  and  C_35
                            x       y       z     vdW  Elec       q    Type
                         _______ _______ _______ _____ _____    ______ ____

>  <TORSDO>
F 11

$$$$
=
 OpenBabel11062412243D

 37 41  0  0  1  0  0  0  0  0999 V2000
  187.7710  177.4260  143.9050 C   0  0  2  0  0  3  0  0  0  0  0  0
  192.0580  177.6220  141.4250 C   0  0  0  0  0  2  0  0  0  0  0  0
  188.5190  177.8730  142.6540 C   0  0  1  0  0  3  0  0  0  0  0  0
  189.9910  178.1010  142.9580 C   0  0  0  0  0  2  0  0  0  0  0  0
  189.5800  176.8460  140.9050 C   0  0  2  0  0  3  0  0  0  0  0  0
  188.3550  176.9330  141.6000 O   0  0  0  0  0  0  0  0  0  0  0  0
  191.5680  176.5330  142.1700 O   0  0  0  0  0  0  0  0  0  0  0  0
  190.6230  177.4940  141.7650 C   0  0  1  0  0  0  0  0  0  0  0  0
  188.9420  179.0870  138.1490 N   0  0  0  0  0  0  0  0  0  0  0  0
  189.4680  177.5090  139.5660 C   0  0  0  0  0  0  0  0  0  0  0  0
  189.5940  178.0360  137.3800 C   0  0  0  0  0  3  0  0  0  0  0  0
  189.9160  177.0130  138.4230 C   0  0  0  0  0  3  0  0  0  0  0  0
  188.8740  178.7780  139.3770 N   0  0  0  0  0  2  0  0  0  0  0  0
  185.8450  178.4850  143.0180 N   0  0  0  0  0  0  0  0  0  0  0  0
  186.3330  177.5300  143.7040 N   0  0  0  0  0  0  0  0  0  0  0  0
  181.6870  178.8430  142.3340 C   0  0  0  0  0  3  0  0  0  0  0  0
  184.4380  178.6100  142.8030 C   0  0  0  0  0  0  0  0  0  0  0  0
  183.9360  178.5080  141.5020 C   0  0  0  0  0  3  0  0  0  0  0  0
  182.1820  178.9470  143.6360 C   0  0  0  0  0  3  0  0  0  0  0  0
  183.5550  178.8310  143.8710 C   0  0  0  0  0  3  0  0  0  0  0  0
  182.5630  178.6220  141.2600 C   0  0  0  0  0  0  0  0  0  0  0  0
  182.0630  178.5090  139.8490 C   0  0  1  0  0  3  0  0  0  0  0  0
  182.2610  179.7690  139.0570 C   0  0  0  0  0  0  0  0  0  0  0  0
  183.3350  180.3540  139.0660 O   0  0  0  0  0  0  0  0  0  0  0  0
  181.1290  180.3200  138.2610 C   0  0  0  0  0  1  0  0  0  0  0  0
  182.5810  177.2950  139.1410 C   0  0  0  0  0  0  0  0  0  0  0  0
  182.4820  176.1530  139.6720 O   0  0  0  0  0  0  0  0  0  0  0  0
  184.5370  177.0910  137.6630 C   0  0  0  0  0  1  0  0  0  0  0  0
  183.1820  177.4470  137.8910 O   0  0  0  0  0  0  0  0  0  0  0  0
  188.1550  178.2190  144.9900 O   0  0  0  0  0  0  0  0  0  0  0  0
  190.3690  177.2120  147.6970 C   0  0  0  0  0  1  0  0  0  0  0  0
  188.6080  177.3140  145.9550 C   0  0  1  0  0  3  0  0  0  0  0  0
  187.7920  176.3460  148.0600 O   0  0  0  0  0  1  0  0  0  0  0  0
  189.2800  178.0840  147.0920 C   0  0  1  0  0  3  0  0  0  0  0  0
  187.8880  177.5020  147.2810 C   0  0  1  0  0  0  0  0  0  0  0  0
  185.9020  179.2150  147.4160 N   0  0  0  0  0  0  0  0  0  0  0  0
  186.7750  178.4580  147.3530 C   0  0  0  0  0  0  0  0  0  0  0  0
  1 15  1  6  0  0  0
  1 30  1  0  0  0  0
  2  7  1  0  0  0  0
  3  4  1  0  0  0  0
  3  1  1  1  0  0  0
  5 10  1  6  0  0  0
  5  6  1  0  0  0  0
  5  8  1  0  0  0  0
  6  3  1  0  0  0  0
  8  2  1  6  0  0  0
  8  7  1  0  0  0  0
  8  4  1  0  0  0  0
  9 13  1  0  0  0  0
 11  9  2  0  0  0  0
 11 12  1  0  0  0  0
 12 10  2  0  0  0  0
 13 10  1  0  0  0  0
 14 15  2  0  0  0  0
 16 19  1  0  0  0  0
 17 14  1  0  0  0  0
 17 20  1  0  0  0  0
 18 17  2  0  0  0  0
 19 20  2  0  0  0  0
 21 18  1  0  0  0  0
 21 16  2  0  0  0  0
 22 23  1  6  0  0  0
 22 21  1  0  0  0  0
 23 24  2  0  0  0  0
 25 23  1  0  0  0  0
 26 27  2  0  0  0  0
 26 22  1  0  0  0  0
 28 29  1  0  0  0  0
 29 26  1  0  0  0  0
 32 30  1  6  0  0  0
 32 34  1  0  0  0  0
 32 35  1  0  0  0  0
 34 35  1  0  0  0  0
 34 31  1  1  0  0  0
 35 37  1  0  0  0  0
 35 33  1  1  0  0  0
 37 36  3  0  0  0  0
M  END
>  <MODEL>
3

>  <REMARK>
 VINA RESULT:      -8.2      2.138      7.872
  Name = 
  11 active torsions:
  status: ('A' for Active; 'I' for Inactive)
    1  A    between atoms: C_3  and  C_12
    2  A    between atoms: C_5  and  C_11
    3  A    between atoms: O_7  and  C_29
    4  A    between atoms: C_8  and  N_25
    5  A    between atoms: C_11  and  O_23
    6  A    between atoms: C_11  and  N_26
    7  A    between atoms: C_12  and  C_29
    8  A    between atoms: C_12  and  C_30
    9  A    between atoms: C_13  and  C_18
   10  A    between atoms: C_16  and  O_23
   11  A    between atoms: C_33  and  C_35
                            x       y       z     vdW  Elec       q    Type
                         _______ _______ _______ _____ _____    ______ ____

>  <TORSDO>
F 11

$$$$
=
 OpenBabel11062412243D

 37 41  0  0  1  0  0  0  0  0999 V2000
  188.3040  177.5320  143.1480 C   0  0  2  0  0  3  0  0  0  0  0  0
  184.4430  178.6490  146.0480 C   0  0  0  0  0  2  0  0  0  0  0  0
  186.7900  177.5700  143.3240 C   0  0  1  0  0  3  0  0  0  0  0  0
  186.4140  177.4690  144.7940 C   0  0  0  0  0  2  0  0  0  0  0  0
  185.1940  179.1910  143.5670 C   0  0  2  0  0  3  0  0  0  0  0  0
  186.2400  178.7410  142.7350 O   0  0  0  0  0  0  0  0  0  0  0  0
  185.6230  179.4000  145.8960 O   0  0  0  0  0  0  0  0  0  0  0  0
  185.3300  178.4740  144.8770 C   0  0  1  0  0  0  0  0  0  0  0  0
  181.6860  178.8690  142.7810 N   0  0  0  0  0  0  0  0  0  0  0  0
  183.8660  178.9310  142.9230 C   0  0  0  0  0  0  0  0  0  0  0  0
  182.2020  178.4110  141.4970 C   0  0  0  0  0  3  0  0  0  0  0  0
  183.6840  178.4900  141.6880 C   0  0  0  0  0  3  0  0  0  0  0  0
  182.6310  179.1560  143.5750 N   0  0  0  0  0  2  0  0  0  0  0  0
  189.2050  178.0310  141.0140 N   0  0  0  0  0  0  0  0  0  0  0  0
  188.6510  177.1780  141.7790 N   0  0  0  0  0  0  0  0  0  0  0  0
  190.2760  177.0440  137.0440 C   0  0  0  0  0  3  0  0  0  0  0  0
  189.5580  177.7110  139.6670 C   0  0  0  0  0  0  0  0  0  0  0  0
  190.4840  176.6910  139.4300 C   0  0  0  0  0  3  0  0  0  0  0  0
  189.3510  178.0650  137.2740 C   0  0  0  0  0  3  0  0  0  0  0  0
  188.9920  178.3980  138.5830 C   0  0  0  0  0  3  0  0  0  0  0  0
  190.8470  176.3510  138.1220 C   0  0  0  0  0  0  0  0  0  0  0  0
  191.8460  175.2520  137.9080 C   0  0  1  0  0  3  0  0  0  0  0  0
  191.5400  174.4110  136.7020 C   0  0  0  0  0  0  0  0  0  0  0  0
  192.2160  174.4980  135.6870 O   0  0  0  0  0  0  0  0  0  0  0  0
  190.3860  173.4690  136.7390 C   0  0  0  0  0  1  0  0  0  0  0  0
  193.2630  175.7390  137.9260 C   0  0  0  0  0  0  0  0  0  0  0  0
  193.5340  176.9300  137.6040 O   0  0  0  0  0  0  0  0  0  0  0  0
  195.2990  174.4670  137.3900 C   0  0  0  0  0  1  0  0  0  0  0  0
  194.2770  174.8540  138.2950 O   0  0  0  0  0  0  0  0  0  0  0  0
  188.8560  176.6000  144.0320 O   0  0  0  0  0  0  0  0  0  0  0  0
  191.5380  179.0580  144.1170 C   0  0  0  0  0  1  0  0  0  0  0  0
  190.1980  176.9720  144.1580 C   0  0  1  0  0  3  0  0  0  0  0  0
  191.9110  177.0220  145.9180 O   0  0  0  0  0  1  0  0  0  0  0  0
  190.2750  178.4130  144.6670 C   0  0  1  0  0  3  0  0  0  0  0  0
  190.5690  177.2530  145.6060 C   0  0  1  0  0  0  0  0  0  0  0  0
  188.8000  176.7690  147.4860 N   0  0  0  0  0  0  0  0  0  0  0  0
  189.5760  176.9840  146.6550 C   0  0  0  0  0  0  0  0  0  0  0  0
  1 15  1  6  0  0  0
  1 30  1  0  0  0  0
  3  1  1  1  0  0  0
  3  4  1  0  0  0  0
  5 10  1  6  0  0  0
  5  8  1  0  0  0  0
  6  3  1  0  0  0  0
  6  5  1  0  0  0  0
  7  2  1  0  0  0  0
  8  4  1  6  0  0  0
  8  7  1  0  0  0  0
  8  2  1  0  0  0  0
  9 13  1  0  0  0  0
 10 13  1  0  0  0  0
 11 12  1  0  0  0  0
 11  9  2  0  0  0  0
 12 10  2  0  0  0  0
 14 15  2  0  0  0  0
 16 19  2  0  0  0  0
 16 21  1  0  0  0  0
 17 14  1  0  0  0  0
 18 17  1  0  0  0  0
 19 20  1  0  0  0  0
 20 17  2  0  0  0  0
 21 18  2  0  0  0  0
 22 23  1  6  0  0  0
 22 26  1  0  0  0  0
 22 21  1  0  0  0  0
 23 25  1  0  0  0  0
 24 23  2  0  0  0  0
 26 29  1  0  0  0  0
 27 26  2  0  0  0  0
 28 29  1  0  0  0  0
 32 30  1  1  0  0  0
 32 34  1  0  0  0  0
 32 35  1  0  0  0  0
 34 31  1  6  0  0  0
 34 35  1  0  0  0  0
 35 33  1  1  0  0  0
 35 37  1  0  0  0  0
 37 36  3  0  0  0  0
M  END
>  <MODEL>
4

>  <REMARK>
 VINA RESULT:      -8.2      3.914      8.666
  Name = 
  11 active torsions:
  status: ('A' for Active; 'I' for Inactive)
    1  A    between atoms: C_3  and  C_12
    2  A    between atoms: C_5  and  C_11
    3  A    between atoms: O_7  and  C_29
    4  A    between atoms: C_8  and  N_25
    5  A    between atoms: C_11  and  O_23
    6  A    between atoms: C_11  and  N_26
    7  A    between atoms: C_12  and  C_29
    8  A    between atoms: C_12  and  C_30
    9  A    between atoms: C_13  and  C_18
   10  A    between atoms: C_16  and  O_23
   11  A    between atoms: C_33  and  C_35
                            x       y       z     vdW  Elec       q    Type
                         _______ _______ _______ _____ _____    ______ ____

>  <TORSDO>
F 11

$$$$
=
 OpenBabel11062412243D

 37 41  0  0  1  0  0  0  0  0999 V2000
  184.1810  178.1500  139.0220 C   0  0  2  0  0  3  0  0  0  0  0  0
  179.5590  179.7650  139.7920 C   0  0  0  0  0  2  0  0  0  0  0  0
  182.9660  178.8940  138.4790 C   0  0  1  0  0  3  0  0  0  0  0  0
  181.6890  178.3940  139.1340 C   0  0  0  0  0  2  0  0  0  0  0  0
  181.8460  180.8250  138.9830 C   0  0  2  0  0  3  0  0  0  0  0  0
  183.1110  180.2980  138.6490 O   0  0  0  0  0  0  0  0  0  0  0  0
  180.6150  179.7700  140.7210 O   0  0  0  0  0  0  0  0  0  0  0  0
  180.9720  179.6680  139.3640 C   0  0  1  0  0  0  0  0  0  0  0  0
  180.7770  183.3770  136.6660 N   0  0  0  0  0  0  0  0  0  0  0  0
  181.2820  181.5980  137.8300 C   0  0  0  0  0  0  0  0  0  0  0  0
  180.3380  182.2280  135.8850 C   0  0  0  0  0  3  0  0  0  0  0  0
  180.7240  181.0710  136.7510 C   0  0  0  0  0  3  0  0  0  0  0  0
  181.3040  183.0100  137.7590 N   0  0  0  0  0  2  0  0  0  0  0  0
  184.6260  178.8700  141.2350 N   0  0  0  0  0  0  0  0  0  0  0  0
  184.0890  178.0090  140.4680 N   0  0  0  0  0  0  0  0  0  0  0  0
  184.4500  178.5220  145.4460 C   0  0  0  0  0  3  0  0  0  0  0  0
  184.5510  178.7580  142.6570 C   0  0  0  0  0  0  0  0  0  0  0  0
  185.6170  178.1810  143.3520 C   0  0  0  0  0  3  0  0  0  0  0  0
  183.3800  179.1000  144.7560 C   0  0  0  0  0  3  0  0  0  0  0  0
  183.4300  179.2180  143.3650 C   0  0  0  0  0  3  0  0  0  0  0  0
  185.5750  178.0610  144.7450 C   0  0  0  0  0  0  0  0  0  0  0  0
  186.7390  177.4330  145.4560 C   0  0  1  0  0  3  0  0  0  0  0  0
  187.9800  177.3830  144.6130 C   0  0  0  0  0  0  0  0  0  0  0  0
  188.8600  178.2230  144.7400 O   0  0  0  0  0  0  0  0  0  0  0  0
  188.1330  176.3050  143.5970 C   0  0  0  0  0  1  0  0  0  0  0  0
  186.9850  178.0260  146.8100 C   0  0  0  0  0  0  0  0  0  0  0  0
  186.4380  179.1150  147.1400 O   0  0  0  0  0  0  0  0  0  0  0  0
  188.8050  178.0520  148.4650 C   0  0  0  0  0  1  0  0  0  0  0  0
  187.8340  177.3600  147.6950 O   0  0  0  0  0  0  0  0  0  0  0  0
  185.3460  178.8460  138.6870 O   0  0  0  0  0  0  0  0  0  0  0  0
  187.5110  178.2140  135.8310 C   0  0  0  0  0  1  0  0  0  0  0  0
  186.0320  178.0000  137.8090 C   0  0  1  0  0  3  0  0  0  0  0  0
  187.9400  176.4570  137.8940 O   0  0  0  0  0  1  0  0  0  0  0  0
  187.2350  178.7450  137.2290 C   0  0  1  0  0  3  0  0  0  0  0  0
  187.4340  177.6910  138.3080 C   0  0  1  0  0  0  0  0  0  0  0  0
  188.1570  178.5510  140.6820 N   0  0  0  0  0  0  0  0  0  0  0  0
  187.8340  178.1730  139.6370 C   0  0  0  0  0  0  0  0  0  0  0  0
  1 30  1  1  0  0  0
  1 15  1  0  0  0  0
  2  7  1  0  0  0  0
  3  6  1  0  0  0  0
  3  1  1  1  0  0  0
  3  4  1  0  0  0  0
  5 10  1  6  0  0  0
  5  8  1  0  0  0  0
  6  5  1  0  0  0  0
  8  4  1  6  0  0  0
  8  2  1  0  0  0  0
  8  7  1  0  0  0  0
  9 13  1  0  0  0  0
 11  9  2  0  0  0  0
 11 12  1  0  0  0  0
 12 10  2  0  0  0  0
 13 10  1  0  0  0  0
 14 17  1  0  0  0  0
 15 14  2  0  0  0  0
 17 18  2  0  0  0  0
 17 20  1  0  0  0  0
 18 21  1  0  0  0  0
 19 16  1  0  0  0  0
 20 19  2  0  0  0  0
 21 16  2  0  0  0  0
 21 22  1  0  0  0  0
 22 23  1  6  0  0  0
 22 26  1  0  0  0  0
 23 24  2  0  0  0  0
 25 23  1  0  0  0  0
 26 27  2  0  0  0  0
 26 29  1  0  0  0  0
 29 28  1  0  0  0  0
 32 35  1  0  0  0  0
 32 30  1  1  0  0  0
 34 31  1  6  0  0  0
 34 32  1  0  0  0  0
 34 35  1  0  0  0  0
 35 33  1  6  0  0  0
 35 37  1  0  0  0  0
 37 36  3  0  0  0  0
M  END
>  <MODEL>
5

>  <REMARK>
 VINA RESULT:      -8.2      2.697      5.346
  Name = 
  11 active torsions:
  status: ('A' for Active; 'I' for Inactive)
    1  A    between atoms: C_3  and  C_12
    2  A    between atoms: C_5  and  C_11
    3  A    between atoms: O_7  and  C_29
    4  A    between atoms: C_8  and  N_25
    5  A    between atoms: C_11  and  O_23
    6  A    between atoms: C_11  and  N_26
    7  A    between atoms: C_12  and  C_29
    8  A    between atoms: C_12  and  C_30
    9  A    between atoms: C_13  and  C_18
   10  A    between atoms: C_16  and  O_23
   11  A    between atoms: C_33  and  C_35
                            x       y       z     vdW  Elec       q    Type
                         _______ _______ _______ _____ _____    ______ ____

>  <TORSDO>
F 11

$$$$
=
 OpenBabel11062412243D

 37 41  0  0  1  0  0  0  0  0999 V2000
  188.3670  177.4150  143.3380 C   0  0  2  0  0  3  0  0  0  0  0  0
  184.4750  178.6290  146.1570 C   0  0  0  0  0  2  0  0  0  0  0  0
  186.8510  177.5000  143.4790 C   0  0  1  0  0  3  0  0  0  0  0  0
  186.4370  177.3980  144.9380 C   0  0  0  0  0  2  0  0  0  0  0  0
  185.3010  179.1690  143.7000 C   0  0  2  0  0  3  0  0  0  0  0  0
  186.3520  178.6930  142.8880 O   0  0  0  0  0  0  0  0  0  0  0  0
  185.6820  179.3430  146.0390 O   0  0  0  0  0  0  0  0  0  0  0  0
  185.3840  178.4360  145.0060 C   0  0  1  0  0  0  0  0  0  0  0  0
  181.8070  179.0020  142.8130 N   0  0  0  0  0  0  0  0  0  0  0  0
  183.9820  178.9570  143.0220 C   0  0  0  0  0  0  0  0  0  0  0  0
  182.3360  178.4780  141.5610 C   0  0  0  0  0  3  0  0  0  0  0  0
  183.8140  178.4880  141.7960 C   0  0  0  0  0  3  0  0  0  0  0  0
  182.7420  179.2650  143.6280 N   0  0  0  0  0  2  0  0  0  0  0  0
  189.4330  177.7300  141.2450 N   0  0  0  0  0  0  0  0  0  0  0  0
  188.7330  176.9800  141.9980 N   0  0  0  0  0  0  0  0  0  0  0  0
  190.5010  176.5610  137.3240 C   0  0  0  0  0  3  0  0  0  0  0  0
  189.8080  177.3280  139.9270 C   0  0  0  0  0  0  0  0  0  0  0  0
  188.9020  177.5070  138.8770 C   0  0  0  0  0  3  0  0  0  0  0  0
  191.4110  176.3800  138.3690 C   0  0  0  0  0  3  0  0  0  0  0  0
  191.0660  176.7630  139.6680 C   0  0  0  0  0  3  0  0  0  0  0  0
  189.2420  177.1270  137.5740 C   0  0  0  0  0  0  0  0  0  0  0  0
  188.2410  177.3320  136.4730 C   0  0  1  0  0  3  0  0  0  0  0  0
  187.6630  176.0430  135.9630 C   0  0  0  0  0  0  0  0  0  0  0  0
  187.3380  175.9220  134.7910 O   0  0  0  0  0  0  0  0  0  0  0  0
  187.4700  174.9040  136.9020 C   0  0  0  0  0  1  0  0  0  0  0  0
  187.1870  178.3380  136.8220 C   0  0  0  0  0  0  0  0  0  0  0  0
  187.4610  179.5710  136.8410 O   0  0  0  0  0  0  0  0  0  0  0  0
  185.2570  178.2520  138.3450 C   0  0  0  0  0  1  0  0  0  0  0  0
  185.9030  177.8910  137.1340 O   0  0  0  0  0  0  0  0  0  0  0  0
  188.8770  176.5190  144.2820 O   0  0  0  0  0  0  0  0  0  0  0  0
  191.6800  178.8380  144.2440 C   0  0  0  0  0  1  0  0  0  0  0  0
  190.2380  176.8260  144.3740 C   0  0  1  0  0  3  0  0  0  0  0  0
  191.9830  176.8430  146.1020 O   0  0  0  0  0  1  0  0  0  0  0  0
  190.3960  178.2760  144.8350 C   0  0  1  0  0  3  0  0  0  0  0  0
  190.6480  177.1320  145.8050 C   0  0  1  0  0  0  0  0  0  0  0  0
  188.8800  176.8050  147.7200 N   0  0  0  0  0  0  0  0  0  0  0  0
  189.6630  176.9470  146.8790 C   0  0  0  0  0  0  0  0  0  0  0  0
  1 15  1  6  0  0  0
  1 30  1  0  0  0  0
  3  1  1  1  0  0  0
  3  4  1  0  0  0  0
  5 10  1  6  0  0  0
  5  8  1  0  0  0  0
  6  3  1  0  0  0  0
  6  5  1  0  0  0  0
  7  2  1  0  0  0  0
  8  4  1  6  0  0  0
  8  7  1  0  0  0  0
  8  2  1  0  0  0  0
  9 13  1  0  0  0  0
 10 13  1  0  0  0  0
 11 12  1  0  0  0  0
 11  9  2  0  0  0  0
 12 10  2  0  0  0  0
 14 15  2  0  0  0  0
 16 21  2  0  0  0  0
 16 19  1  0  0  0  0
 17 14  1  0  0  0  0
 18 17  2  0  0  0  0
 19 20  2  0  0  0  0
 20 17  1  0  0  0  0
 21 18  1  0  0  0  0
 22 23  1  1  0  0  0
 22 26  1  0  0  0  0
 22 21  1  0  0  0  0
 23 25  1  0  0  0  0
 24 23  2  0  0  0  0
 26 27  2  0  0  0  0
 26 29  1  0  0  0  0
 29 28  1  0  0  0  0
 32 30  1  1  0  0  0
 32 34  1  0  0  0  0
 32 35  1  0  0  0  0
 34 31  1  6  0  0  0
 34 35  1  0  0  0  0
 35 33  1  1  0  0  0
 35 37  1  0  0  0  0
 37 36  3  0  0  0  0
M  END
>  <MODEL>
6

>  <REMARK>
 VINA RESULT:      -8.1      2.657      8.857
  Name = 
  11 active torsions:
  status: ('A' for Active; 'I' for Inactive)
    1  A    between atoms: C_3  and  C_12
    2  A    between atoms: C_5  and  C_11
    3  A    between atoms: O_7  and  C_29
    4  A    between atoms: C_8  and  N_25
    5  A    between atoms: C_11  and  O_23
    6  A    between atoms: C_11  and  N_26
    7  A    between atoms: C_12  and  C_29
    8  A    between atoms: C_12  and  C_30
    9  A    between atoms: C_13  and  C_18
   10  A    between atoms: C_16  and  O_23
   11  A    between atoms: C_33  and  C_35
                            x       y       z     vdW  Elec       q    Type
                         _______ _______ _______ _____ _____    ______ ____

>  <TORSDO>
F 11

$$$$
=
 OpenBabel11062412243D

 37 41  0  0  1  0  0  0  0  0999 V2000
  188.6540  178.5390  141.1190 C   0  0  2  0  0  3  0  0  0  0  0  0
  191.6820  175.6460  143.7700 C   0  0  0  0  0  2  0  0  0  0  0  0
  188.8950  177.7600  142.4080 C   0  0  1  0  0  3  0  0  0  0  0  0
  189.8450  176.5990  142.1670 C   0  0  0  0  0  2  0  0  0  0  0  0
  190.3420  177.8940  144.1750 C   0  0  2  0  0  3  0  0  0  0  0  0
  189.3820  178.6150  143.4350 O   0  0  0  0  0  0  0  0  0  0  0  0
  192.0530  176.7530  142.9840 O   0  0  0  0  0  0  0  0  0  0  0  0
  190.7030  176.6810  143.3710 C   0  0  1  0  0  0  0  0  0  0  0  0
  189.8770  176.9110  147.6170 N   0  0  0  0  0  0  0  0  0  0  0  0
  189.7960  177.5300  145.5230 C   0  0  0  0  0  0  0  0  0  0  0  0
  188.4730  177.1350  147.3020 C   0  0  0  0  0  2  0  0  0  0  0  0
  188.5180  177.5530  145.8660 C   0  0  0  0  0  3  0  0  0  0  0  0
  190.6110  177.1340  146.6080 N   0  0  0  0  0  0  0  0  0  0  0  0
  186.3750  178.6380  141.7620 N   0  0  0  0  0  0  0  0  0  0  0  0
  187.2300  178.6040  140.8210 N   0  0  0  0  0  0  0  0  0  0  0  0
  182.2330  178.8320  140.9330 C   0  0  0  0  0  3  0  0  0  0  0  0
  184.9730  178.7040  141.4990 C   0  0  0  0  0  0  0  0  0  0  0  0
  184.5340  178.8620  140.1810 C   0  0  0  0  0  3  0  0  0  0  0  0
  182.6650  178.6750  142.2520 C   0  0  0  0  0  3  0  0  0  0  0  0
  184.0320  178.6100  142.5350 C   0  0  0  0  0  3  0  0  0  0  0  0
  183.1670  178.9260  139.8900 C   0  0  0  0  0  0  0  0  0  0  0  0
  182.7350  179.0990  138.4630 C   0  0  1  0  0  3  0  0  0  0  0  0
  182.3910  177.7980  137.7950 C   0  0  0  0  0  0  0  0  0  0  0  0
  181.8890  176.8810  138.4280 O   0  0  0  0  0  0  0  0  0  0  0  0
  182.6800  177.6200  136.3450 C   0  0  0  0  0  1  0  0  0  0  0  0
  181.6630  180.1320  138.2980 C   0  0  0  0  0  0  0  0  0  0  0  0
  181.9170  181.3540  138.4930 O   0  0  0  0  0  0  0  0  0  0  0  0
  179.3510  179.5430  138.8970 C   0  0  0  0  0  1  0  0  0  0  0  0
  180.3790  179.7230  137.9360 O   0  0  0  0  0  0  0  0  0  0  0  0
  189.3310  177.9220  140.0640 O   0  0  0  0  0  0  0  0  0  0  0  0
  187.9740  178.9380  136.8440 C   0  0  0  0  0  1  0  0  0  0  0  0
  188.3940  177.8450  139.0290 C   0  0  1  0  0  3  0  0  0  0  0  0
  187.7400  176.2400  137.2880 O   0  0  0  0  0  1  0  0  0  0  0  0
  189.0430  178.3110  137.7260 C   0  0  1  0  0  3  0  0  0  0  0  0
  188.8050  176.8290  137.9750 C   0  0  1  0  0  0  0  0  0  0  0  0
  190.9320  175.3520  138.4130 N   0  0  0  0  0  0  0  0  0  0  0  0
  189.9930  176.0000  138.2170 C   0  0  0  0  0  0  0  0  0  0  0  0
  1 30  1  6  0  0  0
  3  1  1  6  0  0  0
  3  6  1  0  0  0  0
  4  3  1  0  0  0  0
  5 10  1  1  0  0  0
  6  5  1  0  0  0  0
  7  8  1  0  0  0  0
  7  2  1  0  0  0  0
  8  4  1  6  0  0  0
  8  2  1  0  0  0  0
  8  5  1  0  0  0  0
 10 12  2  0  0  0  0
 10 13  1  0  0  0  0
 11  9  1  0  0  0  0
 12 11  1  0  0  0  0
 13  9  2  0  0  0  0
 15  1  1  0  0  0  0
 15 14  2  0  0  0  0
 16 19  1  0  0  0  0
 17 14  1  0  0  0  0
 17 20  1  0  0  0  0
 18 17  2  0  0  0  0
 19 20  2  0  0  0  0
 21 18  1  0  0  0  0
 21 16  2  0  0  0  0
 22 23  1  1  0  0  0
 22 21  1  0  0  0  0
 23 24  2  0  0  0  0
 25 23  1  0  0  0  0
 26 22  1  0  0  0  0
 26 27  2  0  0  0  0
 29 26  1  0  0  0  0
 29 28  1  0  0  0  0
 32 30  1  1  0  0  0
 34 31  1  6  0  0  0
 34 35  1  0  0  0  0
 34 32  1  0  0  0  0
 35 33  1  6  0  0  0
 35 37  1  0  0  0  0
 35 32  1  0  0  0  0
 37 36  3  0  0  0  0
M  END
>  <MODEL>
7

>  <REMARK>
 VINA RESULT:      -8.0      2.699      9.160
  Name = 
  11 active torsions:
  status: ('A' for Active; 'I' for Inactive)
    1  A    between atoms: C_3  and  C_12
    2  A    between atoms: C_5  and  C_11
    3  A    between atoms: O_7  and  C_29
    4  A    between atoms: C_8  and  N_25
    5  A    between atoms: C_11  and  O_23
    6  A    between atoms: C_11  and  N_26
    7  A    between atoms: C_12  and  C_29
    8  A    between atoms: C_12  and  C_30
    9  A    between atoms: C_13  and  C_18
   10  A    between atoms: C_16  and  O_23
   11  A    between atoms: C_33  and  C_35
                            x       y       z     vdW  Elec       q    Type
                         _______ _______ _______ _____ _____    ______ ____

>  <TORSDO>
F 11

$$$$
=
 OpenBabel11062412243D

 37 41  0  0  1  0  0  0  0  0999 V2000
  188.5370  178.4050  141.3120 C   0  0  2  0  0  3  0  0  0  0  0  0
  191.7370  175.5640  143.8130 C   0  0  0  0  0  2  0  0  0  0  0  0
  188.8830  177.6880  142.6120 C   0  0  1  0  0  3  0  0  0  0  0  0
  189.7770  176.4870  142.3440 C   0  0  0  0  0  2  0  0  0  0  0  0
  190.4990  177.8690  144.2220 C   0  0  2  0  0  3  0  0  0  0  0  0
  189.4890  178.5790  143.5390 O   0  0  0  0  0  0  0  0  0  0  0  0
  192.0570  176.6170  142.9360 O   0  0  0  0  0  0  0  0  0  0  0  0
  190.7490  176.6060  143.4540 C   0  0  1  0  0  0  0  0  0  0  0  0
  190.3350  176.9990  147.7210 N   0  0  0  0  0  0  0  0  0  0  0  0
  190.0780  177.5920  145.6330 C   0  0  0  0  0  0  0  0  0  0  0  0
  188.9380  177.3810  147.5640 C   0  0  0  0  0  2  0  0  0  0  0  0
  188.8600  177.7690  146.1210 C   0  0  0  0  0  3  0  0  0  0  0  0
  190.9650  177.1190  146.6280 N   0  0  0  0  0  0  0  0  0  0  0  0
  186.3110  178.5240  142.1170 N   0  0  0  0  0  0  0  0  0  0  0  0
  187.0940  178.4410  141.1170 N   0  0  0  0  0  0  0  0  0  0  0  0
  182.1160  178.6270  141.5920 C   0  0  0  0  0  3  0  0  0  0  0  0
  184.8920  178.5630  141.9560 C   0  0  0  0  0  0  0  0  0  0  0  0
  184.3470  178.4010  140.6780 C   0  0  0  0  0  3  0  0  0  0  0  0
  182.6540  178.7900  142.8700 C   0  0  0  0  0  3  0  0  0  0  0  0
  184.0390  178.7580  143.0530 C   0  0  0  0  0  3  0  0  0  0  0  0
  182.9610  178.4300  140.4890 C   0  0  0  0  0  0  0  0  0  0  0  0
  182.4140  178.2560  139.1020 C   0  0  1  0  0  3  0  0  0  0  0  0
  182.1960  179.5610  138.3910 C   0  0  0  0  0  0  0  0  0  0  0  0
  182.8190  180.5630  138.7130 O   0  0  0  0  0  0  0  0  0  0  0  0
  181.1960  179.6380  137.2900 C   0  0  0  0  0  1  0  0  0  0  0  0
  183.2000  177.2780  138.2830 C   0  0  0  0  0  0  0  0  0  0  0  0
  184.1170  177.6800  137.5130 O   0  0  0  0  0  0  0  0  0  0  0  0
  181.6250  175.4640  138.8130 C   0  0  0  0  0  1  0  0  0  0  0  0
  182.8970  175.9200  138.3770 O   0  0  0  0  0  0  0  0  0  0  0  0
  189.1430  177.7490  140.2370 O   0  0  0  0  0  0  0  0  0  0  0  0
  187.6970  178.9950  137.1390 C   0  0  0  0  0  1  0  0  0  0  0  0
  188.1780  177.7450  139.2250 C   0  0  1  0  0  3  0  0  0  0  0  0
  187.4780  176.2720  137.3890 O   0  0  0  0  0  1  0  0  0  0  0  0
  188.7910  178.3080  137.9420 C   0  0  1  0  0  3  0  0  0  0  0  0
  188.5610  176.8120  138.0880 C   0  0  1  0  0  0  0  0  0  0  0  0
  190.7020  175.3150  138.3550 N   0  0  0  0  0  0  0  0  0  0  0  0
  189.7560  175.9700  138.2360 C   0  0  0  0  0  0  0  0  0  0  0  0
  1 30  1  6  0  0  0
  3  1  1  6  0  0  0
  3  6  1  0  0  0  0
  4  3  1  0  0  0  0
  5 10  1  1  0  0  0
  6  5  1  0  0  0  0
  7  8  1  0  0  0  0
  7  2  1  0  0  0  0
  8  4  1  6  0  0  0
  8  2  1  0  0  0  0
  8  5  1  0  0  0  0
 10 12  2  0  0  0  0
 10 13  1  0  0  0  0
 11  9  1  0  0  0  0
 12 11  1  0  0  0  0
 13  9  2  0  0  0  0
 15  1  1  0  0  0  0
 15 14  2  0  0  0  0
 16 19  1  0  0  0  0
 17 14  1  0  0  0  0
 17 20  1  0  0  0  0
 18 17  2  0  0  0  0
 19 20  2  0  0  0  0
 21 18  1  0  0  0  0
 21 16  2  0  0  0  0
 22 26  1  6  0  0  0
 22 21  1  0  0  0  0
 23 24  2  0  0  0  0
 23 22  1  0  0  0  0
 25 23  1  0  0  0  0
 26 29  1  0  0  0  0
 27 26  2  0  0  0  0
 29 28  1  0  0  0  0
 32 30  1  1  0  0  0
 34 31  1  6  0  0  0
 34 35  1  0  0  0  0
 34 32  1  0  0  0  0
 35 33  1  6  0  0  0
 35 37  1  0  0  0  0
 35 32  1  0  0  0  0
 37 36  3  0  0  0  0
M  END
>  <MODEL>
8

>  <REMARK>
 VINA RESULT:      -8.0      2.716      8.840
  Name = 
  11 active torsions:
  status: ('A' for Active; 'I' for Inactive)
    1  A    between atoms: C_3  and  C_12
    2  A    between atoms: C_5  and  C_11
    3  A    between atoms: O_7  and  C_29
    4  A    between atoms: C_8  and  N_25
    5  A    between atoms: C_11  and  O_23
    6  A    between atoms: C_11  and  N_26
    7  A    between atoms: C_12  and  C_29
    8  A    between atoms: C_12  and  C_30
    9  A    between atoms: C_13  and  C_18
   10  A    between atoms: C_16  and  O_23
   11  A    between atoms: C_33  and  C_35
                            x       y       z     vdW  Elec       q    Type
                         _______ _______ _______ _____ _____    ______ ____

>  <TORSDO>
F 11

$$$$
=
 OpenBabel11062412243D

 37 41  0  0  1  0  0  0  0  0999 V2000
  184.3710  179.3580  139.0580 C   0  0  2  0  0  3  0  0  0  0  0  0
  185.7870  176.1410  135.5630 C   0  0  0  0  0  2  0  0  0  0  0  0
  185.3900  178.3230  138.5910 C   0  0  1  0  0  3  0  0  0  0  0  0
  184.7440  177.3110  137.6580 C   0  0  0  0  0  2  0  0  0  0  0  0
  186.9040  178.1440  136.8860 C   0  0  2  0  0  3  0  0  0  0  0  0
  186.5040  178.9510  137.9720 O   0  0  0  0  0  0  0  0  0  0  0  0
  185.2380  177.4190  135.3540 O   0  0  0  0  0  0  0  0  0  0  0  0
  185.7930  177.1730  136.6230 C   0  0  1  0  0  0  0  0  0  0  0  0
  190.3530  177.1180  137.1580 N   0  0  0  0  0  0  0  0  0  0  0  0
  188.1930  177.4480  137.1990 C   0  0  0  0  0  0  0  0  0  0  0  0
  189.7860  176.0700  137.9960 C   0  0  0  0  0  2  0  0  0  0  0  0
  188.3220  176.3780  137.9670 C   0  0  0  0  0  3  0  0  0  0  0  0
  189.4480  177.8850  136.7130 N   0  0  0  0  0  0  0  0  0  0  0  0
  184.7050  178.4160  141.2060 N   0  0  0  0  0  0  0  0  0  0  0  0
  184.3280  179.4130  140.5120 N   0  0  0  0  0  0  0  0  0  0  0  0
  184.6650  178.4800  145.4350 C   0  0  0  0  0  3  0  0  0  0  0  0
  184.6750  178.4430  142.6340 C   0  0  0  0  0  0  0  0  0  0  0  0
  185.7580  177.9200  143.3480 C   0  0  0  0  0  3  0  0  0  0  0  0
  183.5800  179.0040  144.7270 C   0  0  0  0  0  3  0  0  0  0  0  0
  183.5850  178.9860  143.3300 C   0  0  0  0  0  3  0  0  0  0  0  0
  185.7610  177.9360  144.7470 C   0  0  0  0  0  0  0  0  0  0  0  0
  186.9400  177.3630  145.4780 C   0  0  1  0  0  3  0  0  0  0  0  0
  188.2040  177.4020  144.6680 C   0  0  0  0  0  0  0  0  0  0  0  0
  189.0440  178.2700  144.8550 O   0  0  0  0  0  0  0  0  0  0  0  0
  188.4290  176.3760  143.6110 C   0  0  0  0  0  1  0  0  0  0  0  0
  187.1160  177.9420  146.8480 C   0  0  0  0  0  0  0  0  0  0  0  0
  186.5020  178.9950  147.1810 O   0  0  0  0  0  0  0  0  0  0  0  0
  188.9670  178.0180  148.4670 C   0  0  0  0  0  1  0  0  0  0  0  0
  187.9730  177.3050  147.7460 O   0  0  0  0  0  0  0  0  0  0  0  0
  183.1070  179.0300  138.5590 O   0  0  0  0  0  0  0  0  0  0  0  0
  180.7450  181.5400  137.3930 C   0  0  0  0  0  1  0  0  0  0  0  0
  182.3420  180.1890  138.7220 C   0  0  1  0  0  3  0  0  0  0  0  0
  180.4000  180.9120  140.0410 O   0  0  0  0  0  1  0  0  0  0  0  0
  181.1260  180.1250  137.7980 C   0  0  1  0  0  3  0  0  0  0  0  0
  180.9670  179.8790  139.2910 C   0  0  1  0  0  0  0  0  0  0  0  0
  180.4300  177.4190  140.0400 N   0  0  0  0  0  0  0  0  0  0  0  0
  180.6680  178.5010  139.7060 C   0  0  0  0  0  0  0  0  0  0  0  0
  1 30  1  1  0  0  0
  1 15  1  0  0  0  0
  3  1  1  6  0  0  0
  4  3  1  0  0  0  0
  5 10  1  1  0  0  0
  5  6  1  0  0  0  0
  6  3  1  0  0  0  0
  7  2  1  0  0  0  0
  7  8  1  0  0  0  0
  8  2  1  1  0  0  0
  8  5  1  0  0  0  0
  8  4  1  0  0  0  0
  9 11  1  0  0  0  0
 10 12  2  0  0  0  0
 12 11  1  0  0  0  0
 13  9  2  0  0  0  0
 13 10  1  0  0  0  0
 14 17  1  0  0  0  0
 15 14  2  0  0  0  0
 17 20  2  0  0  0  0
 17 18  1  0  0  0  0
 18 21  2  0  0  0  0
 19 16  2  0  0  0  0
 20 19  1  0  0  0  0
 21 16  1  0  0  0  0
 21 22  1  0  0  0  0
 22 23  1  6  0  0  0
 22 26  1  0  0  0  0
 23 24  2  0  0  0  0
 25 23  1  0  0  0  0
 26 27  2  0  0  0  0
 26 29  1  0  0  0  0
 29 28  1  0  0  0  0
 32 30  1  6  0  0  0
 32 35  1  0  0  0  0
 34 31  1  1  0  0  0
 34 32  1  0  0  0  0
 34 35  1  0  0  0  0
 35 37  1  0  0  0  0
 35 33  1  1  0  0  0
 37 36  3  0  0  0  0
M  END
>  <MODEL>
9

>  <REMARK>
 VINA RESULT:      -7.8      1.965      2.623
  Name = 
  11 active torsions:
  status: ('A' for Active; 'I' for Inactive)
    1  A    between atoms: C_3  and  C_12
    2  A    between atoms: C_5  and  C_11
    3  A    between atoms: O_7  and  C_29
    4  A    between atoms: C_8  and  N_25
    5  A    between atoms: C_11  and  O_23
    6  A    between atoms: C_11  and  N_26
    7  A    between atoms: C_12  and  C_29
    8  A    between atoms: C_12  and  C_30
    9  A    between atoms: C_13  and  C_18
   10  A    between atoms: C_16  and  O_23
   11  A    between atoms: C_33  and  C_35
                            x       y       z     vdW  Elec       q    Type
                         _______ _______ _______ _____ _____    ______ ____

>  <TORSDO>
F 11

$$$$
