=
 OpenBabel11062414033D

 49 54  0  0  1  0  0  0  0  0999 V2000
  187.9420  178.8720  136.7060 C   0  0  0  0  0  2  0  0  0  0  0  0
  189.7420  178.0220  135.3800 F   0  0  0  0  0  0  0  0  0  0  0  0
  188.1240  176.4970  136.2060 C   0  0  0  0  0  2  0  0  0  0  0  0
  188.9470  177.7440  136.4790 C   0  0  2  0  0  0  0  0  0  0  0  0
  186.6040  178.2110  136.9960 C   0  0  1  0  0  3  0  0  0  0  0  0
  185.6750  175.9030  136.4760 C   0  0  0  0  0  0  0  0  0  0  0  0
  184.4940  176.2930  136.6880 O   0  0  0  0  0  0  0  0  0  0  0  0
  186.7620  176.8320  136.5720 N   0  0  0  0  0  0  0  0  0  0  0  0
  182.9930  173.6990  135.9310 C   0  0  0  0  0  2  0  0  0  0  0  0
  183.6270  172.5790  136.4780 O   0  0  0  0  0  0  0  0  0  0  0  0
  183.7540  174.2330  134.7140 C   0  0  0  0  0  2  0  0  0  0  0  0
  185.6940  173.4980  137.2240 C   0  0  0  0  0  0  0  0  0  0  0  0
  186.6430  173.0920  137.8770 O   0  0  0  0  0  0  0  0  0  0  0  0
  184.3060  173.0680  137.6000 C   0  0  0  0  0  2  0  0  0  0  0  0
  185.9350  174.4710  136.1010 C   0  0  1  0  0  3  0  0  0  0  0  0
  185.2770  174.0460  134.7810 C   0  0  0  0  0  2  0  0  0  0  0  0
  186.3240  178.2700  138.4640 C   0  0  0  0  0  0  0  0  0  0  0  0
  187.1970  177.8720  139.2800 O   0  0  0  0  0  0  0  0  0  0  0  0
  185.0920  178.7420  138.9140 O   0  0  0  0  0  0  0  0  0  0  0  0
  184.2240  177.9610  139.7240 C   0  0  0  0  0  2  0  0  0  0  0  0
  184.3940  179.7840  143.0810 C   0  0  1  0  0  3  0  0  0  0  0  0
  181.9730  178.8640  142.7630 C   0  0  2  0  0  3  0  0  0  0  0  0
  183.7370  178.7710  140.9180 C   0  0  2  0  0  3  0  0  0  0  0  0
  182.6280  178.2980  143.8800 O   0  0  0  0  0  0  0  0  0  0  0  0
  184.8000  178.8060  141.9920 C   0  0  0  0  0  2  0  0  0  0  0  0
  182.4800  178.1520  141.5030 C   0  0  0  0  0  2  0  0  0  0  0  0
  182.9470  179.6390  143.6020 C   0  0  1  0  0  3  0  0  0  0  0  0
  185.3810  179.6830  144.2300 C   0  0  0  0  0  2  0  0  0  0  0  0
  185.5150  178.2470  144.7090 C   0  0  2  0  0  3  0  0  0  0  0  0
  189.3900  177.0300  146.2270 N   0  0  0  0  0  2  0  0  0  0  0  0
  185.8780  178.2480  146.1690 C   0  0  0  0  0  0  0  0  0  0  0  0
  187.7290  177.1540  144.3630 C   0  0  0  0  0  3  0  0  0  0  0  0
  191.0920  176.8050  147.7910 O   0  0  0  0  0  0  0  0  0  0  0  0
  185.0250  178.6030  147.0250 O   0  0  0  0  0  0  0  0  0  0  0  0
  189.9570  177.2760  147.5200 C   0  0  0  0  0  0  0  0  0  0  0  0
  189.2570  178.0930  148.5520 C   0  0  0  0  0  1  0  0  0  0  0  0
  187.1970  177.8820  146.5940 N   0  0  0  0  0  0  0  0  0  0  0  0
  186.5430  177.5230  143.8760 C   0  0  0  0  0  3  0  0  0  0  0  0
  188.0810  177.3970  145.7720 C   0  0  0  0  0  0  0  0  0  0  0  0
  189.8000  177.5090  137.7250 C   0  0  0  0  0  2  0  0  0  0  0  0
  190.2380  176.0540  137.9040 C   0  0  1  0  0  3  0  0  0  0  0  0
  192.4170  176.4370  137.0170 O   0  0  0  0  0  0  0  0  0  0  0  0
  191.3310  174.5710  136.1600 N   0  0  0  0  0  1  0  0  0  0  0  0
  191.3900  175.7110  137.0130 C   0  0  0  0  0  0  0  0  0  0  0  0
  190.6040  175.8380  139.2360 O   0  0  0  0  0  0  0  0  0  0  0  0
  192.0290  177.3860  140.2340 N   0  0  0  0  0  2  0  0  0  0  0  0
  190.6670  177.1090  139.8120 C   0  0  2  0  0  3  0  0  0  0  0  0
  189.9020  177.0700  141.4560 S   0  0  0  0  0  0  0  0  0  0  0  0
  191.6730  177.4030  141.6420 C   0  0  0  0  0  2  0  0  0  0  0  0
  1  5  1  0  0  0  0
  3  4  1  0  0  0  0
  3  8  1  0  0  0  0
  4  2  1  6  0  0  0
  4  1  1  0  0  0  0
  4 40  1  0  0  0  0
  5 17  1  1  0  0  0
  6  8  1  0  0  0  0
  6  7  2  0  0  0  0
  8  5  1  0  0  0  0
  9 10  1  0  0  0  0
 10 14  1  0  0  0  0
 11 16  1  0  0  0  0
 11  9  1  0  0  0  0
 12 14  1  0  0  0  0
 12 13  2  0  0  0  0
 15  6  1  1  0  0  0
 15 12  1  0  0  0  0
 16 15  1  0  0  0  0
 17 19  1  0  0  0  0
 17 18  2  0  0  0  0
 19 20  1  0  0  0  0
 21 27  1  0  0  0  0
 21 28  1  1  0  0  0
 22 26  1  6  0  0  0
 22 27  1  0  0  0  0
 22 24  1  0  0  0  0
 23 20  1  6  0  0  0
 23 26  1  0  0  0  0
 23 25  1  0  0  0  0
 25 21  1  0  0  0  0
 27 24  1  1  0  0  0
 29 28  1  6  0  0  0
 29 31  1  0  0  0  0
 30 35  1  0  0  0  0
 31 37  1  0  0  0  0
 31 34  2  0  0  0  0
 32 39  1  0  0  0  0
 35 33  2  0  0  0  0
 35 36  1  0  0  0  0
 38 32  2  0  0  0  0
 38 29  1  0  0  0  0
 39 30  1  0  0  0  0
 39 37  2  0  0  0  0
 41 40  1  1  0  0  0
 41 45  1  0  0  0  0
 43 44  1  0  0  0  0
 44 42  2  0  0  0  0
 44 41  1  0  0  0  0
 46 49  1  0  0  0  0
 47 45  1  1  0  0  0
 47 46  1  0  0  0  0
 47 48  1  0  0  0  0
 48 49  1  0  0  0  0
M  END
>  <MODEL>
1

>  <REMARK>
 VINA RESULT:      -8.5      0.000      0.000
  Name = 
  12 active torsions:
  status: ('A' for Active; 'I' for Inactive)
    1  A    between atoms: C_2  and  C_49
    2  A    between atoms: C_3  and  C_49
    3  A    between atoms: O_5  and  C_34
    4  A    between atoms: O_5  and  C_39
    5  A    between atoms: C_14  and  O_20
    6  A    between atoms: C_16  and  C_32
    7  A    between atoms: C_17  and  C_39
    8  A    between atoms: C_19  and  C_34
    9  A    between atoms: O_20  and  C_31
   10  A    between atoms: C_31  and  C_32
   11  A    between atoms: C_31  and  C_46
   12  A    between atoms: C_35  and  C_44
                            x       y       z     vdW  Elec       q    Type
                         _______ _______ _______ _____ _____    ______ ____

>  <TORSDO>
F 12

$$$$
=
 OpenBabel11062414033D

 49 54  0  0  1  0  0  0  0  0999 V2000
  189.4760  178.0590  136.9470 C   0  0  0  0  0  2  0  0  0  0  0  0
  190.8480  176.7580  135.4820 F   0  0  0  0  0  0  0  0  0  0  0  0
  188.8590  175.7860  136.3330 C   0  0  0  0  0  2  0  0  0  0  0  0
  190.0520  176.6830  136.6120 C   0  0  2  0  0  0  0  0  0  0  0  0
  188.0090  177.8460  137.2850 C   0  0  1  0  0  3  0  0  0  0  0  0
  186.3620  175.9950  136.7190 C   0  0  0  0  0  0  0  0  0  0  0  0
  185.3810  176.7310  137.0160 O   0  0  0  0  0  0  0  0  0  0  0  0
  187.6950  176.5180  136.7920 N   0  0  0  0  0  0  0  0  0  0  0  0
  183.1710  174.9790  135.6550 C   0  0  0  0  0  2  0  0  0  0  0  0
  183.2570  173.6890  136.1880 O   0  0  0  0  0  0  0  0  0  0  0  0
  184.2500  175.2180  134.5940 C   0  0  0  0  0  2  0  0  0  0  0  0
  185.3800  173.7420  137.2680 C   0  0  0  0  0  0  0  0  0  0  0  0
  186.0020  172.9920  138.0030 O   0  0  0  0  0  0  0  0  0  0  0  0
  183.8920  173.8570  137.4230 C   0  0  0  0  0  2  0  0  0  0  0  0
  186.1290  174.5800  136.2670 C   0  0  1  0  0  3  0  0  0  0  0  0
  185.5680  174.4690  134.8430 C   0  0  0  0  0  2  0  0  0  0  0  0
  187.8230  177.9040  138.7680 C   0  0  0  0  0  0  0  0  0  0  0  0
  186.8770  178.5810  139.2490 O   0  0  0  0  0  0  0  0  0  0  0  0
  188.7120  177.2290  139.6030 O   0  0  0  0  0  0  0  0  0  0  0  0
  189.5480  177.9030  140.5340 C   0  0  0  0  0  2  0  0  0  0  0  0
  187.7610  176.7240  143.7020 C   0  0  1  0  0  3  0  0  0  0  0  0
  190.1690  177.4900  144.3500 C   0  0  2  0  0  3  0  0  0  0  0  0
  189.3860  177.3060  141.9250 C   0  0  2  0  0  3  0  0  0  0  0  0
  189.1650  178.2700  144.9660 O   0  0  0  0  0  0  0  0  0  0  0  0
  187.9690  177.5020  142.4130 C   0  0  0  0  0  2  0  0  0  0  0  0
  190.3320  177.9790  142.9050 C   0  0  0  0  0  2  0  0  0  0  0  0
  188.8510  176.9130  144.7780 C   0  0  1  0  0  3  0  0  0  0  0  0
  186.3950  177.0640  144.2690 C   0  0  0  0  0  2  0  0  0  0  0  0
  185.9280  178.4280  143.7880 C   0  0  2  0  0  3  0  0  0  0  0  0
  181.9550  178.6600  142.0700 N   0  0  0  0  0  2  0  0  0  0  0  0
  184.7050  178.8320  144.5660 C   0  0  0  0  0  0  0  0  0  0  0  0
  184.4310  178.4610  141.7950 C   0  0  0  0  0  3  0  0  0  0  0  0
  179.6380  178.8220  142.0710 O   0  0  0  0  0  0  0  0  0  0  0  0
  184.8100  179.1390  145.7820 O   0  0  0  0  0  0  0  0  0  0  0  0
  180.6930  178.7190  142.7490 C   0  0  0  0  0  0  0  0  0  0  0  0
  180.5850  178.6390  144.2330 C   0  0  0  0  0  1  0  0  0  0  0  0
  183.4130  178.8350  143.9440 N   0  0  0  0  0  0  0  0  0  0  0  0
  185.6620  178.3850  142.3050 C   0  0  0  0  0  3  0  0  0  0  0  0
  183.2580  178.6410  142.6670 C   0  0  0  0  0  0  0  0  0  0  0  0
  190.8330  176.1120  137.7960 C   0  0  0  0  0  2  0  0  0  0  0  0
  192.1960  175.5340  137.4110 C   0  0  1  0  0  3  0  0  0  0  0  0
  194.3690  175.4000  138.3820 O   0  0  0  0  0  0  0  0  0  0  0  0
  193.0840  177.1920  139.1130 N   0  0  0  0  0  1  0  0  0  0  0  0
  193.2790  176.0240  138.3190 C   0  0  0  0  0  0  0  0  0  0  0  0
  192.1420  174.1390  137.4660 O   0  0  0  0  0  0  0  0  0  0  0  0
  192.4650  172.3540  136.0050 N   0  0  0  0  0  2  0  0  0  0  0  0
  191.9950  173.7230  136.1400 C   0  0  2  0  0  3  0  0  0  0  0  0
  193.2570  174.5200  135.1090 S   0  0  0  0  0  0  0  0  0  0  0  0
  193.5740  172.7360  135.1500 C   0  0  0  0  0  2  0  0  0  0  0  0
  1  5  1  0  0  0  0
  3  4  1  0  0  0  0
  3  8  1  0  0  0  0
  4  2  1  6  0  0  0
  4  1  1  0  0  0  0
  4 40  1  0  0  0  0
  5 17  1  1  0  0  0
  6  8  1  0  0  0  0
  6  7  2  0  0  0  0
  8  5  1  0  0  0  0
  9 10  1  0  0  0  0
 10 14  1  0  0  0  0
 11 16  1  0  0  0  0
 11  9  1  0  0  0  0
 12 14  1  0  0  0  0
 12 13  2  0  0  0  0
 15  6  1  1  0  0  0
 15 12  1  0  0  0  0
 16 15  1  0  0  0  0
 17 18  2  0  0  0  0
 17 19  1  0  0  0  0
 19 20  1  0  0  0  0
 21 28  1  1  0  0  0
 21 27  1  0  0  0  0
 22 26  1  6  0  0  0
 22 27  1  0  0  0  0
 22 24  1  0  0  0  0
 23 20  1  6  0  0  0
 23 25  1  0  0  0  0
 23 26  1  0  0  0  0
 25 21  1  0  0  0  0
 27 24  1  1  0  0  0
 29 28  1  1  0  0  0
 29 31  1  0  0  0  0
 30 39  1  0  0  0  0
 30 35  1  0  0  0  0
 31 34  2  0  0  0  0
 32 38  2  0  0  0  0
 32 39  1  0  0  0  0
 33 35  2  0  0  0  0
 35 36  1  0  0  0  0
 37 31  1  0  0  0  0
 38 29  1  0  0  0  0
 39 37  2  0  0  0  0
 41 45  1  0  0  0  0
 41 40  1  1  0  0  0
 41 44  1  0  0  0  0
 44 42  2  0  0  0  0
 44 43  1  0  0  0  0
 46 47  1  0  0  0  0
 47 45  1  1  0  0  0
 48 49  1  0  0  0  0
 48 47  1  0  0  0  0
 49 46  1  0  0  0  0
M  END
>  <MODEL>
2

>  <REMARK>
 VINA RESULT:      -8.2      2.322      4.833
  Name = 
  12 active torsions:
  status: ('A' for Active; 'I' for Inactive)
    1  A    between atoms: C_2  and  C_49
    2  A    between atoms: C_3  and  C_49
    3  A    between atoms: O_5  and  C_34
    4  A    between atoms: O_5  and  C_39
    5  A    between atoms: C_14  and  O_20
    6  A    between atoms: C_16  and  C_32
    7  A    between atoms: C_17  and  C_39
    8  A    between atoms: C_19  and  C_34
    9  A    between atoms: O_20  and  C_31
   10  A    between atoms: C_31  and  C_32
   11  A    between atoms: C_31  and  C_46
   12  A    between atoms: C_35  and  C_44
                            x       y       z     vdW  Elec       q    Type
                         _______ _______ _______ _____ _____    ______ ____

>  <TORSDO>
F 12

$$$$
=
 OpenBabel11062414033D

 49 54  0  0  1  0  0  0  0  0999 V2000
  187.5260  178.3690  137.1230 C   0  0  0  0  0  2  0  0  0  0  0  0
  189.0130  176.8820  135.9840 F   0  0  0  0  0  0  0  0  0  0  0  0
  186.8140  176.1370  136.4660 C   0  0  0  0  0  2  0  0  0  0  0  0
  188.0160  176.9330  136.9430 C   0  0  2  0  0  0  0  0  0  0  0  0
  186.0090  178.3080  137.1800 C   0  0  1  0  0  3  0  0  0  0  0  0
  184.3220  176.5920  136.3610 C   0  0  0  0  0  0  0  0  0  0  0  0
  183.3800  177.4280  136.4440 O   0  0  0  0  0  0  0  0  0  0  0  0
  185.6620  176.9930  136.6730 N   0  0  0  0  0  0  0  0  0  0  0  0
  181.0130  175.5290  135.8490 C   0  0  0  0  0  2  0  0  0  0  0  0
  181.2170  174.2260  136.3160 O   0  0  0  0  0  0  0  0  0  0  0  0
  181.8790  175.8240  134.6220 C   0  0  0  0  0  2  0  0  0  0  0  0
  183.4970  174.3010  137.0020 C   0  0  0  0  0  0  0  0  0  0  0  0
  184.2550  173.5460  137.5900 O   0  0  0  0  0  0  0  0  0  0  0  0
  182.0590  174.3750  137.4240 C   0  0  0  0  0  2  0  0  0  0  0  0
  184.0390  175.1860  135.9110 C   0  0  1  0  0  3  0  0  0  0  0  0
  183.2350  175.1020  134.6070 C   0  0  0  0  0  2  0  0  0  0  0  0
  185.5550  178.4510  138.5970 C   0  0  0  0  0  0  0  0  0  0  0  0
  186.4090  178.5870  139.5130 O   0  0  0  0  0  0  0  0  0  0  0  0
  184.1930  178.4080  138.8950 O   0  0  0  0  0  0  0  0  0  0  0  0
  183.6730  177.6610  139.9860 C   0  0  0  0  0  2  0  0  0  0  0  0
  184.1160  179.7000  143.1900 C   0  0  1  0  0  3  0  0  0  0  0  0
  181.6260  178.9390  143.0350 C   0  0  2  0  0  3  0  0  0  0  0  0
  183.2960  178.5880  141.1340 C   0  0  2  0  0  3  0  0  0  0  0  0
  182.2880  178.4080  144.1640 O   0  0  0  0  0  0  0  0  0  0  0  0
  184.4060  178.6210  142.1610 C   0  0  0  0  0  2  0  0  0  0  0  0
  182.0260  178.1050  141.8120 C   0  0  0  0  0  2  0  0  0  0  0  0
  182.6880  179.6980  143.7760 C   0  0  1  0  0  3  0  0  0  0  0  0
  185.1440  179.6100  144.3030 C   0  0  0  0  0  2  0  0  0  0  0  0
  185.3650  178.1660  144.7250 C   0  0  2  0  0  3  0  0  0  0  0  0
  189.3110  177.1240  146.1890 N   0  0  0  0  0  2  0  0  0  0  0  0
  185.7320  178.1310  146.1840 C   0  0  0  0  0  0  0  0  0  0  0  0
  187.6390  177.2220  144.3330 C   0  0  0  0  0  3  0  0  0  0  0  0
  191.0290  176.9390  147.7410 O   0  0  0  0  0  0  0  0  0  0  0  0
  184.8630  178.4000  147.0540 O   0  0  0  0  0  0  0  0  0  0  0  0
  189.8670  177.3520  147.4910 C   0  0  0  0  0  0  0  0  0  0  0  0
  189.1230  178.0840  148.5550 C   0  0  0  0  0  1  0  0  0  0  0  0
  187.0720  177.8280  146.5930 N   0  0  0  0  0  0  0  0  0  0  0  0
  186.4310  177.5390  143.8630 C   0  0  0  0  0  3  0  0  0  0  0  0
  187.9810  177.4300  145.7500 C   0  0  0  0  0  0  0  0  0  0  0  0
  188.5000  176.3470  138.2690 C   0  0  0  0  0  2  0  0  0  0  0  0
  189.9660  176.6580  138.5790 C   0  0  1  0  0  3  0  0  0  0  0  0
  189.5650  178.6220  139.8680 O   0  0  0  0  0  0  0  0  0  0  0  0
  190.8400  177.0000  140.9350 N   0  0  0  0  0  1  0  0  0  0  0  0
  190.1040  177.4870  139.8170 C   0  0  0  0  0  0  0  0  0  0  0  0
  190.6710  175.4620  138.7420 O   0  0  0  0  0  0  0  0  0  0  0  0
  192.0550  174.0050  137.5670 N   0  0  0  0  0  2  0  0  0  0  0  0
  191.4120  175.3080  137.5680 C   0  0  2  0  0  3  0  0  0  0  0  0
  192.9120  176.3240  137.6590 S   0  0  0  0  0  0  0  0  0  0  0  0
  193.3890  174.5750  137.6430 C   0  0  0  0  0  2  0  0  0  0  0  0
  1  5  1  0  0  0  0
  3  8  1  0  0  0  0
  3  4  1  0  0  0  0
  4  2  1  6  0  0  0
  4  1  1  0  0  0  0
  4 40  1  0  0  0  0
  5 17  1  1  0  0  0
  6  7  2  0  0  0  0
  6  8  1  0  0  0  0
  8  5  1  0  0  0  0
  9 10  1  0  0  0  0
 10 14  1  0  0  0  0
 11  9  1  0  0  0  0
 12 14  1  0  0  0  0
 12 13  2  0  0  0  0
 15  6  1  1  0  0  0
 15 12  1  0  0  0  0
 16 11  1  0  0  0  0
 16 15  1  0  0  0  0
 17 19  1  0  0  0  0
 17 18  2  0  0  0  0
 19 20  1  0  0  0  0
 21 27  1  0  0  0  0
 21 28  1  1  0  0  0
 22 26  1  6  0  0  0
 22 27  1  0  0  0  0
 22 24  1  0  0  0  0
 23 20  1  6  0  0  0
 23 26  1  0  0  0  0
 23 25  1  0  0  0  0
 25 21  1  0  0  0  0
 27 24  1  1  0  0  0
 29 28  1  6  0  0  0
 29 31  1  0  0  0  0
 30 35  1  0  0  0  0
 31 37  1  0  0  0  0
 31 34  2  0  0  0  0
 32 39  1  0  0  0  0
 35 33  2  0  0  0  0
 35 36  1  0  0  0  0
 38 32  2  0  0  0  0
 38 29  1  0  0  0  0
 39 30  1  0  0  0  0
 39 37  2  0  0  0  0
 41 40  1  1  0  0  0
 41 45  1  0  0  0  0
 41 44  1  0  0  0  0
 44 42  2  0  0  0  0
 44 43  1  0  0  0  0
 46 47  1  0  0  0  0
 46 49  1  0  0  0  0
 47 48  1  0  0  0  0
 47 45  1  1  0  0  0
 49 48  1  0  0  0  0
M  END
>  <MODEL>
3

>  <REMARK>
 VINA RESULT:      -8.2      1.401      2.086
  Name = 
  12 active torsions:
  status: ('A' for Active; 'I' for Inactive)
    1  A    between atoms: C_2  and  C_49
    2  A    between atoms: C_3  and  C_49
    3  A    between atoms: O_5  and  C_34
    4  A    between atoms: O_5  and  C_39
    5  A    between atoms: C_14  and  O_20
    6  A    between atoms: C_16  and  C_32
    7  A    between atoms: C_17  and  C_39
    8  A    between atoms: C_19  and  C_34
    9  A    between atoms: O_20  and  C_31
   10  A    between atoms: C_31  and  C_32
   11  A    between atoms: C_31  and  C_46
   12  A    between atoms: C_35  and  C_44
                            x       y       z     vdW  Elec       q    Type
                         _______ _______ _______ _____ _____    ______ ____

>  <TORSDO>
F 12

$$$$
=
 OpenBabel11062414033D

 49 54  0  0  1  0  0  0  0  0999 V2000
  189.2150  175.0470  137.0540 C   0  0  0  0  0  2  0  0  0  0  0  0
  188.6360  174.8580  134.7400 F   0  0  0  0  0  0  0  0  0  0  0  0
  190.8720  175.4040  135.3080 C   0  0  0  0  0  2  0  0  0  0  0  0
  189.4010  175.5860  135.6360 C   0  0  2  0  0  0  0  0  0  0  0  0
  190.5990  174.9750  137.6770 C   0  0  1  0  0  3  0  0  0  0  0  0
  192.9340  174.8600  136.6800 C   0  0  0  0  0  0  0  0  0  0  0  0
  193.4190  174.4620  137.7750 O   0  0  0  0  0  0  0  0  0  0  0  0
  191.5230  175.0870  136.5640 N   0  0  0  0  0  0  0  0  0  0  0  0
  195.7140  172.7720  136.1730 C   0  0  0  0  0  2  0  0  0  0  0  0
  196.5430  173.7760  135.6610 O   0  0  0  0  0  0  0  0  0  0  0  0
  194.4790  172.5650  135.2920 C   0  0  0  0  0  2  0  0  0  0  0  0
  195.1540  175.7030  135.8420 C   0  0  0  0  0  0  0  0  0  0  0  0
  195.3040  176.9030  135.6770 O   0  0  0  0  0  0  0  0  0  0  0  0
  196.2680  174.8990  136.4480 C   0  0  0  0  0  2  0  0  0  0  0  0
  193.8330  175.0700  135.4940 C   0  0  1  0  0  3  0  0  0  0  0  0
  193.9720  173.8350  134.5940 C   0  0  0  0  0  2  0  0  0  0  0  0
  190.7840  176.1220  138.6190 C   0  0  0  0  0  0  0  0  0  0  0  0
  191.4730  177.1130  138.2630 O   0  0  0  0  0  0  0  0  0  0  0  0
  190.2120  176.0720  139.8900 O   0  0  0  0  0  0  0  0  0  0  0  0
  189.9650  177.2390  140.6620 C   0  0  0  0  0  2  0  0  0  0  0  0
  189.5270  177.3340  144.4590 C   0  0  1  0  0  3  0  0  0  0  0  0
  192.0800  177.2910  143.9240 C   0  0  2  0  0  3  0  0  0  0  0  0
  190.2890  176.9860  142.1280 C   0  0  2  0  0  3  0  0  0  0  0  0
  191.6840  178.4700  144.5940 O   0  0  0  0  0  0  0  0  0  0  0  0
  189.3330  177.7540  143.0120 C   0  0  0  0  0  2  0  0  0  0  0  0
  191.7050  177.4350  142.4440 C   0  0  0  0  0  2  0  0  0  0  0  0
  190.9890  177.3030  144.9550 C   0  0  1  0  0  3  0  0  0  0  0  0
  188.6860  178.2290  145.3510 C   0  0  0  0  0  2  0  0  0  0  0  0
  187.4420  177.5040  145.8340 C   0  0  2  0  0  3  0  0  0  0  0  0
  183.6180  179.3460  144.9490 N   0  0  0  0  0  2  0  0  0  0  0  0
  186.5940  177.1380  144.6460 C   0  0  0  0  0  0  0  0  0  0  0  0
  185.5130  178.9260  146.5240 C   0  0  0  0  0  3  0  0  0  0  0  0
  181.7590  179.8880  143.6670 O   0  0  0  0  0  0  0  0  0  0  0  0
  186.9820  176.2400  143.8530 O   0  0  0  0  0  0  0  0  0  0  0  0
  182.8800  179.3200  143.7200 C   0  0  0  0  0  0  0  0  0  0  0  0
  183.4070  178.6620  142.4900 C   0  0  0  0  0  1  0  0  0  0  0  0
  185.3640  177.8270  144.3870 N   0  0  0  0  0  0  0  0  0  0  0  0
  186.6910  178.3700  146.8140 C   0  0  0  0  0  3  0  0  0  0  0  0
  184.8560  178.6790  145.2290 C   0  0  0  0  0  0  0  0  0  0  0  0
  189.0600  177.0740  135.5650 C   0  0  0  0  0  2  0  0  0  0  0  0
  187.7620  177.4420  136.2860 C   0  0  1  0  0  3  0  0  0  0  0  0
  187.3080  178.3550  138.4410 O   0  0  0  0  0  0  0  0  0  0  0  0
  189.0160  179.4120  137.2740 N   0  0  0  0  0  1  0  0  0  0  0  0
  188.0040  178.4160  137.3950 C   0  0  0  0  0  0  0  0  0  0  0  0
  186.8620  177.9960  135.3720 O   0  0  0  0  0  0  0  0  0  0  0  0
  184.7400  177.4340  134.5940 N   0  0  0  0  0  2  0  0  0  0  0  0
  186.0550  176.9340  134.9580 C   0  0  2  0  0  3  0  0  0  0  0  0
  185.5550  175.9520  136.3990 S   0  0  0  0  0  0  0  0  0  0  0  0
  184.0860  176.7400  135.6890 C   0  0  0  0  0  2  0  0  0  0  0  0
  1  5  1  0  0  0  0
  3  4  1  0  0  0  0
  3  8  1  0  0  0  0
  4  2  1  6  0  0  0
  4  1  1  0  0  0  0
  5 17  1  1  0  0  0
  6  7  2  0  0  0  0
  8  6  1  0  0  0  0
  8  5  1  0  0  0  0
 10  9  1  0  0  0  0
 10 14  1  0  0  0  0
 11  9  1  0  0  0  0
 12 14  1  0  0  0  0
 13 12  2  0  0  0  0
 15 12  1  0  0  0  0
 15  6  1  1  0  0  0
 16 11  1  0  0  0  0
 16 15  1  0  0  0  0
 17 19  1  0  0  0  0
 18 17  2  0  0  0  0
 19 20  1  0  0  0  0
 21 27  1  0  0  0  0
 21 28  1  1  0  0  0
 22 26  1  6  0  0  0
 22 24  1  0  0  0  0
 22 27  1  0  0  0  0
 23 20  1  6  0  0  0
 23 26  1  0  0  0  0
 23 25  1  0  0  0  0
 25 21  1  0  0  0  0
 27 24  1  1  0  0  0
 29 28  1  6  0  0  0
 29 38  1  0  0  0  0
 30 39  1  0  0  0  0
 31 29  1  0  0  0  0
 32 38  2  0  0  0  0
 33 35  2  0  0  0  0
 34 31  2  0  0  0  0
 35 30  1  0  0  0  0
 36 35  1  0  0  0  0
 37 31  1  0  0  0  0
 37 39  2  0  0  0  0
 39 32  1  0  0  0  0
 40  4  1  0  0  0  0
 41 40  1  6  0  0  0
 41 44  1  0  0  0  0
 43 44  1  0  0  0  0
 44 42  2  0  0  0  0
 45 41  1  0  0  0  0
 46 47  1  0  0  0  0
 46 49  1  0  0  0  0
 47 45  1  1  0  0  0
 47 48  1  0  0  0  0
 49 48  1  0  0  0  0
M  END
>  <MODEL>
4

>  <REMARK>
 VINA RESULT:      -8.1      2.746      7.150
  Name = 
  12 active torsions:
  status: ('A' for Active; 'I' for Inactive)
    1  A    between atoms: C_2  and  C_49
    2  A    between atoms: C_3  and  C_49
    3  A    between atoms: O_5  and  C_34
    4  A    between atoms: O_5  and  C_39
    5  A    between atoms: C_14  and  O_20
    6  A    between atoms: C_16  and  C_32
    7  A    between atoms: C_17  and  C_39
    8  A    between atoms: C_19  and  C_34
    9  A    between atoms: O_20  and  C_31
   10  A    between atoms: C_31  and  C_32
   11  A    between atoms: C_31  and  C_46
   12  A    between atoms: C_35  and  C_44
                            x       y       z     vdW  Elec       q    Type
                         _______ _______ _______ _____ _____    ______ ____

>  <TORSDO>
F 12

$$$$
=
 OpenBabel11062414033D

 49 54  0  0  1  0  0  0  0  0999 V2000
  189.0740  176.0280  138.2920 C   0  0  0  0  0  2  0  0  0  0  0  0
  191.0050  174.6180  138.3540 F   0  0  0  0  0  0  0  0  0  0  0  0
  190.9410  176.5170  139.7730 C   0  0  0  0  0  2  0  0  0  0  0  0
  190.5940  175.9390  138.4130 C   0  0  2  0  0  0  0  0  0  0  0  0
  188.6110  177.0230  139.3430 C   0  0  1  0  0  3  0  0  0  0  0  0
  189.6640  177.8690  141.4960 C   0  0  0  0  0  0  0  0  0  0  0  0
  188.5550  178.3100  141.9060 O   0  0  0  0  0  0  0  0  0  0  0  0
  189.7390  177.1760  140.2430 N   0  0  0  0  0  0  0  0  0  0  0  0
  190.0560  176.0550  144.4800 C   0  0  0  0  0  2  0  0  0  0  0  0
  190.7000  177.0830  145.1770 O   0  0  0  0  0  0  0  0  0  0  0  0
  190.8650  175.6210  143.2540 C   0  0  0  0  0  2  0  0  0  0  0  0
  190.6670  178.8550  143.5850 C   0  0  0  0  0  0  0  0  0  0  0  0
  190.9600  180.0400  143.5950 O   0  0  0  0  0  0  0  0  0  0  0  0
  190.0230  178.2470  144.7970 C   0  0  0  0  0  2  0  0  0  0  0  0
  190.8980  178.0480  142.3350 C   0  0  1  0  0  3  0  0  0  0  0  0
  191.6710  176.7470  142.5890 C   0  0  0  0  0  2  0  0  0  0  0  0
  188.2900  178.3290  138.6900 C   0  0  0  0  0  0  0  0  0  0  0  0
  189.2120  179.1600  138.4760 O   0  0  0  0  0  0  0  0  0  0  0  0
  186.9720  178.6250  138.3460 O   0  0  0  0  0  0  0  0  0  0  0  0
  186.3230  178.0320  137.2290 C   0  0  0  0  0  2  0  0  0  0  0  0
  183.1620  177.6840  139.3520 C   0  0  1  0  0  3  0  0  0  0  0  0
  183.0310  175.9680  137.3910 C   0  0  2  0  0  3  0  0  0  0  0  0
  184.8640  177.7410  137.5530 C   0  0  2  0  0  3  0  0  0  0  0  0
  183.0570  175.3450  138.6590 O   0  0  0  0  0  0  0  0  0  0  0  0
  184.6490  177.7650  139.0490 C   0  0  0  0  0  2  0  0  0  0  0  0
  184.4660  176.3720  137.0300 C   0  0  0  0  0  2  0  0  0  0  0  0
  182.3870  176.5800  138.6010 C   0  0  1  0  0  3  0  0  0  0  0  0
  182.9710  177.5370  140.8510 C   0  0  0  0  0  2  0  0  0  0  0  0
  183.0990  178.8800  141.5510 C   0  0  2  0  0  3  0  0  0  0  0  0
  183.9770  178.8150  145.7960 N   0  0  0  0  0  2  0  0  0  0  0  0
  184.4860  179.0090  142.1180 C   0  0  0  0  0  0  0  0  0  0  0  0
  182.3330  178.9850  143.9210 C   0  0  0  0  0  3  0  0  0  0  0  0
  185.3030  178.6670  147.6960 O   0  0  0  0  0  0  0  0  0  0  0  0
  185.4680  179.1590  141.3440 O   0  0  0  0  0  0  0  0  0  0  0  0
  185.2420  178.6130  146.4410 C   0  0  0  0  0  0  0  0  0  0  0  0
  186.4860  178.3180  145.6750 C   0  0  0  0  0  1  0  0  0  0  0  0
  184.7080  178.9250  143.5320 N   0  0  0  0  0  0  0  0  0  0  0  0
  182.0420  179.0050  142.6180 C   0  0  0  0  0  3  0  0  0  0  0  0
  183.7270  178.8870  144.3860 C   0  0  0  0  0  0  0  0  0  0  0  0
  191.2810  176.7740  137.3320 C   0  0  0  0  0  2  0  0  0  0  0  0
  191.7210  175.9590  136.1140 C   0  0  1  0  0  3  0  0  0  0  0  0
  190.2750  174.7440  134.6610 O   0  0  0  0  0  0  0  0  0  0  0  0
  190.0090  177.0500  134.5940 N   0  0  0  0  0  1  0  0  0  0  0  0
  190.6360  175.8700  135.0890 C   0  0  0  0  0  0  0  0  0  0  0  0
  192.8510  176.5510  135.5420 O   0  0  0  0  0  0  0  0  0  0  0  0
  195.1540  176.7220  135.8380 N   0  0  0  0  0  2  0  0  0  0  0  0
  193.9350  176.0630  136.2750 C   0  0  2  0  0  3  0  0  0  0  0  0
  194.3440  174.3880  135.7120 S   0  0  0  0  0  0  0  0  0  0  0  0
  195.7160  175.4970  135.2980 C   0  0  0  0  0  2  0  0  0  0  0  0
  1  4  1  0  0  0  0
  1  5  1  0  0  0  0
  3  8  1  0  0  0  0
  4  2  1  6  0  0  0
  4  3  1  0  0  0  0
  5 17  1  6  0  0  0
  5  8  1  0  0  0  0
  6  7  2  0  0  0  0
  8  6  1  0  0  0  0
  9 10  1  0  0  0  0
 11  9  1  0  0  0  0
 12 13  2  0  0  0  0
 12 14  1  0  0  0  0
 14 10  1  0  0  0  0
 15  6  1  1  0  0  0
 15 16  1  0  0  0  0
 15 12  1  0  0  0  0
 16 11  1  0  0  0  0
 18 17  2  0  0  0  0
 19 17  1  0  0  0  0
 20 19  1  0  0  0  0
 21 28  1  1  0  0  0
 22 26  1  1  0  0  0
 22 27  1  0  0  0  0
 22 24  1  0  0  0  0
 23 20  1  1  0  0  0
 23 25  1  0  0  0  0
 25 21  1  0  0  0  0
 26 23  1  0  0  0  0
 27 24  1  1  0  0  0
 27 21  1  0  0  0  0
 29 28  1  1  0  0  0
 29 31  1  0  0  0  0
 29 38  1  0  0  0  0
 30 35  1  0  0  0  0
 31 37  1  0  0  0  0
 32 39  1  0  0  0  0
 34 31  2  0  0  0  0
 35 33  2  0  0  0  0
 36 35  1  0  0  0  0
 37 39  2  0  0  0  0
 38 32  2  0  0  0  0
 39 30  1  0  0  0  0
 40  4  1  0  0  0  0
 41 40  1  1  0  0  0
 42 44  2  0  0  0  0
 43 44  1  0  0  0  0
 44 41  1  0  0  0  0
 45 41  1  0  0  0  0
 46 47  1  0  0  0  0
 47 45  1  6  0  0  0
 48 47  1  0  0  0  0
 49 48  1  0  0  0  0
 49 46  1  0  0  0  0
M  END
>  <MODEL>
5

>  <REMARK>
 VINA RESULT:      -8.0      2.728      6.080
  Name = 
  12 active torsions:
  status: ('A' for Active; 'I' for Inactive)
    1  A    between atoms: C_2  and  C_49
    2  A    between atoms: C_3  and  C_49
    3  A    between atoms: O_5  and  C_34
    4  A    between atoms: O_5  and  C_39
    5  A    between atoms: C_14  and  O_20
    6  A    between atoms: C_16  and  C_32
    7  A    between atoms: C_17  and  C_39
    8  A    between atoms: C_19  and  C_34
    9  A    between atoms: O_20  and  C_31
   10  A    between atoms: C_31  and  C_32
   11  A    between atoms: C_31  and  C_46
   12  A    between atoms: C_35  and  C_44
                            x       y       z     vdW  Elec       q    Type
                         _______ _______ _______ _____ _____    ______ ____

>  <TORSDO>
F 12

$$$$
=
 OpenBabel11062414033D

 49 54  0  0  1  0  0  0  0  0999 V2000
  189.8020  178.0820  139.3490 C   0  0  0  0  0  2  0  0  0  0  0  0
  191.5220  178.1510  141.0100 F   0  0  0  0  0  0  0  0  0  0  0  0
  191.6200  176.4640  139.3460 C   0  0  0  0  0  2  0  0  0  0  0  0
  190.7360  177.2900  140.2630 C   0  0  2  0  0  0  0  0  0  0  0  0
  189.8450  177.4030  137.9900 C   0  0  1  0  0  3  0  0  0  0  0  0
  191.5450  175.8710  136.8820 C   0  0  0  0  0  0  0  0  0  0  0  0
  191.0440  176.0830  135.7430 O   0  0  0  0  0  0  0  0  0  0  0  0
  191.0130  176.5420  138.0320 N   0  0  0  0  0  0  0  0  0  0  0  0
  194.2350  176.0410  134.6280 C   0  0  0  0  0  2  0  0  0  0  0  0
  194.4740  174.6630  134.6020 O   0  0  0  0  0  0  0  0  0  0  0  0
  194.4280  176.6140  136.0350 C   0  0  0  0  0  2  0  0  0  0  0  0
  192.7330  173.8340  136.0010 C   0  0  0  0  0  0  0  0  0  0  0  0
  192.3110  172.7290  136.3040 O   0  0  0  0  0  0  0  0  0  0  0  0
  193.2010  174.0820  134.5970 C   0  0  0  0  0  2  0  0  0  0  0  0
  192.7130  174.9370  137.0250 C   0  0  1  0  0  3  0  0  0  0  0  0
  194.0640  175.6500  137.1740 C   0  0  0  0  0  2  0  0  0  0  0  0
  188.6080  176.5860  137.7990 C   0  0  0  0  0  0  0  0  0  0  0  0
  188.6880  175.3290  137.7930 O   0  0  0  0  0  0  0  0  0  0  0  0
  187.3820  177.2220  137.6050 O   0  0  0  0  0  0  0  0  0  0  0  0
  186.6830  177.1730  136.3690 C   0  0  0  0  0  2  0  0  0  0  0  0
  183.4130  177.5590  138.3120 C   0  0  1  0  0  3  0  0  0  0  0  0
  182.9470  176.1110  136.1930 C   0  0  2  0  0  3  0  0  0  0  0  0
  185.1820  177.2790  136.6010 C   0  0  2  0  0  3  0  0  0  0  0  0
  182.7130  175.4080  137.3950 O   0  0  0  0  0  0  0  0  0  0  0  0
  184.8810  177.2430  138.0820 C   0  0  0  0  0  2  0  0  0  0  0  0
  184.4580  176.1230  135.9330 C   0  0  0  0  0  2  0  0  0  0  0  0
  182.4160  176.7810  137.4270 C   0  0  1  0  0  3  0  0  0  0  0  0
  183.0880  177.3540  139.7800 C   0  0  0  0  0  2  0  0  0  0  0  0
  182.9180  178.6860  140.4930 C   0  0  2  0  0  3  0  0  0  0  0  0
  183.1630  178.6510  144.8210 N   0  0  0  0  0  2  0  0  0  0  0  0
  184.1740  178.9960  141.2600 C   0  0  0  0  0  0  0  0  0  0  0  0
  181.8040  178.6280  142.7230 C   0  0  0  0  0  3  0  0  0  0  0  0
  184.2030  178.6500  146.8980 O   0  0  0  0  0  0  0  0  0  0  0  0
  185.2270  179.3010  140.6400 O   0  0  0  0  0  0  0  0  0  0  0  0
  184.3340  178.6160  145.6470 C   0  0  0  0  0  0  0  0  0  0  0  0
  185.7070  178.5170  145.0740 C   0  0  0  0  0  1  0  0  0  0  0  0
  184.1950  178.9140  142.6910 N   0  0  0  0  0  0  0  0  0  0  0  0
  181.7090  178.6350  141.3920 C   0  0  0  0  0  3  0  0  0  0  0  0
  183.1150  178.7180  143.3900 C   0  0  0  0  0  0  0  0  0  0  0  0
  189.9460  176.3450  141.1690 C   0  0  0  0  0  2  0  0  0  0  0  0
  189.7730  176.8660  142.5970 C   0  0  1  0  0  3  0  0  0  0  0  0
  187.6510  177.9100  142.2950 O   0  0  0  0  0  0  0  0  0  0  0  0
  187.7220  176.3170  143.9850 N   0  0  0  0  0  1  0  0  0  0  0  0
  188.3300  177.0680  142.9380 C   0  0  0  0  0  0  0  0  0  0  0  0
  190.3370  175.9570  143.4960 O   0  0  0  0  0  0  0  0  0  0  0  0
  191.3000  176.3700  145.5750 N   0  0  0  0  0  2  0  0  0  0  0  0
  191.3460  176.6650  144.1530 C   0  0  2  0  0  3  0  0  0  0  0  0
  190.8920  178.4190  144.2500 S   0  0  0  0  0  0  0  0  0  0  0  0
  190.9230  177.7280  145.9250 C   0  0  0  0  0  2  0  0  0  0  0  0
  1  4  1  0  0  0  0
  3  4  1  0  0  0  0
  4  2  1  1  0  0  0
  4 40  1  0  0  0  0
  5 17  1  1  0  0  0
  5  8  1  0  0  0  0
  5  1  1  0  0  0  0
  6  8  1  0  0  0  0
  7  6  2  0  0  0  0
  8  3  1  0  0  0  0
  9 11  1  0  0  0  0
 10  9  1  0  0  0  0
 11 16  1  0  0  0  0
 12 13  2  0  0  0  0
 12 15  1  0  0  0  0
 14 10  1  0  0  0  0
 14 12  1  0  0  0  0
 15  6  1  6  0  0  0
 15 16  1  0  0  0  0
 18 17  2  0  0  0  0
 19 17  1  0  0  0  0
 20 19  1  0  0  0  0
 21 28  1  1  0  0  0
 22 26  1  1  0  0  0
 22 24  1  0  0  0  0
 22 27  1  0  0  0  0
 23 20  1  1  0  0  0
 23 25  1  0  0  0  0
 25 21  1  0  0  0  0
 26 23  1  0  0  0  0
 27 24  1  1  0  0  0
 27 21  1  0  0  0  0
 29 28  1  1  0  0  0
 29 31  1  0  0  0  0
 29 38  1  0  0  0  0
 30 35  1  0  0  0  0
 31 37  1  0  0  0  0
 32 39  1  0  0  0  0
 34 31  2  0  0  0  0
 35 33  2  0  0  0  0
 36 35  1  0  0  0  0
 37 39  2  0  0  0  0
 38 32  2  0  0  0  0
 39 30  1  0  0  0  0
 41 40  1  6  0  0  0
 41 44  1  0  0  0  0
 41 45  1  0  0  0  0
 42 44  2  0  0  0  0
 44 43  1  0  0  0  0
 46 49  1  0  0  0  0
 47 45  1  6  0  0  0
 47 48  1  0  0  0  0
 47 46  1  0  0  0  0
 48 49  1  0  0  0  0
M  END
>  <MODEL>
6

>  <REMARK>
 VINA RESULT:      -7.7      2.478      6.239
  Name = 
  12 active torsions:
  status: ('A' for Active; 'I' for Inactive)
    1  A    between atoms: C_2  and  C_49
    2  A    between atoms: C_3  and  C_49
    3  A    between atoms: O_5  and  C_34
    4  A    between atoms: O_5  and  C_39
    5  A    between atoms: C_14  and  O_20
    6  A    between atoms: C_16  and  C_32
    7  A    between atoms: C_17  and  C_39
    8  A    between atoms: C_19  and  C_34
    9  A    between atoms: O_20  and  C_31
   10  A    between atoms: C_31  and  C_32
   11  A    between atoms: C_31  and  C_46
   12  A    between atoms: C_35  and  C_44
                            x       y       z     vdW  Elec       q    Type
                         _______ _______ _______ _____ _____    ______ ____

>  <TORSDO>
F 12

$$$$
=
 OpenBabel11062414033D

 49 54  0  0  1  0  0  0  0  0999 V2000
  189.4920  178.4490  139.3070 C   0  0  0  0  0  2  0  0  0  0  0  0
  191.1500  178.2190  141.0150 F   0  0  0  0  0  0  0  0  0  0  0  0
  191.0050  176.5440  139.3430 C   0  0  0  0  0  2  0  0  0  0  0  0
  190.2500  177.5070  140.2410 C   0  0  2  0  0  0  0  0  0  0  0  0
  189.4570  177.7770  137.9440 C   0  0  1  0  0  3  0  0  0  0  0  0
  190.9000  175.9790  136.8730 C   0  0  0  0  0  0  0  0  0  0  0  0
  190.4760  176.2760  135.7230 O   0  0  0  0  0  0  0  0  0  0  0  0
  190.4580  176.7280  138.0130 N   0  0  0  0  0  0  0  0  0  0  0  0
  193.9020  175.9700  135.0470 C   0  0  0  0  0  2  0  0  0  0  0  0
  193.9420  174.5840  134.8640 O   0  0  0  0  0  0  0  0  0  0  0  0
  193.9550  176.3390  136.5330 C   0  0  0  0  0  2  0  0  0  0  0  0
  191.9060  173.8910  135.8880 C   0  0  0  0  0  0  0  0  0  0  0  0
  191.2890  172.8420  135.9770 O   0  0  0  0  0  0  0  0  0  0  0  0
  192.6160  174.2210  134.6070 C   0  0  0  0  0  2  0  0  0  0  0  0
  191.8870  174.8570  137.0430 C   0  0  1  0  0  3  0  0  0  0  0  0
  193.2860  175.3210  137.4680 C   0  0  0  0  0  2  0  0  0  0  0  0
  188.1040  177.1840  137.7130 C   0  0  0  0  0  0  0  0  0  0  0  0
  187.9130  175.9610  137.9460 O   0  0  0  0  0  0  0  0  0  0  0  0
  187.0740  177.9840  137.2200 O   0  0  0  0  0  0  0  0  0  0  0  0
  186.5470  177.8280  135.9090 C   0  0  0  0  0  2  0  0  0  0  0  0
  183.1670  176.6490  137.2530 C   0  0  1  0  0  3  0  0  0  0  0  0
  184.2140  174.7180  135.8460 C   0  0  2  0  0  3  0  0  0  0  0  0
  185.2340  177.0580  135.9510 C   0  0  2  0  0  3  0  0  0  0  0  0
  184.0380  174.3690  137.2040 O   0  0  0  0  0  0  0  0  0  0  0  0
  184.5650  177.2420  137.2940 C   0  0  0  0  0  2  0  0  0  0  0  0
  185.4800  175.5750  135.7340 C   0  0  0  0  0  2  0  0  0  0  0  0
  183.0630  175.2260  136.6650 C   0  0  1  0  0  3  0  0  0  0  0  0
  182.5730  176.6890  138.6490 C   0  0  0  0  0  2  0  0  0  0  0  0
  181.8470  178.0010  138.8960 C   0  0  2  0  0  3  0  0  0  0  0  0
  179.3970  178.2570  142.4640 N   0  0  0  0  0  2  0  0  0  0  0  0
  182.3240  178.5900  140.1960 C   0  0  0  0  0  0  0  0  0  0  0  0
  179.6190  177.8560  140.0070 C   0  0  0  0  0  3  0  0  0  0  0  0
  178.9420  178.5730  144.7190 O   0  0  0  0  0  0  0  0  0  0  0  0
  183.4910  179.0560  140.2810 O   0  0  0  0  0  0  0  0  0  0  0  0
  179.8130  178.4950  143.8150 C   0  0  0  0  0  0  0  0  0  0  0  0
  181.2490  178.6290  144.1920 C   0  0  0  0  0  1  0  0  0  0  0  0
  181.4750  178.5930  141.3510 N   0  0  0  0  0  0  0  0  0  0  0  0
  180.3570  177.7700  138.8980 C   0  0  0  0  0  3  0  0  0  0  0  0
  180.2260  178.2340  141.2940 C   0  0  0  0  0  0  0  0  0  0  0  0
  189.2840  176.7100  141.1180 C   0  0  0  0  0  2  0  0  0  0  0  0
  189.0030  177.3630  142.4720 C   0  0  1  0  0  3  0  0  0  0  0  0
  186.9140  178.2620  141.7590 O   0  0  0  0  0  0  0  0  0  0  0  0
  186.8680  177.2230  143.8360 N   0  0  0  0  0  1  0  0  0  0  0  0
  187.5450  177.6460  142.6550 C   0  0  0  0  0  0  0  0  0  0  0  0
  189.4420  176.5190  143.4960 O   0  0  0  0  0  0  0  0  0  0  0  0
  191.6750  176.4830  144.1560 N   0  0  0  0  0  2  0  0  0  0  0  0
  190.4340  177.2380  144.1670 C   0  0  2  0  0  3  0  0  0  0  0  0
  190.1240  177.1780  145.9540 S   0  0  0  0  0  0  0  0  0  0  0  0
  191.6610  176.2880  145.5950 C   0  0  0  0  0  2  0  0  0  0  0  0
  1  4  1  0  0  0  0
  3  4  1  0  0  0  0
  4  2  1  1  0  0  0
  4 40  1  0  0  0  0
  5 17  1  1  0  0  0
  5  8  1  0  0  0  0
  5  1  1  0  0  0  0
  6  8  1  0  0  0  0
  7  6  2  0  0  0  0
  8  3  1  0  0  0  0
  9 11  1  0  0  0  0
 10  9  1  0  0  0  0
 11 16  1  0  0  0  0
 12 13  2  0  0  0  0
 12 15  1  0  0  0  0
 14 10  1  0  0  0  0
 14 12  1  0  0  0  0
 15  6  1  6  0  0  0
 15 16  1  0  0  0  0
 17 18  2  0  0  0  0
 19 17  1  0  0  0  0
 20 19  1  0  0  0  0
 21 25  1  0  0  0  0
 21 28  1  1  0  0  0
 22 26  1  1  0  0  0
 22 27  1  0  0  0  0
 22 24  1  0  0  0  0
 23 20  1  1  0  0  0
 23 25  1  0  0  0  0
 26 23  1  0  0  0  0
 27 24  1  1  0  0  0
 27 21  1  0  0  0  0
 29 28  1  1  0  0  0
 29 38  1  0  0  0  0
 29 31  1  0  0  0  0
 30 35  1  0  0  0  0
 31 34  2  0  0  0  0
 31 37  1  0  0  0  0
 32 39  1  0  0  0  0
 35 36  1  0  0  0  0
 35 33  2  0  0  0  0
 38 32  2  0  0  0  0
 39 37  2  0  0  0  0
 39 30  1  0  0  0  0
 41 40  1  6  0  0  0
 41 44  1  0  0  0  0
 41 45  1  0  0  0  0
 42 44  2  0  0  0  0
 44 43  1  0  0  0  0
 46 47  1  0  0  0  0
 46 49  1  0  0  0  0
 47 45  1  6  0  0  0
 47 48  1  0  0  0  0
 49 48  1  0  0  0  0
M  END
>  <MODEL>
7

>  <REMARK>
 VINA RESULT:      -7.6      3.004      7.055
  Name = 
  12 active torsions:
  status: ('A' for Active; 'I' for Inactive)
    1  A    between atoms: C_2  and  C_49
    2  A    between atoms: C_3  and  C_49
    3  A    between atoms: O_5  and  C_34
    4  A    between atoms: O_5  and  C_39
    5  A    between atoms: C_14  and  O_20
    6  A    between atoms: C_16  and  C_32
    7  A    between atoms: C_17  and  C_39
    8  A    between atoms: C_19  and  C_34
    9  A    between atoms: O_20  and  C_31
   10  A    between atoms: C_31  and  C_32
   11  A    between atoms: C_31  and  C_46
   12  A    between atoms: C_35  and  C_44
                            x       y       z     vdW  Elec       q    Type
                         _______ _______ _______ _____ _____    ______ ____

>  <TORSDO>
F 12

$$$$
=
 OpenBabel11062414033D

 49 54  0  0  1  0  0  0  0  0999 V2000
  187.5420  178.7230  136.7620 C   0  0  0  0  0  2  0  0  0  0  0  0
  189.7210  177.8930  136.2280 F   0  0  0  0  0  0  0  0  0  0  0  0
  187.9420  176.3420  136.4540 C   0  0  0  0  0  2  0  0  0  0  0  0
  188.5810  177.6210  136.9650 C   0  0  2  0  0  0  0  0  0  0  0  0
  186.2050  178.0290  136.5610 C   0  0  1  0  0  3  0  0  0  0  0  0
  185.5780  175.6790  135.8210 C   0  0  0  0  0  0  0  0  0  0  0  0
  184.3960  176.0380  135.5650 O   0  0  0  0  0  0  0  0  0  0  0  0
  186.5350  176.6440  136.2770 N   0  0  0  0  0  0  0  0  0  0  0  0
  183.2570  173.0900  136.3300 C   0  0  0  0  0  2  0  0  0  0  0  0
  184.1800  172.1880  136.8680 O   0  0  0  0  0  0  0  0  0  0  0  0
  183.6200  173.4690  134.8910 C   0  0  0  0  0  2  0  0  0  0  0  0
  186.1750  173.4880  136.9100 C   0  0  0  0  0  0  0  0  0  0  0  0
  187.3020  173.3400  137.3560 O   0  0  0  0  0  0  0  0  0  0  0  0
  185.0030  172.9680  137.6890 C   0  0  0  0  0  2  0  0  0  0  0  0
  185.9860  174.2450  135.6230 C   0  0  1  0  0  3  0  0  0  0  0  0
  185.1280  173.4930  134.5980 C   0  0  0  0  0  2  0  0  0  0  0  0
  185.3990  178.1210  137.8170 C   0  0  0  0  0  0  0  0  0  0  0  0
  185.9780  178.3540  138.9110 O   0  0  0  0  0  0  0  0  0  0  0  0
  184.0200  177.9240  137.7690 O   0  0  0  0  0  0  0  0  0  0  0  0
  183.3160  177.2030  138.7720 C   0  0  0  0  0  2  0  0  0  0  0  0
  182.7200  178.8120  142.1890 C   0  0  1  0  0  3  0  0  0  0  0  0
  180.5350  179.0320  140.7810 C   0  0  2  0  0  3  0  0  0  0  0  0
  182.7250  178.1590  139.7990 C   0  0  2  0  0  3  0  0  0  0  0  0
  180.3560  178.2510  141.9450 O   0  0  0  0  0  0  0  0  0  0  0  0
  183.1340  177.7410  141.1930 C   0  0  0  0  0  2  0  0  0  0  0  0
  181.2090  178.1560  139.7190 C   0  0  0  0  0  2  0  0  0  0  0  0
  181.2660  179.3160  142.0610 C   0  0  1  0  0  3  0  0  0  0  0  0
  182.9810  178.3060  143.5960 C   0  0  0  0  0  2  0  0  0  0  0  0
  183.8620  179.2740  144.3690 C   0  0  2  0  0  3  0  0  0  0  0  0
  187.2790  177.6000  146.4460 N   0  0  0  0  0  2  0  0  0  0  0  0
  185.2520  179.2390  143.7950 C   0  0  0  0  0  0  0  0  0  0  0  0
  184.9140  178.4070  146.4560 C   0  0  0  0  0  3  0  0  0  0  0  0
  189.4420  176.7880  146.6820 O   0  0  0  0  0  0  0  0  0  0  0  0
  185.4720  179.7270  142.6550 O   0  0  0  0  0  0  0  0  0  0  0  0
  188.5540  177.2260  145.9060 C   0  0  0  0  0  0  0  0  0  0  0  0
  188.8570  177.3140  144.4490 C   0  0  0  0  0  1  0  0  0  0  0  0
  186.3250  178.6210  144.5180 N   0  0  0  0  0  0  0  0  0  0  0  0
  183.8500  178.9190  145.8340 C   0  0  0  0  0  3  0  0  0  0  0  0
  186.1860  178.2040  145.7420 C   0  0  0  0  0  0  0  0  0  0  0  0
  188.9150  177.4480  138.4470 C   0  0  0  0  0  2  0  0  0  0  0  0
  190.3260  176.9140  138.7000 C   0  0  1  0  0  3  0  0  0  0  0  0
  189.9760  177.3480  141.0180 O   0  0  0  0  0  0  0  0  0  0  0  0
  192.1910  177.4700  140.3280 N   0  0  0  0  0  1  0  0  0  0  0  0
  190.8050  177.2540  140.0770 C   0  0  0  0  0  0  0  0  0  0  0  0
  190.3350  175.5260  138.5370 O   0  0  0  0  0  0  0  0  0  0  0  0
  191.9610  176.3440  137.0830 N   0  0  0  0  0  2  0  0  0  0  0  0
  191.5590  175.2340  137.9310 C   0  0  2  0  0  3  0  0  0  0  0  0
  191.3110  174.0020  136.6230 S   0  0  0  0  0  0  0  0  0  0  0  0
  191.8340  175.5630  135.8660 C   0  0  0  0  0  2  0  0  0  0  0  0
  1  4  1  0  0  0  0
  3  4  1  0  0  0  0
  4  2  1  6  0  0  0
  4 40  1  0  0  0  0
  5  1  1  0  0  0  0
  5 17  1  1  0  0  0
  6  8  1  0  0  0  0
  7  6  2  0  0  0  0
  8  3  1  0  0  0  0
  8  5  1  0  0  0  0
  9 10  1  0  0  0  0
 10 14  1  0  0  0  0
 11  9  1  0  0  0  0
 12 13  2  0  0  0  0
 12 14  1  0  0  0  0
 15  6  1  1  0  0  0
 15 12  1  0  0  0  0
 16 11  1  0  0  0  0
 16 15  1  0  0  0  0
 17 18  2  0  0  0  0
 19 17  1  0  0  0  0
 19 20  1  0  0  0  0
 21 28  1  1  0  0  0
 22 26  1  6  0  0  0
 22 24  1  0  0  0  0
 22 27  1  0  0  0  0
 23 20  1  6  0  0  0
 23 25  1  0  0  0  0
 25 21  1  0  0  0  0
 26 23  1  0  0  0  0
 27 24  1  1  0  0  0
 27 21  1  0  0  0  0
 29 28  1  6  0  0  0
 29 38  1  0  0  0  0
 31 29  1  0  0  0  0
 31 37  1  0  0  0  0
 34 31  2  0  0  0  0
 35 30  1  0  0  0  0
 35 33  2  0  0  0  0
 36 35  1  0  0  0  0
 37 39  2  0  0  0  0
 38 32  2  0  0  0  0
 39 30  1  0  0  0  0
 39 32  1  0  0  0  0
 41 40  1  1  0  0  0
 41 44  1  0  0  0  0
 44 43  1  0  0  0  0
 44 42  2  0  0  0  0
 45 41  1  0  0  0  0
 46 47  1  0  0  0  0
 47 45  1  6  0  0  0
 48 47  1  0  0  0  0
 49 48  1  0  0  0  0
 49 46  1  0  0  0  0
M  END
>  <MODEL>
8

>  <REMARK>
 VINA RESULT:      -7.6      1.676      2.538
  Name = 
  12 active torsions:
  status: ('A' for Active; 'I' for Inactive)
    1  A    between atoms: C_2  and  C_49
    2  A    between atoms: C_3  and  C_49
    3  A    between atoms: O_5  and  C_34
    4  A    between atoms: O_5  and  C_39
    5  A    between atoms: C_14  and  O_20
    6  A    between atoms: C_16  and  C_32
    7  A    between atoms: C_17  and  C_39
    8  A    between atoms: C_19  and  C_34
    9  A    between atoms: O_20  and  C_31
   10  A    between atoms: C_31  and  C_32
   11  A    between atoms: C_31  and  C_46
   12  A    between atoms: C_35  and  C_44
                            x       y       z     vdW  Elec       q    Type
                         _______ _______ _______ _____ _____    ______ ____

>  <TORSDO>
F 12

$$$$
=
 OpenBabel11062414033D

 49 54  0  0  1  0  0  0  0  0999 V2000
  182.7840  179.6170  138.6750 C   0  0  0  0  0  2  0  0  0  0  0  0
  180.6500  179.3570  139.7220 F   0  0  0  0  0  0  0  0  0  0  0  0
  182.5460  178.3740  140.7530 C   0  0  0  0  0  2  0  0  0  0  0  0
  181.8380  178.7020  139.4500 C   0  0  2  0  0  0  0  0  0  0  0  0
  184.1580  179.4590  139.3050 C   0  0  1  0  0  3  0  0  0  0  0  0
  184.9210  178.6570  141.5930 C   0  0  0  0  0  0  0  0  0  0  0  0
  186.0610  179.1720  141.4310 O   0  0  0  0  0  0  0  0  0  0  0  0
  183.9170  178.8100  140.5810 N   0  0  0  0  0  0  0  0  0  0  0  0
  184.5490  180.3810  144.6320 C   0  0  0  0  0  2  0  0  0  0  0  0
  185.1350  179.3860  145.4220 O   0  0  0  0  0  0  0  0  0  0  0  0
  183.2890  179.8650  143.9300 C   0  0  0  0  0  2  0  0  0  0  0  0
  185.7860  177.7790  143.7890 C   0  0  0  0  0  0  0  0  0  0  0  0
  186.4350  176.7450  143.7950 O   0  0  0  0  0  0  0  0  0  0  0  0
  186.2150  178.9210  144.6630 C   0  0  0  0  0  2  0  0  0  0  0  0
  184.6100  177.9050  142.8570 C   0  0  1  0  0  3  0  0  0  0  0  0
  183.3290  178.3750  143.5590 C   0  0  0  0  0  2  0  0  0  0  0  0
  185.0100  178.5900  138.4370 C   0  0  0  0  0  0  0  0  0  0  0  0
  184.5430  177.5090  137.9900 O   0  0  0  0  0  0  0  0  0  0  0  0
  186.3200  178.9710  138.1500 O   0  0  0  0  0  0  0  0  0  0  0  0
  187.1430  178.2530  137.2400 C   0  0  0  0  0  2  0  0  0  0  0  0
  189.3760  177.1060  140.1230 C   0  0  1  0  0  3  0  0  0  0  0  0
  190.4770  176.3580  137.8800 C   0  0  2  0  0  3  0  0  0  0  0  0
  188.1410  177.3860  137.9940 C   0  0  2  0  0  3  0  0  0  0  0  0
  191.2780  177.2700  138.6020 O   0  0  0  0  0  0  0  0  0  0  0  0
  188.5500  178.0640  139.2820 C   0  0  0  0  0  2  0  0  0  0  0  0
  189.3850  177.1550  137.1550 C   0  0  0  0  0  2  0  0  0  0  0  0
  190.5180  176.3800  139.3800 C   0  0  1  0  0  3  0  0  0  0  0  0
  189.9200  177.8500  141.3290 C   0  0  0  0  0  2  0  0  0  0  0  0
  190.6110  176.8970  142.2910 C   0  0  2  0  0  3  0  0  0  0  0  0
  190.4640  177.9040  146.5060 N   0  0  0  0  0  2  0  0  0  0  0  0
  189.5920  176.3400  143.2480 C   0  0  0  0  0  0  0  0  0  0  0  0
  191.6610  177.9130  144.3110 C   0  0  0  0  0  3  0  0  0  0  0  0
  189.5510  178.0290  148.6370 O   0  0  0  0  0  0  0  0  0  0  0  0
  188.7270  175.5220  142.8350 O   0  0  0  0  0  0  0  0  0  0  0  0
  189.3900  177.7020  147.4330 C   0  0  0  0  0  0  0  0  0  0  0  0
  188.0750  177.1370  147.0150 C   0  0  0  0  0  1  0  0  0  0  0  0
  189.5710  176.7590  144.6180 N   0  0  0  0  0  0  0  0  0  0  0  0
  191.7240  177.6150  143.0120 C   0  0  0  0  0  3  0  0  0  0  0  0
  190.5040  177.5090  145.1280 C   0  0  0  0  0  0  0  0  0  0  0  0
  181.5840  177.4020  138.6860 C   0  0  0  0  0  2  0  0  0  0  0  0
  181.2310  176.2180  139.5890 C   0  0  1  0  0  3  0  0  0  0  0  0
  178.9350  176.6130  139.0870 O   0  0  0  0  0  0  0  0  0  0  0  0
  179.3310  175.7130  141.1920 N   0  0  0  0  0  1  0  0  0  0  0  0
  179.7740  176.1980  139.9270 C   0  0  0  0  0  0  0  0  0  0  0  0
  181.5740  175.0250  138.9470 O   0  0  0  0  0  0  0  0  0  0  0  0
  180.7070  174.8380  136.7940 N   0  0  0  0  0  2  0  0  0  0  0  0
  181.7830  175.3720  137.6100 C   0  0  2  0  0  3  0  0  0  0  0  0
  183.1320  174.3690  136.9270 S   0  0  0  0  0  0  0  0  0  0  0  0
  181.5880  173.9240  136.0880 C   0  0  0  0  0  2  0  0  0  0  0  0
  1  5  1  0  0  0  0
  1  4  1  0  0  0  0
  4  2  1  1  0  0  0
  4  3  1  0  0  0  0
  5 17  1  6  0  0  0
  5  8  1  0  0  0  0
  7  6  2  0  0  0  0
  8  3  1  0  0  0  0
  8  6  1  0  0  0  0
  9 10  1  0  0  0  0
 11  9  1  0  0  0  0
 12 13  2  0  0  0  0
 12 14  1  0  0  0  0
 14 10  1  0  0  0  0
 15  6  1  6  0  0  0
 15 16  1  0  0  0  0
 15 12  1  0  0  0  0
 16 11  1  0  0  0  0
 18 17  2  0  0  0  0
 19 17  1  0  0  0  0
 20 19  1  0  0  0  0
 21 28  1  1  0  0  0
 22 26  1  1  0  0  0
 22 24  1  0  0  0  0
 22 27  1  0  0  0  0
 23 20  1  6  0  0  0
 23 25  1  0  0  0  0
 25 21  1  0  0  0  0
 26 23  1  0  0  0  0
 27 24  1  6  0  0  0
 27 21  1  0  0  0  0
 29 28  1  6  0  0  0
 29 38  1  0  0  0  0
 29 31  1  0  0  0  0
 30 35  1  0  0  0  0
 31 37  1  0  0  0  0
 32 39  1  0  0  0  0
 34 31  2  0  0  0  0
 35 33  2  0  0  0  0
 36 35  1  0  0  0  0
 37 39  2  0  0  0  0
 38 32  2  0  0  0  0
 39 30  1  0  0  0  0
 40  4  1  0  0  0  0
 41 40  1  6  0  0  0
 41 44  1  0  0  0  0
 42 44  2  0  0  0  0
 44 43  1  0  0  0  0
 45 41  1  0  0  0  0
 46 47  1  0  0  0  0
 47 45  1  1  0  0  0
 48 47  1  0  0  0  0
 49 46  1  0  0  0  0
 49 48  1  0  0  0  0
M  END
>  <MODEL>
9

>  <REMARK>
 VINA RESULT:      -7.6      3.311      7.765
  Name = 
  12 active torsions:
  status: ('A' for Active; 'I' for Inactive)
    1  A    between atoms: C_2  and  C_49
    2  A    between atoms: C_3  and  C_49
    3  A    between atoms: O_5  and  C_34
    4  A    between atoms: O_5  and  C_39
    5  A    between atoms: C_14  and  O_20
    6  A    between atoms: C_16  and  C_32
    7  A    between atoms: C_17  and  C_39
    8  A    between atoms: C_19  and  C_34
    9  A    between atoms: O_20  and  C_31
   10  A    between atoms: C_31  and  C_32
   11  A    between atoms: C_31  and  C_46
   12  A    between atoms: C_35  and  C_44
                            x       y       z     vdW  Elec       q    Type
                         _______ _______ _______ _____ _____    ______ ____

>  <TORSDO>
F 12

$$$$
