=
 OpenBabel11062417353D

 47 51  0  0  1  0  0  0  0  0999 V2000
  182.9150  174.9920  136.9810 C   0  0  0  0  0  2  0  0  0  0  0  0
  180.6990  175.2040  137.8520 O   0  0  0  0  0  1  0  0  0  0  0  0
  182.0420  175.4640  138.1410 C   0  0  2  0  0  3  0  0  0  0  0  0
  181.4510  177.5450  139.6120 C   0  0  0  0  0  2  0  0  0  0  0  0
  182.9010  177.1420  139.8730 C   0  0  1  0  0  3  0  0  0  0  0  0
  182.2760  176.9510  138.4820 C   0  0  1  0  0  0  0  0  0  0  0  0
  181.5300  178.6450  136.9520 O   0  0  0  0  0  1  0  0  0  0  0  0
  182.6560  177.9410  137.3760 C   0  0  0  0  0  2  0  0  0  0  0  0
  185.0390  178.1490  139.1090 C   0  0  0  0  0  1  0  0  0  0  0  0
  183.8900  178.3260  140.0930 C   0  0  2  0  0  0  0  0  0  0  0  0
  182.4720  178.8950  142.7590 O   0  0  0  0  0  0  0  0  0  0  0  0
  185.5780  178.4720  146.0560 C   0  0  1  0  0  3  0  0  0  0  0  0
  183.7070  178.6650  142.6840 C   0  0  0  0  0  0  0  0  0  0  0  0
  186.8140  177.8870  145.3160 C   0  0  0  0  0  2  0  0  0  0  0  0
  185.8290  179.8050  146.3910 O   0  0  0  0  0  1  0  0  0  0  0  0
  185.8130  178.1740  141.8170 C   0  0  0  0  0  2  0  0  0  0  0  0
  184.3060  178.3600  145.1810 C   0  0  1  0  0  3  0  0  0  0  0  0
  185.8090  178.0340  143.3300 C   0  0  1  0  0  3  0  0  0  0  0  0
  186.9710  178.4170  144.0090 O   0  0  0  0  0  0  0  0  0  0  0  0
  183.2650  179.1080  145.7350 O   0  0  0  0  0  1  0  0  0  0  0  0
  184.6530  178.8780  143.7970 C   0  0  1  0  0  3  0  0  0  0  0  0
  184.3880  178.2620  141.4850 N   0  0  0  0  0  0  0  0  0  0  0  0
  184.2070  180.5230  139.0610 O   0  0  0  0  0  1  0  0  0  0  0  0
  183.3320  179.7380  139.8150 C   0  0  0  0  0  2  0  0  0  0  0  0
  184.3210  174.9240  137.3610 N   0  0  0  0  0  2  0  0  0  0  0  0
  184.2950  174.1700  135.1680 O   0  0  0  0  0  1  0  0  0  0  0  0
  185.0730  174.2180  136.3270 C   0  0  1  0  0  3  0  0  0  0  0  0
  186.3000  176.4160  136.3990 C   0  0  0  0  0  2  0  0  0  0  0  0
  188.8640  175.0140  136.5670 C   0  0  0  0  0  2  0  0  0  0  0  0
  187.6390  177.1020  136.1530 C   0  0  2  0  0  3  0  0  0  0  0  0
  188.6890  176.4190  136.9170 N   0  0  0  0  0  0  0  0  0  0  0  0
  187.5540  174.2740  136.8310 C   0  0  0  0  0  2  0  0  0  0  0  0
  189.0790  176.8380  138.2400 C   0  0  0  0  0  0  0  0  0  0  0  0
  186.4050  174.9260  136.0450 C   0  0  1  0  0  3  0  0  0  0  0  0
  187.5620  178.5950  136.4340 C   0  0  0  0  0  1  0  0  0  0  0  0
  188.2380  177.3990  138.9940 O   0  0  0  0  0  0  0  0  0  0  0  0
  190.8370  175.2530  138.6860 O   0  0  0  0  0  0  0  0  0  0  0  0
  190.4800  176.6010  138.7600 C   0  0  1  0  0  0  0  0  0  0  0  0
  191.8300  175.6810  137.7960 C   0  0  1  0  0  3  0  0  0  0  0  0
  191.4800  177.0350  137.8830 O   0  0  0  0  0  0  0  0  0  0  0  0
  193.8120  174.8040  137.3650 C   0  0  0  0  0  1  0  0  0  0  0  0
  193.0960  175.4770  138.3540 O   0  0  0  0  0  0  0  0  0  0  0  0
  190.6880  177.1570  140.1700 C   0  0  0  0  0  2  0  0  0  0  0  0
  190.5740  176.1350  141.1150 O   0  0  0  0  0  0  0  0  0  0  0  0
  189.0500  176.0240  142.8050 O   0  0  0  0  0  1  0  0  0  0  0  0
  190.0980  176.7670  142.2650 C   0  0  0  0  0  3  0  0  0  0  0  0
  189.6450  178.0450  141.9410 O   0  0  0  0  0  1  0  0  0  0  0  0
  1 25  1  0  0  0  0
  1  3  1  0  0  0  0
  3  2  1  6  0  0  0
  3  6  1  0  0  0  0
  4  5  1  0  0  0  0
  5 10  1  6  0  0  0
  6  8  1  6  0  0  0
  6  4  1  0  0  0  0
  6  5  1  0  0  0  0
  7  8  1  0  0  0  0
 10  9  1  6  0  0  0
 10 22  1  0  0  0  0
 12 15  1  6  0  0  0
 13 11  2  0  0  0  0
 14 12  1  0  0  0  0
 17 20  1  1  0  0  0
 17 12  1  0  0  0  0
 18 16  1  6  0  0  0
 18 21  1  0  0  0  0
 18 19  1  0  0  0  0
 19 14  1  0  0  0  0
 21 13  1  6  0  0  0
 21 17  1  0  0  0  0
 22 16  1  0  0  0  0
 22 13  1  0  0  0  0
 23 24  1  0  0  0  0
 24 10  1  0  0  0  0
 27 26  1  6  0  0  0
 27 25  1  0  0  0  0
 29 32  1  0  0  0  0
 29 31  1  0  0  0  0
 30 28  1  0  0  0  0
 30 35  1  1  0  0  0
 30 31  1  0  0  0  0
 31 33  1  0  0  0  0
 33 38  1  0  0  0  0
 33 36  2  0  0  0  0
 34 27  1  1  0  0  0
 34 28  1  0  0  0  0
 34 32  1  0  0  0  0
 37 38  1  0  0  0  0
 38 43  1  1  0  0  0
 39 40  1  0  0  0  0
 39 42  1  1  0  0  0
 39 37  1  0  0  0  0
 40 38  1  0  0  0  0
 41 42  1  0  0  0  0
 43 44  1  0  0  0  0
 44 46  1  0  0  0  0
 46 45  1  0  0  0  0
 47 46  1  0  0  0  0
M  END
>  <MODEL>
1

>  <REMARK>
 VINA RESULT:      -6.9      0.000      0.000
  Name = 
  14 active torsions:
  status: ('A' for Active; 'I' for Inactive)
    1  A    between atoms: N_14  and  C_25
    2  A    between atoms: N_14  and  C_41
    3  A    between atoms: C_16  and  C_45
    4  A    between atoms: O_18  and  C_28
    5  A    between atoms: O_18  and  C_36
    6  A    between atoms: C_19  and  C_24
    7  A    between atoms: C_19  and  C_36
    8  A    between atoms: C_22  and  O_34
    9  A    between atoms: C_25  and  C_31
   10  A    between atoms: C_35  and  C_45
   11  A    between atoms: C_38  and  C_47
   12  A    between atoms: C_40  and  C_41
   13  A    between atoms: C_40  and  C_47
   14  A    between atoms: N_43  and  C_45
                            x       y       z     vdW  Elec       q    Type
                         _______ _______ _______ _____ _____    ______ ____

>  <TORSDO>
F 14

$$$$
=
 OpenBabel11062417353D

 47 51  0  0  1  0  0  0  0  0999 V2000
  185.5770  178.0540  144.7650 C   0  0  0  0  0  2  0  0  0  0  0  0
  186.8810  179.1590  146.4370 O   0  0  0  0  0  1  0  0  0  0  0  0
  186.6310  177.9100  145.8600 C   0  0  2  0  0  3  0  0  0  0  0  0
  187.7930  176.2610  144.1950 C   0  0  0  0  0  2  0  0  0  0  0  0
  188.2740  177.6830  143.9100 C   0  0  1  0  0  3  0  0  0  0  0  0
  187.9270  177.2490  145.3420 C   0  0  1  0  0  0  0  0  0  0  0  0
  188.5770  176.6190  147.5660 O   0  0  0  0  0  1  0  0  0  0  0  0
  189.0780  176.9570  146.3100 C   0  0  0  0  0  2  0  0  0  0  0  0
  190.2510  179.1860  143.9520 C   0  0  0  0  0  1  0  0  0  0  0  0
  189.7750  177.8090  143.5090 C   0  0  2  0  0  0  0  0  0  0  0  0
  188.0430  178.9930  141.2650 O   0  0  0  0  0  0  0  0  0  0  0  0
  189.6120  177.3300  137.3310 C   0  0  1  0  0  3  0  0  0  0  0  0
  188.9550  178.1530  141.0460 C   0  0  0  0  0  0  0  0  0  0  0  0
  190.9210  176.6000  137.7430 C   0  0  0  0  0  2  0  0  0  0  0  0
  188.6370  176.3840  137.0070 O   0  0  0  0  0  1  0  0  0  0  0  0
  190.7130  176.6650  141.3880 C   0  0  0  0  0  2  0  0  0  0  0  0
  189.1150  178.2580  138.4670 C   0  0  1  0  0  3  0  0  0  0  0  0
  190.5630  176.9880  139.9100 C   0  0  1  0  0  3  0  0  0  0  0  0
  190.8130  175.9540  139.0020 O   0  0  0  0  0  0  0  0  0  0  0  0
  187.8210  178.7090  138.1980 O   0  0  0  0  0  1  0  0  0  0  0  0
  189.1410  177.4580  139.7570 C   0  0  1  0  0  3  0  0  0  0  0  0
  189.8750  177.6750  142.0390 N   0  0  0  0  0  0  0  0  0  0  0  0
  191.8640  177.4360  144.7300 O   0  0  0  0  0  1  0  0  0  0  0  0
  190.7430  176.8110  144.1790 C   0  0  0  0  0  2  0  0  0  0  0  0
  184.3800  178.7250  145.2570 N   0  0  0  0  0  2  0  0  0  0  0  0
  184.9000  180.0790  143.4470 O   0  0  0  0  0  1  0  0  0  0  0  0
  183.8390  179.5890  144.2100 C   0  0  1  0  0  3  0  0  0  0  0  0
  181.4280  179.3360  143.5270 C   0  0  0  0  0  2  0  0  0  0  0  0
  182.2420  178.1750  140.9670 C   0  0  0  0  0  2  0  0  0  0  0  0
  180.4660  178.5890  142.6120 C   0  0  2  0  0  3  0  0  0  0  0  0
  180.9120  178.7170  141.2200 N   0  0  0  0  0  0  0  0  0  0  0  0
  183.2510  178.9200  141.8390 C   0  0  0  0  0  2  0  0  0  0  0  0
  180.4300  179.7580  140.3460 C   0  0  0  0  0  0  0  0  0  0  0  0
  182.8570  178.8140  143.3210 C   0  0  1  0  0  3  0  0  0  0  0  0
  179.0280  179.0350  142.8280 C   0  0  0  0  0  1  0  0  0  0  0  0
  180.0720  180.8660  140.8300 O   0  0  0  0  0  0  0  0  0  0  0  0
  179.7060  180.6200  138.2170 O   0  0  0  0  0  0  0  0  0  0  0  0
  180.3620  179.5600  138.8480 C   0  0  1  0  0  0  0  0  0  0  0  0
  180.9320  180.8510  137.5800 C   0  0  1  0  0  3  0  0  0  0  0  0
  181.5840  179.7790  138.2020 O   0  0  0  0  0  0  0  0  0  0  0  0
  180.7120  181.8740  135.6330 C   0  0  0  0  0  1  0  0  0  0  0  0
  180.8140  180.6080  136.2070 O   0  0  0  0  0  0  0  0  0  0  0  0
  179.7520  178.2140  138.4570 C   0  0  0  0  0  2  0  0  0  0  0  0
  180.6950  177.4300  137.7890 O   0  0  0  0  0  0  0  0  0  0  0  0
  180.1620  175.2720  137.2870 O   0  0  0  0  0  1  0  0  0  0  0  0
  180.5240  176.1470  138.3110 C   0  0  0  0  0  3  0  0  0  0  0  0
  179.5220  176.1680  139.2810 O   0  0  0  0  0  1  0  0  0  0  0  0
  1 25  1  0  0  0  0
  1  3  1  0  0  0  0
  3  2  1  6  0  0  0
  4  6  1  0  0  0  0
  5 10  1  1  0  0  0
  5  4  1  0  0  0  0
  5  6  1  0  0  0  0
  6  3  1  0  0  0  0
  6  8  1  1  0  0  0
  8  7  1  0  0  0  0
 10  9  1  1  0  0  0
 10 24  1  0  0  0  0
 12 15  1  1  0  0  0
 12 14  1  0  0  0  0
 12 17  1  0  0  0  0
 13 11  2  0  0  0  0
 13 22  1  0  0  0  0
 14 19  1  0  0  0  0
 16 22  1  0  0  0  0
 17 20  1  6  0  0  0
 17 21  1  0  0  0  0
 18 16  1  1  0  0  0
 19 18  1  0  0  0  0
 21 18  1  0  0  0  0
 21 13  1  1  0  0  0
 22 10  1  0  0  0  0
 24 23  1  0  0  0  0
 27 26  1  6  0  0  0
 27 25  1  0  0  0  0
 29 31  1  0  0  0  0
 29 32  1  0  0  0  0
 30 35  1  6  0  0  0
 30 28  1  0  0  0  0
 31 30  1  0  0  0  0
 32 34  1  0  0  0  0
 33 36  2  0  0  0  0
 33 31  1  0  0  0  0
 34 28  1  0  0  0  0
 34 27  1  1  0  0  0
 37 38  1  0  0  0  0
 38 43  1  6  0  0  0
 38 33  1  0  0  0  0
 39 42  1  6  0  0  0
 39 40  1  0  0  0  0
 39 37  1  0  0  0  0
 40 38  1  0  0  0  0
 41 42  1  0  0  0  0
 44 46  1  0  0  0  0
 44 43  1  0  0  0  0
 45 46  1  0  0  0  0
 46 47  1  0  0  0  0
M  END
>  <MODEL>
2

>  <REMARK>
 VINA RESULT:      -6.6      2.716      9.495
  Name = 
  14 active torsions:
  status: ('A' for Active; 'I' for Inactive)
    1  A    between atoms: N_14  and  C_25
    2  A    between atoms: N_14  and  C_41
    3  A    between atoms: C_16  and  C_45
    4  A    between atoms: O_18  and  C_28
    5  A    between atoms: O_18  and  C_36
    6  A    between atoms: C_19  and  C_24
    7  A    between atoms: C_19  and  C_36
    8  A    between atoms: C_22  and  O_34
    9  A    between atoms: C_25  and  C_31
   10  A    between atoms: C_35  and  C_45
   11  A    between atoms: C_38  and  C_47
   12  A    between atoms: C_40  and  C_41
   13  A    between atoms: C_40  and  C_47
   14  A    between atoms: N_43  and  C_45
                            x       y       z     vdW  Elec       q    Type
                         _______ _______ _______ _____ _____    ______ ____

>  <TORSDO>
F 14

$$$$
=
 OpenBabel11062417353D

 47 51  0  0  1  0  0  0  0  0999 V2000
  182.8240  174.8320  137.0590 C   0  0  0  0  0  2  0  0  0  0  0  0
  180.5810  175.1210  137.8340 O   0  0  0  0  0  1  0  0  0  0  0  0
  181.9160  175.3740  138.1600 C   0  0  2  0  0  3  0  0  0  0  0  0
  181.2850  177.5430  139.4800 C   0  0  0  0  0  2  0  0  0  0  0  0
  182.7060  177.1260  139.8520 C   0  0  1  0  0  3  0  0  0  0  0  0
  182.1640  176.8730  138.4370 C   0  0  1  0  0  0  0  0  0  0  0  0
  181.5660  178.5480  136.8240 O   0  0  0  0  0  1  0  0  0  0  0  0
  182.6350  177.7930  137.3060 C   0  0  0  0  0  2  0  0  0  0  0  0
  184.8500  178.1160  139.0810 C   0  0  0  0  0  1  0  0  0  0  0  0
  183.7070  178.3000  140.0720 C   0  0  2  0  0  0  0  0  0  0  0  0
  182.3380  178.9690  142.7400 O   0  0  0  0  0  0  0  0  0  0  0  0
  185.4440  178.4290  146.0210 C   0  0  1  0  0  3  0  0  0  0  0  0
  183.5600  178.6770  142.6590 C   0  0  0  0  0  0  0  0  0  0  0  0
  186.6430  177.7740  145.2800 C   0  0  0  0  0  2  0  0  0  0  0  0
  185.7630  179.7510  146.3390 O   0  0  0  0  0  1  0  0  0  0  0  0
  185.6320  178.0720  141.7840 C   0  0  0  0  0  2  0  0  0  0  0  0
  184.1610  178.3700  145.1560 C   0  0  1  0  0  3  0  0  0  0  0  0
  185.6330  177.9490  143.2990 C   0  0  1  0  0  3  0  0  0  0  0  0
  186.8170  178.2810  143.9650 O   0  0  0  0  0  0  0  0  0  0  0  0
  183.1620  179.1760  145.7080 O   0  0  0  0  0  1  0  0  0  0  0  0
  184.5240  178.8550  143.7640 C   0  0  1  0  0  3  0  0  0  0  0  0
  184.2110  178.2270  141.4610 N   0  0  0  0  0  0  0  0  0  0  0  0
  184.0050  180.4730  138.9850 O   0  0  0  0  0  1  0  0  0  0  0  0
  183.1610  179.7180  139.8010 C   0  0  0  0  0  2  0  0  0  0  0  0
  184.2210  174.8120  137.4770 N   0  0  0  0  0  2  0  0  0  0  0  0
  184.2490  173.8320  135.3750 O   0  0  0  0  0  1  0  0  0  0  0  0
  184.9990  174.0060  136.5390 C   0  0  1  0  0  3  0  0  0  0  0  0
  186.1780  176.2160  136.2710 C   0  0  0  0  0  2  0  0  0  0  0  0
  188.7490  174.9520  136.8680 C   0  0  0  0  0  2  0  0  0  0  0  0
  187.5170  176.8850  135.9860 C   0  0  2  0  0  3  0  0  0  0  0  0
  188.5250  176.3910  136.9330 N   0  0  0  0  0  0  0  0  0  0  0  0
  187.4380  174.2340  137.1820 C   0  0  0  0  0  2  0  0  0  0  0  0
  188.8150  177.0640  138.1740 C   0  0  0  0  0  0  0  0  0  0  0  0
  186.3350  174.6900  136.2140 C   0  0  1  0  0  3  0  0  0  0  0  0
  187.3940  178.4010  135.9730 C   0  0  0  0  0  1  0  0  0  0  0  0
  187.9130  177.7300  138.7510 O   0  0  0  0  0  0  0  0  0  0  0  0
  190.4160  178.0490  139.6790 O   0  0  0  0  0  0  0  0  0  0  0  0
  190.1800  176.9740  138.8190 C   0  0  1  0  0  0  0  0  0  0  0  0
  190.4790  177.0800  140.6890 C   0  0  1  0  0  3  0  0  0  0  0  0
  190.2570  176.0020  139.8240 O   0  0  0  0  0  0  0  0  0  0  0  0
  191.6380  177.4060  142.5430 C   0  0  0  0  0  1  0  0  0  0  0  0
  191.7760  177.0150  141.2120 O   0  0  0  0  0  0  0  0  0  0  0  0
  191.3070  176.8180  137.7980 C   0  0  0  0  0  2  0  0  0  0  0  0
  192.0720  175.6860  138.0890 O   0  0  0  0  0  0  0  0  0  0  0  0
  194.0250  176.2990  137.0880 O   0  0  0  0  0  1  0  0  0  0  0  0
  192.8830  175.5080  136.9680 C   0  0  0  0  0  3  0  0  0  0  0  0
  192.1810  175.8760  135.8210 O   0  0  0  0  0  1  0  0  0  0  0  0
  1 25  1  0  0  0  0
  1  3  1  0  0  0  0
  3  2  1  6  0  0  0
  3  6  1  0  0  0  0
  4  5  1  0  0  0  0
  5 10  1  6  0  0  0
  6  8  1  6  0  0  0
  6  4  1  0  0  0  0
  6  5  1  0  0  0  0
  7  8  1  0  0  0  0
 10  9  1  6  0  0  0
 10 22  1  0  0  0  0
 12 15  1  6  0  0  0
 13 11  2  0  0  0  0
 14 12  1  0  0  0  0
 17 20  1  1  0  0  0
 17 12  1  0  0  0  0
 18 16  1  6  0  0  0
 18 21  1  0  0  0  0
 18 19  1  0  0  0  0
 19 14  1  0  0  0  0
 21 13  1  6  0  0  0
 21 17  1  0  0  0  0
 22 16  1  0  0  0  0
 22 13  1  0  0  0  0
 23 24  1  0  0  0  0
 24 10  1  0  0  0  0
 27 26  1  6  0  0  0
 27 25  1  0  0  0  0
 29 31  1  0  0  0  0
 29 32  1  0  0  0  0
 30 35  1  1  0  0  0
 30 28  1  0  0  0  0
 30 31  1  0  0  0  0
 31 33  1  0  0  0  0
 33 36  2  0  0  0  0
 33 38  1  0  0  0  0
 34 28  1  0  0  0  0
 34 27  1  1  0  0  0
 34 32  1  0  0  0  0
 37 39  1  0  0  0  0
 38 43  1  6  0  0  0
 38 37  1  0  0  0  0
 38 40  1  0  0  0  0
 39 42  1  6  0  0  0
 40 39  1  0  0  0  0
 42 41  1  0  0  0  0
 43 44  1  0  0  0  0
 46 45  1  0  0  0  0
 46 44  1  0  0  0  0
 47 46  1  0  0  0  0
M  END
>  <MODEL>
3

>  <REMARK>
 VINA RESULT:      -6.5      0.823      2.268
  Name = 
  14 active torsions:
  status: ('A' for Active; 'I' for Inactive)
    1  A    between atoms: N_14  and  C_25
    2  A    between atoms: N_14  and  C_41
    3  A    between atoms: C_16  and  C_45
    4  A    between atoms: O_18  and  C_28
    5  A    between atoms: O_18  and  C_36
    6  A    between atoms: C_19  and  C_24
    7  A    between atoms: C_19  and  C_36
    8  A    between atoms: C_22  and  O_34
    9  A    between atoms: C_25  and  C_31
   10  A    between atoms: C_35  and  C_45
   11  A    between atoms: C_38  and  C_47
   12  A    between atoms: C_40  and  C_41
   13  A    between atoms: C_40  and  C_47
   14  A    between atoms: N_43  and  C_45
                            x       y       z     vdW  Elec       q    Type
                         _______ _______ _______ _____ _____    ______ ____

>  <TORSDO>
F 14

$$$$
=
 OpenBabel11062417353D

 47 51  0  0  1  0  0  0  0  0999 V2000
  180.6540  179.2790  141.2340 C   0  0  0  0  0  2  0  0  0  0  0  0
  180.3440  181.0610  139.6690 O   0  0  0  0  0  1  0  0  0  0  0  0
  181.1330  179.9400  139.9430 C   0  0  2  0  0  3  0  0  0  0  0  0
  181.7180  179.4640  137.4380 C   0  0  0  0  0  2  0  0  0  0  0  0
  182.5880  178.5820  138.3330 C   0  0  1  0  0  3  0  0  0  0  0  0
  181.1590  178.9530  138.7560 C   0  0  1  0  0  0  0  0  0  0  0  0
  179.1270  178.2840  137.6650 O   0  0  0  0  0  1  0  0  0  0  0  0
  180.0640  177.8900  138.6200 C   0  0  0  0  0  2  0  0  0  0  0  0
  182.3690  176.1600  138.8420 C   0  0  0  0  0  1  0  0  0  0  0  0
  182.8590  177.1460  137.7890 C   0  0  2  0  0  0  0  0  0  0  0  0
  185.2150  178.8400  138.7990 O   0  0  0  0  0  0  0  0  0  0  0  0
  189.0040  177.1060  136.9710 C   0  0  1  0  0  3  0  0  0  0  0  0
  185.3600  177.9000  137.9750 C   0  0  0  0  0  0  0  0  0  0  0  0
  188.5140  175.7910  136.3030 C   0  0  0  0  0  2  0  0  0  0  0  0
  189.3030  178.0440  135.9800 O   0  0  0  0  0  1  0  0  0  0  0  0
  184.8850  176.1120  136.5590 C   0  0  0  0  0  2  0  0  0  0  0  0
  187.9350  177.6630  137.9440 C   0  0  1  0  0  3  0  0  0  0  0  0
  186.3820  176.2250  136.7970 C   0  0  1  0  0  3  0  0  0  0  0  0
  187.2240  175.9190  135.7230 O   0  0  0  0  0  0  0  0  0  0  0  0
  188.2660  178.9600  138.3420 O   0  0  0  0  0  1  0  0  0  0  0  0
  186.6030  177.6550  137.2160 C   0  0  1  0  0  3  0  0  0  0  0  0
  184.3150  176.9970  137.5790 N   0  0  0  0  0  0  0  0  0  0  0  0
  181.4900  175.5130  136.5840 O   0  0  0  0  0  1  0  0  0  0  0  0
  182.1140  176.7590  136.4940 C   0  0  0  0  0  2  0  0  0  0  0  0
  181.4540  179.6960  142.3790 N   0  0  0  0  0  2  0  0  0  0  0  0
  182.4450  177.7010  141.7340 O   0  0  0  0  0  1  0  0  0  0  0  0
  182.3170  178.5950  142.7990 C   0  0  1  0  0  3  0  0  0  0  0  0
  183.9370  178.8280  144.7130 C   0  0  0  0  0  2  0  0  0  0  0  0
  186.1780  178.9910  142.8370 C   0  0  0  0  0  2  0  0  0  0  0  0
  185.3230  179.3140  145.1170 C   0  0  2  0  0  3  0  0  0  0  0  0
  186.3340  178.6900  144.2550 N   0  0  0  0  0  0  0  0  0  0  0  0
  184.8110  178.4880  142.3750 C   0  0  0  0  0  2  0  0  0  0  0  0
  187.0080  177.4670  144.6150 C   0  0  0  0  0  0  0  0  0  0  0  0
  183.6960  179.1170  143.2250 C   0  0  1  0  0  3  0  0  0  0  0  0
  185.5810  179.1010  146.6010 C   0  0  0  0  0  1  0  0  0  0  0  0
  186.4250  176.6210  145.3450 O   0  0  0  0  0  0  0  0  0  0  0  0
  188.4370  175.9840  143.3670 O   0  0  0  0  0  0  0  0  0  0  0  0
  188.4040  177.1610  144.1170 C   0  0  1  0  0  0  0  0  0  0  0  0
  188.8300  176.8060  142.3030 C   0  0  1  0  0  3  0  0  0  0  0  0
  188.8110  177.9840  143.0610 O   0  0  0  0  0  0  0  0  0  0  0  0
  190.1750  176.7540  140.5500 C   0  0  0  0  0  1  0  0  0  0  0  0
  190.1410  176.5040  141.9210 O   0  0  0  0  0  0  0  0  0  0  0  0
  189.4400  177.1350  145.2410 C   0  0  0  0  0  2  0  0  0  0  0  0
  189.0900  178.0430  146.2440 O   0  0  0  0  0  0  0  0  0  0  0  0
  189.4200  178.2350  148.4900 O   0  0  0  0  0  1  0  0  0  0  0  0
  189.2580  177.3380  147.4360 C   0  0  0  0  0  3  0  0  0  0  0  0
  190.3860  176.5230  147.3410 O   0  0  0  0  0  1  0  0  0  0  0  0
  1 25  1  0  0  0  0
  3  2  1  6  0  0  0
  3  1  1  0  0  0  0
  4  5  1  0  0  0  0
  4  6  1  0  0  0  0
  5 10  1  6  0  0  0
  5  6  1  0  0  0  0
  6  8  1  6  0  0  0
  6  3  1  0  0  0  0
  7  8  1  0  0  0  0
 10  9  1  1  0  0  0
 12 15  1  6  0  0  0
 12 17  1  0  0  0  0
 13 11  2  0  0  0  0
 14 12  1  0  0  0  0
 16 22  1  0  0  0  0
 17 20  1  6  0  0  0
 18 16  1  6  0  0  0
 18 21  1  0  0  0  0
 19 14  1  0  0  0  0
 19 18  1  0  0  0  0
 21 17  1  0  0  0  0
 21 13  1  1  0  0  0
 22 10  1  0  0  0  0
 22 13  1  0  0  0  0
 24 23  1  0  0  0  0
 24 10  1  0  0  0  0
 25 27  1  0  0  0  0
 27 26  1  6  0  0  0
 28 30  1  0  0  0  0
 29 31  1  0  0  0  0
 30 35  1  1  0  0  0
 31 33  1  0  0  0  0
 31 30  1  0  0  0  0
 32 29  1  0  0  0  0
 32 34  1  0  0  0  0
 33 36  2  0  0  0  0
 34 27  1  6  0  0  0
 34 28  1  0  0  0  0
 37 38  1  0  0  0  0
 38 33  1  0  0  0  0
 38 43  1  1  0  0  0
 39 42  1  1  0  0  0
 39 40  1  0  0  0  0
 39 37  1  0  0  0  0
 40 38  1  0  0  0  0
 41 42  1  0  0  0  0
 43 44  1  0  0  0  0
 44 46  1  0  0  0  0
 46 45  1  0  0  0  0
 47 46  1  0  0  0  0
M  END
>  <MODEL>
4

>  <REMARK>
 VINA RESULT:      -6.5      2.236      6.656
  Name = 
  14 active torsions:
  status: ('A' for Active; 'I' for Inactive)
    1  A    between atoms: N_14  and  C_25
    2  A    between atoms: N_14  and  C_41
    3  A    between atoms: C_16  and  C_45
    4  A    between atoms: O_18  and  C_28
    5  A    between atoms: O_18  and  C_36
    6  A    between atoms: C_19  and  C_24
    7  A    between atoms: C_19  and  C_36
    8  A    between atoms: C_22  and  O_34
    9  A    between atoms: C_25  and  C_31
   10  A    between atoms: C_35  and  C_45
   11  A    between atoms: C_38  and  C_47
   12  A    between atoms: C_40  and  C_41
   13  A    between atoms: C_40  and  C_47
   14  A    between atoms: N_43  and  C_45
                            x       y       z     vdW  Elec       q    Type
                         _______ _______ _______ _____ _____    ______ ____

>  <TORSDO>
F 14

$$$$
=
 OpenBabel11062417353D

 47 51  0  0  1  0  0  0  0  0999 V2000
  185.7870  178.5880  144.9870 C   0  0  0  0  0  2  0  0  0  0  0  0
  187.0840  178.9990  146.9540 O   0  0  0  0  0  1  0  0  0  0  0  0
  186.6890  177.9930  146.0670 C   0  0  2  0  0  3  0  0  0  0  0  0
  187.6530  176.3850  144.2430 C   0  0  0  0  0  2  0  0  0  0  0  0
  188.2810  177.7680  144.0750 C   0  0  1  0  0  3  0  0  0  0  0  0
  187.9010  177.2470  145.4700 C   0  0  1  0  0  0  0  0  0  0  0  0
  188.6040  176.7760  147.7170 O   0  0  0  0  0  1  0  0  0  0  0  0
  189.0230  176.7510  146.3870 C   0  0  0  0  0  2  0  0  0  0  0  0
  190.3860  179.0850  144.1350 C   0  0  0  0  0  1  0  0  0  0  0  0
  189.7840  177.7690  143.6600 C   0  0  2  0  0  0  0  0  0  0  0  0
  187.9130  178.8580  141.4790 O   0  0  0  0  0  0  0  0  0  0  0  0
  189.5060  177.3870  137.4790 C   0  0  1  0  0  3  0  0  0  0  0  0
  188.8800  178.0930  141.2230 C   0  0  0  0  0  0  0  0  0  0  0  0
  190.8760  176.7510  137.8470 C   0  0  0  0  0  2  0  0  0  0  0  0
  188.5970  176.3760  137.1590 O   0  0  0  0  0  1  0  0  0  0  0  0
  190.7530  176.7360  141.4960 C   0  0  0  0  0  2  0  0  0  0  0  0
  188.9690  178.2550  138.6440 C   0  0  1  0  0  3  0  0  0  0  0  0
  190.5430  177.0730  140.0290 C   0  0  1  0  0  3  0  0  0  0  0  0
  190.8480  176.0770  139.0960 O   0  0  0  0  0  0  0  0  0  0  0  0
  187.6380  178.6110  138.4140 O   0  0  0  0  0  1  0  0  0  0  0  0
  189.0860  177.4360  139.9170 C   0  0  1  0  0  3  0  0  0  0  0  0
  189.8580  177.6690  142.1860 N   0  0  0  0  0  0  0  0  0  0  0  0
  191.8460  177.1730  144.8360 O   0  0  0  0  0  1  0  0  0  0  0  0
  190.6630  176.6700  144.2910 C   0  0  0  0  0  2  0  0  0  0  0  0
  184.3770  178.3670  145.2850 N   0  0  0  0  0  2  0  0  0  0  0  0
  184.4170  180.2860  143.9840 O   0  0  0  0  0  1  0  0  0  0  0  0
  183.5660  179.3380  144.5550 C   0  0  1  0  0  3  0  0  0  0  0  0
  181.2820  179.1370  143.5130 C   0  0  0  0  0  2  0  0  0  0  0  0
  182.4750  178.2230  141.0010 C   0  0  0  0  0  2  0  0  0  0  0  0
  180.4750  178.4710  142.4050 C   0  0  2  0  0  3  0  0  0  0  0  0
  181.1120  178.7310  141.1080 N   0  0  0  0  0  0  0  0  0  0  0  0
  183.3340  178.8900  142.0730 C   0  0  0  0  0  2  0  0  0  0  0  0
  180.7390  179.8460  140.2730 C   0  0  0  0  0  0  0  0  0  0  0  0
  182.7350  178.6440  143.4670 C   0  0  1  0  0  3  0  0  0  0  0  0
  179.0120  178.8870  142.4520 C   0  0  0  0  0  1  0  0  0  0  0  0
  180.2950  180.9020  140.7990 O   0  0  0  0  0  0  0  0  0  0  0  0
  182.2240  179.6310  138.3900 O   0  0  0  0  0  0  0  0  0  0  0  0
  180.8890  179.7880  138.7690 C   0  0  1  0  0  0  0  0  0  0  0  0
  181.8090  178.4090  137.8460 C   0  0  1  0  0  3  0  0  0  0  0  0
  180.4680  178.5740  138.2140 O   0  0  0  0  0  0  0  0  0  0  0  0
  182.6570  177.2890  136.1400 C   0  0  0  0  0  1  0  0  0  0  0  0
  181.9300  178.4370  136.4530 O   0  0  0  0  0  0  0  0  0  0  0  0
  180.2460  180.9820  138.0650 C   0  0  0  0  0  2  0  0  0  0  0  0
  181.2180  181.9280  137.7270 O   0  0  0  0  0  0  0  0  0  0  0  0
  181.3860  183.9880  136.7710 O   0  0  0  0  0  1  0  0  0  0  0  0
  180.5000  182.9990  137.1940 C   0  0  0  0  0  3  0  0  0  0  0  0
  179.6500  183.5220  138.1670 O   0  0  0  0  0  1  0  0  0  0  0  0
  1 25  1  0  0  0  0
  1  3  1  0  0  0  0
  3  2  1  1  0  0  0
  4  6  1  0  0  0  0
  5 10  1  1  0  0  0
  5  4  1  0  0  0  0
  5  6  1  0  0  0  0
  6  3  1  0  0  0  0
  6  8  1  1  0  0  0
  8  7  1  0  0  0  0
 10  9  1  1  0  0  0
 10 24  1  0  0  0  0
 12 15  1  1  0  0  0
 12 14  1  0  0  0  0
 12 17  1  0  0  0  0
 13 11  2  0  0  0  0
 13 22  1  0  0  0  0
 14 19  1  0  0  0  0
 16 22  1  0  0  0  0
 17 20  1  6  0  0  0
 17 21  1  0  0  0  0
 18 16  1  1  0  0  0
 19 18  1  0  0  0  0
 21 18  1  0  0  0  0
 21 13  1  1  0  0  0
 22 10  1  0  0  0  0
 24 23  1  0  0  0  0
 27 26  1  6  0  0  0
 27 25  1  0  0  0  0
 29 31  1  0  0  0  0
 29 32  1  0  0  0  0
 30 35  1  6  0  0  0
 30 28  1  0  0  0  0
 31 30  1  0  0  0  0
 32 34  1  0  0  0  0
 33 36  2  0  0  0  0
 33 31  1  0  0  0  0
 34 28  1  0  0  0  0
 34 27  1  1  0  0  0
 37 38  1  0  0  0  0
 38 43  1  6  0  0  0
 38 33  1  0  0  0  0
 39 42  1  6  0  0  0
 39 40  1  0  0  0  0
 39 37  1  0  0  0  0
 40 38  1  0  0  0  0
 41 42  1  0  0  0  0
 44 43  1  0  0  0  0
 45 46  1  0  0  0  0
 46 44  1  0  0  0  0
 46 47  1  0  0  0  0
M  END
>  <MODEL>
5

>  <REMARK>
 VINA RESULT:      -6.4      2.666      9.422
  Name = 
  14 active torsions:
  status: ('A' for Active; 'I' for Inactive)
    1  A    between atoms: N_14  and  C_25
    2  A    between atoms: N_14  and  C_41
    3  A    between atoms: C_16  and  C_45
    4  A    between atoms: O_18  and  C_28
    5  A    between atoms: O_18  and  C_36
    6  A    between atoms: C_19  and  C_24
    7  A    between atoms: C_19  and  C_36
    8  A    between atoms: C_22  and  O_34
    9  A    between atoms: C_25  and  C_31
   10  A    between atoms: C_35  and  C_45
   11  A    between atoms: C_38  and  C_47
   12  A    between atoms: C_40  and  C_41
   13  A    between atoms: C_40  and  C_47
   14  A    between atoms: N_43  and  C_45
                            x       y       z     vdW  Elec       q    Type
                         _______ _______ _______ _____ _____    ______ ____

>  <TORSDO>
F 14

$$$$
=
 OpenBabel11062417353D

 47 51  0  0  1  0  0  0  0  0999 V2000
  185.7400  178.6920  142.9790 C   0  0  0  0  0  2  0  0  0  0  0  0
  185.9490  178.6420  145.3600 O   0  0  0  0  0  1  0  0  0  0  0  0
  186.1640  177.8860  144.2040 C   0  0  2  0  0  3  0  0  0  0  0  0
  187.8520  175.9820  143.5940 C   0  0  0  0  0  2  0  0  0  0  0  0
  188.0680  177.1650  142.6520 C   0  0  1  0  0  3  0  0  0  0  0  0
  187.6250  177.3960  144.1050 C   0  0  1  0  0  0  0  0  0  0  0  0
  188.8490  176.9470  146.1220 O   0  0  0  0  0  1  0  0  0  0  0  0
  188.6690  177.8910  145.1100 C   0  0  0  0  0  2  0  0  0  0  0  0
  189.9100  178.8250  142.8080 C   0  0  0  0  0  1  0  0  0  0  0  0
  189.5530  177.4460  142.2680 C   0  0  2  0  0  0  0  0  0  0  0  0
  188.0060  179.0040  140.1190 O   0  0  0  0  0  0  0  0  0  0  0  0
  189.4430  177.5030  136.0710 C   0  0  1  0  0  3  0  0  0  0  0  0
  188.8200  178.0850  139.8370 C   0  0  0  0  0  0  0  0  0  0  0  0
  190.6530  176.5950  136.4300 C   0  0  0  0  0  2  0  0  0  0  0  0
  188.3730  176.7050  135.6600 O   0  0  0  0  0  1  0  0  0  0  0  0
  190.3910  176.3810  140.0650 C   0  0  0  0  0  2  0  0  0  0  0  0
  189.0360  178.3840  137.2770 C   0  0  1  0  0  3  0  0  0  0  0  0
  190.3040  176.8410  138.6190 C   0  0  1  0  0  3  0  0  0  0  0  0
  190.4510  175.8640  137.6290 O   0  0  0  0  0  0  0  0  0  0  0  0
  187.8070  179.0020  137.0370 O   0  0  0  0  0  1  0  0  0  0  0  0
  188.9480  177.4820  138.4950 C   0  0  1  0  0  3  0  0  0  0  0  0
  189.6630  177.4240  140.7930 N   0  0  0  0  0  0  0  0  0  0  0  0
  191.7480  177.1570  143.3110 O   0  0  0  0  0  1  0  0  0  0  0  0
  190.6020  176.4900  142.8730 C   0  0  0  0  0  2  0  0  0  0  0  0
  184.5560  178.1240  142.3460 N   0  0  0  0  0  2  0  0  0  0  0  0
  185.0090  179.4950  140.5320 O   0  0  0  0  0  1  0  0  0  0  0  0
  183.9960  179.0880  141.4020 C   0  0  1  0  0  3  0  0  0  0  0  0
  182.6930  179.1490  139.2480 C   0  0  0  0  0  2  0  0  0  0  0  0
  181.8920  176.3580  139.6170 C   0  0  0  0  0  2  0  0  0  0  0  0
  181.5640  178.4990  138.4580 C   0  0  2  0  0  3  0  0  0  0  0  0
  181.8130  177.0570  138.3400 N   0  0  0  0  0  0  0  0  0  0  0  0
  183.0380  176.9530  140.4330 C   0  0  0  0  0  2  0  0  0  0  0  0
  182.5030  176.4820  137.2120 C   0  0  0  0  0  0  0  0  0  0  0  0
  182.8350  178.4660  140.6150 C   0  0  1  0  0  3  0  0  0  0  0  0
  181.3500  179.1860  137.1180 C   0  0  0  0  0  1  0  0  0  0  0  0
  183.3650  177.1610  136.5920 O   0  0  0  0  0  0  0  0  0  0  0  0
  182.9930  174.7230  135.6420 O   0  0  0  0  0  0  0  0  0  0  0  0
  182.2310  175.0640  136.7620 C   0  0  1  0  0  0  0  0  0  0  0  0
  183.5830  173.7640  136.4750 C   0  0  1  0  0  3  0  0  0  0  0  0
  182.8070  174.0960  137.5930 O   0  0  0  0  0  0  0  0  0  0  0  0
  184.4770  171.9140  135.6600 C   0  0  0  0  0  1  0  0  0  0  0  0
  183.2570  172.4770  136.0320 O   0  0  0  0  0  0  0  0  0  0  0  0
  180.7450  174.7920  136.5290 C   0  0  0  0  0  2  0  0  0  0  0  0
  180.1920  174.1420  137.6350 O   0  0  0  0  0  0  0  0  0  0  0  0
  180.2470  171.8650  137.6360 O   0  0  0  0  0  1  0  0  0  0  0  0
  179.6080  172.9880  137.1130 C   0  0  0  0  0  3  0  0  0  0  0  0
  179.7310  172.9890  135.7240 O   0  0  0  0  0  1  0  0  0  0  0  0
  1  3  1  0  0  0  0
  3  2  1  1  0  0  0
  4  6  1  0  0  0  0
  5 10  1  1  0  0  0
  5  4  1  0  0  0  0
  5  6  1  0  0  0  0
  6  3  1  0  0  0  0
  6  8  1  1  0  0  0
  8  7  1  0  0  0  0
 10  9  1  1  0  0  0
 10 24  1  0  0  0  0
 12 15  1  1  0  0  0
 12 14  1  0  0  0  0
 12 17  1  0  0  0  0
 13 11  2  0  0  0  0
 13 22  1  0  0  0  0
 14 19  1  0  0  0  0
 16 22  1  0  0  0  0
 17 20  1  6  0  0  0
 17 21  1  0  0  0  0
 18 16  1  1  0  0  0
 19 18  1  0  0  0  0
 21 18  1  0  0  0  0
 21 13  1  1  0  0  0
 22 10  1  0  0  0  0
 24 23  1  0  0  0  0
 25  1  1  0  0  0  0
 27 26  1  6  0  0  0
 27 25  1  0  0  0  0
 28 34  1  0  0  0  0
 29 32  1  0  0  0  0
 30 35  1  6  0  0  0
 30 28  1  0  0  0  0
 31 30  1  0  0  0  0
 31 29  1  0  0  0  0
 32 34  1  0  0  0  0
 33 31  1  0  0  0  0
 34 27  1  6  0  0  0
 36 33  2  0  0  0  0
 37 39  1  0  0  0  0
 37 38  1  0  0  0  0
 38 43  1  6  0  0  0
 38 33  1  0  0  0  0
 38 40  1  0  0  0  0
 39 42  1  6  0  0  0
 39 40  1  0  0  0  0
 41 42  1  0  0  0  0
 43 44  1  0  0  0  0
 46 44  1  0  0  0  0
 46 45  1  0  0  0  0
 47 46  1  0  0  0  0
M  END
>  <MODEL>
6

>  <REMARK>
 VINA RESULT:      -6.2      2.114      8.450
  Name = 
  14 active torsions:
  status: ('A' for Active; 'I' for Inactive)
    1  A    between atoms: N_14  and  C_25
    2  A    between atoms: N_14  and  C_41
    3  A    between atoms: C_16  and  C_45
    4  A    between atoms: O_18  and  C_28
    5  A    between atoms: O_18  and  C_36
    6  A    between atoms: C_19  and  C_24
    7  A    between atoms: C_19  and  C_36
    8  A    between atoms: C_22  and  O_34
    9  A    between atoms: C_25  and  C_31
   10  A    between atoms: C_35  and  C_45
   11  A    between atoms: C_38  and  C_47
   12  A    between atoms: C_40  and  C_41
   13  A    between atoms: C_40  and  C_47
   14  A    between atoms: N_43  and  C_45
                            x       y       z     vdW  Elec       q    Type
                         _______ _______ _______ _____ _____    ______ ____

>  <TORSDO>
F 14

$$$$
=
 OpenBabel11062417353D

 47 51  0  0  1  0  0  0  0  0999 V2000
  185.8000  178.7190  142.9040 C   0  0  0  0  0  2  0  0  0  0  0  0
  186.0060  178.7420  145.2860 O   0  0  0  0  0  1  0  0  0  0  0  0
  186.1970  177.9410  144.1560 C   0  0  2  0  0  3  0  0  0  0  0  0
  187.8230  175.9700  143.5940 C   0  0  0  0  0  2  0  0  0  0  0  0
  188.0850  177.1260  142.6300 C   0  0  1  0  0  3  0  0  0  0  0  0
  187.6410  177.4000  144.0760 C   0  0  1  0  0  0  0  0  0  0  0  0
  188.7160  177.0400  146.1930 O   0  0  0  0  0  1  0  0  0  0  0  0
  188.6960  177.8780  145.0780 C   0  0  0  0  0  2  0  0  0  0  0  0
  190.0090  178.6810  142.8530 C   0  0  0  0  0  1  0  0  0  0  0  0
  189.5800  177.3490  142.2510 C   0  0  2  0  0  0  0  0  0  0  0  0
  188.0270  179.0020  140.1790 O   0  0  0  0  0  0  0  0  0  0  0  0
  189.4420  177.6780  136.0620 C   0  0  1  0  0  3  0  0  0  0  0  0
  188.8370  178.0950  139.8530 C   0  0  0  0  0  0  0  0  0  0  0  0
  190.6510  176.7530  136.3760 C   0  0  0  0  0  2  0  0  0  0  0  0
  188.3680  176.9010  135.6230 O   0  0  0  0  0  1  0  0  0  0  0  0
  190.4060  176.3800  140.0000 C   0  0  0  0  0  2  0  0  0  0  0  0
  189.0420  178.5060  137.3080 C   0  0  1  0  0  3  0  0  0  0  0  0
  190.3140  176.9030  138.5760 C   0  0  1  0  0  3  0  0  0  0  0  0
  190.4530  175.9700  137.5430 O   0  0  0  0  0  0  0  0  0  0  0  0
  187.8130  179.1360  137.1010 O   0  0  0  0  0  1  0  0  0  0  0  0
  188.9580  177.5520  138.4860 C   0  0  1  0  0  3  0  0  0  0  0  0
  189.6830  177.3920  140.7760 N   0  0  0  0  0  0  0  0  0  0  0  0
  191.6800  176.9080  143.4280 O   0  0  0  0  0  1  0  0  0  0  0  0
  190.5820  176.3140  142.8030 C   0  0  0  0  0  2  0  0  0  0  0  0
  184.6600  178.1070  142.2310 N   0  0  0  0  0  2  0  0  0  0  0  0
  184.9500  179.6190  140.4970 O   0  0  0  0  0  1  0  0  0  0  0  0
  184.0050  179.0990  141.3820 C   0  0  1  0  0  3  0  0  0  0  0  0
  182.6110  179.2160  139.2880 C   0  0  0  0  0  2  0  0  0  0  0  0
  181.9550  176.3740  139.5280 C   0  0  0  0  0  2  0  0  0  0  0  0
  181.4800  178.5570  138.5080 C   0  0  2  0  0  3  0  0  0  0  0  0
  181.7900  177.1380  138.2970 N   0  0  0  0  0  0  0  0  0  0  0  0
  183.1050  176.9770  140.3320 C   0  0  0  0  0  2  0  0  0  0  0  0
  182.4580  176.6600  137.1120 C   0  0  0  0  0  0  0  0  0  0  0  0
  182.8410  178.4660  140.6070 C   0  0  1  0  0  3  0  0  0  0  0  0
  181.1800  179.3060  137.2190 C   0  0  0  0  0  1  0  0  0  0  0  0
  183.2610  177.4130  136.4980 O   0  0  0  0  0  0  0  0  0  0  0  0
  180.9870  174.7580  136.9790 O   0  0  0  0  0  0  0  0  0  0  0  0
  182.2330  175.2570  136.5930 C   0  0  1  0  0  0  0  0  0  0  0  0
  180.7020  174.7220  135.6080 C   0  0  1  0  0  3  0  0  0  0  0  0
  181.9580  175.2080  135.2210 O   0  0  0  0  0  0  0  0  0  0  0  0
  179.2680  173.3470  134.6400 C   0  0  0  0  0  1  0  0  0  0  0  0
  180.5510  173.3980  135.1830 O   0  0  0  0  0  0  0  0  0  0  0  0
  183.3610  174.2980  136.9740 C   0  0  0  0  0  2  0  0  0  0  0  0
  183.9170  173.7230  135.8290 O   0  0  0  0  0  0  0  0  0  0  0  0
  185.6490  174.2280  137.2190 O   0  0  0  0  0  1  0  0  0  0  0  0
  185.2720  174.0510  135.8890 C   0  0  0  0  0  3  0  0  0  0  0  0
  185.4980  175.2300  135.1800 O   0  0  0  0  0  1  0  0  0  0  0  0
  1  3  1  0  0  0  0
  3  2  1  1  0  0  0
  4  6  1  0  0  0  0
  5 10  1  1  0  0  0
  5  4  1  0  0  0  0
  5  6  1  0  0  0  0
  6  3  1  0  0  0  0
  6  8  1  1  0  0  0
  8  7  1  0  0  0  0
 10 24  1  0  0  0  0
 10  9  1  1  0  0  0
 12 15  1  1  0  0  0
 12 14  1  0  0  0  0
 12 17  1  0  0  0  0
 13 11  2  0  0  0  0
 13 22  1  0  0  0  0
 14 19  1  0  0  0  0
 16 22  1  0  0  0  0
 17 20  1  6  0  0  0
 17 21  1  0  0  0  0
 18 16  1  1  0  0  0
 19 18  1  0  0  0  0
 21 18  1  0  0  0  0
 21 13  1  1  0  0  0
 22 10  1  0  0  0  0
 24 23  1  0  0  0  0
 25  1  1  0  0  0  0
 27 26  1  6  0  0  0
 27 25  1  0  0  0  0
 28 34  1  0  0  0  0
 29 32  1  0  0  0  0
 30 35  1  6  0  0  0
 30 28  1  0  0  0  0
 31 30  1  0  0  0  0
 31 29  1  0  0  0  0
 32 34  1  0  0  0  0
 33 31  1  0  0  0  0
 34 27  1  6  0  0  0
 36 33  2  0  0  0  0
 38 43  1  1  0  0  0
 38 37  1  0  0  0  0
 38 33  1  0  0  0  0
 39 42  1  6  0  0  0
 39 37  1  0  0  0  0
 40 39  1  0  0  0  0
 40 38  1  0  0  0  0
 41 42  1  0  0  0  0
 44 46  1  0  0  0  0
 44 43  1  0  0  0  0
 46 45  1  0  0  0  0
 47 46  1  0  0  0  0
M  END
>  <MODEL>
7

>  <REMARK>
 VINA RESULT:      -6.2      2.036      8.392
  Name = 
  14 active torsions:
  status: ('A' for Active; 'I' for Inactive)
    1  A    between atoms: N_14  and  C_25
    2  A    between atoms: N_14  and  C_41
    3  A    between atoms: C_16  and  C_45
    4  A    between atoms: O_18  and  C_28
    5  A    between atoms: O_18  and  C_36
    6  A    between atoms: C_19  and  C_24
    7  A    between atoms: C_19  and  C_36
    8  A    between atoms: C_22  and  O_34
    9  A    between atoms: C_25  and  C_31
   10  A    between atoms: C_35  and  C_45
   11  A    between atoms: C_38  and  C_47
   12  A    between atoms: C_40  and  C_41
   13  A    between atoms: C_40  and  C_47
   14  A    between atoms: N_43  and  C_45
                            x       y       z     vdW  Elec       q    Type
                         _______ _______ _______ _____ _____    ______ ____

>  <TORSDO>
F 14

$$$$
=
 OpenBabel11062417353D

 47 51  0  0  1  0  0  0  0  0999 V2000
  188.9510  175.7470  137.2870 C   0  0  0  0  0  2  0  0  0  0  0  0
  189.7480  174.3510  135.5180 O   0  0  0  0  0  1  0  0  0  0  0  0
  188.8600  174.3890  136.5960 C   0  0  2  0  0  3  0  0  0  0  0  0
  186.5220  173.3750  137.1880 C   0  0  0  0  0  2  0  0  0  0  0  0
  186.3670  174.8720  136.9240 C   0  0  1  0  0  3  0  0  0  0  0  0
  187.4170  174.0490  136.1620 C   0  0  1  0  0  0  0  0  0  0  0  0
  186.9520  172.2920  134.5940 O   0  0  0  0  0  1  0  0  0  0  0  0
  187.1240  173.6710  134.7070 C   0  0  0  0  0  2  0  0  0  0  0  0
  185.4640  176.0380  134.9260 C   0  0  0  0  0  1  0  0  0  0  0  0
  185.0580  175.2840  136.1850 C   0  0  2  0  0  0  0  0  0  0  0  0
  185.8350  177.8800  137.6330 O   0  0  0  0  0  0  0  0  0  0  0  0
  182.2860  179.1050  140.2030 C   0  0  1  0  0  3  0  0  0  0  0  0
  184.7380  177.2950  137.8310 C   0  0  0  0  0  0  0  0  0  0  0  0
  181.1630  178.1250  139.7590 C   0  0  0  0  0  2  0  0  0  0  0  0
  182.7220  178.7580  141.4840 O   0  0  0  0  0  1  0  0  0  0  0  0
  183.0000  175.7520  137.6800 C   0  0  0  0  0  2  0  0  0  0  0  0
  183.4660  179.0830  139.2000 C   0  0  1  0  0  3  0  0  0  0  0  0
  182.5470  176.9990  138.4210 C   0  0  1  0  0  3  0  0  0  0  0  0
  181.6520  176.8220  139.4810 O   0  0  0  0  0  0  0  0  0  0  0  0
  184.5670  179.7610  139.7280 O   0  0  0  0  0  1  0  0  0  0  0  0
  183.8150  177.6290  138.9340 C   0  0  1  0  0  3  0  0  0  0  0  0
  184.2740  176.1600  137.0830 N   0  0  0  0  0  0  0  0  0  0  0  0
  183.3750  174.4840  134.5970 O   0  0  0  0  0  1  0  0  0  0  0  0
  184.1630  174.1270  135.6930 C   0  0  0  0  0  2  0  0  0  0  0  0
  189.4840  175.6270  138.6390 N   0  0  0  0  0  2  0  0  0  0  0  0
  190.7450  177.2910  137.6310 O   0  0  0  0  0  1  0  0  0  0  0  0
  190.5870  176.5680  138.8140 C   0  0  1  0  0  3  0  0  0  0  0  0
  188.8160  177.4960  140.3460 C   0  0  0  0  0  2  0  0  0  0  0  0
  190.8380  178.0800  142.3800 C   0  0  0  0  0  2  0  0  0  0  0  0
  188.5560  178.4130  141.5350 C   0  0  2  0  0  3  0  0  0  0  0  0
  189.4080  178.0120  142.6610 N   0  0  0  0  0  0  0  0  0  0  0  0
  191.1550  177.1470  141.2140 C   0  0  0  0  0  2  0  0  0  0  0  0
  188.9630  177.0940  143.6790 C   0  0  0  0  0  0  0  0  0  0  0  0
  190.3080  177.5190  139.9860 C   0  0  1  0  0  3  0  0  0  0  0  0
  187.0770  178.4660  141.8870 C   0  0  0  0  0  1  0  0  0  0  0  0
  188.1100  176.2100  143.3960 O   0  0  0  0  0  0  0  0  0  0  0  0
  189.5740  178.4630  145.5630 O   0  0  0  0  0  0  0  0  0  0  0  0
  189.5130  177.1520  145.0870 C   0  0  1  0  0  0  0  0  0  0  0  0
  188.6520  178.0370  146.5280 C   0  0  1  0  0  3  0  0  0  0  0  0
  188.6030  176.7180  146.0580 O   0  0  0  0  0  0  0  0  0  0  0  0
  188.1650  178.2520  148.6720 C   0  0  0  0  0  1  0  0  0  0  0  0
  189.2360  178.0710  147.7990 O   0  0  0  0  0  0  0  0  0  0  0  0
  190.8620  176.4450  145.2240 C   0  0  0  0  0  2  0  0  0  0  0  0
  191.6720  177.1200  146.1410 O   0  0  0  0  0  0  0  0  0  0  0  0
  191.1440  175.1610  147.1770 O   0  0  0  0  0  1  0  0  0  0  0  0
  192.1340  176.1260  147.0040 C   0  0  0  0  0  3  0  0  0  0  0  0
  192.4530  176.6910  148.2380 O   0  0  0  0  0  1  0  0  0  0  0  0
  1 25  1  0  0  0  0
  3  2  1  6  0  0  0
  3  1  1  0  0  0  0
  5 10  1  6  0  0  0
  5  4  1  0  0  0  0
  6  8  1  6  0  0  0
  6  3  1  0  0  0  0
  6  5  1  0  0  0  0
  6  4  1  0  0  0  0
  7  8  1  0  0  0  0
 10  9  1  6  0  0  0
 10 22  1  0  0  0  0
 11 13  2  0  0  0  0
 12 15  1  1  0  0  0
 14 12  1  0  0  0  0
 17 20  1  1  0  0  0
 17 12  1  0  0  0  0
 18 16  1  1  0  0  0
 18 21  1  0  0  0  0
 18 19  1  0  0  0  0
 19 14  1  0  0  0  0
 21 13  1  6  0  0  0
 21 17  1  0  0  0  0
 22 16  1  0  0  0  0
 22 13  1  0  0  0  0
 23 24  1  0  0  0  0
 24 10  1  0  0  0  0
 25 27  1  0  0  0  0
 27 26  1  6  0  0  0
 28 30  1  0  0  0  0
 29 31  1  0  0  0  0
 30 35  1  1  0  0  0
 30 31  1  0  0  0  0
 31 33  1  0  0  0  0
 32 29  1  0  0  0  0
 33 38  1  0  0  0  0
 34 27  1  6  0  0  0
 34 28  1  0  0  0  0
 34 32  1  0  0  0  0
 36 33  2  0  0  0  0
 37 39  1  0  0  0  0
 38 43  1  1  0  0  0
 38 37  1  0  0  0  0
 38 40  1  0  0  0  0
 39 42  1  1  0  0  0
 40 39  1  0  0  0  0
 42 41  1  0  0  0  0
 43 44  1  0  0  0  0
 44 46  1  0  0  0  0
 46 45  1  0  0  0  0
 46 47  1  0  0  0  0
M  END
>  <MODEL>
8

>  <REMARK>
 VINA RESULT:      -6.2      2.523      6.756
  Name = 
  14 active torsions:
  status: ('A' for Active; 'I' for Inactive)
    1  A    between atoms: N_14  and  C_25
    2  A    between atoms: N_14  and  C_41
    3  A    between atoms: C_16  and  C_45
    4  A    between atoms: O_18  and  C_28
    5  A    between atoms: O_18  and  C_36
    6  A    between atoms: C_19  and  C_24
    7  A    between atoms: C_19  and  C_36
    8  A    between atoms: C_22  and  O_34
    9  A    between atoms: C_25  and  C_31
   10  A    between atoms: C_35  and  C_45
   11  A    between atoms: C_38  and  C_47
   12  A    between atoms: C_40  and  C_41
   13  A    between atoms: C_40  and  C_47
   14  A    between atoms: N_43  and  C_45
                            x       y       z     vdW  Elec       q    Type
                         _______ _______ _______ _____ _____    ______ ____

>  <TORSDO>
F 14

$$$$
=
 OpenBabel11062417353D

 47 51  0  0  1  0  0  0  0  0999 V2000
  191.1500  175.5620  137.1100 C   0  0  0  0  0  2  0  0  0  0  0  0
  190.4990  173.3080  136.6450 O   0  0  0  0  0  1  0  0  0  0  0  0
  190.0230  174.5310  137.1290 C   0  0  2  0  0  3  0  0  0  0  0  0
  187.4470  174.3680  136.7010 C   0  0  0  0  0  2  0  0  0  0  0  0
  187.7780  175.7570  137.2450 C   0  0  1  0  0  3  0  0  0  0  0  0
  188.7790  175.0100  136.3500 C   0  0  1  0  0  0  0  0  0  0  0  0
  190.1010  176.1600  134.7070 O   0  0  0  0  0  1  0  0  0  0  0  0
  188.9130  175.4520  134.8890 C   0  0  0  0  0  2  0  0  0  0  0  0
  187.8810  178.1240  136.5020 C   0  0  0  0  0  1  0  0  0  0  0  0
  186.9500  176.9250  136.6300 C   0  0  2  0  0  0  0  0  0  0  0  0
  184.2320  175.5480  137.0150 O   0  0  0  0  0  0  0  0  0  0  0  0
  181.9060  177.9840  140.0740 C   0  0  1  0  0  3  0  0  0  0  0  0
  184.5320  176.6270  137.5900 C   0  0  0  0  0  0  0  0  0  0  0  0
  182.9570  179.0030  140.5990 C   0  0  0  0  0  2  0  0  0  0  0  0
  180.9790  178.6510  139.2700 O   0  0  0  0  0  1  0  0  0  0  0  0
  185.7300  178.5010  138.2780 C   0  0  0  0  0  2  0  0  0  0  0  0
  182.5910  176.8410  139.2850 C   0  0  1  0  0  3  0  0  0  0  0  0
  184.4960  178.3060  139.1430 C   0  0  1  0  0  3  0  0  0  0  0  0
  183.8350  179.4580  139.5810 O   0  0  0  0  0  0  0  0  0  0  0  0
  181.6390  176.0780  138.6060 O   0  0  0  0  0  1  0  0  0  0  0  0
  183.5600  177.4770  138.3040 C   0  0  1  0  0  3  0  0  0  0  0  0
  185.8330  177.2350  137.5480 N   0  0  0  0  0  0  0  0  0  0  0  0
  185.7170  177.8020  134.7060 O   0  0  0  0  0  1  0  0  0  0  0  0
  186.3950  176.6900  135.2100 C   0  0  0  0  0  2  0  0  0  0  0  0
  190.8700  176.6780  138.0060 N   0  0  0  0  0  2  0  0  0  0  0  0
  193.0180  176.8830  138.8570 O   0  0  0  0  0  1  0  0  0  0  0  0
  191.7030  176.5640  139.2010 C   0  0  1  0  0  3  0  0  0  0  0  0
  189.7010  177.2750  140.5530 C   0  0  0  0  0  2  0  0  0  0  0  0
  191.4480  178.2120  142.7050 C   0  0  0  0  0  2  0  0  0  0  0  0
  189.2180  178.1830  141.6770 C   0  0  2  0  0  3  0  0  0  0  0  0
  190.0240  177.9470  142.8800 N   0  0  0  0  0  0  0  0  0  0  0  0
  191.9880  177.2970  141.6080 C   0  0  0  0  0  2  0  0  0  0  0  0
  189.6330  177.0080  143.9020 C   0  0  0  0  0  0  0  0  0  0  0  0
  191.1980  177.5030  140.3060 C   0  0  1  0  0  3  0  0  0  0  0  0
  187.7230  178.0330  141.9140 C   0  0  0  0  0  1  0  0  0  0  0  0
  188.9410  176.0000  143.5940 O   0  0  0  0  0  0  0  0  0  0  0  0
  190.3980  175.9750  145.9380 O   0  0  0  0  0  0  0  0  0  0  0  0
  190.0540  177.1910  145.3430 C   0  0  1  0  0  0  0  0  0  0  0  0
  191.6780  176.5300  146.0670 C   0  0  1  0  0  3  0  0  0  0  0  0
  191.3270  177.7540  145.4840 O   0  0  0  0  0  0  0  0  0  0  0  0
  192.7980  175.6290  147.7460 C   0  0  0  0  0  1  0  0  0  0  0  0
  191.9870  176.7150  147.4190 O   0  0  0  0  0  0  0  0  0  0  0  0
  189.0110  177.9420  146.1720 C   0  0  0  0  0  2  0  0  0  0  0  0
  187.8990  178.2520  145.3860 O   0  0  0  0  0  0  0  0  0  0  0  0
  185.6400  177.9550  145.3660 O   0  0  0  0  0  1  0  0  0  0  0  0
  186.8140  177.7100  146.0760 C   0  0  0  0  0  3  0  0  0  0  0  0
  186.7250  178.2960  147.3390 O   0  0  0  0  0  1  0  0  0  0  0  0
  1  3  1  0  0  0  0
  1 25  1  0  0  0  0
  3  2  1  6  0  0  0
  4  5  1  0  0  0  0
  5 10  1  6  0  0  0
  6  8  1  6  0  0  0
  6  4  1  0  0  0  0
  6  3  1  0  0  0  0
  6  5  1  0  0  0  0
  7  8  1  0  0  0  0
 10  9  1  6  0  0  0
 10 22  1  0  0  0  0
 11 13  2  0  0  0  0
 12 15  1  6  0  0  0
 12 14  1  0  0  0  0
 17 20  1  6  0  0  0
 17 12  1  0  0  0  0
 18 16  1  6  0  0  0
 18 19  1  0  0  0  0
 19 14  1  0  0  0  0
 21 13  1  1  0  0  0
 21 18  1  0  0  0  0
 21 17  1  0  0  0  0
 22 13  1  0  0  0  0
 22 16  1  0  0  0  0
 23 24  1  0  0  0  0
 24 10  1  0  0  0  0
 25 27  1  0  0  0  0
 27 26  1  6  0  0  0
 28 30  1  0  0  0  0
 29 31  1  0  0  0  0
 30 35  1  1  0  0  0
 30 31  1  0  0  0  0
 31 33  1  0  0  0  0
 32 29  1  0  0  0  0
 33 38  1  0  0  0  0
 34 27  1  6  0  0  0
 34 28  1  0  0  0  0
 34 32  1  0  0  0  0
 36 33  2  0  0  0  0
 37 39  1  0  0  0  0
 38 40  1  0  0  0  0
 38 37  1  0  0  0  0
 38 43  1  1  0  0  0
 39 42  1  1  0  0  0
 40 39  1  0  0  0  0
 42 41  1  0  0  0  0
 44 46  1  0  0  0  0
 44 43  1  0  0  0  0
 45 46  1  0  0  0  0
 46 47  1  0  0  0  0
M  END
>  <MODEL>
9

>  <REMARK>
 VINA RESULT:      -6.1      2.453      6.831
  Name = 
  14 active torsions:
  status: ('A' for Active; 'I' for Inactive)
    1  A    between atoms: N_14  and  C_25
    2  A    between atoms: N_14  and  C_41
    3  A    between atoms: C_16  and  C_45
    4  A    between atoms: O_18  and  C_28
    5  A    between atoms: O_18  and  C_36
    6  A    between atoms: C_19  and  C_24
    7  A    between atoms: C_19  and  C_36
    8  A    between atoms: C_22  and  O_34
    9  A    between atoms: C_25  and  C_31
   10  A    between atoms: C_35  and  C_45
   11  A    between atoms: C_38  and  C_47
   12  A    between atoms: C_40  and  C_41
   13  A    between atoms: C_40  and  C_47
   14  A    between atoms: N_43  and  C_45
                            x       y       z     vdW  Elec       q    Type
                         _______ _______ _______ _____ _____    ______ ____

>  <TORSDO>
F 14

$$$$
