=
 OpenBabel11062416313D

 29 33  0  0  1  0  0  0  0  0999 V2000
  189.7680  177.2870  139.7970 C   0  0  0  0  0  0  0  0  0  0  0  0
  190.2970  176.1430  139.8120 O   0  0  0  0  0  0  0  0  0  0  0  0
  189.2520  177.8730  141.0140 N   0  0  0  0  0  0  0  0  0  0  0  0
  191.0540  177.0920  144.7670 N   0  0  0  0  0  0  0  0  0  0  0  0
  189.8550  177.5990  142.3060 C   0  0  0  0  0  0  0  0  0  0  0  0
  190.2900  178.6510  143.1290 C   0  0  0  0  0  3  0  0  0  0  0  0
  190.0520  176.2830  142.7570 C   0  0  0  0  0  3  0  0  0  0  0  0
  190.8870  178.3780  144.3620 C   0  0  0  0  0  3  0  0  0  0  0  0
  190.6530  176.0480  143.9960 C   0  0  0  0  0  3  0  0  0  0  0  0
  187.1580  178.4530  140.0830 O   0  0  0  0  0  0  0  0  0  0  0  0
  188.2030  178.8960  140.9190 C   0  0  1  0  0  3  0  0  0  0  0  0
  186.9270  178.3710  141.4640 C   0  0  1  0  0  3  0  0  0  0  0  0
  186.0880  179.4800  141.8810 N   0  0  0  0  0  2  0  0  0  0  0  0
  184.9130  178.8960  142.5010 C   0  0  0  0  0  2  0  0  0  0  0  0
  185.8840  178.9910  145.8130 C   0  0  1  0  0  3  0  0  0  0  0  0
  184.8480  178.3070  144.9020 C   0  0  1  0  0  0  0  0  0  0  0  0
  184.6450  178.4590  146.4130 C   0  0  0  0  0  2  0  0  0  0  0  0
  184.7400  179.4610  143.8940 C   0  0  2  0  0  3  0  0  0  0  0  0
  183.5070  178.9290  144.4950 C   0  0  0  0  0  2  0  0  0  0  0  0
  188.6360  176.9910  147.6840 C   0  0  0  0  0  1  0  0  0  0  0  0
  187.0290  178.0620  146.0610 C   0  0  0  0  0  0  0  0  0  0  0  0
  187.5890  177.4860  145.0890 O   0  0  0  0  0  0  0  0  0  0  0  0
  187.5160  177.8700  147.3920 N   0  0  0  0  0  2  0  0  0  0  0  0
  189.7030  178.0350  138.4990 C   0  0  0  0  0  2  0  0  0  0  0  0
  187.9850  175.8200  136.2210 N   0  0  0  0  0  0  0  0  0  0  0  0
  189.2300  177.1680  137.4300 N   0  0  0  0  0  0  0  0  0  0  0  0
  189.1500  175.9520  135.6030 N   0  0  0  0  0  0  0  0  0  0  0  0
  189.9150  176.7760  136.3440 C   0  0  0  0  0  3  0  0  0  0  0  0
  188.0350  176.5620  137.3440 C   0  0  0  0  0  3  0  0  0  0  0  0
  1  2  2  0  0  0  0
  1  3  1  0  0  0  0
  3  5  1  0  0  0  0
  5  7  2  0  0  0  0
  5  6  1  0  0  0  0
  6  8  2  0  0  0  0
  7  9  1  0  0  0  0
  8  4  1  0  0  0  0
  9  4  2  0  0  0  0
 10 11  1  0  0  0  0
 10 12  1  0  0  0  0
 11  3  1  1  0  0  0
 11 12  1  0  0  0  0
 12 13  1  6  0  0  0
 13 14  1  0  0  0  0
 15 21  1  1  0  0  0
 15 17  1  0  0  0  0
 16 19  1  6  0  0  0
 16 15  1  0  0  0  0
 16 17  1  0  0  0  0
 18 14  1  6  0  0  0
 18 19  1  0  0  0  0
 18 16  1  0  0  0  0
 21 23  1  0  0  0  0
 22 21  2  0  0  0  0
 23 20  1  0  0  0  0
 24  1  1  0  0  0  0
 25 29  2  0  0  0  0
 26 24  1  0  0  0  0
 27 25  1  0  0  0  0
 27 28  2  0  0  0  0
 28 26  1  0  0  0  0
 29 26  1  0  0  0  0
M  END
>  <MODEL>
1

>  <REMARK>
 VINA RESULT:      -7.7      0.000      0.000
  Name = 
  8 active torsions:
  status: ('A' for Active; 'I' for Inactive)
    1  A    between atoms: C_2  and  C_5
    2  A    between atoms: C_2  and  N_10
    3  A    between atoms: C_4  and  C_6
    4  A    between atoms: N_9  and  C_18
    5  A    between atoms: N_9  and  C_23
    6  A    between atoms: C_15  and  N_20
    7  A    between atoms: C_17  and  C_18
    8  A    between atoms: N_20  and  C_21
                            x       y       z     vdW  Elec       q    Type
                         _______ _______ _______ _____ _____    ______ ____

>  <TORSDO>
F 8

$$$$
=
 OpenBabel11062416313D

 29 33  0  0  1  0  0  0  0  0999 V2000
  189.5740  176.8660  140.7440 C   0  0  0  0  0  0  0  0  0  0  0  0
  190.6350  176.2520  140.4480 O   0  0  0  0  0  0  0  0  0  0  0  0
  188.8500  177.6100  139.7380 N   0  0  0  0  0  0  0  0  0  0  0  0
  188.7740  176.4280  135.6710 N   0  0  0  0  0  0  0  0  0  0  0  0
  188.8330  177.1900  138.3470 C   0  0  0  0  0  0  0  0  0  0  0  0
  189.4890  177.9500  137.3640 C   0  0  0  0  0  3  0  0  0  0  0  0
  188.1380  176.0400  137.9390 C   0  0  0  0  0  3  0  0  0  0  0  0
  189.4510  177.5500  136.0270 C   0  0  0  0  0  3  0  0  0  0  0  0
  188.1210  175.6720  136.5920 C   0  0  0  0  0  3  0  0  0  0  0  0
  186.8400  178.7860  139.3340 O   0  0  0  0  0  0  0  0  0  0  0  0
  187.9800  178.7140  140.1610 C   0  0  1  0  0  3  0  0  0  0  0  0
  186.6600  178.1890  140.5900 C   0  0  1  0  0  3  0  0  0  0  0  0
  186.0350  179.1390  141.4920 N   0  0  0  0  0  2  0  0  0  0  0  0
  185.2030  178.3630  142.3940 C   0  0  0  0  0  2  0  0  0  0  0  0
  185.8290  179.0440  145.7200 C   0  0  1  0  0  3  0  0  0  0  0  0
  184.8700  178.2220  144.8400 C   0  0  1  0  0  0  0  0  0  0  0  0
  184.5180  178.6500  146.2680 C   0  0  0  0  0  2  0  0  0  0  0  0
  184.9070  179.1750  143.6360 C   0  0  2  0  0  3  0  0  0  0  0  0
  183.6010  178.7790  144.1850 C   0  0  0  0  0  2  0  0  0  0  0  0
  188.2250  177.2920  148.2230 C   0  0  0  0  0  1  0  0  0  0  0  0
  186.9110  178.1590  146.2520 C   0  0  0  0  0  0  0  0  0  0  0  0
  187.6140  177.4810  145.4550 O   0  0  0  0  0  0  0  0  0  0  0  0
  187.1750  178.1230  147.6570 N   0  0  0  0  0  2  0  0  0  0  0  0
  189.0710  176.7950  142.1550 C   0  0  0  0  0  2  0  0  0  0  0  0
  191.6290  177.1600  144.6770 N   0  0  0  0  0  0  0  0  0  0  0  0
  190.1080  177.1980  143.0930 N   0  0  0  0  0  0  0  0  0  0  0  0
  191.5090  178.4140  144.2670 N   0  0  0  0  0  0  0  0  0  0  0  0
  190.5750  178.4390  143.2970 C   0  0  0  0  0  3  0  0  0  0  0  0
  190.7680  176.4140  143.9600 C   0  0  0  0  0  3  0  0  0  0  0  0
  1 24  1  0  0  0  0
  2  1  2  0  0  0  0
  3  1  1  0  0  0  0
  4  8  2  0  0  0  0
  4  9  1  0  0  0  0
  5  3  1  0  0  0  0
  6  5  2  0  0  0  0
  7  5  1  0  0  0  0
  8  6  1  0  0  0  0
  9  7  2  0  0  0  0
 10 11  1  0  0  0  0
 10 12  1  0  0  0  0
 11  3  1  6  0  0  0
 11 12  1  0  0  0  0
 12 13  1  1  0  0  0
 13 14  1  0  0  0  0
 15 21  1  1  0  0  0
 15 17  1  0  0  0  0
 16 19  1  6  0  0  0
 16 15  1  0  0  0  0
 16 17  1  0  0  0  0
 18 14  1  6  0  0  0
 18 19  1  0  0  0  0
 18 16  1  0  0  0  0
 21 23  1  0  0  0  0
 22 21  2  0  0  0  0
 23 20  1  0  0  0  0
 24 26  1  0  0  0  0
 26 28  1  0  0  0  0
 26 29  1  0  0  0  0
 27 25  1  0  0  0  0
 28 27  2  0  0  0  0
 29 25  2  0  0  0  0
M  END
>  <MODEL>
2

>  <REMARK>
 VINA RESULT:      -7.3      0.867      4.669
  Name = 
  8 active torsions:
  status: ('A' for Active; 'I' for Inactive)
    1  A    between atoms: C_2  and  C_5
    2  A    between atoms: C_2  and  N_10
    3  A    between atoms: C_4  and  C_6
    4  A    between atoms: N_9  and  C_18
    5  A    between atoms: N_9  and  C_23
    6  A    between atoms: C_15  and  N_20
    7  A    between atoms: C_17  and  C_18
    8  A    between atoms: N_20  and  C_21
                            x       y       z     vdW  Elec       q    Type
                         _______ _______ _______ _____ _____    ______ ____

>  <TORSDO>
F 8

$$$$
=
 OpenBabel11062416313D

 29 33  0  0  1  0  0  0  0  0999 V2000
  189.2410  178.3450  138.5810 C   0  0  0  0  0  0  0  0  0  0  0  0
  188.9850  179.4080  137.9530 O   0  0  0  0  0  0  0  0  0  0  0  0
  188.4780  177.9840  139.7550 N   0  0  0  0  0  0  0  0  0  0  0  0
  184.3970  179.0590  140.1200 N   0  0  0  0  0  0  0  0  0  0  0  0
  187.0760  178.3390  139.8910 C   0  0  0  0  0  0  0  0  0  0  0  0
  186.2140  178.2790  138.7830 C   0  0  0  0  0  3  0  0  0  0  0  0
  186.5490  178.7820  141.1150 C   0  0  0  0  0  3  0  0  0  0  0  0
  184.8720  178.6410  138.9170 C   0  0  0  0  0  3  0  0  0  0  0  0
  185.2020  179.1370  141.2120 C   0  0  0  0  0  3  0  0  0  0  0  0
  190.4330  177.4560  140.9750 O   0  0  0  0  0  0  0  0  0  0  0  0
  189.0890  177.0960  140.7530 C   0  0  1  0  0  3  0  0  0  0  0  0
  189.5080  177.8770  141.9430 C   0  0  1  0  0  3  0  0  0  0  0  0
  189.5800  176.9970  143.0940 N   0  0  0  0  0  2  0  0  0  0  0  0
  189.5570  177.8520  144.2670 C   0  0  0  0  0  2  0  0  0  0  0  0
  186.9460  177.4440  146.4890 C   0  0  1  0  0  3  0  0  0  0  0  0
  188.3210  178.1300  146.3910 C   0  0  1  0  0  0  0  0  0  0  0  0
  187.6700  177.7710  147.7310 C   0  0  0  0  0  2  0  0  0  0  0  0
  188.9380  177.1050  145.4280 C   0  0  2  0  0  3  0  0  0  0  0  0
  189.6590  177.4340  146.6680 C   0  0  0  0  0  2  0  0  0  0  0  0
  184.1370  179.4090  144.6650 C   0  0  0  0  0  1  0  0  0  0  0  0
  185.8630  178.4430  146.2310 C   0  0  0  0  0  0  0  0  0  0  0  0
  185.5850  179.3040  147.1080 O   0  0  0  0  0  0  0  0  0  0  0  0
  185.1840  178.4490  144.9720 N   0  0  0  0  0  2  0  0  0  0  0  0
  190.3390  177.4570  138.0770 C   0  0  0  0  0  2  0  0  0  0  0  0
  189.4160  174.2530  136.6900 N   0  0  0  0  0  0  0  0  0  0  0  0
  189.7880  176.3060  137.3770 N   0  0  0  0  0  0  0  0  0  0  0  0
  188.6360  175.0590  135.9840 N   0  0  0  0  0  0  0  0  0  0  0  0
  188.8650  176.3180  136.4030 C   0  0  0  0  0  3  0  0  0  0  0  0
  190.1260  175.0170  137.5410 C   0  0  0  0  0  3  0  0  0  0  0  0
  1  3  1  0  0  0  0
  2  1  2  0  0  0  0
  3  5  1  0  0  0  0
  4  9  1  0  0  0  0
  5  7  1  0  0  0  0
  6  8  1  0  0  0  0
  6  5  2  0  0  0  0
  7  9  2  0  0  0  0
  8  4  2  0  0  0  0
 10 12  1  0  0  0  0
 11  3  1  6  0  0  0
 11 10  1  0  0  0  0
 11 12  1  0  0  0  0
 12 13  1  1  0  0  0
 13 14  1  0  0  0  0
 15 21  1  1  0  0  0
 15 17  1  0  0  0  0
 16 15  1  0  0  0  0
 16 19  1  6  0  0  0
 16 17  1  0  0  0  0
 18 14  1  6  0  0  0
 18 16  1  0  0  0  0
 18 19  1  0  0  0  0
 20 23  1  0  0  0  0
 21 22  2  0  0  0  0
 23 21  1  0  0  0  0
 24  1  1  0  0  0  0
 25 29  2  0  0  0  0
 26 29  1  0  0  0  0
 26 24  1  0  0  0  0
 27 28  2  0  0  0  0
 27 25  1  0  0  0  0
 28 26  1  0  0  0  0
M  END
>  <MODEL>
3

>  <REMARK>
 VINA RESULT:      -7.2      1.863      4.233
  Name = 
  8 active torsions:
  status: ('A' for Active; 'I' for Inactive)
    1  A    between atoms: C_2  and  C_5
    2  A    between atoms: C_2  and  N_10
    3  A    between atoms: C_4  and  C_6
    4  A    between atoms: N_9  and  C_18
    5  A    between atoms: N_9  and  C_23
    6  A    between atoms: C_15  and  N_20
    7  A    between atoms: C_17  and  C_18
    8  A    between atoms: N_20  and  C_21
                            x       y       z     vdW  Elec       q    Type
                         _______ _______ _______ _____ _____    ______ ____

>  <TORSDO>
F 8

$$$$
=
 OpenBabel11062416313D

 29 33  0  0  1  0  0  0  0  0999 V2000
  190.8480  175.6270  136.9520 C   0  0  0  0  0  0  0  0  0  0  0  0
  190.7020  175.3340  135.7350 O   0  0  0  0  0  0  0  0  0  0  0  0
  190.0670  176.6860  137.5520 N   0  0  0  0  0  0  0  0  0  0  0  0
  186.1270  177.5020  136.2290 N   0  0  0  0  0  0  0  0  0  0  0  0
  188.7150  176.9790  137.1090 C   0  0  0  0  0  0  0  0  0  0  0  0
  187.6730  176.0660  137.3430 C   0  0  0  0  0  3  0  0  0  0  0  0
  188.4140  178.1590  136.4080 C   0  0  0  0  0  3  0  0  0  0  0  0
  186.3800  176.3470  136.8970 C   0  0  0  0  0  3  0  0  0  0  0  0
  187.1100  178.4050  135.9760 C   0  0  0  0  0  3  0  0  0  0  0  0
  189.5500  178.0250  139.4300 O   0  0  0  0  0  0  0  0  0  0  0  0
  190.5910  177.3670  138.7430 C   0  0  1  0  0  3  0  0  0  0  0  0
  189.9730  176.8000  139.9670 C   0  0  1  0  0  3  0  0  0  0  0  0
  190.8430  177.0450  141.1030 N   0  0  0  0  0  2  0  0  0  0  0  0
  190.1930  176.4480  142.2550 C   0  0  0  0  0  2  0  0  0  0  0  0
  189.5500  177.8220  145.3570 C   0  0  1  0  0  3  0  0  0  0  0  0
  188.9090  176.8760  144.3250 C   0  0  1  0  0  0  0  0  0  0  0  0
  188.0880  177.6320  145.3750 C   0  0  0  0  0  2  0  0  0  0  0  0
  189.5500  177.5320  143.0930 C   0  0  2  0  0  3  0  0  0  0  0  0
  188.0910  177.3400  143.1140 C   0  0  0  0  0  2  0  0  0  0  0  0
  192.2260  175.7960  147.3090 C   0  0  0  0  0  1  0  0  0  0  0  0
  190.2000  177.0220  146.4410 C   0  0  0  0  0  0  0  0  0  0  0  0
  189.5350  176.6950  147.4610 O   0  0  0  0  0  0  0  0  0  0  0  0
  191.5540  176.5900  146.2920 N   0  0  0  0  0  2  0  0  0  0  0  0
  191.8330  174.8450  137.7690 C   0  0  0  0  0  2  0  0  0  0  0  0
  194.9390  176.2140  136.5350 N   0  0  0  0  0  0  0  0  0  0  0  0
  193.1970  175.1880  137.3960 N   0  0  0  0  0  0  0  0  0  0  0  0
  195.3730  175.1020  137.1100 N   0  0  0  0  0  0  0  0  0  0  0  0
  194.3060  174.4710  137.6360 C   0  0  0  0  0  3  0  0  0  0  0  0
  193.6040  176.2660  136.7070 C   0  0  0  0  0  3  0  0  0  0  0  0
  1  3  1  0  0  0  0
  1 24  1  0  0  0  0
  2  1  2  0  0  0  0
  4  8  1  0  0  0  0
  5  6  1  0  0  0  0
  5  3  1  0  0  0  0
  7  5  2  0  0  0  0
  8  6  2  0  0  0  0
  9  4  2  0  0  0  0
  9  7  1  0  0  0  0
 10 12  1  0  0  0  0
 11  3  1  6  0  0  0
 11 10  1  0  0  0  0
 11 12  1  0  0  0  0
 12 13  1  1  0  0  0
 13 14  1  0  0  0  0
 15 17  1  0  0  0  0
 15 21  1  1  0  0  0
 16 19  1  1  0  0  0
 16 15  1  0  0  0  0
 16 17  1  0  0  0  0
 18 14  1  6  0  0  0
 18 19  1  0  0  0  0
 18 16  1  0  0  0  0
 21 22  2  0  0  0  0
 23 21  1  0  0  0  0
 23 20  1  0  0  0  0
 25 29  2  0  0  0  0
 25 27  1  0  0  0  0
 26 28  1  0  0  0  0
 26 24  1  0  0  0  0
 27 28  2  0  0  0  0
 29 26  1  0  0  0  0
M  END
>  <MODEL>
4

>  <REMARK>
 VINA RESULT:      -7.1      2.873      5.446
  Name = 
  8 active torsions:
  status: ('A' for Active; 'I' for Inactive)
    1  A    between atoms: C_2  and  C_5
    2  A    between atoms: C_2  and  N_10
    3  A    between atoms: C_4  and  C_6
    4  A    between atoms: N_9  and  C_18
    5  A    between atoms: N_9  and  C_23
    6  A    between atoms: C_15  and  N_20
    7  A    between atoms: C_17  and  C_18
    8  A    between atoms: N_20  and  C_21
                            x       y       z     vdW  Elec       q    Type
                         _______ _______ _______ _____ _____    ______ ____

>  <TORSDO>
F 8

$$$$
=
 OpenBabel11062416313D

 29 33  0  0  1  0  0  0  0  0999 V2000
  187.6740  177.2080  142.6220 C   0  0  0  0  0  0  0  0  0  0  0  0
  187.6050  176.1220  143.2590 O   0  0  0  0  0  0  0  0  0  0  0  0
  186.6030  178.1750  142.6990 N   0  0  0  0  0  0  0  0  0  0  0  0
  184.2690  178.6830  146.1970 N   0  0  0  0  0  0  0  0  0  0  0  0
  185.8040  178.3330  143.9020 C   0  0  0  0  0  0  0  0  0  0  0  0
  184.4410  178.6610  143.8170 C   0  0  0  0  0  3  0  0  0  0  0  0
  186.3720  178.1960  145.1800 C   0  0  0  0  0  3  0  0  0  0  0  0
  183.6850  178.8300  144.9790 C   0  0  0  0  0  3  0  0  0  0  0  0
  185.5860  178.3730  146.3200 C   0  0  0  0  0  3  0  0  0  0  0  0
  186.7700  178.5310  140.3680 O   0  0  0  0  0  0  0  0  0  0  0  0
  186.4280  179.1300  141.5970 C   0  0  1  0  0  3  0  0  0  0  0  0
  185.3990  178.6340  140.6490 C   0  0  1  0  0  3  0  0  0  0  0  0
  184.8390  179.7550  139.9180 N   0  0  0  0  0  2  0  0  0  0  0  0
  183.5590  179.3080  139.3980 C   0  0  0  0  0  2  0  0  0  0  0  0
  182.6640  175.9750  139.4960 C   0  0  1  0  0  3  0  0  0  0  0  0
  182.0250  177.3690  139.3550 C   0  0  1  0  0  0  0  0  0  0  0  0
  181.2410  176.1470  139.8450 C   0  0  0  0  0  2  0  0  0  0  0  0
  183.0810  178.1100  140.1890 C   0  0  2  0  0  3  0  0  0  0  0  0
  181.6610  178.2790  140.5340 C   0  0  0  0  0  2  0  0  0  0  0  0
  181.8300  173.9020  136.3210 C   0  0  0  0  0  1  0  0  0  0  0  0
  182.8030  175.3450  138.1470 C   0  0  0  0  0  0  0  0  0  0  0  0
  183.8760  175.4820  137.5000 O   0  0  0  0  0  0  0  0  0  0  0  0
  181.7380  174.5490  137.6190 N   0  0  0  0  0  2  0  0  0  0  0  0
  188.8980  177.4830  141.7990 C   0  0  0  0  0  2  0  0  0  0  0  0
  192.0580  177.8800  143.5000 N   0  0  0  0  0  0  0  0  0  0  0  0
  190.0320  177.7970  142.6530 N   0  0  0  0  0  0  0  0  0  0  0  0
  191.2550  178.5470  144.3160 N   0  0  0  0  0  0  0  0  0  0  0  0
  190.0130  178.4960  143.8000 C   0  0  0  0  0  3  0  0  0  0  0  0
  191.3090  177.4160  142.4820 C   0  0  0  0  0  3  0  0  0  0  0  0
  1  3  1  0  0  0  0
  1  2  2  0  0  0  0
  3  5  1  0  0  0  0
  4  9  1  0  0  0  0
  5  7  1  0  0  0  0
  6  5  2  0  0  0  0
  6  8  1  0  0  0  0
  7  9  2  0  0  0  0
  8  4  2  0  0  0  0
 10 12  1  0  0  0  0
 10 11  1  0  0  0  0
 11  3  1  1  0  0  0
 12 13  1  6  0  0  0
 12 11  1  0  0  0  0
 14 13  1  0  0  0  0
 15 21  1  6  0  0  0
 15 17  1  0  0  0  0
 16 15  1  0  0  0  0
 16 17  1  1  0  0  0
 16 18  1  0  0  0  0
 16 19  1  0  0  0  0
 18 14  1  6  0  0  0
 18 19  1  0  0  0  0
 20 23  1  0  0  0  0
 22 21  2  0  0  0  0
 23 21  1  0  0  0  0
 24  1  1  0  0  0  0
 24 26  1  0  0  0  0
 25 27  1  0  0  0  0
 26 28  1  0  0  0  0
 28 27  2  0  0  0  0
 29 26  1  0  0  0  0
 29 25  2  0  0  0  0
M  END
>  <MODEL>
5

>  <REMARK>
 VINA RESULT:      -7.0      3.233      6.604
  Name = 
  8 active torsions:
  status: ('A' for Active; 'I' for Inactive)
    1  A    between atoms: C_2  and  C_5
    2  A    between atoms: C_2  and  N_10
    3  A    between atoms: C_4  and  C_6
    4  A    between atoms: N_9  and  C_18
    5  A    between atoms: N_9  and  C_23
    6  A    between atoms: C_15  and  N_20
    7  A    between atoms: C_17  and  C_18
    8  A    between atoms: N_20  and  C_21
                            x       y       z     vdW  Elec       q    Type
                         _______ _______ _______ _____ _____    ______ ____

>  <TORSDO>
F 8

$$$$
=
 OpenBabel11062416313D

 29 33  0  0  1  0  0  0  0  0999 V2000
  188.1980  178.2990  140.4060 C   0  0  0  0  0  0  0  0  0  0  0  0
  188.0770  178.6420  139.1990 O   0  0  0  0  0  0  0  0  0  0  0  0
  189.1240  177.2550  140.7830 N   0  0  0  0  0  0  0  0  0  0  0  0
  192.7350  176.5740  138.6760 N   0  0  0  0  0  0  0  0  0  0  0  0
  190.3640  177.0380  140.0580 C   0  0  0  0  0  0  0  0  0  0  0  0
  190.3700  176.3070  138.8580 C   0  0  0  0  0  3  0  0  0  0  0  0
  191.5900  177.5200  140.5450 C   0  0  0  0  0  3  0  0  0  0  0  0
  191.5690  176.0860  138.1770 C   0  0  0  0  0  3  0  0  0  0  0  0
  192.7690  177.2790  139.8370 C   0  0  0  0  0  3  0  0  0  0  0  0
  190.0790  175.9110  142.4770 O   0  0  0  0  0  0  0  0  0  0  0  0
  188.8850  176.5090  142.0260 C   0  0  1  0  0  3  0  0  0  0  0  0
  189.6870  177.0880  143.1320 C   0  0  1  0  0  3  0  0  0  0  0  0
  189.0680  176.7530  144.4010 N   0  0  0  0  0  2  0  0  0  0  0  0
  190.0210  177.1220  145.4320 C   0  0  0  0  0  2  0  0  0  0  0  0
  187.5060  177.5530  147.7590 C   0  0  1  0  0  3  0  0  0  0  0  0
  188.8920  178.1170  147.3950 C   0  0  1  0  0  0  0  0  0  0  0  0
  188.2960  178.2350  148.8020 C   0  0  0  0  0  2  0  0  0  0  0  0
  189.4390  176.8130  146.7940 C   0  0  2  0  0  3  0  0  0  0  0  0
  190.2240  177.4970  147.8340 C   0  0  0  0  0  2  0  0  0  0  0  0
  184.7560  178.9970  145.4310 C   0  0  0  0  0  1  0  0  0  0  0  0
  186.4380  178.4560  147.2310 C   0  0  0  0  0  0  0  0  0  0  0  0
  186.1460  179.5120  147.8550 O   0  0  0  0  0  0  0  0  0  0  0  0
  185.7890  178.1440  145.9950 N   0  0  0  0  0  2  0  0  0  0  0  0
  187.3770  179.0060  141.4430 C   0  0  0  0  0  2  0  0  0  0  0  0
  183.9480  178.6130  140.3800 N   0  0  0  0  0  0  0  0  0  0  0  0
  185.9610  178.7310  141.2530 N   0  0  0  0  0  0  0  0  0  0  0  0
  183.8780  178.1370  141.6150 N   0  0  0  0  0  0  0  0  0  0  0  0
  185.1110  178.2110  142.1520 C   0  0  0  0  0  3  0  0  0  0  0  0
  185.2240  178.9810  140.1580 C   0  0  0  0  0  3  0  0  0  0  0  0
  1  3  1  0  0  0  0
  1 24  1  0  0  0  0
  2  1  2  0  0  0  0
  4  9  1  0  0  0  0
  5  7  1  0  0  0  0
  5  3  1  0  0  0  0
  6  5  2  0  0  0  0
  8  4  2  0  0  0  0
  8  6  1  0  0  0  0
  9  7  2  0  0  0  0
 10 12  1  0  0  0  0
 11  3  1  6  0  0  0
 11 10  1  0  0  0  0
 11 12  1  0  0  0  0
 12 13  1  1  0  0  0
 13 14  1  0  0  0  0
 15 21  1  6  0  0  0
 15 17  1  0  0  0  0
 16 15  1  0  0  0  0
 16 19  1  6  0  0  0
 16 17  1  0  0  0  0
 18 14  1  6  0  0  0
 18 16  1  0  0  0  0
 18 19  1  0  0  0  0
 20 23  1  0  0  0  0
 21 22  2  0  0  0  0
 23 21  1  0  0  0  0
 25 27  1  0  0  0  0
 26 24  1  0  0  0  0
 26 28  1  0  0  0  0
 27 28  2  0  0  0  0
 29 25  2  0  0  0  0
 29 26  1  0  0  0  0
M  END
>  <MODEL>
6

>  <REMARK>
 VINA RESULT:      -7.0      2.153      4.865
  Name = 
  8 active torsions:
  status: ('A' for Active; 'I' for Inactive)
    1  A    between atoms: C_2  and  C_5
    2  A    between atoms: C_2  and  N_10
    3  A    between atoms: C_4  and  C_6
    4  A    between atoms: N_9  and  C_18
    5  A    between atoms: N_9  and  C_23
    6  A    between atoms: C_15  and  N_20
    7  A    between atoms: C_17  and  C_18
    8  A    between atoms: N_20  and  C_21
                            x       y       z     vdW  Elec       q    Type
                         _______ _______ _______ _____ _____    ______ ____

>  <TORSDO>
F 8

$$$$
=
 OpenBabel11062416313D

 29 33  0  0  1  0  0  0  0  0999 V2000
  189.1700  178.2660  138.5980 C   0  0  0  0  0  0  0  0  0  0  0  0
  188.9810  179.3860  138.0510 O   0  0  0  0  0  0  0  0  0  0  0  0
  188.3880  177.8680  139.7460 N   0  0  0  0  0  0  0  0  0  0  0  0
  184.3660  179.0900  140.2730 N   0  0  0  0  0  0  0  0  0  0  0  0
  187.0110  178.3000  139.9160 C   0  0  0  0  0  0  0  0  0  0  0  0
  186.5530  178.7500  141.1660 C   0  0  0  0  0  3  0  0  0  0  0  0
  186.0920  178.2510  138.8550 C   0  0  0  0  0  3  0  0  0  0  0  0
  185.2230  179.1450  141.3260 C   0  0  0  0  0  3  0  0  0  0  0  0
  184.7700  178.6530  139.0520 C   0  0  0  0  0  3  0  0  0  0  0  0
  189.9550  177.4480  141.4650 O   0  0  0  0  0  0  0  0  0  0  0  0
  188.9420  176.8720  140.6720 C   0  0  1  0  0  3  0  0  0  0  0  0
  188.7010  177.2900  142.0750 C   0  0  1  0  0  3  0  0  0  0  0  0
  188.7270  176.1220  142.9360 N   0  0  0  0  0  2  0  0  0  0  0  0
  187.7780  176.3780  144.0050 C   0  0  0  0  0  2  0  0  0  0  0  0
  190.1260  177.7250  146.1470 C   0  0  1  0  0  3  0  0  0  0  0  0
  188.7740  176.9900  146.1840 C   0  0  1  0  0  0  0  0  0  0  0  0
  189.2710  177.8620  147.3410 C   0  0  0  0  0  2  0  0  0  0  0  0
  188.2610  177.5400  144.8450 C   0  0  2  0  0  3  0  0  0  0  0  0
  187.4100  177.6750  146.0380 C   0  0  0  0  0  2  0  0  0  0  0  0
  192.8000  175.6360  148.0330 C   0  0  0  0  0  1  0  0  0  0  0  0
  191.2360  176.7550  146.4010 C   0  0  0  0  0  0  0  0  0  0  0  0
  191.7730  176.1510  145.4340 O   0  0  0  0  0  0  0  0  0  0  0  0
  191.7140  176.5550  147.7340 N   0  0  0  0  0  2  0  0  0  0  0  0
  190.2090  177.3500  138.0230 C   0  0  0  0  0  2  0  0  0  0  0  0
  189.1750  176.2120  134.7550 N   0  0  0  0  0  0  0  0  0  0  0  0
  189.7010  176.6770  136.8370 N   0  0  0  0  0  0  0  0  0  0  0  0
  188.6870  175.2440  135.5170 N   0  0  0  0  0  0  0  0  0  0  0  0
  189.0060  175.5290  136.7930 C   0  0  0  0  0  3  0  0  0  0  0  0
  189.7930  177.0930  135.5640 C   0  0  0  0  0  3  0  0  0  0  0  0
  1  3  1  0  0  0  0
  2  1  2  0  0  0  0
  3  5  1  0  0  0  0
  4  8  1  0  0  0  0
  5  6  1  0  0  0  0
  6  8  2  0  0  0  0
  7  9  1  0  0  0  0
  7  5  2  0  0  0  0
  9  4  2  0  0  0  0
 10 12  1  0  0  0  0
 11  3  1  6  0  0  0
 11 10  1  0  0  0  0
 11 12  1  0  0  0  0
 12 13  1  1  0  0  0
 13 14  1  0  0  0  0
 15 16  1  0  0  0  0
 15 21  1  1  0  0  0
 15 17  1  0  0  0  0
 16 19  1  1  0  0  0
 16 17  1  0  0  0  0
 18 14  1  6  0  0  0
 18 19  1  0  0  0  0
 18 16  1  0  0  0  0
 21 23  1  0  0  0  0
 22 21  2  0  0  0  0
 23 20  1  0  0  0  0
 24  1  1  0  0  0  0
 25 27  1  0  0  0  0
 25 29  2  0  0  0  0
 26 24  1  0  0  0  0
 27 28  2  0  0  0  0
 28 26  1  0  0  0  0
 29 26  1  0  0  0  0
M  END
>  <MODEL>
7

>  <REMARK>
 VINA RESULT:      -6.9      2.233      4.196
  Name = 
  8 active torsions:
  status: ('A' for Active; 'I' for Inactive)
    1  A    between atoms: C_2  and  C_5
    2  A    between atoms: C_2  and  N_10
    3  A    between atoms: C_4  and  C_6
    4  A    between atoms: N_9  and  C_18
    5  A    between atoms: N_9  and  C_23
    6  A    between atoms: C_15  and  N_20
    7  A    between atoms: C_17  and  C_18
    8  A    between atoms: N_20  and  C_21
                            x       y       z     vdW  Elec       q    Type
                         _______ _______ _______ _____ _____    ______ ____

>  <TORSDO>
F 8

$$$$
=
 OpenBabel11062416313D

 29 33  0  0  1  0  0  0  0  0999 V2000
  189.2010  178.2600  138.1820 C   0  0  0  0  0  0  0  0  0  0  0  0
  188.9100  179.3530  137.6250 O   0  0  0  0  0  0  0  0  0  0  0  0
  188.6310  177.9140  139.4650 N   0  0  0  0  0  0  0  0  0  0  0  0
  184.7460  179.1490  140.6160 N   0  0  0  0  0  0  0  0  0  0  0  0
  187.3000  178.3510  139.8490 C   0  0  0  0  0  0  0  0  0  0  0  0
  187.0400  178.7770  141.1620 C   0  0  0  0  0  3  0  0  0  0  0  0
  186.2320  178.3300  138.9370 C   0  0  0  0  0  3  0  0  0  0  0  0
  185.7520  179.1770  141.5280 C   0  0  0  0  0  3  0  0  0  0  0  0
  184.9580  178.7360  139.3390 C   0  0  0  0  0  3  0  0  0  0  0  0
  190.7380  177.1730  140.2410 O   0  0  0  0  0  0  0  0  0  0  0  0
  189.3460  176.9640  140.3260 C   0  0  1  0  0  3  0  0  0  0  0  0
  190.0990  177.6930  141.3760 C   0  0  1  0  0  3  0  0  0  0  0  0
  190.3270  176.8110  142.5060 N   0  0  0  0  0  2  0  0  0  0  0  0
  190.0030  177.5750  143.6970 C   0  0  0  0  0  2  0  0  0  0  0  0
  189.1110  176.7740  146.9340 C   0  0  1  0  0  3  0  0  0  0  0  0
  190.1510  177.6090  146.1650 C   0  0  1  0  0  0  0  0  0  0  0  0
  190.3840  177.1140  147.5960 C   0  0  0  0  0  2  0  0  0  0  0  0
  190.1870  176.7070  144.9220 C   0  0  2  0  0  3  0  0  0  0  0  0
  191.4550  177.0490  145.5850 C   0  0  0  0  0  2  0  0  0  0  0  0
  185.8090  178.8160  146.9880 C   0  0  0  0  0  1  0  0  0  0  0  0
  188.0100  177.6620  147.4200 C   0  0  0  0  0  0  0  0  0  0  0  0
  188.0900  178.1900  148.5620 O   0  0  0  0  0  0  0  0  0  0  0  0
  186.8970  177.9470  146.5690 N   0  0  0  0  0  2  0  0  0  0  0  0
  190.1350  177.3200  137.4800 C   0  0  0  0  0  2  0  0  0  0  0  0
  189.0070  173.9510  136.8330 N   0  0  0  0  0  0  0  0  0  0  0  0
  189.4550  176.0810  137.1370 N   0  0  0  0  0  0  0  0  0  0  0  0
  187.9790  174.6470  136.3700 N   0  0  0  0  0  0  0  0  0  0  0  0
  188.2530  175.9530  136.5530 C   0  0  0  0  0  3  0  0  0  0  0  0
  189.9150  174.8300  137.3000 C   0  0  0  0  0  3  0  0  0  0  0  0
  1  3  1  0  0  0  0
  2  1  2  0  0  0  0
  3  5  1  0  0  0  0
  4  8  1  0  0  0  0
  5  6  1  0  0  0  0
  6  8  2  0  0  0  0
  7  9  1  0  0  0  0
  7  5  2  0  0  0  0
  9  4  2  0  0  0  0
 10 11  1  0  0  0  0
 10 12  1  0  0  0  0
 11  3  1  6  0  0  0
 11 12  1  0  0  0  0
 12 13  1  1  0  0  0
 13 14  1  0  0  0  0
 15 21  1  1  0  0  0
 15 17  1  0  0  0  0
 16 19  1  6  0  0  0
 16 15  1  0  0  0  0
 16 17  1  0  0  0  0
 18 14  1  6  0  0  0
 18 19  1  0  0  0  0
 18 16  1  0  0  0  0
 21 22  2  0  0  0  0
 23 20  1  0  0  0  0
 23 21  1  0  0  0  0
 24  1  1  0  0  0  0
 25 29  2  0  0  0  0
 26 29  1  0  0  0  0
 26 24  1  0  0  0  0
 27 28  2  0  0  0  0
 27 25  1  0  0  0  0
 28 26  1  0  0  0  0
M  END
>  <MODEL>
8

>  <REMARK>
 VINA RESULT:      -6.9      1.761      4.420
  Name = 
  8 active torsions:
  status: ('A' for Active; 'I' for Inactive)
    1  A    between atoms: C_2  and  C_5
    2  A    between atoms: C_2  and  N_10
    3  A    between atoms: C_4  and  C_6
    4  A    between atoms: N_9  and  C_18
    5  A    between atoms: N_9  and  C_23
    6  A    between atoms: C_15  and  N_20
    7  A    between atoms: C_17  and  C_18
    8  A    between atoms: N_20  and  C_21
                            x       y       z     vdW  Elec       q    Type
                         _______ _______ _______ _____ _____    ______ ____

>  <TORSDO>
F 8

$$$$
=
 OpenBabel11062416313D

 29 33  0  0  1  0  0  0  0  0999 V2000
  187.5390  177.3390  142.8150 C   0  0  0  0  0  0  0  0  0  0  0  0
  187.4380  176.3070  143.5320 O   0  0  0  0  0  0  0  0  0  0  0  0
  186.4400  178.2720  142.7130 N   0  0  0  0  0  0  0  0  0  0  0  0
  183.7940  178.8920  145.9630 N   0  0  0  0  0  0  0  0  0  0  0  0
  185.5300  178.5010  143.8220 C   0  0  0  0  0  0  0  0  0  0  0  0
  186.0030  178.5080  145.1440 C   0  0  0  0  0  3  0  0  0  0  0  0
  184.1540  178.6870  143.6120 C   0  0  0  0  0  3  0  0  0  0  0  0
  185.1180  178.7090  146.2060 C   0  0  0  0  0  3  0  0  0  0  0  0
  183.2980  178.8850  144.6980 C   0  0  0  0  0  3  0  0  0  0  0  0
  186.5990  178.3790  140.3570 O   0  0  0  0  0  0  0  0  0  0  0  0
  186.3440  179.1290  141.5230 C   0  0  1  0  0  3  0  0  0  0  0  0
  185.2520  178.6530  140.6390 C   0  0  1  0  0  3  0  0  0  0  0  0
  184.7960  179.7500  139.8050 N   0  0  0  0  0  2  0  0  0  0  0  0
  183.4170  179.4580  139.4590 C   0  0  0  0  0  2  0  0  0  0  0  0
  184.3050  176.6700  137.6250 C   0  0  1  0  0  3  0  0  0  0  0  0
  183.2290  177.7710  137.6590 C   0  0  1  0  0  0  0  0  0  0  0  0
  183.0030  176.4180  136.9780 C   0  0  0  0  0  2  0  0  0  0  0  0
  183.2660  177.9780  139.1810 C   0  0  2  0  0  3  0  0  0  0  0  0
  181.9700  177.7260  138.5330 C   0  0  0  0  0  2  0  0  0  0  0  0
  187.3950  178.3290  135.9590 C   0  0  0  0  0  1  0  0  0  0  0  0
  185.3430  177.0110  136.6040 C   0  0  0  0  0  0  0  0  0  0  0  0
  185.2800  176.4990  135.4530 O   0  0  0  0  0  0  0  0  0  0  0  0
  186.3720  177.9520  136.9210 N   0  0  0  0  0  2  0  0  0  0  0  0
  188.8260  177.5870  142.0860 C   0  0  0  0  0  2  0  0  0  0  0  0
  191.7460  176.6870  144.0110 N   0  0  0  0  0  0  0  0  0  0  0  0
  189.9610  177.4570  142.9870 N   0  0  0  0  0  0  0  0  0  0  0  0
  191.3900  177.8100  144.6170 N   0  0  0  0  0  0  0  0  0  0  0  0
  190.2950  178.2820  143.9920 C   0  0  0  0  0  3  0  0  0  0  0  0
  190.8680  176.4670  143.0140 C   0  0  0  0  0  3  0  0  0  0  0  0
  1  2  2  0  0  0  0
  3  1  1  0  0  0  0
  3  5  1  0  0  0  0
  4  8  1  0  0  0  0
  5  6  1  0  0  0  0
  6  8  2  0  0  0  0
  7  5  2  0  0  0  0
  7  9  1  0  0  0  0
  9  4  2  0  0  0  0
 10 12  1  0  0  0  0
 10 11  1  0  0  0  0
 11  3  1  1  0  0  0
 12 13  1  6  0  0  0
 12 11  1  0  0  0  0
 14 13  1  0  0  0  0
 15 21  1  6  0  0  0
 15 16  1  0  0  0  0
 16 17  1  1  0  0  0
 16 19  1  0  0  0  0
 16 18  1  0  0  0  0
 17 15  1  0  0  0  0
 18 14  1  6  0  0  0
 19 18  1  0  0  0  0
 20 23  1  0  0  0  0
 21 23  1  0  0  0  0
 22 21  2  0  0  0  0
 24  1  1  0  0  0  0
 24 26  1  0  0  0  0
 25 27  1  0  0  0  0
 26 29  1  0  0  0  0
 26 28  1  0  0  0  0
 28 27  2  0  0  0  0
 29 25  2  0  0  0  0
M  END
>  <MODEL>
9

>  <REMARK>
 VINA RESULT:      -6.8      2.728      6.856
  Name = 
  8 active torsions:
  status: ('A' for Active; 'I' for Inactive)
    1  A    between atoms: C_2  and  C_5
    2  A    between atoms: C_2  and  N_10
    3  A    between atoms: C_4  and  C_6
    4  A    between atoms: N_9  and  C_18
    5  A    between atoms: N_9  and  C_23
    6  A    between atoms: C_15  and  N_20
    7  A    between atoms: C_17  and  C_18
    8  A    between atoms: N_20  and  C_21
                            x       y       z     vdW  Elec       q    Type
                         _______ _______ _______ _____ _____    ______ ____

>  <TORSDO>
F 8

$$$$
