=
 OpenBabel11062415433D

 27 29  0  0  1  0  0  0  0  0999 V2000
  184.6140  178.6430  142.2260 C   0  0  0  0  0  0  0  0  0  0  0  0
  186.3140  178.7270  145.3810 O   0  0  0  0  0  0  0  0  0  0  0  0
  183.7330  179.0790  144.6830 S   0  0  0  0  0  0  0  0  0  0  0  0
  184.6240  178.4730  140.7250 C   0  0  0  0  0  2  0  0  0  0  0  0
  185.8360  178.7430  143.0660 C   0  0  1  0  0  3  0  0  0  0  0  0
  187.5830  178.2600  141.5110 O   0  0  0  0  0  1  0  0  0  0  0  0
  185.3650  178.3220  144.4390 C   0  0  1  0  0  3  0  0  0  0  0  0
  182.1850  178.6990  142.2800 C   0  0  0  0  0  0  0  0  0  0  0  0
  188.0460  177.8330  143.8300 C   0  0  2  0  0  3  0  0  0  0  0  0
  187.3990  177.8250  145.2550 C   0  0  1  0  0  3  0  0  0  0  0  0
  183.4970  178.8220  142.9230 C   0  0  0  0  0  0  0  0  0  0  0  0
  183.2490  178.2790  140.1250 C   0  0  0  0  0  0  0  0  0  0  0  0
  181.1240  178.8350  142.9440 O   0  0  0  0  0  0  0  0  0  0  0  0
  186.9920  177.8260  142.7000 C   0  0  1  0  0  3  0  0  0  0  0  0
  183.1210  177.9300  138.4140 Cl  0  0  0  0  0  0  0  0  0  0  0  0
  182.1280  178.4030  140.8430 C   0  0  0  0  0  3  0  0  0  0  0  0
  189.0350  176.6750  143.6030 C   0  0  1  0  0  3  0  0  0  0  0  0
  188.4770  175.6580  142.8240 O   0  0  0  0  0  1  0  0  0  0  0  0
  191.5290  176.1920  143.5490 C   0  0  0  0  0  1  0  0  0  0  0  0
  190.4110  177.1090  143.0810 C   0  0  0  0  0  3  0  0  0  0  0  0
  190.7050  178.5290  143.5210 C   0  0  0  0  0  1  0  0  0  0  0  0
  188.4240  178.1000  146.3580 C   0  0  0  0  0  2  0  0  0  0  0  0
  188.6220  176.9090  147.2980 C   0  0  0  0  0  3  0  0  0  0  0  0
  190.0630  176.5000  147.3420 C   0  0  0  0  0  3  0  0  0  0  0  0
  190.9270  177.1770  146.8070 O   0  0  0  0  0  0  0  0  0  0  0  0
  188.0850  177.1740  148.6740 C   0  0  0  0  0  3  0  0  0  0  0  0
  188.0800  178.3020  149.1440 O   0  0  0  0  0  0  0  0  0  0  0  0
  1 11  2  0  0  0  0
  4  1  1  0  0  0  0
  5  1  1  6  0  0  0
  5  7  1  0  0  0  0
  7  3  1  1  0  0  0
  7  2  1  0  0  0  0
  8 11  1  0  0  0  0
  8 13  2  0  0  0  0
  9 17  1  6  0  0  0
  9 10  1  0  0  0  0
 10  2  1  0  0  0  0
 10 22  1  1  0  0  0
 11  3  1  0  0  0  0
 12  4  1  0  0  0  0
 12 16  2  0  0  0  0
 14  6  1  6  0  0  0
 14  5  1  0  0  0  0
 14  9  1  0  0  0  0
 15 12  1  0  0  0  0
 16  8  1  0  0  0  0
 17 18  1  6  0  0  0
 20 21  1  0  0  0  0
 20 19  1  0  0  0  0
 20 17  1  0  0  0  0
 22 23  1  0  0  0  0
 23 24  1  0  0  0  0
 23 26  1  0  0  0  0
 25 24  2  0  0  0  0
 26 27  2  0  0  0  0
M  END
>  <MODEL>
1

>  <REMARK>
 VINA RESULT:      -7.6      0.000      0.000
  Name = 
  6 active torsions:
  status: ('A' for Active; 'I' for Inactive)
    1  A    between atoms: C_3  and  C_22
    2  A    between atoms: C_4  and  C_22
    3  A    between atoms: C_10  and  C_16
    4  A    between atoms: C_10  and  C_18
    5  A    between atoms: C_17  and  C_24
    6  A    between atoms: C_22  and  C_24
                            x       y       z     vdW  Elec       q    Type
                         _______ _______ _______ _____ _____    ______ ____

>  <TORSDO>
F 6

$$$$
=
 OpenBabel11062415433D

 27 29  0  0  1  0  0  0  0  0999 V2000
  186.7370  178.4030  140.3610 C   0  0  0  0  0  0  0  0  0  0  0  0
  186.8130  178.5870  143.9400 O   0  0  0  0  0  0  0  0  0  0  0  0
  184.8410  178.9260  142.1320 S   0  0  0  0  0  0  0  0  0  0  0  0
  187.4260  178.1820  139.0350 C   0  0  0  0  0  2  0  0  0  0  0  0
  187.4430  178.5260  141.6620 C   0  0  1  0  0  3  0  0  0  0  0  0
  189.6970  177.9830  141.0900 O   0  0  0  0  0  1  0  0  0  0  0  0
  186.3900  178.1540  142.6810 C   0  0  1  0  0  3  0  0  0  0  0  0
  184.5510  178.4710  139.2990 C   0  0  0  0  0  0  0  0  0  0  0  0
  189.0440  177.6330  143.3750 C   0  0  2  0  0  3  0  0  0  0  0  0
  187.8190  177.6760  144.3480 C   0  0  1  0  0  3  0  0  0  0  0  0
  185.4280  178.6100  140.4660 C   0  0  0  0  0  0  0  0  0  0  0  0
  186.4720  177.9740  137.8790 C   0  0  0  0  0  0  0  0  0  0  0  0
  183.3070  178.6350  139.4020 O   0  0  0  0  0  0  0  0  0  0  0  0
  188.6210  177.5930  141.8900 C   0  0  1  0  0  3  0  0  0  0  0  0
  187.1310  177.5680  136.3090 Cl  0  0  0  0  0  0  0  0  0  0  0  0
  185.1490  178.1270  138.0030 C   0  0  0  0  0  3  0  0  0  0  0  0
  190.0050  176.4630  143.6570 C   0  0  1  0  0  3  0  0  0  0  0  0
  190.0970  175.5900  142.5700 O   0  0  0  0  0  1  0  0  0  0  0  0
  191.6270  176.4720  145.6130 C   0  0  0  0  0  1  0  0  0  0  0  0
  191.3860  176.8880  144.1710 C   0  0  0  0  0  3  0  0  0  0  0  0
  191.5450  178.3900  144.0470 C   0  0  0  0  0  1  0  0  0  0  0  0
  188.2340  177.9840  145.7890 C   0  0  0  0  0  2  0  0  0  0  0  0
  187.2060  177.5090  146.8190 C   0  0  0  0  0  3  0  0  0  0  0  0
  187.7700  177.5860  148.2060 C   0  0  0  0  0  3  0  0  0  0  0  0
  188.7170  178.3130  148.4630 O   0  0  0  0  0  0  0  0  0  0  0  0
  185.9070  178.2540  146.7140 C   0  0  0  0  0  3  0  0  0  0  0  0
  185.8070  179.4060  147.1080 O   0  0  0  0  0  0  0  0  0  0  0  0
  1 11  2  0  0  0  0
  2 10  1  0  0  0  0
  4  1  1  0  0  0  0
  5  1  1  6  0  0  0
  5 14  1  0  0  0  0
  5  7  1  0  0  0  0
  7  3  1  6  0  0  0
  7  2  1  0  0  0  0
  8 13  2  0  0  0  0
  8 11  1  0  0  0  0
  9 17  1  1  0  0  0
  9 10  1  0  0  0  0
 10 22  1  1  0  0  0
 11  3  1  0  0  0  0
 12 16  2  0  0  0  0
 12  4  1  0  0  0  0
 14  6  1  6  0  0  0
 14  9  1  0  0  0  0
 15 12  1  0  0  0  0
 16  8  1  0  0  0  0
 17 18  1  6  0  0  0
 17 20  1  0  0  0  0
 20 19  1  0  0  0  0
 21 20  1  0  0  0  0
 22 23  1  0  0  0  0
 23 24  1  0  0  0  0
 24 25  2  0  0  0  0
 26 23  1  0  0  0  0
 26 27  2  0  0  0  0
M  END
>  <MODEL>
2

>  <REMARK>
 VINA RESULT:      -7.3      2.125      2.679
  Name = 
  6 active torsions:
  status: ('A' for Active; 'I' for Inactive)
    1  A    between atoms: C_3  and  C_22
    2  A    between atoms: C_4  and  C_22
    3  A    between atoms: C_10  and  C_16
    4  A    between atoms: C_10  and  C_18
    5  A    between atoms: C_17  and  C_24
    6  A    between atoms: C_22  and  C_24
                            x       y       z     vdW  Elec       q    Type
                         _______ _______ _______ _____ _____    ______ ____

>  <TORSDO>
F 6

$$$$
=
 OpenBabel11062415433D

 27 29  0  0  1  0  0  0  0  0999 V2000
  190.6350  177.0680  138.5750 C   0  0  0  0  0  0  0  0  0  0  0  0
  187.6270  178.6550  139.7070 O   0  0  0  0  0  0  0  0  0  0  0  0
  188.5390  178.0000  137.2550 S   0  0  0  0  0  0  0  0  0  0  0  0
  191.9770  176.4330  138.8520 C   0  0  0  0  0  2  0  0  0  0  0  0
  189.8210  177.7830  139.5920 C   0  0  1  0  0  3  0  0  0  0  0  0
  191.0120  177.3510  141.6160 O   0  0  0  0  0  1  0  0  0  0  0  0
  188.4150  177.7120  139.0430 C   0  0  1  0  0  3  0  0  0  0  0  0
  190.7320  176.4320  136.2300 C   0  0  0  0  0  0  0  0  0  0  0  0
  188.6710  177.8500  141.8200 C   0  0  2  0  0  3  0  0  0  0  0  0
  187.3710  178.1160  140.9910 C   0  0  1  0  0  3  0  0  0  0  0  0
  190.1050  177.1310  137.3580 C   0  0  0  0  0  0  0  0  0  0  0  0
  192.5430  175.6660  137.6760 C   0  0  0  0  0  0  0  0  0  0  0  0
  190.2160  176.4630  135.0830 O   0  0  0  0  0  0  0  0  0  0  0  0
  189.7800  177.1740  140.9840 C   0  0  1  0  0  3  0  0  0  0  0  0
  194.0250  174.7620  137.8980 Cl  0  0  0  0  0  0  0  0  0  0  0  0
  191.9740  175.6850  136.4650 C   0  0  0  0  0  3  0  0  0  0  0  0
  188.4230  177.0190  143.0930 C   0  0  1  0  0  3  0  0  0  0  0  0
  189.0150  175.7560  143.0150 O   0  0  0  0  0  1  0  0  0  0  0  0
  189.9800  177.1270  145.0990 C   0  0  0  0  0  1  0  0  0  0  0  0
  188.7780  177.7400  144.4000 C   0  0  0  0  0  3  0  0  0  0  0  0
  187.5880  177.7250  145.3370 C   0  0  0  0  0  1  0  0  0  0  0  0
  186.3820  179.0170  141.7370 C   0  0  0  0  0  2  0  0  0  0  0  0
  184.9560  178.4630  141.7390 C   0  0  0  0  0  3  0  0  0  0  0  0
  184.2830  178.7320  143.0520 C   0  0  0  0  0  3  0  0  0  0  0  0
  184.5690  179.7160  143.7160 O   0  0  0  0  0  0  0  0  0  0  0  0
  184.1410  178.9800  140.5900 C   0  0  0  0  0  3  0  0  0  0  0  0
  184.5900  179.8210  139.8260 O   0  0  0  0  0  0  0  0  0  0  0  0
  1  4  1  0  0  0  0
  2 10  1  0  0  0  0
  3 11  1  0  0  0  0
  5  1  1  6  0  0  0
  5 14  1  0  0  0  0
  7  3  1  6  0  0  0
  7  5  1  0  0  0  0
  7  2  1  0  0  0  0
  8 16  1  0  0  0  0
  8 11  1  0  0  0  0
  9 17  1  1  0  0  0
 10 22  1  1  0  0  0
 10  9  1  0  0  0  0
 11  1  2  0  0  0  0
 12 15  1  0  0  0  0
 12  4  1  0  0  0  0
 13  8  2  0  0  0  0
 14  6  1  1  0  0  0
 14  9  1  0  0  0  0
 16 12  2  0  0  0  0
 17 18  1  6  0  0  0
 17 20  1  0  0  0  0
 20 19  1  0  0  0  0
 20 21  1  0  0  0  0
 22 23  1  0  0  0  0
 23 24  1  0  0  0  0
 24 25  2  0  0  0  0
 26 23  1  0  0  0  0
 27 26  2  0  0  0  0
M  END
>  <MODEL>
3

>  <REMARK>
 VINA RESULT:      -7.3      4.513      7.284
  Name = 
  6 active torsions:
  status: ('A' for Active; 'I' for Inactive)
    1  A    between atoms: C_3  and  C_22
    2  A    between atoms: C_4  and  C_22
    3  A    between atoms: C_10  and  C_16
    4  A    between atoms: C_10  and  C_18
    5  A    between atoms: C_17  and  C_24
    6  A    between atoms: C_22  and  C_24
                            x       y       z     vdW  Elec       q    Type
                         _______ _______ _______ _____ _____    ______ ____

>  <TORSDO>
F 6

$$$$
=
 OpenBabel11062415433D

 27 29  0  0  1  0  0  0  0  0999 V2000
  188.2270  177.8550  142.2400 C   0  0  0  0  0  0  0  0  0  0  0  0
  191.1940  177.0420  140.3990 O   0  0  0  0  0  0  0  0  0  0  0  0
  190.5990  176.9880  143.0290 S   0  0  0  0  0  0  0  0  0  0  0  0
  186.7960  178.3350  142.2920 C   0  0  0  0  0  2  0  0  0  0  0  0
  189.0820  177.9010  141.0250 C   0  0  1  0  0  3  0  0  0  0  0  0
  187.5440  178.5700  139.3250 O   0  0  0  0  0  1  0  0  0  0  0  0
  190.1290  176.8420  141.2810 C   0  0  1  0  0  3  0  0  0  0  0  0
  188.1960  177.2670  144.5980 C   0  0  0  0  0  0  0  0  0  0  0  0
  189.4860  177.3460  138.6110 C   0  0  2  0  0  3  0  0  0  0  0  0
  190.7460  176.5820  139.1370 C   0  0  1  0  0  3  0  0  0  0  0  0
  188.8860  177.4380  143.3150 C   0  0  0  0  0  0  0  0  0  0  0  0
  186.1120  178.0690  143.6150 C   0  0  0  0  0  0  0  0  0  0  0  0
  188.8100  176.8410  145.6110 O   0  0  0  0  0  0  0  0  0  0  0  0
  188.4140  177.5460  139.7070 C   0  0  1  0  0  3  0  0  0  0  0  0
  184.4100  178.4460  143.7710 Cl  0  0  0  0  0  0  0  0  0  0  0  0
  186.7670  177.5930  144.6800 C   0  0  0  0  0  3  0  0  0  0  0  0
  188.8350  176.6800  137.3860 C   0  0  1  0  0  3  0  0  0  0  0  0
  187.6630  175.9980  137.7230 O   0  0  0  0  0  1  0  0  0  0  0  0
  187.1700  177.7300  135.7770 C   0  0  0  0  0  1  0  0  0  0  0  0
  188.6290  177.6180  136.1890 C   0  0  0  0  0  3  0  0  0  0  0  0
  189.4500  177.1380  135.0100 C   0  0  0  0  0  1  0  0  0  0  0  0
  191.9050  176.6210  138.1370 C   0  0  0  0  0  2  0  0  0  0  0  0
  192.4830  175.2350  137.8400 C   0  0  0  0  0  3  0  0  0  0  0  0
  191.5740  174.4640  136.9310 C   0  0  0  0  0  3  0  0  0  0  0  0
  190.7400  173.6920  137.3790 O   0  0  0  0  0  0  0  0  0  0  0  0
  193.8770  175.3040  137.2900 C   0  0  0  0  0  3  0  0  0  0  0  0
  194.3380  176.3540  136.8680 O   0  0  0  0  0  0  0  0  0  0  0  0
  1  4  1  0  0  0  0
  1 11  2  0  0  0  0
  3 11  1  0  0  0  0
  4 12  1  0  0  0  0
  5  7  1  0  0  0  0
  5  1  1  1  0  0  0
  7  2  1  6  0  0  0
  7  3  1  0  0  0  0
  8 16  1  0  0  0  0
  8 13  2  0  0  0  0
  9 17  1  6  0  0  0
  9 10  1  0  0  0  0
  9 14  1  0  0  0  0
 10 22  1  6  0  0  0
 10  2  1  0  0  0  0
 11  8  1  0  0  0  0
 12 15  1  0  0  0  0
 12 16  2  0  0  0  0
 14  6  1  6  0  0  0
 14  5  1  0  0  0  0
 17 18  1  1  0  0  0
 19 20  1  0  0  0  0
 20 17  1  0  0  0  0
 21 20  1  0  0  0  0
 23 22  1  0  0  0  0
 24 25  2  0  0  0  0
 24 23  1  0  0  0  0
 26 23  1  0  0  0  0
 27 26  2  0  0  0  0
M  END
>  <MODEL>
4

>  <REMARK>
 VINA RESULT:      -7.1      4.770      7.564
  Name = 
  6 active torsions:
  status: ('A' for Active; 'I' for Inactive)
    1  A    between atoms: C_3  and  C_22
    2  A    between atoms: C_4  and  C_22
    3  A    between atoms: C_10  and  C_16
    4  A    between atoms: C_10  and  C_18
    5  A    between atoms: C_17  and  C_24
    6  A    between atoms: C_22  and  C_24
                            x       y       z     vdW  Elec       q    Type
                         _______ _______ _______ _____ _____    ______ ____

>  <TORSDO>
F 6

$$$$
=
 OpenBabel11062415433D

 27 29  0  0  1  0  0  0  0  0999 V2000
  187.1350  177.6550  144.6240 C   0  0  0  0  0  0  0  0  0  0  0  0
  185.2530  178.3660  141.6570 O   0  0  0  0  0  0  0  0  0  0  0  0
  184.7160  178.6720  144.2820 S   0  0  0  0  0  0  0  0  0  0  0  0
  188.3810  177.1390  145.3050 C   0  0  0  0  0  2  0  0  0  0  0  0
  186.8540  177.5110  143.1720 C   0  0  1  0  0  3  0  0  0  0  0  0
  188.9020  176.6230  142.3250 O   0  0  0  0  0  1  0  0  0  0  0  0
  185.8720  178.6230  142.8830 C   0  0  1  0  0  3  0  0  0  0  0  0
  186.2360  178.4820  146.7250 C   0  0  0  0  0  0  0  0  0  0  0  0
  187.5180  177.8260  140.7730 C   0  0  2  0  0  3  0  0  0  0  0  0
  186.2110  178.6790  140.6630 C   0  0  1  0  0  3  0  0  0  0  0  0
  186.1240  178.2010  145.2900 C   0  0  0  0  0  0  0  0  0  0  0  0
  188.4780  177.5180  146.7660 C   0  0  0  0  0  0  0  0  0  0  0  0
  185.2930  179.0290  147.3540 O   0  0  0  0  0  0  0  0  0  0  0  0
  188.0280  177.7070  142.2270 C   0  0  1  0  0  3  0  0  0  0  0  0
  189.9350  177.1060  147.6450 Cl  0  0  0  0  0  0  0  0  0  0  0  0
  187.4790  178.1210  147.4200 C   0  0  0  0  0  3  0  0  0  0  0  0
  188.6600  178.3410  139.8790 C   0  0  1  0  0  3  0  0  0  0  0  0
  189.8920  178.3160  140.5390 O   0  0  0  0  0  1  0  0  0  0  0  0
  189.7690  176.5640  138.4400 C   0  0  0  0  0  1  0  0  0  0  0  0
  188.7350  177.6760  138.4990 C   0  0  0  0  0  3  0  0  0  0  0  0
  189.0520  178.7150  137.4410 C   0  0  0  0  0  1  0  0  0  0  0  0
  185.5650  178.5730  139.2780 C   0  0  0  0  0  2  0  0  0  0  0  0
  184.0460  178.3960  139.3420 C   0  0  0  0  0  3  0  0  0  0  0  0
  183.3490  179.7040  139.1150 C   0  0  0  0  0  3  0  0  0  0  0  0
  183.9800  180.7220  138.8790 O   0  0  0  0  0  0  0  0  0  0  0  0
  183.5550  177.3420  138.3930 C   0  0  0  0  0  3  0  0  0  0  0  0
  183.1390  176.2680  138.8040 O   0  0  0  0  0  0  0  0  0  0  0  0
  1 11  2  0  0  0  0
  1  4  1  0  0  0  0
  3 11  1  0  0  0  0
  4 12  1  0  0  0  0
  5  1  1  1  0  0  0
  7  2  1  6  0  0  0
  7  5  1  0  0  0  0
  7  3  1  0  0  0  0
  8 13  2  0  0  0  0
  8 16  1  0  0  0  0
  9 17  1  6  0  0  0
  9 14  1  0  0  0  0
 10 22  1  6  0  0  0
 10  9  1  0  0  0  0
 10  2  1  0  0  0  0
 11  8  1  0  0  0  0
 12 16  2  0  0  0  0
 12 15  1  0  0  0  0
 14  6  1  6  0  0  0
 14  5  1  0  0  0  0
 17 18  1  1  0  0  0
 19 20  1  0  0  0  0
 20 17  1  0  0  0  0
 21 20  1  0  0  0  0
 22 23  1  0  0  0  0
 24 23  1  0  0  0  0
 25 24  2  0  0  0  0
 26 27  2  0  0  0  0
 26 23  1  0  0  0  0
M  END
>  <MODEL>
5

>  <REMARK>
 VINA RESULT:      -6.9      3.438      6.807
  Name = 
  6 active torsions:
  status: ('A' for Active; 'I' for Inactive)
    1  A    between atoms: C_3  and  C_22
    2  A    between atoms: C_4  and  C_22
    3  A    between atoms: C_10  and  C_16
    4  A    between atoms: C_10  and  C_18
    5  A    between atoms: C_17  and  C_24
    6  A    between atoms: C_22  and  C_24
                            x       y       z     vdW  Elec       q    Type
                         _______ _______ _______ _____ _____    ______ ____

>  <TORSDO>
F 6

$$$$
=
 OpenBabel11062415433D

 27 29  0  0  1  0  0  0  0  0999 V2000
  190.1220  177.1240  138.0340 C   0  0  0  0  0  0  0  0  0  0  0  0
  187.8350  178.3470  140.5090 O   0  0  0  0  0  0  0  0  0  0  0  0
  187.5830  177.8520  137.8700 S   0  0  0  0  0  0  0  0  0  0  0  0
  191.4920  176.6320  137.6300 C   0  0  0  0  0  2  0  0  0  0  0  0
  189.8020  177.7230  139.3560 C   0  0  1  0  0  3  0  0  0  0  0  0
  191.8170  177.3760  140.5900 O   0  0  0  0  0  1  0  0  0  0  0  0
  188.3130  177.5110  139.4970 C   0  0  1  0  0  3  0  0  0  0  0  0
  189.1940  176.5580  135.8590 C   0  0  0  0  0  0  0  0  0  0  0  0
  189.7930  177.6110  141.8620 C   0  0  2  0  0  3  0  0  0  0  0  0
  188.2400  177.7540  141.7290 C   0  0  1  0  0  3  0  0  0  0  0  0
  189.0930  177.1570  137.1940 C   0  0  0  0  0  0  0  0  0  0  0  0
  191.5230  175.9590  136.2760 C   0  0  0  0  0  0  0  0  0  0  0  0
  188.2110  176.5580  135.0730 O   0  0  0  0  0  0  0  0  0  0  0  0
  190.4530  177.0800  140.5700 C   0  0  1  0  0  3  0  0  0  0  0  0
  193.0160  175.2180  135.7410 Cl  0  0  0  0  0  0  0  0  0  0  0  0
  190.4660  175.9450  135.4560 C   0  0  0  0  0  3  0  0  0  0  0  0
  190.2250  176.7290  143.0480 C   0  0  1  0  0  3  0  0  0  0  0  0
  190.4010  175.3960  142.6690 O   0  0  0  0  0  1  0  0  0  0  0  0
  191.4840  176.7350  145.2550 C   0  0  0  0  0  1  0  0  0  0  0  0
  191.4280  177.2670  143.8330 C   0  0  0  0  0  3  0  0  0  0  0  0
  191.3900  178.7820  143.8620 C   0  0  0  0  0  1  0  0  0  0  0  0
  187.6260  178.5240  142.9010 C   0  0  0  0  0  2  0  0  0  0  0  0
  186.6070  177.6980  143.6890 C   0  0  0  0  0  3  0  0  0  0  0  0
  186.9220  177.7230  145.1550 C   0  0  0  0  0  3  0  0  0  0  0  0
  187.9900  177.3080  145.5770 O   0  0  0  0  0  0  0  0  0  0  0  0
  185.1950  178.1320  143.4250 C   0  0  0  0  0  3  0  0  0  0  0  0
  184.8610  178.5610  142.3310 O   0  0  0  0  0  0  0  0  0  0  0  0
  2 10  1  0  0  0  0
  4  1  1  0  0  0  0
  5  1  1  6  0  0  0
  5  7  1  0  0  0  0
  5 14  1  0  0  0  0
  7  3  1  6  0  0  0
  7  2  1  0  0  0  0
  8 11  1  0  0  0  0
  9 17  1  1  0  0  0
 10  9  1  0  0  0  0
 10 22  1  1  0  0  0
 11  3  1  0  0  0  0
 11  1  2  0  0  0  0
 12  4  1  0  0  0  0
 13  8  2  0  0  0  0
 14  6  1  1  0  0  0
 14  9  1  0  0  0  0
 15 12  1  0  0  0  0
 16  8  1  0  0  0  0
 16 12  2  0  0  0  0
 17 18  1  6  0  0  0
 17 20  1  0  0  0  0
 20 21  1  0  0  0  0
 20 19  1  0  0  0  0
 22 23  1  0  0  0  0
 23 24  1  0  0  0  0
 24 25  2  0  0  0  0
 26 23  1  0  0  0  0
 27 26  2  0  0  0  0
M  END
>  <MODEL>
6

>  <REMARK>
 VINA RESULT:      -6.9      4.515      6.285
  Name = 
  6 active torsions:
  status: ('A' for Active; 'I' for Inactive)
    1  A    between atoms: C_3  and  C_22
    2  A    between atoms: C_4  and  C_22
    3  A    between atoms: C_10  and  C_16
    4  A    between atoms: C_10  and  C_18
    5  A    between atoms: C_17  and  C_24
    6  A    between atoms: C_22  and  C_24
                            x       y       z     vdW  Elec       q    Type
                         _______ _______ _______ _____ _____    ______ ____

>  <TORSDO>
F 6

$$$$
=
 OpenBabel11062415433D

 27 29  0  0  1  0  0  0  0  0999 V2000
  187.9670  177.3890  144.9450 C   0  0  0  0  0  0  0  0  0  0  0  0
  185.1740  178.5060  142.9950 O   0  0  0  0  0  0  0  0  0  0  0  0
  185.6670  178.4940  145.6460 S   0  0  0  0  0  0  0  0  0  0  0  0
  189.3380  176.7640  145.0500 C   0  0  0  0  0  2  0  0  0  0  0  0
  187.1600  177.4330  143.6980 C   0  0  1  0  0  3  0  0  0  0  0  0
  188.6860  176.6120  142.0550 O   0  0  0  0  0  1  0  0  0  0  0  0
  186.2180  178.5940  143.9190 C   0  0  1  0  0  3  0  0  0  0  0  0
  187.9650  177.9670  147.3060 C   0  0  0  0  0  0  0  0  0  0  0  0
  186.9110  178.0300  141.2730 C   0  0  2  0  0  3  0  0  0  0  0  0
  185.7160  178.9190  141.7530 C   0  0  1  0  0  3  0  0  0  0  0  0
  187.3120  177.8700  145.9960 C   0  0  0  0  0  0  0  0  0  0  0  0
  189.9930  176.9560  146.4000 C   0  0  0  0  0  0  0  0  0  0  0  0
  187.3590  178.4520  148.2970 O   0  0  0  0  0  0  0  0  0  0  0  0
  187.9120  177.7200  142.4080 C   0  0  1  0  0  3  0  0  0  0  0  0
  191.6400  176.4060  146.6200 Cl  0  0  0  0  0  0  0  0  0  0  0  0
  189.3490  177.4950  147.4410 C   0  0  0  0  0  3  0  0  0  0  0  0
  187.6740  178.6280  140.0780 C   0  0  1  0  0  3  0  0  0  0  0  0
  188.9190  179.1370  140.4560 O   0  0  0  0  0  1  0  0  0  0  0  0
  189.0860  177.8680  138.1060 C   0  0  0  0  0  1  0  0  0  0  0  0
  187.7800  177.6960  138.8630 C   0  0  0  0  0  3  0  0  0  0  0  0
  186.6170  177.9410  137.9230 C   0  0  0  0  0  1  0  0  0  0  0  0
  184.5990  179.0010  140.7090 C   0  0  0  0  0  2  0  0  0  0  0  0
  183.4870  177.9760  140.9440 C   0  0  0  0  0  3  0  0  0  0  0  0
  182.2260  178.6520  141.3900 C   0  0  0  0  0  3  0  0  0  0  0  0
  181.9570  178.7670  142.5750 O   0  0  0  0  0  0  0  0  0  0  0  0
  183.2490  177.1080  139.7430 C   0  0  0  0  0  3  0  0  0  0  0  0
  182.6810  176.0310  139.8450 O   0  0  0  0  0  0  0  0  0  0  0  0
  1  4  1  0  0  0  0
  1 11  2  0  0  0  0
  3 11  1  0  0  0  0
  4 12  1  0  0  0  0
  5  7  1  0  0  0  0
  5  1  1  1  0  0  0
  7  2  1  6  0  0  0
  7  3  1  0  0  0  0
  8 16  1  0  0  0  0
  8 13  2  0  0  0  0
  9 17  1  6  0  0  0
  9 10  1  0  0  0  0
  9 14  1  0  0  0  0
 10 22  1  6  0  0  0
 10  2  1  0  0  0  0
 11  8  1  0  0  0  0
 12 15  1  0  0  0  0
 12 16  2  0  0  0  0
 14  6  1  6  0  0  0
 14  5  1  0  0  0  0
 17 18  1  1  0  0  0
 19 20  1  0  0  0  0
 20 17  1  0  0  0  0
 21 20  1  0  0  0  0
 22 23  1  0  0  0  0
 23 24  1  0  0  0  0
 24 25  2  0  0  0  0
 26 27  2  0  0  0  0
 26 23  1  0  0  0  0
M  END
>  <MODEL>
7

>  <REMARK>
 VINA RESULT:      -6.8      3.085      6.877
  Name = 
  6 active torsions:
  status: ('A' for Active; 'I' for Inactive)
    1  A    between atoms: C_3  and  C_22
    2  A    between atoms: C_4  and  C_22
    3  A    between atoms: C_10  and  C_16
    4  A    between atoms: C_10  and  C_18
    5  A    between atoms: C_17  and  C_24
    6  A    between atoms: C_22  and  C_24
                            x       y       z     vdW  Elec       q    Type
                         _______ _______ _______ _____ _____    ______ ____

>  <TORSDO>
F 6

$$$$
=
 OpenBabel11062415433D

 27 29  0  0  1  0  0  0  0  0999 V2000
  187.7190  177.4230  143.4590 C   0  0  0  0  0  0  0  0  0  0  0  0
  187.5120  178.1550  139.9560 O   0  0  0  0  0  0  0  0  0  0  0  0
  185.9440  178.7950  142.0550 S   0  0  0  0  0  0  0  0  0  0  0  0
  188.4120  176.7730  144.6330 C   0  0  0  0  0  2  0  0  0  0  0  0
  188.0840  177.1910  142.0370 C   0  0  1  0  0  3  0  0  0  0  0  0
  190.0830  175.8960  142.2140 O   0  0  0  0  0  1  0  0  0  0  0  0
  187.5640  178.4190  141.3270 C   0  0  1  0  0  3  0  0  0  0  0  0
  186.1640  178.5850  144.9220 C   0  0  0  0  0  0  0  0  0  0  0  0
  189.7840  177.1610  140.1920 C   0  0  2  0  0  3  0  0  0  0  0  0
  188.8510  178.2070  139.4970 C   0  0  1  0  0  3  0  0  0  0  0  0
  186.6440  178.1920  143.5930 C   0  0  0  0  0  0  0  0  0  0  0  0
  187.9260  177.2680  145.9780 C   0  0  0  0  0  0  0  0  0  0  0  0
  185.1650  179.3400  145.0530 O   0  0  0  0  0  0  0  0  0  0  0  0
  189.5680  177.0970  141.7210 C   0  0  1  0  0  3  0  0  0  0  0  0
  188.7370  176.7030  147.4230 Cl  0  0  0  0  0  0  0  0  0  0  0  0
  186.8780  178.0890  146.1060 C   0  0  0  0  0  3  0  0  0  0  0  0
  191.2790  177.3910  139.9050 C   0  0  1  0  0  3  0  0  0  0  0  0
  191.9770  177.7820  141.0500 O   0  0  0  0  0  1  0  0  0  0  0  0
  193.1730  176.6800  138.3660 C   0  0  0  0  0  1  0  0  0  0  0  0
  191.9710  176.2290  139.1800 C   0  0  0  0  0  3  0  0  0  0  0  0
  190.9830  175.5260  138.2710 C   0  0  0  0  0  1  0  0  0  0  0  0
  188.8740  178.0800  137.9710 C   0  0  0  0  0  2  0  0  0  0  0  0
  187.5430  177.5920  137.3940 C   0  0  0  0  0  3  0  0  0  0  0  0
  186.9530  178.6220  136.4780 C   0  0  0  0  0  3  0  0  0  0  0  0
  187.2290  179.8050  136.5980 O   0  0  0  0  0  0  0  0  0  0  0  0
  187.6710  176.2610  136.7120 C   0  0  0  0  0  3  0  0  0  0  0  0
  187.5110  175.2190  137.3290 O   0  0  0  0  0  0  0  0  0  0  0  0
  1 11  2  0  0  0  0
  1  4  1  0  0  0  0
  3 11  1  0  0  0  0
  4 12  1  0  0  0  0
  5  1  1  1  0  0  0
  7  2  1  6  0  0  0
  7  5  1  0  0  0  0
  7  3  1  0  0  0  0
  8 13  2  0  0  0  0
  8 16  1  0  0  0  0
  9 17  1  1  0  0  0
  9 14  1  0  0  0  0
 10 22  1  6  0  0  0
 10  2  1  0  0  0  0
 10  9  1  0  0  0  0
 11  8  1  0  0  0  0
 12 16  2  0  0  0  0
 12 15  1  0  0  0  0
 14  5  1  0  0  0  0
 14  6  1  6  0  0  0
 17 18  1  1  0  0  0
 19 20  1  0  0  0  0
 20 17  1  0  0  0  0
 21 20  1  0  0  0  0
 23 22  1  0  0  0  0
 24 25  2  0  0  0  0
 24 23  1  0  0  0  0
 26 27  2  0  0  0  0
 26 23  1  0  0  0  0
M  END
>  <MODEL>
8

>  <REMARK>
 VINA RESULT:      -6.7      3.978      6.952
  Name = 
  6 active torsions:
  status: ('A' for Active; 'I' for Inactive)
    1  A    between atoms: C_3  and  C_22
    2  A    between atoms: C_4  and  C_22
    3  A    between atoms: C_10  and  C_16
    4  A    between atoms: C_10  and  C_18
    5  A    between atoms: C_17  and  C_24
    6  A    between atoms: C_22  and  C_24
                            x       y       z     vdW  Elec       q    Type
                         _______ _______ _______ _____ _____    ______ ____

>  <TORSDO>
F 6

$$$$
=
 OpenBabel11062415433D

 27 29  0  0  1  0  0  0  0  0999 V2000
  187.0150  177.7410  145.1370 C   0  0  0  0  0  0  0  0  0  0  0  0
  183.5450  178.2620  144.4020 O   0  0  0  0  0  0  0  0  0  0  0  0
  184.9470  178.2590  146.7060 S   0  0  0  0  0  0  0  0  0  0  0  0
  188.4280  177.4450  144.6940 C   0  0  0  0  0  2  0  0  0  0  0  0
  185.8230  177.6480  144.2540 C   0  0  1  0  0  3  0  0  0  0  0  0
  186.7920  177.2670  142.1050 O   0  0  0  0  0  1  0  0  0  0  0  0
  184.8100  178.5510  144.9190 C   0  0  1  0  0  3  0  0  0  0  0  0
  187.7430  178.2090  147.4090 C   0  0  0  0  0  0  0  0  0  0  0  0
  184.6070  178.2680  142.1480 C   0  0  2  0  0  3  0  0  0  0  0  0
  183.5110  178.8390  143.1080 C   0  0  1  0  0  3  0  0  0  0  0  0
  186.6980  178.0170  146.3980 C   0  0  0  0  0  0  0  0  0  0  0  0
  189.4710  177.7290  145.7530 C   0  0  0  0  0  0  0  0  0  0  0  0
  187.4480  178.5020  148.5970 O   0  0  0  0  0  0  0  0  0  0  0  0
  185.9900  178.1520  142.8290 C   0  0  1  0  0  3  0  0  0  0  0  0
  191.1620  177.5640  145.3320 Cl  0  0  0  0  0  0  0  0  0  0  0  0
  189.1480  178.0630  147.0080 C   0  0  0  0  0  3  0  0  0  0  0  0
  184.7550  179.0730  140.8440 C   0  0  1  0  0  3  0  0  0  0  0  0
  185.9820  179.7380  140.7770 O   0  0  0  0  0  1  0  0  0  0  0  0
  185.4320  178.5960  138.4410 C   0  0  0  0  0  1  0  0  0  0  0  0
  184.4660  178.2710  139.5690 C   0  0  0  0  0  3  0  0  0  0  0  0
  183.0460  178.5310  139.1060 C   0  0  0  0  0  1  0  0  0  0  0  0
  182.1030  178.7030  142.5250 C   0  0  0  0  0  2  0  0  0  0  0  0
  181.0430  179.4420  143.3460 C   0  0  0  0  0  3  0  0  0  0  0  0
  180.0480  180.1140  142.4480 C   0  0  0  0  0  3  0  0  0  0  0  0
  180.3870  180.5900  141.3760 O   0  0  0  0  0  0  0  0  0  0  0  0
  180.3660  178.5460  144.3410 C   0  0  0  0  0  3  0  0  0  0  0  0
  179.6800  177.6030  143.9770 O   0  0  0  0  0  0  0  0  0  0  0  0
  1 11  2  0  0  0  0
  4  1  1  0  0  0  0
  4 12  1  0  0  0  0
  5  7  1  0  0  0  0
  5  1  1  1  0  0  0
  7  2  1  6  0  0  0
  7  3  1  0  0  0  0
  8 13  2  0  0  0  0
  9 17  1  6  0  0  0
  9 14  1  0  0  0  0
  9 10  1  0  0  0  0
 10 22  1  6  0  0  0
 10  2  1  0  0  0  0
 11  3  1  0  0  0  0
 11  8  1  0  0  0  0
 12 16  2  0  0  0  0
 14  6  1  6  0  0  0
 14  5  1  0  0  0  0
 15 12  1  0  0  0  0
 16  8  1  0  0  0  0
 17 18  1  6  0  0  0
 19 20  1  0  0  0  0
 20 17  1  0  0  0  0
 21 20  1  0  0  0  0
 22 23  1  0  0  0  0
 23 26  1  0  0  0  0
 24 23  1  0  0  0  0
 25 24  2  0  0  0  0
 27 26  2  0  0  0  0
M  END
>  <MODEL>
9

>  <REMARK>
 VINA RESULT:      -6.6      2.738      7.158
  Name = 
  6 active torsions:
  status: ('A' for Active; 'I' for Inactive)
    1  A    between atoms: C_3  and  C_22
    2  A    between atoms: C_4  and  C_22
    3  A    between atoms: C_10  and  C_16
    4  A    between atoms: C_10  and  C_18
    5  A    between atoms: C_17  and  C_24
    6  A    between atoms: C_22  and  C_24
                            x       y       z     vdW  Elec       q    Type
                         _______ _______ _______ _____ _____    ______ ____

>  <TORSDO>
F 6

$$$$
