=
 OpenBabel11062412073D

 48 52  0  0  1  0  0  0  0  0999 V2000
  186.4550  178.8870  140.3170 C   0  0  1  0  0  3  0  0  0  0  0  0
  185.1330  178.7050  139.5900 C   0  0  0  0  0  2  0  0  0  0  0  0
  184.7890  178.3430  142.0650 C   0  0  1  0  0  3  0  0  0  0  0  0
  182.6190  178.5500  140.5240 C   0  0  2  0  0  3  0  0  0  0  0  0
  184.1370  178.4520  140.6930 C   0  0  1  0  0  0  0  0  0  0  0  0
  186.2830  178.4400  141.7670 C   0  0  0  0  0  2  0  0  0  0  0  0
  183.3220  177.2110  140.3860 C   0  0  0  0  0  2  0  0  0  0  0  0
  189.9010  177.4160  139.7630 O   0  0  0  0  0  0  0  0  0  0  0  0
  188.7150  177.6930  140.5110 C   0  0  0  0  0  2  0  0  0  0  0  0
  186.4700  178.2490  137.4080 C   0  0  0  0  0  1  0  0  0  0  0  0
  189.8650  176.9570  138.4410 C   0  0  0  0  0  0  0  0  0  0  0  0
  188.7220  177.0970  137.7300 C   0  0  0  0  0  0  0  0  0  0  0  0
  187.5990  178.1820  139.6300 C   0  0  0  0  0  0  0  0  0  0  0  0
  187.5990  177.8620  138.3150 C   0  0  0  0  0  0  0  0  0  0  0  0
  192.3200  176.5620  138.5020 C   0  0  0  0  0  1  0  0  0  0  0  0
  191.0350  176.4050  137.9060 O   0  0  0  0  0  0  0  0  0  0  0  0
  188.5590  176.5380  136.4530 O   0  0  0  0  0  0  0  0  0  0  0  0
  188.1480  175.1910  136.2640 C   0  0  0  0  0  2  0  0  0  0  0  0
  187.1380  175.0510  134.7540 S   0  0  0  0  0  1  0  0  0  0  0  0
  183.2240  179.1450  145.2650 C   0  0  0  0  0  2  0  0  0  0  0  0
  184.3690  179.4790  143.0210 C   0  0  2  0  0  3  0  0  0  0  0  0
  185.4190  179.8960  143.8900 O   0  0  0  0  0  0  0  0  0  0  0  0
  183.0460  179.1920  143.7560 C   0  0  0  0  0  2  0  0  0  0  0  0
  184.4530  178.3260  145.5830 C   0  0  1  0  0  3  0  0  0  0  0  0
  185.6950  178.9560  144.9310 C   0  0  1  0  0  3  0  0  0  0  0  0
  184.6270  178.2640  146.9660 O   0  0  0  0  0  1  0  0  0  0  0  0
  186.7470  177.9080  144.5340 C   0  0  2  0  0  3  0  0  0  0  0  0
  186.2210  176.6140  144.6700 O   0  0  0  0  0  1  0  0  0  0  0  0
  187.9330  177.9390  146.6030 O   0  0  0  0  0  1  0  0  0  0  0  0
  189.2360  178.2170  144.7420 O   0  0  0  0  0  0  0  0  0  0  0  0
  188.0020  178.0110  145.3480 C   0  0  0  0  0  0  0  0  0  0  0  0
  182.2110  179.0850  139.1510 C   0  0  2  0  0  3  0  0  0  0  0  0
  181.3920  180.2770  139.3160 N   0  0  0  0  0  2  0  0  0  0  0  0
  181.9650  181.3230  138.4750 C   0  0  0  0  0  2  0  0  0  0  0  0
  179.9400  181.6700  137.0940 C   0  0  0  0  0  2  0  0  0  0  0  0
  181.4700  183.4310  137.2990 C   0  0  0  0  0  0  0  0  0  0  0  0
  180.8970  182.3230  138.0830 C   0  0  2  0  0  3  0  0  0  0  0  0
  182.2950  184.2220  137.7390 O   0  0  0  0  0  0  0  0  0  0  0  0
  180.3520  181.5540  134.7820 C   0  0  0  0  0  1  0  0  0  0  0  0
  180.9060  183.5180  135.9400 C   0  0  0  0  0  2  0  0  0  0  0  0
  179.9150  182.4460  135.8390 N   0  0  0  0  0  0  0  0  0  0  0  0
  181.4360  178.0380  138.3450 C   0  0  2  0  0  3  0  0  0  0  0  0
  181.4960  178.2960  136.9710 O   0  0  0  0  0  0  0  0  0  0  0  0
  182.7100  177.7450  136.5520 C   0  0  0  0  0  1  0  0  0  0  0  0
  179.1240  178.6640  138.3010 O   0  0  0  0  0  0  0  0  0  0  0  0
  180.0170  177.9280  138.8060 C   0  0  0  0  0  0  0  0  0  0  0  0
  179.6820  176.9540  139.8510 C   0  0  0  0  0  3  0  0  0  0  0  0
  179.1640  177.3190  141.0190 C   0  0  0  0  0  2  0  0  0  0  0  0
  1 13  1  6  0  0  0
  1  6  1  0  0  0  0
  2  1  1  0  0  0  0
  3  6  1  6  0  0  0
  3 21  1  0  0  0  0
  4 32  1  6  0  0  0
  4  5  1  0  0  0  0
  5  2  1  6  0  0  0
  5  3  1  0  0  0  0
  7  4  1  0  0  0  0
  7  5  1  0  0  0  0
  8  9  1  0  0  0  0
 10 14  1  0  0  0  0
 11  8  1  0  0  0  0
 12 14  1  0  0  0  0
 12 11  2  0  0  0  0
 13  9  1  0  0  0  0
 14 13  2  0  0  0  0
 16 11  1  0  0  0  0
 16 15  1  0  0  0  0
 17 12  1  0  0  0  0
 18 17  1  0  0  0  0
 19 18  1  0  0  0  0
 20 24  1  0  0  0  0
 21 23  1  1  0  0  0
 21 22  1  0  0  0  0
 22 25  1  0  0  0  0
 23 20  1  0  0  0  0
 24 26  1  1  0  0  0
 25 27  1  6  0  0  0
 25 24  1  0  0  0  0
 27 28  1  1  0  0  0
 27 31  1  0  0  0  0
 30 31  2  0  0  0  0
 31 29  1  0  0  0  0
 32 33  1  1  0  0  0
 34 33  1  0  0  0  0
 35 37  1  0  0  0  0
 36 38  2  0  0  0  0
 36 37  1  0  0  0  0
 37 34  1  6  0  0  0
 39 41  1  0  0  0  0
 40 36  1  0  0  0  0
 41 40  1  0  0  0  0
 41 35  1  0  0  0  0
 42 43  1  6  0  0  0
 42 46  1  0  0  0  0
 42 32  1  0  0  0  0
 44 43  1  0  0  0  0
 45 46  2  0  0  0  0
 46 47  1  0  0  0  0
 47 48  2  0  0  0  0
M  END
>  <MODEL>
1

>  <REMARK>
 VINA RESULT:      -6.4      0.000      0.000
  Name = 
  15 active torsions:
  status: ('A' for Active; 'I' for Inactive)
    1  A    between atoms: O_1  and  C_45
    2  A    between atoms: O_4  and  C_10
    3  A    between atoms: O_4  and  C_40
    4  A    between atoms: C_6  and  C_42
    5  A    between atoms: C_12  and  C_14
    6  A    between atoms: C_18  and  C_41
    7  A    between atoms: N_19  and  C_41
    8  A    between atoms: N_19  and  C_48
    9  A    between atoms: C_21  and  C_36
   10  A    between atoms: C_23  and  C_48
   11  A    between atoms: O_28  and  C_39
   12  A    between atoms: C_36  and  C_45
   13  A    between atoms: C_37  and  C_38
   14  A    between atoms: C_37  and  C_46
   15  A    between atoms: C_41  and  C_45
                            x       y       z     vdW  Elec       q    Type
                         _______ _______ _______ _____ _____    ______ ____

>  <TORSDO>
F 15

$$$$
=
 OpenBabel11062412073D

 48 52  0  0  1  0  0  0  0  0999 V2000
  186.2720  178.8820  140.3460 C   0  0  1  0  0  3  0  0  0  0  0  0
  184.9200  178.6000  139.7130 C   0  0  0  0  0  2  0  0  0  0  0  0
  184.7620  178.2840  142.2130 C   0  0  1  0  0  3  0  0  0  0  0  0
  182.4880  178.3160  140.8160 C   0  0  2  0  0  3  0  0  0  0  0  0
  184.0160  178.3160  140.8850 C   0  0  1  0  0  0  0  0  0  0  0  0
  186.2240  178.4650  141.8140 C   0  0  0  0  0  2  0  0  0  0  0  0
  183.2630  177.0190  140.6630 C   0  0  0  0  0  2  0  0  0  0  0  0
  189.7510  177.5730  139.6150 O   0  0  0  0  0  0  0  0  0  0  0  0
  188.5930  177.7950  140.4230 C   0  0  0  0  0  2  0  0  0  0  0  0
  186.1690  178.2430  137.4390 C   0  0  0  0  0  1  0  0  0  0  0  0
  189.6680  177.1120  138.2950 C   0  0  0  0  0  0  0  0  0  0  0  0
  188.4860  177.1970  137.6440 C   0  0  0  0  0  0  0  0  0  0  0  0
  187.4110  178.2310  139.6010 C   0  0  0  0  0  0  0  0  0  0  0  0
  187.3600  177.9100  138.2870 C   0  0  0  0  0  0  0  0  0  0  0  0
  192.0810  176.5130  138.3840 C   0  0  0  0  0  1  0  0  0  0  0  0
  190.8350  176.6150  137.7010 O   0  0  0  0  0  0  0  0  0  0  0  0
  188.2840  176.6300  136.3760 O   0  0  0  0  0  0  0  0  0  0  0  0
  188.2450  175.2240  136.1750 C   0  0  0  0  0  2  0  0  0  0  0  0
  186.5990  174.5760  136.6090 S   0  0  0  0  0  1  0  0  0  0  0  0
  183.2450  179.0750  145.4390 C   0  0  0  0  0  2  0  0  0  0  0  0
  184.3340  179.4180  143.1690 C   0  0  2  0  0  3  0  0  0  0  0  0
  185.3920  179.8680  144.0120 O   0  0  0  0  0  0  0  0  0  0  0  0
  183.0340  179.1050  143.9340 C   0  0  0  0  0  2  0  0  0  0  0  0
  184.5010  178.2890  145.7380 C   0  0  1  0  0  3  0  0  0  0  0  0
  185.7120  178.9440  145.0550 C   0  0  1  0  0  3  0  0  0  0  0  0
  184.7050  178.2430  147.1170 O   0  0  0  0  0  1  0  0  0  0  0  0
  186.7810  177.9190  144.6430 C   0  0  2  0  0  3  0  0  0  0  0  0
  186.2770  176.6140  144.7620 O   0  0  0  0  0  1  0  0  0  0  0  0
  189.1380  178.2080  144.8780 O   0  0  0  0  0  0  0  0  0  0  0  0
  188.0030  177.9130  146.8430 O   0  0  0  0  0  1  0  0  0  0  0  0
  188.0340  178.0320  145.4590 C   0  0  0  0  0  0  0  0  0  0  0  0
  181.9580  178.7860  139.4620 C   0  0  2  0  0  3  0  0  0  0  0  0
  181.3170  180.0840  139.6140 N   0  0  0  0  0  2  0  0  0  0  0  0
  180.5100  180.3180  138.4200 C   0  0  0  0  0  2  0  0  0  0  0  0
  181.0880  182.6540  137.8420 C   0  0  0  0  0  2  0  0  0  0  0  0
  180.6500  181.1470  136.1050 C   0  0  0  0  0  0  0  0  0  0  0  0
  181.2640  181.1940  137.4420 C   0  0  2  0  0  3  0  0  0  0  0  0
  180.5880  180.1350  135.4180 O   0  0  0  0  0  0  0  0  0  0  0  0
  179.2310  183.9510  137.2140 C   0  0  0  0  0  1  0  0  0  0  0  0
  180.1590  182.4630  135.6560 C   0  0  0  0  0  2  0  0  0  0  0  0
  180.4830  183.4070  136.7260 N   0  0  0  0  0  0  0  0  0  0  0  0
  180.9600  177.7880  138.8680 C   0  0  2  0  0  3  0  0  0  0  0  0
  180.3530  177.0110  139.8610 O   0  0  0  0  0  0  0  0  0  0  0  0
  178.9830  177.2340  139.7090 C   0  0  0  0  0  1  0  0  0  0  0  0
  181.3900  175.6760  137.8200 O   0  0  0  0  0  0  0  0  0  0  0  0
  181.5990  176.9220  137.8290 C   0  0  0  0  0  0  0  0  0  0  0  0
  182.4700  177.5410  136.8240 C   0  0  0  0  0  3  0  0  0  0  0  0
  183.1840  176.8200  135.9650 C   0  0  0  0  0  2  0  0  0  0  0  0
  1 13  1  6  0  0  0
  1  6  1  0  0  0  0
  2  1  1  0  0  0  0
  3  6  1  6  0  0  0
  3 21  1  0  0  0  0
  4 32  1  6  0  0  0
  4  5  1  0  0  0  0
  5  2  1  6  0  0  0
  5  3  1  0  0  0  0
  7  4  1  0  0  0  0
  7  5  1  0  0  0  0
  8  9  1  0  0  0  0
 10 14  1  0  0  0  0
 11  8  1  0  0  0  0
 12 14  1  0  0  0  0
 12 11  2  0  0  0  0
 13  9  1  0  0  0  0
 14 13  2  0  0  0  0
 16 11  1  0  0  0  0
 16 15  1  0  0  0  0
 17 12  1  0  0  0  0
 18 17  1  0  0  0  0
 18 19  1  0  0  0  0
 20 24  1  0  0  0  0
 21 23  1  1  0  0  0
 21 22  1  0  0  0  0
 22 25  1  0  0  0  0
 23 20  1  0  0  0  0
 24 26  1  1  0  0  0
 25 27  1  6  0  0  0
 25 24  1  0  0  0  0
 27 28  1  1  0  0  0
 27 31  1  0  0  0  0
 29 31  2  0  0  0  0
 31 30  1  0  0  0  0
 32 33  1  1  0  0  0
 34 33  1  0  0  0  0
 36 37  1  0  0  0  0
 37 35  1  0  0  0  0
 37 34  1  1  0  0  0
 38 36  2  0  0  0  0
 40 36  1  0  0  0  0
 40 41  1  0  0  0  0
 41 39  1  0  0  0  0
 41 35  1  0  0  0  0
 42 46  1  6  0  0  0
 42 32  1  0  0  0  0
 42 43  1  0  0  0  0
 44 43  1  0  0  0  0
 45 46  2  0  0  0  0
 47 46  1  0  0  0  0
 48 47  2  0  0  0  0
M  END
>  <MODEL>
2

>  <REMARK>
 VINA RESULT:      -6.3      1.101      1.974
  Name = 
  15 active torsions:
  status: ('A' for Active; 'I' for Inactive)
    1  A    between atoms: O_1  and  C_45
    2  A    between atoms: O_4  and  C_10
    3  A    between atoms: O_4  and  C_40
    4  A    between atoms: C_6  and  C_42
    5  A    between atoms: C_12  and  C_14
    6  A    between atoms: C_18  and  C_41
    7  A    between atoms: N_19  and  C_41
    8  A    between atoms: N_19  and  C_48
    9  A    between atoms: C_21  and  C_36
   10  A    between atoms: C_23  and  C_48
   11  A    between atoms: O_28  and  C_39
   12  A    between atoms: C_36  and  C_45
   13  A    between atoms: C_37  and  C_38
   14  A    between atoms: C_37  and  C_46
   15  A    between atoms: C_41  and  C_45
                            x       y       z     vdW  Elec       q    Type
                         _______ _______ _______ _____ _____    ______ ____

>  <TORSDO>
F 15

$$$$
=
 OpenBabel11062412073D

 48 52  0  0  1  0  0  0  0  0999 V2000
  185.5390  179.2280  141.2110 C   0  0  1  0  0  3  0  0  0  0  0  0
  186.1230  178.8980  142.5750 C   0  0  0  0  0  2  0  0  0  0  0  0
  187.4730  177.7450  140.7800 C   0  0  1  0  0  3  0  0  0  0  0  0
  188.4610  177.7670  143.2600 C   0  0  2  0  0  3  0  0  0  0  0  0
  187.3360  178.0600  142.2640 C   0  0  1  0  0  0  0  0  0  0  0  0
  186.2140  178.3460  140.1630 C   0  0  0  0  0  2  0  0  0  0  0  0
  187.3160  176.7850  143.0830 C   0  0  0  0  0  2  0  0  0  0  0  0
  182.0210  178.3310  142.2920 O   0  0  0  0  0  0  0  0  0  0  0  0
  183.3520  178.8130  142.4840 C   0  0  0  0  0  2  0  0  0  0  0  0
  183.9120  179.7730  138.7770 C   0  0  0  0  0  1  0  0  0  0  0  0
  181.2220  178.7390  141.2170 C   0  0  0  0  0  0  0  0  0  0  0  0
  181.8100  179.3280  140.1510 C   0  0  0  0  0  0  0  0  0  0  0  0
  184.0350  179.1110  141.1780 C   0  0  0  0  0  0  0  0  0  0  0  0
  183.2870  179.3870  140.0840 C   0  0  0  0  0  0  0  0  0  0  0  0
  179.0430  178.8210  142.4140 C   0  0  0  0  0  1  0  0  0  0  0  0
  179.8480  178.4820  141.2880 O   0  0  0  0  0  0  0  0  0  0  0  0
  181.0680  179.8930  139.1020 O   0  0  0  0  0  0  0  0  0  0  0  0
  180.4360  181.1600  139.2180 C   0  0  0  0  0  2  0  0  0  0  0  0
  180.9520  182.2450  137.8490 S   0  0  0  0  0  1  0  0  0  0  0  0
  190.6760  177.0870  139.1550 C   0  0  0  0  0  2  0  0  0  0  0  0
  188.7270  178.3820  140.1440 C   0  0  2  0  0  3  0  0  0  0  0  0
  188.5520  178.7030  138.7660 O   0  0  0  0  0  0  0  0  0  0  0  0
  190.0170  177.5910  140.4280 C   0  0  0  0  0  2  0  0  0  0  0  0
  189.6130  176.4920  138.2610 C   0  0  1  0  0  3  0  0  0  0  0  0
  188.5550  177.5540  137.9150 C   0  0  1  0  0  3  0  0  0  0  0  0
  190.2010  176.0150  137.0900 O   0  0  0  0  0  1  0  0  0  0  0  0
  187.1560  176.9480  137.7170 C   0  0  2  0  0  3  0  0  0  0  0  0
  187.2430  175.5530  137.5880 O   0  0  0  0  0  1  0  0  0  0  0  0
  185.1960  177.4220  136.4430 O   0  0  0  0  0  1  0  0  0  0  0  0
  187.1600  178.0810  135.4700 O   0  0  0  0  0  0  0  0  0  0  0  0
  186.4500  177.5040  136.5170 C   0  0  0  0  0  0  0  0  0  0  0  0
  188.3060  178.5400  144.5690 C   0  0  2  0  0  3  0  0  0  0  0  0
  189.5940  178.6200  145.2430 N   0  0  0  0  0  2  0  0  0  0  0  0
  190.5930  178.9720  144.2400 C   0  0  0  0  0  2  0  0  0  0  0  0
  191.8140  177.0880  143.1970 C   0  0  0  0  0  2  0  0  0  0  0  0
  191.6810  177.1790  145.5330 C   0  0  0  0  0  0  0  0  0  0  0  0
  191.8020  178.0670  144.3650 C   0  0  2  0  0  3  0  0  0  0  0  0
  191.6430  177.5770  146.6910 O   0  0  0  0  0  0  0  0  0  0  0  0
  190.5990  175.0760  143.1850 C   0  0  0  0  0  1  0  0  0  0  0  0
  191.6620  175.7520  145.1650 C   0  0  0  0  0  2  0  0  0  0  0  0
  191.7970  175.7040  143.7080 N   0  0  0  0  0  0  0  0  0  0  0  0
  187.2820  177.8800  145.4970 C   0  0  2  0  0  3  0  0  0  0  0  0
  186.2070  178.7330  145.7700 O   0  0  0  0  0  0  0  0  0  0  0  0
  185.0930  177.8950  145.8580 C   0  0  0  0  0  1  0  0  0  0  0  0
  188.5640  176.3170  146.7820 O   0  0  0  0  0  0  0  0  0  0  0  0
  187.9160  177.4000  146.7650 C   0  0  0  0  0  0  0  0  0  0  0  0
  187.7700  178.2050  147.9830 C   0  0  0  0  0  3  0  0  0  0  0  0
  188.7240  178.2710  148.9060 C   0  0  0  0  0  2  0  0  0  0  0  0
  1 13  1  1  0  0  0
  1  2  1  0  0  0  0
  3  6  1  6  0  0  0
  3  5  1  0  0  0  0
  4 32  1  1  0  0  0
  5  2  1  1  0  0  0
  5  7  1  0  0  0  0
  5  4  1  0  0  0  0
  6  1  1  0  0  0  0
  7  4  1  0  0  0  0
  8  9  1  0  0  0  0
 10 14  1  0  0  0  0
 11 16  1  0  0  0  0
 11  8  1  0  0  0  0
 12 11  2  0  0  0  0
 13  9  1  0  0  0  0
 14 12  1  0  0  0  0
 14 13  2  0  0  0  0
 16 15  1  0  0  0  0
 17 18  1  0  0  0  0
 17 12  1  0  0  0  0
 19 18  1  0  0  0  0
 20 23  1  0  0  0  0
 21 23  1  6  0  0  0
 21  3  1  0  0  0  0
 22 21  1  0  0  0  0
 24 26  1  6  0  0  0
 24 20  1  0  0  0  0
 25 27  1  1  0  0  0
 25 24  1  0  0  0  0
 25 22  1  0  0  0  0
 27 28  1  6  0  0  0
 29 31  1  0  0  0  0
 30 31  2  0  0  0  0
 31 27  1  0  0  0  0
 32 33  1  1  0  0  0
 32 42  1  0  0  0  0
 34 33  1  0  0  0  0
 35 41  1  0  0  0  0
 35 37  1  0  0  0  0
 36 38  2  0  0  0  0
 37 34  1  6  0  0  0
 37 36  1  0  0  0  0
 39 41  1  0  0  0  0
 40 36  1  0  0  0  0
 41 40  1  0  0  0  0
 42 43  1  1  0  0  0
 42 46  1  0  0  0  0
 43 44  1  0  0  0  0
 46 45  2  0  0  0  0
 46 47  1  0  0  0  0
 47 48  2  0  0  0  0
M  END
>  <MODEL>
3

>  <REMARK>
 VINA RESULT:      -6.2      3.552      9.755
  Name = 
  15 active torsions:
  status: ('A' for Active; 'I' for Inactive)
    1  A    between atoms: O_1  and  C_45
    2  A    between atoms: O_4  and  C_10
    3  A    between atoms: O_4  and  C_40
    4  A    between atoms: C_6  and  C_42
    5  A    between atoms: C_12  and  C_14
    6  A    between atoms: C_18  and  C_41
    7  A    between atoms: N_19  and  C_41
    8  A    between atoms: N_19  and  C_48
    9  A    between atoms: C_21  and  C_36
   10  A    between atoms: C_23  and  C_48
   11  A    between atoms: O_28  and  C_39
   12  A    between atoms: C_36  and  C_45
   13  A    between atoms: C_37  and  C_38
   14  A    between atoms: C_37  and  C_46
   15  A    between atoms: C_41  and  C_45
                            x       y       z     vdW  Elec       q    Type
                         _______ _______ _______ _____ _____    ______ ____

>  <TORSDO>
F 15

$$$$
=
 OpenBabel11062412073D

 48 52  0  0  1  0  0  0  0  0999 V2000
  186.1310  178.9200  140.1760 C   0  0  1  0  0  3  0  0  0  0  0  0
  184.7500  178.7480  139.5650 C   0  0  0  0  0  2  0  0  0  0  0  0
  184.6300  178.3170  142.0500 C   0  0  1  0  0  3  0  0  0  0  0  0
  182.3310  178.5500  140.7140 C   0  0  2  0  0  3  0  0  0  0  0  0
  183.8580  178.4580  140.7440 C   0  0  1  0  0  0  0  0  0  0  0  0
  186.0900  178.4330  141.6230 C   0  0  0  0  0  2  0  0  0  0  0  0
  183.0250  177.2200  140.4770 C   0  0  0  0  0  2  0  0  0  0  0  0
  187.7610  176.7780  137.5110 O   0  0  0  0  0  0  0  0  0  0  0  0
  186.8220  177.7320  138.0120 C   0  0  0  0  0  2  0  0  0  0  0  0
  188.9700  178.7640  141.0620 C   0  0  0  0  0  1  0  0  0  0  0  0
  189.1250  176.8330  137.8200 C   0  0  0  0  0  0  0  0  0  0  0  0
  189.5290  177.5810  138.8720 C   0  0  0  0  0  0  0  0  0  0  0  0
  187.2130  178.2420  139.3720 C   0  0  0  0  0  0  0  0  0  0  0  0
  188.5100  178.1930  139.7540 C   0  0  0  0  0  0  0  0  0  0  0  0
  190.1710  174.6690  137.1810 C   0  0  0  0  0  1  0  0  0  0  0  0
  190.0060  176.0760  137.0380 O   0  0  0  0  0  0  0  0  0  0  0  0
  190.8850  177.8030  139.1600 O   0  0  0  0  0  0  0  0  0  0  0  0
  191.7080  176.8020  139.7420 C   0  0  0  0  0  2  0  0  0  0  0  0
  193.1860  176.5300  138.7130 S   0  0  0  0  0  1  0  0  0  0  0  0
  183.3840  179.0200  145.4090 C   0  0  0  0  0  2  0  0  0  0  0  0
  184.2900  179.4240  143.0700 C   0  0  2  0  0  3  0  0  0  0  0  0
  185.4170  179.8400  143.8380 O   0  0  0  0  0  0  0  0  0  0  0  0
  183.0540  179.0970  143.9280 C   0  0  0  0  0  2  0  0  0  0  0  0
  184.6520  178.2160  145.5830 C   0  0  1  0  0  3  0  0  0  0  0  0
  185.8110  178.8830  144.8240 C   0  0  1  0  0  3  0  0  0  0  0  0
  184.9660  178.1270  146.9390 O   0  0  0  0  0  1  0  0  0  0  0  0
  186.8340  177.8630  144.2970 C   0  0  2  0  0  3  0  0  0  0  0  0
  186.3200  176.5600  144.3990 O   0  0  0  0  0  1  0  0  0  0  0  0
  189.2180  177.8320  144.3790 O   0  0  0  0  0  0  0  0  0  0  0  0
  188.1880  178.0590  146.4100 O   0  0  0  0  0  1  0  0  0  0  0  0
  188.1420  177.9270  145.0270 C   0  0  0  0  0  0  0  0  0  0  0  0
  181.8000  179.1170  139.3980 C   0  0  2  0  0  3  0  0  0  0  0  0
  181.3820  180.4980  139.5960 N   0  0  0  0  0  2  0  0  0  0  0  0
  181.8030  181.2570  138.4230 C   0  0  0  0  0  2  0  0  0  0  0  0
  179.7290  181.7170  137.1520 C   0  0  0  0  0  2  0  0  0  0  0  0
  181.3640  183.3890  137.2700 C   0  0  0  0  0  0  0  0  0  0  0  0
  180.7740  182.3160  138.0870 C   0  0  2  0  0  3  0  0  0  0  0  0
  182.2550  184.1330  137.6610 O   0  0  0  0  0  0  0  0  0  0  0  0
  180.0070  181.5780  134.8220 C   0  0  0  0  0  1  0  0  0  0  0  0
  180.7330  183.5080  135.9430 C   0  0  0  0  0  2  0  0  0  0  0  0
  179.6790  182.4930  135.8990 N   0  0  0  0  0  0  0  0  0  0  0  0
  180.6220  178.2980  138.8630 C   0  0  2  0  0  3  0  0  0  0  0  0
  180.3170  177.2220  139.7040 O   0  0  0  0  0  0  0  0  0  0  0  0
  178.9310  177.2760  139.8730 C   0  0  0  0  0  1  0  0  0  0  0  0
  180.2470  178.3510  136.4970 O   0  0  0  0  0  0  0  0  0  0  0  0
  180.8670  177.8270  137.4640 C   0  0  0  0  0  0  0  0  0  0  0  0
  181.8370  176.7500  137.2350 C   0  0  0  0  0  3  0  0  0  0  0  0
  182.7990  176.8460  136.3240 C   0  0  0  0  0  2  0  0  0  0  0  0
  1 13  1  6  0  0  0
  1  6  1  0  0  0  0
  2  1  1  0  0  0  0
  3  6  1  6  0  0  0
  3 21  1  0  0  0  0
  4 32  1  6  0  0  0
  4  5  1  0  0  0  0
  5  2  1  6  0  0  0
  5  3  1  0  0  0  0
  7  4  1  0  0  0  0
  7  5  1  0  0  0  0
  8 11  1  0  0  0  0
  8  9  1  0  0  0  0
  9 13  1  0  0  0  0
 11 12  2  0  0  0  0
 12 17  1  0  0  0  0
 12 14  1  0  0  0  0
 13 14  2  0  0  0  0
 14 10  1  0  0  0  0
 16 15  1  0  0  0  0
 16 11  1  0  0  0  0
 17 18  1  0  0  0  0
 19 18  1  0  0  0  0
 20 24  1  0  0  0  0
 21 22  1  0  0  0  0
 21 23  1  1  0  0  0
 22 25  1  0  0  0  0
 23 20  1  0  0  0  0
 24 26  1  1  0  0  0
 25 27  1  6  0  0  0
 25 24  1  0  0  0  0
 27 28  1  1  0  0  0
 27 31  1  0  0  0  0
 29 31  2  0  0  0  0
 31 30  1  0  0  0  0
 32 33  1  1  0  0  0
 34 33  1  0  0  0  0
 35 37  1  0  0  0  0
 36 38  2  0  0  0  0
 36 37  1  0  0  0  0
 37 34  1  6  0  0  0
 39 41  1  0  0  0  0
 40 36  1  0  0  0  0
 41 40  1  0  0  0  0
 41 35  1  0  0  0  0
 42 46  1  6  0  0  0
 42 32  1  0  0  0  0
 42 43  1  0  0  0  0
 43 44  1  0  0  0  0
 45 46  2  0  0  0  0
 47 46  1  0  0  0  0
 48 47  2  0  0  0  0
M  END
>  <MODEL>
4

>  <REMARK>
 VINA RESULT:      -6.0      1.339      2.315
  Name = 
  15 active torsions:
  status: ('A' for Active; 'I' for Inactive)
    1  A    between atoms: O_1  and  C_45
    2  A    between atoms: O_4  and  C_10
    3  A    between atoms: O_4  and  C_40
    4  A    between atoms: C_6  and  C_42
    5  A    between atoms: C_12  and  C_14
    6  A    between atoms: C_18  and  C_41
    7  A    between atoms: N_19  and  C_41
    8  A    between atoms: N_19  and  C_48
    9  A    between atoms: C_21  and  C_36
   10  A    between atoms: C_23  and  C_48
   11  A    between atoms: O_28  and  C_39
   12  A    between atoms: C_36  and  C_45
   13  A    between atoms: C_37  and  C_38
   14  A    between atoms: C_37  and  C_46
   15  A    between atoms: C_41  and  C_45
                            x       y       z     vdW  Elec       q    Type
                         _______ _______ _______ _____ _____    ______ ____

>  <TORSDO>
F 15

$$$$
=
 OpenBabel11062412073D

 48 52  0  0  1  0  0  0  0  0999 V2000
  187.0920  178.6780  141.4010 C   0  0  1  0  0  3  0  0  0  0  0  0
  187.6690  177.9200  142.5860 C   0  0  0  0  0  2  0  0  0  0  0  0
  188.8740  177.2310  140.4770 C   0  0  1  0  0  3  0  0  0  0  0  0
  189.9060  176.4520  142.8120 C   0  0  2  0  0  3  0  0  0  0  0  0
  188.7950  177.1120  141.9940 C   0  0  1  0  0  0  0  0  0  0  0  0
  187.6640  178.0870  140.1150 C   0  0  0  0  0  2  0  0  0  0  0  0
  188.6740  175.6600  142.4120 C   0  0  0  0  0  2  0  0  0  0  0  0
  183.5380  178.4780  142.6970 O   0  0  0  0  0  0  0  0  0  0  0  0
  184.9120  178.8690  142.7380 C   0  0  0  0  0  2  0  0  0  0  0  0
  185.4560  178.6260  138.9140 C   0  0  0  0  0  1  0  0  0  0  0  0
  182.7510  178.6220  141.5480 C   0  0  0  0  0  0  0  0  0  0  0  0
  183.3600  178.8100  140.3550 C   0  0  0  0  0  0  0  0  0  0  0  0
  185.5830  178.6990  141.4030 C   0  0  0  0  0  0  0  0  0  0  0  0
  184.8330  178.7060  140.2750 C   0  0  0  0  0  0  0  0  0  0  0  0
  180.5520  179.5830  142.2050 C   0  0  0  0  0  1  0  0  0  0  0  0
  181.3610  178.5290  141.6900 O   0  0  0  0  0  0  0  0  0  0  0  0
  182.6440  179.1040  139.1840 O   0  0  0  0  0  0  0  0  0  0  0  0
  182.2340  180.4250  138.8600 C   0  0  0  0  0  2  0  0  0  0  0  0
  180.5230  180.4140  138.2370 S   0  0  0  0  0  1  0  0  0  0  0  0
  192.2210  176.7120  139.1100 C   0  0  0  0  0  2  0  0  0  0  0  0
  190.1690  177.9210  139.9960 C   0  0  2  0  0  3  0  0  0  0  0  0
  190.1120  178.3250  138.6300 O   0  0  0  0  0  0  0  0  0  0  0  0
  191.4420  177.1290  140.3470 C   0  0  0  0  0  2  0  0  0  0  0  0
  191.2510  176.1620  138.0890 C   0  0  1  0  0  3  0  0  0  0  0  0
  190.2110  177.2310  137.7150 C   0  0  1  0  0  3  0  0  0  0  0  0
  191.9490  175.7650  136.9490 O   0  0  0  0  0  1  0  0  0  0  0  0
  188.8460  176.6220  137.3560 C   0  0  2  0  0  3  0  0  0  0  0  0
  188.9250  175.2210  137.3420 O   0  0  0  0  0  1  0  0  0  0  0  0
  189.1350  177.2060  135.0600 O   0  0  0  0  0  0  0  0  0  0  0  0
  187.0000  177.4370  135.8510 O   0  0  0  0  0  1  0  0  0  0  0  0
  188.3350  177.0930  136.0260 C   0  0  0  0  0  0  0  0  0  0  0  0
  189.8470  176.8220  144.2940 C   0  0  2  0  0  3  0  0  0  0  0  0
  188.9840  177.9810  144.4730 N   0  0  0  0  0  2  0  0  0  0  0  0
  188.9570  178.2930  145.8980 C   0  0  0  0  0  2  0  0  0  0  0  0
  186.5880  177.5900  145.7620 C   0  0  0  0  0  2  0  0  0  0  0  0
  187.4750  178.1330  147.8600 C   0  0  0  0  0  0  0  0  0  0  0  0
  187.8650  177.5020  146.5880 C   0  0  2  0  0  3  0  0  0  0  0  0
  188.2270  178.2600  148.8170 O   0  0  0  0  0  0  0  0  0  0  0  0
  185.0690  179.3780  145.9170 C   0  0  0  0  0  1  0  0  0  0  0  0
  186.0620  178.5540  147.8770 C   0  0  0  0  0  2  0  0  0  0  0  0
  185.5030  178.1640  146.5810 N   0  0  0  0  0  0  0  0  0  0  0  0
  191.2380  177.1280  144.8560 C   0  0  2  0  0  3  0  0  0  0  0  0
  192.0600  177.7330  143.8990 O   0  0  0  0  0  0  0  0  0  0  0  0
  192.0470  179.0930  144.2180 C   0  0  0  0  0  1  0  0  0  0  0  0
  192.3190  175.0000  144.6510 O   0  0  0  0  0  0  0  0  0  0  0  0
  191.8870  175.9040  145.4200 C   0  0  0  0  0  0  0  0  0  0  0  0
  192.0110  175.7700  146.8760 C   0  0  0  0  0  3  0  0  0  0  0  0
  191.6810  176.7530  147.7070 C   0  0  0  0  0  2  0  0  0  0  0  0
  1 13  1  6  0  0  0
  1  2  1  0  0  0  0
  3  6  1  1  0  0  0
  3  5  1  0  0  0  0
  4 32  1  1  0  0  0
  5  7  1  6  0  0  0
  5  2  1  0  0  0  0
  5  4  1  0  0  0  0
  6  1  1  0  0  0  0
  7  4  1  0  0  0  0
  8  9  1  0  0  0  0
 10 14  1  0  0  0  0
 11 16  1  0  0  0  0
 11  8  1  0  0  0  0
 12 11  2  0  0  0  0
 13  9  1  0  0  0  0
 14 12  1  0  0  0  0
 14 13  2  0  0  0  0
 16 15  1  0  0  0  0
 17 12  1  0  0  0  0
 18 17  1  0  0  0  0
 19 18  1  0  0  0  0
 20 23  1  0  0  0  0
 21 23  1  6  0  0  0
 21  3  1  0  0  0  0
 22 21  1  0  0  0  0
 24 26  1  6  0  0  0
 24 20  1  0  0  0  0
 25 27  1  1  0  0  0
 25 24  1  0  0  0  0
 25 22  1  0  0  0  0
 27 28  1  6  0  0  0
 29 31  2  0  0  0  0
 30 31  1  0  0  0  0
 31 27  1  0  0  0  0
 32 33  1  6  0  0  0
 32 42  1  0  0  0  0
 33 34  1  0  0  0  0
 35 41  1  0  0  0  0
 35 37  1  0  0  0  0
 36 40  1  0  0  0  0
 36 38  2  0  0  0  0
 37 34  1  6  0  0  0
 37 36  1  0  0  0  0
 39 41  1  0  0  0  0
 41 40  1  0  0  0  0
 42 43  1  6  0  0  0
 42 46  1  0  0  0  0
 43 44  1  0  0  0  0
 45 46  2  0  0  0  0
 46 47  1  0  0  0  0
 47 48  2  0  0  0  0
M  END
>  <MODEL>
5

>  <REMARK>
 VINA RESULT:      -5.9      3.509      9.829
  Name = 
  15 active torsions:
  status: ('A' for Active; 'I' for Inactive)
    1  A    between atoms: O_1  and  C_45
    2  A    between atoms: O_4  and  C_10
    3  A    between atoms: O_4  and  C_40
    4  A    between atoms: C_6  and  C_42
    5  A    between atoms: C_12  and  C_14
    6  A    between atoms: C_18  and  C_41
    7  A    between atoms: N_19  and  C_41
    8  A    between atoms: N_19  and  C_48
    9  A    between atoms: C_21  and  C_36
   10  A    between atoms: C_23  and  C_48
   11  A    between atoms: O_28  and  C_39
   12  A    between atoms: C_36  and  C_45
   13  A    between atoms: C_37  and  C_38
   14  A    between atoms: C_37  and  C_46
   15  A    between atoms: C_41  and  C_45
                            x       y       z     vdW  Elec       q    Type
                         _______ _______ _______ _____ _____    ______ ____

>  <TORSDO>
F 15

$$$$
=
 OpenBabel11062412073D

 48 52  0  0  1  0  0  0  0  0999 V2000
  184.7600  177.7870  141.2100 C   0  0  1  0  0  3  0  0  0  0  0  0
  183.5310  178.4660  140.6280 C   0  0  0  0  0  2  0  0  0  0  0  0
  185.4130  178.5490  138.9470 C   0  0  1  0  0  3  0  0  0  0  0  0
  182.9710  179.2380  138.1180 C   0  0  2  0  0  3  0  0  0  0  0  0
  183.9460  178.8450  139.2300 C   0  0  1  0  0  0  0  0  0  0  0  0
  185.9470  178.0480  140.2860 C   0  0  0  0  0  2  0  0  0  0  0  0
  183.6340  180.3060  138.9700 C   0  0  0  0  0  2  0  0  0  0  0  0
  184.4240  179.6350  144.4990 O   0  0  0  0  0  0  0  0  0  0  0  0
  183.9400  178.9460  143.3440 C   0  0  0  0  0  2  0  0  0  0  0  0
  187.2310  177.0200  142.6850 C   0  0  0  0  0  1  0  0  0  0  0  0
  185.4900  179.1540  145.2680 C   0  0  0  0  0  0  0  0  0  0  0  0
  186.3070  178.2140  144.7400 C   0  0  0  0  0  0  0  0  0  0  0  0
  185.0370  178.2040  142.6330 C   0  0  0  0  0  0  0  0  0  0  0  0
  186.1440  177.8340  143.3200 C   0  0  0  0  0  0  0  0  0  0  0  0
  185.9450  178.9190  147.7020 C   0  0  0  0  0  1  0  0  0  0  0  0
  185.6780  179.7030  146.5420 O   0  0  0  0  0  0  0  0  0  0  0  0
  187.3080  177.5800  145.4930 O   0  0  0  0  0  0  0  0  0  0  0  0
  188.6640  178.0020  145.4560 C   0  0  0  0  0  2  0  0  0  0  0  0
  189.5820  177.2820  146.8540 S   0  0  0  0  0  1  0  0  0  0  0  0
  186.8130  177.8200  135.6550 C   0  0  0  0  0  2  0  0  0  0  0  0
  185.6090  177.4670  137.8640 C   0  0  2  0  0  3  0  0  0  0  0  0
  186.7590  176.6550  138.0870 O   0  0  0  0  0  0  0  0  0  0  0  0
  185.5230  178.0240  136.4310 C   0  0  0  0  0  2  0  0  0  0  0  0
  187.9770  178.2010  136.5400 C   0  0  1  0  0  3  0  0  0  0  0  0
  187.9880  177.3310  137.8070 C   0  0  1  0  0  3  0  0  0  0  0  0
  189.1710  178.0290  135.8400 O   0  0  0  0  0  1  0  0  0  0  0  0
  188.5570  178.0750  139.0270 C   0  0  2  0  0  3  0  0  0  0  0  0
  189.0500  179.3320  138.6440 O   0  0  0  0  0  1  0  0  0  0  0  0
  190.1170  177.7370  140.8000 O   0  0  0  0  0  1  0  0  0  0  0  0
  190.1820  176.1570  139.1470 O   0  0  0  0  0  0  0  0  0  0  0  0
  189.6510  177.3110  139.7110 C   0  0  0  0  0  0  0  0  0  0  0  0
  181.5080  179.0600  138.5240 C   0  0  2  0  0  3  0  0  0  0  0  0
  181.0720  177.7100  138.1960 N   0  0  0  0  0  2  0  0  0  0  0  0
  180.6470  177.0720  139.4370 C   0  0  0  0  0  2  0  0  0  0  0  0
  182.4990  175.5550  138.8060 C   0  0  0  0  0  2  0  0  0  0  0  0
  180.3000  174.7650  138.6440 C   0  0  0  0  0  0  0  0  0  0  0  0
  181.1360  175.6390  139.4840 C   0  0  2  0  0  3  0  0  0  0  0  0
  179.1140  174.5490  138.8550 O   0  0  0  0  0  0  0  0  0  0  0  0
  182.7740  175.3280  136.4830 C   0  0  0  0  0  1  0  0  0  0  0  0
  181.0580  174.1350  137.5470 C   0  0  0  0  0  2  0  0  0  0  0  0
  182.4400  174.5940  137.6880 N   0  0  0  0  0  0  0  0  0  0  0  0
  180.6000  180.0760  137.8260 C   0  0  2  0  0  3  0  0  0  0  0  0
  180.9890  180.2900  136.4990 O   0  0  0  0  0  0  0  0  0  0  0  0
  179.8720  179.9440  135.7340 C   0  0  0  0  0  1  0  0  0  0  0  0
  180.1760  181.3830  139.7890 O   0  0  0  0  0  0  0  0  0  0  0  0
  180.5360  181.3670  138.5780 C   0  0  0  0  0  0  0  0  0  0  0  0
  180.8960  182.6110  137.8890 C   0  0  0  0  0  3  0  0  0  0  0  0
  180.0430  183.6240  137.7650 C   0  0  0  0  0  2  0  0  0  0  0  0
  1 13  1  1  0  0  0
  2  1  1  0  0  0  0
  3  5  1  0  0  0  0
  3  6  1  1  0  0  0
  4 32  1  1  0  0  0
  4  7  1  0  0  0  0
  4  5  1  0  0  0  0
  5  7  1  1  0  0  0
  5  2  1  0  0  0  0
  6  1  1  0  0  0  0
  8 11  1  0  0  0  0
  9  8  1  0  0  0  0
 10 14  1  0  0  0  0
 11 16  1  0  0  0  0
 12 11  2  0  0  0  0
 12 17  1  0  0  0  0
 13 14  2  0  0  0  0
 13  9  1  0  0  0  0
 14 12  1  0  0  0  0
 16 15  1  0  0  0  0
 18 17  1  0  0  0  0
 18 19  1  0  0  0  0
 20 23  1  0  0  0  0
 20 24  1  0  0  0  0
 21 23  1  6  0  0  0
 21 22  1  0  0  0  0
 21  3  1  0  0  0  0
 24 26  1  6  0  0  0
 24 25  1  0  0  0  0
 25 22  1  0  0  0  0
 25 27  1  1  0  0  0
 27 28  1  6  0  0  0
 27 31  1  0  0  0  0
 30 31  2  0  0  0  0
 31 29  1  0  0  0  0
 32 33  1  6  0  0  0
 33 34  1  0  0  0  0
 35 37  1  0  0  0  0
 36 38  2  0  0  0  0
 36 37  1  0  0  0  0
 37 34  1  6  0  0  0
 39 41  1  0  0  0  0
 40 41  1  0  0  0  0
 40 36  1  0  0  0  0
 41 35  1  0  0  0  0
 42 43  1  6  0  0  0
 42 32  1  0  0  0  0
 42 46  1  0  0  0  0
 44 43  1  0  0  0  0
 46 45  2  0  0  0  0
 47 46  1  0  0  0  0
 48 47  2  0  0  0  0
M  END
>  <MODEL>
6

>  <REMARK>
 VINA RESULT:      -5.9      2.686      6.921
  Name = 
  15 active torsions:
  status: ('A' for Active; 'I' for Inactive)
    1  A    between atoms: O_1  and  C_45
    2  A    between atoms: O_4  and  C_10
    3  A    between atoms: O_4  and  C_40
    4  A    between atoms: C_6  and  C_42
    5  A    between atoms: C_12  and  C_14
    6  A    between atoms: C_18  and  C_41
    7  A    between atoms: N_19  and  C_41
    8  A    between atoms: N_19  and  C_48
    9  A    between atoms: C_21  and  C_36
   10  A    between atoms: C_23  and  C_48
   11  A    between atoms: O_28  and  C_39
   12  A    between atoms: C_36  and  C_45
   13  A    between atoms: C_37  and  C_38
   14  A    between atoms: C_37  and  C_46
   15  A    between atoms: C_41  and  C_45
                            x       y       z     vdW  Elec       q    Type
                         _______ _______ _______ _____ _____    ______ ____

>  <TORSDO>
F 15

$$$$
=
 OpenBabel11062412073D

 48 52  0  0  1  0  0  0  0  0999 V2000
  184.0510  177.8360  141.3620 C   0  0  1  0  0  3  0  0  0  0  0  0
  182.8950  178.6820  140.8530 C   0  0  0  0  0  2  0  0  0  0  0  0
  184.5760  178.3470  138.9980 C   0  0  1  0  0  3  0  0  0  0  0  0
  182.2070  179.3970  138.3570 C   0  0  2  0  0  3  0  0  0  0  0  0
  183.2160  178.9060  139.3970 C   0  0  1  0  0  0  0  0  0  0  0  0
  185.1590  177.8370  140.3130 C   0  0  0  0  0  2  0  0  0  0  0  0
  183.1230  180.3810  139.0620 C   0  0  0  0  0  2  0  0  0  0  0  0
  184.0240  179.3880  144.8180 O   0  0  0  0  0  0  0  0  0  0  0  0
  183.4920  178.6140  143.7410 C   0  0  0  0  0  2  0  0  0  0  0  0
  186.9270  177.8500  142.1310 C   0  0  0  0  0  1  0  0  0  0  0  0
  185.3450  179.2480  145.2610 C   0  0  0  0  0  0  0  0  0  0  0  0
  186.2430  178.6310  144.4610 C   0  0  0  0  0  0  0  0  0  0  0  0
  184.5430  178.2790  142.7180 C   0  0  0  0  0  0  0  0  0  0  0  0
  185.8460  178.2590  143.0850 C   0  0  0  0  0  0  0  0  0  0  0  0
  186.0250  179.0000  147.6410 C   0  0  0  0  0  1  0  0  0  0  0  0
  185.6780  179.7910  146.5080 O   0  0  0  0  0  0  0  0  0  0  0  0
  187.5450  178.3250  144.8880 O   0  0  0  0  0  0  0  0  0  0  0  0
  187.8480  177.1270  145.5900 C   0  0  0  0  0  2  0  0  0  0  0  0
  189.5570  177.1850  146.2180 S   0  0  0  0  0  1  0  0  0  0  0  0
  184.6980  177.4350  135.4650 C   0  0  0  0  0  2  0  0  0  0  0  0
  184.4740  177.1880  137.9840 C   0  0  2  0  0  3  0  0  0  0  0  0
  185.7110  176.5080  137.7860 O   0  0  0  0  0  0  0  0  0  0  0  0
  183.7840  177.5960  136.6680 C   0  0  0  0  0  2  0  0  0  0  0  0
  186.0560  178.0020  135.8070 C   0  0  1  0  0  3  0  0  0  0  0  0
  186.6510  177.2620  137.0160 C   0  0  1  0  0  3  0  0  0  0  0  0
  186.9070  177.8720  134.7100 O   0  0  0  0  0  1  0  0  0  0  0  0
  187.5470  178.1670  137.8780 C   0  0  2  0  0  3  0  0  0  0  0  0
  187.7910  179.3820  137.2180 O   0  0  0  0  0  1  0  0  0  0  0  0
  189.8020  177.5650  137.3840 O   0  0  0  0  0  0  0  0  0  0  0  0
  189.0430  176.8620  139.4250 O   0  0  0  0  0  1  0  0  0  0  0  0
  188.8590  177.5260  138.2180 C   0  0  0  0  0  0  0  0  0  0  0  0
  180.7860  179.4950  138.9130 C   0  0  2  0  0  3  0  0  0  0  0  0
  179.9050  178.6180  138.1570 N   0  0  0  0  0  2  0  0  0  0  0  0
  179.2900  177.6920  139.1030 C   0  0  0  0  0  2  0  0  0  0  0  0
  180.7280  175.8790  138.2240 C   0  0  0  0  0  2  0  0  0  0  0  0
  179.6090  175.5360  140.2520 C   0  0  0  0  0  0  0  0  0  0  0  0
  180.2720  176.6030  139.4840 C   0  0  2  0  0  3  0  0  0  0  0  0
  179.0990  175.7030  141.3530 O   0  0  0  0  0  0  0  0  0  0  0  0
  179.5200  174.1210  137.2350 C   0  0  0  0  0  1  0  0  0  0  0  0
  179.6660  174.2270  139.5740 C   0  0  0  0  0  2  0  0  0  0  0  0
  180.4120  174.4420  138.3330 N   0  0  0  0  0  0  0  0  0  0  0  0
  180.2540  180.9300  138.8540 C   0  0  2  0  0  3  0  0  0  0  0  0
  179.1430  181.1040  139.6860 O   0  0  0  0  0  0  0  0  0  0  0  0
  179.6200  180.8770  140.9790 C   0  0  0  0  0  1  0  0  0  0  0  0
  178.9310  180.8700  136.8570 O   0  0  0  0  0  0  0  0  0  0  0  0
  179.9400  181.3440  137.4500 C   0  0  0  0  0  0  0  0  0  0  0  0
  180.8210  182.3040  136.7770 C   0  0  0  0  0  3  0  0  0  0  0  0
  180.3790  183.4730  136.3250 C   0  0  0  0  0  2  0  0  0  0  0  0
  1 13  1  1  0  0  0
  2  1  1  0  0  0  0
  3  5  1  0  0  0  0
  3  6  1  1  0  0  0
  4 32  1  1  0  0  0
  4  7  1  0  0  0  0
  4  5  1  0  0  0  0
  5  7  1  1  0  0  0
  5  2  1  0  0  0  0
  6  1  1  0  0  0  0
  8 11  1  0  0  0  0
  9  8  1  0  0  0  0
 10 14  1  0  0  0  0
 11 16  1  0  0  0  0
 12 17  1  0  0  0  0
 12 11  2  0  0  0  0
 13 14  2  0  0  0  0
 13  9  1  0  0  0  0
 14 12  1  0  0  0  0
 16 15  1  0  0  0  0
 17 18  1  0  0  0  0
 18 19  1  0  0  0  0
 20 24  1  0  0  0  0
 20 23  1  0  0  0  0
 21 23  1  6  0  0  0
 21  3  1  0  0  0  0
 22 21  1  0  0  0  0
 24 26  1  6  0  0  0
 24 25  1  0  0  0  0
 25 22  1  0  0  0  0
 25 27  1  1  0  0  0
 27 28  1  6  0  0  0
 27 31  1  0  0  0  0
 29 31  2  0  0  0  0
 31 30  1  0  0  0  0
 32 33  1  6  0  0  0
 33 34  1  0  0  0  0
 35 41  1  0  0  0  0
 35 37  1  0  0  0  0
 36 38  2  0  0  0  0
 37 34  1  6  0  0  0
 37 36  1  0  0  0  0
 39 41  1  0  0  0  0
 40 36  1  0  0  0  0
 41 40  1  0  0  0  0
 42 46  1  6  0  0  0
 42 32  1  0  0  0  0
 42 43  1  0  0  0  0
 43 44  1  0  0  0  0
 45 46  2  0  0  0  0
 47 46  1  0  0  0  0
 48 47  2  0  0  0  0
M  END
>  <MODEL>
7

>  <REMARK>
 VINA RESULT:      -5.6      2.678      7.108
  Name = 
  15 active torsions:
  status: ('A' for Active; 'I' for Inactive)
    1  A    between atoms: O_1  and  C_45
    2  A    between atoms: O_4  and  C_10
    3  A    between atoms: O_4  and  C_40
    4  A    between atoms: C_6  and  C_42
    5  A    between atoms: C_12  and  C_14
    6  A    between atoms: C_18  and  C_41
    7  A    between atoms: N_19  and  C_41
    8  A    between atoms: N_19  and  C_48
    9  A    between atoms: C_21  and  C_36
   10  A    between atoms: C_23  and  C_48
   11  A    between atoms: O_28  and  C_39
   12  A    between atoms: C_36  and  C_45
   13  A    between atoms: C_37  and  C_38
   14  A    between atoms: C_37  and  C_46
   15  A    between atoms: C_41  and  C_45
                            x       y       z     vdW  Elec       q    Type
                         _______ _______ _______ _____ _____    ______ ____

>  <TORSDO>
F 15

$$$$
=
 OpenBabel11062412073D

 48 52  0  0  1  0  0  0  0  0999 V2000
  185.7300  178.6560  139.2270 C   0  0  1  0  0  3  0  0  0  0  0  0
  184.3210  178.2230  138.8550 C   0  0  0  0  0  2  0  0  0  0  0  0
  184.6060  178.1010  141.3610 C   0  0  1  0  0  3  0  0  0  0  0  0
  182.1380  177.8490  140.3740 C   0  0  2  0  0  3  0  0  0  0  0  0
  183.6510  177.9680  140.1810 C   0  0  1  0  0  0  0  0  0  0  0  0
  185.9600  178.3570  140.7060 C   0  0  0  0  0  2  0  0  0  0  0  0
  182.9880  176.6060  140.1790 C   0  0  0  0  0  2  0  0  0  0  0  0
  187.2690  176.7540  136.3350 O   0  0  0  0  0  0  0  0  0  0  0  0
  186.3660  177.6800  136.9430 C   0  0  0  0  0  2  0  0  0  0  0  0
  188.5690  178.3190  140.0600 C   0  0  0  0  0  1  0  0  0  0  0  0
  188.6370  176.7350  136.6330 C   0  0  0  0  0  0  0  0  0  0  0  0
  189.0730  177.3560  137.7530 C   0  0  0  0  0  0  0  0  0  0  0  0
  186.7830  178.0320  138.3440 C   0  0  0  0  0  0  0  0  0  0  0  0
  188.0810  177.9040  138.7040 C   0  0  0  0  0  0  0  0  0  0  0  0
  190.0990  176.6280  134.6230 C   0  0  0  0  0  1  0  0  0  0  0  0
  189.4870  176.0370  135.7660 O   0  0  0  0  0  0  0  0  0  0  0  0
  190.4370  177.5040  138.0470 O   0  0  0  0  0  0  0  0  0  0  0  0
  191.1700  176.5140  138.7550 C   0  0  0  0  0  2  0  0  0  0  0  0
  192.3220  175.6630  137.6300 S   0  0  0  0  0  1  0  0  0  0  0  0
  183.3750  179.0270  144.6720 C   0  0  0  0  0  2  0  0  0  0  0  0
  184.2440  179.2740  142.2970 C   0  0  2  0  0  3  0  0  0  0  0  0
  185.3650  179.7830  143.0150 O   0  0  0  0  0  0  0  0  0  0  0  0
  183.0270  178.9780  143.1940 C   0  0  0  0  0  2  0  0  0  0  0  0
  184.6690  178.2770  144.8910 C   0  0  1  0  0  3  0  0  0  0  0  0
  185.7990  178.9170  144.0670 C   0  0  1  0  0  3  0  0  0  0  0  0
  185.0010  178.3040  146.2450 O   0  0  0  0  0  1  0  0  0  0  0  0
  186.8470  177.8900  143.6080 C   0  0  2  0  0  3  0  0  0  0  0  0
  186.3830  176.5850  143.8370 O   0  0  0  0  0  1  0  0  0  0  0  0
  189.2250  178.0780  143.6120 O   0  0  0  0  0  0  0  0  0  0  0  0
  188.2470  178.1820  145.6780 O   0  0  0  0  0  1  0  0  0  0  0  0
  188.1680  178.0650  144.2960 C   0  0  0  0  0  0  0  0  0  0  0  0
  181.3540  178.1670  139.1020 C   0  0  2  0  0  3  0  0  0  0  0  0
  180.1260  178.8680  139.4480 N   0  0  0  0  0  2  0  0  0  0  0  0
  180.4930  180.0150  140.2720 C   0  0  0  0  0  2  0  0  0  0  0  0
  178.9920  181.1490  138.6630 C   0  0  0  0  0  2  0  0  0  0  0  0
  181.2960  181.5400  138.5120 C   0  0  0  0  0  0  0  0  0  0  0  0
  180.2460  181.3040  139.5170 C   0  0  2  0  0  3  0  0  0  0  0  0
  182.4750  181.7250  138.7880 O   0  0  0  0  0  0  0  0  0  0  0  0
  178.9960  180.1690  136.5270 C   0  0  0  0  0  1  0  0  0  0  0  0
  180.7700  181.5800  137.1350 C   0  0  0  0  0  2  0  0  0  0  0  0
  179.3230  181.3860  137.2450 N   0  0  0  0  0  0  0  0  0  0  0  0
  181.0130  176.8970  138.3160 C   0  0  2  0  0  3  0  0  0  0  0  0
  180.9590  177.1410  136.9390 O   0  0  0  0  0  0  0  0  0  0  0  0
  182.0870  176.5060  136.4140 C   0  0  0  0  0  1  0  0  0  0  0  0
  178.9320  175.7590  137.9770 O   0  0  0  0  0  0  0  0  0  0  0  0
  179.7410  176.2740  138.7980 C   0  0  0  0  0  0  0  0  0  0  0  0
  179.4500  176.2740  140.2360 C   0  0  0  0  0  3  0  0  0  0  0  0
  179.3100  175.1480  140.9290 C   0  0  0  0  0  2  0  0  0  0  0  0
  1 13  1  6  0  0  0
  1  6  1  0  0  0  0
  2  1  1  0  0  0  0
  3  6  1  6  0  0  0
  3 21  1  0  0  0  0
  4 32  1  6  0  0  0
  5  2  1  6  0  0  0
  5  4  1  0  0  0  0
  5  3  1  0  0  0  0
  7  5  1  0  0  0  0
  7  4  1  0  0  0  0
  8 11  1  0  0  0  0
  8  9  1  0  0  0  0
  9 13  1  0  0  0  0
 11 12  2  0  0  0  0
 12 17  1  0  0  0  0
 12 14  1  0  0  0  0
 13 14  2  0  0  0  0
 14 10  1  0  0  0  0
 15 16  1  0  0  0  0
 16 11  1  0  0  0  0
 17 18  1  0  0  0  0
 19 18  1  0  0  0  0
 20 24  1  0  0  0  0
 21 22  1  0  0  0  0
 21 23  1  1  0  0  0
 22 25  1  0  0  0  0
 23 20  1  0  0  0  0
 24 26  1  1  0  0  0
 25 27  1  6  0  0  0
 25 24  1  0  0  0  0
 27 28  1  1  0  0  0
 27 31  1  0  0  0  0
 29 31  2  0  0  0  0
 31 30  1  0  0  0  0
 32 33  1  1  0  0  0
 33 34  1  0  0  0  0
 35 37  1  0  0  0  0
 36 38  2  0  0  0  0
 36 37  1  0  0  0  0
 37 34  1  6  0  0  0
 39 41  1  0  0  0  0
 40 41  1  0  0  0  0
 40 36  1  0  0  0  0
 41 35  1  0  0  0  0
 42 43  1  6  0  0  0
 42 46  1  0  0  0  0
 42 32  1  0  0  0  0
 44 43  1  0  0  0  0
 45 46  2  0  0  0  0
 46 47  1  0  0  0  0
 47 48  2  0  0  0  0
M  END
>  <MODEL>
8

>  <REMARK>
 VINA RESULT:      -5.4      1.586      2.230
  Name = 
  15 active torsions:
  status: ('A' for Active; 'I' for Inactive)
    1  A    between atoms: O_1  and  C_45
    2  A    between atoms: O_4  and  C_10
    3  A    between atoms: O_4  and  C_40
    4  A    between atoms: C_6  and  C_42
    5  A    between atoms: C_12  and  C_14
    6  A    between atoms: C_18  and  C_41
    7  A    between atoms: N_19  and  C_41
    8  A    between atoms: N_19  and  C_48
    9  A    between atoms: C_21  and  C_36
   10  A    between atoms: C_23  and  C_48
   11  A    between atoms: O_28  and  C_39
   12  A    between atoms: C_36  and  C_45
   13  A    between atoms: C_37  and  C_38
   14  A    between atoms: C_37  and  C_46
   15  A    between atoms: C_41  and  C_45
                            x       y       z     vdW  Elec       q    Type
                         _______ _______ _______ _____ _____    ______ ____

>  <TORSDO>
F 15

$$$$
=
 OpenBabel11062412073D

 48 52  0  0  1  0  0  0  0  0999 V2000
  185.5990  178.7550  138.9860 C   0  0  1  0  0  3  0  0  0  0  0  0
  184.0920  178.6600  138.8100 C   0  0  0  0  0  2  0  0  0  0  0  0
  184.6860  178.2460  141.2290 C   0  0  1  0  0  3  0  0  0  0  0  0
  182.1110  178.6040  140.6220 C   0  0  2  0  0  3  0  0  0  0  0  0
  183.5720  178.4250  140.2050 C   0  0  1  0  0  0  0  0  0  0  0  0
  185.9600  178.2770  140.3900 C   0  0  0  0  0  2  0  0  0  0  0  0
  182.6330  177.2360  140.2200 C   0  0  0  0  0  2  0  0  0  0  0  0
  188.4010  177.8340  136.6090 O   0  0  0  0  0  0  0  0  0  0  0  0
  187.8450  178.2360  137.8620 C   0  0  0  0  0  2  0  0  0  0  0  0
  184.3350  176.7560  137.1750 C   0  0  0  0  0  1  0  0  0  0  0  0
  187.8750  176.7750  135.8600 C   0  0  0  0  0  0  0  0  0  0  0  0
  186.6250  176.3360  136.1330 C   0  0  0  0  0  0  0  0  0  0  0  0
  186.3590  178.0130  137.9130 C   0  0  0  0  0  0  0  0  0  0  0  0
  185.7970  177.0810  137.1070 C   0  0  0  0  0  0  0  0  0  0  0  0
  190.0310  175.8800  135.0010 C   0  0  0  0  0  1  0  0  0  0  0  0
  188.6640  176.2440  134.8320 O   0  0  0  0  0  0  0  0  0  0  0  0
  186.0810  175.1930  135.5270 O   0  0  0  0  0  0  0  0  0  0  0  0
  186.3650  173.8810  135.9960 C   0  0  0  0  0  2  0  0  0  0  0  0
  186.9850  172.8490  134.6300 S   0  0  0  0  0  1  0  0  0  0  0  0
  184.3280  179.0560  144.7710 C   0  0  0  0  0  2  0  0  0  0  0  0
  184.7210  179.3740  142.2810 C   0  0  2  0  0  3  0  0  0  0  0  0
  186.0330  179.6450  142.7670 O   0  0  0  0  0  0  0  0  0  0  0  0
  183.6810  179.1880  143.4030 C   0  0  0  0  0  2  0  0  0  0  0  0
  185.4980  178.1040  144.6660 C   0  0  1  0  0  3  0  0  0  0  0  0
  186.5250  178.6360  143.6530 C   0  0  1  0  0  3  0  0  0  0  0  0
  186.0980  177.9630  145.9170 O   0  0  0  0  0  1  0  0  0  0  0  0
  187.2720  177.5070  142.9260 C   0  0  2  0  0  3  0  0  0  0  0  0
  187.1440  176.3020  143.6340 O   0  0  0  0  0  1  0  0  0  0  0  0
  189.0910  178.5400  141.7780 O   0  0  0  0  0  0  0  0  0  0  0  0
  189.6900  177.2640  143.5810 O   0  0  0  0  0  1  0  0  0  0  0  0
  188.7290  177.8070  142.7360 C   0  0  0  0  0  0  0  0  0  0  0  0
  181.2470  179.1960  139.5080 C   0  0  2  0  0  3  0  0  0  0  0  0
  181.2350  180.6470  139.6210 N   0  0  0  0  0  2  0  0  0  0  0  0
  181.5540  181.1920  138.3050 C   0  0  0  0  0  2  0  0  0  0  0  0
  179.6200  181.8470  136.9060 C   0  0  0  0  0  2  0  0  0  0  0  0
  181.3150  183.4190  137.2780 C   0  0  0  0  0  0  0  0  0  0  0  0
  180.6070  182.3240  137.9640 C   0  0  2  0  0  3  0  0  0  0  0  0
  182.2030  184.0860  137.7940 O   0  0  0  0  0  0  0  0  0  0  0  0
  180.0890  181.8540  134.6030 C   0  0  0  0  0  1  0  0  0  0  0  0
  180.8050  183.6610  135.9160 C   0  0  0  0  0  2  0  0  0  0  0  0
  179.7130  182.7090  135.7120 N   0  0  0  0  0  0  0  0  0  0  0  0
  179.8120  178.6660  139.5640 C   0  0  2  0  0  3  0  0  0  0  0  0
  179.5380  178.0430  140.7870 O   0  0  0  0  0  0  0  0  0  0  0  0
  178.9310  179.0290  141.5680 C   0  0  0  0  0  1  0  0  0  0  0  0
  179.6830  176.5010  138.5440 O   0  0  0  0  0  0  0  0  0  0  0  0
  179.5180  177.7470  138.4200 C   0  0  0  0  0  0  0  0  0  0  0  0
  179.0390  178.3160  137.1560 C   0  0  0  0  0  3  0  0  0  0  0  0
  179.2590  177.7250  135.9860 C   0  0  0  0  0  2  0  0  0  0  0  0
  1 13  1  6  0  0  0
  1  6  1  0  0  0  0
  2  1  1  0  0  0  0
  3  6  1  6  0  0  0
  3 21  1  0  0  0  0
  4 32  1  6  0  0  0
  5  2  1  6  0  0  0
  5  7  1  0  0  0  0
  5  4  1  0  0  0  0
  5  3  1  0  0  0  0
  7  4  1  0  0  0  0
  8  9  1  0  0  0  0
  9 13  1  0  0  0  0
 11 12  2  0  0  0  0
 11  8  1  0  0  0  0
 12 14  1  0  0  0  0
 14 10  1  0  0  0  0
 14 13  2  0  0  0  0
 16 15  1  0  0  0  0
 16 11  1  0  0  0  0
 17 18  1  0  0  0  0
 17 12  1  0  0  0  0
 19 18  1  0  0  0  0
 21 22  1  0  0  0  0
 21 23  1  1  0  0  0
 22 25  1  0  0  0  0
 23 20  1  0  0  0  0
 24 20  1  0  0  0  0
 24 26  1  1  0  0  0
 25 27  1  6  0  0  0
 25 24  1  0  0  0  0
 27 28  1  1  0  0  0
 29 31  2  0  0  0  0
 31 27  1  0  0  0  0
 31 30  1  0  0  0  0
 32 42  1  0  0  0  0
 32 33  1  1  0  0  0
 34 33  1  0  0  0  0
 35 37  1  0  0  0  0
 36 38  2  0  0  0  0
 36 37  1  0  0  0  0
 37 34  1  6  0  0  0
 39 41  1  0  0  0  0
 40 36  1  0  0  0  0
 41 40  1  0  0  0  0
 41 35  1  0  0  0  0
 42 46  1  6  0  0  0
 42 43  1  0  0  0  0
 43 44  1  0  0  0  0
 46 45  2  0  0  0  0
 47 46  1  0  0  0  0
 48 47  2  0  0  0  0
M  END
>  <MODEL>
9

>  <REMARK>
 VINA RESULT:      -5.1      1.585      2.390
  Name = 
  15 active torsions:
  status: ('A' for Active; 'I' for Inactive)
    1  A    between atoms: O_1  and  C_45
    2  A    between atoms: O_4  and  C_10
    3  A    between atoms: O_4  and  C_40
    4  A    between atoms: C_6  and  C_42
    5  A    between atoms: C_12  and  C_14
    6  A    between atoms: C_18  and  C_41
    7  A    between atoms: N_19  and  C_41
    8  A    between atoms: N_19  and  C_48
    9  A    between atoms: C_21  and  C_36
   10  A    between atoms: C_23  and  C_48
   11  A    between atoms: O_28  and  C_39
   12  A    between atoms: C_36  and  C_45
   13  A    between atoms: C_37  and  C_38
   14  A    between atoms: C_37  and  C_46
   15  A    between atoms: C_41  and  C_45
                            x       y       z     vdW  Elec       q    Type
                         _______ _______ _______ _____ _____    ______ ____

>  <TORSDO>
F 15

$$$$
