=
 OpenBabel11062413403D

 42 45  0  0  1  0  0  0  0  0999 V2000
  185.3690  178.7930  140.6550 C   0  0  0  0  0  0  0  0  0  0  0  0
  185.5700  179.4720  144.2520 O   0  0  0  0  0  0  0  0  0  0  0  0
  181.4560  178.6840  144.0010 C   0  0  0  0  0  3  0  0  0  0  0  0
  183.9390  178.6390  140.5480 N   0  0  0  0  0  0  0  0  0  0  0  0
  186.0770  178.8750  139.6180 O   0  0  0  0  0  0  0  0  0  0  0  0
  183.1020  178.6440  141.7220 C   0  0  0  0  0  0  0  0  0  0  0  0
  180.9000  178.4440  142.7450 C   0  0  0  0  0  3  0  0  0  0  0  0
  182.8270  178.9000  144.1240 C   0  0  0  0  0  3  0  0  0  0  0  0
  186.0360  178.8710  141.9980 C   0  0  1  0  0  3  0  0  0  0  0  0
  183.6560  178.8720  142.9950 C   0  0  0  0  0  0  0  0  0  0  0  0
  181.7190  178.4230  141.6140 C   0  0  0  0  0  3  0  0  0  0  0  0
  185.1020  179.0910  143.1480 C   0  0  0  0  0  0  0  0  0  0  0  0
  189.0450  176.5090  141.5420 C   0  0  0  0  0  2  0  0  0  0  0  0
  189.2800  178.5920  142.9910 C   0  0  1  0  0  3  0  0  0  0  0  0
  188.4400  178.1580  144.1320 C   0  0  0  0  0  0  0  0  0  0  0  0
  187.2770  177.7380  143.7760 N   0  0  0  0  0  0  0  0  0  0  0  0
  191.1530  176.8240  142.8410 C   0  0  2  0  0  3  0  0  0  0  0  0
  190.7770  178.2770  143.1410 C   0  0  0  0  0  2  0  0  0  0  0  0
  187.1200  177.8210  142.3330 C   0  0  2  0  0  3  0  0  0  0  0  0
  188.5590  177.9620  141.7790 C   0  0  2  0  0  0  0  0  0  0  0  0
  190.5600  176.3870  141.5110 C   0  0  0  0  0  2  0  0  0  0  0  0
  190.7500  175.8720  143.9680 C   0  0  0  0  0  2  0  0  0  0  0  0
  191.5820  176.1370  145.2070 C   0  0  0  0  0  1  0  0  0  0  0  0
  188.8460  178.2210  145.4690 O   0  0  0  0  0  0  0  0  0  0  0  0
  188.2560  177.4110  146.4660 C   0  0  0  0  0  1  0  0  0  0  0  0
  188.6430  178.8480  140.6660 O   0  0  0  0  0  0  0  0  0  0  0  0
  189.3600  178.3000  139.5850 C   0  0  0  0  0  2  0  0  0  0  0  0
  189.0030  179.0170  138.2940 C   0  0  0  0  0  1  0  0  0  0  0  0
  183.3270  178.5600  139.2250 C   0  0  0  0  0  2  0  0  0  0  0  0
  183.6790  177.2390  138.5610 C   0  0  2  0  0  3  0  0  0  0  0  0
  185.2250  176.9330  135.2460 O   0  0  0  0  0  0  0  0  0  0  0  0
  184.0580  177.4760  137.1790 N   0  0  0  0  0  2  0  0  0  0  0  0
  185.0540  176.7170  136.4730 C   0  0  0  0  0  0  0  0  0  0  0  0
  185.9090  175.6810  137.1380 C   0  0  2  0  0  3  0  0  0  0  0  0
  187.2510  175.8930  136.8920 F   0  0  0  0  0  0  0  0  0  0  0  0
  185.5860  173.0000  138.1100 O   0  0  0  0  0  1  0  0  0  0  0  0
  185.4090  173.9790  136.7410 P   0  0  0  0  0  0  0  0  0  0  0  0
  186.2840  173.4380  135.6330 O   0  0  0  0  0  0  0  0  0  0  0  0
  183.8000  173.9320  136.2340 O   0  0  0  0  0  1  0  0  0  0  0  0
  181.6860  176.1440  137.5340 O   0  0  0  0  0  0  0  0  0  0  0  0
  182.3110  175.6180  139.6740 O   0  0  0  0  0  1  0  0  0  0  0  0
  182.5190  176.2990  138.6360 C   0  0  0  0  0  0  0  0  0  0  0  0
  3  8  1  0  0  0  0
  4  1  1  0  0  0  0
  4  6  1  0  0  0  0
  5  1  2  0  0  0  0
  6 10  1  0  0  0  0
  7  3  2  0  0  0  0
  9  1  1  6  0  0  0
  9 19  1  0  0  0  0
  9 12  1  0  0  0  0
 10 12  1  0  0  0  0
 10  8  2  0  0  0  0
 11  6  2  0  0  0  0
 11  7  1  0  0  0  0
 12  2  2  0  0  0  0
 13 20  1  0  0  0  0
 14 18  1  1  0  0  0
 14 15  1  0  0  0  0
 15 24  1  0  0  0  0
 16 15  2  0  0  0  0
 17 18  1  0  0  0  0
 17 22  1  1  0  0  0
 19 16  1  1  0  0  0
 20 26  1  6  0  0  0
 20 19  1  0  0  0  0
 20 14  1  0  0  0  0
 21 13  1  0  0  0  0
 21 17  1  0  0  0  0
 22 23  1  0  0  0  0
 24 25  1  0  0  0  0
 27 26  1  0  0  0  0
 28 27  1  0  0  0  0
 29  4  1  0  0  0  0
 30 42  1  0  0  0  0
 30 29  1  6  0  0  0
 31 33  2  0  0  0  0
 32 30  1  0  0  0  0
 33 34  1  0  0  0  0
 33 32  1  0  0  0  0
 34 35  1  6  0  0  0
 37 34  1  0  0  0  0
 37 36  1  0  0  0  0
 38 37  2  0  0  0  0
 39 37  1  0  0  0  0
 40 42  2  0  0  0  0
 42 41  1  0  0  0  0
M  END
>  <MODEL>
1

>  <REMARK>
 VINA RESULT:      -7.2      0.000      0.000
  Name = 
  11 active torsions:
  status: ('A' for Active; 'I' for Inactive)
    1  A    between atoms: C_4  and  C_31
    2  A    between atoms: C_5  and  O_18
    3  A    between atoms: N_9  and  C_22
    4  A    between atoms: P_10  and  C_11
    5  A    between atoms: C_11  and  C_40
    6  A    between atoms: C_14  and  O_21
    7  A    between atoms: CA_15  and  C_22
    8  A    between atoms: CA_15  and  N_25
    9  A    between atoms: CA_15  and  C_42
   10  A    between atoms: O_18  and  C_38
   11  A    between atoms: C_28  and  C_35
                            x       y       z     vdW  Elec       q    Type
                         _______ _______ _______ _____ _____    ______ ____

>  <TORSDO>
F 11

$$$$
=
 OpenBabel11062413403D

 42 45  0  0  1  0  0  0  0  0999 V2000
  185.2320  177.7100  137.8260 C   0  0  0  0  0  0  0  0  0  0  0  0
  182.4350  175.4240  137.2010 O   0  0  0  0  0  0  0  0  0  0  0  0
  185.5880  172.7060  136.6650 C   0  0  0  0  0  3  0  0  0  0  0  0
  186.3160  176.8070  137.5270 N   0  0  0  0  0  0  0  0  0  0  0  0
  185.4570  178.9380  137.9830 O   0  0  0  0  0  0  0  0  0  0  0  0
  186.0650  175.4140  137.2470 C   0  0  0  0  0  0  0  0  0  0  0  0
  186.8960  173.1820  136.7360 C   0  0  0  0  0  3  0  0  0  0  0  0
  184.5190  173.5730  136.8890 C   0  0  0  0  0  3  0  0  0  0  0  0
  183.8220  177.2080  137.9450 C   0  0  1  0  0  3  0  0  0  0  0  0
  184.7490  174.9220  137.1880 C   0  0  0  0  0  0  0  0  0  0  0  0
  187.1320  174.5270  137.0260 C   0  0  0  0  0  3  0  0  0  0  0  0
  183.6090  175.8180  137.4300 C   0  0  0  0  0  0  0  0  0  0  0  0
  181.9660  179.0590  140.7680 C   0  0  0  0  0  2  0  0  0  0  0  0
  180.6890  177.4560  139.2530 C   0  0  1  0  0  3  0  0  0  0  0  0
  181.2650  176.1840  139.7500 C   0  0  0  0  0  0  0  0  0  0  0  0
  182.5520  176.1810  139.7660 N   0  0  0  0  0  0  0  0  0  0  0  0
  179.5890  178.5340  141.3230 C   0  0  2  0  0  3  0  0  0  0  0  0
  179.3900  177.8860  139.9520 C   0  0  0  0  0  2  0  0  0  0  0  0
  183.0750  177.4470  139.2780 C   0  0  2  0  0  3  0  0  0  0  0  0
  181.8830  178.4310  139.3530 C   0  0  2  0  0  0  0  0  0  0  0  0
  180.6390  179.6310  141.2430 C   0  0  0  0  0  2  0  0  0  0  0  0
  179.9370  177.5120  142.4070 C   0  0  0  0  0  2  0  0  0  0  0  0
  179.9560  178.1750  143.7710 C   0  0  0  0  0  1  0  0  0  0  0  0
  180.5010  175.0790  140.1360 O   0  0  0  0  0  0  0  0  0  0  0  0
  179.8190  174.2770  139.1900 C   0  0  0  0  0  1  0  0  0  0  0  0
  181.8420  179.3410  138.2570 O   0  0  0  0  0  0  0  0  0  0  0  0
  182.3700  180.6070  138.5780 C   0  0  0  0  0  2  0  0  0  0  0  0
  181.3940  181.7040  138.1840 C   0  0  0  0  0  1  0  0  0  0  0  0
  187.6750  177.3310  137.4270 C   0  0  0  0  0  2  0  0  0  0  0  0
  188.4200  177.1130  138.7330 C   0  0  2  0  0  3  0  0  0  0  0  0
  188.3840  179.3890  141.6130 O   0  0  0  0  0  0  0  0  0  0  0  0
  188.2960  178.2970  139.5660 N   0  0  0  0  0  2  0  0  0  0  0  0
  188.3950  178.2910  140.9990 C   0  0  0  0  0  0  0  0  0  0  0  0
  188.5000  177.0290  141.8020 C   0  0  2  0  0  3  0  0  0  0  0  0
  187.4440  176.8950  142.6810 F   0  0  0  0  0  0  0  0  0  0  0  0
  190.0560  177.6230  144.1400 O   0  0  0  0  0  1  0  0  0  0  0  0
  190.1040  176.8450  142.6370 P   0  0  0  0  0  0  0  0  0  0  0  0
  191.1910  177.4720  141.7940 O   0  0  0  0  0  0  0  0  0  0  0  0
  190.4720  175.2150  142.8720 O   0  0  0  0  0  1  0  0  0  0  0  0
  190.4620  175.7250  139.0950 O   0  0  0  0  0  1  0  0  0  0  0  0
  190.5150  177.4930  137.6380 O   0  0  0  0  0  0  0  0  0  0  0  0
  189.8570  176.8060  138.4630 C   0  0  0  0  0  0  0  0  0  0  0  0
  1  9  1  0  0  0  0
  1  5  2  0  0  0  0
  2 12  2  0  0  0  0
  3  7  2  0  0  0  0
  3  8  1  0  0  0  0
  4  1  1  0  0  0  0
  6  4  1  0  0  0  0
  7 11  1  0  0  0  0
  8 10  2  0  0  0  0
  9 12  1  1  0  0  0
  9 19  1  0  0  0  0
 10  6  1  0  0  0  0
 10 12  1  0  0  0  0
 11  6  2  0  0  0  0
 13 21  1  0  0  0  0
 14 20  1  0  0  0  0
 14 15  1  0  0  0  0
 14 18  1  1  0  0  0
 15 16  2  0  0  0  0
 15 24  1  0  0  0  0
 17 22  1  1  0  0  0
 18 17  1  0  0  0  0
 19 20  1  0  0  0  0
 19 16  1  6  0  0  0
 20 26  1  6  0  0  0
 20 13  1  0  0  0  0
 21 17  1  0  0  0  0
 22 23  1  0  0  0  0
 25 24  1  0  0  0  0
 26 27  1  0  0  0  0
 28 27  1  0  0  0  0
 29  4  1  0  0  0  0
 30 29  1  6  0  0  0
 30 32  1  0  0  0  0
 32 33  1  0  0  0  0
 33 31  2  0  0  0  0
 33 34  1  0  0  0  0
 34 37  1  0  0  0  0
 34 35  1  1  0  0  0
 37 39  1  0  0  0  0
 37 36  1  0  0  0  0
 38 37  2  0  0  0  0
 41 42  2  0  0  0  0
 42 30  1  0  0  0  0
 42 40  1  0  0  0  0
M  END
>  <MODEL>
2

>  <REMARK>
 VINA RESULT:      -6.8      2.995      8.123
  Name = 
  11 active torsions:
  status: ('A' for Active; 'I' for Inactive)
    1  A    between atoms: C_4  and  C_31
    2  A    between atoms: C_5  and  O_18
    3  A    between atoms: N_9  and  C_22
    4  A    between atoms: P_10  and  C_11
    5  A    between atoms: C_11  and  C_40
    6  A    between atoms: C_14  and  O_21
    7  A    between atoms: CA_15  and  C_22
    8  A    between atoms: CA_15  and  N_25
    9  A    between atoms: CA_15  and  C_42
   10  A    between atoms: O_18  and  C_38
   11  A    between atoms: C_28  and  C_35
                            x       y       z     vdW  Elec       q    Type
                         _______ _______ _______ _____ _____    ______ ____

>  <TORSDO>
F 11

$$$$
=
 OpenBabel11062413403D

 42 45  0  0  1  0  0  0  0  0999 V2000
  186.3120  178.3560  141.9030 C   0  0  0  0  0  0  0  0  0  0  0  0
  186.1170  179.3910  145.4140 O   0  0  0  0  0  0  0  0  0  0  0  0
  182.0240  178.7670  144.7250 C   0  0  0  0  0  3  0  0  0  0  0  0
  184.8990  178.2560  141.6320 N   0  0  0  0  0  0  0  0  0  0  0  0
  187.1430  178.2990  140.9600 O   0  0  0  0  0  0  0  0  0  0  0  0
  183.9280  178.4190  142.6860 C   0  0  0  0  0  0  0  0  0  0  0  0
  181.6110  178.4240  143.4390 C   0  0  0  0  0  3  0  0  0  0  0  0
  183.3810  178.9320  144.9990 C   0  0  0  0  0  3  0  0  0  0  0  0
  186.8160  178.5410  143.3050 C   0  0  1  0  0  3  0  0  0  0  0  0
  184.3370  178.7510  143.9900 C   0  0  0  0  0  0  0  0  0  0  0  0
  182.5580  178.2500  142.4270 C   0  0  0  0  0  3  0  0  0  0  0  0
  185.7640  178.9200  144.3020 C   0  0  0  0  0  0  0  0  0  0  0  0
  189.7120  176.0060  143.4580 C   0  0  0  0  0  2  0  0  0  0  0  0
  189.9010  178.2190  144.7080 C   0  0  1  0  0  3  0  0  0  0  0  0
  188.9100  177.9490  145.7760 C   0  0  0  0  0  0  0  0  0  0  0  0
  187.7720  177.5480  145.3260 N   0  0  0  0  0  0  0  0  0  0  0  0
  191.6700  176.3600  144.9660 C   0  0  2  0  0  3  0  0  0  0  0  0
  191.3480  177.8520  145.0700 C   0  0  0  0  0  2  0  0  0  0  0  0
  187.7900  177.4830  143.8730 C   0  0  2  0  0  3  0  0  0  0  0  0
  189.2890  177.4970  143.4870 C   0  0  2  0  0  0  0  0  0  0  0  0
  191.2110  175.8110  143.6240 C   0  0  0  0  0  2  0  0  0  0  0  0
  191.0840  175.5530  146.1250 C   0  0  0  0  0  2  0  0  0  0  0  0
  191.9170  175.7450  147.3770 C   0  0  0  0  0  1  0  0  0  0  0  0
  189.1610  178.1350  147.1390 O   0  0  0  0  0  0  0  0  0  0  0  0
  188.2300  177.7430  148.1290 C   0  0  0  0  0  1  0  0  0  0  0  0
  189.5530  178.2550  142.3090 O   0  0  0  0  0  0  0  0  0  0  0  0
  189.8770  177.4470  141.2020 C   0  0  0  0  0  2  0  0  0  0  0  0
  191.3050  177.7100  140.7530 C   0  0  0  0  0  1  0  0  0  0  0  0
  184.4470  178.0690  140.2560 C   0  0  0  0  0  2  0  0  0  0  0  0
  185.2240  178.9810  139.3200 C   0  0  2  0  0  3  0  0  0  0  0  0
  182.3960  181.2220  138.6470 O   0  0  0  0  0  0  0  0  0  0  0  0
  184.4250  180.1550  139.0130 N   0  0  0  0  0  2  0  0  0  0  0  0
  183.0050  180.1320  138.7960 C   0  0  0  0  0  0  0  0  0  0  0  0
  182.2130  178.8610  138.7270 C   0  0  2  0  0  3  0  0  0  0  0  0
  182.3080  178.2670  137.4840 F   0  0  0  0  0  0  0  0  0  0  0  0
  180.4120  180.1030  140.5850 O   0  0  0  0  0  1  0  0  0  0  0  0
  180.4840  179.0670  139.2480 P   0  0  0  0  0  0  0  0  0  0  0  0
  179.9060  177.7250  139.6350 O   0  0  0  0  0  1  0  0  0  0  0  0
  179.5570  179.7170  137.9970 O   0  0  0  0  0  0  0  0  0  0  0  0
  186.5500  178.7740  137.2160 O   0  0  0  0  0  0  0  0  0  0  0  0
  185.0560  177.1380  137.8000 O   0  0  0  0  0  1  0  0  0  0  0  0
  185.5860  178.2470  138.0690 C   0  0  0  0  0  0  0  0  0  0  0  0
  3  8  1  0  0  0  0
  4  1  1  0  0  0  0
  4  6  1  0  0  0  0
  5  1  2  0  0  0  0
  6 10  1  0  0  0  0
  7  3  2  0  0  0  0
  9  1  1  6  0  0  0
  9 19  1  0  0  0  0
  9 12  1  0  0  0  0
 10 12  1  0  0  0  0
 10  8  2  0  0  0  0
 11  6  2  0  0  0  0
 11  7  1  0  0  0  0
 12  2  2  0  0  0  0
 13 20  1  0  0  0  0
 13 21  1  0  0  0  0
 14 18  1  1  0  0  0
 14 15  1  0  0  0  0
 15 24  1  0  0  0  0
 16 15  2  0  0  0  0
 17 18  1  0  0  0  0
 17 22  1  1  0  0  0
 19 16  1  1  0  0  0
 20 26  1  6  0  0  0
 20 19  1  0  0  0  0
 20 14  1  0  0  0  0
 21 17  1  0  0  0  0
 22 23  1  0  0  0  0
 24 25  1  0  0  0  0
 27 26  1  0  0  0  0
 28 27  1  0  0  0  0
 29  4  1  0  0  0  0
 30 29  1  1  0  0  0
 31 33  2  0  0  0  0
 32 30  1  0  0  0  0
 33 32  1  0  0  0  0
 34 35  1  6  0  0  0
 34 33  1  0  0  0  0
 34 37  1  0  0  0  0
 37 38  1  0  0  0  0
 37 36  1  0  0  0  0
 39 37  2  0  0  0  0
 40 42  2  0  0  0  0
 41 42  1  0  0  0  0
 42 30  1  0  0  0  0
M  END
>  <MODEL>
3

>  <REMARK>
 VINA RESULT:      -6.3      2.468      3.633
  Name = 
  11 active torsions:
  status: ('A' for Active; 'I' for Inactive)
    1  A    between atoms: C_4  and  C_31
    2  A    between atoms: C_5  and  O_18
    3  A    between atoms: N_9  and  C_22
    4  A    between atoms: P_10  and  C_11
    5  A    between atoms: C_11  and  C_40
    6  A    between atoms: C_14  and  O_21
    7  A    between atoms: CA_15  and  C_22
    8  A    between atoms: CA_15  and  N_25
    9  A    between atoms: CA_15  and  C_42
   10  A    between atoms: O_18  and  C_38
   11  A    between atoms: C_28  and  C_35
                            x       y       z     vdW  Elec       q    Type
                         _______ _______ _______ _____ _____    ______ ____

>  <TORSDO>
F 11

$$$$
=
 OpenBabel11062413403D

 42 45  0  0  1  0  0  0  0  0999 V2000
  186.0520  177.6480  137.6030 C   0  0  0  0  0  0  0  0  0  0  0  0
  184.0280  175.6060  135.3290 O   0  0  0  0  0  0  0  0  0  0  0  0
  187.7580  173.8220  134.6080 C   0  0  0  0  0  3  0  0  0  0  0  0
  187.3500  177.1150  137.2690 N   0  0  0  0  0  0  0  0  0  0  0  0
  185.9570  178.6820  138.3140 O   0  0  0  0  0  0  0  0  0  0  0  0
  187.4830  175.9910  136.3750 C   0  0  0  0  0  0  0  0  0  0  0  0
  188.8830  174.3580  135.2310 C   0  0  0  0  0  3  0  0  0  0  0  0
  186.4970  174.3590  134.8660 C   0  0  0  0  0  3  0  0  0  0  0  0
  184.7980  176.9900  137.1040 C   0  0  1  0  0  3  0  0  0  0  0  0
  186.3510  175.4350  135.7520 C   0  0  0  0  0  0  0  0  0  0  0  0
  188.7450  175.4350  136.1100 C   0  0  0  0  0  3  0  0  0  0  0  0
  185.0120  175.9810  136.0180 C   0  0  0  0  0  0  0  0  0  0  0  0
  182.0900  177.1060  139.8410 C   0  0  0  0  0  2  0  0  0  0  0  0
  181.4820  176.3280  137.4910 C   0  0  1  0  0  3  0  0  0  0  0  0
  182.1870  175.0250  137.5050 C   0  0  0  0  0  0  0  0  0  0  0  0
  183.4200  175.1180  137.8630 N   0  0  0  0  0  0  0  0  0  0  0  0
  179.8020  176.1890  139.4440 C   0  0  2  0  0  3  0  0  0  0  0  0
  180.0110  176.2640  137.9300 C   0  0  0  0  0  2  0  0  0  0  0  0
  183.7690  176.5000  138.1480 C   0  0  2  0  0  3  0  0  0  0  0  0
  182.4150  177.2290  138.3300 C   0  0  2  0  0  0  0  0  0  0  0  0
  180.6090  177.2710  140.1440 C   0  0  0  0  0  2  0  0  0  0  0  0
  180.1210  174.8050  140.0100 C   0  0  0  0  0  2  0  0  0  0  0  0
  179.2750  174.5270  141.2360 C   0  0  0  0  0  1  0  0  0  0  0  0
  181.5940  173.8130  137.1380 O   0  0  0  0  0  0  0  0  0  0  0  0
  182.3600  172.6430  136.9270 C   0  0  0  0  0  1  0  0  0  0  0  0
  182.4140  178.5460  137.7860 O   0  0  0  0  0  0  0  0  0  0  0  0
  182.6280  179.5390  138.7620 C   0  0  0  0  0  2  0  0  0  0  0  0
  181.6010  180.6510  138.6190 C   0  0  0  0  0  1  0  0  0  0  0  0
  188.5470  177.7780  137.7790 C   0  0  0  0  0  2  0  0  0  0  0  0
  188.8850  177.2570  139.1650 C   0  0  2  0  0  3  0  0  0  0  0  0
  188.5950  179.1040  142.3240 O   0  0  0  0  0  0  0  0  0  0  0  0
  188.6850  178.3120  140.1430 N   0  0  0  0  0  2  0  0  0  0  0  0
  188.6640  178.1040  141.5640 C   0  0  0  0  0  0  0  0  0  0  0  0
  188.7110  176.7410  142.1870 C   0  0  2  0  0  3  0  0  0  0  0  0
  187.5570  176.4640  142.8950 F   0  0  0  0  0  0  0  0  0  0  0  0
  190.6450  174.8320  143.1090 O   0  0  0  0  0  1  0  0  0  0  0  0
  190.2020  176.4630  143.1890 P   0  0  0  0  0  0  0  0  0  0  0  0
  189.9220  176.8270  144.6290 O   0  0  0  0  0  1  0  0  0  0  0  0
  191.4820  177.4100  142.6290 O   0  0  0  0  0  0  0  0  0  0  0  0
  191.3310  177.6570  139.4610 O   0  0  0  0  0  1  0  0  0  0  0  0
  190.5540  175.5430  139.0380 O   0  0  0  0  0  0  0  0  0  0  0  0
  190.2960  176.7640  139.2010 C   0  0  0  0  0  0  0  0  0  0  0  0
  1  5  2  0  0  0  0
  2 12  2  0  0  0  0
  3  8  2  0  0  0  0
  3  7  1  0  0  0  0
  4  1  1  0  0  0  0
  4 29  1  0  0  0  0
  6  4  1  0  0  0  0
  7 11  2  0  0  0  0
  8 10  1  0  0  0  0
  9 12  1  1  0  0  0
  9  1  1  0  0  0  0
  9 19  1  0  0  0  0
 10 12  1  0  0  0  0
 10  6  2  0  0  0  0
 11  6  1  0  0  0  0
 13 21  1  0  0  0  0
 14 15  1  0  0  0  0
 14 18  1  1  0  0  0
 14 20  1  0  0  0  0
 15 16  2  0  0  0  0
 17 22  1  1  0  0  0
 17 21  1  0  0  0  0
 18 17  1  0  0  0  0
 19 16  1  6  0  0  0
 19 20  1  0  0  0  0
 20 26  1  6  0  0  0
 20 13  1  0  0  0  0
 22 23  1  0  0  0  0
 24 15  1  0  0  0  0
 25 24  1  0  0  0  0
 26 27  1  0  0  0  0
 28 27  1  0  0  0  0
 30 29  1  6  0  0  0
 30 42  1  0  0  0  0
 30 32  1  0  0  0  0
 32 33  1  0  0  0  0
 33 34  1  0  0  0  0
 33 31  2  0  0  0  0
 34 35  1  1  0  0  0
 34 37  1  0  0  0  0
 36 37  1  0  0  0  0
 37 38  1  0  0  0  0
 39 37  2  0  0  0  0
 41 42  2  0  0  0  0
 42 40  1  0  0  0  0
M  END
>  <MODEL>
4

>  <REMARK>
 VINA RESULT:      -6.3      3.139      8.720
  Name = 
  11 active torsions:
  status: ('A' for Active; 'I' for Inactive)
    1  A    between atoms: C_4  and  C_31
    2  A    between atoms: C_5  and  O_18
    3  A    between atoms: N_9  and  C_22
    4  A    between atoms: P_10  and  C_11
    5  A    between atoms: C_11  and  C_40
    6  A    between atoms: C_14  and  O_21
    7  A    between atoms: CA_15  and  C_22
    8  A    between atoms: CA_15  and  N_25
    9  A    between atoms: CA_15  and  C_42
   10  A    between atoms: O_18  and  C_38
   11  A    between atoms: C_28  and  C_35
                            x       y       z     vdW  Elec       q    Type
                         _______ _______ _______ _____ _____    ______ ____

>  <TORSDO>
F 11

$$$$
=
 OpenBabel11062413403D

 42 45  0  0  1  0  0  0  0  0999 V2000
  187.3860  178.2420  138.9400 C   0  0  0  0  0  0  0  0  0  0  0  0
  190.6040  177.2730  140.4060 O   0  0  0  0  0  0  0  0  0  0  0  0
  188.3310  177.3990  143.9320 C   0  0  0  0  0  3  0  0  0  0  0  0
  186.6350  178.3990  140.1610 N   0  0  0  0  0  0  0  0  0  0  0  0
  186.9050  178.6330  137.8460 O   0  0  0  0  0  0  0  0  0  0  0  0
  187.2110  178.0480  141.4370 C   0  0  0  0  0  0  0  0  0  0  0  0
  187.0040  177.8180  143.8530 C   0  0  0  0  0  3  0  0  0  0  0  0
  189.0980  177.2980  142.7720 C   0  0  0  0  0  3  0  0  0  0  0  0
  188.7540  177.6210  138.9520 C   0  0  1  0  0  3  0  0  0  0  0  0
  188.5440  177.6110  141.5240 C   0  0  0  0  0  0  0  0  0  0  0  0
  186.4480  178.1390  142.6130 C   0  0  0  0  0  3  0  0  0  0  0  0
  189.3680  177.4880  140.3120 C   0  0  0  0  0  0  0  0  0  0  0  0
  188.5690  175.1970  135.9630 C   0  0  0  0  0  2  0  0  0  0  0  0
  190.7610  176.3820  136.4980 C   0  0  1  0  0  3  0  0  0  0  0  0
  191.1020  175.6540  137.7440 C   0  0  0  0  0  0  0  0  0  0  0  0
  190.1420  175.6380  138.6010 N   0  0  0  0  0  0  0  0  0  0  0  0
  190.6140  174.5520  134.6860 C   0  0  2  0  0  3  0  0  0  0  0  0
  191.3600  175.7760  135.2190 C   0  0  0  0  0  2  0  0  0  0  0  0
  188.9860  176.3570  138.0920 C   0  0  2  0  0  3  0  0  0  0  0  0
  189.2200  176.4680  136.5660 C   0  0  2  0  0  0  0  0  0  0  0  0
  189.1230  174.8380  134.5940 C   0  0  0  0  0  2  0  0  0  0  0  0
  190.8870  173.2950  135.5130 C   0  0  0  0  0  2  0  0  0  0  0  0
  190.3130  172.0730  134.8220 C   0  0  0  0  0  1  0  0  0  0  0  0
  192.3470  175.0670  137.9890 O   0  0  0  0  0  0  0  0  0  0  0  0
  193.5280  175.8370  138.0850 C   0  0  0  0  0  1  0  0  0  0  0  0
  188.7940  177.7170  136.0270 O   0  0  0  0  0  0  0  0  0  0  0  0
  188.3020  177.6030  134.7120 C   0  0  0  0  0  2  0  0  0  0  0  0
  186.8660  178.0960  134.6390 C   0  0  0  0  0  1  0  0  0  0  0  0
  185.3060  179.0010  140.1090 C   0  0  0  0  0  2  0  0  0  0  0  0
  184.2690  177.9520  139.7460 C   0  0  2  0  0  3  0  0  0  0  0  0
  183.2550  177.5230  136.2450 O   0  0  0  0  0  0  0  0  0  0  0  0
  183.7750  178.2020  138.4030 N   0  0  0  0  0  2  0  0  0  0  0  0
  183.8110  177.2400  137.3370 C   0  0  0  0  0  0  0  0  0  0  0  0
  184.4940  175.9120  137.4620 C   0  0  2  0  0  3  0  0  0  0  0  0
  185.6950  175.8890  136.7800 F   0  0  0  0  0  0  0  0  0  0  0  0
  183.2340  174.4740  135.3220 O   0  0  0  0  0  0  0  0  0  0  0  0
  183.4270  174.5130  137.0030 P   0  0  0  0  0  0  0  0  0  0  0  0
  182.0710  174.6740  137.6500 O   0  0  0  0  0  1  0  0  0  0  0  0
  184.1030  173.0540  137.5140 O   0  0  0  0  0  1  0  0  0  0  0  0
  183.3130  178.6210  141.9520 O   0  0  0  0  0  1  0  0  0  0  0  0
  182.0390  177.4420  140.4570 O   0  0  0  0  0  0  0  0  0  0  0  0
  183.1470  177.9720  140.7340 C   0  0  0  0  0  0  0  0  0  0  0  0
  1  4  1  0  0  0  0
  4  6  1  0  0  0  0
  5  1  2  0  0  0  0
  6 10  2  0  0  0  0
  6 11  1  0  0  0  0
  7  3  1  0  0  0  0
  8  3  2  0  0  0  0
  9  1  1  1  0  0  0
  9 12  1  0  0  0  0
 10  8  1  0  0  0  0
 11  7  2  0  0  0  0
 12  2  2  0  0  0  0
 12 10  1  0  0  0  0
 13 20  1  0  0  0  0
 14 18  1  6  0  0  0
 14 20  1  0  0  0  0
 14 15  1  0  0  0  0
 15 24  1  0  0  0  0
 15 16  2  0  0  0  0
 17 18  1  0  0  0  0
 17 22  1  1  0  0  0
 19 16  1  1  0  0  0
 19  9  1  0  0  0  0
 20 26  1  6  0  0  0
 20 19  1  0  0  0  0
 21 17  1  0  0  0  0
 21 13  1  0  0  0  0
 23 22  1  0  0  0  0
 24 25  1  0  0  0  0
 27 26  1  0  0  0  0
 28 27  1  0  0  0  0
 29  4  1  0  0  0  0
 30 29  1  1  0  0  0
 30 42  1  0  0  0  0
 31 33  2  0  0  0  0
 32 30  1  0  0  0  0
 33 34  1  0  0  0  0
 33 32  1  0  0  0  0
 34 35  1  6  0  0  0
 36 37  2  0  0  0  0
 37 34  1  0  0  0  0
 37 39  1  0  0  0  0
 37 38  1  0  0  0  0
 41 42  2  0  0  0  0
 42 40  1  0  0  0  0
M  END
>  <MODEL>
5

>  <REMARK>
 VINA RESULT:      -6.2      3.082      5.543
  Name = 
  11 active torsions:
  status: ('A' for Active; 'I' for Inactive)
    1  A    between atoms: C_4  and  C_31
    2  A    between atoms: C_5  and  O_18
    3  A    between atoms: N_9  and  C_22
    4  A    between atoms: P_10  and  C_11
    5  A    between atoms: C_11  and  C_40
    6  A    between atoms: C_14  and  O_21
    7  A    between atoms: CA_15  and  C_22
    8  A    between atoms: CA_15  and  N_25
    9  A    between atoms: CA_15  and  C_42
   10  A    between atoms: O_18  and  C_38
   11  A    between atoms: C_28  and  C_35
                            x       y       z     vdW  Elec       q    Type
                         _______ _______ _______ _____ _____    ______ ____

>  <TORSDO>
F 11

$$$$
=
 OpenBabel11062413403D

 42 45  0  0  1  0  0  0  0  0999 V2000
  188.3130  178.2080  140.0200 C   0  0  0  0  0  0  0  0  0  0  0  0
  191.8770  177.4170  139.6810 O   0  0  0  0  0  0  0  0  0  0  0  0
  191.6860  177.6270  143.8680 C   0  0  0  0  0  3  0  0  0  0  0  0
  188.2720  178.3960  141.4490 N   0  0  0  0  0  0  0  0  0  0  0  0
  187.3260  178.5320  139.3100 O   0  0  0  0  0  0  0  0  0  0  0  0
  189.4290  178.1230  142.2670 C   0  0  0  0  0  0  0  0  0  0  0  0
  190.4800  177.9970  144.4610 C   0  0  0  0  0  3  0  0  0  0  0  0
  191.7690  177.4990  142.4820 C   0  0  0  0  0  3  0  0  0  0  0  0
  189.5310  177.6340  139.3540 C   0  0  1  0  0  3  0  0  0  0  0  0
  190.6460  177.7360  141.6780 C   0  0  0  0  0  0  0  0  0  0  0  0
  189.3590  178.2420  143.6650 C   0  0  0  0  0  3  0  0  0  0  0  0
  190.7520  177.5850  140.2190 C   0  0  0  0  0  0  0  0  0  0  0  0
  188.2130  175.2070  136.6680 C   0  0  0  0  0  2  0  0  0  0  0  0
  190.5750  176.1440  136.4770 C   0  0  1  0  0  3  0  0  0  0  0  0
  191.1950  175.4000  137.5990 C   0  0  0  0  0  0  0  0  0  0  0  0
  190.5390  175.5030  138.7010 N   0  0  0  0  0  0  0  0  0  0  0  0
  189.7060  174.3180  134.8760 C   0  0  2  0  0  3  0  0  0  0  0  0
  190.7000  175.4580  135.1080 C   0  0  0  0  0  2  0  0  0  0  0  0
  189.3640  176.3410  138.5230 C   0  0  2  0  0  3  0  0  0  0  0  0
  189.1420  176.4040  136.9920 C   0  0  2  0  0  0  0  0  0  0  0  0
  188.2940  174.7690  135.2140 C   0  0  0  0  0  2  0  0  0  0  0  0
  190.0820  173.0500  135.6430 C   0  0  0  0  0  2  0  0  0  0  0  0
  189.5600  171.8220  134.9220 C   0  0  0  0  0  1  0  0  0  0  0  0
  192.3880  174.6790  137.4930 O   0  0  0  0  0  0  0  0  0  0  0  0
  193.6490  175.3200  137.5000 C   0  0  0  0  0  1  0  0  0  0  0  0
  188.7060  177.6850  136.5450 O   0  0  0  0  0  0  0  0  0  0  0  0
  187.3630  177.6860  136.1190 C   0  0  0  0  0  2  0  0  0  0  0  0
  187.2660  178.1510  134.6760 C   0  0  0  0  0  1  0  0  0  0  0  0
  187.0690  178.9490  142.0620 C   0  0  0  0  0  2  0  0  0  0  0  0
  186.1190  177.8310  142.4580 C   0  0  2  0  0  3  0  0  0  0  0  0
  182.7050  178.9960  141.7810 O   0  0  0  0  0  0  0  0  0  0  0  0
  184.7780  178.3660  142.6160 N   0  0  0  0  0  2  0  0  0  0  0  0
  183.8830  178.6390  141.5250 C   0  0  0  0  0  0  0  0  0  0  0  0
  184.2950  178.5280  140.0880 C   0  0  2  0  0  3  0  0  0  0  0  0
  184.6070  179.7610  139.5500 F   0  0  0  0  0  0  0  0  0  0  0  0
  182.5140  176.2840  139.9170 O   0  0  0  0  0  1  0  0  0  0  0  0
  183.0900  177.6290  139.0660 P   0  0  0  0  0  0  0  0  0  0  0  0
  183.7550  177.1580  137.7930 O   0  0  0  0  0  0  0  0  0  0  0  0
  181.7890  178.6250  138.6630 O   0  0  0  0  0  1  0  0  0  0  0  0
  186.3190  177.7950  144.9450 O   0  0  0  0  0  1  0  0  0  0  0  0
  187.1740  176.0740  143.6980 O   0  0  0  0  0  0  0  0  0  0  0  0
  186.5820  177.1850  143.7240 C   0  0  0  0  0  0  0  0  0  0  0  0
  1  4  1  0  0  0  0
  2 12  2  0  0  0  0
  3  7  1  0  0  0  0
  4 29  1  0  0  0  0
  4  6  1  0  0  0  0
  5  1  2  0  0  0  0
  6 11  1  0  0  0  0
  8  3  2  0  0  0  0
  9  1  1  1  0  0  0
  9 12  1  0  0  0  0
 10  6  2  0  0  0  0
 10  8  1  0  0  0  0
 11  7  2  0  0  0  0
 12 10  1  0  0  0  0
 13 20  1  0  0  0  0
 14 18  1  6  0  0  0
 14 20  1  0  0  0  0
 14 15  1  0  0  0  0
 15 16  2  0  0  0  0
 17 18  1  0  0  0  0
 17 21  1  0  0  0  0
 17 22  1  1  0  0  0
 19 16  1  6  0  0  0
 19  9  1  0  0  0  0
 20 26  1  6  0  0  0
 20 19  1  0  0  0  0
 21 13  1  0  0  0  0
 23 22  1  0  0  0  0
 24 25  1  0  0  0  0
 24 15  1  0  0  0  0
 27 26  1  0  0  0  0
 28 27  1  0  0  0  0
 30 29  1  1  0  0  0
 30 32  1  0  0  0  0
 30 42  1  0  0  0  0
 33 31  2  0  0  0  0
 33 32  1  0  0  0  0
 34 35  1  6  0  0  0
 34 33  1  0  0  0  0
 37 36  1  0  0  0  0
 37 34  1  0  0  0  0
 38 37  2  0  0  0  0
 39 37  1  0  0  0  0
 41 42  2  0  0  0  0
 42 40  1  0  0  0  0
M  END
>  <MODEL>
6

>  <REMARK>
 VINA RESULT:      -6.1      3.268      6.811
  Name = 
  11 active torsions:
  status: ('A' for Active; 'I' for Inactive)
    1  A    between atoms: C_4  and  C_31
    2  A    between atoms: C_5  and  O_18
    3  A    between atoms: N_9  and  C_22
    4  A    between atoms: P_10  and  C_11
    5  A    between atoms: C_11  and  C_40
    6  A    between atoms: C_14  and  O_21
    7  A    between atoms: CA_15  and  C_22
    8  A    between atoms: CA_15  and  N_25
    9  A    between atoms: CA_15  and  C_42
   10  A    between atoms: O_18  and  C_38
   11  A    between atoms: C_28  and  C_35
                            x       y       z     vdW  Elec       q    Type
                         _______ _______ _______ _____ _____    ______ ____

>  <TORSDO>
F 11

$$$$
=
 OpenBabel11062413403D

 42 45  0  0  1  0  0  0  0  0999 V2000
  186.5740  178.0570  142.2600 C   0  0  0  0  0  0  0  0  0  0  0  0
  189.4410  175.9280  143.0870 O   0  0  0  0  0  0  0  0  0  0  0  0
  190.6250  177.0880  139.2310 C   0  0  0  0  0  3  0  0  0  0  0  0
  186.9220  178.3600  140.8930 N   0  0  0  0  0  0  0  0  0  0  0  0
  185.4350  178.3560  142.7040 O   0  0  0  0  0  0  0  0  0  0  0  0
  188.1830  177.9360  140.3380 C   0  0  0  0  0  0  0  0  0  0  0  0
  189.7560  177.8740  138.4780 C   0  0  0  0  0  3  0  0  0  0  0  0
  190.2830  176.7270  140.5340 C   0  0  0  0  0  3  0  0  0  0  0  0
  187.5530  177.3720  143.1690 C   0  0  1  0  0  3  0  0  0  0  0  0
  189.0720  177.1540  141.0960 C   0  0  0  0  0  0  0  0  0  0  0  0
  188.5440  178.2970  139.0280 C   0  0  0  0  0  3  0  0  0  0  0  0
  188.7360  176.7710  142.4750 C   0  0  0  0  0  0  0  0  0  0  0  0
  187.2250  179.1160  146.5890 C   0  0  0  0  0  2  0  0  0  0  0  0
  188.2460  176.7850  146.4500 C   0  0  1  0  0  3  0  0  0  0  0  0
  189.5260  177.1480  145.7960 C   0  0  0  0  0  0  0  0  0  0  0  0
  189.3700  177.8570  144.7330 N   0  0  0  0  0  0  0  0  0  0  0  0
  188.2270  178.1290  148.6510 C   0  0  2  0  0  3  0  0  0  0  0  0
  188.2990  176.7540  147.9850 C   0  0  0  0  0  2  0  0  0  0  0  0
  187.9590  178.0930  144.4750 C   0  0  2  0  0  3  0  0  0  0  0  0
  187.2460  177.7740  145.8120 C   0  0  2  0  0  0  0  0  0  0  0  0
  187.0630  178.9300  148.0900 C   0  0  0  0  0  2  0  0  0  0  0  0
  189.5410  178.9040  148.5350 C   0  0  0  0  0  2  0  0  0  0  0  0
  190.6640  178.1430  149.2130 C   0  0  0  0  0  1  0  0  0  0  0  0
  190.7820  176.7420  146.2580 O   0  0  0  0  0  0  0  0  0  0  0  0
  191.8180  176.3720  145.3700 C   0  0  0  0  0  1  0  0  0  0  0  0
  185.9900  177.1250  145.6320 O   0  0  0  0  0  0  0  0  0  0  0  0
  184.9460  177.7530  146.3390 C   0  0  0  0  0  2  0  0  0  0  0  0
  184.1250  178.6280  145.4050 C   0  0  0  0  0  1  0  0  0  0  0  0
  185.9460  179.0340  140.0410 C   0  0  0  0  0  2  0  0  0  0  0  0
  185.0660  178.0120  139.3420 C   0  0  2  0  0  3  0  0  0  0  0  0
  185.5820  177.3880  135.7610 O   0  0  0  0  0  0  0  0  0  0  0  0
  185.1700  178.1850  137.9030 N   0  0  0  0  0  2  0  0  0  0  0  0
  185.6380  177.1700  136.9990 C   0  0  0  0  0  0  0  0  0  0  0  0
  186.2020  175.8620  137.4660 C   0  0  2  0  0  3  0  0  0  0  0  0
  187.4570  175.6310  136.9380 F   0  0  0  0  0  0  0  0  0  0  0  0
  185.6850  173.0830  137.9640 O   0  0  0  0  0  1  0  0  0  0  0  0
  185.0800  174.4590  137.1850 P   0  0  0  0  0  0  0  0  0  0  0  0
  184.9780  174.1800  135.7030 O   0  0  0  0  0  0  0  0  0  0  0  0
  183.5390  174.7980  137.7810 O   0  0  0  0  0  1  0  0  0  0  0  0
  182.9310  177.0380  140.1920 O   0  0  0  0  0  1  0  0  0  0  0  0
  183.1080  179.2960  139.8440 O   0  0  0  0  0  0  0  0  0  0  0  0
  183.6480  178.1600  139.7900 C   0  0  0  0  0  0  0  0  0  0  0  0
  1  5  2  0  0  0  0
  3  8  1  0  0  0  0
  4  1  1  0  0  0  0
  6  4  1  0  0  0  0
  6 10  1  0  0  0  0
  7 11  1  0  0  0  0
  7  3  2  0  0  0  0
  8 10  2  0  0  0  0
  9  1  1  6  0  0  0
  9 19  1  0  0  0  0
 10 12  1  0  0  0  0
 11  6  2  0  0  0  0
 12  2  2  0  0  0  0
 12  9  1  0  0  0  0
 13 21  1  0  0  0  0
 14 18  1  1  0  0  0
 15 24  1  0  0  0  0
 15 14  1  0  0  0  0
 16 15  2  0  0  0  0
 17 22  1  6  0  0  0
 18 17  1  0  0  0  0
 19 16  1  1  0  0  0
 19 20  1  0  0  0  0
 20 26  1  6  0  0  0
 20 14  1  0  0  0  0
 20 13  1  0  0  0  0
 21 17  1  0  0  0  0
 22 23  1  0  0  0  0
 25 24  1  0  0  0  0
 26 27  1  0  0  0  0
 28 27  1  0  0  0  0
 29  4  1  0  0  0  0
 30 42  1  0  0  0  0
 30 29  1  1  0  0  0
 31 33  2  0  0  0  0
 32 30  1  0  0  0  0
 33 34  1  0  0  0  0
 33 32  1  0  0  0  0
 34 35  1  6  0  0  0
 37 34  1  0  0  0  0
 37 39  1  0  0  0  0
 37 36  1  0  0  0  0
 38 37  2  0  0  0  0
 42 41  2  0  0  0  0
 42 40  1  0  0  0  0
M  END
>  <MODEL>
7

>  <REMARK>
 VINA RESULT:      -5.9      1.905      4.873
  Name = 
  11 active torsions:
  status: ('A' for Active; 'I' for Inactive)
    1  A    between atoms: C_4  and  C_31
    2  A    between atoms: C_5  and  O_18
    3  A    between atoms: N_9  and  C_22
    4  A    between atoms: P_10  and  C_11
    5  A    between atoms: C_11  and  C_40
    6  A    between atoms: C_14  and  O_21
    7  A    between atoms: CA_15  and  C_22
    8  A    between atoms: CA_15  and  N_25
    9  A    between atoms: CA_15  and  C_42
   10  A    between atoms: O_18  and  C_38
   11  A    between atoms: C_28  and  C_35
                            x       y       z     vdW  Elec       q    Type
                         _______ _______ _______ _____ _____    ______ ____

>  <TORSDO>
F 11

$$$$
=
 OpenBabel11062413403D

 42 45  0  0  1  0  0  0  0  0999 V2000
  190.0680  176.4300  138.4470 C   0  0  0  0  0  0  0  0  0  0  0  0
  189.0700  179.8710  137.6730 O   0  0  0  0  0  0  0  0  0  0  0  0
  186.5100  177.8720  135.0150 C   0  0  0  0  0  3  0  0  0  0  0  0
  189.2750  175.7500  137.4530 N   0  0  0  0  0  0  0  0  0  0  0  0
  190.9490  175.8040  139.0910 O   0  0  0  0  0  0  0  0  0  0  0  0
  188.3310  176.4720  136.6360 C   0  0  0  0  0  0  0  0  0  0  0  0
  186.6090  176.4860  134.9120 C   0  0  0  0  0  3  0  0  0  0  0  0
  187.3110  178.5610  135.9250 C   0  0  0  0  0  3  0  0  0  0  0  0
  189.8660  177.8920  138.7250 C   0  0  1  0  0  3  0  0  0  0  0  0
  188.2140  177.8690  136.7430 C   0  0  0  0  0  0  0  0  0  0  0  0
  187.5130  175.7910  135.7190 C   0  0  0  0  0  3  0  0  0  0  0  0
  189.0420  178.6130  137.7040 C   0  0  0  0  0  0  0  0  0  0  0  0
  187.7230  179.0060  141.7260 C   0  0  0  0  0  2  0  0  0  0  0  0
  188.6760  176.6440  141.6600 C   0  0  1  0  0  3  0  0  0  0  0  0
  190.1030  176.9790  141.8790 C   0  0  0  0  0  0  0  0  0  0  0  0
  190.5420  177.8830  141.0750 N   0  0  0  0  0  0  0  0  0  0  0  0
  187.4570  177.5570  143.7410 C   0  0  2  0  0  3  0  0  0  0  0  0
  187.8890  176.3270  142.9410 C   0  0  0  0  0  2  0  0  0  0  0  0
  189.4940  178.3140  140.1650 C   0  0  2  0  0  3  0  0  0  0  0  0
  188.1730  177.8350  140.8150 C   0  0  2  0  0  0  0  0  0  0  0  0
  186.7760  178.5680  142.8320 C   0  0  0  0  0  2  0  0  0  0  0  0
  188.6170  178.1930  144.5080 C   0  0  0  0  0  2  0  0  0  0  0  0
  188.9620  177.3620  145.7290 C   0  0  0  0  0  1  0  0  0  0  0  0
  190.9110  176.3620  142.8390 O   0  0  0  0  0  0  0  0  0  0  0  0
  191.9300  177.0680  143.5200 C   0  0  0  0  0  1  0  0  0  0  0  0
  187.2200  177.3700  139.8640 O   0  0  0  0  0  0  0  0  0  0  0  0
  186.1510  178.2680  139.6780 C   0  0  0  0  0  2  0  0  0  0  0  0
  185.1880  177.7360  138.6300 C   0  0  0  0  0  1  0  0  0  0  0  0
  189.4950  174.3260  137.2160 C   0  0  0  0  0  2  0  0  0  0  0  0
  190.8370  174.1080  136.5370 C   0  0  2  0  0  3  0  0  0  0  0  0
  192.4410  176.7790  134.5980 O   0  0  0  0  0  0  0  0  0  0  0  0
  191.0800  175.1790  135.5870 N   0  0  0  0  0  2  0  0  0  0  0  0
  192.2910  175.9500  135.5320 C   0  0  0  0  0  0  0  0  0  0  0  0
  193.3860  175.8190  136.5470 C   0  0  2  0  0  3  0  0  0  0  0  0
  193.2710  176.7640  137.5470 F   0  0  0  0  0  0  0  0  0  0  0  0
  195.4650  177.3830  135.3340 O   0  0  0  0  0  1  0  0  0  0  0  0
  195.0480  175.8130  135.8100 P   0  0  0  0  0  0  0  0  0  0  0  0
  195.0630  174.9110  134.5970 O   0  0  0  0  0  0  0  0  0  0  0  0
  196.1910  175.2510  136.9180 O   0  0  0  0  0  1  0  0  0  0  0  0
  189.6610  172.1800  135.4750 O   0  0  0  0  0  0  0  0  0  0  0  0
  191.9490  172.2160  135.5780 O   0  0  0  0  0  1  0  0  0  0  0  0
  190.8580  172.7790  135.8520 C   0  0  0  0  0  0  0  0  0  0  0  0
  1  9  1  0  0  0  0
  1  5  2  0  0  0  0
  2 12  2  0  0  0  0
  3  8  1  0  0  0  0
  4  1  1  0  0  0  0
  6 10  1  0  0  0  0
  6  4  1  0  0  0  0
  7  3  2  0  0  0  0
  7 11  1  0  0  0  0
  8 10  2  0  0  0  0
  9 12  1  6  0  0  0
  9 19  1  0  0  0  0
 10 12  1  0  0  0  0
 11  6  2  0  0  0  0
 13 21  1  0  0  0  0
 14 15  1  0  0  0  0
 14 18  1  1  0  0  0
 15 24  1  0  0  0  0
 16 15  2  0  0  0  0
 17 22  1  6  0  0  0
 18 17  1  0  0  0  0
 19 20  1  0  0  0  0
 19 16  1  1  0  0  0
 20 26  1  6  0  0  0
 20 14  1  0  0  0  0
 20 13  1  0  0  0  0
 21 17  1  0  0  0  0
 22 23  1  0  0  0  0
 24 25  1  0  0  0  0
 27 26  1  0  0  0  0
 28 27  1  0  0  0  0
 29  4  1  0  0  0  0
 30 29  1  6  0  0  0
 31 33  2  0  0  0  0
 32 30  1  0  0  0  0
 33 32  1  0  0  0  0
 33 34  1  0  0  0  0
 34 35  1  1  0  0  0
 36 37  1  0  0  0  0
 37 34  1  0  0  0  0
 37 39  1  0  0  0  0
 38 37  2  0  0  0  0
 40 42  2  0  0  0  0
 41 42  1  0  0  0  0
 42 30  1  0  0  0  0
M  END
>  <MODEL>
8

>  <REMARK>
 VINA RESULT:      -5.9      4.412      6.984
  Name = 
  11 active torsions:
  status: ('A' for Active; 'I' for Inactive)
    1  A    between atoms: C_4  and  C_31
    2  A    between atoms: C_5  and  O_18
    3  A    between atoms: N_9  and  C_22
    4  A    between atoms: P_10  and  C_11
    5  A    between atoms: C_11  and  C_40
    6  A    between atoms: C_14  and  O_21
    7  A    between atoms: CA_15  and  C_22
    8  A    between atoms: CA_15  and  N_25
    9  A    between atoms: CA_15  and  C_42
   10  A    between atoms: O_18  and  C_38
   11  A    between atoms: C_28  and  C_35
                            x       y       z     vdW  Elec       q    Type
                         _______ _______ _______ _____ _____    ______ ____

>  <TORSDO>
F 11

$$$$
=
 OpenBabel11062413403D

 42 45  0  0  1  0  0  0  0  0999 V2000
  185.4090  178.6250  141.0500 C   0  0  0  0  0  0  0  0  0  0  0  0
  185.6030  179.5340  144.5960 O   0  0  0  0  0  0  0  0  0  0  0  0
  181.4900  178.7230  144.3890 C   0  0  0  0  0  3  0  0  0  0  0  0
  183.9800  178.4600  140.9500 N   0  0  0  0  0  0  0  0  0  0  0  0
  186.1190  178.6400  140.0100 O   0  0  0  0  0  0  0  0  0  0  0  0
  183.1410  178.5390  142.1210 C   0  0  0  0  0  0  0  0  0  0  0  0
  180.9370  178.4010  143.1510 C   0  0  0  0  0  3  0  0  0  0  0  0
  182.8610  178.9480  144.5010 C   0  0  0  0  0  3  0  0  0  0  0  0
  186.0740  178.7900  142.3860 C   0  0  1  0  0  3  0  0  0  0  0  0
  183.6920  178.8500  143.3760 C   0  0  0  0  0  0  0  0  0  0  0  0
  181.7580  178.3080  142.0250 C   0  0  0  0  0  3  0  0  0  0  0  0
  185.1370  179.0810  143.5170 C   0  0  0  0  0  0  0  0  0  0  0  0
  189.0960  176.4190  142.0910 C   0  0  0  0  0  2  0  0  0  0  0  0
  189.3110  178.5840  143.4190 C   0  0  1  0  0  3  0  0  0  0  0  0
  188.4630  178.2130  144.5760 C   0  0  0  0  0  0  0  0  0  0  0  0
  187.3040  177.7670  144.2360 N   0  0  0  0  0  0  0  0  0  0  0  0
  191.1920  176.8190  143.3870 C   0  0  2  0  0  3  0  0  0  0  0  0
  190.8070  178.2850  143.5990 C   0  0  0  0  0  2  0  0  0  0  0  0
  187.1600  177.7660  142.7900 C   0  0  2  0  0  3  0  0  0  0  0  0
  188.6020  177.8810  142.2400 C   0  0  2  0  0  0  0  0  0  0  0  0
  190.6120  176.3030  142.0790 C   0  0  0  0  0  2  0  0  0  0  0  0
  190.7840  175.9310  144.5630 C   0  0  0  0  0  2  0  0  0  0  0  0
  191.6800  176.1920  145.7580 C   0  0  0  0  0  1  0  0  0  0  0  0
  188.8580  178.3550  145.9100 O   0  0  0  0  0  0  0  0  0  0  0  0
  188.3450  177.5220  146.9320 C   0  0  0  0  0  1  0  0  0  0  0  0
  188.6910  178.7020  141.0790 O   0  0  0  0  0  0  0  0  0  0  0  0
  189.2990  178.0450  139.9910 C   0  0  0  0  0  2  0  0  0  0  0  0
  189.0560  178.8150  138.7030 C   0  0  0  0  0  1  0  0  0  0  0  0
  183.3700  178.2950  139.6340 C   0  0  0  0  0  2  0  0  0  0  0  0
  182.2380  179.2920  139.4510 C   0  0  2  0  0  3  0  0  0  0  0  0
  180.3190  177.2360  137.0920 O   0  0  0  0  0  0  0  0  0  0  0  0
  181.1480  178.6610  138.7270 N   0  0  0  0  0  2  0  0  0  0  0  0
  181.3230  177.8210  137.5750 C   0  0  0  0  0  0  0  0  0  0  0  0
  182.6510  177.6160  136.9110 C   0  0  2  0  0  3  0  0  0  0  0  0
  182.6770  178.1600  135.6420 F   0  0  0  0  0  0  0  0  0  0  0  0
  182.6710  175.1190  135.4950 O   0  0  0  0  0  0  0  0  0  0  0  0
  183.1920  175.8800  136.9150 P   0  0  0  0  0  0  0  0  0  0  0  0
  182.5940  175.1640  138.1040 O   0  0  0  0  0  1  0  0  0  0  0  0
  184.8740  175.7780  137.0100 O   0  0  0  0  0  1  0  0  0  0  0  0
  184.0860  180.8010  138.7180 O   0  0  0  0  0  1  0  0  0  0  0  0
  181.9300  181.2250  138.0700 O   0  0  0  0  0  0  0  0  0  0  0  0
  182.7290  180.5000  138.7180 C   0  0  0  0  0  0  0  0  0  0  0  0
  3  8  1  0  0  0  0
  4  1  1  0  0  0  0
  4  6  1  0  0  0  0
  5  1  2  0  0  0  0
  6 10  1  0  0  0  0
  7  3  2  0  0  0  0
  9  1  1  6  0  0  0
  9 19  1  0  0  0  0
  9 12  1  0  0  0  0
 10 12  1  0  0  0  0
 10  8  2  0  0  0  0
 11  6  2  0  0  0  0
 11  7  1  0  0  0  0
 12  2  2  0  0  0  0
 13 20  1  0  0  0  0
 14 18  1  1  0  0  0
 14 15  1  0  0  0  0
 15 24  1  0  0  0  0
 16 15  2  0  0  0  0
 17 18  1  0  0  0  0
 17 22  1  1  0  0  0
 19 16  1  1  0  0  0
 20 26  1  6  0  0  0
 20 19  1  0  0  0  0
 20 14  1  0  0  0  0
 21 13  1  0  0  0  0
 21 17  1  0  0  0  0
 22 23  1  0  0  0  0
 24 25  1  0  0  0  0
 27 26  1  0  0  0  0
 28 27  1  0  0  0  0
 29  4  1  0  0  0  0
 30 29  1  6  0  0  0
 31 33  2  0  0  0  0
 32 30  1  0  0  0  0
 33 32  1  0  0  0  0
 34 35  1  6  0  0  0
 34 37  1  0  0  0  0
 34 33  1  0  0  0  0
 36 37  2  0  0  0  0
 37 39  1  0  0  0  0
 37 38  1  0  0  0  0
 41 42  2  0  0  0  0
 42 40  1  0  0  0  0
 42 30  1  0  0  0  0
M  END
>  <MODEL>
9

>  <REMARK>
 VINA RESULT:      -5.8      1.656      2.432
  Name = 
  11 active torsions:
  status: ('A' for Active; 'I' for Inactive)
    1  A    between atoms: C_4  and  C_31
    2  A    between atoms: C_5  and  O_18
    3  A    between atoms: N_9  and  C_22
    4  A    between atoms: P_10  and  C_11
    5  A    between atoms: C_11  and  C_40
    6  A    between atoms: C_14  and  O_21
    7  A    between atoms: CA_15  and  C_22
    8  A    between atoms: CA_15  and  N_25
    9  A    between atoms: CA_15  and  C_42
   10  A    between atoms: O_18  and  C_38
   11  A    between atoms: C_28  and  C_35
                            x       y       z     vdW  Elec       q    Type
                         _______ _______ _______ _____ _____    ______ ____

>  <TORSDO>
F 11

$$$$
