=
 OpenBabel11062417293D

 47 49  0  0  1  0  0  0  0  0999 V2000
  190.0800  178.9130  143.6520 C   0  0  0  0  0  2  0  0  0  0  0  0
  188.5340  177.0230  144.3770 C   0  0  1  0  0  3  0  0  0  0  0  0
  189.3270  177.6650  143.2150 C   0  0  1  0  0  3  0  0  0  0  0  0
  191.4310  178.5310  144.1760 C   0  0  0  0  0  3  0  0  0  0  0  0
  191.6490  177.5750  145.0890 C   0  0  0  0  0  3  0  0  0  0  0  0
  190.6120  176.8050  145.7200 N   0  0  0  0  0  2  0  0  0  0  0  0
  189.2010  177.1710  145.7490 C   0  0  0  0  0  2  0  0  0  0  0  0
  187.0620  177.4510  144.4340 C   0  0  0  0  0  2  0  0  0  0  0  0
  186.6220  177.8750  145.8320 C   0  0  0  0  0  2  0  0  0  0  0  0
  185.1990  178.4110  145.8140 C   0  0  0  0  0  2  0  0  0  0  0  0
  183.4490  178.8300  144.1650 C   0  0  0  0  0  3  0  0  0  0  0  0
  184.7190  178.5390  144.4110 C   0  0  0  0  0  3  0  0  0  0  0  0
  180.5600  178.8950  143.6200 C   0  0  0  0  0  2  0  0  0  0  0  0
  179.9660  180.3380  141.1950 O   0  0  0  0  0  0  0  0  0  0  0  0
  178.9350  179.8760  142.0420 C   0  0  0  0  0  2  0  0  0  0  0  0
  181.0390  179.4130  141.1970 C   0  0  1  0  0  3  0  0  0  0  0  0
  182.9360  178.9810  142.7930 C   0  0  0  0  0  0  0  0  0  0  0  0
  181.5290  179.1400  142.5540 N   0  0  0  0  0  0  0  0  0  0  0  0
  179.3990  179.8660  143.4920 C   0  0  0  0  0  2  0  0  0  0  0  0
  183.7430  178.9940  141.8220 O   0  0  0  0  0  0  0  0  0  0  0  0
  180.7400  178.1550  140.4260 C   0  0  0  0  0  0  0  0  0  0  0  0
  180.8060  177.0610  140.9660 O   0  0  0  0  0  0  0  0  0  0  0  0
  180.3830  178.2540  138.9740 C   0  0  0  0  0  2  0  0  0  0  0  0
  181.0720  179.8570  137.3360 F   0  0  0  0  0  0  0  0  0  0  0  0
  181.5250  178.8190  138.1320 C   0  0  2  0  0  3  0  0  0  0  0  0
  182.1830  177.7360  137.2860 C   0  0  0  0  0  2  0  0  0  0  0  0
  183.0800  175.5800  138.4060 C   0  0  0  0  0  1  0  0  0  0  0  0
  183.2450  177.0220  138.0580 C   0  0  0  0  0  0  0  0  0  0  0  0
  184.2930  177.6980  138.5250 C   0  0  0  0  0  2  0  0  0  0  0  0
  188.5080  177.9440  142.1150 O   0  0  0  0  0  0  0  0  0  0  0  0
  190.5780  177.2010  138.5410 C   0  0  0  0  0  0  0  0  0  0  0  0
  191.1650  176.6780  139.8210 C   0  0  0  0  0  2  0  0  0  0  0  0
  189.4410  178.0810  138.5710 N   0  0  0  0  0  0  0  0  0  0  0  0
  191.1450  176.9310  137.4490 O   0  0  0  0  0  0  0  0  0  0  0  0
  188.5600  178.1140  139.7350 C   0  0  0  0  0  2  0  0  0  0  0  0
  190.1290  176.6390  140.9430 C   0  0  0  0  0  2  0  0  0  0  0  0
  189.3690  177.9580  141.0150 C   0  0  2  0  0  3  0  0  0  0  0  0
  189.2020  179.0170  137.4820 C   0  0  0  0  0  2  0  0  0  0  0  0
  188.0130  178.5830  136.6890 C   0  0  0  0  0  0  0  0  0  0  0  0
  186.9150  179.0600  136.9280 O   0  0  0  0  0  0  0  0  0  0  0  0
  188.1720  177.5720  135.6020 C   0  0  0  0  0  2  0  0  0  0  0  0
  187.1710  176.4410  135.7780 C   0  0  0  0  0  2  0  0  0  0  0  0
  187.4840  175.7030  136.9920 N   0  0  0  0  0  2  0  0  0  0  0  0
  186.3650  175.0240  137.3400 O   0  0  0  0  0  0  0  0  0  0  0  0
  187.2670  172.8660  135.8420 O   0  0  0  0  0  0  0  0  0  0  0  0
  184.8930  173.8310  135.3070 O   0  0  0  0  0  0  0  0  0  0  0  0
  186.1660  173.8670  136.1190 P   0  0  0  0  0  0  0  0  0  0  0  0
  1  4  1  0  0  0  0
  2  8  1  1  0  0  0
  2  7  1  0  0  0  0
  3 30  1  6  0  0  0
  3  1  1  0  0  0  0
  3  2  1  0  0  0  0
  4  5  2  0  0  0  0
  5  6  1  0  0  0  0
  6  7  1  0  0  0  0
  8  9  1  0  0  0  0
 10  9  1  0  0  0  0
 11 12  2  0  0  0  0
 12 10  1  0  0  0  0
 14 16  1  0  0  0  0
 14 15  1  0  0  0  0
 15 19  1  0  0  0  0
 16 21  1  1  0  0  0
 16 18  1  0  0  0  0
 17 11  1  0  0  0  0
 18 17  1  0  0  0  0
 18 13  1  0  0  0  0
 19 13  1  0  0  0  0
 20 17  2  0  0  0  0
 21 22  2  0  0  0  0
 23 21  1  0  0  0  0
 25 24  1  6  0  0  0
 25 23  1  0  0  0  0
 26 28  1  0  0  0  0
 26 25  1  0  0  0  0
 28 27  1  0  0  0  0
 28 29  2  0  0  0  0
 31 33  1  0  0  0  0
 31 32  1  0  0  0  0
 32 36  1  0  0  0  0
 33 35  1  0  0  0  0
 34 31  2  0  0  0  0
 35 37  1  0  0  0  0
 36 37  1  0  0  0  0
 37 30  1  1  0  0  0
 38 33  1  0  0  0  0
 39 40  2  0  0  0  0
 39 38  1  0  0  0  0
 41 42  1  0  0  0  0
 41 39  1  0  0  0  0
 42 43  1  0  0  0  0
 43 44  1  0  0  0  0
 45 47  2  0  0  0  0
 46 47  2  0  0  0  0
 47 44  1  0  0  0  0
M  END
>  <MODEL>
1

>  <REMARK>
 VINA RESULT:      -7.0      0.000      0.000
  Name = 
  19 active torsions:
  status: ('A' for Active; 'I' for Inactive)
    1  A    between atoms: O_2  and  C_24
    2  A    between atoms: O_2  and  C_46
    3  A    between atoms: C_4  and  C_32
    4  A    between atoms: C_4  and  C_35
    5  A    between atoms: C_5  and  C_29
    6  A    between atoms: C_5  and  C_37
    7  A    between atoms: N_8  and  C_47
    8  A    between atoms: C_9  and  C_33
    9  A    between atoms: C_11  and  C_19
   10  A    between atoms: C_11  and  C_22
   11  A    between atoms: C_13  and  C_19
   12  A    between atoms: C_15  and  C_17
   13  A    between atoms: C_15  and  C_27
   14  A    between atoms: C_22  and  C_31
   15  A    between atoms: N_23  and  C_32
   16  A    between atoms: N_23  and  O_41
   17  A    between atoms: C_27  and  C_37
   18  A    between atoms: P_30  and  O_41
   19  A    between atoms: C_35  and  C_47
                            x       y       z     vdW  Elec       q    Type
                         _______ _______ _______ _____ _____    ______ ____

>  <TORSDO>
F 19

$$$$
=
 OpenBabel11062417293D

 47 49  0  0  1  0  0  0  0  0999 V2000
  188.9780  177.8450  145.1520 C   0  0  0  0  0  2  0  0  0  0  0  0
  186.4950  177.4720  145.5790 C   0  0  1  0  0  3  0  0  0  0  0  0
  187.8200  176.8610  145.0700 C   0  0  1  0  0  3  0  0  0  0  0  0
  189.6200  177.7570  146.5030 C   0  0  0  0  0  3  0  0  0  0  0  0
  188.9550  177.8010  147.6650 C   0  0  0  0  0  3  0  0  0  0  0  0
  187.5330  177.9750  147.7790 N   0  0  0  0  0  2  0  0  0  0  0  0
  186.6670  178.4820  146.7200 C   0  0  0  0  0  2  0  0  0  0  0  0
  185.6100  178.0490  144.4670 C   0  0  0  0  0  2  0  0  0  0  0  0
  184.6490  179.1230  144.9700 C   0  0  0  0  0  2  0  0  0  0  0  0
  183.2060  178.6610  144.8490 C   0  0  0  0  0  2  0  0  0  0  0  0
  181.3010  179.0310  143.3680 C   0  0  0  0  0  3  0  0  0  0  0  0
  182.5460  179.3440  143.7030 C   0  0  0  0  0  3  0  0  0  0  0  0
  181.4540  177.9640  140.6320 C   0  0  0  0  0  2  0  0  0  0  0  0
  179.1540  178.7190  139.0650 O   0  0  0  0  0  0  0  0  0  0  0  0
  180.1210  177.8230  138.5600 C   0  0  0  0  0  2  0  0  0  0  0  0
  179.7830  179.6980  139.8740 C   0  0  1  0  0  3  0  0  0  0  0  0
  180.6050  179.6930  142.2530 C   0  0  0  0  0  0  0  0  0  0  0  0
  180.5810  179.0930  140.9490 N   0  0  0  0  0  0  0  0  0  0  0  0
  180.7400  177.0110  139.6890 C   0  0  0  0  0  2  0  0  0  0  0  0
  180.0050  180.7860  142.4520 O   0  0  0  0  0  0  0  0  0  0  0  0
  180.5570  180.7160  139.0810 C   0  0  0  0  0  0  0  0  0  0  0  0
  181.7230  180.5160  138.7780 O   0  0  0  0  0  0  0  0  0  0  0  0
  179.8880  181.9970  138.6860 C   0  0  0  0  0  2  0  0  0  0  0  0
  179.4460  180.7700  136.6800 F   0  0  0  0  0  0  0  0  0  0  0  0
  179.5690  182.0500  137.1940 C   0  0  2  0  0  3  0  0  0  0  0  0
  180.6200  182.8420  136.4260 C   0  0  0  0  0  2  0  0  0  0  0  0
  179.5190  185.1770  136.6350 C   0  0  0  0  0  1  0  0  0  0  0  0
  180.6690  184.2610  136.8920 C   0  0  0  0  0  0  0  0  0  0  0  0
  181.7810  184.7390  137.4480 C   0  0  0  0  0  2  0  0  0  0  0  0
  187.6970  176.3550  143.7700 O   0  0  0  0  0  0  0  0  0  0  0  0
  190.8040  177.2530  141.0960 C   0  0  0  0  0  0  0  0  0  0  0  0
  191.1650  176.6580  142.4270 C   0  0  0  0  0  2  0  0  0  0  0  0
  189.4530  177.6660  140.8290 N   0  0  0  0  0  0  0  0  0  0  0  0
  191.7130  177.4670  140.2500 O   0  0  0  0  0  0  0  0  0  0  0  0
  188.3430  177.1140  141.6010 C   0  0  0  0  0  2  0  0  0  0  0  0
  189.9610  176.0000  143.0970 C   0  0  0  0  0  2  0  0  0  0  0  0
  188.7530  176.9270  143.0560 C   0  0  2  0  0  3  0  0  0  0  0  0
  189.1780  178.7060  139.8480 C   0  0  0  0  0  2  0  0  0  0  0  0
  188.6470  178.0950  138.5930 C   0  0  0  0  0  0  0  0  0  0  0  0
  189.4190  177.6230  137.7730 O   0  0  0  0  0  0  0  0  0  0  0  0
  187.1750  178.0570  138.3490 C   0  0  0  0  0  2  0  0  0  0  0  0
  186.8860  177.6500  136.9120 C   0  0  0  0  0  2  0  0  0  0  0  0
  186.3320  176.3060  136.8930 N   0  0  0  0  0  2  0  0  0  0  0  0
  185.6200  176.1890  135.7460 O   0  0  0  0  0  0  0  0  0  0  0  0
  183.2720  177.5050  135.0610 O   0  0  0  0  0  0  0  0  0  0  0  0
  183.5330  176.6480  137.5220 O   0  0  0  0  0  0  0  0  0  0  0  0
  184.0880  176.8030  136.1250 P   0  0  0  0  0  0  0  0  0  0  0  0
  1  4  1  0  0  0  0
  2  8  1  6  0  0  0
  2  7  1  0  0  0  0
  3 30  1  6  0  0  0
  3  1  1  0  0  0  0
  3  2  1  0  0  0  0
  4  5  2  0  0  0  0
  5  6  1  0  0  0  0
  7  6  1  0  0  0  0
  8  9  1  0  0  0  0
 10  9  1  0  0  0  0
 11 12  2  0  0  0  0
 12 10  1  0  0  0  0
 13 18  1  0  0  0  0
 14 16  1  0  0  0  0
 15 14  1  0  0  0  0
 15 19  1  0  0  0  0
 16 21  1  6  0  0  0
 16 18  1  0  0  0  0
 17 20  2  0  0  0  0
 17 11  1  0  0  0  0
 18 17  1  0  0  0  0
 19 13  1  0  0  0  0
 22 21  2  0  0  0  0
 23 21  1  0  0  0  0
 25 24  1  6  0  0  0
 25 23  1  0  0  0  0
 26 28  1  0  0  0  0
 26 25  1  0  0  0  0
 27 28  1  0  0  0  0
 28 29  2  0  0  0  0
 31 32  1  0  0  0  0
 32 36  1  0  0  0  0
 33 31  1  0  0  0  0
 33 35  1  0  0  0  0
 34 31  2  0  0  0  0
 35 37  1  0  0  0  0
 37 36  1  0  0  0  0
 37 30  1  1  0  0  0
 38 33  1  0  0  0  0
 39 38  1  0  0  0  0
 40 39  2  0  0  0  0
 41 39  1  0  0  0  0
 42 41  1  0  0  0  0
 43 42  1  0  0  0  0
 44 47  1  0  0  0  0
 44 43  1  0  0  0  0
 45 47  2  0  0  0  0
 47 46  2  0  0  0  0
M  END
>  <MODEL>
2

>  <REMARK>
 VINA RESULT:      -6.6      2.594      3.704
  Name = 
  19 active torsions:
  status: ('A' for Active; 'I' for Inactive)
    1  A    between atoms: O_2  and  C_24
    2  A    between atoms: O_2  and  C_46
    3  A    between atoms: C_4  and  C_32
    4  A    between atoms: C_4  and  C_35
    5  A    between atoms: C_5  and  C_29
    6  A    between atoms: C_5  and  C_37
    7  A    between atoms: N_8  and  C_47
    8  A    between atoms: C_9  and  C_33
    9  A    between atoms: C_11  and  C_19
   10  A    between atoms: C_11  and  C_22
   11  A    between atoms: C_13  and  C_19
   12  A    between atoms: C_15  and  C_17
   13  A    between atoms: C_15  and  C_27
   14  A    between atoms: C_22  and  C_31
   15  A    between atoms: N_23  and  C_32
   16  A    between atoms: N_23  and  O_41
   17  A    between atoms: C_27  and  C_37
   18  A    between atoms: P_30  and  O_41
   19  A    between atoms: C_35  and  C_47
                            x       y       z     vdW  Elec       q    Type
                         _______ _______ _______ _____ _____    ______ ____

>  <TORSDO>
F 19

$$$$
=
 OpenBabel11062417293D

 47 49  0  0  1  0  0  0  0  0999 V2000
  188.8300  177.8290  145.1050 C   0  0  0  0  0  2  0  0  0  0  0  0
  186.2980  177.5560  145.0570 C   0  0  1  0  0  3  0  0  0  0  0  0
  187.6710  176.8700  144.8710 C   0  0  1  0  0  3  0  0  0  0  0  0
  189.1900  177.8400  146.5590 C   0  0  0  0  0  3  0  0  0  0  0  0
  188.3120  178.0000  147.5580 C   0  0  0  0  0  3  0  0  0  0  0  0
  186.9030  178.2190  147.3720 N   0  0  0  0  0  2  0  0  0  0  0  0
  186.2840  178.6550  146.1260 C   0  0  0  0  0  2  0  0  0  0  0  0
  185.6730  178.0570  143.7480 C   0  0  0  0  0  2  0  0  0  0  0  0
  184.5910  179.1090  143.9730 C   0  0  0  0  0  2  0  0  0  0  0  0
  183.2520  178.6360  143.4300 C   0  0  0  0  0  2  0  0  0  0  0  0
  182.1300  178.6770  141.2630 C   0  0  0  0  0  3  0  0  0  0  0  0
  183.2680  178.6560  141.9420 C   0  0  0  0  0  3  0  0  0  0  0  0
  182.0020  176.2010  139.6820 C   0  0  0  0  0  2  0  0  0  0  0  0
  180.7960  176.6470  137.1010 O   0  0  0  0  0  0  0  0  0  0  0  0
  181.1240  175.3460  137.5390 C   0  0  0  0  0  2  0  0  0  0  0  0
  181.7600  177.5710  137.5760 C   0  0  1  0  0  3  0  0  0  0  0  0
  182.1010  178.7150  139.7910 C   0  0  0  0  0  0  0  0  0  0  0  0
  181.9090  177.5080  139.0360 N   0  0  0  0  0  0  0  0  0  0  0  0
  181.0030  175.2450  139.0530 C   0  0  0  0  0  2  0  0  0  0  0  0
  182.2220  179.8190  139.1910 O   0  0  0  0  0  0  0  0  0  0  0  0
  183.0770  177.4790  136.8540 C   0  0  0  0  0  0  0  0  0  0  0  0
  183.1220  177.4970  135.6330 O   0  0  0  0  0  0  0  0  0  0  0  0
  184.3390  177.3370  137.6490 C   0  0  0  0  0  2  0  0  0  0  0  0
  185.9430  176.7770  135.9650 F   0  0  0  0  0  0  0  0  0  0  0  0
  185.2750  176.2790  137.0700 C   0  0  2  0  0  3  0  0  0  0  0  0
  184.5220  175.0010  136.7170 C   0  0  0  0  0  2  0  0  0  0  0  0
  186.7380  173.7020  137.0460 C   0  0  0  0  0  1  0  0  0  0  0  0
  185.2570  173.7940  137.2030 C   0  0  0  0  0  0  0  0  0  0  0  0
  184.5790  172.7540  137.6850 C   0  0  0  0  0  2  0  0  0  0  0  0
  187.7840  176.2580  143.6170 O   0  0  0  0  0  0  0  0  0  0  0  0
  191.0720  177.3350  141.2430 C   0  0  0  0  0  0  0  0  0  0  0  0
  191.3390  176.7760  142.6100 C   0  0  0  0  0  2  0  0  0  0  0  0
  189.7290  177.6570  140.8410 N   0  0  0  0  0  0  0  0  0  0  0  0
  192.0430  177.6010  140.4850 O   0  0  0  0  0  0  0  0  0  0  0  0
  188.5870  177.0400  141.5100 C   0  0  0  0  0  2  0  0  0  0  0  0
  190.1210  176.0460  143.1710 C   0  0  0  0  0  2  0  0  0  0  0  0
  188.8650  176.8920  143.0000 C   0  0  2  0  0  3  0  0  0  0  0  0
  189.4840  178.6690  139.8230 C   0  0  0  0  0  2  0  0  0  0  0  0
  188.9440  178.0290  138.5870 C   0  0  0  0  0  0  0  0  0  0  0  0
  187.7380  177.9550  138.4170 O   0  0  0  0  0  0  0  0  0  0  0  0
  189.8820  177.4870  137.5600 C   0  0  0  0  0  2  0  0  0  0  0  0
  189.7110  175.9820  137.4260 C   0  0  0  0  0  2  0  0  0  0  0  0
  190.5970  175.3090  138.3620 N   0  0  0  0  0  2  0  0  0  0  0  0
  191.0790  174.2120  137.7300 O   0  0  0  0  0  0  0  0  0  0  0  0
  192.8930  175.7440  136.2870 O   0  0  0  0  0  0  0  0  0  0  0  0
  193.8360  173.8980  137.8870 O   0  0  0  0  0  0  0  0  0  0  0  0
  192.6600  174.6310  137.2860 P   0  0  0  0  0  0  0  0  0  0  0  0
  1  4  1  0  0  0  0
  2  8  1  6  0  0  0
  2  7  1  0  0  0  0
  3 30  1  6  0  0  0
  3  2  1  0  0  0  0
  3  1  1  0  0  0  0
  4  5  2  0  0  0  0
  6  5  1  0  0  0  0
  7  6  1  0  0  0  0
  8  9  1  0  0  0  0
 10  9  1  0  0  0  0
 11 12  2  0  0  0  0
 12 10  1  0  0  0  0
 14 15  1  0  0  0  0
 14 16  1  0  0  0  0
 15 19  1  0  0  0  0
 16 21  1  6  0  0  0
 16 18  1  0  0  0  0
 17 11  1  0  0  0  0
 18 13  1  0  0  0  0
 18 17  1  0  0  0  0
 19 13  1  0  0  0  0
 20 17  2  0  0  0  0
 21 23  1  0  0  0  0
 22 21  2  0  0  0  0
 25 24  1  6  0  0  0
 25 23  1  0  0  0  0
 26 25  1  0  0  0  0
 26 28  1  0  0  0  0
 27 28  1  0  0  0  0
 28 29  2  0  0  0  0
 31 32  1  0  0  0  0
 32 36  1  0  0  0  0
 33 31  1  0  0  0  0
 33 35  1  0  0  0  0
 34 31  2  0  0  0  0
 35 37  1  0  0  0  0
 37 36  1  0  0  0  0
 37 30  1  1  0  0  0
 38 33  1  0  0  0  0
 39 38  1  0  0  0  0
 40 39  2  0  0  0  0
 41 39  1  0  0  0  0
 42 41  1  0  0  0  0
 42 43  1  0  0  0  0
 44 43  1  0  0  0  0
 45 47  2  0  0  0  0
 47 44  1  0  0  0  0
 47 46  2  0  0  0  0
M  END
>  <MODEL>
3

>  <REMARK>
 VINA RESULT:      -6.5      2.640      4.125
  Name = 
  19 active torsions:
  status: ('A' for Active; 'I' for Inactive)
    1  A    between atoms: O_2  and  C_24
    2  A    between atoms: O_2  and  C_46
    3  A    between atoms: C_4  and  C_32
    4  A    between atoms: C_4  and  C_35
    5  A    between atoms: C_5  and  C_29
    6  A    between atoms: C_5  and  C_37
    7  A    between atoms: N_8  and  C_47
    8  A    between atoms: C_9  and  C_33
    9  A    between atoms: C_11  and  C_19
   10  A    between atoms: C_11  and  C_22
   11  A    between atoms: C_13  and  C_19
   12  A    between atoms: C_15  and  C_17
   13  A    between atoms: C_15  and  C_27
   14  A    between atoms: C_22  and  C_31
   15  A    between atoms: N_23  and  C_32
   16  A    between atoms: N_23  and  O_41
   17  A    between atoms: C_27  and  C_37
   18  A    between atoms: P_30  and  O_41
   19  A    between atoms: C_35  and  C_47
                            x       y       z     vdW  Elec       q    Type
                         _______ _______ _______ _____ _____    ______ ____

>  <TORSDO>
F 19

$$$$
=
 OpenBabel11062417293D

 47 49  0  0  1  0  0  0  0  0999 V2000
  189.0360  177.7460  145.3320 C   0  0  0  0  0  2  0  0  0  0  0  0
  186.5690  177.5040  145.9210 C   0  0  1  0  0  3  0  0  0  0  0  0
  187.8150  176.8370  145.2940 C   0  0  1  0  0  3  0  0  0  0  0  0
  189.7630  177.5610  146.6290 C   0  0  0  0  0  3  0  0  0  0  0  0
  189.1830  177.5940  147.8360 C   0  0  0  0  0  3  0  0  0  0  0  0
  187.7860  177.8470  148.0590 N   0  0  0  0  0  2  0  0  0  0  0  0
  186.8820  178.4500  147.0860 C   0  0  0  0  0  2  0  0  0  0  0  0
  185.6470  178.1800  144.8980 C   0  0  0  0  0  2  0  0  0  0  0  0
  184.6880  179.1810  145.5360 C   0  0  0  0  0  2  0  0  0  0  0  0
  183.3090  179.0900  144.9030 C   0  0  0  0  0  2  0  0  0  0  0  0
  182.7890  179.0050  142.5200 C   0  0  0  0  0  3  0  0  0  0  0  0
  183.4040  178.4580  143.5600 C   0  0  0  0  0  3  0  0  0  0  0  0
  180.7800  179.6360  140.4670 C   0  0  0  0  0  2  0  0  0  0  0  0
  181.8490  179.3430  137.8050 O   0  0  0  0  0  0  0  0  0  0  0  0
  180.5580  179.8710  138.0200 C   0  0  0  0  0  2  0  0  0  0  0  0
  182.1240  178.3400  138.7690 C   0  0  1  0  0  3  0  0  0  0  0  0
  182.8700  178.4210  141.1710 C   0  0  0  0  0  0  0  0  0  0  0  0
  181.9590  178.8360  140.1410 N   0  0  0  0  0  0  0  0  0  0  0  0
  180.5000  180.6210  139.3440 C   0  0  0  0  0  2  0  0  0  0  0  0
  183.7620  177.5670  140.9120 O   0  0  0  0  0  0  0  0  0  0  0  0
  181.3750  177.0590  138.5220 C   0  0  0  0  0  0  0  0  0  0  0  0
  180.4390  176.7350  139.2370 O   0  0  0  0  0  0  0  0  0  0  0  0
  181.8060  176.1640  137.4000 C   0  0  0  0  0  2  0  0  0  0  0  0
  183.2870  175.2810  139.0590 F   0  0  0  0  0  0  0  0  0  0  0  0
  182.6150  174.9650  137.8910 C   0  0  2  0  0  3  0  0  0  0  0  0
  183.5860  174.4730  136.8250 C   0  0  0  0  0  2  0  0  0  0  0  0
  183.1510  171.9210  136.8970 C   0  0  0  0  0  1  0  0  0  0  0  0
  184.0550  173.0860  137.1250 C   0  0  0  0  0  0  0  0  0  0  0  0
  185.2450  172.8970  137.6920 C   0  0  0  0  0  2  0  0  0  0  0  0
  187.5710  176.3970  143.9870 O   0  0  0  0  0  0  0  0  0  0  0  0
  190.5640  177.1200  141.1360 C   0  0  0  0  0  0  0  0  0  0  0  0
  190.9380  176.3650  142.3800 C   0  0  0  0  0  2  0  0  0  0  0  0
  189.2650  177.7280  141.0200 N   0  0  0  0  0  0  0  0  0  0  0  0
  191.4280  177.2890  140.2350 O   0  0  0  0  0  0  0  0  0  0  0  0
  188.1510  177.2580  141.8390 C   0  0  0  0  0  2  0  0  0  0  0  0
  189.7090  175.8120  143.0970 C   0  0  0  0  0  2  0  0  0  0  0  0
  188.6390  176.8880  143.2330 C   0  0  2  0  0  3  0  0  0  0  0  0
  189.0630  178.8790  140.1520 C   0  0  0  0  0  2  0  0  0  0  0  0
  188.7590  178.4230  138.7630 C   0  0  0  0  0  0  0  0  0  0  0  0
  188.9510  179.1740  137.8210 O   0  0  0  0  0  0  0  0  0  0  0  0
  188.2280  177.0470  138.5320 C   0  0  0  0  0  2  0  0  0  0  0  0
  187.7280  176.9040  137.1030 C   0  0  0  0  0  2  0  0  0  0  0  0
  188.7010  176.1570  136.3230 N   0  0  0  0  0  2  0  0  0  0  0  0
  188.7430  174.9050  136.8390 O   0  0  0  0  0  0  0  0  0  0  0  0
  191.0340  174.0650  135.5140 O   0  0  0  0  0  0  0  0  0  0  0  0
  191.1960  174.5240  138.0870 O   0  0  0  0  0  0  0  0  0  0  0  0
  190.3830  174.4830  136.8140 P   0  0  0  0  0  0  0  0  0  0  0  0
  1  4  1  0  0  0  0
  2  8  1  6  0  0  0
  2  7  1  0  0  0  0
  3 30  1  6  0  0  0
  3  1  1  0  0  0  0
  3  2  1  0  0  0  0
  4  5  2  0  0  0  0
  5  6  1  0  0  0  0
  7  6  1  0  0  0  0
  8  9  1  0  0  0  0
 10  9  1  0  0  0  0
 11 12  2  0  0  0  0
 12 10  1  0  0  0  0
 14 15  1  0  0  0  0
 14 16  1  0  0  0  0
 15 19  1  0  0  0  0
 16 21  1  6  0  0  0
 16 18  1  0  0  0  0
 17 11  1  0  0  0  0
 18 13  1  0  0  0  0
 18 17  1  0  0  0  0
 19 13  1  0  0  0  0
 20 17  2  0  0  0  0
 21 22  2  0  0  0  0
 23 25  1  0  0  0  0
 23 21  1  0  0  0  0
 25 24  1  1  0  0  0
 26 28  1  0  0  0  0
 26 25  1  0  0  0  0
 27 28  1  0  0  0  0
 28 29  2  0  0  0  0
 31 32  1  0  0  0  0
 32 36  1  0  0  0  0
 33 31  1  0  0  0  0
 33 35  1  0  0  0  0
 34 31  2  0  0  0  0
 35 37  1  0  0  0  0
 36 37  1  0  0  0  0
 37 30  1  1  0  0  0
 38 33  1  0  0  0  0
 39 38  1  0  0  0  0
 40 39  2  0  0  0  0
 41 39  1  0  0  0  0
 42 41  1  0  0  0  0
 43 44  1  0  0  0  0
 43 42  1  0  0  0  0
 45 47  2  0  0  0  0
 47 44  1  0  0  0  0
 47 46  2  0  0  0  0
M  END
>  <MODEL>
4

>  <REMARK>
 VINA RESULT:      -6.5      2.244      3.168
  Name = 
  19 active torsions:
  status: ('A' for Active; 'I' for Inactive)
    1  A    between atoms: O_2  and  C_24
    2  A    between atoms: O_2  and  C_46
    3  A    between atoms: C_4  and  C_32
    4  A    between atoms: C_4  and  C_35
    5  A    between atoms: C_5  and  C_29
    6  A    between atoms: C_5  and  C_37
    7  A    between atoms: N_8  and  C_47
    8  A    between atoms: C_9  and  C_33
    9  A    between atoms: C_11  and  C_19
   10  A    between atoms: C_11  and  C_22
   11  A    between atoms: C_13  and  C_19
   12  A    between atoms: C_15  and  C_17
   13  A    between atoms: C_15  and  C_27
   14  A    between atoms: C_22  and  C_31
   15  A    between atoms: N_23  and  C_32
   16  A    between atoms: N_23  and  O_41
   17  A    between atoms: C_27  and  C_37
   18  A    between atoms: P_30  and  O_41
   19  A    between atoms: C_35  and  C_47
                            x       y       z     vdW  Elec       q    Type
                         _______ _______ _______ _____ _____    ______ ____

>  <TORSDO>
F 19

$$$$
=
 OpenBabel11062417293D

 47 49  0  0  1  0  0  0  0  0999 V2000
  187.2030  177.0260  146.4170 C   0  0  0  0  0  2  0  0  0  0  0  0
  189.6100  177.6090  145.8190 C   0  0  1  0  0  3  0  0  0  0  0  0
  188.1130  177.8950  145.5610 C   0  0  1  0  0  3  0  0  0  0  0  0
  186.9600  177.6960  147.7350 C   0  0  0  0  0  3  0  0  0  0  0  0
  187.9210  178.1930  148.5240 C   0  0  0  0  0  3  0  0  0  0  0  0
  189.3270  178.1220  148.2320 N   0  0  0  0  0  2  0  0  0  0  0  0
  189.9330  177.2150  147.2640 C   0  0  0  0  0  2  0  0  0  0  0  0
  190.2310  176.6150  144.8290 C   0  0  0  0  0  2  0  0  0  0  0  0
  191.6380  177.0140  144.3920 C   0  0  0  0  0  2  0  0  0  0  0  0
  191.6100  178.2990  143.5800 C   0  0  0  0  0  2  0  0  0  0  0  0
  190.7430  177.2750  141.5410 C   0  0  0  0  0  3  0  0  0  0  0  0
  190.6040  178.1920  142.4890 C   0  0  0  0  0  3  0  0  0  0  0  0
  191.6020  176.6770  138.7930 C   0  0  0  0  0  2  0  0  0  0  0  0
  189.5370  175.3240  137.3030 O   0  0  0  0  0  0  0  0  0  0  0  0
  190.8270  175.5090  136.7610 C   0  0  0  0  0  2  0  0  0  0  0  0
  189.1860  176.4420  138.1010 C   0  0  1  0  0  3  0  0  0  0  0  0
  189.7630  177.1250  140.4530 C   0  0  0  0  0  0  0  0  0  0  0  0
  190.1840  176.7070  139.1450 N   0  0  0  0  0  0  0  0  0  0  0  0
  191.8760  175.5060  137.8640 C   0  0  0  0  0  2  0  0  0  0  0  0
  188.5400  177.3430  140.6790 O   0  0  0  0  0  0  0  0  0  0  0  0
  188.8540  177.6670  137.2920 C   0  0  0  0  0  0  0  0  0  0  0  0
  189.3960  178.7370  137.5290 O   0  0  0  0  0  0  0  0  0  0  0  0
  187.8280  177.5710  136.2050 C   0  0  0  0  0  2  0  0  0  0  0  0
  186.3600  178.4300  137.8880 F   0  0  0  0  0  0  0  0  0  0  0  0
  186.4010  177.6520  136.7440 C   0  0  2  0  0  3  0  0  0  0  0  0
  185.8250  176.2660  137.0100 C   0  0  0  0  0  2  0  0  0  0  0  0
  183.9930  174.7320  136.0130 C   0  0  0  0  0  1  0  0  0  0  0  0
  184.5010  176.0970  136.3390 C   0  0  0  0  0  0  0  0  0  0  0  0
  183.8190  177.1680  135.9390 C   0  0  0  0  0  2  0  0  0  0  0  0
  187.7820  177.7670  144.2060 O   0  0  0  0  0  0  0  0  0  0  0  0
  183.8320  179.1130  143.7680 C   0  0  0  0  0  0  0  0  0  0  0  0
  184.4400  179.1350  145.1410 C   0  0  0  0  0  2  0  0  0  0  0  0
  184.5250  178.4790  142.6790 N   0  0  0  0  0  0  0  0  0  0  0  0
  182.6720  179.5760  143.6000 O   0  0  0  0  0  0  0  0  0  0  0  0
  185.9700  178.2750  142.7380 C   0  0  0  0  0  2  0  0  0  0  0  0
  185.9630  179.0380  145.0870 C   0  0  0  0  0  2  0  0  0  0  0  0
  186.3940  177.9120  144.1560 C   0  0  2  0  0  3  0  0  0  0  0  0
  183.7870  177.9500  141.5400 C   0  0  0  0  0  2  0  0  0  0  0  0
  183.9680  178.8430  140.3570 C   0  0  0  0  0  0  0  0  0  0  0  0
  184.8890  179.6430  140.3340 O   0  0  0  0  0  0  0  0  0  0  0  0
  183.0260  178.7480  139.2030 C   0  0  0  0  0  2  0  0  0  0  0  0
  181.8910  177.7880  139.5230 C   0  0  0  0  0  2  0  0  0  0  0  0
  180.6190  178.4800  139.3890 N   0  0  0  0  0  2  0  0  0  0  0  0
  180.7990  179.7310  139.8770 O   0  0  0  0  0  0  0  0  0  0  0  0
  179.2090  178.5300  141.8120 O   0  0  0  0  0  0  0  0  0  0  0  0
  179.5640  181.1210  141.9420 O   0  0  0  0  0  0  0  0  0  0  0  0
  179.8230  179.7990  141.2600 P   0  0  0  0  0  0  0  0  0  0  0  0
  1  4  1  0  0  0  0
  2  8  1  6  0  0  0
  2  7  1  0  0  0  0
  3 30  1  6  0  0  0
  3  2  1  0  0  0  0
  3  1  1  0  0  0  0
  4  5  2  0  0  0  0
  6  5  1  0  0  0  0
  7  6  1  0  0  0  0
  9  8  1  0  0  0  0
 10  9  1  0  0  0  0
 11 12  2  0  0  0  0
 12 10  1  0  0  0  0
 13 18  1  0  0  0  0
 14 16  1  0  0  0  0
 15 14  1  0  0  0  0
 15 19  1  0  0  0  0
 16 21  1  6  0  0  0
 16 18  1  0  0  0  0
 17 20  2  0  0  0  0
 17 11  1  0  0  0  0
 18 17  1  0  0  0  0
 19 13  1  0  0  0  0
 21 22  2  0  0  0  0
 23 25  1  0  0  0  0
 23 21  1  0  0  0  0
 25 26  1  0  0  0  0
 25 24  1  1  0  0  0
 27 28  1  0  0  0  0
 28 26  1  0  0  0  0
 29 28  2  0  0  0  0
 31 32  1  0  0  0  0
 33 35  1  0  0  0  0
 33 31  1  0  0  0  0
 34 31  2  0  0  0  0
 35 37  1  0  0  0  0
 36 32  1  0  0  0  0
 37 30  1  6  0  0  0
 37 36  1  0  0  0  0
 38 33  1  0  0  0  0
 39 38  1  0  0  0  0
 40 39  2  0  0  0  0
 41 42  1  0  0  0  0
 41 39  1  0  0  0  0
 43 42  1  0  0  0  0
 43 44  1  0  0  0  0
 44 47  1  0  0  0  0
 47 45  2  0  0  0  0
 47 46  2  0  0  0  0
M  END
>  <MODEL>
5

>  <REMARK>
 VINA RESULT:      -6.5      2.749      7.432
  Name = 
  19 active torsions:
  status: ('A' for Active; 'I' for Inactive)
    1  A    between atoms: O_2  and  C_24
    2  A    between atoms: O_2  and  C_46
    3  A    between atoms: C_4  and  C_32
    4  A    between atoms: C_4  and  C_35
    5  A    between atoms: C_5  and  C_29
    6  A    between atoms: C_5  and  C_37
    7  A    between atoms: N_8  and  C_47
    8  A    between atoms: C_9  and  C_33
    9  A    between atoms: C_11  and  C_19
   10  A    between atoms: C_11  and  C_22
   11  A    between atoms: C_13  and  C_19
   12  A    between atoms: C_15  and  C_17
   13  A    between atoms: C_15  and  C_27
   14  A    between atoms: C_22  and  C_31
   15  A    between atoms: N_23  and  C_32
   16  A    between atoms: N_23  and  O_41
   17  A    between atoms: C_27  and  C_37
   18  A    between atoms: P_30  and  O_41
   19  A    between atoms: C_35  and  C_47
                            x       y       z     vdW  Elec       q    Type
                         _______ _______ _______ _____ _____    ______ ____

>  <TORSDO>
F 19

$$$$
=
 OpenBabel11062417293D

 47 49  0  0  1  0  0  0  0  0999 V2000
  189.3260  176.2220  142.8940 C   0  0  0  0  0  2  0  0  0  0  0  0
  189.9190  177.8840  141.0570 C   0  0  1  0  0  3  0  0  0  0  0  0
  188.9520  177.5290  142.2090 C   0  0  1  0  0  3  0  0  0  0  0  0
  190.3110  176.4910  143.9900 C   0  0  0  0  0  3  0  0  0  0  0  0
  191.4260  177.2180  143.8490 C   0  0  0  0  0  3  0  0  0  0  0  0
  191.8540  177.8160  142.6130 N   0  0  0  0  0  2  0  0  0  0  0  0
  191.3660  177.4370  141.2910 C   0  0  0  0  0  2  0  0  0  0  0  0
  189.4260  177.4390  139.6740 C   0  0  0  0  0  2  0  0  0  0  0  0
  188.9720  178.6070  138.8020 C   0  0  0  0  0  2  0  0  0  0  0  0
  189.2220  178.3150  137.3310 C   0  0  0  0  0  2  0  0  0  0  0  0
  186.8640  177.6870  137.3680 C   0  0  0  0  0  3  0  0  0  0  0  0
  187.9420  177.9790  136.6520 C   0  0  0  0  0  3  0  0  0  0  0  0
  184.3300  178.0550  138.8140 C   0  0  0  0  0  2  0  0  0  0  0  0
  182.1240  178.4820  137.0070 O   0  0  0  0  0  0  0  0  0  0  0  0
  181.9580  178.5970  138.4040 C   0  0  0  0  0  2  0  0  0  0  0  0
  183.0590  177.4560  136.7180 C   0  0  1  0  0  3  0  0  0  0  0  0
  185.5740  177.3650  136.7360 C   0  0  0  0  0  0  0  0  0  0  0  0
  184.3390  177.6690  137.4050 N   0  0  0  0  0  0  0  0  0  0  0  0
  183.2420  179.0870  139.0570 C   0  0  0  0  0  2  0  0  0  0  0  0
  185.5530  176.8380  135.5890 O   0  0  0  0  0  0  0  0  0  0  0  0
  182.5070  176.0730  136.9350 C   0  0  0  0  0  0  0  0  0  0  0  0
  181.3900  175.7770  136.5390 O   0  0  0  0  0  0  0  0  0  0  0  0
  183.3350  175.0620  137.6690 C   0  0  0  0  0  2  0  0  0  0  0  0
  183.6760  174.3410  135.4130 F   0  0  0  0  0  0  0  0  0  0  0  0
  183.9510  174.0260  136.7320 C   0  0  2  0  0  3  0  0  0  0  0  0
  183.4710  172.6180  137.0640 C   0  0  0  0  0  2  0  0  0  0  0  0
  185.7020  171.8730  135.9810 C   0  0  0  0  0  1  0  0  0  0  0  0
  184.2820  171.5900  136.3450 C   0  0  0  0  0  0  0  0  0  0  0  0
  183.7100  170.4580  135.9380 C   0  0  0  0  0  2  0  0  0  0  0  0
  187.6190  177.4960  141.7820 O   0  0  0  0  0  0  0  0  0  0  0  0
  184.7340  178.9330  144.4690 C   0  0  0  0  0  0  0  0  0  0  0  0
  184.9730  179.7080  143.2060 C   0  0  0  0  0  2  0  0  0  0  0  0
  185.5980  177.8380  144.8220 N   0  0  0  0  0  0  0  0  0  0  0  0
  183.8250  179.3060  145.2580 O   0  0  0  0  0  0  0  0  0  0  0  0
  186.3910  177.1610  143.8010 C   0  0  0  0  0  2  0  0  0  0  0  0
  185.7020  178.8710  142.1570 C   0  0  0  0  0  2  0  0  0  0  0  0
  186.9020  178.1660  142.7770 C   0  0  2  0  0  3  0  0  0  0  0  0
  185.7640  177.4470  146.2150 C   0  0  0  0  0  2  0  0  0  0  0  0
  186.8500  178.2550  146.8450 C   0  0  0  0  0  0  0  0  0  0  0  0
  186.5670  179.2040  147.5590 O   0  0  0  0  0  0  0  0  0  0  0  0
  188.2790  177.8950  146.6060 C   0  0  0  0  0  2  0  0  0  0  0  0
  189.0400  177.8410  147.9210 C   0  0  0  0  0  2  0  0  0  0  0  0
  190.4210  177.4640  147.6650 N   0  0  0  0  0  2  0  0  0  0  0  0
  190.4630  176.1100  147.6440 O   0  0  0  0  0  0  0  0  0  0  0  0
  192.5800  175.0010  146.2300 O   0  0  0  0  0  0  0  0  0  0  0  0
  193.0930  176.1240  148.5390 O   0  0  0  0  0  0  0  0  0  0  0  0
  192.1040  175.7320  147.4670 P   0  0  0  0  0  0  0  0  0  0  0  0
  1  4  1  0  0  0  0
  2  8  1  6  0  0  0
  2  7  1  0  0  0  0
  2  3  1  0  0  0  0
  3 30  1  6  0  0  0
  3  1  1  0  0  0  0
  5  4  2  0  0  0  0
  6  5  1  0  0  0  0
  7  6  1  0  0  0  0
  9  8  1  0  0  0  0
 10  9  1  0  0  0  0
 12 10  1  0  0  0  0
 12 11  2  0  0  0  0
 13 19  1  0  0  0  0
 14 15  1  0  0  0  0
 15 19  1  0  0  0  0
 16 21  1  1  0  0  0
 16 14  1  0  0  0  0
 16 18  1  0  0  0  0
 17 11  1  0  0  0  0
 17 18  1  0  0  0  0
 18 13  1  0  0  0  0
 20 17  2  0  0  0  0
 21 23  1  0  0  0  0
 22 21  2  0  0  0  0
 25 24  1  6  0  0  0
 25 26  1  0  0  0  0
 25 23  1  0  0  0  0
 27 28  1  0  0  0  0
 28 26  1  0  0  0  0
 29 28  2  0  0  0  0
 31 33  1  0  0  0  0
 31 34  2  0  0  0  0
 32 31  1  0  0  0  0
 33 38  1  0  0  0  0
 35 33  1  0  0  0  0
 36 37  1  0  0  0  0
 36 32  1  0  0  0  0
 37 30  1  6  0  0  0
 37 35  1  0  0  0  0
 38 39  1  0  0  0  0
 39 40  2  0  0  0  0
 41 39  1  0  0  0  0
 41 42  1  0  0  0  0
 43 42  1  0  0  0  0
 44 43  1  0  0  0  0
 45 47  2  0  0  0  0
 47 44  1  0  0  0  0
 47 46  2  0  0  0  0
M  END
>  <MODEL>
6

>  <REMARK>
 VINA RESULT:      -6.3      3.709      7.555
  Name = 
  19 active torsions:
  status: ('A' for Active; 'I' for Inactive)
    1  A    between atoms: O_2  and  C_24
    2  A    between atoms: O_2  and  C_46
    3  A    between atoms: C_4  and  C_32
    4  A    between atoms: C_4  and  C_35
    5  A    between atoms: C_5  and  C_29
    6  A    between atoms: C_5  and  C_37
    7  A    between atoms: N_8  and  C_47
    8  A    between atoms: C_9  and  C_33
    9  A    between atoms: C_11  and  C_19
   10  A    between atoms: C_11  and  C_22
   11  A    between atoms: C_13  and  C_19
   12  A    between atoms: C_15  and  C_17
   13  A    between atoms: C_15  and  C_27
   14  A    between atoms: C_22  and  C_31
   15  A    between atoms: N_23  and  C_32
   16  A    between atoms: N_23  and  O_41
   17  A    between atoms: C_27  and  C_37
   18  A    between atoms: P_30  and  O_41
   19  A    between atoms: C_35  and  C_47
                            x       y       z     vdW  Elec       q    Type
                         _______ _______ _______ _____ _____    ______ ____

>  <TORSDO>
F 19

$$$$
=
 OpenBabel11062417293D

 47 49  0  0  1  0  0  0  0  0999 V2000
  190.3160  175.2790  135.3520 C   0  0  0  0  0  2  0  0  0  0  0  0
  190.0910  176.2980  137.6760 C   0  0  1  0  0  3  0  0  0  0  0  0
  189.4030  175.4920  136.5510 C   0  0  1  0  0  3  0  0  0  0  0  0
  191.1300  174.0370  135.5530 C   0  0  0  0  0  3  0  0  0  0  0  0
  191.8280  173.7560  136.6600 C   0  0  0  0  0  3  0  0  0  0  0  0
  191.9220  174.6250  137.8020 N   0  0  0  0  0  2  0  0  0  0  0  0
  191.5990  176.0480  137.7960 C   0  0  0  0  0  2  0  0  0  0  0  0
  189.7880  177.8020  137.6360 C   0  0  0  0  0  2  0  0  0  0  0  0
  189.2360  178.3310  138.9570 C   0  0  0  0  0  2  0  0  0  0  0  0
  188.6540  177.2020  139.7930 C   0  0  0  0  0  2  0  0  0  0  0  0
  189.9430  177.7570  141.7890 C   0  0  0  0  0  3  0  0  0  0  0  0
  188.7570  177.5330  141.2400 C   0  0  0  0  0  3  0  0  0  0  0  0
  190.7800  175.7460  143.7640 C   0  0  0  0  0  2  0  0  0  0  0  0
  192.0670  176.9600  146.0410 O   0  0  0  0  0  0  0  0  0  0  0  0
  192.0140  175.5570  145.8930 C   0  0  0  0  0  2  0  0  0  0  0  0
  190.8770  177.5410  145.5360 C   0  0  1  0  0  3  0  0  0  0  0  0
  190.0890  178.1030  143.2130 C   0  0  0  0  0  0  0  0  0  0  0  0
  190.6210  177.1470  144.1440 N   0  0  0  0  0  0  0  0  0  0  0  0
  192.0250  175.1730  144.4200 C   0  0  0  0  0  2  0  0  0  0  0  0
  189.7660  179.2560  143.6130 O   0  0  0  0  0  0  0  0  0  0  0  0
  189.6850  177.3230  146.4280 C   0  0  0  0  0  0  0  0  0  0  0  0
  189.6560  176.3880  147.2140 O   0  0  0  0  0  0  0  0  0  0  0  0
  188.5150  178.2530  146.3260 C   0  0  0  0  0  2  0  0  0  0  0  0
  187.6960  176.6130  144.7880 F   0  0  0  0  0  0  0  0  0  0  0  0
  187.2980  177.5870  145.6870 C   0  0  2  0  0  3  0  0  0  0  0  0
  186.3940  178.6110  145.0100 C   0  0  0  0  0  2  0  0  0  0  0  0
  183.8430  178.9860  144.7660 C   0  0  0  0  0  1  0  0  0  0  0  0
  185.0180  178.5780  145.5920 C   0  0  0  0  0  0  0  0  0  0  0  0
  184.8480  178.2820  146.8790 C   0  0  0  0  0  2  0  0  0  0  0  0
  188.1950  176.0780  136.1510 O   0  0  0  0  0  0  0  0  0  0  0  0
  185.2870  173.2320  137.1760 C   0  0  0  0  0  0  0  0  0  0  0  0
  186.7280  172.8110  137.1970 C   0  0  0  0  0  2  0  0  0  0  0  0
  184.9150  174.5160  136.6450 N   0  0  0  0  0  0  0  0  0  0  0  0
  184.4010  172.4170  137.5470 O   0  0  0  0  0  0  0  0  0  0  0  0
  185.8940  175.5960  136.5610 C   0  0  0  0  0  2  0  0  0  0  0  0
  187.6690  174.0140  137.2300 C   0  0  0  0  0  2  0  0  0  0  0  0
  187.2610  175.0400  136.1810 C   0  0  2  0  0  3  0  0  0  0  0  0
  183.5820  174.7330  136.1010 C   0  0  0  0  0  2  0  0  0  0  0  0
  182.7510  175.4990  137.0770 C   0  0  0  0  0  0  0  0  0  0  0  0
  182.2070  174.9170  138.0020 O   0  0  0  0  0  0  0  0  0  0  0  0
  182.5940  176.9760  136.9230 C   0  0  0  0  0  2  0  0  0  0  0  0
  181.8230  177.5530  138.0990 C   0  0  0  0  0  2  0  0  0  0  0  0
  182.6760  178.4770  138.8300 N   0  0  0  0  0  2  0  0  0  0  0  0
  183.6330  177.7340  139.4360 O   0  0  0  0  0  0  0  0  0  0  0  0
  185.8620  178.9660  138.3270 O   0  0  0  0  0  0  0  0  0  0  0  0
  185.2890  179.4760  140.8310 O   0  0  0  0  0  0  0  0  0  0  0  0
  184.9760  178.7620  139.5370 P   0  0  0  0  0  0  0  0  0  0  0  0
  1  4  1  0  0  0  0
  1  3  1  0  0  0  0
  2  8  1  6  0  0  0
  2  7  1  0  0  0  0
  3 30  1  6  0  0  0
  3  2  1  0  0  0  0
  4  5  2  0  0  0  0
  5  6  1  0  0  0  0
  7  6  1  0  0  0  0
  8  9  1  0  0  0  0
  9 10  1  0  0  0  0
 10 12  1  0  0  0  0
 11 17  1  0  0  0  0
 12 11  2  0  0  0  0
 13 18  1  0  0  0  0
 13 19  1  0  0  0  0
 15 14  1  0  0  0  0
 16 14  1  0  0  0  0
 16 21  1  1  0  0  0
 17 20  2  0  0  0  0
 17 18  1  0  0  0  0
 18 16  1  0  0  0  0
 19 15  1  0  0  0  0
 21 22  2  0  0  0  0
 23 21  1  0  0  0  0
 25 24  1  6  0  0  0
 25 23  1  0  0  0  0
 26 28  1  0  0  0  0
 26 25  1  0  0  0  0
 27 28  1  0  0  0  0
 28 29  2  0  0  0  0
 31 32  1  0  0  0  0
 31 34  2  0  0  0  0
 32 36  1  0  0  0  0
 33 31  1  0  0  0  0
 35 33  1  0  0  0  0
 37 30  1  1  0  0  0
 37 35  1  0  0  0  0
 37 36  1  0  0  0  0
 38 33  1  0  0  0  0
 38 39  1  0  0  0  0
 39 40  2  0  0  0  0
 41 39  1  0  0  0  0
 41 42  1  0  0  0  0
 42 43  1  0  0  0  0
 43 44  1  0  0  0  0
 44 47  1  0  0  0  0
 45 47  2  0  0  0  0
 47 46  2  0  0  0  0
M  END
>  <MODEL>
7

>  <REMARK>
 VINA RESULT:      -6.3      3.050      8.313
  Name = 
  19 active torsions:
  status: ('A' for Active; 'I' for Inactive)
    1  A    between atoms: O_2  and  C_24
    2  A    between atoms: O_2  and  C_46
    3  A    between atoms: C_4  and  C_32
    4  A    between atoms: C_4  and  C_35
    5  A    between atoms: C_5  and  C_29
    6  A    between atoms: C_5  and  C_37
    7  A    between atoms: N_8  and  C_47
    8  A    between atoms: C_9  and  C_33
    9  A    between atoms: C_11  and  C_19
   10  A    between atoms: C_11  and  C_22
   11  A    between atoms: C_13  and  C_19
   12  A    between atoms: C_15  and  C_17
   13  A    between atoms: C_15  and  C_27
   14  A    between atoms: C_22  and  C_31
   15  A    between atoms: N_23  and  C_32
   16  A    between atoms: N_23  and  O_41
   17  A    between atoms: C_27  and  C_37
   18  A    between atoms: P_30  and  O_41
   19  A    between atoms: C_35  and  C_47
                            x       y       z     vdW  Elec       q    Type
                         _______ _______ _______ _____ _____    ______ ____

>  <TORSDO>
F 19

$$$$
=
 OpenBabel11062417293D

 47 49  0  0  1  0  0  0  0  0999 V2000
  186.9600  177.1330  146.3730 C   0  0  0  0  0  2  0  0  0  0  0  0
  189.4120  177.6740  145.9430 C   0  0  1  0  0  3  0  0  0  0  0  0
  187.9410  177.9910  145.5870 C   0  0  1  0  0  3  0  0  0  0  0  0
  186.6400  177.7990  147.6770 C   0  0  0  0  0  3  0  0  0  0  0  0
  187.5550  178.2720  148.5330 C   0  0  0  0  0  3  0  0  0  0  0  0
  188.9760  178.1760  148.3360 N   0  0  0  0  0  2  0  0  0  0  0  0
  189.6290  177.2640  147.4040 C   0  0  0  0  0  2  0  0  0  0  0  0
  190.0800  176.6750  144.9890 C   0  0  0  0  0  2  0  0  0  0  0  0
  191.5420  177.0090  144.7100 C   0  0  0  0  0  2  0  0  0  0  0  0
  191.6700  178.3660  144.0370 C   0  0  0  0  0  2  0  0  0  0  0  0
  191.1900  177.5260  141.7960 C   0  0  0  0  0  3  0  0  0  0  0  0
  192.0090  178.1930  142.5980 C   0  0  0  0  0  3  0  0  0  0  0  0
  189.0240  177.1200  139.8490 C   0  0  0  0  0  2  0  0  0  0  0  0
  189.7920  177.9830  137.2070 O   0  0  0  0  0  0  0  0  0  0  0  0
  188.4720  177.5670  137.4850 C   0  0  0  0  0  2  0  0  0  0  0  0
  190.7080  177.2180  137.9710 C   0  0  1  0  0  3  0  0  0  0  0  0
  191.4780  177.3440  140.3640 C   0  0  0  0  0  0  0  0  0  0  0  0
  190.4080  177.2760  139.4080 N   0  0  0  0  0  0  0  0  0  0  0  0
  188.1000  177.8940  138.9240 C   0  0  0  0  0  2  0  0  0  0  0  0
  192.6760  177.2720  139.9710 O   0  0  0  0  0  0  0  0  0  0  0  0
  190.8680  175.8090  137.4690 C   0  0  0  0  0  0  0  0  0  0  0  0
  190.5060  174.8590  138.1480 O   0  0  0  0  0  0  0  0  0  0  0  0
  191.5030  175.5760  136.1320 C   0  0  0  0  0  2  0  0  0  0  0  0
  192.5440  173.4490  136.4810 F   0  0  0  0  0  0  0  0  0  0  0  0
  192.8060  174.7870  136.2380 C   0  0  2  0  0  3  0  0  0  0  0  0
  193.7220  175.3620  137.3120 C   0  0  0  0  0  2  0  0  0  0  0  0
  195.4340  174.1820  138.8550 C   0  0  0  0  0  1  0  0  0  0  0  0
  194.9420  174.5180  137.4860 C   0  0  0  0  0  0  0  0  0  0  0  0
  195.6510  174.1480  136.4210 C   0  0  0  0  0  2  0  0  0  0  0  0
  187.7000  177.8780  144.2120 O   0  0  0  0  0  0  0  0  0  0  0  0
  183.7120  179.0000  143.5450 C   0  0  0  0  0  0  0  0  0  0  0  0
  184.2360  179.0480  144.9520 C   0  0  0  0  0  2  0  0  0  0  0  0
  184.5040  178.4140  142.4970 N   0  0  0  0  0  0  0  0  0  0  0  0
  182.5400  179.3980  143.3100 O   0  0  0  0  0  0  0  0  0  0  0  0
  185.9520  178.2920  142.6420 C   0  0  0  0  0  2  0  0  0  0  0  0
  185.7620  179.0380  144.9880 C   0  0  0  0  0  2  0  0  0  0  0  0
  186.3110  177.9450  144.0800 C   0  0  2  0  0  3  0  0  0  0  0  0
  183.8660  177.8520  141.3150 C   0  0  0  0  0  2  0  0  0  0  0  0
  183.6250  178.9270  140.3060 C   0  0  0  0  0  0  0  0  0  0  0  0
  184.5530  179.6220  139.9250 O   0  0  0  0  0  0  0  0  0  0  0  0
  182.2520  179.1420  139.7620 C   0  0  0  0  0  2  0  0  0  0  0  0
  182.3120  179.4400  138.2720 C   0  0  0  0  0  2  0  0  0  0  0  0
  182.0650  178.2180  137.5240 N   0  0  0  0  0  2  0  0  0  0  0  0
  183.2370  177.8720  136.9380 O   0  0  0  0  0  0  0  0  0  0  0  0
  183.0370  175.7330  138.6990 O   0  0  0  0  0  0  0  0  0  0  0  0
  184.0510  175.2860  136.3260 O   0  0  0  0  0  0  0  0  0  0  0  0
  183.4500  176.2390  137.3340 P   0  0  0  0  0  0  0  0  0  0  0  0
  1  4  1  0  0  0  0
  2  8  1  6  0  0  0
  2  7  1  0  0  0  0
  3 30  1  6  0  0  0
  3  2  1  0  0  0  0
  3  1  1  0  0  0  0
  4  5  2  0  0  0  0
  6  5  1  0  0  0  0
  7  6  1  0  0  0  0
  9  8  1  0  0  0  0
 10  9  1  0  0  0  0
 11 12  2  0  0  0  0
 12 10  1  0  0  0  0
 14 15  1  0  0  0  0
 14 16  1  0  0  0  0
 15 19  1  0  0  0  0
 16 21  1  6  0  0  0
 16 18  1  0  0  0  0
 17 11  1  0  0  0  0
 18 13  1  0  0  0  0
 18 17  1  0  0  0  0
 19 13  1  0  0  0  0
 20 17  2  0  0  0  0
 21 22  2  0  0  0  0
 23 25  1  0  0  0  0
 23 21  1  0  0  0  0
 25 24  1  1  0  0  0
 25 26  1  0  0  0  0
 26 28  1  0  0  0  0
 28 27  1  0  0  0  0
 29 28  2  0  0  0  0
 31 32  1  0  0  0  0
 32 36  1  0  0  0  0
 33 35  1  0  0  0  0
 33 31  1  0  0  0  0
 34 31  2  0  0  0  0
 35 37  1  0  0  0  0
 37 30  1  6  0  0  0
 37 36  1  0  0  0  0
 38 33  1  0  0  0  0
 39 38  1  0  0  0  0
 40 39  2  0  0  0  0
 41 39  1  0  0  0  0
 42 41  1  0  0  0  0
 43 42  1  0  0  0  0
 44 47  1  0  0  0  0
 44 43  1  0  0  0  0
 46 47  2  0  0  0  0
 47 45  2  0  0  0  0
M  END
>  <MODEL>
8

>  <REMARK>
 VINA RESULT:      -6.1      3.204      8.065
  Name = 
  19 active torsions:
  status: ('A' for Active; 'I' for Inactive)
    1  A    between atoms: O_2  and  C_24
    2  A    between atoms: O_2  and  C_46
    3  A    between atoms: C_4  and  C_32
    4  A    between atoms: C_4  and  C_35
    5  A    between atoms: C_5  and  C_29
    6  A    between atoms: C_5  and  C_37
    7  A    between atoms: N_8  and  C_47
    8  A    between atoms: C_9  and  C_33
    9  A    between atoms: C_11  and  C_19
   10  A    between atoms: C_11  and  C_22
   11  A    between atoms: C_13  and  C_19
   12  A    between atoms: C_15  and  C_17
   13  A    between atoms: C_15  and  C_27
   14  A    between atoms: C_22  and  C_31
   15  A    between atoms: N_23  and  C_32
   16  A    between atoms: N_23  and  O_41
   17  A    between atoms: C_27  and  C_37
   18  A    between atoms: P_30  and  O_41
   19  A    between atoms: C_35  and  C_47
                            x       y       z     vdW  Elec       q    Type
                         _______ _______ _______ _____ _____    ______ ____

>  <TORSDO>
F 19

$$$$
=
 OpenBabel11062417293D

 47 49  0  0  1  0  0  0  0  0999 V2000
  187.2340  177.9190  135.8000 C   0  0  0  0  0  2  0  0  0  0  0  0
  187.8910  176.7740  137.9780 C   0  0  1  0  0  3  0  0  0  0  0  0
  186.7740  177.4920  137.1860 C   0  0  1  0  0  3  0  0  0  0  0  0
  187.0110  176.8010  134.8280 C   0  0  0  0  0  3  0  0  0  0  0  0
  187.4020  175.5350  135.0220 C   0  0  0  0  0  3  0  0  0  0  0  0
  188.1240  175.0780  136.1790 N   0  0  0  0  0  2  0  0  0  0  0  0
  188.8410  175.9420  137.1100 C   0  0  0  0  0  2  0  0  0  0  0  0
  188.6760  177.6970  138.9190 C   0  0  0  0  0  2  0  0  0  0  0  0
  190.1610  177.7680  138.5770 C   0  0  0  0  0  2  0  0  0  0  0  0
  190.9880  176.9820  139.5830 C   0  0  0  0  0  2  0  0  0  0  0  0
  191.6500  177.5020  141.8740 C   0  0  0  0  0  3  0  0  0  0  0  0
  190.6860  177.4450  140.9650 C   0  0  0  0  0  3  0  0  0  0  0  0
  191.4050  175.6020  144.1050 C   0  0  0  0  0  2  0  0  0  0  0  0
  192.1080  176.8190  146.6230 O   0  0  0  0  0  0  0  0  0  0  0  0
  191.8340  175.4380  146.5300 C   0  0  0  0  0  2  0  0  0  0  0  0
  191.2790  177.5350  145.7230 C   0  0  1  0  0  3  0  0  0  0  0  0
  191.3980  177.9690  143.2470 C   0  0  0  0  0  0  0  0  0  0  0  0
  191.4090  177.0430  144.3450 N   0  0  0  0  0  0  0  0  0  0  0  0
  192.2390  174.9020  145.1640 C   0  0  0  0  0  2  0  0  0  0  0  0
  191.1950  179.1960  143.4630 O   0  0  0  0  0  0  0  0  0  0  0  0
  189.8460  177.6180  146.1760 C   0  0  0  0  0  0  0  0  0  0  0  0
  189.5680  177.6640  147.3650 O   0  0  0  0  0  0  0  0  0  0  0  0
  188.7530  177.6180  145.1500 C   0  0  0  0  0  2  0  0  0  0  0  0
  187.2490  176.7700  146.8060 F   0  0  0  0  0  0  0  0  0  0  0  0
  187.3650  177.6920  145.7810 C   0  0  2  0  0  3  0  0  0  0  0  0
  186.2690  177.4870  144.7420 C   0  0  0  0  0  2  0  0  0  0  0  0
  184.6140  179.1830  143.6970 C   0  0  0  0  0  1  0  0  0  0  0  0
  185.1850  178.5040  144.8970 C   0  0  0  0  0  0  0  0  0  0  0  0
  184.7970  178.8790  146.1150 C   0  0  0  0  0  2  0  0  0  0  0  0
  186.2540  178.5850  137.8900 O   0  0  0  0  0  0  0  0  0  0  0  0
  182.6430  177.0060  139.3310 C   0  0  0  0  0  0  0  0  0  0  0  0
  183.2460  176.3880  138.1020 C   0  0  0  0  0  2  0  0  0  0  0  0
  183.1970  178.2140  139.8810 N   0  0  0  0  0  0  0  0  0  0  0  0
  181.5970  176.5050  139.8220 O   0  0  0  0  0  0  0  0  0  0  0  0
  184.5740  178.6000  139.5850 C   0  0  0  0  0  2  0  0  0  0  0  0
  184.7200  176.7550  137.9500 C   0  0  0  0  0  2  0  0  0  0  0  0
  184.9210  178.2530  138.1430 C   0  0  2  0  0  3  0  0  0  0  0  0
  182.3680  179.1170  140.6670 C   0  0  0  0  0  2  0  0  0  0  0  0
  181.2540  179.6480  139.8260 C   0  0  0  0  0  0  0  0  0  0  0  0
  180.1130  179.6540  140.2600 O   0  0  0  0  0  0  0  0  0  0  0  0
  181.5410  180.1760  138.4590 C   0  0  0  0  0  2  0  0  0  0  0  0
  180.5120  181.2270  138.0700 C   0  0  0  0  0  2  0  0  0  0  0  0
  180.8340  181.7540  136.7540 N   0  0  0  0  0  2  0  0  0  0  0  0
  179.8660  182.6480  136.4390 O   0  0  0  0  0  0  0  0  0  0  0  0
  179.4620  184.6320  138.3410 O   0  0  0  0  0  0  0  0  0  0  0  0
  181.5910  184.7910  136.8250 O   0  0  0  0  0  0  0  0  0  0  0  0
  180.3240  184.0750  137.2280 P   0  0  0  0  0  0  0  0  0  0  0  0
  1  3  1  0  0  0  0
  2  8  1  6  0  0  0
  3 30  1  1  0  0  0
  3  2  1  0  0  0  0
  4  5  2  0  0  0  0
  4  1  1  0  0  0  0
  5  6  1  0  0  0  0
  6  7  1  0  0  0  0
  7  2  1  0  0  0  0
  9  8  1  0  0  0  0
  9 10  1  0  0  0  0
 10 12  1  0  0  0  0
 11 17  1  0  0  0  0
 12 11  2  0  0  0  0
 13 18  1  0  0  0  0
 13 19  1  0  0  0  0
 15 14  1  0  0  0  0
 16 21  1  1  0  0  0
 16 14  1  0  0  0  0
 17 20  2  0  0  0  0
 17 18  1  0  0  0  0
 18 16  1  0  0  0  0
 19 15  1  0  0  0  0
 21 22  2  0  0  0  0
 23 25  1  0  0  0  0
 23 21  1  0  0  0  0
 25 24  1  1  0  0  0
 26 28  1  0  0  0  0
 26 25  1  0  0  0  0
 27 28  1  0  0  0  0
 28 29  2  0  0  0  0
 31 34  2  0  0  0  0
 31 33  1  0  0  0  0
 32 31  1  0  0  0  0
 33 38  1  0  0  0  0
 35 33  1  0  0  0  0
 36 32  1  0  0  0  0
 36 37  1  0  0  0  0
 37 30  1  1  0  0  0
 37 35  1  0  0  0  0
 39 40  2  0  0  0  0
 39 38  1  0  0  0  0
 41 39  1  0  0  0  0
 42 41  1  0  0  0  0
 43 42  1  0  0  0  0
 44 43  1  0  0  0  0
 44 47  1  0  0  0  0
 46 47  2  0  0  0  0
 47 45  2  0  0  0  0
M  END
>  <MODEL>
9

>  <REMARK>
 VINA RESULT:      -6.0      3.501      9.317
  Name = 
  19 active torsions:
  status: ('A' for Active; 'I' for Inactive)
    1  A    between atoms: O_2  and  C_24
    2  A    between atoms: O_2  and  C_46
    3  A    between atoms: C_4  and  C_32
    4  A    between atoms: C_4  and  C_35
    5  A    between atoms: C_5  and  C_29
    6  A    between atoms: C_5  and  C_37
    7  A    between atoms: N_8  and  C_47
    8  A    between atoms: C_9  and  C_33
    9  A    between atoms: C_11  and  C_19
   10  A    between atoms: C_11  and  C_22
   11  A    between atoms: C_13  and  C_19
   12  A    between atoms: C_15  and  C_17
   13  A    between atoms: C_15  and  C_27
   14  A    between atoms: C_22  and  C_31
   15  A    between atoms: N_23  and  C_32
   16  A    between atoms: N_23  and  O_41
   17  A    between atoms: C_27  and  C_37
   18  A    between atoms: P_30  and  O_41
   19  A    between atoms: C_35  and  C_47
                            x       y       z     vdW  Elec       q    Type
                         _______ _______ _______ _____ _____    ______ ____

>  <TORSDO>
F 19

$$$$
