=
 OpenBabel11062412303D

 33 35  0  0  1  0  0  0  0  0999 V2000
  189.2530  177.2140  145.8910 C   0  0  0  0  0  0  0  0  0  0  0  0
  189.4990  176.6870  147.1610 C   0  0  0  0  0  3  0  0  0  0  0  0
  190.2990  177.2640  144.9430 C   0  0  0  0  0  0  0  0  0  0  0  0
  191.7720  176.2860  146.5570 N   0  0  0  0  0  0  0  0  0  0  0  0
  190.7770  176.2260  147.4790 C   0  0  0  0  0  3  0  0  0  0  0  0
  191.5610  176.7870  145.3110 C   0  0  0  0  0  3  0  0  0  0  0  0
  190.1280  177.7880  143.5450 C   0  0  1  0  0  3  0  0  0  0  0  0
  191.2030  179.9400  144.2070 C   0  0  0  0  0  1  0  0  0  0  0  0
  191.2180  178.7960  143.2110 C   0  0  0  0  0  2  0  0  0  0  0  0
  190.1170  176.7420  142.6150 O   0  0  0  0  0  0  0  0  0  0  0  0
  188.7190  177.2630  140.8160 N   0  0  2  0  0  0  0  0  0  0  0  0
  188.8680  176.9830  139.3740 C   0  0  1  0  0  3  0  0  0  0  0  0
  188.5710  178.3410  139.8260 C   0  0  1  0  0  3  0  0  0  0  0  0
  190.3480  176.8310  139.0720 C   0  0  1  0  0  3  0  0  0  0  0  0
  187.2160  178.6070  139.6370 O   0  0  0  0  0  1  0  0  0  0  0  0
  190.0670  177.3640  141.3650 C   0  0  2  0  0  3  0  0  0  0  0  0
  191.0140  176.6730  140.4140 C   0  0  0  0  0  2  0  0  0  0  0  0
  190.5590  175.6690  138.2800 O   0  0  0  0  0  0  0  0  0  0  0  0
  192.2110  174.1240  137.8050 O   0  0  0  0  0  1  0  0  0  0  0  0
  192.6450  176.3080  137.2690 O   0  0  0  0  0  0  0  0  0  0  0  0
  191.8170  175.3200  137.7850 C   0  0  0  0  0  0  0  0  0  0  0  0
  187.8710  177.6880  145.5770 C   0  0  0  0  0  2  0  0  0  0  0  0
  187.1100  177.7440  146.7480 O   0  0  0  0  0  0  0  0  0  0  0  0
  186.2770  178.8500  146.5810 C   0  0  2  0  0  3  0  0  0  0  0  0
  186.3170  179.7090  147.8400 C   0  0  0  0  0  1  0  0  0  0  0  0
  183.8420  178.7130  143.8350 C   0  0  0  0  0  0  0  0  0  0  0  0
  184.3670  178.5520  145.0170 C   0  0  0  0  0  0  0  0  0  0  0  0
  182.4270  179.1530  143.7130 C   0  0  0  0  0  1  0  0  0  0  0  0
  184.8930  178.3920  146.2040 C   0  0  0  0  0  3  0  0  0  0  0  0
  185.3640  179.8660  141.9760 O   0  0  0  0  0  0  0  0  0  0  0  0
  185.9820  177.6040  142.6970 O   0  0  0  0  0  0  0  0  0  0  0  0
  183.8820  177.8700  141.1150 N   0  0  0  0  0  1  0  0  0  0  0  0
  184.8330  178.5260  142.4000 S   0  0  0  0  0  0  0  0  0  0  0  0
  1  2  1  0  0  0  0
  2  5  2  0  0  0  0
  3  6  1  0  0  0  0
  3  1  2  0  0  0  0
  4  5  1  0  0  0  0
  6  4  2  0  0  0  0
  7  9  1  6  0  0  0
  7  3  1  0  0  0  0
  9  8  1  0  0  0  0
 10  7  1  0  0  0  0
 11 16  1  0  0  0  0
 12 13  1  0  0  0  0
 12 11  1  0  0  0  0
 13 11  1  0  0  0  0
 14 12  1  0  0  0  0
 14 17  1  0  0  0  0
 15 13  1  0  0  0  0
 16 10  1  0  0  0  0
 17 16  1  0  0  0  0
 18 14  1  0  0  0  0
 20 21  2  0  0  0  0
 21 19  1  0  0  0  0
 21 18  1  0  0  0  0
 22  1  1  0  0  0  0
 22 23  1  0  0  0  0
 24 23  1  0  0  0  0
 24 25  1  0  0  0  0
 26 27  2  0  0  0  0
 27 29  2  0  0  0  0
 28 26  1  0  0  0  0
 29 24  1  0  0  0  0
 30 33  2  0  0  0  0
 32 33  1  0  0  0  0
 33 31  2  0  0  0  0
 33 26  1  0  0  0  0
M  END
>  <MODEL>
1

>  <REMARK>
 VINA RESULT:      -7.9      0.000      0.000
  Name = 
  11 active torsions:
  status: ('A' for Active; 'I' for Inactive)
    1  A    between atoms: C_1  and  O_13
    2  A    between atoms: C_1  and  C_15
    3  A    between atoms: C_1  and  C_20
    4  A    between atoms: C_6  and  S_31
    5  A    between atoms: C_12  and  C_19
    6  A    between atoms: O_13  and  C_24
    7  A    between atoms: C_16  and  O_23
    8  A    between atoms: O_18  and  C_19
    9  A    between atoms: O_18  and  C_21
   10  A    between atoms: C_21  and  C_25
   11  A    between atoms: O_23  and  C_27
                            x       y       z     vdW  Elec       q    Type
                         _______ _______ _______ _____ _____    ______ ____

>  <TORSDO>
F 11

$$$$
=
 OpenBabel11062412303D

 33 35  0  0  1  0  0  0  0  0999 V2000
  187.3030  177.8750  145.3080 C   0  0  0  0  0  0  0  0  0  0  0  0
  186.6840  177.5960  146.5290 C   0  0  0  0  0  3  0  0  0  0  0  0
  188.7080  177.7740  145.2010 C   0  0  0  0  0  0  0  0  0  0  0  0
  188.8120  177.1420  147.5090 N   0  0  0  0  0  0  0  0  0  0  0  0
  187.4610  177.2310  147.6280 C   0  0  0  0  0  3  0  0  0  0  0  0
  189.4420  177.4010  146.3320 C   0  0  0  0  0  3  0  0  0  0  0  0
  189.4640  178.0280  143.9280 C   0  0  1  0  0  3  0  0  0  0  0  0
  191.3280  179.6810  144.0630 C   0  0  0  0  0  1  0  0  0  0  0  0
  190.9470  178.2210  144.2110 C   0  0  0  0  0  2  0  0  0  0  0  0
  189.2640  176.9910  143.0090 O   0  0  0  0  0  0  0  0  0  0  0  0
  188.3670  177.3500  140.8820 N   0  0  2  0  0  0  0  0  0  0  0  0
  188.9050  177.0190  139.5470 C   0  0  1  0  0  3  0  0  0  0  0  0
  188.4340  178.3750  139.8290 C   0  0  1  0  0  3  0  0  0  0  0  0
  190.4170  176.9450  139.6500 C   0  0  1  0  0  3  0  0  0  0  0  0
  187.1670  178.5500  139.2780 O   0  0  0  0  0  1  0  0  0  0  0  0
  189.5170  177.5550  141.7570 C   0  0  2  0  0  3  0  0  0  0  0  0
  190.7130  176.8840  141.1270 C   0  0  0  0  0  2  0  0  0  0  0  0
  190.8850  175.7660  139.0080 O   0  0  0  0  0  0  0  0  0  0  0  0
  190.7050  176.2320  136.7510 O   0  0  0  0  0  0  0  0  0  0  0  0
  189.9300  174.1960  137.4560 O   0  0  0  0  0  1  0  0  0  0  0  0
  190.5170  175.4300  137.7040 C   0  0  0  0  0  0  0  0  0  0  0  0
  186.4410  178.2510  144.1480 C   0  0  0  0  0  2  0  0  0  0  0  0
  185.3070  178.9310  144.5980 O   0  0  0  0  0  0  0  0  0  0  0  0
  184.5660  179.1950  143.4450 C   0  0  2  0  0  3  0  0  0  0  0  0
  183.1000  179.3890  143.8180 C   0  0  0  0  0  1  0  0  0  0  0  0
  183.4340  177.8540  140.2190 C   0  0  0  0  0  0  0  0  0  0  0  0
  184.1140  177.9790  141.3240 C   0  0  0  0  0  0  0  0  0  0  0  0
  182.9770  176.5070  139.7870 C   0  0  0  0  0  1  0  0  0  0  0  0
  184.7950  178.1040  142.4330 C   0  0  0  0  0  3  0  0  0  0  0  0
  181.8410  179.9820  140.0250 O   0  0  0  0  0  0  0  0  0  0  0  0
  184.1350  180.2070  139.1830 O   0  0  0  0  0  0  0  0  0  0  0  0
  182.4160  178.8140  137.7380 N   0  0  0  0  0  1  0  0  0  0  0  0
  182.9610  179.2780  139.3110 S   0  0  0  0  0  0  0  0  0  0  0  0
  1  2  1  0  0  0  0
  2  5  2  0  0  0  0
  3  1  2  0  0  0  0
  3  6  1  0  0  0  0
  4  5  1  0  0  0  0
  6  4  2  0  0  0  0
  7  9  1  1  0  0  0
  7  3  1  0  0  0  0
  8  9  1  0  0  0  0
 10  7  1  0  0  0  0
 11 16  1  0  0  0  0
 12 14  1  0  0  0  0
 12 13  1  0  0  0  0
 12 11  1  0  0  0  0
 13 11  1  0  0  0  0
 14 17  1  0  0  0  0
 15 13  1  0  0  0  0
 16 10  1  0  0  0  0
 17 16  1  0  0  0  0
 18 14  1  0  0  0  0
 19 21  2  0  0  0  0
 20 21  1  0  0  0  0
 21 18  1  0  0  0  0
 22 23  1  0  0  0  0
 22  1  1  0  0  0  0
 24 25  1  0  0  0  0
 24 23  1  0  0  0  0
 26 27  2  0  0  0  0
 27 29  2  0  0  0  0
 28 26  1  0  0  0  0
 29 24  1  0  0  0  0
 31 33  2  0  0  0  0
 32 33  1  0  0  0  0
 33 30  2  0  0  0  0
 33 26  1  0  0  0  0
M  END
>  <MODEL>
2

>  <REMARK>
 VINA RESULT:      -7.7      2.081      2.790
  Name = 
  11 active torsions:
  status: ('A' for Active; 'I' for Inactive)
    1  A    between atoms: C_1  and  O_13
    2  A    between atoms: C_1  and  C_15
    3  A    between atoms: C_1  and  C_20
    4  A    between atoms: C_6  and  S_31
    5  A    between atoms: C_12  and  C_19
    6  A    between atoms: O_13  and  C_24
    7  A    between atoms: C_16  and  O_23
    8  A    between atoms: O_18  and  C_19
    9  A    between atoms: O_18  and  C_21
   10  A    between atoms: C_21  and  C_25
   11  A    between atoms: O_23  and  C_27
                            x       y       z     vdW  Elec       q    Type
                         _______ _______ _______ _____ _____    ______ ____

>  <TORSDO>
F 11

$$$$
=
 OpenBabel11062412303D

 33 35  0  0  1  0  0  0  0  0999 V2000
  185.9480  178.2570  144.2490 C   0  0  0  0  0  0  0  0  0  0  0  0
  184.6150  178.6700  144.3050 C   0  0  0  0  0  3  0  0  0  0  0  0
  186.6640  178.0530  145.4500 C   0  0  0  0  0  0  0  0  0  0  0  0
  184.7170  178.6900  146.6890 N   0  0  0  0  0  0  0  0  0  0  0  0
  184.0120  178.8860  145.5450 C   0  0  0  0  0  3  0  0  0  0  0  0
  186.0130  178.2800  146.6660 C   0  0  0  0  0  3  0  0  0  0  0  0
  188.0910  177.5850  145.4950 C   0  0  1  0  0  3  0  0  0  0  0  0
  189.4160  177.9550  147.5770 C   0  0  0  0  0  1  0  0  0  0  0  0
  188.4350  177.0370  146.8730 C   0  0  0  0  0  2  0  0  0  0  0  0
  188.3370  176.6270  144.5050 O   0  0  0  0  0  0  0  0  0  0  0  0
  189.9460  178.2250  143.9400 N   0  0  2  0  0  0  0  0  0  0  0  0
  190.8280  178.3210  142.7600 C   0  0  1  0  0  3  0  0  0  0  0  0
  191.3960  178.4190  144.1030 C   0  0  1  0  0  3  0  0  0  0  0  0
  191.0210  176.9250  142.1970 C   0  0  1  0  0  3  0  0  0  0  0  0
  191.6480  179.7550  144.4050 O   0  0  0  0  0  1  0  0  0  0  0  0
  189.6750  176.8060  144.1460 C   0  0  2  0  0  3  0  0  0  0  0  0
  189.9570  176.0810  142.8520 C   0  0  0  0  0  2  0  0  0  0  0  0
  190.8320  176.9450  140.7880 O   0  0  0  0  0  0  0  0  0  0  0  0
  193.0310  177.4530  140.2910 O   0  0  0  0  0  1  0  0  0  0  0  0
  191.6940  176.8120  138.5470 O   0  0  0  0  0  0  0  0  0  0  0  0
  191.8950  177.0820  139.8930 C   0  0  0  0  0  0  0  0  0  0  0  0
  186.5600  178.0230  142.9070 C   0  0  0  0  0  2  0  0  0  0  0  0
  185.5740  178.0750  141.9190 O   0  0  0  0  0  0  0  0  0  0  0  0
  186.1170  178.8760  140.9130 C   0  0  2  0  0  3  0  0  0  0  0  0
  185.1210  178.9930  139.7650 C   0  0  0  0  0  1  0  0  0  0  0  0
  187.9760  177.3670  138.1280 C   0  0  0  0  0  0  0  0  0  0  0  0
  187.7170  177.8490  139.3110 C   0  0  0  0  0  0  0  0  0  0  0  0
  188.7740  176.1190  138.0010 C   0  0  0  0  0  1  0  0  0  0  0  0
  187.4580  178.3310  140.4990 C   0  0  0  0  0  3  0  0  0  0  0  0
  187.2890  179.6150  136.8710 O   0  0  0  0  0  0  0  0  0  0  0  0
  188.1040  177.7550  135.4950 O   0  0  0  0  0  0  0  0  0  0  0  0
  185.6600  177.5850  136.4850 N   0  0  0  0  0  1  0  0  0  0  0  0
  187.2880  178.1220  136.7020 S   0  0  0  0  0  0  0  0  0  0  0  0
  1  2  2  0  0  0  0
  1  3  1  0  0  0  0
  2  5  1  0  0  0  0
  3  7  1  0  0  0  0
  3  6  2  0  0  0  0
  5  4  2  0  0  0  0
  6  4  1  0  0  0  0
  7  9  1  1  0  0  0
  9  8  1  0  0  0  0
 10  7  1  0  0  0  0
 11 13  1  0  0  0  0
 11 16  1  0  0  0  0
 12 11  1  0  0  0  0
 12 13  1  0  0  0  0
 13 15  1  0  0  0  0
 14 12  1  0  0  0  0
 14 17  1  0  0  0  0
 16 10  1  0  0  0  0
 17 16  1  0  0  0  0
 18 14  1  0  0  0  0
 20 21  2  0  0  0  0
 21 19  1  0  0  0  0
 21 18  1  0  0  0  0
 22  1  1  0  0  0  0
 23 22  1  0  0  0  0
 24 23  1  0  0  0  0
 25 24  1  0  0  0  0
 26 27  2  0  0  0  0
 27 29  2  0  0  0  0
 28 26  1  0  0  0  0
 29 24  1  0  0  0  0
 31 33  2  0  0  0  0
 32 33  1  0  0  0  0
 33 30  2  0  0  0  0
 33 26  1  0  0  0  0
M  END
>  <MODEL>
3

>  <REMARK>
 VINA RESULT:      -7.7      2.638      5.312
  Name = 
  11 active torsions:
  status: ('A' for Active; 'I' for Inactive)
    1  A    between atoms: C_1  and  O_13
    2  A    between atoms: C_1  and  C_15
    3  A    between atoms: C_1  and  C_20
    4  A    between atoms: C_6  and  S_31
    5  A    between atoms: C_12  and  C_19
    6  A    between atoms: O_13  and  C_24
    7  A    between atoms: C_16  and  O_23
    8  A    between atoms: O_18  and  C_19
    9  A    between atoms: O_18  and  C_21
   10  A    between atoms: C_21  and  C_25
   11  A    between atoms: O_23  and  C_27
                            x       y       z     vdW  Elec       q    Type
                         _______ _______ _______ _____ _____    ______ ____

>  <TORSDO>
F 11

$$$$
=
 OpenBabel11062412303D

 33 35  0  0  1  0  0  0  0  0999 V2000
  187.3340  177.7710  144.7720 C   0  0  0  0  0  0  0  0  0  0  0  0
  186.5810  177.5160  145.9200 C   0  0  0  0  0  3  0  0  0  0  0  0
  188.7450  177.7420  144.8440 C   0  0  0  0  0  0  0  0  0  0  0  0
  188.5880  177.2240  147.1770 N   0  0  0  0  0  0  0  0  0  0  0  0
  187.2310  177.2440  147.1240 C   0  0  0  0  0  3  0  0  0  0  0  0
  189.3480  177.4620  146.0740 C   0  0  0  0  0  3  0  0  0  0  0  0
  189.6410  177.9770  143.6620 C   0  0  1  0  0  3  0  0  0  0  0  0
  191.4520  179.6470  144.0600 C   0  0  0  0  0  1  0  0  0  0  0  0
  191.0820  178.1770  144.1100 C   0  0  0  0  0  2  0  0  0  0  0  0
  189.5480  176.9250  142.7430 O   0  0  0  0  0  0  0  0  0  0  0  0
  188.6540  177.3380  140.6240 N   0  0  2  0  0  0  0  0  0  0  0  0
  189.1780  177.0130  139.2830 C   0  0  1  0  0  3  0  0  0  0  0  0
  188.7450  178.3760  139.5850 C   0  0  1  0  0  3  0  0  0  0  0  0
  190.6880  176.8970  139.3800 C   0  0  1  0  0  3  0  0  0  0  0  0
  187.4810  178.5930  139.0420 O   0  0  0  0  0  1  0  0  0  0  0  0
  189.8110  177.5010  141.4980 C   0  0  2  0  0  3  0  0  0  0  0  0
  190.9870  176.8070  140.8540 C   0  0  0  0  0  2  0  0  0  0  0  0
  191.1220  175.7150  138.7180 O   0  0  0  0  0  0  0  0  0  0  0  0
  192.6520  174.6170  137.3780 O   0  0  0  0  0  0  0  0  0  0  0  0
  193.2260  176.7090  138.1120 O   0  0  0  0  0  1  0  0  0  0  0  0
  192.3410  175.6410  138.0430 C   0  0  0  0  0  0  0  0  0  0  0  0
  186.6080  178.0460  143.4960 C   0  0  0  0  0  2  0  0  0  0  0  0
  185.2440  177.7930  143.6610 O   0  0  0  0  0  0  0  0  0  0  0  0
  184.6200  179.0170  143.4170 C   0  0  2  0  0  3  0  0  0  0  0  0
  183.6340  179.3170  144.5400 C   0  0  0  0  0  1  0  0  0  0  0  0
  181.5090  178.3460  141.5830 C   0  0  0  0  0  0  0  0  0  0  0  0
  182.7490  178.6750  141.8150 C   0  0  0  0  0  0  0  0  0  0  0  0
  181.1860  177.4730  140.4230 C   0  0  0  0  0  1  0  0  0  0  0  0
  183.9930  179.0030  142.0480 C   0  0  0  0  0  3  0  0  0  0  0  0
  178.9320  178.2570  142.2540 O   0  0  0  0  0  0  0  0  0  0  0  0
  180.5720  178.3330  144.0770 O   0  0  0  0  0  0  0  0  0  0  0  0
  180.1220  180.5570  142.7220 N   0  0  0  0  0  1  0  0  0  0  0  0
  180.2470  178.8330  142.6980 S   0  0  0  0  0  0  0  0  0  0  0  0
  1  3  2  0  0  0  0
  1  2  1  0  0  0  0
  2  5  2  0  0  0  0
  3  6  1  0  0  0  0
  5  4  1  0  0  0  0
  6  4  2  0  0  0  0
  7  9  1  1  0  0  0
  7  3  1  0  0  0  0
  8  9  1  0  0  0  0
 10  7  1  0  0  0  0
 11 16  1  0  0  0  0
 12 14  1  0  0  0  0
 12 13  1  0  0  0  0
 12 11  1  0  0  0  0
 13 11  1  0  0  0  0
 14 17  1  0  0  0  0
 15 13  1  0  0  0  0
 16 10  1  0  0  0  0
 17 16  1  0  0  0  0
 18 14  1  0  0  0  0
 19 21  2  0  0  0  0
 21 20  1  0  0  0  0
 21 18  1  0  0  0  0
 22 23  1  0  0  0  0
 22  1  1  0  0  0  0
 24 23  1  0  0  0  0
 24 25  1  0  0  0  0
 26 27  2  0  0  0  0
 26 33  1  0  0  0  0
 27 29  2  0  0  0  0
 28 26  1  0  0  0  0
 29 24  1  0  0  0  0
 30 33  2  0  0  0  0
 33 32  1  0  0  0  0
 33 31  2  0  0  0  0
M  END
>  <MODEL>
4

>  <REMARK>
 VINA RESULT:      -7.6      2.344      2.933
  Name = 
  11 active torsions:
  status: ('A' for Active; 'I' for Inactive)
    1  A    between atoms: C_1  and  O_13
    2  A    between atoms: C_1  and  C_15
    3  A    between atoms: C_1  and  C_20
    4  A    between atoms: C_6  and  S_31
    5  A    between atoms: C_12  and  C_19
    6  A    between atoms: O_13  and  C_24
    7  A    between atoms: C_16  and  O_23
    8  A    between atoms: O_18  and  C_19
    9  A    between atoms: O_18  and  C_21
   10  A    between atoms: C_21  and  C_25
   11  A    between atoms: O_23  and  C_27
                            x       y       z     vdW  Elec       q    Type
                         _______ _______ _______ _____ _____    ______ ____

>  <TORSDO>
F 11

$$$$
=
 OpenBabel11062412303D

 33 35  0  0  1  0  0  0  0  0999 V2000
  189.1280  177.0280  145.4280 C   0  0  0  0  0  0  0  0  0  0  0  0
  190.3230  177.0010  146.1500 C   0  0  0  0  0  3  0  0  0  0  0  0
  187.9260  177.3740  146.0850 C   0  0  0  0  0  0  0  0  0  0  0  0
  189.1470  177.6340  148.1280 N   0  0  0  0  0  0  0  0  0  0  0  0
  190.3130  177.3070  147.5120 C   0  0  0  0  0  3  0  0  0  0  0  0
  187.9690  177.6750  147.4500 C   0  0  0  0  0  3  0  0  0  0  0  0
  186.5950  177.4560  145.3910 C   0  0  1  0  0  3  0  0  0  0  0  0
  184.7490  178.4950  146.7100 C   0  0  0  0  0  1  0  0  0  0  0  0
  185.8860  178.7560  145.7400 C   0  0  0  0  0  2  0  0  0  0  0  0
  186.7430  177.3270  144.0050 O   0  0  0  0  0  0  0  0  0  0  0  0
  184.6280  177.9200  143.2060 N   0  0  2  0  0  0  0  0  0  0  0  0
  184.2210  178.5020  141.9120 C   0  0  1  0  0  3  0  0  0  0  0  0
  183.7760  179.1190  143.1610 C   0  0  1  0  0  3  0  0  0  0  0  0
  185.4080  179.2530  141.3370 C   0  0  1  0  0  3  0  0  0  0  0  0
  182.4560  178.7530  143.4140 O   0  0  0  0  0  1  0  0  0  0  0  0
  185.9930  178.3710  143.4580 C   0  0  2  0  0  3  0  0  0  0  0  0
  186.5970  178.7970  142.1420 C   0  0  0  0  0  2  0  0  0  0  0  0
  185.5790  178.9050  139.9690 O   0  0  0  0  0  0  0  0  0  0  0  0
  184.1860  178.2610  138.2400 O   0  0  0  0  0  0  0  0  0  0  0  0
  184.1020  180.4580  138.8780 O   0  0  0  0  0  1  0  0  0  0  0  0
  184.6070  179.1710  139.0030 C   0  0  0  0  0  0  0  0  0  0  0  0
  189.1750  176.7070  143.9700 C   0  0  0  0  0  2  0  0  0  0  0  0
  190.3600  176.0310  143.6700 O   0  0  0  0  0  0  0  0  0  0  0  0
  190.8290  176.6310  142.5010 C   0  0  2  0  0  3  0  0  0  0  0  0
  191.7010  177.8290  142.8610 C   0  0  0  0  0  1  0  0  0  0  0  0
  189.8760  177.3690  139.0320 C   0  0  0  0  0  0  0  0  0  0  0  0
  189.7730  177.1710  140.3160 C   0  0  0  0  0  0  0  0  0  0  0  0
  189.1430  178.4990  138.4020 C   0  0  0  0  0  1  0  0  0  0  0  0
  189.6690  176.9740  141.6050 C   0  0  0  0  0  3  0  0  0  0  0  0
  190.6740  174.9280  138.3190 O   0  0  0  0  0  0  0  0  0  0  0  0
  190.7750  176.6920  136.6170 O   0  0  0  0  0  0  0  0  0  0  0  0
  192.6000  176.7080  138.5280 N   0  0  0  0  0  1  0  0  0  0  0  0
  190.9650  176.3820  138.0750 S   0  0  0  0  0  0  0  0  0  0  0  0
  1  3  2  0  0  0  0
  1  2  1  0  0  0  0
  2  5  2  0  0  0  0
  3  6  1  0  0  0  0
  5  4  1  0  0  0  0
  6  4  2  0  0  0  0
  7  9  1  6  0  0  0
  7  3  1  0  0  0  0
  9  8  1  0  0  0  0
 10  7  1  0  0  0  0
 11 16  1  0  0  0  0
 12 13  1  0  0  0  0
 12 11  1  0  0  0  0
 13 11  1  0  0  0  0
 13 15  1  0  0  0  0
 14 12  1  0  0  0  0
 14 17  1  0  0  0  0
 16 10  1  0  0  0  0
 17 16  1  0  0  0  0
 18 14  1  0  0  0  0
 19 21  2  0  0  0  0
 20 21  1  0  0  0  0
 21 18  1  0  0  0  0
 22  1  1  0  0  0  0
 23 22  1  0  0  0  0
 24 25  1  0  0  0  0
 24 23  1  0  0  0  0
 26 27  2  0  0  0  0
 27 29  2  0  0  0  0
 28 26  1  0  0  0  0
 29 24  1  0  0  0  0
 31 33  2  0  0  0  0
 33 30  2  0  0  0  0
 33 32  1  0  0  0  0
 33 26  1  0  0  0  0
M  END
>  <MODEL>
5

>  <REMARK>
 VINA RESULT:      -7.5      2.512      6.224
  Name = 
  11 active torsions:
  status: ('A' for Active; 'I' for Inactive)
    1  A    between atoms: C_1  and  O_13
    2  A    between atoms: C_1  and  C_15
    3  A    between atoms: C_1  and  C_20
    4  A    between atoms: C_6  and  S_31
    5  A    between atoms: C_12  and  C_19
    6  A    between atoms: O_13  and  C_24
    7  A    between atoms: C_16  and  O_23
    8  A    between atoms: O_18  and  C_19
    9  A    between atoms: O_18  and  C_21
   10  A    between atoms: C_21  and  C_25
   11  A    between atoms: O_23  and  C_27
                            x       y       z     vdW  Elec       q    Type
                         _______ _______ _______ _____ _____    ______ ____

>  <TORSDO>
F 11

$$$$
=
 OpenBabel11062412303D

 33 35  0  0  1  0  0  0  0  0999 V2000
  184.6300  178.4830  142.4800 C   0  0  0  0  0  0  0  0  0  0  0  0
  183.4760  179.0230  143.0520 C   0  0  0  0  0  3  0  0  0  0  0  0
  185.7320  178.1630  143.3050 C   0  0  0  0  0  0  0  0  0  0  0  0
  184.5000  178.9370  145.2060 N   0  0  0  0  0  0  0  0  0  0  0  0
  183.4300  179.2470  144.4290 C   0  0  0  0  0  3  0  0  0  0  0  0
  185.6340  178.4040  144.6790 C   0  0  0  0  0  3  0  0  0  0  0  0
  187.0050  177.5550  142.7890 C   0  0  1  0  0  3  0  0  0  0  0  0
  188.3170  178.5570  140.9180 C   0  0  0  0  0  1  0  0  0  0  0  0
  187.9990  178.6400  142.3980 C   0  0  0  0  0  2  0  0  0  0  0  0
  187.5650  176.6850  143.7310 O   0  0  0  0  0  0  0  0  0  0  0  0
  189.8920  176.5740  143.5480 N   0  0  2  0  0  0  0  0  0  0  0  0
  190.9340  176.5140  144.5920 C   0  0  1  0  0  3  0  0  0  0  0  0
  191.0300  177.5060  143.5220 C   0  0  1  0  0  3  0  0  0  0  0  0
  190.3750  177.1420  145.8560 C   0  0  1  0  0  3  0  0  0  0  0  0
  191.9540  177.0760  142.5720 O   0  0  0  0  0  1  0  0  0  0  0  0
  188.7600  177.2910  144.1260 C   0  0  2  0  0  3  0  0  0  0  0  0
  188.8880  177.2370  145.6280 C   0  0  0  0  0  2  0  0  0  0  0  0
  190.6480  176.3030  146.9700 O   0  0  0  0  0  0  0  0  0  0  0  0
  192.2270  177.1610  148.4240 O   0  0  0  0  0  1  0  0  0  0  0  0
  192.7860  175.2510  147.2930 O   0  0  0  0  0  0  0  0  0  0  0  0
  191.8960  176.2720  147.5950 C   0  0  0  0  0  0  0  0  0  0  0  0
  184.6430  178.2430  141.0060 C   0  0  0  0  0  2  0  0  0  0  0  0
  184.9690  179.4250  140.3350 O   0  0  0  0  0  0  0  0  0  0  0  0
  184.3610  179.3060  139.0850 C   0  0  2  0  0  3  0  0  0  0  0  0
  182.9220  179.8030  139.1710 C   0  0  0  0  0  1  0  0  0  0  0  0
  186.2460  177.1010  136.8330 C   0  0  0  0  0  0  0  0  0  0  0  0
  185.3670  177.4950  137.7110 C   0  0  0  0  0  0  0  0  0  0  0  0
  185.8350  176.1710  135.7480 C   0  0  0  0  0  1  0  0  0  0  0  0
  184.4840  177.8890  138.5920 C   0  0  0  0  0  3  0  0  0  0  0  0
  188.3900  177.8850  135.4570 O   0  0  0  0  0  0  0  0  0  0  0  0
  187.8590  179.1110  137.5150 O   0  0  0  0  0  0  0  0  0  0  0  0
  188.9140  176.6990  137.7460 N   0  0  0  0  0  1  0  0  0  0  0  0
  187.8730  177.7570  136.8620 S   0  0  0  0  0  0  0  0  0  0  0  0
  1  2  2  0  0  0  0
  1  3  1  0  0  0  0
  2  5  1  0  0  0  0
  3  6  2  0  0  0  0
  5  4  2  0  0  0  0
  6  4  1  0  0  0  0
  7  9  1  1  0  0  0
  7  3  1  0  0  0  0
  7 10  1  0  0  0  0
  8  9  1  0  0  0  0
 10 16  1  0  0  0  0
 11 16  1  0  0  0  0
 11 12  1  0  0  0  0
 12 14  1  0  0  0  0
 13 11  1  0  0  0  0
 13 12  1  0  0  0  0
 14 18  1  0  0  0  0
 15 13  1  0  0  0  0
 16 17  1  0  0  0  0
 17 14  1  0  0  0  0
 18 21  1  0  0  0  0
 20 21  2  0  0  0  0
 21 19  1  0  0  0  0
 22  1  1  0  0  0  0
 23 22  1  0  0  0  0
 24 25  1  0  0  0  0
 24 23  1  0  0  0  0
 26 33  1  0  0  0  0
 26 27  2  0  0  0  0
 27 29  2  0  0  0  0
 28 26  1  0  0  0  0
 29 24  1  0  0  0  0
 30 33  2  0  0  0  0
 33 31  2  0  0  0  0
 33 32  1  0  0  0  0
M  END
>  <MODEL>
6

>  <REMARK>
 VINA RESULT:      -7.3      3.207      6.893
  Name = 
  11 active torsions:
  status: ('A' for Active; 'I' for Inactive)
    1  A    between atoms: C_1  and  O_13
    2  A    between atoms: C_1  and  C_15
    3  A    between atoms: C_1  and  C_20
    4  A    between atoms: C_6  and  S_31
    5  A    between atoms: C_12  and  C_19
    6  A    between atoms: O_13  and  C_24
    7  A    between atoms: C_16  and  O_23
    8  A    between atoms: O_18  and  C_19
    9  A    between atoms: O_18  and  C_21
   10  A    between atoms: C_21  and  C_25
   11  A    between atoms: O_23  and  C_27
                            x       y       z     vdW  Elec       q    Type
                         _______ _______ _______ _____ _____    ______ ____

>  <TORSDO>
F 11

$$$$
=
 OpenBabel11062412303D

 33 35  0  0  1  0  0  0  0  0999 V2000
  188.0480  178.2290  140.6800 C   0  0  0  0  0  0  0  0  0  0  0  0
  188.5030  178.2000  139.3590 C   0  0  0  0  0  3  0  0  0  0  0  0
  188.9220  177.8530  141.7250 C   0  0  0  0  0  0  0  0  0  0  0  0
  190.6340  177.4290  140.1060 N   0  0  0  0  0  0  0  0  0  0  0  0
  189.8090  177.7910  139.0900 C   0  0  0  0  0  3  0  0  0  0  0  0
  190.2220  177.4540  141.4020 C   0  0  0  0  0  3  0  0  0  0  0  0
  188.5360  177.8750  143.1770 C   0  0  1  0  0  3  0  0  0  0  0  0
  186.4340  176.8030  143.9890 C   0  0  0  0  0  1  0  0  0  0  0  0
  187.8740  176.5650  143.5780 C   0  0  0  0  0  2  0  0  0  0  0  0
  189.6450  178.1400  143.9880 O   0  0  0  0  0  0  0  0  0  0  0  0
  188.8790  178.2450  146.1930 N   0  0  2  0  0  0  0  0  0  0  0  0
  189.5370  177.8560  147.4560 C   0  0  1  0  0  3  0  0  0  0  0  0
  188.1940  177.3650  147.1530 C   0  0  1  0  0  3  0  0  0  0  0  0
  190.5780  176.7980  147.1410 C   0  0  1  0  0  3  0  0  0  0  0  0
  187.2560  178.1080  147.8680 O   0  0  0  0  0  1  0  0  0  0  0  0
  189.4380  177.3920  145.1490 C   0  0  2  0  0  3  0  0  0  0  0  0
  190.7540  176.8450  145.6450 C   0  0  0  0  0  2  0  0  0  0  0  0
  191.8020  177.1200  147.7890 O   0  0  0  0  0  0  0  0  0  0  0  0
  192.8020  175.0500  147.5530 O   0  0  0  0  0  0  0  0  0  0  0  0
  193.5650  176.3840  149.2490 O   0  0  0  0  0  1  0  0  0  0  0  0
  192.7250  176.1450  148.1710 C   0  0  0  0  0  0  0  0  0  0  0  0
  186.6490  178.6830  140.9360 C   0  0  0  0  0  2  0  0  0  0  0  0
  186.0230  179.0030  139.7280 O   0  0  0  0  0  0  0  0  0  0  0  0
  184.6940  178.6150  139.8990 C   0  0  2  0  0  3  0  0  0  0  0  0
  183.7750  179.7520  139.4680 C   0  0  0  0  0  1  0  0  0  0  0  0
  182.4010  178.8270  142.7610 C   0  0  0  0  0  0  0  0  0  0  0  0
  183.4360  178.4960  142.0400 C   0  0  0  0  0  0  0  0  0  0  0  0
  182.5900  179.2150  144.1830 C   0  0  0  0  0  1  0  0  0  0  0  0
  184.4750  178.1640  141.3190 C   0  0  0  0  0  3  0  0  0  0  0  0
  180.3580  180.3580  141.9980 O   0  0  0  0  0  0  0  0  0  0  0  0
  180.8740  178.3950  140.6200 O   0  0  0  0  0  0  0  0  0  0  0  0
  179.6830  177.9980  142.9440 N   0  0  0  0  0  1  0  0  0  0  0  0
  180.8130  178.9270  142.0240 S   0  0  0  0  0  0  0  0  0  0  0  0
  1 22  1  0  0  0  0
  1  3  1  0  0  0  0
  2  1  2  0  0  0  0
  3  7  1  0  0  0  0
  4  6  1  0  0  0  0
  5  2  1  0  0  0  0
  5  4  2  0  0  0  0
  6  3  2  0  0  0  0
  7  9  1  1  0  0  0
  7 10  1  0  0  0  0
  9  8  1  0  0  0  0
 10 16  1  0  0  0  0
 11 13  1  0  0  0  0
 11 12  1  0  0  0  0
 13 12  1  0  0  0  0
 13 15  1  0  0  0  0
 14 12  1  0  0  0  0
 14 18  1  0  0  0  0
 16 17  1  0  0  0  0
 16 11  1  0  0  0  0
 17 14  1  0  0  0  0
 18 21  1  0  0  0  0
 19 21  2  0  0  0  0
 21 20  1  0  0  0  0
 23 24  1  0  0  0  0
 23 22  1  0  0  0  0
 24 29  1  0  0  0  0
 25 24  1  0  0  0  0
 26 28  1  0  0  0  0
 27 26  2  0  0  0  0
 29 27  2  0  0  0  0
 30 33  2  0  0  0  0
 31 33  2  0  0  0  0
 33 26  1  0  0  0  0
 33 32  1  0  0  0  0
M  END
>  <MODEL>
7

>  <REMARK>
 VINA RESULT:      -7.3      3.039      6.511
  Name = 
  11 active torsions:
  status: ('A' for Active; 'I' for Inactive)
    1  A    between atoms: C_1  and  O_13
    2  A    between atoms: C_1  and  C_15
    3  A    between atoms: C_1  and  C_20
    4  A    between atoms: C_6  and  S_31
    5  A    between atoms: C_12  and  C_19
    6  A    between atoms: O_13  and  C_24
    7  A    between atoms: C_16  and  O_23
    8  A    between atoms: O_18  and  C_19
    9  A    between atoms: O_18  and  C_21
   10  A    between atoms: C_21  and  C_25
   11  A    between atoms: O_23  and  C_27
                            x       y       z     vdW  Elec       q    Type
                         _______ _______ _______ _____ _____    ______ ____

>  <TORSDO>
F 11

$$$$
=
 OpenBabel11062412303D

 33 35  0  0  1  0  0  0  0  0999 V2000
  185.6310  178.5480  144.1630 C   0  0  0  0  0  0  0  0  0  0  0  0
  184.3000  178.9650  144.2180 C   0  0  0  0  0  3  0  0  0  0  0  0
  186.2890  178.1590  145.3520 C   0  0  0  0  0  0  0  0  0  0  0  0
  184.2880  178.6290  146.5810 N   0  0  0  0  0  0  0  0  0  0  0  0
  183.6400  179.0020  145.4470 C   0  0  0  0  0  3  0  0  0  0  0  0
  185.5820  178.2120  146.5570 C   0  0  0  0  0  3  0  0  0  0  0  0
  187.7100  177.6720  145.3930 C   0  0  1  0  0  3  0  0  0  0  0  0
  189.3980  177.8790  147.2180 C   0  0  0  0  0  1  0  0  0  0  0  0
  188.0890  177.2370  146.8010 C   0  0  0  0  0  2  0  0  0  0  0  0
  187.9100  176.6300  144.4800 O   0  0  0  0  0  0  0  0  0  0  0  0
  189.4680  178.1930  143.7120 N   0  0  2  0  0  0  0  0  0  0  0  0
  190.2700  178.2180  142.4730 C   0  0  1  0  0  3  0  0  0  0  0  0
  190.9240  178.4000  143.7680 C   0  0  1  0  0  3  0  0  0  0  0  0
  190.4340  176.7890  141.9870 C   0  0  1  0  0  3  0  0  0  0  0  0
  191.1880  179.7530  143.9680 O   0  0  0  0  0  1  0  0  0  0  0  0
  189.2200  176.7890  144.0240 C   0  0  2  0  0  3  0  0  0  0  0  0
  189.4210  175.9860  142.7620 C   0  0  0  0  0  2  0  0  0  0  0  0
  190.1530  176.7210  140.5950 O   0  0  0  0  0  0  0  0  0  0  0  0
  192.2390  177.1280  139.6850 O   0  0  0  0  0  1  0  0  0  0  0  0
  190.9310  175.5740  138.6290 O   0  0  0  0  0  0  0  0  0  0  0  0
  191.1490  176.4980  139.6420 C   0  0  0  0  0  0  0  0  0  0  0  0
  186.3060  178.5090  142.8310 C   0  0  0  0  0  2  0  0  0  0  0  0
  185.6230  179.3270  141.9270 O   0  0  0  0  0  0  0  0  0  0  0  0
  185.6440  178.6250  140.7220 C   0  0  2  0  0  3  0  0  0  0  0  0
  187.0880  178.3510  140.3190 C   0  0  0  0  0  1  0  0  0  0  0  0
  182.3000  179.0490  139.2630 C   0  0  0  0  0  0  0  0  0  0  0  0
  183.5760  179.2130  139.4730 C   0  0  0  0  0  0  0  0  0  0  0  0
  181.7870  178.9820  137.8680 C   0  0  0  0  0  1  0  0  0  0  0  0
  184.8560  179.3770  139.6820 C   0  0  0  0  0  3  0  0  0  0  0  0
  180.3900  177.5570  140.3710 O   0  0  0  0  0  0  0  0  0  0  0  0
  182.0090  178.6210  141.8770 O   0  0  0  0  0  0  0  0  0  0  0  0
  180.1530  180.1460  140.7780 N   0  0  0  0  0  1  0  0  0  0  0  0
  181.2120  178.7910  140.6140 S   0  0  0  0  0  0  0  0  0  0  0  0
  1  2  2  0  0  0  0
  1  3  1  0  0  0  0
  2  5  1  0  0  0  0
  3  7  1  0  0  0  0
  3  6  2  0  0  0  0
  5  4  2  0  0  0  0
  6  4  1  0  0  0  0
  7  9  1  1  0  0  0
  9  8  1  0  0  0  0
 10  7  1  0  0  0  0
 11 13  1  0  0  0  0
 11 16  1  0  0  0  0
 12 11  1  0  0  0  0
 12 13  1  0  0  0  0
 13 15  1  0  0  0  0
 14 12  1  0  0  0  0
 14 17  1  0  0  0  0
 16 10  1  0  0  0  0
 17 16  1  0  0  0  0
 18 14  1  0  0  0  0
 20 21  2  0  0  0  0
 21 19  1  0  0  0  0
 21 18  1  0  0  0  0
 22  1  1  0  0  0  0
 23 22  1  0  0  0  0
 24 23  1  0  0  0  0
 25 24  1  0  0  0  0
 26 27  2  0  0  0  0
 26 33  1  0  0  0  0
 27 29  2  0  0  0  0
 28 26  1  0  0  0  0
 29 24  1  0  0  0  0
 30 33  2  0  0  0  0
 33 32  1  0  0  0  0
 33 31  2  0  0  0  0
M  END
>  <MODEL>
8

>  <REMARK>
 VINA RESULT:      -7.3      2.907      4.877
  Name = 
  11 active torsions:
  status: ('A' for Active; 'I' for Inactive)
    1  A    between atoms: C_1  and  O_13
    2  A    between atoms: C_1  and  C_15
    3  A    between atoms: C_1  and  C_20
    4  A    between atoms: C_6  and  S_31
    5  A    between atoms: C_12  and  C_19
    6  A    between atoms: O_13  and  C_24
    7  A    between atoms: C_16  and  O_23
    8  A    between atoms: O_18  and  C_19
    9  A    between atoms: O_18  and  C_21
   10  A    between atoms: C_21  and  C_25
   11  A    between atoms: O_23  and  C_27
                            x       y       z     vdW  Elec       q    Type
                         _______ _______ _______ _____ _____    ______ ____

>  <TORSDO>
F 11

$$$$
=
 OpenBabel11062412303D

 33 35  0  0  1  0  0  0  0  0999 V2000
  186.5070  178.5880  141.7040 C   0  0  0  0  0  0  0  0  0  0  0  0
  185.6780  178.7780  140.5960 C   0  0  0  0  0  3  0  0  0  0  0  0
  185.9320  178.3180  142.9660 C   0  0  0  0  0  0  0  0  0  0  0  0
  183.7570  178.4520  141.9740 N   0  0  0  0  0  0  0  0  0  0  0  0
  184.2930  178.7080  140.7530 C   0  0  0  0  0  3  0  0  0  0  0  0
  184.5390  178.2550  143.0690 C   0  0  0  0  0  3  0  0  0  0  0  0
  186.7390  178.0730  144.2100 C   0  0  1  0  0  3  0  0  0  0  0  0
  185.7410  179.0150  146.2940 C   0  0  0  0  0  1  0  0  0  0  0  0
  185.8280  177.7950  145.3970 C   0  0  0  0  0  2  0  0  0  0  0  0
  187.6450  177.0230  144.0230 O   0  0  0  0  0  0  0  0  0  0  0  0
  189.9520  176.7360  143.7870 N   0  0  2  0  0  0  0  0  0  0  0  0
  191.0130  176.6180  144.8080 C   0  0  1  0  0  3  0  0  0  0  0  0
  191.1550  177.5810  143.7170 C   0  0  1  0  0  3  0  0  0  0  0  0
  190.5320  177.3080  146.0710 C   0  0  1  0  0  3  0  0  0  0  0  0
  192.0210  177.0670  142.7540 O   0  0  0  0  0  1  0  0  0  0  0  0
  188.8910  177.5460  144.3770 C   0  0  2  0  0  3  0  0  0  0  0  0
  189.0510  177.5090  145.8770 C   0  0  0  0  0  2  0  0  0  0  0  0
  190.7710  176.4710  147.1960 O   0  0  0  0  0  0  0  0  0  0  0  0
  192.5690  176.7660  148.6170 O   0  0  0  0  0  1  0  0  0  0  0  0
  192.7860  175.1770  146.9830 O   0  0  0  0  0  0  0  0  0  0  0  0
  192.0580  176.1610  147.6370 C   0  0  0  0  0  0  0  0  0  0  0  0
  187.9850  178.6560  141.5010 C   0  0  0  0  0  2  0  0  0  0  0  0
  188.2720  178.8020  140.1410 O   0  0  0  0  0  0  0  0  0  0  0  0
  188.9000  177.6100  139.7770 C   0  0  2  0  0  3  0  0  0  0  0  0
  190.4110  177.7790  139.8840 C   0  0  0  0  0  1  0  0  0  0  0  0
  190.0270  176.3930  136.5000 C   0  0  0  0  0  0  0  0  0  0  0  0
  189.2310  176.7890  137.4540 C   0  0  0  0  0  0  0  0  0  0  0  0
  189.8020  176.8710  135.1100 C   0  0  0  0  0  1  0  0  0  0  0  0
  188.4320  177.1860  138.4100 C   0  0  0  0  0  3  0  0  0  0  0  0
  191.0710  174.4280  137.9660 O   0  0  0  0  0  0  0  0  0  0  0  0
  191.8450  174.6420  135.6480 O   0  0  0  0  0  0  0  0  0  0  0  0
  192.7240  176.3990  137.4140 N   0  0  0  0  0  1  0  0  0  0  0  0
  191.4220  175.3990  136.8750 S   0  0  0  0  0  0  0  0  0  0  0  0
  1  3  1  0  0  0  0
  2  5  1  0  0  0  0
  2  1  2  0  0  0  0
  3  6  2  0  0  0  0
  3  7  1  0  0  0  0
  4  6  1  0  0  0  0
  5  4  2  0  0  0  0
  7  9  1  1  0  0  0
  9  8  1  0  0  0  0
 10  7  1  0  0  0  0
 10 16  1  0  0  0  0
 11 16  1  0  0  0  0
 11 12  1  0  0  0  0
 12 14  1  0  0  0  0
 13 11  1  0  0  0  0
 13 12  1  0  0  0  0
 14 18  1  0  0  0  0
 15 13  1  0  0  0  0
 16 17  1  0  0  0  0
 17 14  1  0  0  0  0
 18 21  1  0  0  0  0
 20 21  2  0  0  0  0
 21 19  1  0  0  0  0
 22  1  1  0  0  0  0
 23 22  1  0  0  0  0
 24 25  1  0  0  0  0
 24 23  1  0  0  0  0
 26 33  1  0  0  0  0
 26 27  2  0  0  0  0
 27 29  2  0  0  0  0
 28 26  1  0  0  0  0
 29 24  1  0  0  0  0
 31 33  2  0  0  0  0
 33 32  1  0  0  0  0
 33 30  2  0  0  0  0
M  END
>  <MODEL>
9

>  <REMARK>
 VINA RESULT:      -7.2      2.987      7.742
  Name = 
  11 active torsions:
  status: ('A' for Active; 'I' for Inactive)
    1  A    between atoms: C_1  and  O_13
    2  A    between atoms: C_1  and  C_15
    3  A    between atoms: C_1  and  C_20
    4  A    between atoms: C_6  and  S_31
    5  A    between atoms: C_12  and  C_19
    6  A    between atoms: O_13  and  C_24
    7  A    between atoms: C_16  and  O_23
    8  A    between atoms: O_18  and  C_19
    9  A    between atoms: O_18  and  C_21
   10  A    between atoms: C_21  and  C_25
   11  A    between atoms: O_23  and  C_27
                            x       y       z     vdW  Elec       q    Type
                         _______ _______ _______ _____ _____    ______ ____

>  <TORSDO>
F 11

$$$$
