=
 OpenBabel11062416203D

 29 31  0  0  1  0  0  0  0  0999 V2000
  181.8030  179.9370  138.8580 C   0  0  0  0  0  0  0  0  0  0  0  0
  180.5080  178.1520  140.0670 C   0  0  0  0  0  0  0  0  0  0  0  0
  182.5500  178.5320  141.5230 C   0  0  0  0  0  0  0  0  0  0  0  0
  178.9310  178.3970  142.4710 N   0  0  0  0  0  1  0  0  0  0  0  0
  181.1490  178.3940  141.3910 C   0  0  0  0  0  0  0  0  0  0  0  0
  180.3500  178.5180  142.5450 C   0  0  0  0  0  0  0  0  0  0  0  0
  179.5260  177.1740  139.9700 O   0  0  0  0  0  1  0  0  0  0  0  0
  180.9210  178.7990  143.7450 N   0  0  0  0  0  0  0  0  0  0  0  0
  183.1060  178.8410  142.7800 C   0  0  0  0  0  0  0  0  0  0  0  0
  183.0370  179.8070  139.3460 C   0  0  0  0  0  3  0  0  0  0  0  0
  182.2600  178.9640  143.8820 C   0  0  0  0  0  3  0  0  0  0  0  0
  180.7800  178.8750  138.9690 C   0  0  0  0  0  3  0  0  0  0  0  0
  183.6020  178.2790  140.0870 S   0  0  0  0  0  0  0  0  0  0  0  0
  184.8390  179.0600  143.0140 S   0  0  0  0  0  0  0  0  0  0  0  0
  185.0860  179.8660  144.2590 O   0  0  0  0  0  0  0  0  0  0  0  0
  185.4080  179.7980  141.8330 O   0  0  0  0  0  0  0  0  0  0  0  0
  185.5890  177.5070  143.1840 N   0  0  0  0  0  2  0  0  0  0  0  0
  187.0280  177.6770  143.0470 C   0  0  0  0  0  2  0  0  0  0  0  0
  187.7580  176.8220  144.0710 C   0  0  1  0  0  3  0  0  0  0  0  0
  190.0930  177.9210  146.1520 C   0  0  0  0  0  2  0  0  0  0  0  0
  188.8570  177.0440  146.3600 C   0  0  1  0  0  3  0  0  0  0  0  0
  188.4570  177.1200  147.6930 O   0  0  0  0  0  1  0  0  0  0  0  0
  190.2920  177.1560  143.8490 O   0  0  0  0  0  0  0  0  0  0  0  0
  189.1250  176.4400  143.5520 C   0  0  0  0  0  0  0  0  0  0  0  0
  189.2120  175.4360  142.7960 O   0  0  0  0  0  0  0  0  0  0  0  0
  190.3220  178.3030  144.6890 C   0  0  0  0  0  2  0  0  0  0  0  0
  187.7140  177.4850  145.4570 C   0  0  0  0  0  2  0  0  0  0  0  0
  181.4650  181.1390  138.1520 C   0  0  0  0  0  0  0  0  0  0  0  0
  181.1930  182.1090  137.5820 N   0  0  0  0  0  0  0  0  0  0  0  0
  1 12  1  0  0  0  0
  1 10  2  0  0  0  0
  2  5  1  0  0  0  0
  3  9  1  0  0  0  0
  4  6  1  0  0  0  0
  5  3  2  0  0  0  0
  5  6  1  0  0  0  0
  6  8  2  0  0  0  0
  7  2  1  0  0  0  0
  8 11  1  0  0  0  0
  9 14  1  0  0  0  0
  9 11  2  0  0  0  0
 10 13  1  0  0  0  0
 12  2  2  0  0  0  0
 13  3  1  0  0  0  0
 14 17  1  0  0  0  0
 14 15  2  0  0  0  0
 16 14  2  0  0  0  0
 18 17  1  0  0  0  0
 19 18  1  6  0  0  0
 19 27  1  0  0  0  0
 20 21  1  0  0  0  0
 21 22  1  1  0  0  0
 23 26  1  0  0  0  0
 24 23  1  0  0  0  0
 24 19  1  0  0  0  0
 25 24  2  0  0  0  0
 26 20  1  0  0  0  0
 27 21  1  0  0  0  0
 28  1  1  0  0  0  0
 29 28  3  0  0  0  0
M  END
>  <MODEL>
1

>  <REMARK>
 VINA RESULT:      -7.3      0.000      0.000
  Name = 
  5 active torsions:
  status: ('A' for Active; 'I' for Inactive)
    1  A    between atoms: C_1  and  C_4
    2  A    between atoms: S_3  and  C_18
    3  A    between atoms: S_3  and  N_26
    4  A    between atoms: C_5  and  C_8
    5  A    between atoms: C_8  and  N_26
                            x       y       z     vdW  Elec       q    Type
                         _______ _______ _______ _____ _____    ______ ____

>  <TORSDO>
F 5

$$$$
=
 OpenBabel11062416203D

 29 31  0  0  1  0  0  0  0  0999 V2000
  190.0160  174.5770  135.6430 C   0  0  0  0  0  0  0  0  0  0  0  0
  192.1860  175.8450  135.7320 C   0  0  0  0  0  0  0  0  0  0  0  0
  190.7660  176.9170  137.5400 C   0  0  0  0  0  0  0  0  0  0  0  0
  194.2900  175.6640  137.6990 N   0  0  0  0  0  1  0  0  0  0  0  0
  191.9910  176.3490  137.1220 C   0  0  0  0  0  0  0  0  0  0  0  0
  193.0350  176.2370  138.0620 C   0  0  0  0  0  0  0  0  0  0  0  0
  193.3550  176.1790  135.0600 O   0  0  0  0  0  1  0  0  0  0  0  0
  192.8450  176.6390  139.3450 N   0  0  0  0  0  0  0  0  0  0  0  0
  190.5980  177.3050  138.8840 C   0  0  0  0  0  0  0  0  0  0  0  0
  189.1520  175.4020  136.2350 C   0  0  0  0  0  3  0  0  0  0  0  0
  191.6660  177.1570  139.7690 C   0  0  0  0  0  3  0  0  0  0  0  0
  191.3200  175.0270  135.1120 C   0  0  0  0  0  3  0  0  0  0  0  0
  189.4510  177.1640  136.3390 S   0  0  0  0  0  0  0  0  0  0  0  0
  189.0890  177.9900  139.4840 S   0  0  0  0  0  0  0  0  0  0  0  0
  187.9410  177.0940  139.1120 O   0  0  0  0  0  0  0  0  0  0  0  0
  188.8770  179.3420  138.8600 O   0  0  0  0  0  0  0  0  0  0  0  0
  189.1720  178.1200  141.2100 N   0  0  0  0  0  2  0  0  0  0  0  0
  187.9740  177.5160  141.7720 C   0  0  0  0  0  2  0  0  0  0  0  0
  188.3130  176.7670  143.0520 C   0  0  1  0  0  3  0  0  0  0  0  0
  189.6440  178.1350  145.7630 C   0  0  0  0  0  2  0  0  0  0  0  0
  188.4670  177.1790  145.5630 C   0  0  1  0  0  3  0  0  0  0  0  0
  187.5950  177.2880  146.6450 O   0  0  0  0  0  1  0  0  0  0  0  0
  190.7270  177.2780  143.7560 O   0  0  0  0  0  0  0  0  0  0  0  0
  189.7920  176.4630  143.1020 C   0  0  0  0  0  0  0  0  0  0  0  0
  190.2060  175.4350  142.5050 O   0  0  0  0  0  0  0  0  0  0  0  0
  190.3820  178.4620  144.4640 C   0  0  0  0  0  2  0  0  0  0  0  0
  187.7210  177.4900  144.2720 C   0  0  0  0  0  2  0  0  0  0  0  0
  189.6460  173.2010  135.4710 C   0  0  0  0  0  0  0  0  0  0  0  0
  189.3470  172.0920  135.3310 N   0  0  0  0  0  0  0  0  0  0  0  0
  1 10  2  0  0  0  0
  2  5  1  0  0  0  0
  3  9  1  0  0  0  0
  4  6  1  0  0  0  0
  5  3  2  0  0  0  0
  5  6  1  0  0  0  0
  6  8  2  0  0  0  0
  7  2  1  0  0  0  0
  8 11  1  0  0  0  0
  9 14  1  0  0  0  0
  9 11  2  0  0  0  0
 10 13  1  0  0  0  0
 12  1  1  0  0  0  0
 12  2  2  0  0  0  0
 13  3  1  0  0  0  0
 14 17  1  0  0  0  0
 15 14  2  0  0  0  0
 16 14  2  0  0  0  0
 17 18  1  0  0  0  0
 19 18  1  6  0  0  0
 19 24  1  0  0  0  0
 19 27  1  0  0  0  0
 21 20  1  0  0  0  0
 21 22  1  1  0  0  0
 23 26  1  0  0  0  0
 24 23  1  0  0  0  0
 25 24  2  0  0  0  0
 26 20  1  0  0  0  0
 27 21  1  0  0  0  0
 28  1  1  0  0  0  0
 29 28  3  0  0  0  0
M  END
>  <MODEL>
2

>  <REMARK>
 VINA RESULT:      -7.1      5.964      8.707
  Name = 
  5 active torsions:
  status: ('A' for Active; 'I' for Inactive)
    1  A    between atoms: C_1  and  C_4
    2  A    between atoms: S_3  and  C_18
    3  A    between atoms: S_3  and  N_26
    4  A    between atoms: C_5  and  C_8
    5  A    between atoms: C_8  and  N_26
                            x       y       z     vdW  Elec       q    Type
                         _______ _______ _______ _____ _____    ______ ____

>  <TORSDO>
F 5

$$$$
=
 OpenBabel11062416203D

 29 31  0  0  1  0  0  0  0  0999 V2000
  184.0780  176.8810  138.0680 C   0  0  0  0  0  0  0  0  0  0  0  0
  185.1120  176.0790  135.9210 C   0  0  0  0  0  0  0  0  0  0  0  0
  187.0740  176.9690  137.2600 C   0  0  0  0  0  0  0  0  0  0  0  0
  186.6910  173.7060  135.4680 N   0  0  0  0  0  1  0  0  0  0  0  0
  186.4900  175.9490  136.4750 C   0  0  0  0  0  0  0  0  0  0  0  0
  187.2320  174.7730  136.2440 C   0  0  0  0  0  0  0  0  0  0  0  0
  184.8920  175.7330  134.5940 O   0  0  0  0  0  1  0  0  0  0  0  0
  188.4630  174.6220  136.7960 N   0  0  0  0  0  0  0  0  0  0  0  0
  188.3460  176.7710  137.8320 C   0  0  0  0  0  0  0  0  0  0  0  0
  184.9850  177.7320  138.5490 C   0  0  0  0  0  3  0  0  0  0  0  0
  189.0240  175.5790  137.5760 C   0  0  0  0  0  3  0  0  0  0  0  0
  184.0510  176.4520  136.6540 C   0  0  0  0  0  3  0  0  0  0  0  0
  186.1930  178.5200  137.4890 S   0  0  0  0  0  0  0  0  0  0  0  0
  189.1210  177.9850  138.8480 S   0  0  0  0  0  0  0  0  0  0  0  0
  189.0640  179.3260  138.1710 O   0  0  0  0  0  0  0  0  0  0  0  0
  190.5610  177.6050  139.0610 O   0  0  0  0  0  0  0  0  0  0  0  0
  188.2830  178.0770  140.3620 N   0  0  0  0  0  2  0  0  0  0  0  0
  189.2410  177.8380  141.4300 C   0  0  0  0  0  2  0  0  0  0  0  0
  188.6240  176.9560  142.5040 C   0  0  1  0  0  3  0  0  0  0  0  0
  188.3500  177.7630  145.7080 C   0  0  0  0  0  2  0  0  0  0  0  0
  187.3580  177.1690  144.7060 C   0  0  1  0  0  3  0  0  0  0  0  0
  186.0590  177.4470  145.1250 O   0  0  0  0  0  1  0  0  0  0  0  0
  190.2170  176.7620  144.5060 O   0  0  0  0  0  0  0  0  0  0  0  0
  189.7080  176.2650  143.2980 C   0  0  0  0  0  0  0  0  0  0  0  0
  190.1920  175.1980  142.8360 O   0  0  0  0  0  0  0  0  0  0  0  0
  189.7520  177.9540  145.1270 C   0  0  0  0  0  2  0  0  0  0  0  0
  187.5790  177.7410  143.3120 C   0  0  0  0  0  2  0  0  0  0  0  0
  183.0530  176.3980  138.9490 C   0  0  0  0  0  0  0  0  0  0  0  0
  182.2270  176.0080  139.6600 N   0  0  0  0  0  0  0  0  0  0  0  0
  1 10  2  0  0  0  0
  1 28  1  0  0  0  0
  2  5  1  0  0  0  0
  2 12  2  0  0  0  0
  3 13  1  0  0  0  0
  3  9  1  0  0  0  0
  4  6  1  0  0  0  0
  5  3  2  0  0  0  0
  6  5  1  0  0  0  0
  6  8  2  0  0  0  0
  7  2  1  0  0  0  0
  8 11  1  0  0  0  0
  9 14  1  0  0  0  0
 11  9  2  0  0  0  0
 12  1  1  0  0  0  0
 13 10  1  0  0  0  0
 14 16  2  0  0  0  0
 14 17  1  0  0  0  0
 15 14  2  0  0  0  0
 17 18  1  0  0  0  0
 19 18  1  6  0  0  0
 19 24  1  0  0  0  0
 19 27  1  0  0  0  0
 21 22  1  1  0  0  0
 21 20  1  0  0  0  0
 23 26  1  0  0  0  0
 24 23  1  0  0  0  0
 25 24  2  0  0  0  0
 26 20  1  0  0  0  0
 27 21  1  0  0  0  0
 28 29  3  0  0  0  0
M  END
>  <MODEL>
3

>  <REMARK>
 VINA RESULT:      -6.9      4.580      5.935
  Name = 
  5 active torsions:
  status: ('A' for Active; 'I' for Inactive)
    1  A    between atoms: C_1  and  C_4
    2  A    between atoms: S_3  and  C_18
    3  A    between atoms: S_3  and  N_26
    4  A    between atoms: C_5  and  C_8
    5  A    between atoms: C_8  and  N_26
                            x       y       z     vdW  Elec       q    Type
                         _______ _______ _______ _____ _____    ______ ____

>  <TORSDO>
F 5

$$$$
=
 OpenBabel11062416203D

 29 31  0  0  1  0  0  0  0  0999 V2000
  186.4030  174.2880  136.6460 C   0  0  0  0  0  0  0  0  0  0  0  0
  188.7090  174.2460  135.6430 C   0  0  0  0  0  0  0  0  0  0  0  0
  188.7660  176.2090  137.2490 C   0  0  0  0  0  0  0  0  0  0  0  0
  191.1760  173.3720  136.8570 N   0  0  0  0  0  1  0  0  0  0  0  0
  189.3480  175.0240  136.7430 C   0  0  0  0  0  0  0  0  0  0  0  0
  190.5490  174.5660  137.3210 C   0  0  0  0  0  0  0  0  0  0  0  0
  189.5020  173.7980  134.5940 O   0  0  0  0  0  1  0  0  0  0  0  0
  191.1050  175.2370  138.3630 N   0  0  0  0  0  0  0  0  0  0  0  0
  189.3610  176.8680  138.3430 C   0  0  0  0  0  0  0  0  0  0  0  0
  186.2900  175.5340  137.1090 C   0  0  0  0  0  3  0  0  0  0  0  0
  190.5420  176.3570  138.8790 C   0  0  0  0  0  3  0  0  0  0  0  0
  187.4130  173.8940  135.6420 C   0  0  0  0  0  3  0  0  0  0  0  0
  187.2890  176.8720  136.4660 S   0  0  0  0  0  0  0  0  0  0  0  0
  188.6740  178.3310  139.0470 S   0  0  0  0  0  0  0  0  0  0  0  0
  187.1750  178.2150  139.0970 O   0  0  0  0  0  0  0  0  0  0  0  0
  189.0450  179.5120  138.1940 O   0  0  0  0  0  0  0  0  0  0  0  0
  189.2830  178.5240  140.6580 N   0  0  0  0  0  2  0  0  0  0  0  0
  188.1530  178.5400  141.5750 C   0  0  0  0  0  2  0  0  0  0  0  0
  188.6150  178.2020  142.9840 C   0  0  1  0  0  3  0  0  0  0  0  0
  191.1960  176.2600  143.7290 C   0  0  0  0  0  2  0  0  0  0  0  0
  190.7550  177.6300  144.2450 C   0  0  1  0  0  3  0  0  0  0  0  0
  191.8600  178.3060  144.7600 O   0  0  0  0  0  1  0  0  0  0  0  0
  188.8870  175.6630  143.2350 O   0  0  0  0  0  0  0  0  0  0  0  0
  188.1220  176.8290  143.3790 C   0  0  0  0  0  0  0  0  0  0  0  0
  186.9550  176.7280  143.8410 O   0  0  0  0  0  0  0  0  0  0  0  0
  190.2150  175.6490  142.7270 C   0  0  0  0  0  2  0  0  0  0  0  0
  190.1230  178.4570  143.1330 C   0  0  0  0  0  2  0  0  0  0  0  0
  185.4730  173.2970  137.1070 C   0  0  0  0  0  0  0  0  0  0  0  0
  184.7230  172.4980  137.4780 N   0  0  0  0  0  0  0  0  0  0  0  0
  1 28  1  0  0  0  0
  1 10  2  0  0  0  0
  2  5  1  0  0  0  0
  3  9  1  0  0  0  0
  4  6  1  0  0  0  0
  5  3  2  0  0  0  0
  5  6  1  0  0  0  0
  6  8  2  0  0  0  0
  7  2  1  0  0  0  0
  8 11  1  0  0  0  0
  9 11  2  0  0  0  0
  9 14  1  0  0  0  0
 12  2  2  0  0  0  0
 12  1  1  0  0  0  0
 13 10  1  0  0  0  0
 13  3  1  0  0  0  0
 14 15  2  0  0  0  0
 14 17  1  0  0  0  0
 16 14  2  0  0  0  0
 17 18  1  0  0  0  0
 19 18  1  6  0  0  0
 19 27  1  0  0  0  0
 19 24  1  0  0  0  0
 20 21  1  0  0  0  0
 21 22  1  6  0  0  0
 23 24  1  0  0  0  0
 24 25  2  0  0  0  0
 26 23  1  0  0  0  0
 26 20  1  0  0  0  0
 27 21  1  0  0  0  0
 28 29  3  0  0  0  0
M  END
>  <MODEL>
4

>  <REMARK>
 VINA RESULT:      -6.9      5.584      7.537
  Name = 
  5 active torsions:
  status: ('A' for Active; 'I' for Inactive)
    1  A    between atoms: C_1  and  C_4
    2  A    between atoms: S_3  and  C_18
    3  A    between atoms: S_3  and  N_26
    4  A    between atoms: C_5  and  C_8
    5  A    between atoms: C_8  and  N_26
                            x       y       z     vdW  Elec       q    Type
                         _______ _______ _______ _____ _____    ______ ____

>  <TORSDO>
F 5

$$$$
=
 OpenBabel11062416203D

 29 31  0  0  1  0  0  0  0  0999 V2000
  192.7760  175.9390  137.0400 C   0  0  0  0  0  0  0  0  0  0  0  0
  191.0930  174.1270  136.5890 C   0  0  0  0  0  0  0  0  0  0  0  0
  189.7540  175.9420  137.7490 C   0  0  0  0  0  0  0  0  0  0  0  0
  189.0080  174.0710  134.5940 N   0  0  0  0  0  1  0  0  0  0  0  0
  189.9030  175.0200  136.6880 C   0  0  0  0  0  0  0  0  0  0  0  0
  188.9070  174.9750  135.6920 C   0  0  0  0  0  0  0  0  0  0  0  0
  190.8960  172.7840  136.2930 O   0  0  0  0  0  1  0  0  0  0  0  0
  187.8510  175.8270  135.7440 N   0  0  0  0  0  0  0  0  0  0  0  0
  188.6550  176.8240  137.7600 C   0  0  0  0  0  0  0  0  0  0  0  0
  192.2100  176.6510  138.0150 C   0  0  0  0  0  3  0  0  0  0  0  0
  187.7100  176.7380  136.7380 C   0  0  0  0  0  3  0  0  0  0  0  0
  192.3570  174.5620  136.7050 C   0  0  0  0  0  3  0  0  0  0  0  0
  190.9570  175.9530  139.0850 S   0  0  0  0  0  0  0  0  0  0  0  0
  188.4220  178.0220  139.0320 S   0  0  0  0  0  0  0  0  0  0  0  0
  186.9600  178.3460  139.1630 O   0  0  0  0  0  0  0  0  0  0  0  0
  189.1710  179.2750  138.6730 O   0  0  0  0  0  0  0  0  0  0  0  0
  188.9970  177.3740  140.5330 N   0  0  0  0  0  2  0  0  0  0  0  0
  188.3070  178.0530  141.6180 C   0  0  0  0  0  2  0  0  0  0  0  0
  188.1040  177.1040  142.7890 C   0  0  1  0  0  3  0  0  0  0  0  0
  188.6340  177.8660  145.9720 C   0  0  0  0  0  2  0  0  0  0  0  0
  187.4740  177.1690  145.2580 C   0  0  1  0  0  3  0  0  0  0  0  0
  186.3170  177.2990  146.0230 O   0  0  0  0  0  1  0  0  0  0  0  0
  190.1960  177.0830  144.2750 O   0  0  0  0  0  0  0  0  0  0  0  0
  189.4320  176.5360  143.2350 C   0  0  0  0  0  0  0  0  0  0  0  0
  189.8810  175.5310  142.6240 O   0  0  0  0  0  0  0  0  0  0  0  0
  189.7950  178.2130  145.0380 C   0  0  0  0  0  2  0  0  0  0  0  0
  187.2430  177.7660  143.8770 C   0  0  0  0  0  2  0  0  0  0  0  0
  193.8720  176.5160  136.3150 C   0  0  0  0  0  0  0  0  0  0  0  0
  194.7550  176.9820  135.7290 N   0  0  0  0  0  0  0  0  0  0  0  0
  1 10  2  0  0  0  0
  2  5  1  0  0  0  0
  2 12  2  0  0  0  0
  3  9  1  0  0  0  0
  3 13  1  0  0  0  0
  4  6  1  0  0  0  0
  5  3  2  0  0  0  0
  6  8  2  0  0  0  0
  6  5  1  0  0  0  0
  7  2  1  0  0  0  0
  8 11  1  0  0  0  0
  9 14  1  0  0  0  0
 10 13  1  0  0  0  0
 11  9  2  0  0  0  0
 12  1  1  0  0  0  0
 14 15  2  0  0  0  0
 14 17  1  0  0  0  0
 16 14  2  0  0  0  0
 17 18  1  0  0  0  0
 19 18  1  6  0  0  0
 19 24  1  0  0  0  0
 19 27  1  0  0  0  0
 21 20  1  0  0  0  0
 21 22  1  1  0  0  0
 23 26  1  0  0  0  0
 24 23  1  0  0  0  0
 25 24  2  0  0  0  0
 26 20  1  0  0  0  0
 27 21  1  0  0  0  0
 28  1  1  0  0  0  0
 29 28  3  0  0  0  0
M  END
>  <MODEL>
5

>  <REMARK>
 VINA RESULT:      -6.8      5.917      8.388
  Name = 
  5 active torsions:
  status: ('A' for Active; 'I' for Inactive)
    1  A    between atoms: C_1  and  C_4
    2  A    between atoms: S_3  and  C_18
    3  A    between atoms: S_3  and  N_26
    4  A    between atoms: C_5  and  C_8
    5  A    between atoms: C_8  and  N_26
                            x       y       z     vdW  Elec       q    Type
                         _______ _______ _______ _____ _____    ______ ____

>  <TORSDO>
F 5

$$$$
=
 OpenBabel11062416203D

 29 31  0  0  1  0  0  0  0  0999 V2000
  191.6850  175.7880  144.8800 C   0  0  0  0  0  0  0  0  0  0  0  0
  190.6590  177.1860  146.7020 C   0  0  0  0  0  0  0  0  0  0  0  0
  189.2720  177.7270  144.6480 C   0  0  0  0  0  0  0  0  0  0  0  0
  188.1660  176.7700  148.0940 N   0  0  0  0  0  1  0  0  0  0  0  0
  189.3490  177.3660  146.0130 C   0  0  0  0  0  0  0  0  0  0  0  0
  188.1500  177.1460  146.7180 C   0  0  0  0  0  0  0  0  0  0  0  0
  190.8350  177.7520  147.9580 O   0  0  0  0  0  1  0  0  0  0  0  0
  186.9540  177.2480  146.0810 N   0  0  0  0  0  0  0  0  0  0  0  0
  188.0160  177.8070  144.0160 C   0  0  0  0  0  0  0  0  0  0  0  0
  191.2820  176.3940  143.7620 C   0  0  0  0  0  3  0  0  0  0  0  0
  186.8650  177.5650  144.7660 C   0  0  0  0  0  3  0  0  0  0  0  0
  191.6640  176.4480  146.2030 C   0  0  0  0  0  3  0  0  0  0  0  0
  190.7820  178.1120  143.7490 S   0  0  0  0  0  0  0  0  0  0  0  0
  187.8440  178.2190  142.3110 S   0  0  0  0  0  0  0  0  0  0  0  0
  188.4420  179.5750  142.0540 O   0  0  0  0  0  0  0  0  0  0  0  0
  186.3830  178.2530  141.9550 O   0  0  0  0  0  0  0  0  0  0  0  0
  188.6800  177.0390  141.3550 N   0  0  0  0  0  2  0  0  0  0  0  0
  189.0980  177.6700  140.1130 C   0  0  0  0  0  2  0  0  0  0  0  0
  188.2740  177.1410  138.9500 C   0  0  1  0  0  3  0  0  0  0  0  0
  189.0480  177.5020  135.7470 C   0  0  0  0  0  2  0  0  0  0  0  0
  188.5930  176.2940  136.5670 C   0  0  1  0  0  3  0  0  0  0  0  0
  189.0130  175.1240  135.9360 O   0  0  0  0  0  1  0  0  0  0  0  0
  187.8580  179.0110  137.2440 O   0  0  0  0  0  0  0  0  0  0  0  0
  187.4470  178.2530  138.3480 C   0  0  0  0  0  0  0  0  0  0  0  0
  186.3390  178.5230  138.8830 O   0  0  0  0  0  0  0  0  0  0  0  0
  189.0850  178.8000  136.5550 C   0  0  0  0  0  2  0  0  0  0  0  0
  189.1610  176.3450  137.9790 C   0  0  0  0  0  2  0  0  0  0  0  0
  192.2060  174.4540  144.7900 C   0  0  0  0  0  0  0  0  0  0  0  0
  192.6260  173.3780  144.7180 N   0  0  0  0  0  0  0  0  0  0  0  0
  1 12  1  0  0  0  0
  2  7  1  0  0  0  0
  3  5  1  0  0  0  0
  5  2  1  0  0  0  0
  5  6  2  0  0  0  0
  6  4  1  0  0  0  0
  8  6  1  0  0  0  0
  9  3  2  0  0  0  0
  9 11  1  0  0  0  0
 10  1  2  0  0  0  0
 11  8  2  0  0  0  0
 12  2  2  0  0  0  0
 13 10  1  0  0  0  0
 13  3  1  0  0  0  0
 14  9  1  0  0  0  0
 15 14  2  0  0  0  0
 16 14  2  0  0  0  0
 17 14  1  0  0  0  0
 18 17  1  0  0  0  0
 19 18  1  1  0  0  0
 20 26  1  0  0  0  0
 20 21  1  0  0  0  0
 21 22  1  6  0  0  0
 21 27  1  0  0  0  0
 23 24  1  0  0  0  0
 24 25  2  0  0  0  0
 24 19  1  0  0  0  0
 26 23  1  0  0  0  0
 27 19  1  0  0  0  0
 28  1  1  0  0  0  0
 29 28  3  0  0  0  0
M  END
>  <MODEL>
6

>  <REMARK>
 VINA RESULT:      -6.6      5.034      9.119
  Name = 
  5 active torsions:
  status: ('A' for Active; 'I' for Inactive)
    1  A    between atoms: C_1  and  C_4
    2  A    between atoms: S_3  and  C_18
    3  A    between atoms: S_3  and  N_26
    4  A    between atoms: C_5  and  C_8
    5  A    between atoms: C_8  and  N_26
                            x       y       z     vdW  Elec       q    Type
                         _______ _______ _______ _____ _____    ______ ____

>  <TORSDO>
F 5

$$$$
=
 OpenBabel11062416203D

 29 31  0  0  1  0  0  0  0  0999 V2000
  192.6660  175.9980  137.1310 C   0  0  0  0  0  0  0  0  0  0  0  0
  190.9770  174.1830  136.7140 C   0  0  0  0  0  0  0  0  0  0  0  0
  189.6290  176.0540  137.7720 C   0  0  0  0  0  0  0  0  0  0  0  0
  188.9360  174.0660  134.6770 N   0  0  0  0  0  1  0  0  0  0  0  0
  189.7930  175.0890  136.7520 C   0  0  0  0  0  0  0  0  0  0  0  0
  188.8190  175.0130  135.7360 C   0  0  0  0  0  0  0  0  0  0  0  0
  190.7740  172.8310  136.4670 O   0  0  0  0  0  1  0  0  0  0  0  0
  187.7690  175.8750  135.7310 N   0  0  0  0  0  0  0  0  0  0  0  0
  188.5380  176.9440  137.7230 C   0  0  0  0  0  0  0  0  0  0  0  0
  192.0850  176.7530  138.0650 C   0  0  0  0  0  3  0  0  0  0  0  0
  187.6150  176.8260  136.6850 C   0  0  0  0  0  3  0  0  0  0  0  0
  192.2420  174.6120  136.8410 C   0  0  0  0  0  3  0  0  0  0  0  0
  190.8020  176.1080  139.1330 S   0  0  0  0  0  0  0  0  0  0  0  0
  188.2880  178.1930  138.9420 S   0  0  0  0  0  0  0  0  0  0  0  0
  186.8480  178.6270  138.9370 O   0  0  0  0  0  0  0  0  0  0  0  0
  189.1570  179.3780  138.6200 O   0  0  0  0  0  0  0  0  0  0  0  0
  188.6830  177.5500  140.5020 N   0  0  0  0  0  2  0  0  0  0  0  0
  187.8420  178.2060  141.4920 C   0  0  0  0  0  2  0  0  0  0  0  0
  188.4960  178.1400  142.8640 C   0  0  1  0  0  3  0  0  0  0  0  0
  191.2480  176.4360  143.5830 C   0  0  0  0  0  2  0  0  0  0  0  0
  190.8050  177.8640  143.9060 C   0  0  1  0  0  3  0  0  0  0  0  0
  191.9300  178.6520  144.1430 O   0  0  0  0  0  1  0  0  0  0  0  0
  188.9280  175.6960  143.5140 O   0  0  0  0  0  0  0  0  0  0  0  0
  188.1290  176.8460  143.5540 C   0  0  0  0  0  0  0  0  0  0  0  0
  187.0370  176.7970  144.1790 O   0  0  0  0  0  0  0  0  0  0  0  0
  190.1800  175.6280  142.8440 C   0  0  0  0  0  2  0  0  0  0  0  0
  189.9960  178.4600  142.7630 C   0  0  0  0  0  2  0  0  0  0  0  0
  193.7830  176.5370  136.4090 C   0  0  0  0  0  0  0  0  0  0  0  0
  194.6840  176.9710  135.8260 N   0  0  0  0  0  0  0  0  0  0  0  0
  1 10  2  0  0  0  0
  2  5  1  0  0  0  0
  2 12  2  0  0  0  0
  3 13  1  0  0  0  0
  4  6  1  0  0  0  0
  5  3  2  0  0  0  0
  6  5  1  0  0  0  0
  7  2  1  0  0  0  0
  8  6  2  0  0  0  0
  8 11  1  0  0  0  0
  9  3  1  0  0  0  0
  9 14  1  0  0  0  0
 10 13  1  0  0  0  0
 11  9  2  0  0  0  0
 12  1  1  0  0  0  0
 14 17  1  0  0  0  0
 15 14  2  0  0  0  0
 16 14  2  0  0  0  0
 17 18  1  0  0  0  0
 19 18  1  6  0  0  0
 19 24  1  0  0  0  0
 20 21  1  0  0  0  0
 21 22  1  6  0  0  0
 23 24  1  0  0  0  0
 24 25  2  0  0  0  0
 26 23  1  0  0  0  0
 26 20  1  0  0  0  0
 27 19  1  0  0  0  0
 27 21  1  0  0  0  0
 28  1  1  0  0  0  0
 29 28  3  0  0  0  0
M  END
>  <MODEL>
7

>  <REMARK>
 VINA RESULT:      -6.6      5.882      8.447
  Name = 
  5 active torsions:
  status: ('A' for Active; 'I' for Inactive)
    1  A    between atoms: C_1  and  C_4
    2  A    between atoms: S_3  and  C_18
    3  A    between atoms: S_3  and  N_26
    4  A    between atoms: C_5  and  C_8
    5  A    between atoms: C_8  and  N_26
                            x       y       z     vdW  Elec       q    Type
                         _______ _______ _______ _____ _____    ______ ____

>  <TORSDO>
F 5

$$$$
=
 OpenBabel11062416203D

 29 31  0  0  1  0  0  0  0  0999 V2000
  186.1920  178.1500  144.7310 C   0  0  0  0  0  0  0  0  0  0  0  0
  187.5680  177.1070  146.5600 C   0  0  0  0  0  0  0  0  0  0  0  0
  189.0950  177.0680  144.5340 C   0  0  0  0  0  0  0  0  0  0  0  0
  189.7770  178.2550  148.0180 N   0  0  0  0  0  1  0  0  0  0  0  0
  188.8820  177.3600  145.9010 C   0  0  0  0  0  0  0  0  0  0  0  0
  189.9380  177.9310  146.6390 C   0  0  0  0  0  0  0  0  0  0  0  0
  187.5540  176.4890  147.8040 O   0  0  0  0  0  1  0  0  0  0  0  0
  191.1170  178.2200  146.0310 N   0  0  0  0  0  0  0  0  0  0  0  0
  190.3250  177.3990  143.9330 C   0  0  0  0  0  0  0  0  0  0  0  0
  186.7860  177.7230  143.6160 C   0  0  0  0  0  3  0  0  0  0  0  0
  191.3270  177.9750  144.7140 C   0  0  0  0  0  3  0  0  0  0  0  0
  186.3930  177.5030  146.0450 C   0  0  0  0  0  3  0  0  0  0  0  0
  187.8000  176.2490  143.5930 S   0  0  0  0  0  0  0  0  0  0  0  0
  190.6510  177.0950  142.2270 S   0  0  0  0  0  0  0  0  0  0  0  0
  190.5020  175.6280  141.9350 O   0  0  0  0  0  0  0  0  0  0  0  0
  192.0590  177.5170  141.9100 O   0  0  0  0  0  0  0  0  0  0  0  0
  189.5150  177.9840  141.2660 N   0  0  0  0  0  2  0  0  0  0  0  0
  189.8550  177.7930  139.8640 C   0  0  0  0  0  2  0  0  0  0  0  0
  188.6750  177.1950  139.1140 C   0  0  1  0  0  3  0  0  0  0  0  0
  188.2760  177.2700  135.8230 C   0  0  0  0  0  2  0  0  0  0  0  0
  188.1380  176.1470  136.8530 C   0  0  1  0  0  3  0  0  0  0  0  0
  188.3110  174.9180  136.2200 O   0  0  0  0  0  1  0  0  0  0  0  0
  187.6860  178.9310  137.5040 O   0  0  0  0  0  0  0  0  0  0  0  0
  187.6880  178.2790  138.7440 C   0  0  0  0  0  0  0  0  0  0  0  0
  186.8390  178.6260  139.6070 O   0  0  0  0  0  0  0  0  0  0  0  0
  188.5930  178.6280  136.4510 C   0  0  0  0  0  2  0  0  0  0  0  0
  189.1650  176.2960  137.9670 C   0  0  0  0  0  2  0  0  0  0  0  0
  185.2810  179.2550  144.6460 C   0  0  0  0  0  0  0  0  0  0  0  0
  184.5450  180.1460  144.5760 N   0  0  0  0  0  0  0  0  0  0  0  0
  1 12  1  0  0  0  0
  2  7  1  0  0  0  0
  3  5  1  0  0  0  0
  5  2  1  0  0  0  0
  5  6  2  0  0  0  0
  6  4  1  0  0  0  0
  8  6  1  0  0  0  0
  9  3  2  0  0  0  0
  9 11  1  0  0  0  0
 10  1  2  0  0  0  0
 11  8  2  0  0  0  0
 12  2  2  0  0  0  0
 13 10  1  0  0  0  0
 13  3  1  0  0  0  0
 14  9  1  0  0  0  0
 15 14  2  0  0  0  0
 16 14  2  0  0  0  0
 17 14  1  0  0  0  0
 18 17  1  0  0  0  0
 19 18  1  6  0  0  0
 20 26  1  0  0  0  0
 20 21  1  0  0  0  0
 21 22  1  6  0  0  0
 21 27  1  0  0  0  0
 23 24  1  0  0  0  0
 24 19  1  0  0  0  0
 24 25  2  0  0  0  0
 26 23  1  0  0  0  0
 27 19  1  0  0  0  0
 28  1  1  0  0  0  0
 29 28  3  0  0  0  0
M  END
>  <MODEL>
8

>  <REMARK>
 VINA RESULT:      -6.5      4.481      8.250
  Name = 
  5 active torsions:
  status: ('A' for Active; 'I' for Inactive)
    1  A    between atoms: C_1  and  C_4
    2  A    between atoms: S_3  and  C_18
    3  A    between atoms: S_3  and  N_26
    4  A    between atoms: C_5  and  C_8
    5  A    between atoms: C_8  and  N_26
                            x       y       z     vdW  Elec       q    Type
                         _______ _______ _______ _____ _____    ______ ____

>  <TORSDO>
F 5

$$$$
=
 OpenBabel11062416203D

 29 31  0  0  1  0  0  0  0  0999 V2000
  191.3040  176.8270  146.8120 C   0  0  0  0  0  0  0  0  0  0  0  0
  189.1460  178.0980  147.0330 C   0  0  0  0  0  0  0  0  0  0  0  0
  189.4360  177.7990  144.5310 C   0  0  0  0  0  0  0  0  0  0  0  0
  186.4500  177.1280  146.6850 N   0  0  0  0  0  1  0  0  0  0  0  0
  188.6270  177.7190  145.6870 C   0  0  0  0  0  0  0  0  0  0  0  0
  187.3090  177.2400  145.5530 C   0  0  0  0  0  0  0  0  0  0  0  0
  188.3550  178.8930  147.8530 O   0  0  0  0  0  1  0  0  0  0  0  0
  186.8490  176.8360  144.3400 N   0  0  0  0  0  0  0  0  0  0  0  0
  188.9320  177.3540  143.2930 C   0  0  0  0  0  0  0  0  0  0  0  0
  191.6780  177.0690  145.5540 C   0  0  0  0  0  3  0  0  0  0  0  0
  187.6230  176.8780  143.2270 C   0  0  0  0  0  3  0  0  0  0  0  0
  190.3130  177.6570  147.5280 C   0  0  0  0  0  3  0  0  0  0  0  0
  191.0880  178.5000  144.6550 S   0  0  0  0  0  0  0  0  0  0  0  0
  189.8940  177.3940  141.8160 S   0  0  0  0  0  0  0  0  0  0  0  0
  190.3450  176.0030  141.4660 O   0  0  0  0  0  0  0  0  0  0  0  0
  191.1050  178.2590  142.0380 O   0  0  0  0  0  0  0  0  0  0  0  0
  188.9240  178.0200  140.5240 N   0  0  0  0  0  2  0  0  0  0  0  0
  189.1240  177.1790  139.3540 C   0  0  0  0  0  2  0  0  0  0  0  0
  188.2150  177.6290  138.2210 C   0  0  1  0  0  3  0  0  0  0  0  0
  188.1820  176.3260  135.1720 C   0  0  0  0  0  2  0  0  0  0  0  0
  187.0640  176.6760  136.1560 C   0  0  1  0  0  3  0  0  0  0  0  0
  185.9380  175.9080  135.8650 O   0  0  0  0  0  1  0  0  0  0  0  0
  189.5980  178.0740  136.1060 O   0  0  0  0  0  0  0  0  0  0  0  0
  188.9700  178.5310  137.2730 C   0  0  0  0  0  0  0  0  0  0  0  0
  189.0560  179.7540  137.5600 O   0  0  0  0  0  0  0  0  0  0  0  0
  189.5720  176.7190  135.6760 C   0  0  0  0  0  2  0  0  0  0  0  0
  187.4980  176.4230  137.5930 C   0  0  0  0  0  2  0  0  0  0  0  0
  191.9260  175.7430  147.5170 C   0  0  0  0  0  0  0  0  0  0  0  0
  192.4280  174.8690  148.0860 N   0  0  0  0  0  0  0  0  0  0  0  0
  1 28  1  0  0  0  0
  1 12  1  0  0  0  0
  2 12  2  0  0  0  0
  2  7  1  0  0  0  0
  3 13  1  0  0  0  0
  3  5  1  0  0  0  0
  5  2  1  0  0  0  0
  6  5  2  0  0  0  0
  6  4  1  0  0  0  0
  8  6  1  0  0  0  0
  9  3  2  0  0  0  0
 10  1  2  0  0  0  0
 11  9  1  0  0  0  0
 11  8  2  0  0  0  0
 13 10  1  0  0  0  0
 14 16  2  0  0  0  0
 14  9  1  0  0  0  0
 15 14  2  0  0  0  0
 17 14  1  0  0  0  0
 18 17  1  0  0  0  0
 19 18  1  1  0  0  0
 20 26  1  0  0  0  0
 20 21  1  0  0  0  0
 21 22  1  6  0  0  0
 21 27  1  0  0  0  0
 23 24  1  0  0  0  0
 24 25  2  0  0  0  0
 24 19  1  0  0  0  0
 26 23  1  0  0  0  0
 27 19  1  0  0  0  0
 28 29  3  0  0  0  0
M  END
>  <MODEL>
9

>  <REMARK>
 VINA RESULT:      -6.4      5.376      9.380
  Name = 
  5 active torsions:
  status: ('A' for Active; 'I' for Inactive)
    1  A    between atoms: C_1  and  C_4
    2  A    between atoms: S_3  and  C_18
    3  A    between atoms: S_3  and  N_26
    4  A    between atoms: C_5  and  C_8
    5  A    between atoms: C_8  and  N_26
                            x       y       z     vdW  Elec       q    Type
                         _______ _______ _______ _____ _____    ______ ____

>  <TORSDO>
F 5

$$$$
