=
 OpenBabel11062412053D

 48 51  0  0  1  0  0  0  0  0999 V2000
  183.9560  178.6890  144.2630 C   0  0  0  0  0  3  0  0  0  0  0  0
  187.7180  178.0630  143.9030 C   0  0  0  0  0  0  0  0  0  0  0  0
  186.9520  178.5810  141.1940 C   0  0  0  0  0  2  0  0  0  0  0  0
  185.2760  178.4250  144.6410 C   0  0  0  0  0  0  0  0  0  0  0  0
  188.2070  178.1710  145.0580 O   0  0  0  0  0  0  0  0  0  0  0  0
  185.8940  178.4950  142.2690 C   0  0  0  0  0  0  0  0  0  0  0  0
  184.5460  178.7210  141.9200 C   0  0  0  0  0  0  0  0  0  0  0  0
  188.2060  177.8380  141.5310 C   0  0  0  0  0  3  0  0  0  0  0  0
  188.5960  177.6390  142.7950 C   0  0  0  0  0  0  0  0  0  0  0  0
  183.5770  178.8430  142.9350 C   0  0  0  0  0  0  0  0  0  0  0  0
  186.2770  178.3480  143.6280 C   0  0  0  0  0  0  0  0  0  0  0  0
  185.5600  178.2430  146.1250 C   0  0  0  0  0  0  0  0  0  0  0  0
  186.3510  179.2860  146.6190 O   0  0  0  0  0  1  0  0  0  0  0  0
  186.2390  177.0540  146.3280 F   0  0  0  0  0  0  0  0  0  0  0  0
  184.3590  178.2310  146.8360 O   0  0  0  0  0  1  0  0  0  0  0  0
  183.5700  177.8600  139.7500 C   0  0  0  0  0  0  0  0  0  0  0  0
  183.1550  176.8010  140.2970 O   0  0  0  0  0  0  0  0  0  0  0  0
  184.1720  178.8880  140.5450 N   0  0  0  0  0  2  0  0  0  0  0  0
  183.4190  178.0730  138.2670 C   0  0  2  0  0  3  0  0  0  0  0  0
  181.2430  179.1850  138.6200 C   0  0  0  0  0  2  0  0  0  0  0  0
  181.5820  179.3440  137.1540 C   0  0  0  0  0  2  0  0  0  0  0  0
  181.9460  178.0640  137.8820 C   0  0  0  0  0  3  0  0  0  0  0  0
  184.1760  177.0350  137.4490 C   0  0  0  0  0  2  0  0  0  0  0  0
  183.3550  175.9330  137.1970 O   0  0  0  0  0  0  0  0  0  0  0  0
  184.7350  175.4370  135.0160 O   0  0  0  0  0  0  0  0  0  0  0  0
  184.3220  174.8380  136.3400 P   0  0  0  0  0  0  0  0  0  0  0  0
  183.4720  173.3950  136.0700 O   0  0  0  0  0  1  0  0  0  0  0  0
  185.7110  174.4980  137.2460 O   0  0  0  0  0  1  0  0  0  0  0  0
  189.9330  177.0180  143.0980 C   0  0  1  0  0  3  0  0  0  0  0  0
  189.8910  175.5000  143.0060 C   0  0  0  0  0  1  0  0  0  0  0  0
  191.0260  177.5760  142.1900 C   0  0  0  0  0  2  0  0  0  0  0  0
  191.8430  176.5630  138.5990 N   0  0  0  0  0  2  0  0  0  0  0  0
  191.0000  176.9010  140.8990 N   0  0  0  0  0  2  0  0  0  0  0  0
  192.0330  177.0500  139.9240 C   0  0  0  0  0  0  0  0  0  0  0  0
  193.1070  177.6300  140.2220 O   0  0  0  0  0  0  0  0  0  0  0  0
  190.6340  175.9800  138.2070 N   0  0  0  0  0  0  0  0  0  0  0  0
  189.9640  174.9590  137.7490 O   0  0  0  0  0  0  0  0  0  0  0  0
  189.3380  176.0650  138.0390 N   0  0  0  0  0  0  0  0  0  0  0  0
  188.1540  176.8060  138.1230 N   0  0  0  0  0  2  0  0  0  0  0  0
  186.7870  179.0360  137.6060 O   0  0  0  0  0  1  0  0  0  0  0  0
  189.3300  179.0940  136.9980 O   0  0  0  0  0  0  0  0  0  0  0  0
  187.9100  178.1790  137.0660 P   0  0  1  0  0  0  0  0  0  0  0  0
  187.4880  177.5980  135.4020 C   0  0  0  0  0  1  0  0  0  0  0  0
  181.3470  179.5860  143.5810 N   0  0  0  0  0  0  0  0  0  0  0  0
  182.1440  179.0860  142.6900 C   0  0  0  0  0  3  0  0  0  0  0  0
  179.5890  180.6180  142.3610 N   0  0  0  0  0  2  0  0  0  0  0  0
  178.9310  179.2150  144.1950 C   0  0  0  0  0  1  0  0  0  0  0  0
  179.9600  179.8340  143.3210 C   0  0  0  0  0  0  0  0  0  0  0  0
  1  4  1  0  0  0  0
  2  5  2  0  0  0  0
  3  8  1  0  0  0  0
  3  6  1  0  0  0  0
  4 12  1  0  0  0  0
  6 11  1  0  0  0  0
  7  6  2  0  0  0  0
  7 10  1  0  0  0  0
  8  9  2  0  0  0  0
  9 29  1  0  0  0  0
  9  2  1  0  0  0  0
 10  1  2  0  0  0  0
 11  2  1  0  0  0  0
 11  4  2  0  0  0  0
 12 14  1  0  0  0  0
 12 13  1  0  0  0  0
 12 15  1  0  0  0  0
 16 17  2  0  0  0  0
 16 18  1  0  0  0  0
 18  7  1  0  0  0  0
 19 23  1  6  0  0  0
 19 16  1  0  0  0  0
 21 22  1  0  0  0  0
 21 20  1  0  0  0  0
 22 19  1  0  0  0  0
 22 20  1  0  0  0  0
 24 23  1  0  0  0  0
 25 26  2  0  0  0  0
 26 24  1  0  0  0  0
 26 28  1  0  0  0  0
 27 26  1  0  0  0  0
 29 30  1  6  0  0  0
 31 29  1  0  0  0  0
 32 34  1  0  0  0  0
 33 31  1  0  0  0  0
 34 35  2  0  0  0  0
 34 33  1  0  0  0  0
 36 32  1  0  0  0  0
 37 38  1  0  0  0  0
 37 36  1  0  0  0  0
 38 39  1  0  0  0  0
 38 36  1  0  0  0  0
 41 42  2  0  0  0  0
 42 43  1  6  0  0  0
 42 40  1  0  0  0  0
 42 39  1  0  0  0  0
 45 10  1  0  0  0  0
 45 44  2  0  0  0  0
 46 48  2  0  0  0  0
 48 44  1  0  0  0  0
 48 47  1  0  0  0  0
M  END
>  <MODEL>
1

>  <REMARK>
 VINA RESULT:      -8.0      0.000      0.000
  Name = 
  15 active torsions:
  status: ('A' for Active; 'I' for Inactive)
    1  A    between atoms: N_5  and  N_15
    2  A    between atoms: N_7  and  C_44
    3  A    between atoms: C_8  and  C_11
    4  A    between atoms: C_8  and  O_18
    5  A    between atoms: C_10  and  C_13
    6  A    between atoms: C_11  and  C_12
    7  A    between atoms: C_11  and  C_34
    8  A    between atoms: C_16  and  C_38
    9  A    between atoms: C_16  and  C_44
   10  A    between atoms: O_18  and  P_41
   11  A    between atoms: N_20  and  C_32
   12  A    between atoms: N_24  and  C_36
   13  A    between atoms: P_30  and  N_48
   14  A    between atoms: N_39  and  N_48
   15  A    between atoms: C_42  and  C_47
                            x       y       z     vdW  Elec       q    Type
                         _______ _______ _______ _____ _____    ______ ____

>  <TORSDO>
F 15

$$$$
=
 OpenBabel11062412053D

 48 51  0  0  1  0  0  0  0  0999 V2000
  190.8790  177.0040  141.1690 C   0  0  0  0  0  3  0  0  0  0  0  0
  187.9510  178.0240  138.9180 C   0  0  0  0  0  0  0  0  0  0  0  0
  187.0330  178.8770  141.4910 C   0  0  0  0  0  2  0  0  0  0  0  0
  190.1390  177.1940  139.9970 C   0  0  0  0  0  0  0  0  0  0  0  0
  188.3920  178.0150  137.7390 O   0  0  0  0  0  0  0  0  0  0  0  0
  188.3280  178.1080  141.3750 C   0  0  0  0  0  0  0  0  0  0  0  0
  189.0860  177.8680  142.5400 C   0  0  0  0  0  0  0  0  0  0  0  0
  186.0870  178.6280  140.3590 C   0  0  0  0  0  3  0  0  0  0  0  0
  186.5150  178.2810  139.1400 C   0  0  0  0  0  0  0  0  0  0  0  0
  190.3840  177.3330  142.4250 C   0  0  0  0  0  0  0  0  0  0  0  0
  188.8420  177.7800  140.0930 C   0  0  0  0  0  0  0  0  0  0  0  0
  190.7770  176.7630  138.6850 C   0  0  0  0  0  0  0  0  0  0  0  0
  192.1550  176.5720  138.8320 O   0  0  0  0  0  1  0  0  0  0  0  0
  190.5780  177.7420  137.7260 F   0  0  0  0  0  0  0  0  0  0  0  0
  190.2110  175.5600  138.2590 O   0  0  0  0  0  1  0  0  0  0  0  0
  187.7100  177.3760  144.6050 C   0  0  0  0  0  0  0  0  0  0  0  0
  187.5340  176.1730  144.2640 O   0  0  0  0  0  0  0  0  0  0  0  0
  188.5660  178.2220  143.8290 N   0  0  0  0  0  2  0  0  0  0  0  0
  187.0500  177.9320  145.8390 C   0  0  2  0  0  3  0  0  0  0  0  0
  189.0160  178.0650  147.3280 C   0  0  0  0  0  2  0  0  0  0  0  0
  187.8070  178.4140  148.1680 C   0  0  0  0  0  2  0  0  0  0  0  0
  187.6990  177.3530  147.0890 C   0  0  0  0  0  3  0  0  0  0  0  0
  185.5500  177.6720  145.8650 C   0  0  0  0  0  2  0  0  0  0  0  0
  184.8560  178.8830  145.9320 O   0  0  0  0  0  0  0  0  0  0  0  0
  184.5270  177.9320  143.5040 O   0  0  0  0  0  0  0  0  0  0  0  0
  184.1280  179.0690  144.4140 P   0  0  0  0  0  0  0  0  0  0  0  0
  184.5950  180.5440  143.7200 O   0  0  0  0  0  1  0  0  0  0  0  0
  182.4460  179.0580  144.6020 O   0  0  0  0  0  1  0  0  0  0  0  0
  185.5520  178.1810  137.9870 C   0  0  1  0  0  3  0  0  0  0  0  0
  185.5250  176.7830  137.3870 C   0  0  0  0  0  1  0  0  0  0  0  0
  184.1470  178.6120  138.3950 C   0  0  0  0  0  2  0  0  0  0  0  0
  182.0350  175.5980  139.4210 N   0  0  0  0  0  2  0  0  0  0  0  0
  183.2380  177.4740  138.3470 N   0  0  0  0  0  2  0  0  0  0  0  0
  182.7220  176.8430  139.5200 C   0  0  0  0  0  0  0  0  0  0  0  0
  182.8890  177.3690  140.6490 O   0  0  0  0  0  0  0  0  0  0  0  0
  181.8970  174.9430  138.1940 N   0  0  0  0  0  0  0  0  0  0  0  0
  181.1420  174.4340  137.2600 O   0  0  0  0  0  0  0  0  0  0  0  0
  182.4390  174.3970  137.1340 N   0  0  0  0  0  0  0  0  0  0  0  0
  183.5790  174.0440  136.4050 N   0  0  0  0  0  2  0  0  0  0  0  0
  185.2360  173.0150  138.2230 O   0  0  0  0  0  1  0  0  0  0  0  0
  183.5590  171.3320  137.1310 O   0  0  0  0  0  0  0  0  0  0  0  0
  184.5530  172.6830  136.9160 P   0  0  1  0  0  0  0  0  0  0  0  0
  185.7990  172.3180  135.6520 C   0  0  0  0  0  1  0  0  0  0  0  0
  190.9370  176.2550  144.5410 N   0  0  0  0  0  0  0  0  0  0  0  0
  191.2680  177.0470  143.5690 C   0  0  0  0  0  3  0  0  0  0  0  0
  192.0230  176.8430  146.5700 N   0  0  0  0  0  2  0  0  0  0  0  0
  192.5380  174.6750  145.6770 C   0  0  0  0  0  1  0  0  0  0  0  0
  191.8160  175.9720  145.6360 C   0  0  0  0  0  0  0  0  0  0  0  0
  1 10  1  0  0  0  0
  2  9  1  0  0  0  0
  2 11  1  0  0  0  0
  4 11  1  0  0  0  0
  4  1  2  0  0  0  0
  5  2  2  0  0  0  0
  6  3  1  0  0  0  0
  6  7  1  0  0  0  0
  7 18  1  0  0  0  0
  8  3  1  0  0  0  0
  9  8  2  0  0  0  0
 10  7  2  0  0  0  0
 10 45  1  0  0  0  0
 11  6  2  0  0  0  0
 12 13  1  0  0  0  0
 12  4  1  0  0  0  0
 14 12  1  0  0  0  0
 15 12  1  0  0  0  0
 16 19  1  0  0  0  0
 17 16  2  0  0  0  0
 18 16  1  0  0  0  0
 19 23  1  6  0  0  0
 19 22  1  0  0  0  0
 20 21  1  0  0  0  0
 22 20  1  0  0  0  0
 22 21  1  0  0  0  0
 23 24  1  0  0  0  0
 25 26  2  0  0  0  0
 26 28  1  0  0  0  0
 26 24  1  0  0  0  0
 27 26  1  0  0  0  0
 29 30  1  1  0  0  0
 29 31  1  0  0  0  0
 29  9  1  0  0  0  0
 32 34  1  0  0  0  0
 33 31  1  0  0  0  0
 33 34  1  0  0  0  0
 34 35  2  0  0  0  0
 36 32  1  0  0  0  0
 37 36  1  0  0  0  0
 38 37  1  0  0  0  0
 38 36  1  0  0  0  0
 39 42  1  0  0  0  0
 39 38  1  0  0  0  0
 42 43  1  6  0  0  0
 42 41  2  0  0  0  0
 42 40  1  0  0  0  0
 44 48  1  0  0  0  0
 45 44  2  0  0  0  0
 48 47  1  0  0  0  0
 48 46  2  0  0  0  0
M  END
>  <MODEL>
2

>  <REMARK>
 VINA RESULT:      -7.4      3.514      8.568
  Name = 
  15 active torsions:
  status: ('A' for Active; 'I' for Inactive)
    1  A    between atoms: N_5  and  N_15
    2  A    between atoms: N_7  and  C_44
    3  A    between atoms: C_8  and  C_11
    4  A    between atoms: C_8  and  O_18
    5  A    between atoms: C_10  and  C_13
    6  A    between atoms: C_11  and  C_12
    7  A    between atoms: C_11  and  C_34
    8  A    between atoms: C_16  and  C_38
    9  A    between atoms: C_16  and  C_44
   10  A    between atoms: O_18  and  P_41
   11  A    between atoms: N_20  and  C_32
   12  A    between atoms: N_24  and  C_36
   13  A    between atoms: P_30  and  N_48
   14  A    between atoms: N_39  and  N_48
   15  A    between atoms: C_42  and  C_47
                            x       y       z     vdW  Elec       q    Type
                         _______ _______ _______ _____ _____    ______ ____

>  <TORSDO>
F 15

$$$$
=
 OpenBabel11062412053D

 48 51  0  0  1  0  0  0  0  0999 V2000
  181.7190  179.1310  140.5550 C   0  0  0  0  0  3  0  0  0  0  0  0
  184.0630  178.6450  143.5470 C   0  0  0  0  0  0  0  0  0  0  0  0
  185.9220  178.9060  141.3870 C   0  0  0  0  0  2  0  0  0  0  0  0
  182.1190  178.9580  141.8840 C   0  0  0  0  0  0  0  0  0  0  0  0
  183.3730  178.8680  144.5760 O   0  0  0  0  0  0  0  0  0  0  0  0
  184.4400  178.8610  141.0980 C   0  0  0  0  0  0  0  0  0  0  0  0
  183.9990  178.9990  139.7650 C   0  0  0  0  0  0  0  0  0  0  0  0
  186.2990  178.2490  142.6770 C   0  0  0  0  0  3  0  0  0  0  0  0
  185.4510  178.1710  143.7080 C   0  0  0  0  0  0  0  0  0  0  0  0
  182.6250  179.1600  139.5010 C   0  0  0  0  0  0  0  0  0  0  0  0
  183.5110  178.8430  142.1710 C   0  0  0  0  0  0  0  0  0  0  0  0
  181.0300  178.9100  142.9450 C   0  0  0  0  0  0  0  0  0  0  0  0
  180.7910  180.1790  143.4820 O   0  0  0  0  0  1  0  0  0  0  0  0
  181.4200  178.0730  143.9770 F   0  0  0  0  0  0  0  0  0  0  0  0
  179.8420  178.4430  142.3800 O   0  0  0  0  0  1  0  0  0  0  0  0
  185.3420  177.8880  137.9310 C   0  0  0  0  0  0  0  0  0  0  0  0
  184.7090  176.8030  138.0540 O   0  0  0  0  0  0  0  0  0  0  0  0
  184.9470  179.0370  138.6890 N   0  0  0  0  0  2  0  0  0  0  0  0
  186.4980  178.0020  136.9740 C   0  0  2  0  0  3  0  0  0  0  0  0
  185.4470  177.2840  134.8570 C   0  0  0  0  0  2  0  0  0  0  0  0
  186.9330  177.3870  134.5940 C   0  0  0  0  0  2  0  0  0  0  0  0
  186.4350  176.8890  135.9370 C   0  0  0  0  0  3  0  0  0  0  0  0
  187.8470  177.9760  137.6820 C   0  0  0  0  0  2  0  0  0  0  0  0
  188.1490  176.6730  138.0850 O   0  0  0  0  0  0  0  0  0  0  0  0
  190.5810  177.3070  138.8530 O   0  0  0  0  0  1  0  0  0  0  0  0
  189.8150  176.4990  137.8320 P   0  0  0  0  0  0  0  0  0  0  0  0
  190.2260  177.0190  136.2710 O   0  0  0  0  0  0  0  0  0  0  0  0
  190.2330  174.8670  137.9970 O   0  0  0  0  0  1  0  0  0  0  0  0
  185.9070  177.6370  145.0390 C   0  0  1  0  0  3  0  0  0  0  0  0
  186.6820  176.3360  144.8950 C   0  0  0  0  0  1  0  0  0  0  0  0
  186.7350  178.6680  145.8010 C   0  0  0  0  0  2  0  0  0  0  0  0
  189.6100  177.7250  148.1320 N   0  0  0  0  0  2  0  0  0  0  0  0
  187.9390  178.0490  146.3370 N   0  0  0  0  0  2  0  0  0  0  0  0
  188.3130  178.1410  147.7120 C   0  0  0  0  0  0  0  0  0  0  0  0
  187.5100  178.6090  148.5580 O   0  0  0  0  0  0  0  0  0  0  0  0
  190.5580  177.2700  147.2110 N   0  0  0  0  0  0  0  0  0  0  0  0
  191.5930  176.5300  146.9220 O   0  0  0  0  0  0  0  0  0  0  0  0
  191.0520  177.2750  145.9990 N   0  0  0  0  0  0  0  0  0  0  0  0
  191.0130  177.7390  144.6790 N   0  0  0  0  0  2  0  0  0  0  0  0
  192.1750  177.2360  142.3330 O   0  0  0  0  0  0  0  0  0  0  0  0
  191.9320  175.1900  143.9440 O   0  0  0  0  0  1  0  0  0  0  0  0
  191.2470  176.6190  143.3550 P   0  0  1  0  0  0  0  0  0  0  0  0
  189.6500  176.2480  142.5840 C   0  0  0  0  0  1  0  0  0  0  0  0
  181.3800  180.3650  137.7860 N   0  0  0  0  0  0  0  0  0  0  0  0
  182.0510  179.3190  138.1530 C   0  0  0  0  0  3  0  0  0  0  0  0
  181.1000  179.6440  135.5400 N   0  0  0  0  0  2  0  0  0  0  0  0
  180.0190  181.7030  136.1390 C   0  0  0  0  0  1  0  0  0  0  0  0
  180.8450  180.5110  136.4650 C   0  0  0  0  0  0  0  0  0  0  0  0
  1  4  1  0  0  0  0
  2  9  1  0  0  0  0
  2  5  2  0  0  0  0
  3  8  1  0  0  0  0
  4 11  2  0  0  0  0
  4 12  1  0  0  0  0
  6  3  1  0  0  0  0
  6 11  1  0  0  0  0
  7  6  2  0  0  0  0
  8  9  2  0  0  0  0
  9 29  1  0  0  0  0
 10  7  1  0  0  0  0
 10  1  2  0  0  0  0
 11  2  1  0  0  0  0
 12 13  1  0  0  0  0
 12 14  1  0  0  0  0
 15 12  1  0  0  0  0
 16 17  2  0  0  0  0
 16 18  1  0  0  0  0
 18  7  1  0  0  0  0
 19 23  1  1  0  0  0
 19 16  1  0  0  0  0
 20 22  1  0  0  0  0
 21 20  1  0  0  0  0
 21 22  1  0  0  0  0
 22 19  1  0  0  0  0
 23 24  1  0  0  0  0
 26 28  1  0  0  0  0
 26 24  1  0  0  0  0
 26 25  1  0  0  0  0
 27 26  2  0  0  0  0
 29 30  1  6  0  0  0
 29 31  1  0  0  0  0
 31 33  1  0  0  0  0
 33 34  1  0  0  0  0
 34 32  1  0  0  0  0
 34 35  2  0  0  0  0
 36 32  1  0  0  0  0
 37 36  1  0  0  0  0
 38 37  1  0  0  0  0
 38 36  1  0  0  0  0
 39 38  1  0  0  0  0
 40 42  2  0  0  0  0
 42 43  1  6  0  0  0
 42 41  1  0  0  0  0
 42 39  1  0  0  0  0
 44 45  2  0  0  0  0
 45 10  1  0  0  0  0
 46 48  2  0  0  0  0
 47 48  1  0  0  0  0
 48 44  1  0  0  0  0
M  END
>  <MODEL>
3

>  <REMARK>
 VINA RESULT:      -7.3      3.263      6.015
  Name = 
  15 active torsions:
  status: ('A' for Active; 'I' for Inactive)
    1  A    between atoms: N_5  and  N_15
    2  A    between atoms: N_7  and  C_44
    3  A    between atoms: C_8  and  C_11
    4  A    between atoms: C_8  and  O_18
    5  A    between atoms: C_10  and  C_13
    6  A    between atoms: C_11  and  C_12
    7  A    between atoms: C_11  and  C_34
    8  A    between atoms: C_16  and  C_38
    9  A    between atoms: C_16  and  C_44
   10  A    between atoms: O_18  and  P_41
   11  A    between atoms: N_20  and  C_32
   12  A    between atoms: N_24  and  C_36
   13  A    between atoms: P_30  and  N_48
   14  A    between atoms: N_39  and  N_48
   15  A    between atoms: C_42  and  C_47
                            x       y       z     vdW  Elec       q    Type
                         _______ _______ _______ _____ _____    ______ ____

>  <TORSDO>
F 15

$$$$
=
 OpenBabel11062412053D

 48 51  0  0  1  0  0  0  0  0999 V2000
  189.0700  177.6240  138.7050 C   0  0  0  0  0  3  0  0  0  0  0  0
  185.5150  178.7650  139.5650 C   0  0  0  0  0  0  0  0  0  0  0  0
  186.7830  178.8250  142.1300 C   0  0  0  0  0  2  0  0  0  0  0  0
  187.7360  177.9960  138.5080 C   0  0  0  0  0  0  0  0  0  0  0  0
  184.9800  179.1060  138.4780 O   0  0  0  0  0  0  0  0  0  0  0  0
  187.5350  178.2900  140.9350 C   0  0  0  0  0  0  0  0  0  0  0  0
  188.8730  177.8740  141.1000 C   0  0  0  0  0  0  0  0  0  0  0  0
  185.2960  178.7390  141.9870 C   0  0  0  0  0  3  0  0  0  0  0  0
  184.6960  178.7640  140.7920 C   0  0  0  0  0  0  0  0  0  0  0  0
  189.6490  177.5640  139.9670 C   0  0  0  0  0  0  0  0  0  0  0  0
  186.9520  178.3610  139.6430 C   0  0  0  0  0  0  0  0  0  0  0  0
  187.2070  177.9920  137.0820 C   0  0  0  0  0  0  0  0  0  0  0  0
  187.1140  179.2920  136.5740 O   0  0  0  0  0  1  0  0  0  0  0  0
  185.9430  177.4270  137.0540 F   0  0  0  0  0  0  0  0  0  0  0  0
  188.0710  177.2630  136.2620 O   0  0  0  0  0  1  0  0  0  0  0  0
  189.3120  176.7240  143.3110 C   0  0  0  0  0  0  0  0  0  0  0  0
  188.8090  175.6390  142.9050 O   0  0  0  0  0  0  0  0  0  0  0  0
  189.4600  177.8260  142.4080 N   0  0  0  0  0  2  0  0  0  0  0  0
  189.7860  176.8690  144.7320 C   0  0  2  0  0  3  0  0  0  0  0  0
  187.6020  177.8230  145.3790 C   0  0  0  0  0  2  0  0  0  0  0  0
  188.3820  177.6120  146.6580 C   0  0  0  0  0  2  0  0  0  0  0  0
  189.1000  178.0550  145.3970 C   0  0  0  0  0  3  0  0  0  0  0  0
  191.2990  177.0230  144.8290 C   0  0  0  0  0  2  0  0  0  0  0  0
  191.6620  177.3480  146.1380 O   0  0  0  0  0  0  0  0  0  0  0  0
  193.1130  176.0400  147.8970 O   0  0  0  0  0  1  0  0  0  0  0  0
  191.9990  175.8680  146.8910 P   0  0  0  0  0  0  0  0  0  0  0  0
  192.4510  174.7130  145.7340 O   0  0  0  0  0  0  0  0  0  0  0  0
  190.6110  175.3280  147.6960 O   0  0  0  0  0  1  0  0  0  0  0  0
  183.1950  178.8230  140.6880 C   0  0  1  0  0  3  0  0  0  0  0  0
  182.7390  179.5240  139.4160 C   0  0  0  0  0  1  0  0  0  0  0  0
  182.5740  177.4320  140.7800 C   0  0  0  0  0  2  0  0  0  0  0  0
  181.4840  175.1700  137.9010 N   0  0  0  0  0  2  0  0  0  0  0  0
  182.4010  176.8690  139.4480 N   0  0  0  0  0  2  0  0  0  0  0  0
  181.4470  175.8470  139.1550 C   0  0  0  0  0  0  0  0  0  0  0  0
  180.5830  175.5230  140.0070 O   0  0  0  0  0  0  0  0  0  0  0  0
  182.4770  175.4480  136.9570 N   0  0  0  0  0  0  0  0  0  0  0  0
  183.1280  176.3000  136.2150 O   0  0  0  0  0  0  0  0  0  0  0  0
  183.4420  175.0360  136.1740 N   0  0  0  0  0  0  0  0  0  0  0  0
  184.2310  173.9950  135.6720 N   0  0  0  0  0  2  0  0  0  0  0  0
  185.1410  172.9200  137.9360 O   0  0  0  0  0  1  0  0  0  0  0  0
  182.9830  171.8260  136.9440 O   0  0  0  0  0  0  0  0  0  0  0  0
  184.4770  172.5510  136.6290 P   0  0  1  0  0  0  0  0  0  0  0  0
  185.5300  171.3900  135.7170 C   0  0  0  0  0  1  0  0  0  0  0  0
  191.8100  177.0380  138.9670 N   0  0  0  0  0  0  0  0  0  0  0  0
  191.0550  177.1250  140.0170 C   0  0  0  0  0  3  0  0  0  0  0  0
  193.9970  177.1640  139.8840 N   0  0  0  0  0  2  0  0  0  0  0  0
  193.6850  175.6010  138.0880 C   0  0  0  0  0  1  0  0  0  0  0  0
  193.1800  176.6280  139.0360 C   0  0  0  0  0  0  0  0  0  0  0  0
  1 10  1  0  0  0  0
  2 11  1  0  0  0  0
  2  9  1  0  0  0  0
  4  1  2  0  0  0  0
  4 11  1  0  0  0  0
  5  2  2  0  0  0  0
  6  7  1  0  0  0  0
  6  3  1  0  0  0  0
  7 18  1  0  0  0  0
  8  3  1  0  0  0  0
  9  8  2  0  0  0  0
 10 45  1  0  0  0  0
 10  7  2  0  0  0  0
 11  6  2  0  0  0  0
 12  4  1  0  0  0  0
 13 12  1  0  0  0  0
 14 12  1  0  0  0  0
 15 12  1  0  0  0  0
 16 19  1  0  0  0  0
 17 16  2  0  0  0  0
 18 16  1  0  0  0  0
 19 23  1  6  0  0  0
 19 22  1  0  0  0  0
 20 22  1  0  0  0  0
 20 21  1  0  0  0  0
 22 21  1  0  0  0  0
 23 24  1  0  0  0  0
 24 26  1  0  0  0  0
 26 28  1  0  0  0  0
 26 25  1  0  0  0  0
 27 26  2  0  0  0  0
 29 30  1  6  0  0  0
 29 31  1  0  0  0  0
 29  9  1  0  0  0  0
 32 34  1  0  0  0  0
 33 31  1  0  0  0  0
 34 33  1  0  0  0  0
 34 35  2  0  0  0  0
 36 32  1  0  0  0  0
 37 36  1  0  0  0  0
 38 37  1  0  0  0  0
 38 36  1  0  0  0  0
 39 38  1  0  0  0  0
 39 42  1  0  0  0  0
 42 43  1  6  0  0  0
 42 41  2  0  0  0  0
 42 40  1  0  0  0  0
 44 48  1  0  0  0  0
 44 45  2  0  0  0  0
 47 48  1  0  0  0  0
 48 46  2  0  0  0  0
M  END
>  <MODEL>
4

>  <REMARK>
 VINA RESULT:      -7.2      3.552      9.368
  Name = 
  15 active torsions:
  status: ('A' for Active; 'I' for Inactive)
    1  A    between atoms: N_5  and  N_15
    2  A    between atoms: N_7  and  C_44
    3  A    between atoms: C_8  and  C_11
    4  A    between atoms: C_8  and  O_18
    5  A    between atoms: C_10  and  C_13
    6  A    between atoms: C_11  and  C_12
    7  A    between atoms: C_11  and  C_34
    8  A    between atoms: C_16  and  C_38
    9  A    between atoms: C_16  and  C_44
   10  A    between atoms: O_18  and  P_41
   11  A    between atoms: N_20  and  C_32
   12  A    between atoms: N_24  and  C_36
   13  A    between atoms: P_30  and  N_48
   14  A    between atoms: N_39  and  N_48
   15  A    between atoms: C_42  and  C_47
                            x       y       z     vdW  Elec       q    Type
                         _______ _______ _______ _____ _____    ______ ____

>  <TORSDO>
F 15

$$$$
=
 OpenBabel11062412053D

 48 51  0  0  1  0  0  0  0  0999 V2000
  188.8610  177.1370  137.8440 C   0  0  0  0  0  3  0  0  0  0  0  0
  185.1240  177.9440  138.0990 C   0  0  0  0  0  0  0  0  0  0  0  0
  186.1010  178.9020  140.6130 C   0  0  0  0  0  2  0  0  0  0  0  0
  187.5200  177.2410  137.4600 C   0  0  0  0  0  0  0  0  0  0  0  0
  184.6690  177.8860  136.9270 O   0  0  0  0  0  0  0  0  0  0  0  0
  187.0330  178.1700  139.6770 C   0  0  0  0  0  0  0  0  0  0  0  0
  188.3870  178.0150  140.0440 C   0  0  0  0  0  0  0  0  0  0  0  0
  184.6590  178.5640  140.4040 C   0  0  0  0  0  3  0  0  0  0  0  0
  184.1880  178.1660  139.2170 C   0  0  0  0  0  0  0  0  0  0  0  0
  189.3090  177.5170  139.1030 C   0  0  0  0  0  0  0  0  0  0  0  0
  186.5840  177.7910  138.3850 C   0  0  0  0  0  0  0  0  0  0  0  0
  187.1480  176.7620  136.0650 C   0  0  0  0  0  0  0  0  0  0  0  0
  186.8890  177.8400  135.2130 O   0  0  0  0  0  1  0  0  0  0  0  0
  186.0070  175.9800  136.1290 F   0  0  0  0  0  0  0  0  0  0  0  0
  188.2010  176.0210  135.5260 O   0  0  0  0  0  1  0  0  0  0  0  0
  188.9050  177.5440  142.4750 C   0  0  0  0  0  0  0  0  0  0  0  0
  188.7570  176.3000  142.3190 O   0  0  0  0  0  0  0  0  0  0  0  0
  188.8350  178.4210  141.3450 N   0  0  0  0  0  2  0  0  0  0  0  0
  189.1820  178.1220  143.8370 C   0  0  2  0  0  3  0  0  0  0  0  0
  191.4700  178.2410  142.9160 C   0  0  0  0  0  2  0  0  0  0  0  0
  191.3680  179.3200  143.9720 C   0  0  0  0  0  2  0  0  0  0  0  0
  190.6610  177.9930  144.1740 C   0  0  0  0  0  3  0  0  0  0  0  0
  188.3420  177.4710  144.9290 C   0  0  0  0  0  2  0  0  0  0  0  0
  189.1510  177.1340  146.0170 O   0  0  0  0  0  0  0  0  0  0  0  0
  187.9570  176.3000  148.2040 O   0  0  0  0  0  1  0  0  0  0  0  0
  188.2480  177.5390  147.3910 P   0  0  0  0  0  0  0  0  0  0  0  0
  186.7900  178.2760  146.9360 O   0  0  0  0  0  0  0  0  0  0  0  0
  189.1390  178.6210  148.3400 O   0  0  0  0  0  1  0  0  0  0  0  0
  182.7100  177.9750  139.0020 C   0  0  1  0  0  3  0  0  0  0  0  0
  182.1220  176.9510  139.9610 C   0  0  0  0  0  1  0  0  0  0  0  0
  181.9550  179.2970  139.1080 C   0  0  0  0  0  2  0  0  0  0  0  0
  179.8660  180.5670  142.0430 N   0  0  0  0  0  2  0  0  0  0  0  0
  181.2150  179.3540  140.3610 N   0  0  0  0  0  2  0  0  0  0  0  0
  180.3730  180.4520  140.7160 C   0  0  0  0  0  0  0  0  0  0  0  0
  180.0900  181.3350  139.8670 O   0  0  0  0  0  0  0  0  0  0  0  0
  180.2190  179.6480  143.0350 N   0  0  0  0  0  0  0  0  0  0  0  0
  179.9200  178.9670  144.1070 O   0  0  0  0  0  0  0  0  0  0  0  0
  181.0980  178.8330  143.5630 N   0  0  0  0  0  0  0  0  0  0  0  0
  182.3680  178.2470  143.5430 N   0  0  0  0  0  2  0  0  0  0  0  0
  183.7320  180.4970  143.9730 O   0  0  0  0  0  0  0  0  0  0  0  0
  183.5020  178.8950  146.0280 O   0  0  0  0  0  1  0  0  0  0  0  0
  183.7030  179.0340  144.3550 P   0  0  1  0  0  0  0  0  0  0  0  0
  185.2610  178.2460  143.8690 C   0  0  0  0  0  1  0  0  0  0  0  0
  191.5590  176.7840  138.5170 N   0  0  0  0  0  0  0  0  0  0  0  0
  190.7440  177.3190  139.3720 C   0  0  0  0  0  3  0  0  0  0  0  0
  193.7300  176.0070  137.9470 N   0  0  0  0  0  2  0  0  0  0  0  0
  193.5170  177.1090  140.0700 C   0  0  0  0  0  1  0  0  0  0  0  0
  192.9550  176.6160  138.7860 C   0  0  0  0  0  0  0  0  0  0  0  0
  1 10  1  0  0  0  0
  2 11  1  0  0  0  0
  2  9  1  0  0  0  0
  4  1  2  0  0  0  0
  4 11  1  0  0  0  0
  5  2  2  0  0  0  0
  6  7  1  0  0  0  0
  6  3  1  0  0  0  0
  7 18  1  0  0  0  0
  8  3  1  0  0  0  0
  9  8  2  0  0  0  0
 10 45  1  0  0  0  0
 10  7  2  0  0  0  0
 11  6  2  0  0  0  0
 12 14  1  0  0  0  0
 12  4  1  0  0  0  0
 13 12  1  0  0  0  0
 15 12  1  0  0  0  0
 16 19  1  0  0  0  0
 17 16  2  0  0  0  0
 18 16  1  0  0  0  0
 19 22  1  0  0  0  0
 19 23  1  1  0  0  0
 20 21  1  0  0  0  0
 20 22  1  0  0  0  0
 21 22  1  0  0  0  0
 23 24  1  0  0  0  0
 24 26  1  0  0  0  0
 26 25  1  0  0  0  0
 26 28  1  0  0  0  0
 27 26  2  0  0  0  0
 29 31  1  0  0  0  0
 29  9  1  0  0  0  0
 29 30  1  1  0  0  0
 31 33  1  0  0  0  0
 32 36  1  0  0  0  0
 33 34  1  0  0  0  0
 34 32  1  0  0  0  0
 35 34  2  0  0  0  0
 36 38  1  0  0  0  0
 36 37  1  0  0  0  0
 38 37  1  0  0  0  0
 39 38  1  0  0  0  0
 39 42  1  0  0  0  0
 40 42  2  0  0  0  0
 42 43  1  6  0  0  0
 42 41  1  0  0  0  0
 44 48  1  0  0  0  0
 44 45  2  0  0  0  0
 46 48  2  0  0  0  0
 48 47  1  0  0  0  0
M  END
>  <MODEL>
5

>  <REMARK>
 VINA RESULT:      -7.2      3.279      9.980
  Name = 
  15 active torsions:
  status: ('A' for Active; 'I' for Inactive)
    1  A    between atoms: N_5  and  N_15
    2  A    between atoms: N_7  and  C_44
    3  A    between atoms: C_8  and  C_11
    4  A    between atoms: C_8  and  O_18
    5  A    between atoms: C_10  and  C_13
    6  A    between atoms: C_11  and  C_12
    7  A    between atoms: C_11  and  C_34
    8  A    between atoms: C_16  and  C_38
    9  A    between atoms: C_16  and  C_44
   10  A    between atoms: O_18  and  P_41
   11  A    between atoms: N_20  and  C_32
   12  A    between atoms: N_24  and  C_36
   13  A    between atoms: P_30  and  N_48
   14  A    between atoms: N_39  and  N_48
   15  A    between atoms: C_42  and  C_47
                            x       y       z     vdW  Elec       q    Type
                         _______ _______ _______ _____ _____    ______ ____

>  <TORSDO>
F 15

$$$$
=
 OpenBabel11062412053D

 48 51  0  0  1  0  0  0  0  0999 V2000
  181.3450  178.3230  141.0240 C   0  0  0  0  0  3  0  0  0  0  0  0
  183.8710  178.9140  143.8430 C   0  0  0  0  0  0  0  0  0  0  0  0
  185.5910  178.3120  141.6370 C   0  0  0  0  0  2  0  0  0  0  0  0
  181.8270  178.6420  142.2980 C   0  0  0  0  0  0  0  0  0  0  0  0
  183.2480  179.5190  144.7550 O   0  0  0  0  0  0  0  0  0  0  0  0
  184.0930  178.2020  141.4710 C   0  0  0  0  0  0  0  0  0  0  0  0
  183.5700  177.8500  140.2090 C   0  0  0  0  0  0  0  0  0  0  0  0
  186.0470  178.1680  143.0540 C   0  0  0  0  0  3  0  0  0  0  0  0
  185.2650  178.4980  144.0880 C   0  0  0  0  0  0  0  0  0  0  0  0
  182.1820  177.9380  139.9840 C   0  0  0  0  0  0  0  0  0  0  0  0
  183.2340  178.6050  142.5260 C   0  0  0  0  0  0  0  0  0  0  0  0
  180.8070  179.0170  143.3620 C   0  0  0  0  0  0  0  0  0  0  0  0
  180.6090  180.4010  143.4070 O   0  0  0  0  0  1  0  0  0  0  0  0
  181.2570  178.6060  144.6060 F   0  0  0  0  0  0  0  0  0  0  0  0
  179.5830  178.4090  143.0770 O   0  0  0  0  0  1  0  0  0  0  0  0
  185.0330  178.3860  138.2160 C   0  0  0  0  0  0  0  0  0  0  0  0
  184.9530  179.6290  138.4260 O   0  0  0  0  0  0  0  0  0  0  0  0
  184.4480  177.4640  139.1430 N   0  0  0  0  0  2  0  0  0  0  0  0
  185.7610  177.8530  137.0110 C   0  0  2  0  0  3  0  0  0  0  0  0
  183.7570  177.0020  135.8450 C   0  0  0  0  0  2  0  0  0  0  0  0
  184.9470  176.6560  134.9770 C   0  0  0  0  0  2  0  0  0  0  0  0
  185.0700  176.6010  136.4880 C   0  0  0  0  0  3  0  0  0  0  0  0
  187.2270  177.5550  137.3000 C   0  0  0  0  0  2  0  0  0  0  0  0
  187.4110  176.1800  137.4620 O   0  0  0  0  0  0  0  0  0  0  0  0
  189.4450  174.5250  137.2900 O   0  0  0  0  0  1  0  0  0  0  0  0
  188.9220  175.8440  136.7740 P   0  0  0  0  0  0  0  0  0  0  0  0
  190.0220  177.0790  137.1480 O   0  0  0  0  0  1  0  0  0  0  0  0
  188.7550  175.7470  135.0920 O   0  0  0  0  0  0  0  0  0  0  0  0
  185.8030  178.4800  145.4940 C   0  0  1  0  0  3  0  0  0  0  0  0
  184.6940  178.5960  146.5300 C   0  0  0  0  0  1  0  0  0  0  0  0
  186.6450  177.2340  145.7540 C   0  0  0  0  0  2  0  0  0  0  0  0
  190.4350  177.7020  145.8640 N   0  0  0  0  0  2  0  0  0  0  0  0
  188.0260  177.4690  145.3530 N   0  0  0  0  0  2  0  0  0  0  0  0
  189.1360  177.2350  146.2200 C   0  0  0  0  0  0  0  0  0  0  0  0
  188.9730  176.6340  147.3120 O   0  0  0  0  0  0  0  0  0  0  0  0
  190.6430  178.4400  144.6960 N   0  0  0  0  0  0  0  0  0  0  0  0
  190.7200  179.5870  144.0790 O   0  0  0  0  0  0  0  0  0  0  0  0
  190.9140  178.4810  143.4150 N   0  0  0  0  0  0  0  0  0  0  0  0
  191.2060  177.8170  142.2190 N   0  0  0  0  0  2  0  0  0  0  0  0
  190.5080  176.1290  140.2770 O   0  0  0  0  0  0  0  0  0  0  0  0
  188.9120  176.2030  142.3480 O   0  0  0  0  0  1  0  0  0  0  0  0
  189.9170  177.0710  141.3010 P   0  0  1  0  0  0  0  0  0  0  0  0
  188.9480  178.3530  140.4610 C   0  0  0  0  0  1  0  0  0  0  0  0
  180.8670  178.4660  138.0010 N   0  0  0  0  0  0  0  0  0  0  0  0
  181.5250  177.6020  138.7080 C   0  0  0  0  0  3  0  0  0  0  0  0
  180.1730  178.9890  135.7900 N   0  0  0  0  0  2  0  0  0  0  0  0
  179.6470  176.7820  136.5760 C   0  0  0  0  0  1  0  0  0  0  0  0
  180.2500  178.1280  136.7530 C   0  0  0  0  0  0  0  0  0  0  0  0
  1  4  1  0  0  0  0
  2  9  1  0  0  0  0
  2  5  2  0  0  0  0
  3  8  1  0  0  0  0
  4 11  2  0  0  0  0
  4 12  1  0  0  0  0
  6  3  1  0  0  0  0
  6 11  1  0  0  0  0
  7  6  2  0  0  0  0
  8  9  2  0  0  0  0
  9 29  1  0  0  0  0
 10  7  1  0  0  0  0
 10  1  2  0  0  0  0
 11  2  1  0  0  0  0
 12 13  1  0  0  0  0
 12 14  1  0  0  0  0
 15 12  1  0  0  0  0
 16 17  2  0  0  0  0
 16 18  1  0  0  0  0
 18  7  1  0  0  0  0
 19 23  1  1  0  0  0
 19 16  1  0  0  0  0
 20 22  1  0  0  0  0
 21 20  1  0  0  0  0
 21 22  1  0  0  0  0
 22 19  1  0  0  0  0
 23 24  1  0  0  0  0
 26 27  1  0  0  0  0
 26 25  1  0  0  0  0
 26 24  1  0  0  0  0
 28 26  2  0  0  0  0
 29 31  1  0  0  0  0
 29 30  1  1  0  0  0
 32 34  1  0  0  0  0
 33 31  1  0  0  0  0
 33 34  1  0  0  0  0
 34 35  2  0  0  0  0
 36 32  1  0  0  0  0
 37 36  1  0  0  0  0
 38 37  1  0  0  0  0
 38 36  1  0  0  0  0
 39 38  1  0  0  0  0
 40 42  2  0  0  0  0
 42 43  1  6  0  0  0
 42 39  1  0  0  0  0
 42 41  1  0  0  0  0
 44 45  2  0  0  0  0
 45 10  1  0  0  0  0
 46 48  2  0  0  0  0
 47 48  1  0  0  0  0
 48 44  1  0  0  0  0
M  END
>  <MODEL>
6

>  <REMARK>
 VINA RESULT:      -7.1      2.895      5.238
  Name = 
  15 active torsions:
  status: ('A' for Active; 'I' for Inactive)
    1  A    between atoms: N_5  and  N_15
    2  A    between atoms: N_7  and  C_44
    3  A    between atoms: C_8  and  C_11
    4  A    between atoms: C_8  and  O_18
    5  A    between atoms: C_10  and  C_13
    6  A    between atoms: C_11  and  C_12
    7  A    between atoms: C_11  and  C_34
    8  A    between atoms: C_16  and  C_38
    9  A    between atoms: C_16  and  C_44
   10  A    between atoms: O_18  and  P_41
   11  A    between atoms: N_20  and  C_32
   12  A    between atoms: N_24  and  C_36
   13  A    between atoms: P_30  and  N_48
   14  A    between atoms: N_39  and  N_48
   15  A    between atoms: C_42  and  C_47
                            x       y       z     vdW  Elec       q    Type
                         _______ _______ _______ _____ _____    ______ ____

>  <TORSDO>
F 15

$$$$
=
 OpenBabel11062412053D

 48 51  0  0  1  0  0  0  0  0999 V2000
  190.1770  176.7530  140.7090 C   0  0  0  0  0  3  0  0  0  0  0  0
  187.0610  178.1790  138.9950 C   0  0  0  0  0  0  0  0  0  0  0  0
  186.7310  179.1180  141.6790 C   0  0  0  0  0  2  0  0  0  0  0  0
  189.2740  177.0520  139.6840 C   0  0  0  0  0  0  0  0  0  0  0  0
  187.2820  178.1240  137.7570 O   0  0  0  0  0  0  0  0  0  0  0  0
  187.8710  178.1850  141.3460 C   0  0  0  0  0  0  0  0  0  0  0  0
  188.7840  177.8320  142.3630 C   0  0  0  0  0  0  0  0  0  0  0  0
  185.5760  179.0100  140.7340 C   0  0  0  0  0  3  0  0  0  0  0  0
  185.7340  178.6220  139.4630 C   0  0  0  0  0  0  0  0  0  0  0  0
  189.9590  177.1310  142.0290 C   0  0  0  0  0  0  0  0  0  0  0  0
  188.1040  177.8050  139.9990 C   0  0  0  0  0  0  0  0  0  0  0  0
  189.6080  176.5550  138.2850 C   0  0  0  0  0  0  0  0  0  0  0  0
  190.0720  177.5970  137.4760 O   0  0  0  0  0  1  0  0  0  0  0  0
  188.4730  176.0250  137.6950 F   0  0  0  0  0  0  0  0  0  0  0  0
  190.6040  175.5800  138.3570 O   0  0  0  0  0  1  0  0  0  0  0  0
  187.7160  177.5210  144.6350 C   0  0  0  0  0  0  0  0  0  0  0  0
  187.2980  176.3670  144.3380 O   0  0  0  0  0  0  0  0  0  0  0  0
  188.5510  178.2390  143.7190 N   0  0  0  0  0  2  0  0  0  0  0  0
  187.3690  178.1500  145.9580 C   0  0  2  0  0  3  0  0  0  0  0  0
  189.1830  177.1420  147.2980 C   0  0  0  0  0  2  0  0  0  0  0  0
  188.3170  177.9280  148.2570 C   0  0  0  0  0  2  0  0  0  0  0  0
  187.6810  177.1870  147.0960 C   0  0  0  0  0  3  0  0  0  0  0  0
  185.9110  178.5860  146.0330 C   0  0  0  0  0  2  0  0  0  0  0  0
  185.6330  179.4960  145.0110 O   0  0  0  0  0  0  0  0  0  0  0  0
  183.4110  180.3920  143.9310 O   0  0  0  0  0  1  0  0  0  0  0  0
  184.0450  179.1580  144.5280 P   0  0  0  0  0  0  0  0  0  0  0  0
  183.1290  178.6340  145.8560 O   0  0  0  0  0  1  0  0  0  0  0  0
  184.0700  177.9340  143.3590 O   0  0  0  0  0  0  0  0  0  0  0  0
  184.5780  178.6640  138.4990 C   0  0  1  0  0  3  0  0  0  0  0  0
  183.9190  177.3020  138.3390 C   0  0  0  0  0  1  0  0  0  0  0  0
  183.5460  179.7090  138.9100 C   0  0  0  0  0  2  0  0  0  0  0  0
  179.9430  179.9870  137.6700 N   0  0  0  0  0  2  0  0  0  0  0  0
  182.2430  179.3790  138.3480 N   0  0  0  0  0  2  0  0  0  0  0  0
  181.2790  180.3690  137.9890 C   0  0  0  0  0  0  0  0  0  0  0  0
  181.5940  181.5860  137.9730 O   0  0  0  0  0  0  0  0  0  0  0  0
  179.5330  178.6530  137.7510 N   0  0  0  0  0  0  0  0  0  0  0  0
  179.2110  177.5290  137.1720 O   0  0  0  0  0  0  0  0  0  0  0  0
  179.1970  177.6130  138.4730 N   0  0  0  0  0  0  0  0  0  0  0  0
  178.9880  177.0280  139.7270 N   0  0  0  0  0  2  0  0  0  0  0  0
  181.0670  175.3880  140.0300 O   0  0  0  0  0  0  0  0  0  0  0  0
  178.9950  174.8900  141.5450 O   0  0  0  0  0  1  0  0  0  0  0  0
  179.5550  175.4020  140.0350 P   0  0  1  0  0  0  0  0  0  0  0  0
  178.9310  174.2860  138.7500 C   0  0  0  0  0  1  0  0  0  0  0  0
  190.7830  175.8020  143.8980 N   0  0  0  0  0  0  0  0  0  0  0  0
  190.9840  176.7170  143.0030 C   0  0  0  0  0  3  0  0  0  0  0  0
  192.4670  174.3040  144.6490 N   0  0  0  0  0  2  0  0  0  0  0  0
  192.0540  176.2210  146.0350 C   0  0  0  0  0  1  0  0  0  0  0  0
  191.7970  175.3970  144.8260 C   0  0  0  0  0  0  0  0  0  0  0  0
  1 10  1  0  0  0  0
  2  9  1  0  0  0  0
  2 11  1  0  0  0  0
  4 11  1  0  0  0  0
  4  1  2  0  0  0  0
  5  2  2  0  0  0  0
  6  3  1  0  0  0  0
  6  7  1  0  0  0  0
  7 18  1  0  0  0  0
  8  3  1  0  0  0  0
  9  8  2  0  0  0  0
 10  7  2  0  0  0  0
 10 45  1  0  0  0  0
 11  6  2  0  0  0  0
 12 15  1  0  0  0  0
 12  4  1  0  0  0  0
 13 12  1  0  0  0  0
 14 12  1  0  0  0  0
 16 19  1  0  0  0  0
 17 16  2  0  0  0  0
 18 16  1  0  0  0  0
 19 23  1  6  0  0  0
 19 22  1  0  0  0  0
 20 21  1  0  0  0  0
 22 20  1  0  0  0  0
 22 21  1  0  0  0  0
 24 23  1  0  0  0  0
 25 26  1  0  0  0  0
 26 24  1  0  0  0  0
 26 27  1  0  0  0  0
 28 26  2  0  0  0  0
 29 30  1  1  0  0  0
 29 31  1  0  0  0  0
 29  9  1  0  0  0  0
 32 36  1  0  0  0  0
 32 34  1  0  0  0  0
 33 31  1  0  0  0  0
 34 33  1  0  0  0  0
 35 34  2  0  0  0  0
 36 38  1  0  0  0  0
 37 36  1  0  0  0  0
 37 38  1  0  0  0  0
 38 39  1  0  0  0  0
 39 42  1  0  0  0  0
 40 42  2  0  0  0  0
 42 43  1  6  0  0  0
 42 41  1  0  0  0  0
 44 48  1  0  0  0  0
 45 44  2  0  0  0  0
 46 48  2  0  0  0  0
 48 47  1  0  0  0  0
M  END
>  <MODEL>
7

>  <REMARK>
 VINA RESULT:      -7.0      3.692      9.227
  Name = 
  15 active torsions:
  status: ('A' for Active; 'I' for Inactive)
    1  A    between atoms: N_5  and  N_15
    2  A    between atoms: N_7  and  C_44
    3  A    between atoms: C_8  and  C_11
    4  A    between atoms: C_8  and  O_18
    5  A    between atoms: C_10  and  C_13
    6  A    between atoms: C_11  and  C_12
    7  A    between atoms: C_11  and  C_34
    8  A    between atoms: C_16  and  C_38
    9  A    between atoms: C_16  and  C_44
   10  A    between atoms: O_18  and  P_41
   11  A    between atoms: N_20  and  C_32
   12  A    between atoms: N_24  and  C_36
   13  A    between atoms: P_30  and  N_48
   14  A    between atoms: N_39  and  N_48
   15  A    between atoms: C_42  and  C_47
                            x       y       z     vdW  Elec       q    Type
                         _______ _______ _______ _____ _____    ______ ____

>  <TORSDO>
F 15

$$$$
=
 OpenBabel11062412053D

 48 51  0  0  1  0  0  0  0  0999 V2000
  184.6190  178.3710  144.3320 C   0  0  0  0  0  3  0  0  0  0  0  0
  188.0600  177.9840  142.6910 C   0  0  0  0  0  0  0  0  0  0  0  0
  186.4260  178.7130  140.4560 C   0  0  0  0  0  2  0  0  0  0  0  0
  185.9950  178.1440  144.2250 C   0  0  0  0  0  0  0  0  0  0  0  0
  188.9020  178.0090  143.6250 O   0  0  0  0  0  0  0  0  0  0  0  0
  185.7880  178.4690  141.8030 C   0  0  0  0  0  0  0  0  0  0  0  0
  184.3960  178.6550  141.9430 C   0  0  0  0  0  0  0  0  0  0  0  0
  187.7350  178.0100  140.2800 C   0  0  0  0  0  3  0  0  0  0  0  0
  188.5270  177.7140  141.3180 C   0  0  0  0  0  0  0  0  0  0  0  0
  183.8180  178.6290  143.2270 C   0  0  0  0  0  0  0  0  0  0  0  0
  186.6030  178.2160  142.9370 C   0  0  0  0  0  0  0  0  0  0  0  0
  186.7600  177.8380  145.5040 C   0  0  0  0  0  0  0  0  0  0  0  0
  185.9780  178.1010  146.6350 O   0  0  0  0  0  1  0  0  0  0  0  0
  187.8930  178.6310  145.5720 F   0  0  0  0  0  0  0  0  0  0  0  0
  187.1210  176.4900  145.5270 O   0  0  0  0  0  1  0  0  0  0  0  0
  182.8880  177.9260  140.0470 C   0  0  0  0  0  0  0  0  0  0  0  0
  182.8030  176.7500  140.4990 O   0  0  0  0  0  0  0  0  0  0  0  0
  183.5830  178.9310  140.7940 N   0  0  0  0  0  2  0  0  0  0  0  0
  182.2440  178.2970  138.7380 C   0  0  2  0  0  3  0  0  0  0  0  0
  184.0600  177.1460  137.5230 C   0  0  0  0  0  2  0  0  0  0  0  0
  183.0160  177.5180  136.4950 C   0  0  0  0  0  2  0  0  0  0  0  0
  183.3040  178.4520  137.6550 C   0  0  0  0  0  3  0  0  0  0  0  0
  181.4130  179.5700  138.8370 C   0  0  0  0  0  2  0  0  0  0  0  0
  182.0810  180.6260  138.2140 O   0  0  0  0  0  0  0  0  0  0  0  0
  179.9140  181.8290  139.0880 O   0  0  0  0  0  1  0  0  0  0  0  0
  180.8990  181.8080  137.9430 P   0  0  0  0  0  0  0  0  0  0  0  0
  180.0780  181.4920  136.4930 O   0  0  0  0  0  0  0  0  0  0  0  0
  181.6450  183.3240  137.8340 O   0  0  0  0  0  1  0  0  0  0  0  0
  189.9010  177.1400  141.0960 C   0  0  1  0  0  3  0  0  0  0  0  0
  190.3410  176.2530  142.2510 C   0  0  0  0  0  1  0  0  0  0  0  0
  189.9800  176.3750  139.7780 C   0  0  0  0  0  2  0  0  0  0  0  0
  192.9530  176.3470  137.3800 N   0  0  0  0  0  2  0  0  0  0  0  0
  191.3370  176.4180  139.2520 N   0  0  0  0  0  2  0  0  0  0  0  0
  191.6260  176.5480  137.8590 C   0  0  0  0  0  0  0  0  0  0  0  0
  190.7090  176.8210  137.0440 O   0  0  0  0  0  0  0  0  0  0  0  0
  193.9850  175.9670  138.2440 N   0  0  0  0  0  0  0  0  0  0  0  0
  194.5860  176.0540  139.3990 O   0  0  0  0  0  0  0  0  0  0  0  0
  195.0560  175.2530  138.4840 N   0  0  0  0  0  0  0  0  0  0  0  0
  196.0020  174.3130  138.0610 N   0  0  0  0  0  2  0  0  0  0  0  0
  197.6750  175.7710  136.5830 O   0  0  0  0  0  0  0  0  0  0  0  0
  198.2660  175.5870  139.1240 O   0  0  0  0  0  1  0  0  0  0  0  0
  197.6500  174.8130  137.7530 P   0  0  1  0  0  0  0  0  0  0  0  0
  198.6660  173.3610  137.3740 C   0  0  0  0  0  1  0  0  0  0  0  0
  181.6560  179.7040  142.8890 N   0  0  0  0  0  0  0  0  0  0  0  0
  182.3800  178.8160  143.4940 C   0  0  0  0  0  3  0  0  0  0  0  0
  179.5530  180.7430  142.5130 N   0  0  0  0  0  2  0  0  0  0  0  0
  179.6060  179.0260  144.1900 C   0  0  0  0  0  1  0  0  0  0  0  0
  180.2560  179.8600  143.1460 C   0  0  0  0  0  0  0  0  0  0  0  0
  2 11  1  0  0  0  0
  2  5  2  0  0  0  0
  3  6  1  0  0  0  0
  4  1  1  0  0  0  0
  4 12  1  0  0  0  0
  6  7  2  0  0  0  0
  6 11  1  0  0  0  0
  7 10  1  0  0  0  0
  8  3  1  0  0  0  0
  8  9  2  0  0  0  0
  9  2  1  0  0  0  0
 10 45  1  0  0  0  0
 10  1  2  0  0  0  0
 11  4  2  0  0  0  0
 12 15  1  0  0  0  0
 12 14  1  0  0  0  0
 12 13  1  0  0  0  0
 16 17  2  0  0  0  0
 16 18  1  0  0  0  0
 18  7  1  0  0  0  0
 19 23  1  1  0  0  0
 19 16  1  0  0  0  0
 20 22  1  0  0  0  0
 21 20  1  0  0  0  0
 21 22  1  0  0  0  0
 22 19  1  0  0  0  0
 24 23  1  0  0  0  0
 26 24  1  0  0  0  0
 26 25  1  0  0  0  0
 27 26  2  0  0  0  0
 28 26  1  0  0  0  0
 29  9  1  0  0  0  0
 29 30  1  1  0  0  0
 31 29  1  0  0  0  0
 32 34  1  0  0  0  0
 32 36  1  0  0  0  0
 33 31  1  0  0  0  0
 34 33  1  0  0  0  0
 35 34  2  0  0  0  0
 36 38  1  0  0  0  0
 36 37  1  0  0  0  0
 38 37  1  0  0  0  0
 39 38  1  0  0  0  0
 40 42  2  0  0  0  0
 42 43  1  6  0  0  0
 42 39  1  0  0  0  0
 42 41  1  0  0  0  0
 44 48  1  0  0  0  0
 44 45  2  0  0  0  0
 46 48  2  0  0  0  0
 48 47  1  0  0  0  0
M  END
>  <MODEL>
8

>  <REMARK>
 VINA RESULT:      -7.0      3.363      4.731
  Name = 
  15 active torsions:
  status: ('A' for Active; 'I' for Inactive)
    1  A    between atoms: N_5  and  N_15
    2  A    between atoms: N_7  and  C_44
    3  A    between atoms: C_8  and  C_11
    4  A    between atoms: C_8  and  O_18
    5  A    between atoms: C_10  and  C_13
    6  A    between atoms: C_11  and  C_12
    7  A    between atoms: C_11  and  C_34
    8  A    between atoms: C_16  and  C_38
    9  A    between atoms: C_16  and  C_44
   10  A    between atoms: O_18  and  P_41
   11  A    between atoms: N_20  and  C_32
   12  A    between atoms: N_24  and  C_36
   13  A    between atoms: P_30  and  N_48
   14  A    between atoms: N_39  and  N_48
   15  A    between atoms: C_42  and  C_47
                            x       y       z     vdW  Elec       q    Type
                         _______ _______ _______ _____ _____    ______ ____

>  <TORSDO>
F 15

$$$$
=
 OpenBabel11062412053D

 48 51  0  0  1  0  0  0  0  0999 V2000
  190.6960  176.6770  140.6430 C   0  0  0  0  0  3  0  0  0  0  0  0
  187.7080  177.9380  138.6030 C   0  0  0  0  0  0  0  0  0  0  0  0
  187.0150  178.7970  141.2440 C   0  0  0  0  0  2  0  0  0  0  0  0
  189.8980  176.9400  139.5250 C   0  0  0  0  0  0  0  0  0  0  0  0
  188.0710  177.9230  137.3980 O   0  0  0  0  0  0  0  0  0  0  0  0
  188.2450  177.9460  141.0310 C   0  0  0  0  0  0  0  0  0  0  0  0
  189.0580  177.6310  142.1410 C   0  0  0  0  0  0  0  0  0  0  0  0
  185.9850  178.6360  140.1710 C   0  0  0  0  0  3  0  0  0  0  0  0
  186.3100  178.2860  138.9220 C   0  0  0  0  0  0  0  0  0  0  0  0
  190.3060  177.0130  141.9340 C   0  0  0  0  0  0  0  0  0  0  0  0
  188.6530  177.6100  139.7140 C   0  0  0  0  0  0  0  0  0  0  0  0
  190.4200  176.4940  138.1670 C   0  0  0  0  0  0  0  0  0  0  0  0
  191.7120  175.9680  138.2710 O   0  0  0  0  0  1  0  0  0  0  0  0
  190.4640  177.5780  137.3060 F   0  0  0  0  0  0  0  0  0  0  0  0
  189.5860  175.5050  137.6430 O   0  0  0  0  0  1  0  0  0  0  0  0
  187.7960  177.1830  144.2880 C   0  0  0  0  0  0  0  0  0  0  0  0
  187.5290  175.9980  143.9450 O   0  0  0  0  0  0  0  0  0  0  0  0
  188.6450  177.9930  143.4670 N   0  0  0  0  0  2  0  0  0  0  0  0
  187.2540  177.7550  145.5710 C   0  0  2  0  0  3  0  0  0  0  0  0
  189.2180  177.9740  147.0520 C   0  0  0  0  0  2  0  0  0  0  0  0
  187.9930  178.1270  147.9260 C   0  0  0  0  0  2  0  0  0  0  0  0
  187.9780  177.1500  146.7650 C   0  0  0  0  0  3  0  0  0  0  0  0
  185.7520  177.5450  145.7130 C   0  0  0  0  0  2  0  0  0  0  0  0
  185.1110  178.7740  145.8810 O   0  0  0  0  0  0  0  0  0  0  0  0
  184.7030  180.3920  143.8510 O   0  0  0  0  0  1  0  0  0  0  0  0
  184.2920  179.0570  144.4260 P   0  0  0  0  0  0  0  0  0  0  0  0
  182.6160  179.0420  144.6870 O   0  0  0  0  0  1  0  0  0  0  0  0
  184.6880  177.8380  143.3210 O   0  0  0  0  0  0  0  0  0  0  0  0
  185.2710  178.2740  137.8320 C   0  0  1  0  0  3  0  0  0  0  0  0
  185.6220  177.2970  136.7200 C   0  0  0  0  0  1  0  0  0  0  0  0
  183.8830  177.9700  138.3880 C   0  0  0  0  0  2  0  0  0  0  0  0
  180.9820  180.4540  138.4750 N   0  0  0  0  0  2  0  0  0  0  0  0
  182.9510  179.0280  138.0200 N   0  0  0  0  0  2  0  0  0  0  0  0
  182.0220  179.5990  138.9420 C   0  0  0  0  0  0  0  0  0  0  0  0
  182.1020  179.3370  140.1690 O   0  0  0  0  0  0  0  0  0  0  0  0
  180.8120  180.7090  137.1110 N   0  0  0  0  0  0  0  0  0  0  0  0
  180.6940  180.2810  135.8840 O   0  0  0  0  0  0  0  0  0  0  0  0
  180.6470  181.5600  136.1300 N   0  0  0  0  0  0  0  0  0  0  0  0
  180.5120  182.8790  135.6840 N   0  0  0  0  0  2  0  0  0  0  0  0
  180.8620  185.4990  136.0340 O   0  0  0  0  0  0  0  0  0  0  0  0
  179.3960  184.2960  137.8350 O   0  0  0  0  0  1  0  0  0  0  0  0
  180.7330  184.2050  136.8050 P   0  0  1  0  0  0  0  0  0  0  0  0
  182.2310  183.9280  137.7860 C   0  0  0  0  0  1  0  0  0  0  0  0
  191.0210  175.6670  143.8370 N   0  0  0  0  0  0  0  0  0  0  0  0
  191.2390  176.6440  143.0130 C   0  0  0  0  0  3  0  0  0  0  0  0
  192.6860  174.2510  144.7670 N   0  0  0  0  0  2  0  0  0  0  0  0
  192.0310  176.1400  146.0970 C   0  0  0  0  0  1  0  0  0  0  0  0
  191.9480  175.3090  144.8680 C   0  0  0  0  0  0  0  0  0  0  0  0
  1 10  1  0  0  0  0
  2  9  1  0  0  0  0
  2 11  1  0  0  0  0
  4 11  1  0  0  0  0
  4  1  2  0  0  0  0
  5  2  2  0  0  0  0
  6  3  1  0  0  0  0
  6  7  1  0  0  0  0
  7 18  1  0  0  0  0
  8  3  1  0  0  0  0
  9  8  2  0  0  0  0
 10  7  2  0  0  0  0
 10 45  1  0  0  0  0
 11  6  2  0  0  0  0
 12 13  1  0  0  0  0
 12  4  1  0  0  0  0
 14 12  1  0  0  0  0
 15 12  1  0  0  0  0
 16 19  1  0  0  0  0
 17 16  2  0  0  0  0
 18 16  1  0  0  0  0
 19 23  1  1  0  0  0
 19 22  1  0  0  0  0
 20 21  1  0  0  0  0
 22 20  1  0  0  0  0
 22 21  1  0  0  0  0
 23 24  1  0  0  0  0
 25 26  1  0  0  0  0
 26 27  1  0  0  0  0
 26 24  1  0  0  0  0
 28 26  2  0  0  0  0
 29 30  1  6  0  0  0
 29 31  1  0  0  0  0
 29  9  1  0  0  0  0
 32 34  1  0  0  0  0
 33 31  1  0  0  0  0
 33 34  1  0  0  0  0
 34 35  2  0  0  0  0
 36 32  1  0  0  0  0
 37 38  1  0  0  0  0
 37 36  1  0  0  0  0
 38 36  1  0  0  0  0
 39 38  1  0  0  0  0
 39 42  1  0  0  0  0
 40 42  2  0  0  0  0
 42 43  1  1  0  0  0
 42 41  1  0  0  0  0
 44 48  1  0  0  0  0
 45 44  2  0  0  0  0
 46 48  2  0  0  0  0
 48 47  1  0  0  0  0
M  END
>  <MODEL>
9

>  <REMARK>
 VINA RESULT:      -6.9      4.091      9.160
  Name = 
  15 active torsions:
  status: ('A' for Active; 'I' for Inactive)
    1  A    between atoms: N_5  and  N_15
    2  A    between atoms: N_7  and  C_44
    3  A    between atoms: C_8  and  C_11
    4  A    between atoms: C_8  and  O_18
    5  A    between atoms: C_10  and  C_13
    6  A    between atoms: C_11  and  C_12
    7  A    between atoms: C_11  and  C_34
    8  A    between atoms: C_16  and  C_38
    9  A    between atoms: C_16  and  C_44
   10  A    between atoms: O_18  and  P_41
   11  A    between atoms: N_20  and  C_32
   12  A    between atoms: N_24  and  C_36
   13  A    between atoms: P_30  and  N_48
   14  A    between atoms: N_39  and  N_48
   15  A    between atoms: C_42  and  C_47
                            x       y       z     vdW  Elec       q    Type
                         _______ _______ _______ _____ _____    ______ ____

>  <TORSDO>
F 15

$$$$
