=
 OpenBabel11062416553D

 56 61  0  0  1  0  0  0  0  0999 V2000
  191.7280  177.9910  143.1530 N   0  0  0  0  0  2  0  0  0  0  0  0
  188.8250  177.5230  140.2740 C   0  0  0  0  0  0  0  0  0  0  0  0
  189.7070  177.5510  141.2380 C   0  0  0  0  0  0  0  0  0  0  0  0
  190.3650  178.1910  143.5370 C   0  0  0  0  0  0  0  0  0  0  0  0
  190.1030  178.7480  144.6330 O   0  0  0  0  0  0  0  0  0  0  0  0
  187.9330  177.4980  139.3220 C   0  0  0  0  0  3  0  0  0  0  0  0
  189.2490  177.6840  142.6680 C   0  0  2  0  0  3  0  0  0  0  0  0
  192.0690  177.5100  141.8460 C   0  0  0  0  0  3  0  0  0  0  0  0
  191.1250  177.3110  140.9240 C   0  0  0  0  0  3  0  0  0  0  0  0
  188.7880  176.3330  143.2080 C   0  0  0  0  0  2  0  0  0  0  0  0
  187.4740  176.4580  143.9690 C   0  0  0  0  0  2  0  0  0  0  0  0
  186.6890  177.6840  143.5250 C   0  0  0  0  0  2  0  0  0  0  0  0
  186.0280  178.3660  144.7100 C   0  0  2  0  0  3  0  0  0  0  0  0
  186.4690  177.7570  145.8850 O   0  0  0  0  0  1  0  0  0  0  0  0
  184.5140  178.2380  144.6120 C   0  0  0  0  0  2  0  0  0  0  0  0
  183.9870  178.8190  143.3050 C   0  0  0  0  0  2  0  0  0  0  0  0
  182.6390  179.5070  143.4830 C   0  0  0  0  0  2  0  0  0  0  0  0
  181.7120  179.2400  142.2980 C   0  0  2  0  0  3  0  0  0  0  0  0
  180.2400  179.4300  142.6440 C   0  0  0  0  0  2  0  0  0  0  0  0
  179.7700  178.3720  144.0430 S   0  0  0  0  0  1  0  0  0  0  0  0
  181.9750  178.0040  141.6650 O   0  0  0  0  0  0  0  0  0  0  0  0
  179.6840  176.7210  140.4540 O   0  0  0  0  0  0  0  0  0  0  0  0
  182.4930  178.2920  139.2530 C   0  0  2  0  0  0  0  0  0  0  0  0
  180.8800  177.0060  138.3580 C   0  0  2  0  0  3  0  0  0  0  0  0
  182.0870  177.6810  138.0430 O   0  0  0  0  0  0  0  0  0  0  0  0
  183.2730  179.5810  139.1690 C   0  0  1  0  0  3  0  0  0  0  0  0
  183.9700  178.2800  139.5600 C   0  0  2  0  0  3  0  0  0  0  0  0
  180.6230  177.2410  139.8000 C   0  0  0  0  0  0  0  0  0  0  0  0
  181.5810  178.0970  140.3620 N   0  0  0  0  0  0  0  0  0  0  0  0
  184.6660  179.2750  138.6490 C   0  0  0  0  0  2  0  0  0  0  0  0
  182.0550  174.9110  138.3920 O   0  0  0  0  0  1  0  0  0  0  0  0
  181.0090  175.5390  138.0740 C   0  0  0  0  0  0  0  0  0  0  0  0
  179.9440  174.8540  137.5040 O   0  0  0  0  0  0  0  0  0  0  0  0
  187.9790  178.4840  138.2060 C   0  0  0  0  0  2  0  0  0  0  0  0
  189.9880  177.5700  137.0540 C   0  0  0  0  0  3  0  0  0  0  0  0
  189.3690  178.5920  137.6550 C   0  0  0  0  0  3  0  0  0  0  0  0
  189.3620  176.2130  136.8780 C   0  0  2  0  0  3  0  0  0  0  0  0
  190.4110  175.0940  136.9640 C   0  0  1  0  0  3  0  0  0  0  0  0
  190.8950  174.7630  135.6960 O   0  0  0  0  0  1  0  0  0  0  0  0
  191.5500  175.3440  137.9620 C   0  0  0  0  0  2  0  0  0  0  0  0
  192.7400  176.0760  137.3580 C   0  0  0  0  0  2  0  0  0  0  0  0
  193.9390  175.1510  137.2610 C   0  0  0  0  0  2  0  0  0  0  0  0
  194.7890  175.3770  138.3420 O   0  0  0  0  0  0  0  0  0  0  0  0
  195.2170  174.1060  138.7230 C   0  0  0  0  0  2  0  0  0  0  0  0
  194.8770  173.1120  137.6330 C   0  0  0  0  0  1  0  0  0  0  0  0
  188.5430  176.1490  135.5890 C   0  0  0  0  0  2  0  0  0  0  0  0
  186.4750  177.9590  135.2430 O   0  0  0  0  0  1  0  0  0  0  0  0
  185.2170  174.7160  134.6600 O   0  0  0  0  0  1  0  0  0  0  0  0
  185.9810  176.7290  135.6810 C   0  0  1  0  0  3  0  0  0  0  0  0
  186.2240  175.6810  134.5980 C   0  0  1  0  0  3  0  0  0  0  0  0
  187.1050  175.7020  135.8530 C   0  0  1  0  0  0  0  0  0  0  0  0
  187.2160  173.3260  136.3070 C   0  0  0  0  0  2  0  0  0  0  0  0
  185.5910  174.5720  137.4740 C   0  0  0  0  0  2  0  0  0  0  0  0
  186.9260  174.6400  136.8720 N   0  0  0  0  0  0  0  0  0  0  0  0
  186.3180  172.3340  137.0060 C   0  0  0  0  0  2  0  0  0  0  0  0
  185.1080  173.1410  137.3920 C   0  0  0  0  0  2  0  0  0  0  0  0
  1  4  1  0  0  0  0
  2  3  2  0  0  0  0
  3  7  1  0  0  0  0
  4  5  2  0  0  0  0
  6  2  2  0  0  0  0
  7 10  1  1  0  0  0
  7  4  1  0  0  0  0
  8  1  1  0  0  0  0
  9  3  1  0  0  0  0
  9  8  2  0  0  0  0
 10 11  1  0  0  0  0
 12 11  1  0  0  0  0
 12 13  1  0  0  0  0
 13 14  1  1  0  0  0
 15 13  1  0  0  0  0
 16 17  1  0  0  0  0
 16 15  1  0  0  0  0
 18 19  1  1  0  0  0
 18 17  1  0  0  0  0
 19 20  1  0  0  0  0
 21 18  1  0  0  0  0
 23 25  1  6  0  0  0
 23 27  1  0  0  0  0
 23 29  1  0  0  0  0
 24 32  1  1  0  0  0
 24 28  1  0  0  0  0
 25 24  1  0  0  0  0
 26 30  1  6  0  0  0
 26 23  1  0  0  0  0
 26 27  1  0  0  0  0
 27 30  1  6  0  0  0
 28 29  1  0  0  0  0
 28 22  2  0  0  0  0
 29 21  1  0  0  0  0
 32 31  1  0  0  0  0
 33 32  2  0  0  0  0
 34  6  1  0  0  0  0
 35 36  2  0  0  0  0
 36 34  1  0  0  0  0
 37 46  1  6  0  0  0
 37 38  1  0  0  0  0
 37 35  1  0  0  0  0
 38 39  1  6  0  0  0
 38 40  1  0  0  0  0
 41 40  1  0  0  0  0
 42 41  1  0  0  0  0
 42 43  1  0  0  0  0
 43 44  1  0  0  0  0
 45 44  1  0  0  0  0
 49 47  1  6  0  0  0
 49 51  1  0  0  0  0
 50 48  1  1  0  0  0
 50 49  1  0  0  0  0
 50 51  1  0  0  0  0
 51 46  1  6  0  0  0
 51 54  1  0  0  0  0
 52 54  1  0  0  0  0
 52 55  1  0  0  0  0
 54 53  1  0  0  0  0
 55 56  1  0  0  0  0
 56 53  1  0  0  0  0
M  END
>  <MODEL>
1

>  <REMARK>
 VINA RESULT:      -6.1      0.000      0.000
  Name = 
  24 active torsions:
  status: ('A' for Active; 'I' for Inactive)
    1  A    between atoms: C_6  and  C_16
    2  A    between atoms: C_6  and  C_34
    3  A    between atoms: C_7  and  C_36
    4  A    between atoms: C_7  and  C_49
    5  A    between atoms: C_8  and  C_9
    6  A    between atoms: C_8  and  C_45
    7  A    between atoms: C_9  and  C_27
    8  A    between atoms: C_10  and  C_14
    9  A    between atoms: C_10  and  O_15
   10  A    between atoms: C_10  and  C_37
   11  A    between atoms: O_11  and  C_19
   12  A    between atoms: O_11  and  C_28
   13  A    between atoms: O_15  and  N_38
   14  A    between atoms: C_16  and  C_53
   15  A    between atoms: C_20  and  C_26
   16  A    between atoms: C_22  and  C_39
   17  A    between atoms: C_22  and  C_50
   18  A    between atoms: C_27  and  C_44
   19  A    between atoms: C_27  and  C_48
   20  A    between atoms: C_28  and  C_45
   21  A    between atoms: C_34  and  C_50
   22  A    between atoms: C_37  and  C_53
   23  A    between atoms: C_44  and  C_47
   24  A    between atoms: C_47  and  N_52
                            x       y       z     vdW  Elec       q    Type
                         _______ _______ _______ _____ _____    ______ ____

>  <TORSDO>
F 24

$$$$
=
 OpenBabel11062416553D

 56 61  0  0  1  0  0  0  0  0999 V2000
  191.2540  176.6480  145.2840 N   0  0  0  0  0  2  0  0  0  0  0  0
  188.6850  177.2300  142.1230 C   0  0  0  0  0  0  0  0  0  0  0  0
  189.4020  176.9700  143.1840 C   0  0  0  0  0  0  0  0  0  0  0  0
  190.1700  177.5630  145.4610 C   0  0  0  0  0  0  0  0  0  0  0  0
  190.1730  178.3480  146.4440 O   0  0  0  0  0  0  0  0  0  0  0  0
  187.9610  177.4990  141.0710 C   0  0  0  0  0  3  0  0  0  0  0  0
  189.0010  177.5480  144.5180 C   0  0  2  0  0  3  0  0  0  0  0  0
  191.3690  175.8540  144.0960 C   0  0  0  0  0  3  0  0  0  0  0  0
  190.5100  176.0060  143.0870 C   0  0  0  0  0  3  0  0  0  0  0  0
  187.8820  176.7190  145.1420 C   0  0  0  0  0  2  0  0  0  0  0  0
  186.5500  176.9680  144.4460 C   0  0  0  0  0  2  0  0  0  0  0  0
  186.1090  178.4180  144.5920 C   0  0  0  0  0  2  0  0  0  0  0  0
  184.8710  178.6980  143.7570 C   0  0  2  0  0  3  0  0  0  0  0  0
  185.2010  179.6040  142.7500 O   0  0  0  0  0  1  0  0  0  0  0  0
  183.7730  179.2900  144.6310 C   0  0  0  0  0  2  0  0  0  0  0  0
  182.3880  178.8740  144.1480 C   0  0  0  0  0  2  0  0  0  0  0  0
  182.3650  178.5750  142.6540 C   0  0  0  0  0  2  0  0  0  0  0  0
  181.2340  179.3250  141.9500 C   0  0  2  0  0  3  0  0  0  0  0  0
  180.1400  179.7790  142.9080 C   0  0  0  0  0  2  0  0  0  0  0  0
  178.9410  180.8420  142.0520 S   0  0  0  0  0  1  0  0  0  0  0  0
  180.7310  178.6270  140.8280 O   0  0  0  0  0  0  0  0  0  0  0  0
  180.8510  181.0110  139.1960 O   0  0  0  0  0  0  0  0  0  0  0  0
  182.0670  177.8110  138.8990 C   0  0  2  0  0  0  0  0  0  0  0  0
  181.8560  179.5710  137.5150 C   0  0  2  0  0  3  0  0  0  0  0  0
  182.2760  178.2170  137.5600 O   0  0  0  0  0  0  0  0  0  0  0  0
  182.9810  176.7560  139.4710 C   0  0  1  0  0  3  0  0  0  0  0  0
  181.5370  176.4140  139.1120 C   0  0  2  0  0  3  0  0  0  0  0  0
  181.3820  179.9150  138.8780 C   0  0  0  0  0  0  0  0  0  0  0  0
  181.5670  178.8530  139.7740 N   0  0  0  0  0  0  0  0  0  0  0  0
  182.6490  175.4210  138.8270 C   0  0  0  0  0  2  0  0  0  0  0  0
  180.9210  180.4850  135.5010 O   0  0  0  0  0  0  0  0  0  0  0  0
  180.7570  179.7470  136.5100 C   0  0  0  0  0  0  0  0  0  0  0  0
  179.5670  179.0480  136.6630 O   0  0  0  0  0  1  0  0  0  0  0  0
  188.5680  178.1310  139.8660 C   0  0  0  0  0  2  0  0  0  0  0  0
  190.7430  177.2280  139.0580 C   0  0  0  0  0  3  0  0  0  0  0  0
  190.0610  178.0100  139.9030 C   0  0  0  0  0  3  0  0  0  0  0  0
  190.0850  176.3890  137.9960 C   0  0  2  0  0  3  0  0  0  0  0  0
  190.9480  175.1730  137.6250 C   0  0  1  0  0  3  0  0  0  0  0  0
  190.1900  174.0000  137.6330 O   0  0  0  0  0  1  0  0  0  0  0  0
  191.7570  175.3210  136.3280 C   0  0  0  0  0  2  0  0  0  0  0  0
  193.1270  175.9520  136.5320 C   0  0  0  0  0  2  0  0  0  0  0  0
  193.7690  175.4310  137.8030 C   0  0  0  0  0  2  0  0  0  0  0  0
  195.1430  175.2990  137.6110 O   0  0  0  0  0  0  0  0  0  0  0  0
  195.2830  174.1150  136.8880 C   0  0  0  0  0  2  0  0  0  0  0  0
  196.4570  174.2400  135.9410 C   0  0  0  0  0  1  0  0  0  0  0  0
  189.7140  177.2350  136.7790 C   0  0  0  0  0  2  0  0  0  0  0  0
  188.2150  179.5610  136.9170 O   0  0  0  0  0  1  0  0  0  0  0  0
  186.6800  177.3910  134.5980 O   0  0  0  0  0  1  0  0  0  0  0  0
  187.4030  178.4730  136.5950 C   0  0  1  0  0  3  0  0  0  0  0  0
  187.8020  177.9410  135.2210 C   0  0  1  0  0  3  0  0  0  0  0  0
  188.2140  177.1790  136.4850 C   0  0  1  0  0  0  0  0  0  0  0  0
  187.6320  174.9670  135.6890 C   0  0  0  0  0  2  0  0  0  0  0  0
  186.1120  176.0220  137.1500 C   0  0  0  0  0  2  0  0  0  0  0  0
  187.5320  175.9010  136.8060 N   0  0  0  0  0  0  0  0  0  0  0  0
  186.3750  174.1320  135.6960 C   0  0  0  0  0  2  0  0  0  0  0  0
  185.3370  175.0320  136.3080 C   0  0  0  0  0  2  0  0  0  0  0  0
  1  4  1  0  0  0  0
  2  3  2  0  0  0  0
  3  7  1  0  0  0  0
  4  5  2  0  0  0  0
  6  2  2  0  0  0  0
  7 10  1  1  0  0  0
  7  4  1  0  0  0  0
  8  1  1  0  0  0  0
  9  3  1  0  0  0  0
  9  8  2  0  0  0  0
 11 12  1  0  0  0  0
 11 10  1  0  0  0  0
 13 14  1  6  0  0  0
 13 12  1  0  0  0  0
 13 15  1  0  0  0  0
 16 15  1  0  0  0  0
 17 16  1  0  0  0  0
 18 17  1  1  0  0  0
 18 19  1  0  0  0  0
 20 19  1  0  0  0  0
 21 18  1  0  0  0  0
 23 25  1  6  0  0  0
 23 27  1  0  0  0  0
 23 26  1  0  0  0  0
 23 29  1  0  0  0  0
 24 32  1  6  0  0  0
 24 25  1  0  0  0  0
 24 28  1  0  0  0  0
 26 30  1  6  0  0  0
 27 30  1  6  0  0  0
 27 26  1  0  0  0  0
 28 22  2  0  0  0  0
 28 29  1  0  0  0  0
 29 21  1  0  0  0  0
 31 32  2  0  0  0  0
 32 33  1  0  0  0  0
 34 36  1  0  0  0  0
 34  6  1  0  0  0  0
 35 36  2  0  0  0  0
 37 46  1  6  0  0  0
 37 35  1  0  0  0  0
 38 39  1  6  0  0  0
 38 37  1  0  0  0  0
 40 41  1  0  0  0  0
 40 38  1  0  0  0  0
 41 42  1  0  0  0  0
 43 42  1  0  0  0  0
 44 43  1  0  0  0  0
 45 44  1  0  0  0  0
 49 47  1  1  0  0  0
 50 48  1  6  0  0  0
 50 51  1  0  0  0  0
 50 49  1  0  0  0  0
 51 49  1  0  0  0  0
 51 46  1  1  0  0  0
 51 54  1  0  0  0  0
 52 55  1  0  0  0  0
 52 54  1  0  0  0  0
 54 53  1  0  0  0  0
 55 56  1  0  0  0  0
 56 53  1  0  0  0  0
M  END
>  <MODEL>
2

>  <REMARK>
 VINA RESULT:      -5.9      1.828      2.457
  Name = 
  24 active torsions:
  status: ('A' for Active; 'I' for Inactive)
    1  A    between atoms: C_6  and  C_16
    2  A    between atoms: C_6  and  C_34
    3  A    between atoms: C_7  and  C_36
    4  A    between atoms: C_7  and  C_49
    5  A    between atoms: C_8  and  C_9
    6  A    between atoms: C_8  and  C_45
    7  A    between atoms: C_9  and  C_27
    8  A    between atoms: C_10  and  C_14
    9  A    between atoms: C_10  and  O_15
   10  A    between atoms: C_10  and  C_37
   11  A    between atoms: O_11  and  C_19
   12  A    between atoms: O_11  and  C_28
   13  A    between atoms: O_15  and  N_38
   14  A    between atoms: C_16  and  C_53
   15  A    between atoms: C_20  and  C_26
   16  A    between atoms: C_22  and  C_39
   17  A    between atoms: C_22  and  C_50
   18  A    between atoms: C_27  and  C_44
   19  A    between atoms: C_27  and  C_48
   20  A    between atoms: C_28  and  C_45
   21  A    between atoms: C_34  and  C_50
   22  A    between atoms: C_37  and  C_53
   23  A    between atoms: C_44  and  C_47
   24  A    between atoms: C_47  and  N_52
                            x       y       z     vdW  Elec       q    Type
                         _______ _______ _______ _____ _____    ______ ____

>  <TORSDO>
F 24

$$$$
=
 OpenBabel11062416553D

 56 61  0  0  1  0  0  0  0  0999 V2000
  191.7450  178.0060  143.2070 N   0  0  0  0  0  2  0  0  0  0  0  0
  188.9090  177.4380  140.2810 C   0  0  0  0  0  0  0  0  0  0  0  0
  189.7700  177.4980  141.2620 C   0  0  0  0  0  0  0  0  0  0  0  0
  190.3730  178.2110  143.5550 C   0  0  0  0  0  0  0  0  0  0  0  0
  190.0840  178.7990  144.6280 O   0  0  0  0  0  0  0  0  0  0  0  0
  188.0390  177.3800  139.3100 C   0  0  0  0  0  3  0  0  0  0  0  0
  189.2800  177.6720  142.6770 C   0  0  2  0  0  3  0  0  0  0  0  0
  192.1170  177.4880  141.9240 C   0  0  0  0  0  3  0  0  0  0  0  0
  191.1950  177.2570  140.9870 C   0  0  0  0  0  3  0  0  0  0  0  0
  188.8120  176.3360  143.2470 C   0  0  0  0  0  2  0  0  0  0  0  0
  187.3940  176.4310  143.7960 C   0  0  0  0  0  2  0  0  0  0  0  0
  186.7400  177.7540  143.4210 C   0  0  0  0  0  2  0  0  0  0  0  0
  186.3170  178.5230  144.6610 C   0  0  2  0  0  3  0  0  0  0  0  0
  186.7920  177.8560  145.7900 O   0  0  0  0  0  1  0  0  0  0  0  0
  184.7980  178.6130  144.7270 C   0  0  0  0  0  2  0  0  0  0  0  0
  184.1570  178.2520  143.3920 C   0  0  0  0  0  2  0  0  0  0  0  0
  183.2510  179.3600  142.8710 C   0  0  0  0  0  2  0  0  0  0  0  0
  182.2760  178.8380  141.8150 C   0  0  2  0  0  3  0  0  0  0  0  0
  180.8390  178.7790  142.3150 C   0  0  0  0  0  2  0  0  0  0  0  0
  179.8740  180.1690  141.6560 S   0  0  0  0  0  1  0  0  0  0  0  0
  182.7060  177.6280  141.2250 O   0  0  0  0  0  0  0  0  0  0  0  0
  183.9110  179.7380  139.6570 O   0  0  0  0  0  0  0  0  0  0  0  0
  181.5410  177.3250  139.0510 C   0  0  2  0  0  0  0  0  0  0  0  0
  182.2500  179.1690  137.9770 C   0  0  2  0  0  3  0  0  0  0  0  0
  181.2990  178.1200  137.9060 O   0  0  0  0  0  0  0  0  0  0  0  0
  181.2450  175.8490  138.9660 C   0  0  1  0  0  3  0  0  0  0  0  0
  180.3320  176.7740  139.7660 C   0  0  2  0  0  3  0  0  0  0  0  0
  183.0330  178.9520  139.2180 C   0  0  0  0  0  0  0  0  0  0  0  0
  182.6520  177.7700  139.8690 N   0  0  0  0  0  0  0  0  0  0  0  0
  179.7390  175.6540  138.9310 C   0  0  0  0  0  2  0  0  0  0  0  0
  181.6910  181.2690  139.0000 O   0  0  0  0  0  1  0  0  0  0  0  0
  181.5620  180.5010  138.0090 C   0  0  0  0  0  0  0  0  0  0  0  0
  180.8190  180.9160  136.9110 O   0  0  0  0  0  0  0  0  0  0  0  0
  188.1050  178.3320  138.1660 C   0  0  0  0  0  2  0  0  0  0  0  0
  189.8160  177.1270  136.8160 C   0  0  0  0  0  3  0  0  0  0  0  0
  189.4290  178.2280  137.4700 C   0  0  0  0  0  3  0  0  0  0  0  0
  188.9720  175.8850  136.7180 C   0  0  2  0  0  3  0  0  0  0  0  0
  189.8310  174.6140  136.8040 C   0  0  1  0  0  3  0  0  0  0  0  0
  189.2070  173.6410  137.5900 O   0  0  0  0  0  1  0  0  0  0  0  0
  190.2910  174.0460  135.4540 C   0  0  0  0  0  2  0  0  0  0  0  0
  191.7410  173.5830  135.4500 C   0  0  0  0  0  2  0  0  0  0  0  0
  192.5510  174.3600  136.4700 C   0  0  0  0  0  2  0  0  0  0  0  0
  193.3370  173.4790  137.2100 O   0  0  0  0  0  0  0  0  0  0  0  0
  194.5530  174.1410  137.3670 C   0  0  0  0  0  2  0  0  0  0  0  0
  194.3010  175.6240  137.5380 C   0  0  0  0  0  1  0  0  0  0  0  0
  188.0950  175.9130  135.4670 C   0  0  0  0  0  2  0  0  0  0  0  0
  186.6200  178.2250  135.0740 O   0  0  0  0  0  1  0  0  0  0  0  0
  184.4480  175.4620  134.7740 O   0  0  0  0  0  1  0  0  0  0  0  0
  185.8190  177.2200  135.6180 C   0  0  1  0  0  3  0  0  0  0  0  0
  185.6860  176.0860  134.6040 C   0  0  1  0  0  3  0  0  0  0  0  0
  186.6070  175.9220  135.8180 C   0  0  1  0  0  0  0  0  0  0  0  0
  186.0640  173.6440  136.4390 C   0  0  0  0  0  2  0  0  0  0  0  0
  184.9240  175.3710  137.5690 C   0  0  0  0  0  2  0  0  0  0  0  0
  186.1890  175.0180  136.9180 N   0  0  0  0  0  0  0  0  0  0  0  0
  184.9610  172.9950  137.2390 C   0  0  0  0  0  2  0  0  0  0  0  0
  184.0510  174.1360  137.6070 C   0  0  0  0  0  2  0  0  0  0  0  0
  1  4  1  0  0  0  0
  2  3  2  0  0  0  0
  3  7  1  0  0  0  0
  4  5  2  0  0  0  0
  6  2  2  0  0  0  0
  7 10  1  1  0  0  0
  7  4  1  0  0  0  0
  8  1  1  0  0  0  0
  9  3  1  0  0  0  0
  9  8  2  0  0  0  0
 10 11  1  0  0  0  0
 12 11  1  0  0  0  0
 12 13  1  0  0  0  0
 13 15  1  0  0  0  0
 13 14  1  1  0  0  0
 16 15  1  0  0  0  0
 17 16  1  0  0  0  0
 18 19  1  1  0  0  0
 18 17  1  0  0  0  0
 20 19  1  0  0  0  0
 21 18  1  0  0  0  0
 23 25  1  6  0  0  0
 23 27  1  0  0  0  0
 23 29  1  0  0  0  0
 24 32  1  1  0  0  0
 24 28  1  0  0  0  0
 25 24  1  0  0  0  0
 26 30  1  6  0  0  0
 26 23  1  0  0  0  0
 26 27  1  0  0  0  0
 27 30  1  6  0  0  0
 28 22  2  0  0  0  0
 28 29  1  0  0  0  0
 29 21  1  0  0  0  0
 32 31  1  0  0  0  0
 33 32  2  0  0  0  0
 34  6  1  0  0  0  0
 35 36  2  0  0  0  0
 36 34  1  0  0  0  0
 37 46  1  6  0  0  0
 37 38  1  0  0  0  0
 37 35  1  0  0  0  0
 38 39  1  6  0  0  0
 40 38  1  0  0  0  0
 41 40  1  0  0  0  0
 41 42  1  0  0  0  0
 42 43  1  0  0  0  0
 43 44  1  0  0  0  0
 44 45  1  0  0  0  0
 49 47  1  6  0  0  0
 49 51  1  0  0  0  0
 50 48  1  1  0  0  0
 50 49  1  0  0  0  0
 50 51  1  0  0  0  0
 51 46  1  6  0  0  0
 51 54  1  0  0  0  0
 52 54  1  0  0  0  0
 52 55  1  0  0  0  0
 53 56  1  0  0  0  0
 54 53  1  0  0  0  0
 55 56  1  0  0  0  0
M  END
>  <MODEL>
3

>  <REMARK>
 VINA RESULT:      -5.3      1.365      2.293
  Name = 
  24 active torsions:
  status: ('A' for Active; 'I' for Inactive)
    1  A    between atoms: C_6  and  C_16
    2  A    between atoms: C_6  and  C_34
    3  A    between atoms: C_7  and  C_36
    4  A    between atoms: C_7  and  C_49
    5  A    between atoms: C_8  and  C_9
    6  A    between atoms: C_8  and  C_45
    7  A    between atoms: C_9  and  C_27
    8  A    between atoms: C_10  and  C_14
    9  A    between atoms: C_10  and  O_15
   10  A    between atoms: C_10  and  C_37
   11  A    between atoms: O_11  and  C_19
   12  A    between atoms: O_11  and  C_28
   13  A    between atoms: O_15  and  N_38
   14  A    between atoms: C_16  and  C_53
   15  A    between atoms: C_20  and  C_26
   16  A    between atoms: C_22  and  C_39
   17  A    between atoms: C_22  and  C_50
   18  A    between atoms: C_27  and  C_44
   19  A    between atoms: C_27  and  C_48
   20  A    between atoms: C_28  and  C_45
   21  A    between atoms: C_34  and  C_50
   22  A    between atoms: C_37  and  C_53
   23  A    between atoms: C_44  and  C_47
   24  A    between atoms: C_47  and  N_52
                            x       y       z     vdW  Elec       q    Type
                         _______ _______ _______ _____ _____    ______ ____

>  <TORSDO>
F 24

$$$$
=
 OpenBabel11062416553D

 56 61  0  0  1  0  0  0  0  0999 V2000
  188.6070  174.0360  136.6750 N   0  0  0  0  0  0  0  0  0  0  0  0
  185.5940  176.6570  135.6860 C   0  0  0  0  0  0  0  0  0  0  0  0
  186.6090  175.9290  136.0670 C   0  0  0  0  0  0  0  0  0  0  0  0
  188.8700  175.0070  135.6580 C   0  0  0  0  0  0  0  0  0  0  0  0
  189.8810  174.8770  134.9210 O   0  0  0  0  0  0  0  0  0  0  0  0
  184.5880  177.3920  135.2960 C   0  0  0  0  0  3  0  0  0  0  0  0
  187.9820  176.2080  135.5080 C   0  0  2  0  0  3  0  0  0  0  0  0
  187.3850  174.0570  137.4240 C   0  0  0  0  0  3  0  0  0  0  0  0
  186.4240  174.9370  137.1380 C   0  0  0  0  0  2  0  0  0  0  0  0
  188.6250  177.3840  136.2390 C   0  0  0  0  0  2  0  0  0  0  0  0
  189.4080  176.9180  137.4600 C   0  0  0  0  0  2  0  0  0  0  0  0
  189.4750  178.0050  138.5240 C   0  0  0  0  0  2  0  0  0  0  0  0
  188.7400  177.5810  139.7840 C   0  0  2  0  0  3  0  0  0  0  0  0
  187.8200  178.5720  140.1250 O   0  0  0  0  0  1  0  0  0  0  0  0
  189.7270  177.3910  140.9280 C   0  0  0  0  0  2  0  0  0  0  0  0
  189.3810  176.1670  141.7680 C   0  0  0  0  0  2  0  0  0  0  0  0
  189.5020  176.4420  143.2620 C   0  0  0  0  0  2  0  0  0  0  0  0
  190.0400  177.8480  143.5320 C   0  0  2  0  0  3  0  0  0  0  0  0
  191.4810  177.8430  144.0260 C   0  0  0  0  0  2  0  0  0  0  0  0
  191.7480  176.4920  145.2100 S   0  0  0  0  0  1  0  0  0  0  0  0
  189.1790  178.6160  144.3470 O   0  0  0  0  0  0  0  0  0  0  0  0
  186.7510  178.1650  142.8440 O   0  0  0  0  0  0  0  0  0  0  0  0
  187.7260  177.6030  146.0900 C   0  0  2  0  0  0  0  0  0  0  0  0
  185.7670  177.5760  144.9870 C   0  0  2  0  0  3  0  0  0  0  0  0
  186.3360  177.4180  146.2760 O   0  0  0  0  0  0  0  0  0  0  0  0
  188.6690  176.8660  147.0080 C   0  0  1  0  0  3  0  0  0  0  0  0
  188.4610  178.3710  147.1610 C   0  0  2  0  0  3  0  0  0  0  0  0
  186.8860  177.8760  144.0600 C   0  0  0  0  0  0  0  0  0  0  0  0
  188.1250  177.8310  144.7150 N   0  0  0  0  0  0  0  0  0  0  0  0
  188.5910  177.4910  148.3910 C   0  0  0  0  0  2  0  0  0  0  0  0
  184.5890  179.3990  146.0160 O   0  0  0  0  0  1  0  0  0  0  0  0
  184.7640  178.6920  144.9880 C   0  0  0  0  0  0  0  0  0  0  0  0
  184.0610  178.9830  143.8260 O   0  0  0  0  0  0  0  0  0  0  0  0
  183.3810  176.7710  134.6810 C   0  0  0  0  0  2  0  0  0  0  0  0
  181.2620  177.8070  135.4800 C   0  0  0  0  0  3  0  0  0  0  0  0
  182.2630  177.7670  134.5940 C   0  0  0  0  0  3  0  0  0  0  0  0
  181.1500  176.8580  136.6420 C   0  0  2  0  0  3  0  0  0  0  0  0
  180.3630  175.5930  136.2630 C   0  0  1  0  0  3  0  0  0  0  0  0
  179.7370  175.7470  135.0240 O   0  0  0  0  0  1  0  0  0  0  0  0
  181.1600  174.2840  136.3410 C   0  0  0  0  0  2  0  0  0  0  0  0
  180.4140  173.1560  137.0410 C   0  0  0  0  0  2  0  0  0  0  0  0
  180.5280  171.8700  136.2470 C   0  0  0  0  0  2  0  0  0  0  0  0
  181.8160  171.7560  135.7270 O   0  0  0  0  0  0  0  0  0  0  0  0
  182.5920  171.3260  136.8020 C   0  0  0  0  0  2  0  0  0  0  0  0
  183.9970  171.0320  136.3230 C   0  0  0  0  0  1  0  0  0  0  0  0
  180.5710  177.5590  137.8710 C   0  0  0  0  0  2  0  0  0  0  0  0
  181.3980  175.7060  139.7570 O   0  0  0  0  0  1  0  0  0  0  0  0
  184.0930  177.8790  139.0860 O   0  0  0  0  0  1  0  0  0  0  0  0
  182.0820  176.9110  139.9220 C   0  0  1  0  0  3  0  0  0  0  0  0
  182.9640  177.1540  138.6990 C   0  0  1  0  0  3  0  0  0  0  0  0
  181.6620  177.9430  138.8710 C   0  0  1  0  0  0  0  0  0  0  0  0
  180.5660  179.7770  140.0130 C   0  0  0  0  0  2  0  0  0  0  0  0
  181.8510  180.3060  138.1080 C   0  0  0  0  0  2  0  0  0  0  0  0
  181.7370  179.3790  139.2380 N   0  0  0  0  0  0  0  0  0  0  0  0
  180.2820  181.2200  139.6760 C   0  0  0  0  0  2  0  0  0  0  0  0
  180.7990  181.3810  138.2720 C   0  0  0  0  0  2  0  0  0  0  0  0
  1  8  2  0  0  0  0
  2  3  2  0  0  0  0
  3  9  1  0  0  0  0
  4  1  1  0  0  0  0
  5  4  2  0  0  0  0
  6  2  2  0  0  0  0
  7  4  1  0  0  0  0
  7  3  1  0  0  0  0
  7 10  1  1  0  0  0
  9  8  1  0  0  0  0
 10 11  1  0  0  0  0
 11 12  1  0  0  0  0
 12 13  1  0  0  0  0
 13 14  1  1  0  0  0
 13 15  1  0  0  0  0
 15 16  1  0  0  0  0
 16 17  1  0  0  0  0
 18 17  1  1  0  0  0
 18 19  1  0  0  0  0
 18 21  1  0  0  0  0
 19 20  1  0  0  0  0
 21 29  1  0  0  0  0
 22 28  2  0  0  0  0
 23 25  1  1  0  0  0
 23 26  1  0  0  0  0
 23 27  1  0  0  0  0
 24 32  1  1  0  0  0
 24 25  1  0  0  0  0
 26 27  1  0  0  0  0
 26 30  1  1  0  0  0
 27 30  1  1  0  0  0
 28 29  1  0  0  0  0
 28 24  1  0  0  0  0
 29 23  1  0  0  0  0
 32 31  1  0  0  0  0
 33 32  2  0  0  0  0
 34  6  1  0  0  0  0
 36 34  1  0  0  0  0
 36 35  2  0  0  0  0
 37 35  1  6  0  0  0
 37 46  1  0  0  0  0
 38 39  1  6  0  0  0
 38 40  1  0  0  0  0
 38 37  1  0  0  0  0
 40 41  1  0  0  0  0
 42 41  1  0  0  0  0
 43 42  1  0  0  0  0
 43 44  1  0  0  0  0
 45 44  1  0  0  0  0
 49 47  1  6  0  0  0
 50 51  1  0  0  0  0
 50 48  1  1  0  0  0
 50 49  1  0  0  0  0
 51 46  1  6  0  0  0
 51 54  1  0  0  0  0
 51 49  1  0  0  0  0
 53 56  1  0  0  0  0
 53 54  1  0  0  0  0
 54 52  1  0  0  0  0
 55 52  1  0  0  0  0
 56 55  1  0  0  0  0
M  END
>  <MODEL>
4

>  <REMARK>
 VINA RESULT:      -5.0      2.973      8.722
  Name = 
  24 active torsions:
  status: ('A' for Active; 'I' for Inactive)
    1  A    between atoms: C_6  and  C_16
    2  A    between atoms: C_6  and  C_34
    3  A    between atoms: C_7  and  C_36
    4  A    between atoms: C_7  and  C_49
    5  A    between atoms: C_8  and  C_9
    6  A    between atoms: C_8  and  C_45
    7  A    between atoms: C_9  and  C_27
    8  A    between atoms: C_10  and  C_14
    9  A    between atoms: C_10  and  O_15
   10  A    between atoms: C_10  and  C_37
   11  A    between atoms: O_11  and  C_19
   12  A    between atoms: O_11  and  C_28
   13  A    between atoms: O_15  and  N_38
   14  A    between atoms: C_16  and  C_53
   15  A    between atoms: C_20  and  C_26
   16  A    between atoms: C_22  and  C_39
   17  A    between atoms: C_22  and  C_50
   18  A    between atoms: C_27  and  C_44
   19  A    between atoms: C_27  and  C_48
   20  A    between atoms: C_28  and  C_45
   21  A    between atoms: C_34  and  C_50
   22  A    between atoms: C_37  and  C_53
   23  A    between atoms: C_44  and  C_47
   24  A    between atoms: C_47  and  N_52
                            x       y       z     vdW  Elec       q    Type
                         _______ _______ _______ _____ _____    ______ ____

>  <TORSDO>
F 24

$$$$
=
 OpenBabel11062416553D

 56 61  0  0  1  0  0  0  0  0999 V2000
  189.2750  178.0070  135.7150 N   0  0  0  0  0  2  0  0  0  0  0  0
  185.2720  177.3570  136.4080 C   0  0  0  0  0  0  0  0  0  0  0  0
  186.5670  177.4910  136.3010 C   0  0  0  0  0  0  0  0  0  0  0  0
  188.6460  178.7530  136.7610 C   0  0  0  0  0  0  0  0  0  0  0  0
  189.2330  179.7510  137.2520 O   0  0  0  0  0  0  0  0  0  0  0  0
  183.9780  177.2340  136.5260 C   0  0  0  0  0  3  0  0  0  0  0  0
  187.3200  178.3150  137.3140 C   0  0  2  0  0  3  0  0  0  0  0  0
  188.5750  176.9680  135.0190 C   0  0  0  0  0  3  0  0  0  0  0  0
  187.2880  176.7210  135.2740 C   0  0  0  0  0  3  0  0  0  0  0  0
  187.5670  177.5040  138.5830 C   0  0  0  0  0  2  0  0  0  0  0  0
  188.5770  176.3890  138.3440 C   0  0  0  0  0  2  0  0  0  0  0  0
  189.9640  176.7810  138.8340 C   0  0  0  0  0  2  0  0  0  0  0  0
  189.9300  177.1820  140.3000 C   0  0  2  0  0  3  0  0  0  0  0  0
  189.2480  178.3920  140.4210 O   0  0  0  0  0  1  0  0  0  0  0  0
  191.3480  177.3450  140.8300 C   0  0  0  0  0  2  0  0  0  0  0  0
  191.3520  177.7660  142.2960 C   0  0  0  0  0  2  0  0  0  0  0  0
  190.4590  176.8760  143.1520 C   0  0  0  0  0  2  0  0  0  0  0  0
  190.4400  177.3380  144.6090 C   0  0  2  0  0  3  0  0  0  0  0  0
  190.4160  176.1780  145.5970 C   0  0  0  0  0  2  0  0  0  0  0  0
  191.7710  176.3310  146.7960 S   0  0  0  0  0  1  0  0  0  0  0  0
  189.4370  178.3000  144.8640 O   0  0  0  0  0  0  0  0  0  0  0  0
  187.2810  177.6900  143.0360 O   0  0  0  0  0  0  0  0  0  0  0  0
  187.6290  177.6860  146.4540 C   0  0  2  0  0  0  0  0  0  0  0  0
  185.8960  177.5450  145.0280 C   0  0  2  0  0  3  0  0  0  0  0  0
  186.2170  177.6000  146.4080 O   0  0  0  0  0  0  0  0  0  0  0  0
  188.3380  177.0890  147.6440 C   0  0  1  0  0  3  0  0  0  0  0  0
  188.2220  178.6040  147.4950 C   0  0  2  0  0  3  0  0  0  0  0  0
  187.1790  177.6220  144.2880 C   0  0  0  0  0  0  0  0  0  0  0  0
  188.2780  177.6430  145.1590 N   0  0  0  0  0  0  0  0  0  0  0  0
  188.0670  177.9580  148.8600 C   0  0  0  0  0  2  0  0  0  0  0  0
  185.4710  179.7460  144.1650 O   0  0  0  0  0  0  0  0  0  0  0  0
  184.9970  178.6850  144.6520 C   0  0  0  0  0  0  0  0  0  0  0  0
  183.6210  178.5490  144.7920 O   0  0  0  0  0  1  0  0  0  0  0  0
  183.0670  177.6290  135.4150 C   0  0  0  0  0  2  0  0  0  0  0  0
  181.1870  176.4700  136.5640 C   0  0  0  0  0  3  0  0  0  0  0  0
  181.8210  176.7950  135.4320 C   0  0  0  0  0  3  0  0  0  0  0  0
  181.6590  176.8980  137.9270 C   0  0  2  0  0  3  0  0  0  0  0  0
  182.0970  175.6920  138.7740 C   0  0  1  0  0  3  0  0  0  0  0  0
  181.1670  175.4240  139.7810 O   0  0  0  0  0  1  0  0  0  0  0  0
  182.4530  174.4310  137.9760 C   0  0  0  0  0  2  0  0  0  0  0  0
  183.9510  174.1900  137.8510 C   0  0  0  0  0  2  0  0  0  0  0  0
  184.3070  173.7760  136.4360 C   0  0  0  0  0  2  0  0  0  0  0  0
  183.2580  173.0400  135.8880 O   0  0  0  0  0  0  0  0  0  0  0  0
  183.7990  171.7750  135.6620 C   0  0  0  0  0  2  0  0  0  0  0  0
  182.9250  170.7290  136.3200 C   0  0  0  0  0  1  0  0  0  0  0  0
  180.6060  177.7530  138.6310 C   0  0  0  0  0  2  0  0  0  0  0  0
  180.3750  179.5120  136.5030 O   0  0  0  0  0  1  0  0  0  0  0  0
  180.1910  181.3670  139.4970 O   0  0  0  0  0  1  0  0  0  0  0  0
  180.9600  180.1460  137.6000 C   0  0  1  0  0  3  0  0  0  0  0  0
  179.9370  180.2270  138.7310 C   0  0  1  0  0  3  0  0  0  0  0  0
  181.0730  179.2000  138.8000 C   0  0  1  0  0  0  0  0  0  0  0  0
  183.4740  179.3330  139.0830 C   0  0  0  0  0  2  0  0  0  0  0  0
  182.2190  178.4990  140.8960 C   0  0  0  0  0  2  0  0  0  0  0  0
  182.1830  179.4220  139.7580 N   0  0  0  0  0  0  0  0  0  0  0  0
  184.4590  178.7760  140.0830 C   0  0  0  0  0  2  0  0  0  0  0  0
  183.6170  177.9290  140.9980 C   0  0  0  0  0  2  0  0  0  0  0  0
  1  4  1  0  0  0  0
  2  6  2  0  0  0  0
  3  2  2  0  0  0  0
  3  7  1  0  0  0  0
  4  5  2  0  0  0  0
  4  7  1  0  0  0  0
  7 10  1  1  0  0  0
  8  9  2  0  0  0  0
  8  1  1  0  0  0  0
  9  3  1  0  0  0  0
 11 10  1  0  0  0  0
 11 12  1  0  0  0  0
 12 13  1  0  0  0  0
 13 14  1  6  0  0  0
 13 15  1  0  0  0  0
 15 16  1  0  0  0  0
 16 17  1  0  0  0  0
 18 17  1  6  0  0  0
 18 21  1  0  0  0  0
 18 19  1  0  0  0  0
 19 20  1  0  0  0  0
 21 29  1  0  0  0  0
 22 28  2  0  0  0  0
 23 25  1  6  0  0  0
 23 27  1  0  0  0  0
 23 26  1  0  0  0  0
 24 32  1  6  0  0  0
 24 25  1  0  0  0  0
 26 30  1  1  0  0  0
 27 26  1  0  0  0  0
 27 30  1  1  0  0  0
 28 24  1  0  0  0  0
 28 29  1  0  0  0  0
 29 23  1  0  0  0  0
 31 32  2  0  0  0  0
 32 33  1  0  0  0  0
 34 36  1  0  0  0  0
 34  6  1  0  0  0  0
 36 35  2  0  0  0  0
 37 35  1  6  0  0  0
 37 46  1  0  0  0  0
 37 38  1  0  0  0  0
 38 39  1  1  0  0  0
 40 38  1  0  0  0  0
 41 40  1  0  0  0  0
 42 41  1  0  0  0  0
 43 42  1  0  0  0  0
 44 43  1  0  0  0  0
 44 45  1  0  0  0  0
 49 47  1  6  0  0  0
 49 50  1  0  0  0  0
 49 51  1  0  0  0  0
 50 51  1  0  0  0  0
 50 48  1  1  0  0  0
 51 46  1  6  0  0  0
 51 54  1  0  0  0  0
 52 54  1  0  0  0  0
 52 55  1  0  0  0  0
 53 56  1  0  0  0  0
 54 53  1  0  0  0  0
 55 56  1  0  0  0  0
M  END
>  <MODEL>
5

>  <REMARK>
 VINA RESULT:      -5.0      3.037      8.316
  Name = 
  24 active torsions:
  status: ('A' for Active; 'I' for Inactive)
    1  A    between atoms: C_6  and  C_16
    2  A    between atoms: C_6  and  C_34
    3  A    between atoms: C_7  and  C_36
    4  A    between atoms: C_7  and  C_49
    5  A    between atoms: C_8  and  C_9
    6  A    between atoms: C_8  and  C_45
    7  A    between atoms: C_9  and  C_27
    8  A    between atoms: C_10  and  C_14
    9  A    between atoms: C_10  and  O_15
   10  A    between atoms: C_10  and  C_37
   11  A    between atoms: O_11  and  C_19
   12  A    between atoms: O_11  and  C_28
   13  A    between atoms: O_15  and  N_38
   14  A    between atoms: C_16  and  C_53
   15  A    between atoms: C_20  and  C_26
   16  A    between atoms: C_22  and  C_39
   17  A    between atoms: C_22  and  C_50
   18  A    between atoms: C_27  and  C_44
   19  A    between atoms: C_27  and  C_48
   20  A    between atoms: C_28  and  C_45
   21  A    between atoms: C_34  and  C_50
   22  A    between atoms: C_37  and  C_53
   23  A    between atoms: C_44  and  C_47
   24  A    between atoms: C_47  and  N_52
                            x       y       z     vdW  Elec       q    Type
                         _______ _______ _______ _____ _____    ______ ____

>  <TORSDO>
F 24

$$$$
=
 OpenBabel11062416553D

 56 61  0  0  1  0  0  0  0  0999 V2000
  189.0530  179.0960  138.4110 N   0  0  0  0  0  2  0  0  0  0  0  0
  186.5120  176.7020  136.2330 C   0  0  0  0  0  0  0  0  0  0  0  0
  187.4170  177.3710  136.8960 C   0  0  0  0  0  0  0  0  0  0  0  0
  188.5960  177.8820  139.0120 C   0  0  0  0  0  0  0  0  0  0  0  0
  188.7510  177.7030  140.2470 O   0  0  0  0  0  0  0  0  0  0  0  0
  185.6070  176.0230  135.5810 C   0  0  0  0  0  3  0  0  0  0  0  0
  187.9890  176.7980  138.1680 C   0  0  2  0  0  3  0  0  0  0  0  0
  188.7500  179.4080  137.0440 C   0  0  0  0  0  3  0  0  0  0  0  0
  187.9650  178.6090  136.3190 C   0  0  0  0  0  3  0  0  0  0  0  0
  189.0680  175.7670  137.8500 C   0  0  0  0  0  2  0  0  0  0  0  0
  190.4230  176.4280  137.6350 C   0  0  0  0  0  2  0  0  0  0  0  0
  191.4240  176.0010  138.7000 C   0  0  0  0  0  2  0  0  0  0  0  0
  192.5160  177.0440  138.8690 C   0  0  2  0  0  3  0  0  0  0  0  0
  193.5770  176.7290  138.0200 O   0  0  0  0  0  1  0  0  0  0  0  0
  193.0080  177.0570  140.3100 C   0  0  0  0  0  2  0  0  0  0  0  0
  191.9840  177.6890  141.2460 C   0  0  0  0  0  2  0  0  0  0  0  0
  191.4400  176.6920  142.2620 C   0  0  0  0  0  2  0  0  0  0  0  0
  190.3920  177.3340  143.1720 C   0  0  2  0  0  3  0  0  0  0  0  0
  190.4470  178.8570  143.1530 C   0  0  0  0  0  2  0  0  0  0  0  0
  191.6670  179.4680  144.3520 S   0  0  0  0  0  1  0  0  0  0  0  0
  190.4010  176.7970  144.4790 O   0  0  0  0  0  0  0  0  0  0  0  0
  188.2390  175.9850  142.7380 O   0  0  0  0  0  0  0  0  0  0  0  0
  188.4370  177.1920  145.9490 C   0  0  2  0  0  0  0  0  0  0  0  0
  186.7780  176.8720  144.4660 C   0  0  2  0  0  3  0  0  0  0  0  0
  187.0460  177.3740  145.7650 O   0  0  0  0  0  0  0  0  0  0  0  0
  188.9420  176.9560  147.3510 C   0  0  1  0  0  3  0  0  0  0  0  0
  189.1810  178.2960  146.6600 C   0  0  2  0  0  3  0  0  0  0  0  0
  188.0740  176.4120  143.9100 C   0  0  0  0  0  0  0  0  0  0  0  0
  189.1110  176.5400  144.8440 N   0  0  0  0  0  0  0  0  0  0  0  0
  188.8280  178.2510  148.1350 C   0  0  0  0  0  2  0  0  0  0  0  0
  186.9090  178.6710  142.8800 O   0  0  0  0  0  0  0  0  0  0  0  0
  186.1780  177.9410  143.6030 C   0  0  0  0  0  0  0  0  0  0  0  0
  184.7980  178.0930  143.5570 O   0  0  0  0  0  1  0  0  0  0  0  0
  184.2750  176.6180  135.2790 C   0  0  0  0  0  2  0  0  0  0  0  0
  182.4600  177.6130  136.6640 C   0  0  0  0  0  3  0  0  0  0  0  0
  183.7630  177.3900  136.4580 C   0  0  0  0  0  3  0  0  0  0  0  0
  181.3820  177.1240  135.7360 C   0  0  2  0  0  3  0  0  0  0  0  0
  180.8230  178.2650  134.8720 C   0  0  1  0  0  3  0  0  0  0  0  0
  179.4670  178.0680  134.6000 O   0  0  0  0  0  1  0  0  0  0  0  0
  181.0980  179.6790  135.4040 C   0  0  0  0  0  2  0  0  0  0  0  0
  179.9700  180.2400  136.2580 C   0  0  0  0  0  2  0  0  0  0  0  0
  180.4120  181.5140  136.9520 C   0  0  0  0  0  2  0  0  0  0  0  0
  180.7380  182.4750  135.9970 O   0  0  0  0  0  0  0  0  0  0  0  0
  180.1470  183.6480  136.4630 C   0  0  0  0  0  2  0  0  0  0  0  0
  181.1730  184.7610  136.4710 C   0  0  0  0  0  1  0  0  0  0  0  0
  180.2880  176.3840  136.5050 C   0  0  0  0  0  2  0  0  0  0  0  0
  179.5280  174.2870  134.8610 O   0  0  0  0  0  1  0  0  0  0  0  0
  182.5510  173.4070  136.4510 O   0  0  0  0  0  1  0  0  0  0  0  0
  180.2560  173.8140  135.9530 C   0  0  1  0  0  3  0  0  0  0  0  0
  181.6890  174.3330  135.8610 C   0  0  1  0  0  3  0  0  0  0  0  0
  180.7120  174.9590  136.8630 C   0  0  1  0  0  0  0  0  0  0  0  0
  179.7480  173.9180  138.8260 C   0  0  0  0  0  2  0  0  0  0  0  0
  181.0570  175.8500  139.1620 C   0  0  0  0  0  2  0  0  0  0  0  0
  180.8860  174.6710  138.3080 N   0  0  0  0  0  0  0  0  0  0  0  0
  179.5610  174.3330  140.2650 C   0  0  0  0  0  2  0  0  0  0  0  0
  180.0810  175.7440  140.3130 C   0  0  0  0  0  2  0  0  0  0  0  0
  1  4  1  0  0  0  0
  2  3  2  0  0  0  0
  3  7  1  0  0  0  0
  4  5  2  0  0  0  0
  6  2  2  0  0  0  0
  7 10  1  6  0  0  0
  7  4  1  0  0  0  0
  8  1  1  0  0  0  0
  9  3  1  0  0  0  0
  9  8  2  0  0  0  0
 11 10  1  0  0  0  0
 11 12  1  0  0  0  0
 12 13  1  0  0  0  0
 13 14  1  6  0  0  0
 13 15  1  0  0  0  0
 15 16  1  0  0  0  0
 16 17  1  0  0  0  0
 18 17  1  6  0  0  0
 18 21  1  0  0  0  0
 19 18  1  0  0  0  0
 19 20  1  0  0  0  0
 21 29  1  0  0  0  0
 22 28  2  0  0  0  0
 23 25  1  6  0  0  0
 23 27  1  0  0  0  0
 23 26  1  0  0  0  0
 24 32  1  6  0  0  0
 24 25  1  0  0  0  0
 26 30  1  1  0  0  0
 27 26  1  0  0  0  0
 27 30  1  1  0  0  0
 28 24  1  0  0  0  0
 28 29  1  0  0  0  0
 29 23  1  0  0  0  0
 31 32  2  0  0  0  0
 33 32  1  0  0  0  0
 34  6  1  0  0  0  0
 34 36  1  0  0  0  0
 36 35  2  0  0  0  0
 37 46  1  1  0  0  0
 37 35  1  0  0  0  0
 38 39  1  1  0  0  0
 38 40  1  0  0  0  0
 38 37  1  0  0  0  0
 40 41  1  0  0  0  0
 41 42  1  0  0  0  0
 43 44  1  0  0  0  0
 43 42  1  0  0  0  0
 44 45  1  0  0  0  0
 49 47  1  6  0  0  0
 49 51  1  0  0  0  0
 50 49  1  0  0  0  0
 50 48  1  1  0  0  0
 50 51  1  0  0  0  0
 51 46  1  6  0  0  0
 51 54  1  0  0  0  0
 52 55  1  0  0  0  0
 53 56  1  0  0  0  0
 54 52  1  0  0  0  0
 54 53  1  0  0  0  0
 55 56  1  0  0  0  0
M  END
>  <MODEL>
6

>  <REMARK>
 VINA RESULT:      -4.8      3.256      8.979
  Name = 
  24 active torsions:
  status: ('A' for Active; 'I' for Inactive)
    1  A    between atoms: C_6  and  C_16
    2  A    between atoms: C_6  and  C_34
    3  A    between atoms: C_7  and  C_36
    4  A    between atoms: C_7  and  C_49
    5  A    between atoms: C_8  and  C_9
    6  A    between atoms: C_8  and  C_45
    7  A    between atoms: C_9  and  C_27
    8  A    between atoms: C_10  and  C_14
    9  A    between atoms: C_10  and  O_15
   10  A    between atoms: C_10  and  C_37
   11  A    between atoms: O_11  and  C_19
   12  A    between atoms: O_11  and  C_28
   13  A    between atoms: O_15  and  N_38
   14  A    between atoms: C_16  and  C_53
   15  A    between atoms: C_20  and  C_26
   16  A    between atoms: C_22  and  C_39
   17  A    between atoms: C_22  and  C_50
   18  A    between atoms: C_27  and  C_44
   19  A    between atoms: C_27  and  C_48
   20  A    between atoms: C_28  and  C_45
   21  A    between atoms: C_34  and  C_50
   22  A    between atoms: C_37  and  C_53
   23  A    between atoms: C_44  and  C_47
   24  A    between atoms: C_47  and  N_52
                            x       y       z     vdW  Elec       q    Type
                         _______ _______ _______ _____ _____    ______ ____

>  <TORSDO>
F 24

$$$$
=
 OpenBabel11062416553D

 56 61  0  0  1  0  0  0  0  0999 V2000
  187.4110  178.2070  147.7570 N   0  0  0  0  0  2  0  0  0  0  0  0
  185.2280  178.3730  144.2730 C   0  0  0  0  0  0  0  0  0  0  0  0
  186.0210  178.3850  145.3110 C   0  0  0  0  0  0  0  0  0  0  0  0
  187.7650  177.3090  146.7000 C   0  0  0  0  0  0  0  0  0  0  0  0
  188.5270  176.3380  146.9380 O   0  0  0  0  0  0  0  0  0  0  0  0
  184.4440  178.3510  143.2290 C   0  0  0  0  0  3  0  0  0  0  0  0
  187.2800  177.5570  145.3000 C   0  0  2  0  0  3  0  0  0  0  0  0
  186.4210  179.2260  147.5650 C   0  0  0  0  0  3  0  0  0  0  0  0
  185.7430  179.3140  146.4190 C   0  0  0  0  0  3  0  0  0  0  0  0
  188.3820  178.2730  144.5230 C   0  0  0  0  0  2  0  0  0  0  0  0
  189.7190  178.1880  145.2490 C   0  0  0  0  0  2  0  0  0  0  0  0
  190.8330  177.7440  144.3110 C   0  0  0  0  0  2  0  0  0  0  0  0
  190.5900  176.3300  143.8090 C   0  0  2  0  0  3  0  0  0  0  0  0
  191.8210  175.7040  143.6120 O   0  0  0  0  0  1  0  0  0  0  0  0
  189.8250  176.3660  142.4930 C   0  0  0  0  0  2  0  0  0  0  0  0
  190.5800  177.1520  141.4270 C   0  0  0  0  0  2  0  0  0  0  0  0
  190.5610  176.4520  140.0740 C   0  0  0  0  0  2  0  0  0  0  0  0
  190.1330  177.4030  138.9560 C   0  0  2  0  0  3  0  0  0  0  0  0
  188.6210  177.4550  138.7720 C   0  0  0  0  0  2  0  0  0  0  0  0
  188.1800  178.5860  137.4210 S   0  0  0  0  0  1  0  0  0  0  0  0
  190.8290  177.1760  137.7480 O   0  0  0  0  0  0  0  0  0  0  0  0
  193.5940  176.8950  138.5460 O   0  0  0  0  0  0  0  0  0  0  0  0
  191.2800  174.8280  137.0700 C   0  0  2  0  0  0  0  0  0  0  0  0
  193.5040  174.7560  137.3950 C   0  0  2  0  0  3  0  0  0  0  0  0
  192.4290  174.0490  136.7980 O   0  0  0  0  0  0  0  0  0  0  0  0
  189.9580  174.1160  137.2150 C   0  0  1  0  0  3  0  0  0  0  0  0
  190.2570  174.9420  135.9660 C   0  0  2  0  0  3  0  0  0  0  0  0
  192.9240  175.9790  138.0020 C   0  0  0  0  0  0  0  0  0  0  0  0
  191.5290  176.0110  137.8700 N   0  0  0  0  0  0  0  0  0  0  0  0
  189.5170  173.6220  135.8490 C   0  0  0  0  0  2  0  0  0  0  0  0
  195.7290  175.3360  136.7010 O   0  0  0  0  0  1  0  0  0  0  0  0
  194.5350  175.1120  136.3650 C   0  0  0  0  0  0  0  0  0  0  0  0
  194.1820  175.1400  135.0220 O   0  0  0  0  0  0  0  0  0  0  0  0
  183.0110  177.9640  143.3570 C   0  0  0  0  0  2  0  0  0  0  0  0
  181.2290  179.5940  142.7500 C   0  0  0  0  0  3  0  0  0  0  0  0
  182.1600  179.1710  143.6130 C   0  0  0  0  0  3  0  0  0  0  0  0
  180.9480  178.9120  141.4390 C   0  0  2  0  0  3  0  0  0  0  0  0
  180.1110  177.6380  141.6360 C   0  0  1  0  0  3  0  0  0  0  0  0
  179.6810  177.5220  142.9600 O   0  0  0  0  0  1  0  0  0  0  0  0
  178.9530  177.4610  140.6430 C   0  0  0  0  0  2  0  0  0  0  0  0
  179.0830  176.2200  139.7710 C   0  0  0  0  0  2  0  0  0  0  0  0
  180.4910  175.6620  139.8450 C   0  0  0  0  0  2  0  0  0  0  0  0
  180.7850  174.9800  138.6670 O   0  0  0  0  0  0  0  0  0  0  0  0
  179.7960  175.3850  137.7710 C   0  0  0  0  0  2  0  0  0  0  0  0
  180.1450  174.8970  136.3820 C   0  0  0  0  0  1  0  0  0  0  0  0
  182.2410  178.6460  140.6690 C   0  0  0  0  0  2  0  0  0  0  0  0
  184.5550  179.7690  139.6380 O   0  0  0  0  0  1  0  0  0  0  0  0
  182.5700  178.6520  136.9440 O   0  0  0  0  0  1  0  0  0  0  0  0
  183.4970  179.9160  138.7400 C   0  0  1  0  0  3  0  0  0  0  0  0
  183.0680  178.5370  138.2440 C   0  0  1  0  0  3  0  0  0  0  0  0
  182.2120  179.2780  139.2770 C   0  0  1  0  0  0  0  0  0  0  0  0
  180.7050  179.6580  137.4190 C   0  0  0  0  0  2  0  0  0  0  0  0
  180.7550  181.2910  139.1180 C   0  0  0  0  0  2  0  0  0  0  0  0
  180.9160  179.8590  138.8490 N   0  0  0  0  0  0  0  0  0  0  0  0
  179.9150  180.8410  136.9160 C   0  0  0  0  0  2  0  0  0  0  0  0
  180.3030  181.9630  137.8400 C   0  0  0  0  0  2  0  0  0  0  0  0
  2  3  2  0  0  0  0
  3  9  1  0  0  0  0
  4  5  2  0  0  0  0
  4  1  1  0  0  0  0
  6 34  1  0  0  0  0
  6  2  2  0  0  0  0
  7 10  1  6  0  0  0
  7  3  1  0  0  0  0
  7  4  1  0  0  0  0
  8  1  1  0  0  0  0
  9  8  2  0  0  0  0
 10 11  1  0  0  0  0
 12 11  1  0  0  0  0
 13 14  1  6  0  0  0
 13 12  1  0  0  0  0
 15 13  1  0  0  0  0
 16 15  1  0  0  0  0
 17 16  1  0  0  0  0
 18 19  1  6  0  0  0
 18 17  1  0  0  0  0
 20 19  1  0  0  0  0
 21 29  1  0  0  0  0
 21 18  1  0  0  0  0
 23 25  1  6  0  0  0
 23 26  1  0  0  0  0
 23 29  1  0  0  0  0
 24 32  1  6  0  0  0
 24 28  1  0  0  0  0
 25 24  1  0  0  0  0
 26 30  1  6  0  0  0
 27 30  1  6  0  0  0
 27 23  1  0  0  0  0
 27 26  1  0  0  0  0
 28 22  2  0  0  0  0
 29 28  1  0  0  0  0
 32 31  1  0  0  0  0
 33 32  2  0  0  0  0
 34 36  1  0  0  0  0
 35 36  2  0  0  0  0
 37 46  1  1  0  0  0
 37 38  1  0  0  0  0
 37 35  1  0  0  0  0
 38 39  1  1  0  0  0
 40 38  1  0  0  0  0
 41 42  1  0  0  0  0
 41 40  1  0  0  0  0
 43 42  1  0  0  0  0
 44 43  1  0  0  0  0
 45 44  1  0  0  0  0
 49 51  1  0  0  0  0
 49 47  1  1  0  0  0
 50 48  1  6  0  0  0
 50 49  1  0  0  0  0
 50 51  1  0  0  0  0
 51 46  1  1  0  0  0
 52 54  1  0  0  0  0
 54 53  1  0  0  0  0
 54 51  1  0  0  0  0
 55 52  1  0  0  0  0
 55 56  1  0  0  0  0
 56 53  1  0  0  0  0
M  END
>  <MODEL>
7

>  <REMARK>
 VINA RESULT:      -4.6      2.801      9.575
  Name = 
  24 active torsions:
  status: ('A' for Active; 'I' for Inactive)
    1  A    between atoms: C_6  and  C_16
    2  A    between atoms: C_6  and  C_34
    3  A    between atoms: C_7  and  C_36
    4  A    between atoms: C_7  and  C_49
    5  A    between atoms: C_8  and  C_9
    6  A    between atoms: C_8  and  C_45
    7  A    between atoms: C_9  and  C_27
    8  A    between atoms: C_10  and  C_14
    9  A    between atoms: C_10  and  O_15
   10  A    between atoms: C_10  and  C_37
   11  A    between atoms: O_11  and  C_19
   12  A    between atoms: O_11  and  C_28
   13  A    between atoms: O_15  and  N_38
   14  A    between atoms: C_16  and  C_53
   15  A    between atoms: C_20  and  C_26
   16  A    between atoms: C_22  and  C_39
   17  A    between atoms: C_22  and  C_50
   18  A    between atoms: C_27  and  C_44
   19  A    between atoms: C_27  and  C_48
   20  A    between atoms: C_28  and  C_45
   21  A    between atoms: C_34  and  C_50
   22  A    between atoms: C_37  and  C_53
   23  A    between atoms: C_44  and  C_47
   24  A    between atoms: C_47  and  N_52
                            x       y       z     vdW  Elec       q    Type
                         _______ _______ _______ _____ _____    ______ ____

>  <TORSDO>
F 24

$$$$
=
 OpenBabel11062416553D

 56 61  0  0  1  0  0  0  0  0999 V2000
  187.6490  178.1380  137.0970 N   0  0  0  0  0  0  0  0  0  0  0  0
  190.2390  177.2730  140.1750 C   0  0  0  0  0  0  0  0  0  0  0  0
  189.4580  177.4310  139.1400 C   0  0  0  0  0  0  0  0  0  0  0  0
  189.0480  178.3340  136.8710 C   0  0  0  0  0  0  0  0  0  0  0  0
  189.4300  178.9970  135.8730 O   0  0  0  0  0  0  0  0  0  0  0  0
  191.0310  177.1180  141.2010 C   0  0  0  0  0  3  0  0  0  0  0  0
  190.0590  177.7020  137.7840 C   0  0  2  0  0  3  0  0  0  0  0  0
  187.1690  177.5320  138.3040 C   0  0  0  0  0  3  0  0  0  0  0  0
  188.0110  177.2050  139.2870 C   0  0  0  0  0  2  0  0  0  0  0  0
  190.5440  176.4020  137.1470 C   0  0  0  0  0  2  0  0  0  0  0  0
  189.6990  175.2160  137.5910 C   0  0  0  0  0  2  0  0  0  0  0  0
  188.9140  174.6260  136.4270 C   0  0  0  0  0  2  0  0  0  0  0  0
  187.5350  174.1720  136.8750 C   0  0  2  0  0  3  0  0  0  0  0  0
  187.4510  172.7860  136.7430 O   0  0  0  0  0  1  0  0  0  0  0  0
  186.4630  174.8280  136.0150 C   0  0  0  0  0  2  0  0  0  0  0  0
  185.1400  174.9450  136.7620 C   0  0  0  0  0  2  0  0  0  0  0  0
  183.9570  174.4910  135.9140 C   0  0  0  0  0  2  0  0  0  0  0  0
  182.7000  174.3010  136.7620 C   0  0  2  0  0  3  0  0  0  0  0  0
  181.4160  174.4470  135.9550 C   0  0  0  0  0  2  0  0  0  0  0  0
  180.5550  172.8530  135.8290 S   0  0  0  0  0  1  0  0  0  0  0  0
  182.7060  175.0890  137.9350 O   0  0  0  0  0  0  0  0  0  0  0  0
  182.8790  177.7380  136.7880 O   0  0  0  0  0  0  0  0  0  0  0  0
  180.6100  176.1120  138.7910 C   0  0  2  0  0  0  0  0  0  0  0  0
  180.9410  178.2460  138.1640 C   0  0  2  0  0  3  0  0  0  0  0  0
  180.1210  177.4260  138.9800 O   0  0  0  0  0  0  0  0  0  0  0  0
  179.6350  174.9680  138.9120 C   0  0  1  0  0  3  0  0  0  0  0  0
  180.6650  175.2240  140.0100 C   0  0  2  0  0  3  0  0  0  0  0  0
  181.9300  177.3500  137.5160 C   0  0  0  0  0  0  0  0  0  0  0  0
  181.7000  176.0050  137.8410 N   0  0  0  0  0  0  0  0  0  0  0  0
  179.2510  174.8060  140.3730 C   0  0  0  0  0  2  0  0  0  0  0  0
  182.7180  179.8010  138.6090 O   0  0  0  0  0  0  0  0  0  0  0  0
  181.6320  179.2890  138.9920 C   0  0  0  0  0  0  0  0  0  0  0  0
  181.0400  179.7330  140.1680 O   0  0  0  0  0  1  0  0  0  0  0  0
  190.8940  177.9800  142.4090 C   0  0  0  0  0  2  0  0  0  0  0  0
  190.8970  176.8830  144.6440 C   0  0  0  0  0  3  0  0  0  0  0  0
  191.5720  177.3480  143.5870 C   0  0  0  0  0  3  0  0  0  0  0  0
  189.3990  176.9540  144.7630 C   0  0  2  0  0  3  0  0  0  0  0  0
  188.7200  176.8410  143.3890 C   0  0  1  0  0  3  0  0  0  0  0  0
  188.6800  175.5130  142.9580 O   0  0  0  0  0  1  0  0  0  0  0  0
  187.3440  177.5150  143.2860 C   0  0  0  0  0  2  0  0  0  0  0  0
  187.2730  178.5960  142.2170 C   0  0  0  0  0  2  0  0  0  0  0  0
  185.8690  179.1620  142.1250 C   0  0  0  0  0  2  0  0  0  0  0  0
  185.2450  178.6740  140.9790 O   0  0  0  0  0  0  0  0  0  0  0  0
  184.0540  178.1140  141.4390 C   0  0  0  0  0  2  0  0  0  0  0  0
  183.5010  178.9610  142.5650 C   0  0  0  0  0  1  0  0  0  0  0  0
  188.9670  178.2050  145.5270 C   0  0  0  0  0  2  0  0  0  0  0  0
  190.1690  176.2650  147.0970 O   0  0  0  0  0  1  0  0  0  0  0  0
  188.5190  178.5440  149.2240 O   0  0  0  0  0  1  0  0  0  0  0  0
  189.0260  176.7630  147.7230 C   0  0  1  0  0  3  0  0  0  0  0  0
  189.2500  178.2310  148.0760 C   0  0  1  0  0  3  0  0  0  0  0  0
  188.3590  177.8580  146.8860 C   0  0  1  0  0  0  0  0  0  0  0  0
  186.1870  177.1470  146.0840 C   0  0  0  0  0  2  0  0  0  0  0  0
  186.4000  179.3910  146.7740 C   0  0  0  0  0  2  0  0  0  0  0  0
  186.8900  178.0300  147.0090 N   0  0  0  0  0  0  0  0  0  0  0  0
  184.9230  177.8580  145.6670 C   0  0  0  0  0  2  0  0  0  0  0  0
  185.2700  179.3190  145.7710 C   0  0  0  0  0  2  0  0  0  0  0  0
  1  8  2  0  0  0  0
  2  6  2  0  0  0  0
  3  9  1  0  0  0  0
  3  2  2  0  0  0  0
  4  1  1  0  0  0  0
  4  7  1  0  0  0  0
  5  4  2  0  0  0  0
  6 34  1  0  0  0  0
  7 10  1  6  0  0  0
  7  3  1  0  0  0  0
  8  9  1  0  0  0  0
 10 11  1  0  0  0  0
 12 13  1  0  0  0  0
 12 11  1  0  0  0  0
 13 14  1  6  0  0  0
 15 16  1  0  0  0  0
 15 13  1  0  0  0  0
 17 16  1  0  0  0  0
 18 17  1  6  0  0  0
 18 21  1  0  0  0  0
 19 18  1  0  0  0  0
 20 19  1  0  0  0  0
 22 28  2  0  0  0  0
 23 26  1  0  0  0  0
 23 25  1  1  0  0  0
 23 27  1  0  0  0  0
 24 25  1  0  0  0  0
 24 32  1  1  0  0  0
 26 27  1  0  0  0  0
 26 30  1  1  0  0  0
 27 30  1  1  0  0  0
 28 29  1  0  0  0  0
 28 24  1  0  0  0  0
 29 21  1  0  0  0  0
 29 23  1  0  0  0  0
 31 32  2  0  0  0  0
 32 33  1  0  0  0  0
 34 36  1  0  0  0  0
 36 35  2  0  0  0  0
 37 35  1  6  0  0  0
 37 46  1  0  0  0  0
 38 39  1  1  0  0  0
 38 37  1  0  0  0  0
 40 38  1  0  0  0  0
 41 40  1  0  0  0  0
 42 41  1  0  0  0  0
 43 44  1  0  0  0  0
 43 42  1  0  0  0  0
 44 45  1  0  0  0  0
 49 47  1  6  0  0  0
 49 50  1  0  0  0  0
 50 48  1  1  0  0  0
 51 46  1  6  0  0  0
 51 54  1  0  0  0  0
 51 49  1  0  0  0  0
 51 50  1  0  0  0  0
 52 54  1  0  0  0  0
 53 54  1  0  0  0  0
 55 56  1  0  0  0  0
 55 52  1  0  0  0  0
 56 53  1  0  0  0  0
M  END
>  <MODEL>
8

>  <REMARK>
 VINA RESULT:      -4.4      2.856      8.253
  Name = 
  24 active torsions:
  status: ('A' for Active; 'I' for Inactive)
    1  A    between atoms: C_6  and  C_16
    2  A    between atoms: C_6  and  C_34
    3  A    between atoms: C_7  and  C_36
    4  A    between atoms: C_7  and  C_49
    5  A    between atoms: C_8  and  C_9
    6  A    between atoms: C_8  and  C_45
    7  A    between atoms: C_9  and  C_27
    8  A    between atoms: C_10  and  C_14
    9  A    between atoms: C_10  and  O_15
   10  A    between atoms: C_10  and  C_37
   11  A    between atoms: O_11  and  C_19
   12  A    between atoms: O_11  and  C_28
   13  A    between atoms: O_15  and  N_38
   14  A    between atoms: C_16  and  C_53
   15  A    between atoms: C_20  and  C_26
   16  A    between atoms: C_22  and  C_39
   17  A    between atoms: C_22  and  C_50
   18  A    between atoms: C_27  and  C_44
   19  A    between atoms: C_27  and  C_48
   20  A    between atoms: C_28  and  C_45
   21  A    between atoms: C_34  and  C_50
   22  A    between atoms: C_37  and  C_53
   23  A    between atoms: C_44  and  C_47
   24  A    between atoms: C_47  and  N_52
                            x       y       z     vdW  Elec       q    Type
                         _______ _______ _______ _____ _____    ______ ____

>  <TORSDO>
F 24

$$$$
=
 OpenBabel11062416553D

 56 61  0  0  1  0  0  0  0  0999 V2000
  190.9450  177.1010  144.1070 N   0  0  0  0  0  2  0  0  0  0  0  0
  189.5420  177.2770  140.2430 C   0  0  0  0  0  0  0  0  0  0  0  0
  189.8600  177.2490  141.5090 C   0  0  0  0  0  0  0  0  0  0  0  0
  190.6740  178.3900  143.5500 C   0  0  0  0  0  0  0  0  0  0  0  0
  191.1060  179.4200  144.1270 O   0  0  0  0  0  0  0  0  0  0  0  0
  189.2230  177.3190  138.9780 C   0  0  0  0  0  3  0  0  0  0  0  0
  189.8260  178.5210  142.3180 C   0  0  2  0  0  3  0  0  0  0  0  0
  190.6120  175.9010  143.3970 C   0  0  0  0  0  3  0  0  0  0  0  0
  190.1120  175.9540  142.1610 C   0  0  0  0  0  3  0  0  0  0  0  0
  188.3960  178.8440  142.7430 C   0  0  0  0  0  2  0  0  0  0  0  0
  187.5850  177.5760  142.9760 C   0  0  0  0  0  2  0  0  0  0  0  0
  186.3520  177.8530  143.8260 C   0  0  0  0  0  2  0  0  0  0  0  0
  185.3560  178.7200  143.0740 C   0  0  2  0  0  3  0  0  0  0  0  0
  184.9130  179.7360  143.9210 O   0  0  0  0  0  1  0  0  0  0  0  0
  184.1670  177.8810  142.6250 C   0  0  0  0  0  2  0  0  0  0  0  0
  183.3710  178.5810  141.5290 C   0  0  0  0  0  2  0  0  0  0  0  0
  184.1940  178.7880  140.2630 C   0  0  0  0  0  2  0  0  0  0  0  0
  183.4120  179.5690  139.2070 C   0  0  2  0  0  3  0  0  0  0  0  0
  181.9990  179.9200  139.6580 C   0  0  0  0  0  2  0  0  0  0  0  0
  181.1720  180.9590  138.4190 S   0  0  0  0  0  1  0  0  0  0  0  0
  183.4490  178.9560  137.9340 O   0  0  0  0  0  0  0  0  0  0  0  0
  186.3240  179.0580  137.6400 O   0  0  0  0  0  0  0  0  0  0  0  0
  183.9730  176.5530  137.5870 C   0  0  2  0  0  0  0  0  0  0  0  0
  186.1470  176.7110  137.0350 C   0  0  2  0  0  3  0  0  0  0  0  0
  185.0500  175.8130  137.0420 O   0  0  0  0  0  0  0  0  0  0  0  0
  182.9180  175.8040  138.3610 C   0  0  1  0  0  3  0  0  0  0  0  0
  182.6160  176.3380  136.9630 C   0  0  2  0  0  3  0  0  0  0  0  0
  185.6490  177.9980  137.5790 C   0  0  0  0  0  0  0  0  0  0  0  0
  184.3130  177.9020  137.9920 N   0  0  0  0  0  0  0  0  0  0  0  0
  182.0930  174.9780  137.3890 C   0  0  0  0  0  2  0  0  0  0  0  0
  185.9040  177.2520  134.7070 O   0  0  0  0  0  0  0  0  0  0  0  0
  186.6700  176.8900  135.6400 C   0  0  0  0  0  0  0  0  0  0  0  0
  188.0230  176.7090  135.3860 O   0  0  0  0  0  1  0  0  0  0  0  0
  190.1720  176.8390  137.9340 C   0  0  0  0  0  2  0  0  0  0  0  0
  191.3570  174.6810  137.5600 C   0  0  0  0  0  3  0  0  0  0  0  0
  190.8950  175.6120  138.4020 C   0  0  0  0  0  3  0  0  0  0  0  0
  191.1930  174.7650  136.0660 C   0  0  2  0  0  3  0  0  0  0  0  0
  190.1800  173.7300  135.5530 C   0  0  1  0  0  3  0  0  0  0  0  0
  190.6650  172.4300  135.7160 O   0  0  0  0  0  1  0  0  0  0  0  0
  188.7570  173.8810  136.1090 C   0  0  0  0  0  2  0  0  0  0  0  0
  187.6980  173.1720  135.2770 C   0  0  0  0  0  2  0  0  0  0  0  0
  186.7820  172.3540  136.1660 C   0  0  0  0  0  2  0  0  0  0  0  0
  185.5410  172.2100  135.5500 O   0  0  0  0  0  0  0  0  0  0  0  0
  184.6240  172.2310  136.6000 C   0  0  0  0  0  2  0  0  0  0  0  0
  185.3200  172.6730  137.8680 C   0  0  0  0  0  1  0  0  0  0  0  0
  192.5430  174.6610  135.3580 C   0  0  0  0  0  2  0  0  0  0  0  0
  194.3380  176.6280  134.5940 O   0  0  0  0  0  1  0  0  0  0  0  0
  194.2060  176.5590  138.1180 O   0  0  0  0  0  1  0  0  0  0  0  0
  194.6960  176.0930  135.8320 C   0  0  1  0  0  3  0  0  0  0  0  0
  193.6190  176.4430  136.8560 C   0  0  1  0  0  3  0  0  0  0  0  0
  193.7010  175.0220  136.2890 C   0  0  1  0  0  0  0  0  0  0  0  0
  195.6410  174.0690  137.3830 C   0  0  0  0  0  2  0  0  0  0  0  0
  193.9690  172.5740  136.6600 C   0  0  0  0  0  2  0  0  0  0  0  0
  194.2060  173.9310  137.1600 N   0  0  0  0  0  0  0  0  0  0  0  0
  196.2040  172.6760  137.5260 C   0  0  0  0  0  2  0  0  0  0  0  0
  195.2790  171.8190  136.7050 C   0  0  0  0  0  2  0  0  0  0  0  0
  2  3  2  0  0  0  0
  3  9  1  0  0  0  0
  3  7  1  0  0  0  0
  4  1  1  0  0  0  0
  4  5  2  0  0  0  0
  6  2  2  0  0  0  0
  7 10  1  1  0  0  0
  7  4  1  0  0  0  0
  8  1  1  0  0  0  0
  9  8  2  0  0  0  0
 10 11  1  0  0  0  0
 11 12  1  0  0  0  0
 13 12  1  0  0  0  0
 13 14  1  1  0  0  0
 15 13  1  0  0  0  0
 16 15  1  0  0  0  0
 17 16  1  0  0  0  0
 18 19  1  1  0  0  0
 18 17  1  0  0  0  0
 20 19  1  0  0  0  0
 21 29  1  0  0  0  0
 21 18  1  0  0  0  0
 23 25  1  6  0  0  0
 23 29  1  0  0  0  0
 23 26  1  0  0  0  0
 24 32  1  6  0  0  0
 24 25  1  0  0  0  0
 24 28  1  0  0  0  0
 26 30  1  6  0  0  0
 27 30  1  6  0  0  0
 27 23  1  0  0  0  0
 27 26  1  0  0  0  0
 28 22  2  0  0  0  0
 28 29  1  0  0  0  0
 31 32  2  0  0  0  0
 33 32  1  0  0  0  0
 34 36  1  0  0  0  0
 34  6  1  0  0  0  0
 35 36  2  0  0  0  0
 37 46  1  6  0  0  0
 37 35  1  0  0  0  0
 38 39  1  1  0  0  0
 38 37  1  0  0  0  0
 38 40  1  0  0  0  0
 41 40  1  0  0  0  0
 41 42  1  0  0  0  0
 43 42  1  0  0  0  0
 43 44  1  0  0  0  0
 44 45  1  0  0  0  0
 49 47  1  6  0  0  0
 49 51  1  0  0  0  0
 49 50  1  0  0  0  0
 50 48  1  1  0  0  0
 51 46  1  6  0  0  0
 51 50  1  0  0  0  0
 51 54  1  0  0  0  0
 52 55  1  0  0  0  0
 53 56  1  0  0  0  0
 53 54  1  0  0  0  0
 54 52  1  0  0  0  0
 56 55  1  0  0  0  0
M  END
>  <MODEL>
9

>  <REMARK>
 VINA RESULT:      -4.3      2.254      5.566
  Name = 
  24 active torsions:
  status: ('A' for Active; 'I' for Inactive)
    1  A    between atoms: C_6  and  C_16
    2  A    between atoms: C_6  and  C_34
    3  A    between atoms: C_7  and  C_36
    4  A    between atoms: C_7  and  C_49
    5  A    between atoms: C_8  and  C_9
    6  A    between atoms: C_8  and  C_45
    7  A    between atoms: C_9  and  C_27
    8  A    between atoms: C_10  and  C_14
    9  A    between atoms: C_10  and  O_15
   10  A    between atoms: C_10  and  C_37
   11  A    between atoms: O_11  and  C_19
   12  A    between atoms: O_11  and  C_28
   13  A    between atoms: O_15  and  N_38
   14  A    between atoms: C_16  and  C_53
   15  A    between atoms: C_20  and  C_26
   16  A    between atoms: C_22  and  C_39
   17  A    between atoms: C_22  and  C_50
   18  A    between atoms: C_27  and  C_44
   19  A    between atoms: C_27  and  C_48
   20  A    between atoms: C_28  and  C_45
   21  A    between atoms: C_34  and  C_50
   22  A    between atoms: C_37  and  C_53
   23  A    between atoms: C_44  and  C_47
   24  A    between atoms: C_47  and  N_52
                            x       y       z     vdW  Elec       q    Type
                         _______ _______ _______ _____ _____    ______ ____

>  <TORSDO>
F 24

$$$$
