=
 OpenBabel11062418153D

 59 65  0  0  1  0  0  0  0  0999 V2000
  188.4950  177.9780  140.2160 C   0  0  0  0  0  0  0  0  0  0  0  0
  185.8450  178.6730  140.3070 N   0  0  0  0  0  0  0  0  0  0  0  0
  187.8860  178.2600  141.3990 N   0  0  0  0  0  0  0  0  0  0  0  0
  186.5750  178.6030  141.4490 C   0  0  0  0  0  3  0  0  0  0  0  0
  186.4060  178.4160  139.0940 C   0  0  0  0  0  0  0  0  0  0  0  0
  187.7620  178.0510  139.0210 C   0  0  0  0  0  0  0  0  0  0  0  0
  189.8780  177.6180  140.1910 N   0  0  0  0  0  2  0  0  0  0  0  0
  188.5500  177.6740  137.4430 S   0  0  0  0  0  0  0  0  0  0  0  0
  188.0280  175.9330  137.4910 C   0  0  2  0  0  3  0  0  0  0  0  0
  194.6110  176.6310  135.0980 C   0  0  0  0  0  1  0  0  0  0  0  0
  191.2510  175.5480  136.2870 C   0  0  0  0  0  0  0  0  0  0  0  0
  192.2830  175.9170  135.5220 C   0  0  0  0  0  3  0  0  0  0  0  0
  189.4270  176.0140  134.5990 C   0  0  0  0  0  1  0  0  0  0  0  0
  191.3310  174.8680  137.5930 C   0  0  1  0  0  3  0  0  0  0  0  0
  194.1160  175.6420  137.3420 C   0  0  0  0  0  2  0  0  0  0  0  0
  191.9690  175.7590  138.6700 C   0  0  0  0  0  2  0  0  0  0  0  0
  190.0000  174.5650  137.9710 O   0  0  0  0  0  0  0  0  0  0  0  0
  189.1330  175.0350  136.9400 C   0  0  2  0  0  3  0  0  0  0  0  0
  193.2180  176.5170  138.2100 C   0  0  0  0  0  2  0  0  0  0  0  0
  193.7330  175.6510  135.8520 C   0  0  2  0  0  3  0  0  0  0  0  0
  189.9100  175.7340  135.9400 N   0  0  0  0  0  0  0  0  0  0  0  0
  186.7180  175.7540  136.7370 C   0  0  0  0  0  2  0  0  0  0  0  0
  184.5370  172.7290  137.7240 C   0  0  0  0  0  2  0  0  0  0  0  0
  185.0070  174.1830  137.6020 C   0  0  0  0  0  2  0  0  0  0  0  0
  186.2860  174.3020  136.7790 C   0  0  1  0  0  3  0  0  0  0  0  0
  186.0380  173.7880  135.3450 C   0  0  2  0  0  3  0  0  0  0  0  0
  184.9560  171.8400  136.5470 C   0  0  0  0  0  2  0  0  0  0  0  0
  185.0360  172.6220  135.2380 C   0  0  0  0  0  2  0  0  0  0  0  0
  187.2170  173.5890  134.5950 O   0  0  0  0  0  0  0  0  0  0  0  0
  187.8600  172.4340  135.0650 C   0  0  0  0  0  1  0  0  0  0  0  0
  190.6980  177.6090  141.3910 C   0  0  0  0  0  2  0  0  0  0  0  0
  190.2390  176.4860  142.3070 C   0  0  0  0  0  2  0  0  0  0  0  0
  190.5450  176.7640  143.7810 C   0  0  1  0  0  3  0  0  0  0  0  0
  191.9120  176.2390  144.2130 C   0  0  0  0  0  3  0  0  0  0  0  0
  191.8180  175.6620  145.6140 C   0  0  0  0  0  2  0  0  0  0  0  0
  191.8380  174.7380  144.4160 C   0  0  0  0  0  2  0  0  0  0  0  0
  190.2980  178.2220  144.1880 C   0  0  0  0  0  2  0  0  0  0  0  0
  189.6120  178.3300  145.4710 N   0  0  0  0  0  2  0  0  0  0  0  0
  188.5270  177.4390  145.4460 N   0  0  0  0  0  0  0  0  0  0  0  0
  188.5790  176.7520  146.6140 O   0  0  0  0  0  1  0  0  0  0  0  0
  186.8630  178.5300  146.8690 C   0  0  0  0  0  3  0  0  0  0  0  0
  184.5590  178.5830  146.1860 N   0  0  0  0  0  2  0  0  0  0  0  0
  185.5790  178.7190  147.1830 C   0  0  0  0  0  3  0  0  0  0  0  0
  184.8880  178.3190  144.7870 C   0  0  0  0  0  2  0  0  0  0  0  0
  186.1690  177.4940  144.7050 C   0  0  0  0  0  2  0  0  0  0  0  0
  187.2920  178.2280  145.4520 C   0  0  2  0  0  3  0  0  0  0  0  0
  185.5510  178.4790  137.8670 C   0  0  0  0  0  2  0  0  0  0  0  0
  184.1470  178.3430  138.2260 N   0  0  0  0  0  2  0  0  0  0  0  0
  183.5050  177.5970  137.1590 C   0  0  0  0  0  2  0  0  0  0  0  0
  182.4130  176.7130  137.7280 C   0  0  0  0  0  2  0  0  0  0  0  0
  181.1810  177.4780  137.8200 N   0  0  0  0  0  2  0  0  0  0  0  0
  179.4540  178.5310  138.9450 O   0  0  0  0  0  0  0  0  0  0  0  0
  180.5630  177.9410  139.0280 C   0  0  0  0  0  0  0  0  0  0  0  0
  181.1260  177.7660  140.3000 O   0  0  0  0  0  0  0  0  0  0  0  0
  181.0770  178.7250  141.3450 C   0  0  0  0  0  2  0  0  0  0  0  0
  179.4880  179.4790  143.2040 C   0  0  1  0  0  3  0  0  0  0  0  0
  180.5380  178.5370  143.7570 C   0  0  0  0  0  2  0  0  0  0  0  0
  180.0840  180.6990  142.8650 O   0  0  0  0  0  1  0  0  0  0  0  0
  180.0110  178.3210  142.3540 C   0  0  2  0  0  3  0  0  0  0  0  0
  1  3  2  0  0  0  0
  2  4  2  0  0  0  0
  3  4  1  0  0  0  0
  5  2  1  0  0  0  0
  6  5  2  0  0  0  0
  6  1  1  0  0  0  0
  7  1  1  0  0  0  0
  7 31  1  0  0  0  0
  8  9  1  0  0  0  0
  8  6  1  0  0  0  0
  9 22  1  6  0  0  0
 11 14  1  0  0  0  0
 12 20  1  0  0  0  0
 12 11  2  0  0  0  0
 13 21  1  0  0  0  0
 14 17  1  0  0  0  0
 14 16  1  1  0  0  0
 15 19  1  0  0  0  0
 18  9  1  1  0  0  0
 18 17  1  0  0  0  0
 19 16  1  0  0  0  0
 20 10  1  6  0  0  0
 20 15  1  0  0  0  0
 21 11  1  0  0  0  0
 21 18  1  0  0  0  0
 24 23  1  0  0  0  0
 25 22  1  6  0  0  0
 25 24  1  0  0  0  0
 26 29  1  1  0  0  0
 26 25  1  0  0  0  0
 27 23  1  0  0  0  0
 28 26  1  0  0  0  0
 28 27  1  0  0  0  0
 29 30  1  0  0  0  0
 31 32  1  0  0  0  0
 33 32  1  6  0  0  0
 33 37  1  0  0  0  0
 33 34  1  0  0  0  0
 34 36  1  0  0  0  0
 34 35  1  0  0  0  0
 36 35  1  0  0  0  0
 37 38  1  0  0  0  0
 39 38  1  0  0  0  0
 39 40  1  0  0  0  0
 41 43  2  0  0  0  0
 42 43  1  0  0  0  0
 44 42  1  0  0  0  0
 45 44  1  0  0  0  0
 45 46  1  0  0  0  0
 46 39  1  1  0  0  0
 46 41  1  0  0  0  0
 47 48  1  0  0  0  0
 47  5  1  0  0  0  0
 49 50  1  0  0  0  0
 49 48  1  0  0  0  0
 50 51  1  0  0  0  0
 51 53  1  0  0  0  0
 52 53  2  0  0  0  0
 53 54  1  0  0  0  0
 54 55  1  0  0  0  0
 56 58  1  6  0  0  0
 56 57  1  0  0  0  0
 59 55  1  6  0  0  0
 59 56  1  0  0  0  0
 59 57  1  0  0  0  0
M  END
>  <MODEL>
1

>  <REMARK>
 VINA RESULT:      -6.9      0.000      0.000
  Name = 
  22 active torsions:
  status: ('A' for Active; 'I' for Inactive)
    1  A    between atoms: N_3  and  C_10
    2  A    between atoms: N_3  and  C_35
    3  A    between atoms: C_6  and  O_18
    4  A    between atoms: C_6  and  C_59
    5  A    between atoms: C_8  and  C_30
    6  A    between atoms: C_8  and  C_57
    7  A    between atoms: C_9  and  N_12
    8  A    between atoms: C_9  and  C_35
    9  A    between atoms: C_10  and  C_48
   10  A    between atoms: O_13  and  C_36
   11  A    between atoms: N_16  and  N_28
   12  A    between atoms: N_16  and  C_54
   13  A    between atoms: O_18  and  C_58
   14  A    between atoms: C_21  and  C_41
   15  A    between atoms: C_26  and  C_57
   16  A    between atoms: N_28  and  C_56
   17  A    between atoms: C_30  and  N_55
   18  A    between atoms: C_33  and  S_34
   19  A    between atoms: C_33  and  C_41
   20  A    between atoms: C_33  and  C_47
   21  A    between atoms: S_34  and  C_53
   22  A    between atoms: C_54  and  C_57
                            x       y       z     vdW  Elec       q    Type
                         _______ _______ _______ _____ _____    ______ ____

>  <TORSDO>
F 22

$$$$
=
 OpenBabel11062418153D

 59 65  0  0  1  0  0  0  0  0999 V2000
  184.2550  176.5310  137.3760 C   0  0  0  0  0  0  0  0  0  0  0  0
  182.2030  175.0720  136.2920 N   0  0  0  0  0  0  0  0  0  0  0  0
  184.3040  176.1070  136.0840 N   0  0  0  0  0  0  0  0  0  0  0  0
  183.2900  175.3870  135.5430 C   0  0  0  0  0  3  0  0  0  0  0  0
  182.1080  175.4570  137.5940 C   0  0  0  0  0  0  0  0  0  0  0  0
  183.1440  176.2110  138.1720 C   0  0  0  0  0  0  0  0  0  0  0  0
  185.3370  177.2900  137.9220 N   0  0  0  0  0  2  0  0  0  0  0  0
  183.0580  176.7690  139.8850 S   0  0  0  0  0  0  0  0  0  0  0  0
  182.7580  178.4970  139.4060 C   0  0  2  0  0  3  0  0  0  0  0  0
  184.4440  178.0230  146.2240 C   0  0  0  0  0  1  0  0  0  0  0  0
  183.7260  178.9770  142.6960 C   0  0  0  0  0  0  0  0  0  0  0  0
  183.6230  178.7450  144.0080 C   0  0  0  0  0  3  0  0  0  0  0  0
  181.2490  179.0400  142.1910 C   0  0  0  0  0  1  0  0  0  0  0  0
  184.9610  179.3130  141.9630 C   0  0  1  0  0  3  0  0  0  0  0  0
  186.1650  178.4640  144.4630 C   0  0  0  0  0  2  0  0  0  0  0  0
  185.9670  178.1520  141.9620 C   0  0  0  0  0  2  0  0  0  0  0  0
  184.5740  179.5910  140.6290 O   0  0  0  0  0  0  0  0  0  0  0  0
  183.1580  179.4360  140.5410 C   0  0  2  0  0  3  0  0  0  0  0  0
  186.1370  177.4570  143.3170 C   0  0  0  0  0  2  0  0  0  0  0  0
  184.7680  178.8380  144.9880 C   0  0  2  0  0  3  0  0  0  0  0  0
  182.6480  178.9580  141.8070 N   0  0  0  0  0  0  0  0  0  0  0  0
  181.3040  178.6840  138.9950 C   0  0  0  0  0  2  0  0  0  0  0  0
  180.8220  180.2480  135.5010 C   0  0  0  0  0  2  0  0  0  0  0  0
  180.9040  179.1820  136.6000 C   0  0  0  0  0  2  0  0  0  0  0  0
  181.1920  179.7930  137.9680 C   0  0  1  0  0  3  0  0  0  0  0  0
  180.0560  180.7600  138.3620 C   0  0  2  0  0  3  0  0  0  0  0  0
  180.3720  181.6250  136.0040 C   0  0  0  0  0  2  0  0  0  0  0  0
  179.4110  181.5180  137.1860 C   0  0  0  0  0  2  0  0  0  0  0  0
  180.3620  181.5860  139.4650 O   0  0  0  0  0  0  0  0  0  0  0  0
  179.2510  181.6260  140.3200 C   0  0  0  0  0  1  0  0  0  0  0  0
  186.5430  177.5750  137.1630 C   0  0  0  0  0  2  0  0  0  0  0  0
  187.4800  176.3800  137.2360 C   0  0  0  0  0  2  0  0  0  0  0  0
  188.8620  176.7460  137.7830 C   0  0  1  0  0  3  0  0  0  0  0  0
  189.8510  177.1340  136.6870 C   0  0  0  0  0  3  0  0  0  0  0  0
  191.1270  176.3270  136.8430 C   0  0  0  0  0  2  0  0  0  0  0  0
  190.1110  175.9370  135.7920 C   0  0  0  0  0  2  0  0  0  0  0  0
  188.8100  177.7520  138.9390 C   0  0  0  0  0  2  0  0  0  0  0  0
  189.8820  177.5410  139.9060 N   0  0  0  0  0  2  0  0  0  0  0  0
  189.6670  178.4270  140.9740 N   0  0  0  0  0  0  0  0  0  0  0  0
  188.3800  178.8420  140.8640 O   0  0  0  0  0  1  0  0  0  0  0  0
  190.5570  178.4540  143.2530 C   0  0  0  0  0  3  0  0  0  0  0  0
  191.3480  176.4160  144.2500 N   0  0  0  0  0  2  0  0  0  0  0  0
  191.2620  177.8450  144.2090 C   0  0  0  0  0  3  0  0  0  0  0  0
  190.6070  175.5780  143.3090 C   0  0  0  0  0  2  0  0  0  0  0  0
  190.4530  176.3090  141.9780 C   0  0  0  0  0  2  0  0  0  0  0  0
  189.7810  177.6680  142.2230 C   0  0  2  0  0  3  0  0  0  0  0  0
  180.8750  175.1080  138.3690 C   0  0  0  0  0  2  0  0  0  0  0  0
  179.7010  175.2020  137.5140 N   0  0  0  0  0  2  0  0  0  0  0  0
  178.9310  173.9880  137.7140 C   0  0  0  0  0  2  0  0  0  0  0  0
  179.8490  172.8500  138.1110 C   0  0  0  0  0  2  0  0  0  0  0  0
  179.6180  171.7200  137.2260 N   0  0  0  0  0  2  0  0  0  0  0  0
  180.1570  170.2690  135.5050 O   0  0  0  0  0  0  0  0  0  0  0  0
  180.5350  171.2140  136.2470 C   0  0  0  0  0  0  0  0  0  0  0  0
  181.8300  171.7200  136.0660 O   0  0  0  0  0  0  0  0  0  0  0  0
  182.9140  171.5040  136.9560 C   0  0  0  0  0  2  0  0  0  0  0  0
  185.3740  171.8440  136.3390 C   0  0  1  0  0  3  0  0  0  0  0  0
  184.4970  172.0030  135.1150 C   0  0  0  0  0  2  0  0  0  0  0  0
  185.1740  172.9260  137.2040 O   0  0  0  0  0  1  0  0  0  0  0  0
  184.1160  170.9910  136.1750 C   0  0  2  0  0  3  0  0  0  0  0  0
  1  7  1  0  0  0  0
  1  6  1  0  0  0  0
  2  5  1  0  0  0  0
  3  1  2  0  0  0  0
  4  3  1  0  0  0  0
  4  2  2  0  0  0  0
  5  6  2  0  0  0  0
  5 47  1  0  0  0  0
  6  8  1  0  0  0  0
  9 22  1  1  0  0  0
  9  8  1  0  0  0  0
 11 12  2  0  0  0  0
 12 20  1  0  0  0  0
 14 16  1  6  0  0  0
 14 11  1  0  0  0  0
 15 20  1  0  0  0  0
 16 19  1  0  0  0  0
 17 14  1  0  0  0  0
 18  9  1  6  0  0  0
 18 17  1  0  0  0  0
 18 21  1  0  0  0  0
 19 15  1  0  0  0  0
 20 10  1  1  0  0  0
 21 13  1  0  0  0  0
 21 11  1  0  0  0  0
 23 27  1  0  0  0  0
 23 24  1  0  0  0  0
 24 25  1  0  0  0  0
 25 26  1  0  0  0  0
 25 22  1  1  0  0  0
 26 29  1  1  0  0  0
 27 28  1  0  0  0  0
 28 26  1  0  0  0  0
 29 30  1  0  0  0  0
 31 32  1  0  0  0  0
 31  7  1  0  0  0  0
 33 32  1  6  0  0  0
 33 37  1  0  0  0  0
 34 35  1  0  0  0  0
 34 33  1  0  0  0  0
 36 34  1  0  0  0  0
 36 35  1  0  0  0  0
 37 38  1  0  0  0  0
 38 39  1  0  0  0  0
 40 39  1  0  0  0  0
 41 43  2  0  0  0  0
 43 42  1  0  0  0  0
 44 42  1  0  0  0  0
 45 46  1  0  0  0  0
 45 44  1  0  0  0  0
 46 39  1  6  0  0  0
 46 41  1  0  0  0  0
 48 49  1  0  0  0  0
 48 47  1  0  0  0  0
 49 50  1  0  0  0  0
 51 50  1  0  0  0  0
 52 53  2  0  0  0  0
 53 51  1  0  0  0  0
 54 53  1  0  0  0  0
 54 55  1  0  0  0  0
 56 58  1  1  0  0  0
 57 59  1  0  0  0  0
 57 56  1  0  0  0  0
 59 56  1  0  0  0  0
 59 55  1  1  0  0  0
M  END
>  <MODEL>
2

>  <REMARK>
 VINA RESULT:      -6.5      2.947      8.365
  Name = 
  22 active torsions:
  status: ('A' for Active; 'I' for Inactive)
    1  A    between atoms: N_3  and  C_10
    2  A    between atoms: N_3  and  C_35
    3  A    between atoms: C_6  and  O_18
    4  A    between atoms: C_6  and  C_59
    5  A    between atoms: C_8  and  C_30
    6  A    between atoms: C_8  and  C_57
    7  A    between atoms: C_9  and  N_12
    8  A    between atoms: C_9  and  C_35
    9  A    between atoms: C_10  and  C_48
   10  A    between atoms: O_13  and  C_36
   11  A    between atoms: N_16  and  N_28
   12  A    between atoms: N_16  and  C_54
   13  A    between atoms: O_18  and  C_58
   14  A    between atoms: C_21  and  C_41
   15  A    between atoms: C_26  and  C_57
   16  A    between atoms: N_28  and  C_56
   17  A    between atoms: C_30  and  N_55
   18  A    between atoms: C_33  and  S_34
   19  A    between atoms: C_33  and  C_41
   20  A    between atoms: C_33  and  C_47
   21  A    between atoms: S_34  and  C_53
   22  A    between atoms: C_54  and  C_57
                            x       y       z     vdW  Elec       q    Type
                         _______ _______ _______ _____ _____    ______ ____

>  <TORSDO>
F 22

$$$$
=
 OpenBabel11062418153D

 59 65  0  0  1  0  0  0  0  0999 V2000
  188.5190  177.9740  140.3730 C   0  0  0  0  0  0  0  0  0  0  0  0
  185.8700  178.6560  140.5530 N   0  0  0  0  0  0  0  0  0  0  0  0
  187.9410  178.2260  141.5790 N   0  0  0  0  0  0  0  0  0  0  0  0
  186.6300  178.5620  141.6730 C   0  0  0  0  0  3  0  0  0  0  0  0
  186.3990  178.4300  139.3190 C   0  0  0  0  0  0  0  0  0  0  0  0
  187.7530  178.0720  139.2010 C   0  0  0  0  0  0  0  0  0  0  0  0
  189.9020  177.6210  140.3020 N   0  0  0  0  0  2  0  0  0  0  0  0
  188.4990  177.7360  137.5930 S   0  0  0  0  0  0  0  0  0  0  0  0
  187.8580  176.0340  137.5470 C   0  0  2  0  0  3  0  0  0  0  0  0
  194.2780  176.4260  134.6880 C   0  0  0  0  0  1  0  0  0  0  0  0
  191.0120  175.5020  136.2200 C   0  0  0  0  0  0  0  0  0  0  0  0
  191.9910  175.7640  135.3500 C   0  0  0  0  0  3  0  0  0  0  0  0
  189.0850  175.7050  134.5950 C   0  0  0  0  0  1  0  0  0  0  0  0
  191.1790  175.0200  137.6040 C   0  0  1  0  0  3  0  0  0  0  0  0
  193.9320  175.7700  137.0770 C   0  0  0  0  0  2  0  0  0  0  0  0
  191.8630  176.0640  138.5010 C   0  0  0  0  0  2  0  0  0  0  0  0
  189.8760  174.7660  138.1010 O   0  0  0  0  0  0  0  0  0  0  0  0
  188.9430  175.0740  137.0670 C   0  0  2  0  0  3  0  0  0  0  0  0
  193.0710  176.7560  137.8610 C   0  0  0  0  0  2  0  0  0  0  0  0
  193.4620  175.5600  135.6270 C   0  0  2  0  0  3  0  0  0  0  0  0
  189.6500  175.6260  135.9310 N   0  0  0  0  0  0  0  0  0  0  0  0
  186.6100  175.9660  136.6790 C   0  0  0  0  0  2  0  0  0  0  0  0
  183.7150  173.7540  137.9510 C   0  0  0  0  0  2  0  0  0  0  0  0
  184.5160  175.0150  137.6040 C   0  0  0  0  0  2  0  0  0  0  0  0
  185.8550  174.6800  136.9530 C   0  0  1  0  0  3  0  0  0  0  0  0
  185.6210  173.9170  135.6330 C   0  0  2  0  0  3  0  0  0  0  0  0
  184.0210  172.5550  137.0440 C   0  0  0  0  0  2  0  0  0  0  0  0
  184.3930  172.9870  135.6280 C   0  0  0  0  0  2  0  0  0  0  0  0
  186.7850  173.3170  135.1040 O   0  0  0  0  0  0  0  0  0  0  0  0
  187.3220  172.4510  136.0680 C   0  0  0  0  0  1  0  0  0  0  0  0
  190.7540  177.5870  141.4790 C   0  0  0  0  0  2  0  0  0  0  0  0
  190.2570  176.5130  142.4320 C   0  0  0  0  0  2  0  0  0  0  0  0
  190.4920  176.8710  143.9010 C   0  0  1  0  0  3  0  0  0  0  0  0
  191.8670  176.4400  144.4050 C   0  0  0  0  0  3  0  0  0  0  0  0
  191.7070  175.4730  145.5640 C   0  0  0  0  0  2  0  0  0  0  0  0
  192.0450  174.9500  144.1850 C   0  0  0  0  0  2  0  0  0  0  0  0
  190.1530  178.3290  144.2320 C   0  0  0  0  0  2  0  0  0  0  0  0
  188.8030  178.4770  144.7670 N   0  0  0  0  0  2  0  0  0  0  0  0
  188.6120  177.4590  145.7150 N   0  0  0  0  0  0  0  0  0  0  0  0
  189.3410  177.8180  146.8020 O   0  0  0  0  0  1  0  0  0  0  0  0
  186.3120  177.6160  144.8950 C   0  0  0  0  0  3  0  0  0  0  0  0
  184.6460  178.7290  146.2210 N   0  0  0  0  0  2  0  0  0  0  0  0
  185.1090  178.1860  144.9790 C   0  0  0  0  0  3  0  0  0  0  0  0
  185.4280  178.6050  147.4490 C   0  0  0  0  0  2  0  0  0  0  0  0
  186.9170  178.5940  147.1130 C   0  0  0  0  0  2  0  0  0  0  0  0
  187.2000  177.4670  146.1090 C   0  0  2  0  0  3  0  0  0  0  0  0
  185.5100  178.5180  138.1180 C   0  0  0  0  0  2  0  0  0  0  0  0
  184.1130  178.4830  138.5230 N   0  0  0  0  0  2  0  0  0  0  0  0
  183.3300  178.9500  137.3940 C   0  0  0  0  0  2  0  0  0  0  0  0
  181.8620  178.6480  137.6200 C   0  0  0  0  0  2  0  0  0  0  0  0
  181.3500  179.5230  138.6610 N   0  0  0  0  0  2  0  0  0  0  0  0
  180.2470  181.3930  139.4640 O   0  0  0  0  0  0  0  0  0  0  0  0
  180.5520  180.6980  138.4600 C   0  0  0  0  0  0  0  0  0  0  0  0
  180.0980  181.1180  137.2010 O   0  0  0  0  0  0  0  0  0  0  0  0
  179.7010  182.4430  136.8860 C   0  0  0  0  0  2  0  0  0  0  0  0
  181.1440  184.3910  136.0670 C   0  0  1  0  0  3  0  0  0  0  0  0
  179.9430  184.2080  135.1630 C   0  0  0  0  0  2  0  0  0  0  0  0
  180.7280  184.8840  137.3080 O   0  0  0  0  0  1  0  0  0  0  0  0
  180.5960  182.9920  135.7840 C   0  0  2  0  0  3  0  0  0  0  0  0
  1  3  2  0  0  0  0
  2  4  2  0  0  0  0
  3  4  1  0  0  0  0
  5  2  1  0  0  0  0
  6  5  2  0  0  0  0
  6  1  1  0  0  0  0
  7  1  1  0  0  0  0
  7 31  1  0  0  0  0
  8  6  1  0  0  0  0
  9 22  1  6  0  0  0
  9  8  1  0  0  0  0
 11 14  1  0  0  0  0
 12 20  1  0  0  0  0
 12 11  2  0  0  0  0
 13 21  1  0  0  0  0
 14 17  1  0  0  0  0
 14 16  1  1  0  0  0
 15 19  1  0  0  0  0
 18  9  1  1  0  0  0
 18 17  1  0  0  0  0
 19 16  1  0  0  0  0
 20 10  1  6  0  0  0
 20 15  1  0  0  0  0
 21 11  1  0  0  0  0
 21 18  1  0  0  0  0
 24 23  1  0  0  0  0
 25 22  1  6  0  0  0
 25 24  1  0  0  0  0
 26 29  1  1  0  0  0
 26 25  1  0  0  0  0
 27 23  1  0  0  0  0
 28 26  1  0  0  0  0
 28 27  1  0  0  0  0
 29 30  1  0  0  0  0
 31 32  1  0  0  0  0
 33 32  1  6  0  0  0
 33 37  1  0  0  0  0
 33 34  1  0  0  0  0
 34 35  1  0  0  0  0
 36 34  1  0  0  0  0
 36 35  1  0  0  0  0
 37 38  1  0  0  0  0
 38 39  1  0  0  0  0
 39 40  1  0  0  0  0
 41 43  2  0  0  0  0
 41 46  1  0  0  0  0
 42 44  1  0  0  0  0
 43 42  1  0  0  0  0
 45 44  1  0  0  0  0
 46 39  1  6  0  0  0
 46 45  1  0  0  0  0
 47 48  1  0  0  0  0
 47  5  1  0  0  0  0
 49 50  1  0  0  0  0
 49 48  1  0  0  0  0
 50 51  1  0  0  0  0
 53 51  1  0  0  0  0
 53 52  2  0  0  0  0
 54 53  1  0  0  0  0
 55 54  1  0  0  0  0
 56 58  1  1  0  0  0
 57 59  1  0  0  0  0
 57 56  1  0  0  0  0
 59 56  1  0  0  0  0
 59 55  1  1  0  0  0
M  END
>  <MODEL>
3

>  <REMARK>
 VINA RESULT:      -6.0      2.112      2.678
  Name = 
  22 active torsions:
  status: ('A' for Active; 'I' for Inactive)
    1  A    between atoms: N_3  and  C_10
    2  A    between atoms: N_3  and  C_35
    3  A    between atoms: C_6  and  O_18
    4  A    between atoms: C_6  and  C_59
    5  A    between atoms: C_8  and  C_30
    6  A    between atoms: C_8  and  C_57
    7  A    between atoms: C_9  and  N_12
    8  A    between atoms: C_9  and  C_35
    9  A    between atoms: C_10  and  C_48
   10  A    between atoms: O_13  and  C_36
   11  A    between atoms: N_16  and  N_28
   12  A    between atoms: N_16  and  C_54
   13  A    between atoms: O_18  and  C_58
   14  A    between atoms: C_21  and  C_41
   15  A    between atoms: C_26  and  C_57
   16  A    between atoms: N_28  and  C_56
   17  A    between atoms: C_30  and  N_55
   18  A    between atoms: C_33  and  S_34
   19  A    between atoms: C_33  and  C_41
   20  A    between atoms: C_33  and  C_47
   21  A    between atoms: S_34  and  C_53
   22  A    between atoms: C_54  and  C_57
                            x       y       z     vdW  Elec       q    Type
                         _______ _______ _______ _____ _____    ______ ____

>  <TORSDO>
F 22

$$$$
=
 OpenBabel11062418153D

 59 65  0  0  1  0  0  0  0  0999 V2000
  185.1960  177.4450  137.6920 C   0  0  0  0  0  0  0  0  0  0  0  0
  183.1630  176.7050  136.0090 N   0  0  0  0  0  0  0  0  0  0  0  0
  185.3790  177.4140  136.3440 N   0  0  0  0  0  0  0  0  0  0  0  0
  184.3760  177.0500  135.5070 C   0  0  0  0  0  3  0  0  0  0  0  0
  182.9270  176.7030  137.3490 C   0  0  0  0  0  0  0  0  0  0  0  0
  183.9520  177.0850  138.2340 C   0  0  0  0  0  0  0  0  0  0  0  0
  186.2700  177.8330  138.5520 N   0  0  0  0  0  2  0  0  0  0  0  0
  183.6860  177.1250  140.0170 S   0  0  0  0  0  0  0  0  0  0  0  0
  183.1780  178.8710  139.9960 C   0  0  2  0  0  3  0  0  0  0  0  0
  186.0220  177.3150  146.2440 C   0  0  0  0  0  1  0  0  0  0  0  0
  184.7250  178.8190  143.0930 C   0  0  0  0  0  0  0  0  0  0  0  0
  184.8470  178.3830  144.3510 C   0  0  0  0  0  3  0  0  0  0  0  0
  182.2010  178.9720  143.0570 C   0  0  0  0  0  1  0  0  0  0  0  0
  185.8220  179.2620  142.2120 C   0  0  1  0  0  3  0  0  0  0  0  0
  187.4190  178.0220  144.2940 C   0  0  0  0  0  2  0  0  0  0  0  0
  186.7740  178.1100  141.8510 C   0  0  0  0  0  2  0  0  0  0  0  0
  185.2150  179.7490  141.0280 O   0  0  0  0  0  0  0  0  0  0  0  0
  183.8020  179.6170  141.1720 C   0  0  2  0  0  3  0  0  0  0  0  0
  187.1570  177.2090  143.0290 C   0  0  0  0  0  2  0  0  0  0  0  0
  186.1500  178.3140  145.1120 C   0  0  2  0  0  3  0  0  0  0  0  0
  183.5070  178.9460  142.4200 N   0  0  0  0  0  0  0  0  0  0  0  0
  181.6590  178.9770  139.9940 C   0  0  0  0  0  2  0  0  0  0  0  0
  180.7510  181.4720  137.1960 C   0  0  0  0  0  2  0  0  0  0  0  0
  181.1390  180.1540  137.8760 C   0  0  0  0  0  2  0  0  0  0  0  0
  181.2300  180.3000  139.3920 C   0  0  1  0  0  3  0  0  0  0  0  0
  179.8580  180.7160  139.9640 C   0  0  2  0  0  3  0  0  0  0  0  0
  179.9150  182.4060  138.0800 C   0  0  0  0  0  2  0  0  0  0  0  0
  179.0230  181.6310  139.0480 C   0  0  0  0  0  2  0  0  0  0  0  0
  179.9040  181.1510  141.3060 O   0  0  0  0  0  0  0  0  0  0  0  0
  178.9310  180.4560  142.0380 C   0  0  0  0  0  1  0  0  0  0  0  0
  187.5980  178.1340  138.0450 C   0  0  0  0  0  2  0  0  0  0  0  0
  188.3940  176.8460  137.9160 C   0  0  0  0  0  2  0  0  0  0  0  0
  189.8960  177.0550  138.1240 C   0  0  1  0  0  3  0  0  0  0  0  0
  190.4110  176.4210  139.4130 C   0  0  0  0  0  3  0  0  0  0  0  0
  191.2770  177.4180  140.1610 C   0  0  0  0  0  2  0  0  0  0  0  0
  189.8520  177.1720  140.6060 C   0  0  0  0  0  2  0  0  0  0  0  0
  190.7350  176.6940  136.8920 C   0  0  0  0  0  2  0  0  0  0  0  0
  191.6800  175.6160  137.1620 N   0  0  0  0  0  2  0  0  0  0  0  0
  192.9470  176.0520  136.7420 N   0  0  0  0  0  0  0  0  0  0  0  0
  193.4000  176.8810  137.7150 O   0  0  0  0  0  1  0  0  0  0  0  0
  194.6120  174.7710  137.9970 C   0  0  0  0  0  3  0  0  0  0  0  0
  196.4400  173.7290  136.8360 N   0  0  0  0  0  2  0  0  0  0  0  0
  195.8180  174.2000  138.0370 C   0  0  0  0  0  3  0  0  0  0  0  0
  195.7500  173.7780  135.5490 C   0  0  0  0  0  2  0  0  0  0  0  0
  194.8040  174.9750  135.5150 C   0  0  0  0  0  2  0  0  0  0  0  0
  193.8370  174.8880  136.7050 C   0  0  2  0  0  3  0  0  0  0  0  0
  181.5630  176.3420  137.8490 C   0  0  0  0  0  2  0  0  0  0  0  0
  180.5580  176.6730  136.8500 N   0  0  0  0  0  2  0  0  0  0  0  0
  179.5440  175.6360  136.9070 C   0  0  0  0  0  2  0  0  0  0  0  0
  179.7350  174.7910  138.1500 C   0  0  0  0  0  2  0  0  0  0  0  0
  179.3070  173.4300  137.8710 N   0  0  0  0  0  2  0  0  0  0  0  0
  179.5360  171.3100  136.9680 O   0  0  0  0  0  0  0  0  0  0  0  0
  180.0770  172.4240  137.1980 C   0  0  0  0  0  0  0  0  0  0  0  0
  181.4010  172.6170  136.7770 O   0  0  0  0  0  0  0  0  0  0  0  0
  182.3430  171.5770  136.5690 C   0  0  0  0  0  2  0  0  0  0  0  0
  184.4270  172.8540  135.8130 C   0  0  1  0  0  3  0  0  0  0  0  0
  184.7590  171.3950  136.0460 C   0  0  0  0  0  2  0  0  0  0  0  0
  183.6230  172.9780  134.6750 O   0  0  0  0  0  1  0  0  0  0  0  0
  183.7350  172.0740  136.9310 C   0  0  2  0  0  3  0  0  0  0  0  0
  1  6  1  0  0  0  0
  1  7  1  0  0  0  0
  2  5  1  0  0  0  0
  3  1  2  0  0  0  0
  4  2  2  0  0  0  0
  4  3  1  0  0  0  0
  5 47  1  0  0  0  0
  5  6  2  0  0  0  0
  6  8  1  0  0  0  0
  9 22  1  1  0  0  0
  9  8  1  0  0  0  0
 11 12  2  0  0  0  0
 12 20  1  0  0  0  0
 14 16  1  6  0  0  0
 14 11  1  0  0  0  0
 15 20  1  0  0  0  0
 16 19  1  0  0  0  0
 17 18  1  0  0  0  0
 17 14  1  0  0  0  0
 18  9  1  6  0  0  0
 18 21  1  0  0  0  0
 19 15  1  0  0  0  0
 20 10  1  1  0  0  0
 21 13  1  0  0  0  0
 21 11  1  0  0  0  0
 23 24  1  0  0  0  0
 23 27  1  0  0  0  0
 24 25  1  0  0  0  0
 25 26  1  0  0  0  0
 25 22  1  1  0  0  0
 26 29  1  1  0  0  0
 27 28  1  0  0  0  0
 28 26  1  0  0  0  0
 29 30  1  0  0  0  0
 31  7  1  0  0  0  0
 32 31  1  0  0  0  0
 32 33  1  0  0  0  0
 33 37  1  6  0  0  0
 33 34  1  0  0  0  0
 34 35  1  0  0  0  0
 34 36  1  0  0  0  0
 35 36  1  0  0  0  0
 37 38  1  0  0  0  0
 39 38  1  0  0  0  0
 39 40  1  0  0  0  0
 41 43  2  0  0  0  0
 42 43  1  0  0  0  0
 44 42  1  0  0  0  0
 45 44  1  0  0  0  0
 45 46  1  0  0  0  0
 46 39  1  1  0  0  0
 46 41  1  0  0  0  0
 48 49  1  0  0  0  0
 48 47  1  0  0  0  0
 49 50  1  0  0  0  0
 51 50  1  0  0  0  0
 52 53  2  0  0  0  0
 53 51  1  0  0  0  0
 54 53  1  0  0  0  0
 55 54  1  0  0  0  0
 56 58  1  6  0  0  0
 56 57  1  0  0  0  0
 56 59  1  0  0  0  0
 57 59  1  0  0  0  0
 59 55  1  6  0  0  0
M  END
>  <MODEL>
4

>  <REMARK>
 VINA RESULT:      -5.9      2.891      9.051
  Name = 
  22 active torsions:
  status: ('A' for Active; 'I' for Inactive)
    1  A    between atoms: N_3  and  C_10
    2  A    between atoms: N_3  and  C_35
    3  A    between atoms: C_6  and  O_18
    4  A    between atoms: C_6  and  C_59
    5  A    between atoms: C_8  and  C_30
    6  A    between atoms: C_8  and  C_57
    7  A    between atoms: C_9  and  N_12
    8  A    between atoms: C_9  and  C_35
    9  A    between atoms: C_10  and  C_48
   10  A    between atoms: O_13  and  C_36
   11  A    between atoms: N_16  and  N_28
   12  A    between atoms: N_16  and  C_54
   13  A    between atoms: O_18  and  C_58
   14  A    between atoms: C_21  and  C_41
   15  A    between atoms: C_26  and  C_57
   16  A    between atoms: N_28  and  C_56
   17  A    between atoms: C_30  and  N_55
   18  A    between atoms: C_33  and  S_34
   19  A    between atoms: C_33  and  C_41
   20  A    between atoms: C_33  and  C_47
   21  A    between atoms: S_34  and  C_53
   22  A    between atoms: C_54  and  C_57
                            x       y       z     vdW  Elec       q    Type
                         _______ _______ _______ _____ _____    ______ ____

>  <TORSDO>
F 22

$$$$
=
 OpenBabel11062418153D

 59 65  0  0  1  0  0  0  0  0999 V2000
  182.9470  176.8410  137.8750 C   0  0  0  0  0  0  0  0  0  0  0  0
  182.3250  176.5570  140.5300 N   0  0  0  0  0  0  0  0  0  0  0  0
  182.1820  175.8020  138.3080 N   0  0  0  0  0  0  0  0  0  0  0  0
  181.8700  175.6580  139.6200 C   0  0  0  0  0  3  0  0  0  0  0  0
  183.1060  177.6060  140.1560 C   0  0  0  0  0  0  0  0  0  0  0  0
  183.4340  177.7780  138.8000 C   0  0  0  0  0  0  0  0  0  0  0  0
  183.2600  176.9700  136.4870 N   0  0  0  0  0  2  0  0  0  0  0  0
  184.4440  179.1660  138.2460 S   0  0  0  0  0  0  0  0  0  0  0  0
  185.9500  178.1520  138.1430 C   0  0  2  0  0  3  0  0  0  0  0  0
  191.3390  176.6250  142.4050 C   0  0  0  0  0  1  0  0  0  0  0  0
  188.7980  178.0900  140.1100 C   0  0  0  0  0  0  0  0  0  0  0  0
  189.4810  177.7170  141.1960 C   0  0  0  0  0  3  0  0  0  0  0  0
  186.5970  178.5530  141.2650 C   0  0  0  0  0  1  0  0  0  0  0  0
  189.3600  178.3410  138.7690 C   0  0  1  0  0  3  0  0  0  0  0  0
  191.6620  177.0370  139.9590 C   0  0  0  0  0  2  0  0  0  0  0  0
  189.9190  177.0620  138.1280 C   0  0  0  0  0  2  0  0  0  0  0  0
  188.2940  178.8300  137.9720 O   0  0  0  0  0  0  0  0  0  0  0  0
  187.1240  178.8820  138.7870 C   0  0  2  0  0  3  0  0  0  0  0  0
  190.7540  176.1910  139.0730 C   0  0  0  0  0  2  0  0  0  0  0  0
  190.9800  177.5330  141.2460 C   0  0  2  0  0  3  0  0  0  0  0  0
  187.4210  178.3280  140.0900 N   0  0  0  0  0  0  0  0  0  0  0  0
  186.2340  177.7780  136.6950 C   0  0  0  0  0  2  0  0  0  0  0  0
  186.7970  174.0030  137.2600 C   0  0  0  0  0  2  0  0  0  0  0  0
  186.0950  175.3660  137.2490 C   0  0  0  0  0  2  0  0  0  0  0  0
  186.9690  176.4540  136.6330 C   0  0  1  0  0  3  0  0  0  0  0  0
  187.2920  176.1010  135.1650 C   0  0  2  0  0  3  0  0  0  0  0  0
  187.8280  173.8260  136.1380 C   0  0  0  0  0  2  0  0  0  0  0  0
  187.4400  174.5950  134.8770 C   0  0  0  0  0  2  0  0  0  0  0  0
  188.3180  176.8880  134.5990 O   0  0  0  0  0  0  0  0  0  0  0  0
  189.5400  176.2210  134.7660 C   0  0  0  0  0  1  0  0  0  0  0  0
  182.8480  175.9810  135.5050 C   0  0  0  0  0  2  0  0  0  0  0  0
  181.7460  176.5610  134.6350 C   0  0  0  0  0  2  0  0  0  0  0  0
  180.4340  176.7610  135.3970 C   0  0  1  0  0  3  0  0  0  0  0  0
  179.9050  178.1900  135.3040 C   0  0  0  0  0  3  0  0  0  0  0  0
  180.2610  178.9490  136.5700 C   0  0  0  0  0  2  0  0  0  0  0  0
  181.0680  179.1630  135.3070 C   0  0  0  0  0  2  0  0  0  0  0  0
  179.3760  175.6990  135.0720 C   0  0  0  0  0  2  0  0  0  0  0  0
  179.9710  174.4280  134.6740 N   0  0  0  0  0  2  0  0  0  0  0  0
  180.2210  173.6940  135.8440 N   0  0  0  0  0  0  0  0  0  0  0  0
  179.1000  172.9680  136.0780 O   0  0  0  0  0  1  0  0  0  0  0  0
  180.8500  171.6870  134.5940 C   0  0  0  0  0  3  0  0  0  0  0  0
  182.3830  170.1100  135.5610 N   0  0  0  0  0  2  0  0  0  0  0  0
  181.3880  170.4660  134.5940 C   0  0  0  0  0  3  0  0  0  0  0  0
  182.9030  171.0840  136.5180 C   0  0  0  0  0  2  0  0  0  0  0  0
  181.8170  172.1010  136.8590 C   0  0  0  0  0  2  0  0  0  0  0  0
  181.3080  172.7510  135.5640 C   0  0  2  0  0  3  0  0  0  0  0  0
  183.5570  178.5850  141.1950 C   0  0  0  0  0  2  0  0  0  0  0  0
  182.8880  178.3190  142.4600 N   0  0  0  0  0  2  0  0  0  0  0  0
  183.4490  179.2330  143.4390 C   0  0  0  0  0  2  0  0  0  0  0  0
  184.5950  178.5670  144.1740 C   0  0  0  0  0  2  0  0  0  0  0  0
  184.8970  179.3290  145.3750 N   0  0  0  0  0  2  0  0  0  0  0  0
  185.7740  179.6240  147.4960 O   0  0  0  0  0  0  0  0  0  0  0  0
  185.6620  178.8670  146.4960 C   0  0  0  0  0  0  0  0  0  0  0  0
  186.2880  177.6130  146.5420 O   0  0  0  0  0  0  0  0  0  0  0  0
  187.6510  177.4010  146.8760 C   0  0  0  0  0  2  0  0  0  0  0  0
  189.9280  176.9350  145.8060 C   0  0  1  0  0  3  0  0  0  0  0  0
  189.2340  178.0760  145.0920 C   0  0  0  0  0  2  0  0  0  0  0  0
  190.3240  177.3500  147.0820 O   0  0  0  0  0  1  0  0  0  0  0  0
  188.4080  176.9320  145.6410 C   0  0  2  0  0  3  0  0  0  0  0  0
  1  3  2  0  0  0  0
  1  6  1  0  0  0  0
  3  4  1  0  0  0  0
  4  2  2  0  0  0  0
  5  2  1  0  0  0  0
  5 47  1  0  0  0  0
  6  5  2  0  0  0  0
  7  1  1  0  0  0  0
  8  6  1  0  0  0  0
  9 22  1  6  0  0  0
  9  8  1  0  0  0  0
 11 12  2  0  0  0  0
 12 20  1  0  0  0  0
 14 16  1  6  0  0  0
 14 11  1  0  0  0  0
 15 20  1  0  0  0  0
 16 19  1  0  0  0  0
 17 14  1  0  0  0  0
 17 18  1  0  0  0  0
 18  9  1  6  0  0  0
 18 21  1  0  0  0  0
 19 15  1  0  0  0  0
 20 10  1  1  0  0  0
 21 11  1  0  0  0  0
 21 13  1  0  0  0  0
 24 23  1  0  0  0  0
 25 22  1  6  0  0  0
 25 24  1  0  0  0  0
 26 29  1  1  0  0  0
 26 25  1  0  0  0  0
 27 23  1  0  0  0  0
 28 26  1  0  0  0  0
 28 27  1  0  0  0  0
 29 30  1  0  0  0  0
 31  7  1  0  0  0  0
 32 31  1  0  0  0  0
 33 32  1  6  0  0  0
 34 36  1  0  0  0  0
 34 33  1  0  0  0  0
 34 35  1  0  0  0  0
 36 35  1  0  0  0  0
 37 33  1  0  0  0  0
 38 37  1  0  0  0  0
 38 39  1  0  0  0  0
 39 40  1  0  0  0  0
 41 43  2  0  0  0  0
 41 46  1  0  0  0  0
 42 44  1  0  0  0  0
 43 42  1  0  0  0  0
 44 45  1  0  0  0  0
 46 39  1  1  0  0  0
 46 45  1  0  0  0  0
 47 48  1  0  0  0  0
 48 49  1  0  0  0  0
 49 50  1  0  0  0  0
 50 51  1  0  0  0  0
 51 53  1  0  0  0  0
 53 54  1  0  0  0  0
 53 52  2  0  0  0  0
 54 55  1  0  0  0  0
 56 58  1  1  0  0  0
 57 59  1  0  0  0  0
 57 56  1  0  0  0  0
 59 56  1  0  0  0  0
 59 55  1  1  0  0  0
M  END
>  <MODEL>
5

>  <REMARK>
 VINA RESULT:      -5.6      2.901      8.834
  Name = 
  22 active torsions:
  status: ('A' for Active; 'I' for Inactive)
    1  A    between atoms: N_3  and  C_10
    2  A    between atoms: N_3  and  C_35
    3  A    between atoms: C_6  and  O_18
    4  A    between atoms: C_6  and  C_59
    5  A    between atoms: C_8  and  C_30
    6  A    between atoms: C_8  and  C_57
    7  A    between atoms: C_9  and  N_12
    8  A    between atoms: C_9  and  C_35
    9  A    between atoms: C_10  and  C_48
   10  A    between atoms: O_13  and  C_36
   11  A    between atoms: N_16  and  N_28
   12  A    between atoms: N_16  and  C_54
   13  A    between atoms: O_18  and  C_58
   14  A    between atoms: C_21  and  C_41
   15  A    between atoms: C_26  and  C_57
   16  A    between atoms: N_28  and  C_56
   17  A    between atoms: C_30  and  N_55
   18  A    between atoms: C_33  and  S_34
   19  A    between atoms: C_33  and  C_41
   20  A    between atoms: C_33  and  C_47
   21  A    between atoms: S_34  and  C_53
   22  A    between atoms: C_54  and  C_57
                            x       y       z     vdW  Elec       q    Type
                         _______ _______ _______ _____ _____    ______ ____

>  <TORSDO>
F 22

$$$$
=
 OpenBabel11062418153D

 59 65  0  0  1  0  0  0  0  0999 V2000
  184.8490  177.9940  138.8330 C   0  0  0  0  0  0  0  0  0  0  0  0
  182.4640  176.9140  139.6460 N   0  0  0  0  0  0  0  0  0  0  0  0
  184.1630  177.1310  138.0350 N   0  0  0  0  0  0  0  0  0  0  0  0
  182.9810  176.5960  138.4320 C   0  0  0  0  0  3  0  0  0  0  0  0
  183.1140  177.7590  140.4910 C   0  0  0  0  0  0  0  0  0  0  0  0
  184.3360  178.3310  140.0960 C   0  0  0  0  0  0  0  0  0  0  0  0
  186.0910  178.5440  138.3900 N   0  0  0  0  0  2  0  0  0  0  0  0
  185.2270  179.4770  141.1660 S   0  0  0  0  0  0  0  0  0  0  0  0
  186.4210  178.2090  141.6880 C   0  0  2  0  0  3  0  0  0  0  0  0
  188.0490  177.5680  148.5060 C   0  0  0  0  0  1  0  0  0  0  0  0
  186.6100  177.4990  145.0720 C   0  0  0  0  0  0  0  0  0  0  0  0
  187.2860  177.2000  146.1850 C   0  0  0  0  0  3  0  0  0  0  0  0
  187.9220  176.0170  143.4980 C   0  0  0  0  0  1  0  0  0  0  0  0
  185.3580  178.2760  144.9930 C   0  0  1  0  0  3  0  0  0  0  0  0
  186.0710  178.8930  147.7370 C   0  0  0  0  0  2  0  0  0  0  0  0
  185.5590  179.7400  145.4110 C   0  0  0  0  0  2  0  0  0  0  0  0
  184.9440  178.2340  143.6380 O   0  0  0  0  0  0  0  0  0  0  0  0
  185.8970  177.4610  142.9110 C   0  0  2  0  0  3  0  0  0  0  0  0
  186.4100  179.9300  146.6710 C   0  0  0  0  0  2  0  0  0  0  0  0
  186.8480  177.5740  147.5810 C   0  0  2  0  0  3  0  0  0  0  0  0
  186.9850  177.0880  143.7900 N   0  0  0  0  0  0  0  0  0  0  0  0
  187.7820  178.8420  141.9460 C   0  0  0  0  0  2  0  0  0  0  0  0
  190.1230  177.0810  139.4350 C   0  0  0  0  0  2  0  0  0  0  0  0
  189.0500  178.0330  139.9750 C   0  0  0  0  0  2  0  0  0  0  0  0
  188.8850  177.9090  141.4870 C   0  0  1  0  0  3  0  0  0  0  0  0
  190.2090  178.2760  142.1920 C   0  0  2  0  0  3  0  0  0  0  0  0
  191.2190  176.7390  140.4520 C   0  0  0  0  0  2  0  0  0  0  0  0
  191.4840  177.8910  141.4180 C   0  0  0  0  0  2  0  0  0  0  0  0
  190.2480  177.9200  143.5580 O   0  0  0  0  0  0  0  0  0  0  0  0
  191.5070  178.2590  144.0740 C   0  0  0  0  0  1  0  0  0  0  0  0
  186.7020  178.1620  137.1280 C   0  0  0  0  0  2  0  0  0  0  0  0
  187.2690  176.7570  137.2470 C   0  0  0  0  0  2  0  0  0  0  0  0
  187.6990  176.1760  135.8970 C   0  0  1  0  0  3  0  0  0  0  0  0
  189.2140  176.1590  135.7130 C   0  0  0  0  0  3  0  0  0  0  0  0
  189.6030  177.1080  134.5950 C   0  0  0  0  0  2  0  0  0  0  0  0
  189.7800  177.5290  136.0380 C   0  0  0  0  0  2  0  0  0  0  0  0
  187.0320  174.8330  135.5750 C   0  0  0  0  0  2  0  0  0  0  0  0
  185.6100  174.8290  135.9000 N   0  0  0  0  0  2  0  0  0  0  0  0
  185.1310  173.5270  135.6820 N   0  0  0  0  0  0  0  0  0  0  0  0
  186.0920  172.6910  136.1490 O   0  0  0  0  0  1  0  0  0  0  0  0
  183.7580  171.8770  136.8560 C   0  0  0  0  0  3  0  0  0  0  0  0
  181.3770  172.1740  136.9730 N   0  0  0  0  0  2  0  0  0  0  0  0
  182.5510  171.3620  137.0940 C   0  0  0  0  0  3  0  0  0  0  0  0
  181.4620  173.6010  136.6710 C   0  0  0  0  0  2  0  0  0  0  0  0
  182.6860  173.8720  135.8020 C   0  0  0  0  0  2  0  0  0  0  0  0
  183.9390  173.3370  136.5120 C   0  0  2  0  0  3  0  0  0  0  0  0
  182.4870  178.0990  141.8070 C   0  0  0  0  0  2  0  0  0  0  0  0
  181.0560  178.3090  141.6420 N   0  0  0  0  0  2  0  0  0  0  0  0
  180.8810  179.6460  141.1050 C   0  0  0  0  0  2  0  0  0  0  0  0
  179.8430  179.6300  140.0000 C   0  0  0  0  0  2  0  0  0  0  0  0
  180.5190  179.6390  138.7130 N   0  0  0  0  0  2  0  0  0  0  0  0
  180.9670  180.4560  136.5940 O   0  0  0  0  0  0  0  0  0  0  0  0
  180.3640  180.6280  137.6860 C   0  0  0  0  0  0  0  0  0  0  0  0
  179.5720  181.7760  137.8310 O   0  0  0  0  0  0  0  0  0  0  0  0
  180.0750  183.0980  137.9360 C   0  0  0  0  0  2  0  0  0  0  0  0
  180.7510  184.8370  136.1840 C   0  0  1  0  0  3  0  0  0  0  0  0
  179.6290  185.3700  137.0500 C   0  0  0  0  0  2  0  0  0  0  0  0
  181.9290  184.7580  136.9350 O   0  0  0  0  0  1  0  0  0  0  0  0
  179.6650  183.8960  136.7050 C   0  0  2  0  0  3  0  0  0  0  0  0
  1  6  1  0  0  0  0
  2  5  1  0  0  0  0
  3  4  1  0  0  0  0
  3  1  2  0  0  0  0
  4  2  2  0  0  0  0
  5 47  1  0  0  0  0
  6  5  2  0  0  0  0
  6  8  1  0  0  0  0
  7  1  1  0  0  0  0
  8  9  1  0  0  0  0
  9 22  1  1  0  0  0
 11 12  2  0  0  0  0
 12 20  1  0  0  0  0
 13 21  1  0  0  0  0
 14 11  1  0  0  0  0
 14 16  1  6  0  0  0
 16 19  1  0  0  0  0
 17 14  1  0  0  0  0
 18  9  1  6  0  0  0
 18 17  1  0  0  0  0
 18 21  1  0  0  0  0
 19 15  1  0  0  0  0
 20 15  1  0  0  0  0
 20 10  1  1  0  0  0
 21 11  1  0  0  0  0
 23 24  1  0  0  0  0
 23 27  1  0  0  0  0
 24 25  1  0  0  0  0
 25 22  1  1  0  0  0
 25 26  1  0  0  0  0
 26 29  1  1  0  0  0
 27 28  1  0  0  0  0
 28 26  1  0  0  0  0
 29 30  1  0  0  0  0
 31 32  1  0  0  0  0
 31  7  1  0  0  0  0
 33 37  1  1  0  0  0
 33 32  1  0  0  0  0
 34 33  1  0  0  0  0
 34 36  1  0  0  0  0
 35 34  1  0  0  0  0
 35 36  1  0  0  0  0
 37 38  1  0  0  0  0
 39 38  1  0  0  0  0
 39 40  1  0  0  0  0
 41 43  2  0  0  0  0
 42 43  1  0  0  0  0
 44 42  1  0  0  0  0
 45 46  1  0  0  0  0
 45 44  1  0  0  0  0
 46 39  1  6  0  0  0
 46 41  1  0  0  0  0
 48 47  1  0  0  0  0
 49 48  1  0  0  0  0
 50 49  1  0  0  0  0
 51 50  1  0  0  0  0
 52 53  2  0  0  0  0
 53 54  1  0  0  0  0
 53 51  1  0  0  0  0
 54 55  1  0  0  0  0
 56 59  1  0  0  0  0
 56 58  1  1  0  0  0
 56 57  1  0  0  0  0
 59 57  1  0  0  0  0
 59 55  1  1  0  0  0
M  END
>  <MODEL>
6

>  <REMARK>
 VINA RESULT:      -5.2      3.059      8.683
  Name = 
  22 active torsions:
  status: ('A' for Active; 'I' for Inactive)
    1  A    between atoms: N_3  and  C_10
    2  A    between atoms: N_3  and  C_35
    3  A    between atoms: C_6  and  O_18
    4  A    between atoms: C_6  and  C_59
    5  A    between atoms: C_8  and  C_30
    6  A    between atoms: C_8  and  C_57
    7  A    between atoms: C_9  and  N_12
    8  A    between atoms: C_9  and  C_35
    9  A    between atoms: C_10  and  C_48
   10  A    between atoms: O_13  and  C_36
   11  A    between atoms: N_16  and  N_28
   12  A    between atoms: N_16  and  C_54
   13  A    between atoms: O_18  and  C_58
   14  A    between atoms: C_21  and  C_41
   15  A    between atoms: C_26  and  C_57
   16  A    between atoms: N_28  and  C_56
   17  A    between atoms: C_30  and  N_55
   18  A    between atoms: C_33  and  S_34
   19  A    between atoms: C_33  and  C_41
   20  A    between atoms: C_33  and  C_47
   21  A    between atoms: S_34  and  C_53
   22  A    between atoms: C_54  and  C_57
                            x       y       z     vdW  Elec       q    Type
                         _______ _______ _______ _____ _____    ______ ____

>  <TORSDO>
F 22

$$$$
=
 OpenBabel11062418153D

 59 65  0  0  1  0  0  0  0  0999 V2000
  189.0490  177.2910  138.6060 C   0  0  0  0  0  0  0  0  0  0  0  0
  188.3420  178.9490  136.5410 N   0  0  0  0  0  0  0  0  0  0  0  0
  189.3930  178.6070  138.6150 N   0  0  0  0  0  0  0  0  0  0  0  0
  189.0440  179.4320  137.5970 C   0  0  0  0  0  3  0  0  0  0  0  0
  187.9830  177.6380  136.4710 C   0  0  0  0  0  0  0  0  0  0  0  0
  188.3290  176.7680  137.5200 C   0  0  0  0  0  0  0  0  0  0  0  0
  189.4280  176.4430  139.6920 N   0  0  0  0  0  2  0  0  0  0  0  0
  187.8560  175.0280  137.4910 S   0  0  0  0  0  0  0  0  0  0  0  0
  189.0730  174.6220  136.2020 C   0  0  2  0  0  3  0  0  0  0  0  0
  184.1460  169.6330  135.5820 C   0  0  0  0  0  1  0  0  0  0  0  0
  186.7470  172.2690  135.1820 C   0  0  0  0  0  0  0  0  0  0  0  0
  186.1170  171.0960  135.2980 C   0  0  0  0  0  3  0  0  0  0  0  0
  189.0670  171.4390  135.7530 C   0  0  0  0  0  1  0  0  0  0  0  0
  186.1760  173.5160  134.6390 C   0  0  1  0  0  3  0  0  0  0  0  0
  183.7140  172.0090  134.9280 C   0  0  0  0  0  2  0  0  0  0  0  0
  185.0500  174.0690  135.5260 C   0  0  0  0  0  2  0  0  0  0  0  0
  187.2350  174.4570  134.5950 O   0  0  0  0  0  0  0  0  0  0  0  0
  188.4120  173.8180  135.0860 C   0  0  2  0  0  3  0  0  0  0  0  0
  184.0550  173.0140  136.0220 C   0  0  0  0  0  2  0  0  0  0  0  0
  184.7020  170.8330  134.8410 C   0  0  2  0  0  3  0  0  0  0  0  0
  188.0800  172.4850  135.5420 N   0  0  0  0  0  0  0  0  0  0  0  0
  190.2590  173.8870  136.8110 C   0  0  0  0  0  2  0  0  0  0  0  0
  192.9710  176.2970  135.5000 C   0  0  0  0  0  2  0  0  0  0  0  0
  191.7140  175.8070  136.2270 C   0  0  0  0  0  2  0  0  0  0  0  0
  191.5400  174.2950  136.1110 C   0  0  1  0  0  3  0  0  0  0  0  0
  192.7430  173.5770  136.7580 C   0  0  2  0  0  3  0  0  0  0  0  0
  194.0880  175.2490  135.4150 C   0  0  0  0  0  2  0  0  0  0  0  0
  194.0890  174.3140  136.6220 C   0  0  0  0  0  2  0  0  0  0  0  0
  192.8200  172.2000  136.4540 O   0  0  0  0  0  0  0  0  0  0  0  0
  192.4560  172.0150  135.1130 C   0  0  0  0  0  1  0  0  0  0  0  0
  190.2440  176.9190  140.7970 C   0  0  0  0  0  2  0  0  0  0  0  0
  189.3430  177.3210  141.9540 C   0  0  0  0  0  2  0  0  0  0  0  0
  190.0260  177.1700  143.3150 C   0  0  1  0  0  3  0  0  0  0  0  0
  191.3650  176.4410  143.2310 C   0  0  0  0  0  3  0  0  0  0  0  0
  191.7710  175.9590  144.6110 C   0  0  0  0  0  2  0  0  0  0  0  0
  191.1740  174.9860  143.6170 C   0  0  0  0  0  2  0  0  0  0  0  0
  190.0980  178.4830  144.1060 C   0  0  0  0  0  2  0  0  0  0  0  0
  189.6850  178.3160  145.4950 N   0  0  0  0  0  2  0  0  0  0  0  0
  188.5750  177.4570  145.5040 N   0  0  0  0  0  0  0  0  0  0  0  0
  188.6080  176.8140  146.6990 O   0  0  0  0  0  1  0  0  0  0  0  0
  186.7360  178.3420  146.8540 C   0  0  0  0  0  3  0  0  0  0  0  0
  184.5580  178.6110  145.8750 N   0  0  0  0  0  2  0  0  0  0  0  0
  185.4240  178.5240  147.0130 C   0  0  0  0  0  3  0  0  0  0  0  0
  185.0840  178.5890  144.5120 C   0  0  0  0  0  2  0  0  0  0  0  0
  186.3510  177.7400  144.4610 C   0  0  0  0  0  2  0  0  0  0  0  0
  187.3630  178.2820  145.4810 C   0  0  2  0  0  3  0  0  0  0  0  0
  187.1840  177.1630  135.2970 C   0  0  0  0  0  2  0  0  0  0  0  0
  185.9060  177.8560  135.2460 N   0  0  0  0  0  2  0  0  0  0  0  0
  185.0010  177.1470  136.1330 C   0  0  0  0  0  2  0  0  0  0  0  0
  183.5650  177.5050  135.8030 C   0  0  0  0  0  2  0  0  0  0  0  0
  182.7020  176.3920  136.1650 N   0  0  0  0  0  2  0  0  0  0  0  0
  181.4070  175.1380  137.6170 O   0  0  0  0  0  0  0  0  0  0  0  0
  182.0690  176.1940  137.4370 C   0  0  0  0  0  0  0  0  0  0  0  0
  182.1540  177.1120  138.4940 O   0  0  0  0  0  0  0  0  0  0  0  0
  183.2770  177.2600  139.3470 C   0  0  0  0  0  2  0  0  0  0  0  0
  184.7180  179.0480  140.4790 C   0  0  1  0  0  3  0  0  0  0  0  0
  183.4570  178.8000  141.2810 C   0  0  0  0  0  2  0  0  0  0  0  0
  185.5630  177.9370  140.5770 O   0  0  0  0  0  1  0  0  0  0  0  0
  183.4040  178.7170  139.7700 C   0  0  2  0  0  3  0  0  0  0  0  0
  1  3  2  0  0  0  0
  1  7  1  0  0  0  0
  2  4  2  0  0  0  0
  4  3  1  0  0  0  0
  5  2  1  0  0  0  0
  5  6  2  0  0  0  0
  6  1  1  0  0  0  0
  7 31  1  0  0  0  0
  8  6  1  0  0  0  0
  9 22  1  1  0  0  0
  9  8  1  0  0  0  0
 11 12  2  0  0  0  0
 11 21  1  0  0  0  0
 14 11  1  0  0  0  0
 14 16  1  1  0  0  0
 15 19  1  0  0  0  0
 16 19  1  0  0  0  0
 17 14  1  0  0  0  0
 17 18  1  0  0  0  0
 18 21  1  0  0  0  0
 18  9  1  1  0  0  0
 20 15  1  0  0  0  0
 20 12  1  0  0  0  0
 20 10  1  1  0  0  0
 21 13  1  0  0  0  0
 23 24  1  0  0  0  0
 25 24  1  0  0  0  0
 25 26  1  0  0  0  0
 25 22  1  1  0  0  0
 26 29  1  6  0  0  0
 27 23  1  0  0  0  0
 27 28  1  0  0  0  0
 28 26  1  0  0  0  0
 30 29  1  0  0  0  0
 31 32  1  0  0  0  0
 33 32  1  6  0  0  0
 33 37  1  0  0  0  0
 34 33  1  0  0  0  0
 34 36  1  0  0  0  0
 34 35  1  0  0  0  0
 36 35  1  0  0  0  0
 37 38  1  0  0  0  0
 38 39  1  0  0  0  0
 39 40  1  0  0  0  0
 41 43  2  0  0  0  0
 42 43  1  0  0  0  0
 44 42  1  0  0  0  0
 45 44  1  0  0  0  0
 45 46  1  0  0  0  0
 46 39  1  1  0  0  0
 46 41  1  0  0  0  0
 47  5  1  0  0  0  0
 48 47  1  0  0  0  0
 48 49  1  0  0  0  0
 50 49  1  0  0  0  0
 50 51  1  0  0  0  0
 51 53  1  0  0  0  0
 53 52  2  0  0  0  0
 53 54  1  0  0  0  0
 54 55  1  0  0  0  0
 56 58  1  1  0  0  0
 56 57  1  0  0  0  0
 59 55  1  1  0  0  0
 59 56  1  0  0  0  0
 59 57  1  0  0  0  0
M  END
>  <MODEL>
7

>  <REMARK>
 VINA RESULT:      -5.1      2.136      5.037
  Name = 
  22 active torsions:
  status: ('A' for Active; 'I' for Inactive)
    1  A    between atoms: N_3  and  C_10
    2  A    between atoms: N_3  and  C_35
    3  A    between atoms: C_6  and  O_18
    4  A    between atoms: C_6  and  C_59
    5  A    between atoms: C_8  and  C_30
    6  A    between atoms: C_8  and  C_57
    7  A    between atoms: C_9  and  N_12
    8  A    between atoms: C_9  and  C_35
    9  A    between atoms: C_10  and  C_48
   10  A    between atoms: O_13  and  C_36
   11  A    between atoms: N_16  and  N_28
   12  A    between atoms: N_16  and  C_54
   13  A    between atoms: O_18  and  C_58
   14  A    between atoms: C_21  and  C_41
   15  A    between atoms: C_26  and  C_57
   16  A    between atoms: N_28  and  C_56
   17  A    between atoms: C_30  and  N_55
   18  A    between atoms: C_33  and  S_34
   19  A    between atoms: C_33  and  C_41
   20  A    between atoms: C_33  and  C_47
   21  A    between atoms: S_34  and  C_53
   22  A    between atoms: C_54  and  C_57
                            x       y       z     vdW  Elec       q    Type
                         _______ _______ _______ _____ _____    ______ ____

>  <TORSDO>
F 22

$$$$
=
 OpenBabel11062418153D

 59 65  0  0  1  0  0  0  0  0999 V2000
  187.1010  177.7000  137.7650 C   0  0  0  0  0  0  0  0  0  0  0  0
  186.2870  176.9840  135.2470 N   0  0  0  0  0  0  0  0  0  0  0  0
  187.9380  177.8180  136.6990 N   0  0  0  0  0  0  0  0  0  0  0  0
  187.5390  177.4670  135.4510 C   0  0  0  0  0  3  0  0  0  0  0  0
  185.4130  176.8300  136.2790 C   0  0  0  0  0  0  0  0  0  0  0  0
  185.8040  177.1960  137.5790 C   0  0  0  0  0  0  0  0  0  0  0  0
  187.5460  178.0780  139.0700 N   0  0  0  0  0  2  0  0  0  0  0  0
  184.6770  177.0370  138.9790 S   0  0  0  0  0  0  0  0  0  0  0  0
  183.7750  178.5550  138.5450 C   0  0  2  0  0  3  0  0  0  0  0  0
  183.4570  178.2250  145.5680 C   0  0  0  0  0  1  0  0  0  0  0  0
  183.7250  179.1130  141.9610 C   0  0  0  0  0  0  0  0  0  0  0  0
  183.2640  178.8810  143.1940 C   0  0  0  0  0  3  0  0  0  0  0  0
  181.4980  179.0100  140.7670 C   0  0  0  0  0  1  0  0  0  0  0  0
  185.0950  179.5270  141.6050 C   0  0  1  0  0  3  0  0  0  0  0  0
  185.5800  178.7710  144.3640 C   0  0  0  0  0  2  0  0  0  0  0  0
  186.1290  178.4350  141.9190 C   0  0  0  0  0  2  0  0  0  0  0  0
  185.0910  179.7730  140.2090 O   0  0  0  0  0  0  0  0  0  0  0  0
  183.7730  179.5240  139.7230 C   0  0  2  0  0  3  0  0  0  0  0  0
  185.9450  177.7590  143.2820 C   0  0  0  0  0  2  0  0  0  0  0  0
  184.0710  179.0550  144.4580 C   0  0  2  0  0  3  0  0  0  0  0  0
  182.9510  179.0190  140.8010 N   0  0  0  0  0  0  0  0  0  0  0  0
  182.3650  178.2150  138.0830 C   0  0  0  0  0  2  0  0  0  0  0  0
  180.9440  179.1180  134.6120 C   0  0  0  0  0  2  0  0  0  0  0  0
  181.3370  178.2720  135.8280 C   0  0  0  0  0  2  0  0  0  0  0  0
  181.9600  179.1170  136.9340 C   0  0  1  0  0  3  0  0  0  0  0  0
  180.9450  180.1700  137.4270 C   0  0  2  0  0  3  0  0  0  0  0  0
  180.6100  180.5760  134.9510 C   0  0  0  0  0  2  0  0  0  0  0  0
  179.9960  180.7150  136.3420 C   0  0  0  0  0  2  0  0  0  0  0  0
  181.5110  181.1770  138.2390 O   0  0  0  0  0  0  0  0  0  0  0  0
  180.6250  182.2620  138.2930 C   0  0  0  0  0  1  0  0  0  0  0  0
  188.9050  178.5270  139.3250 C   0  0  0  0  0  2  0  0  0  0  0  0
  189.8660  177.7600  138.4310 C   0  0  0  0  0  2  0  0  0  0  0  0
  190.5510  176.6000  139.1580 C   0  0  1  0  0  3  0  0  0  0  0  0
  192.0730  176.6480  139.0500 C   0  0  0  0  0  3  0  0  0  0  0  0
  192.5760  175.3880  138.3680 C   0  0  0  0  0  2  0  0  0  0  0  0
  192.4770  176.6820  137.5880 C   0  0  0  0  0  2  0  0  0  0  0  0
  190.0500  176.4030  140.5940 C   0  0  0  0  0  2  0  0  0  0  0  0
  190.7220  177.2850  141.5420 N   0  0  0  0  0  2  0  0  0  0  0  0
  189.7350  177.8510  142.3640 N   0  0  0  0  0  0  0  0  0  0  0  0
  188.6680  177.0160  142.2980 O   0  0  0  0  0  1  0  0  0  0  0  0
  191.6000  177.1990  143.8080 C   0  0  0  0  0  3  0  0  0  0  0  0
  191.1660  176.4180  146.0390 N   0  0  0  0  0  2  0  0  0  0  0  0
  192.0260  176.5670  144.9030 C   0  0  0  0  0  3  0  0  0  0  0  0
  189.8340  177.0200  146.0730 C   0  0  0  0  0  2  0  0  0  0  0  0
  189.2560  177.0720  144.6610 C   0  0  0  0  0  2  0  0  0  0  0  0
  190.2280  177.8290  143.7450 C   0  0  2  0  0  3  0  0  0  0  0  0
  184.0350  176.3200  135.9960 C   0  0  0  0  0  2  0  0  0  0  0  0
  183.9280  175.9060  134.6050 N   0  0  0  0  0  2  0  0  0  0  0  0
  183.5070  174.5170  134.6050 C   0  0  0  0  0  2  0  0  0  0  0  0
  182.2990  174.3410  135.5030 C   0  0  0  0  0  2  0  0  0  0  0  0
  182.2850  172.9830  136.0230 N   0  0  0  0  0  2  0  0  0  0  0  0
  183.1200  171.2080  137.2520 O   0  0  0  0  0  0  0  0  0  0  0  0
  183.2250  172.4270  136.9530 C   0  0  0  0  0  0  0  0  0  0  0  0
  184.2610  173.1660  137.5420 O   0  0  0  0  0  0  0  0  0  0  0  0
  185.5850  172.6940  137.7310 C   0  0  0  0  0  2  0  0  0  0  0  0
  186.8590  172.2950  135.5470 C   0  0  1  0  0  3  0  0  0  0  0  0
  187.8270  172.5690  136.6800 C   0  0  0  0  0  2  0  0  0  0  0  0
  186.2640  171.0420  135.7300 O   0  0  0  0  0  1  0  0  0  0  0  0
  186.4910  173.2810  136.6560 C   0  0  2  0  0  3  0  0  0  0  0  0
  1  7  1  0  0  0  0
  2  4  2  0  0  0  0
  2  5  1  0  0  0  0
  3  1  2  0  0  0  0
  4  3  1  0  0  0  0
  5  6  2  0  0  0  0
  6  1  1  0  0  0  0
  6  8  1  0  0  0  0
  7 31  1  0  0  0  0
  9 22  1  1  0  0  0
  9  8  1  0  0  0  0
 11 12  2  0  0  0  0
 12 20  1  0  0  0  0
 13 21  1  0  0  0  0
 14 16  1  6  0  0  0
 14 11  1  0  0  0  0
 15 20  1  0  0  0  0
 16 19  1  0  0  0  0
 17 14  1  0  0  0  0
 18  9  1  6  0  0  0
 18 17  1  0  0  0  0
 18 21  1  0  0  0  0
 19 15  1  0  0  0  0
 20 10  1  1  0  0  0
 21 11  1  0  0  0  0
 23 27  1  0  0  0  0
 23 24  1  0  0  0  0
 24 25  1  0  0  0  0
 25 26  1  0  0  0  0
 25 22  1  1  0  0  0
 26 29  1  6  0  0  0
 27 28  1  0  0  0  0
 28 26  1  0  0  0  0
 29 30  1  0  0  0  0
 32 31  1  0  0  0  0
 33 32  1  1  0  0  0
 33 37  1  0  0  0  0
 34 33  1  0  0  0  0
 35 34  1  0  0  0  0
 36 35  1  0  0  0  0
 36 34  1  0  0  0  0
 37 38  1  0  0  0  0
 38 39  1  0  0  0  0
 40 39  1  0  0  0  0
 41 43  2  0  0  0  0
 42 44  1  0  0  0  0
 43 42  1  0  0  0  0
 45 44  1  0  0  0  0
 46 39  1  6  0  0  0
 46 41  1  0  0  0  0
 46 45  1  0  0  0  0
 47  5  1  0  0  0  0
 48 47  1  0  0  0  0
 49 48  1  0  0  0  0
 49 50  1  0  0  0  0
 50 51  1  0  0  0  0
 51 53  1  0  0  0  0
 53 52  2  0  0  0  0
 53 54  1  0  0  0  0
 54 55  1  0  0  0  0
 56 58  1  1  0  0  0
 56 59  1  0  0  0  0
 56 57  1  0  0  0  0
 59 57  1  0  0  0  0
 59 55  1  1  0  0  0
M  END
>  <MODEL>
8

>  <REMARK>
 VINA RESULT:      -5.1      2.641      7.678
  Name = 
  22 active torsions:
  status: ('A' for Active; 'I' for Inactive)
    1  A    between atoms: N_3  and  C_10
    2  A    between atoms: N_3  and  C_35
    3  A    between atoms: C_6  and  O_18
    4  A    between atoms: C_6  and  C_59
    5  A    between atoms: C_8  and  C_30
    6  A    between atoms: C_8  and  C_57
    7  A    between atoms: C_9  and  N_12
    8  A    between atoms: C_9  and  C_35
    9  A    between atoms: C_10  and  C_48
   10  A    between atoms: O_13  and  C_36
   11  A    between atoms: N_16  and  N_28
   12  A    between atoms: N_16  and  C_54
   13  A    between atoms: O_18  and  C_58
   14  A    between atoms: C_21  and  C_41
   15  A    between atoms: C_26  and  C_57
   16  A    between atoms: N_28  and  C_56
   17  A    between atoms: C_30  and  N_55
   18  A    between atoms: C_33  and  S_34
   19  A    between atoms: C_33  and  C_41
   20  A    between atoms: C_33  and  C_47
   21  A    between atoms: S_34  and  C_53
   22  A    between atoms: C_54  and  C_57
                            x       y       z     vdW  Elec       q    Type
                         _______ _______ _______ _____ _____    ______ ____

>  <TORSDO>
F 22

$$$$
=
 OpenBabel11062418153D

 59 65  0  0  1  0  0  0  0  0999 V2000
  185.9270  177.4490  137.0370 C   0  0  0  0  0  0  0  0  0  0  0  0
  184.3480  176.3940  135.0600 N   0  0  0  0  0  0  0  0  0  0  0  0
  186.3660  177.3820  135.7510 N   0  0  0  0  0  0  0  0  0  0  0  0
  185.5880  176.8630  134.7690 C   0  0  0  0  0  3  0  0  0  0  0  0
  183.8630  176.4210  136.3320 C   0  0  0  0  0  0  0  0  0  0  0  0
  184.6510  176.9630  137.3620 C   0  0  0  0  0  0  0  0  0  0  0  0
  186.7670  178.0010  138.0530 N   0  0  0  0  0  2  0  0  0  0  0  0
  184.0470  177.0480  139.0600 S   0  0  0  0  0  0  0  0  0  0  0  0
  183.3660  178.7180  138.8340 C   0  0  2  0  0  3  0  0  0  0  0  0
  184.6910  177.7630  145.6800 C   0  0  0  0  0  1  0  0  0  0  0  0
  184.1260  178.9690  142.2020 C   0  0  0  0  0  0  0  0  0  0  0  0
  183.9610  178.6270  143.4840 C   0  0  0  0  0  3  0  0  0  0  0  0
  181.6800  178.9680  141.5590 C   0  0  0  0  0  1  0  0  0  0  0  0
  185.3830  179.4160  141.5730 C   0  0  1  0  0  3  0  0  0  0  0  0
  186.4850  178.4180  144.0640 C   0  0  0  0  0  2  0  0  0  0  0  0
  186.4410  178.3020  141.5390 C   0  0  0  0  0  2  0  0  0  0  0  0
  185.0570  179.7850  140.2440 O   0  0  0  0  0  0  0  0  0  0  0  0
  183.6580  179.5780  140.0600 C   0  0  2  0  0  3  0  0  0  0  0  0
  186.5680  177.5080  142.8430 C   0  0  0  0  0  2  0  0  0  0  0  0
  185.0450  178.6890  144.5340 C   0  0  2  0  0  3  0  0  0  0  0  0
  183.1010  178.9770  141.2530 N   0  0  0  0  0  0  0  0  0  0  0  0
  181.8760  178.6420  138.5310 C   0  0  0  0  0  2  0  0  0  0  0  0
  180.3250  179.6020  135.1320 C   0  0  0  0  0  2  0  0  0  0  0  0
  180.6700  178.7650  136.3690 C   0  0  0  0  0  2  0  0  0  0  0  0
  181.5360  179.5400  137.3580 C   0  0  1  0  0  3  0  0  0  0  0  0
  180.7770  180.7880  137.8560 C   0  0  2  0  0  3  0  0  0  0  0  0
  180.2920  181.1130  135.3930 C   0  0  0  0  0  2  0  0  0  0  0  0
  179.8450  181.4390  136.8160 C   0  0  0  0  0  2  0  0  0  0  0  0
  181.5880  181.7160  138.5450 O   0  0  0  0  0  0  0  0  0  0  0  0
  181.5570  182.9380  137.8590 C   0  0  0  0  0  1  0  0  0  0  0  0
  188.1250  178.4410  137.7800 C   0  0  0  0  0  2  0  0  0  0  0  0
  188.9930  177.2330  137.4670 C   0  0  0  0  0  2  0  0  0  0  0  0
  190.2890  177.2090  138.2820 C   0  0  1  0  0  3  0  0  0  0  0  0
  190.1440  177.8750  139.6480 C   0  0  0  0  0  3  0  0  0  0  0  0
  189.5990  176.8720  140.6490 C   0  0  0  0  0  2  0  0  0  0  0  0
  191.0760  177.2050  140.6400 C   0  0  0  0  0  2  0  0  0  0  0  0
  190.9390  175.8220  138.3480 C   0  0  0  0  0  2  0  0  0  0  0  0
  192.3960  175.8930  138.3750 N   0  0  0  0  0  2  0  0  0  0  0  0
  192.8410  175.9520  137.0450 N   0  0  0  0  0  0  0  0  0  0  0  0
  193.7130  176.9900  136.9870 O   0  0  0  0  0  1  0  0  0  0  0  0
  194.6060  174.9650  135.6670 C   0  0  0  0  0  3  0  0  0  0  0  0
  194.4380  172.6690  134.9800 N   0  0  0  0  0  2  0  0  0  0  0  0
  195.0050  173.9790  134.8620 C   0  0  0  0  0  3  0  0  0  0  0  0
  193.4740  172.3440  136.0280 C   0  0  0  0  0  2  0  0  0  0  0  0
  192.6490  173.5810  136.3710 C   0  0  0  0  0  2  0  0  0  0  0  0
  193.5940  174.7260  136.7640 C   0  0  2  0  0  3  0  0  0  0  0  0
  182.4780  175.9170  136.5940 C   0  0  0  0  0  2  0  0  0  0  0  0
  181.8540  175.4910  135.3500 N   0  0  0  0  0  2  0  0  0  0  0  0
  181.7460  174.0450  135.4010 C   0  0  0  0  0  2  0  0  0  0  0  0
  181.6300  173.5830  136.8400 C   0  0  0  0  0  2  0  0  0  0  0  0
  182.0090  172.1820  136.9230 N   0  0  0  0  0  2  0  0  0  0  0  0
  183.4880  170.4060  136.7990 O   0  0  0  0  0  0  0  0  0  0  0  0
  183.3340  171.6560  136.7710 C   0  0  0  0  0  0  0  0  0  0  0  0
  184.4690  172.4590  136.5860 O   0  0  0  0  0  0  0  0  0  0  0  0
  185.6210  172.0730  135.8540 C   0  0  0  0  0  2  0  0  0  0  0  0
  187.8680  173.1040  136.5160 C   0  0  1  0  0  3  0  0  0  0  0  0
  186.7260  173.9180  137.0870 C   0  0  0  0  0  2  0  0  0  0  0  0
  187.9450  171.8730  137.1780 O   0  0  0  0  0  1  0  0  0  0  0  0
  186.5650  173.2620  135.7320 C   0  0  2  0  0  3  0  0  0  0  0  0
  1  6  1  0  0  0  0
  1  7  1  0  0  0  0
  2  5  1  0  0  0  0
  3  1  2  0  0  0  0
  4  2  2  0  0  0  0
  4  3  1  0  0  0  0
  5 47  1  0  0  0  0
  5  6  2  0  0  0  0
  6  8  1  0  0  0  0
  9 22  1  1  0  0  0
  9  8  1  0  0  0  0
 11 12  2  0  0  0  0
 12 20  1  0  0  0  0
 14 16  1  6  0  0  0
 14 11  1  0  0  0  0
 15 20  1  0  0  0  0
 16 19  1  0  0  0  0
 17 14  1  0  0  0  0
 18  9  1  6  0  0  0
 18 17  1  0  0  0  0
 18 21  1  0  0  0  0
 19 15  1  0  0  0  0
 20 10  1  1  0  0  0
 21 13  1  0  0  0  0
 21 11  1  0  0  0  0
 23 27  1  0  0  0  0
 23 24  1  0  0  0  0
 24 25  1  0  0  0  0
 25 26  1  0  0  0  0
 25 22  1  1  0  0  0
 26 29  1  6  0  0  0
 27 28  1  0  0  0  0
 28 26  1  0  0  0  0
 30 29  1  0  0  0  0
 31  7  1  0  0  0  0
 32 31  1  0  0  0  0
 33 32  1  1  0  0  0
 33 37  1  0  0  0  0
 33 34  1  0  0  0  0
 34 36  1  0  0  0  0
 34 35  1  0  0  0  0
 36 35  1  0  0  0  0
 37 38  1  0  0  0  0
 39 38  1  0  0  0  0
 40 39  1  0  0  0  0
 41 46  1  0  0  0  0
 42 44  1  0  0  0  0
 43 42  1  0  0  0  0
 43 41  2  0  0  0  0
 44 45  1  0  0  0  0
 45 46  1  0  0  0  0
 46 39  1  6  0  0  0
 48 49  1  0  0  0  0
 48 47  1  0  0  0  0
 49 50  1  0  0  0  0
 50 51  1  0  0  0  0
 53 52  2  0  0  0  0
 53 51  1  0  0  0  0
 54 53  1  0  0  0  0
 55 54  1  0  0  0  0
 56 57  1  0  0  0  0
 56 58  1  1  0  0  0
 59 55  1  1  0  0  0
 59 56  1  0  0  0  0
 59 57  1  0  0  0  0
M  END
>  <MODEL>
9

>  <REMARK>
 VINA RESULT:      -5.0      3.075      9.009
  Name = 
  22 active torsions:
  status: ('A' for Active; 'I' for Inactive)
    1  A    between atoms: N_3  and  C_10
    2  A    between atoms: N_3  and  C_35
    3  A    between atoms: C_6  and  O_18
    4  A    between atoms: C_6  and  C_59
    5  A    between atoms: C_8  and  C_30
    6  A    between atoms: C_8  and  C_57
    7  A    between atoms: C_9  and  N_12
    8  A    between atoms: C_9  and  C_35
    9  A    between atoms: C_10  and  C_48
   10  A    between atoms: O_13  and  C_36
   11  A    between atoms: N_16  and  N_28
   12  A    between atoms: N_16  and  C_54
   13  A    between atoms: O_18  and  C_58
   14  A    between atoms: C_21  and  C_41
   15  A    between atoms: C_26  and  C_57
   16  A    between atoms: N_28  and  C_56
   17  A    between atoms: C_30  and  N_55
   18  A    between atoms: C_33  and  S_34
   19  A    between atoms: C_33  and  C_41
   20  A    between atoms: C_33  and  C_47
   21  A    between atoms: S_34  and  C_53
   22  A    between atoms: C_54  and  C_57
                            x       y       z     vdW  Elec       q    Type
                         _______ _______ _______ _____ _____    ______ ____

>  <TORSDO>
F 22

$$$$
