=
 OpenBabel11062413273D

 30 31  0  0  1  0  0  0  0  0999 V2000
  190.4860  177.9840  145.0920 C   0  0  1  0  0  3  0  0  0  0  0  0
  190.5850  177.2860  142.7280 C   0  0  2  0  0  3  0  0  0  0  0  0
  189.0790  177.9160  144.5830 C   0  0  0  0  0  0  0  0  0  0  0  0
  191.9730  177.0060  146.7060 O   0  0  0  0  0  1  0  0  0  0  0  0
  188.5720  178.6010  147.4820 F   0  0  0  0  0  0  0  0  0  0  0  0
  188.9120  177.9880  142.8050 S   0  0  0  0  0  0  0  0  0  0  0  0
  190.7710  176.8010  146.0300 C   0  0  1  0  0  3  0  0  0  0  0  0
  188.0770  177.5760  145.4140 C   0  0  0  0  0  0  0  0  0  0  0  0
  189.6470  176.5150  147.0500 C   0  0  0  0  0  2  0  0  0  0  0  0
  191.3840  177.9080  143.8660 C   0  0  0  0  0  2  0  0  0  0  0  0
  188.3860  177.3750  146.8710 C   0  0  1  0  0  3  0  0  0  0  0  0
  186.6940  177.2880  144.9080 C   0  0  0  0  0  2  0  0  0  0  0  0
  185.7750  178.4790  145.1280 C   0  0  0  0  0  2  0  0  0  0  0  0
  184.3780  178.1860  144.5880 C   0  0  0  0  0  2  0  0  0  0  0  0
  183.9410  179.1310  143.4680 C   0  0  1  0  0  0  0  0  0  0  0  0
  183.5170  180.3040  144.0680 F   0  0  0  0  0  0  0  0  0  0  0  0
  185.1240  179.4620  142.5650 C   0  0  0  0  0  1  0  0  0  0  0  0
  182.7730  178.5240  142.6670 C   0  0  2  0  0  3  0  0  0  0  0  0
  182.9670  178.6470  141.3020 F   0  0  0  0  0  0  0  0  0  0  0  0
  180.9660  180.0350  142.4210 O   0  0  0  0  0  0  0  0  0  0  0  0
  181.4390  179.0990  143.0480 C   0  0  0  0  0  0  0  0  0  0  0  0
  180.6720  178.4880  144.1730 C   0  0  0  0  0  2  0  0  0  0  0  0
  179.2630  179.0500  144.2140 C   0  0  0  0  0  1  0  0  0  0  0  0
  191.2430  177.6070  141.3970 C   0  0  0  0  0  2  0  0  0  0  0  0
  190.2370  175.9130  140.1020 O   0  0  0  0  0  0  0  0  0  0  0  0
  190.4120  177.1120  140.2570 C   0  0  0  0  0  0  0  0  0  0  0  0
  189.8360  178.0800  139.2790 C   0  0  0  0  0  2  0  0  0  0  0  0
  187.4030  178.5060  139.6230 O   0  0  0  0  0  1  0  0  0  0  0  0
  188.4040  177.7610  139.0150 C   0  0  0  0  0  0  0  0  0  0  0  0
  188.1030  176.8350  138.2180 O   0  0  0  0  0  0  0  0  0  0  0  0
  1 10  1  6  0  0  0
  1  7  1  0  0  0  0
  2 24  1  6  0  0  0
  2  6  1  0  0  0  0
  2 10  1  0  0  0  0
  3  1  1  0  0  0  0
  3  8  2  0  0  0  0
  6  3  1  0  0  0  0
  7  4  1  1  0  0  0
  7  9  1  0  0  0  0
  8 11  1  0  0  0  0
 11  9  1  0  0  0  0
 11  5  1  6  0  0  0
 12 13  1  0  0  0  0
 12  8  1  0  0  0  0
 14 13  1  0  0  0  0
 15 17  1  6  0  0  0
 15 16  1  0  0  0  0
 15 14  1  0  0  0  0
 18 19  1  6  0  0  0
 18 21  1  0  0  0  0
 18 15  1  0  0  0  0
 20 21  2  0  0  0  0
 21 22  1  0  0  0  0
 22 23  1  0  0  0  0
 25 26  2  0  0  0  0
 26 24  1  0  0  0  0
 27 26  1  0  0  0  0
 29 27  1  0  0  0  0
 29 28  1  0  0  0  0
 30 29  2  0  0  0  0
M  END
>  <MODEL>
1

>  <REMARK>
 VINA RESULT:      -7.6      0.000      0.000
  Name = 
  11 active torsions:
  status: ('A' for Active; 'I' for Inactive)
    1  A    between atoms: C_1  and  C_6
    2  A    between atoms: C_4  and  C_19
    3  A    between atoms: C_5  and  C_6
    4  A    between atoms: C_5  and  C_8
    5  A    between atoms: C_8  and  C_18
    6  A    between atoms: C_9  and  C_20
    7  A    between atoms: C_9  and  C_30
    8  A    between atoms: C_18  and  C_30
    9  A    between atoms: C_19  and  C_24
   10  A    between atoms: C_22  and  C_23
   11  A    between atoms: C_23  and  C_24
                            x       y       z     vdW  Elec       q    Type
                         _______ _______ _______ _____ _____    ______ ____

>  <TORSDO>
F 11

$$$$
=
 OpenBabel11062413273D

 30 31  0  0  1  0  0  0  0  0999 V2000
  189.6310  176.9920  144.5300 C   0  0  1  0  0  3  0  0  0  0  0  0
  187.4310  177.8490  145.2450 C   0  0  2  0  0  3  0  0  0  0  0  0
  188.8570  177.3320  143.2940 C   0  0  0  0  0  0  0  0  0  0  0  0
  191.6150  177.5790  145.7530 O   0  0  0  0  0  1  0  0  0  0  0  0
  191.4960  176.5120  142.0700 F   0  0  0  0  0  0  0  0  0  0  0  0
  187.0860  177.4300  143.5120 S   0  0  0  0  0  0  0  0  0  0  0  0
  190.7350  178.0340  144.7700 C   0  0  1  0  0  3  0  0  0  0  0  0
  189.4990  177.7660  142.1940 C   0  0  0  0  0  0  0  0  0  0  0  0
  191.5300  178.4190  143.5040 C   0  0  0  0  0  2  0  0  0  0  0  0
  188.6310  177.0160  145.6760 C   0  0  0  0  0  2  0  0  0  0  0  0
  191.0020  177.7980  142.2020 C   0  0  1  0  0  3  0  0  0  0  0  0
  188.7570  178.3190  141.0130 C   0  0  0  0  0  2  0  0  0  0  0  0
  189.1780  177.6180  139.7300 C   0  0  0  0  0  2  0  0  0  0  0  0
  189.1930  178.6000  138.5620 C   0  0  0  0  0  2  0  0  0  0  0  0
  188.2940  178.1850  137.3970 C   0  0  1  0  0  0  0  0  0  0  0  0
  187.7710  179.3450  136.8530 F   0  0  0  0  0  0  0  0  0  0  0  0
  189.1160  177.4850  136.3200 C   0  0  0  0  0  1  0  0  0  0  0  0
  187.1380  177.2940  137.8910 C   0  0  2  0  0  3  0  0  0  0  0  0
  187.3590  175.9580  137.6030 F   0  0  0  0  0  0  0  0  0  0  0  0
  185.4500  177.3910  136.2340 O   0  0  0  0  0  0  0  0  0  0  0  0
  185.8010  177.7190  137.3580 C   0  0  0  0  0  0  0  0  0  0  0  0
  184.8810  178.5090  138.2280 C   0  0  0  0  0  2  0  0  0  0  0  0
  185.3830  178.5090  139.6590 C   0  0  0  0  0  1  0  0  0  0  0  0
  186.2360  177.5310  146.1250 C   0  0  0  0  0  2  0  0  0  0  0  0
  185.7570  179.6680  147.0000 O   0  0  0  0  0  0  0  0  0  0  0  0
  185.3720  178.7370  146.3090 C   0  0  0  0  0  0  0  0  0  0  0  0
  184.0150  178.7850  145.6890 C   0  0  0  0  0  2  0  0  0  0  0  0
  183.4210  178.4900  143.2850 O   0  0  0  0  0  0  0  0  0  0  0  0
  184.1130  179.1960  144.2600 C   0  0  0  0  0  0  0  0  0  0  0  0
  184.7990  180.2010  143.9400 O   0  0  0  0  0  1  0  0  0  0  0  0
  1  7  1  0  0  0  0
  1 10  1  1  0  0  0
  2 10  1  0  0  0  0
  2 24  1  1  0  0  0
  3  6  1  0  0  0  0
  3  1  1  0  0  0  0
  6  2  1  0  0  0  0
  7  4  1  1  0  0  0
  8 11  1  0  0  0  0
  8  3  2  0  0  0  0
  9  7  1  0  0  0  0
 11  5  1  1  0  0  0
 11  9  1  0  0  0  0
 12  8  1  0  0  0  0
 13 12  1  0  0  0  0
 14 13  1  0  0  0  0
 15 17  1  6  0  0  0
 15 18  1  0  0  0  0
 15 14  1  0  0  0  0
 16 15  1  0  0  0  0
 18 19  1  6  0  0  0
 20 21  2  0  0  0  0
 21 18  1  0  0  0  0
 21 22  1  0  0  0  0
 22 23  1  0  0  0  0
 24 26  1  0  0  0  0
 26 25  2  0  0  0  0
 27 26  1  0  0  0  0
 28 29  2  0  0  0  0
 29 27  1  0  0  0  0
 30 29  1  0  0  0  0
M  END
>  <MODEL>
2

>  <REMARK>
 VINA RESULT:      -7.5      3.193      6.239
  Name = 
  11 active torsions:
  status: ('A' for Active; 'I' for Inactive)
    1  A    between atoms: C_1  and  C_6
    2  A    between atoms: C_4  and  C_19
    3  A    between atoms: C_5  and  C_6
    4  A    between atoms: C_5  and  C_8
    5  A    between atoms: C_8  and  C_18
    6  A    between atoms: C_9  and  C_20
    7  A    between atoms: C_9  and  C_30
    8  A    between atoms: C_18  and  C_30
    9  A    between atoms: C_19  and  C_24
   10  A    between atoms: C_22  and  C_23
   11  A    between atoms: C_23  and  C_24
                            x       y       z     vdW  Elec       q    Type
                         _______ _______ _______ _____ _____    ______ ____

>  <TORSDO>
F 11

$$$$
=
 OpenBabel11062413273D

 30 31  0  0  1  0  0  0  0  0999 V2000
  189.6650  177.0170  144.6720 C   0  0  1  0  0  3  0  0  0  0  0  0
  187.4280  177.8500  145.2950 C   0  0  2  0  0  3  0  0  0  0  0  0
  188.9200  177.2970  143.4040 C   0  0  0  0  0  0  0  0  0  0  0  0
  191.6010  177.6900  145.9280 O   0  0  0  0  0  1  0  0  0  0  0  0
  191.6090  176.4940  142.2830 F   0  0  0  0  0  0  0  0  0  0  0  0
  187.1420  177.3640  143.5690 S   0  0  0  0  0  0  0  0  0  0  0  0
  190.7400  178.0910  144.9060 C   0  0  1  0  0  3  0  0  0  0  0  0
  189.5840  177.7080  142.3080 C   0  0  0  0  0  0  0  0  0  0  0  0
  191.5630  178.4500  143.6500 C   0  0  0  0  0  2  0  0  0  0  0  0
  188.6330  177.0590  145.7890 C   0  0  0  0  0  2  0  0  0  0  0  0
  191.0850  177.7720  142.3560 C   0  0  1  0  0  3  0  0  0  0  0  0
  188.8650  178.2020  141.0870 C   0  0  0  0  0  2  0  0  0  0  0  0
  189.5470  177.7130  139.8190 C   0  0  0  0  0  2  0  0  0  0  0  0
  189.1420  178.5760  138.6260 C   0  0  0  0  0  2  0  0  0  0  0  0
  188.5210  177.7820  137.4760 C   0  0  1  0  0  0  0  0  0  0  0  0
  187.8710  176.6950  138.0360 F   0  0  0  0  0  0  0  0  0  0  0  0
  187.4840  178.6300  136.7490 C   0  0  0  0  0  1  0  0  0  0  0  0
  189.6110  177.2750  136.5130 C   0  0  2  0  0  3  0  0  0  0  0  0
  189.4340  177.7680  135.2310 F   0  0  0  0  0  0  0  0  0  0  0  0
  189.0390  175.1310  135.6860 O   0  0  0  0  0  0  0  0  0  0  0  0
  189.7120  175.7780  136.4750 C   0  0  0  0  0  0  0  0  0  0  0  0
  190.6750  175.0840  137.3800 C   0  0  0  0  0  2  0  0  0  0  0  0
  191.8840  175.9640  137.6340 C   0  0  0  0  0  1  0  0  0  0  0  0
  186.2150  177.5360  146.1520 C   0  0  0  0  0  2  0  0  0  0  0  0
  185.7200  179.6870  146.9820 O   0  0  0  0  0  0  0  0  0  0  0  0
  185.3440  178.7420  146.3060 C   0  0  0  0  0  0  0  0  0  0  0  0
  183.9920  178.7710  145.6750 C   0  0  0  0  0  2  0  0  0  0  0  0
  183.2920  178.6700  143.2840 O   0  0  0  0  0  0  0  0  0  0  0  0
  184.0880  179.2440  144.2650 C   0  0  0  0  0  0  0  0  0  0  0  0
  184.8710  180.1840  143.9690 O   0  0  0  0  0  1  0  0  0  0  0  0
  1  7  1  0  0  0  0
  1 10  1  1  0  0  0
  2 10  1  0  0  0  0
  2 24  1  1  0  0  0
  3  6  1  0  0  0  0
  3  1  1  0  0  0  0
  6  2  1  0  0  0  0
  7  4  1  1  0  0  0
  8 11  1  0  0  0  0
  8  3  2  0  0  0  0
  9  7  1  0  0  0  0
 11  5  1  1  0  0  0
 11  9  1  0  0  0  0
 12  8  1  0  0  0  0
 13 12  1  0  0  0  0
 14 13  1  0  0  0  0
 15 17  1  6  0  0  0
 15 16  1  0  0  0  0
 15 14  1  0  0  0  0
 18 19  1  6  0  0  0
 18 15  1  0  0  0  0
 20 21  2  0  0  0  0
 21 18  1  0  0  0  0
 21 22  1  0  0  0  0
 22 23  1  0  0  0  0
 24 26  1  0  0  0  0
 26 25  2  0  0  0  0
 27 26  1  0  0  0  0
 28 29  2  0  0  0  0
 29 27  1  0  0  0  0
 30 29  1  0  0  0  0
M  END
>  <MODEL>
3

>  <REMARK>
 VINA RESULT:      -7.4      3.234      7.361
  Name = 
  11 active torsions:
  status: ('A' for Active; 'I' for Inactive)
    1  A    between atoms: C_1  and  C_6
    2  A    between atoms: C_4  and  C_19
    3  A    between atoms: C_5  and  C_6
    4  A    between atoms: C_5  and  C_8
    5  A    between atoms: C_8  and  C_18
    6  A    between atoms: C_9  and  C_20
    7  A    between atoms: C_9  and  C_30
    8  A    between atoms: C_18  and  C_30
    9  A    between atoms: C_19  and  C_24
   10  A    between atoms: C_22  and  C_23
   11  A    between atoms: C_23  and  C_24
                            x       y       z     vdW  Elec       q    Type
                         _______ _______ _______ _____ _____    ______ ____

>  <TORSDO>
F 11

$$$$
=
 OpenBabel11062413273D

 30 31  0  0  1  0  0  0  0  0999 V2000
  190.5060  177.9520  145.4330 C   0  0  1  0  0  3  0  0  0  0  0  0
  190.4050  177.3000  143.0560 C   0  0  2  0  0  3  0  0  0  0  0  0
  189.0650  177.9440  145.0290 C   0  0  0  0  0  0  0  0  0  0  0  0
  192.0720  176.8900  146.9140 O   0  0  0  0  0  1  0  0  0  0  0  0
  188.7970  178.5870  147.9690 F   0  0  0  0  0  0  0  0  0  0  0  0
  188.7690  178.0580  143.2700 S   0  0  0  0  0  0  0  0  0  0  0  0
  190.8160  176.7410  146.3260 C   0  0  1  0  0  3  0  0  0  0  0  0
  188.1140  177.6220  145.9250 C   0  0  0  0  0  0  0  0  0  0  0  0
  189.7620  176.4740  147.4210 C   0  0  0  0  0  2  0  0  0  0  0  0
  191.3080  177.8700  144.1420 C   0  0  0  0  0  2  0  0  0  0  0  0
  188.5230  177.3800  147.3520 C   0  0  1  0  0  3  0  0  0  0  0  0
  186.6890  177.3920  145.5190 C   0  0  0  0  0  2  0  0  0  0  0  0
  185.8360  178.6180  145.8090 C   0  0  0  0  0  2  0  0  0  0  0  0
  184.4360  178.4470  145.2270 C   0  0  0  0  0  2  0  0  0  0  0  0
  184.2310  179.1690  143.8950 C   0  0  1  0  0  0  0  0  0  0  0  0
  182.9650  179.7300  143.9260 F   0  0  0  0  0  0  0  0  0  0  0  0
  185.2450  180.2970  143.7440 C   0  0  0  0  0  1  0  0  0  0  0  0
  184.3120  178.1770  142.7190 C   0  0  2  0  0  3  0  0  0  0  0  0
  185.6090  177.7430  142.5010 F   0  0  0  0  0  0  0  0  0  0  0  0
  184.4380  179.3520  140.6680 O   0  0  0  0  0  0  0  0  0  0  0  0
  183.7360  178.7250  141.4460 C   0  0  0  0  0  0  0  0  0  0  0  0
  182.3050  178.4600  141.1160 C   0  0  0  0  0  2  0  0  0  0  0  0
  182.2030  177.6130  139.8620 C   0  0  0  0  0  1  0  0  0  0  0  0
  190.9750  177.6240  141.6860 C   0  0  0  0  0  2  0  0  0  0  0  0
  190.6070  176.0380  139.9810 O   0  0  0  0  0  0  0  0  0  0  0  0
  190.1610  176.9880  140.6050 C   0  0  0  0  0  0  0  0  0  0  0  0
  188.8220  177.5470  140.2530 C   0  0  0  0  0  2  0  0  0  0  0  0
  189.3310  178.6520  138.0770 O   0  0  0  0  0  0  0  0  0  0  0  0
  188.6750  177.6470  138.7730 C   0  0  0  0  0  0  0  0  0  0  0  0
  187.9800  176.8020  138.1520 O   0  0  0  0  0  1  0  0  0  0  0  0
  1 10  1  6  0  0  0
  1  7  1  0  0  0  0
  2 24  1  6  0  0  0
  2  6  1  0  0  0  0
  2 10  1  0  0  0  0
  3  1  1  0  0  0  0
  3  8  2  0  0  0  0
  6  3  1  0  0  0  0
  7  4  1  1  0  0  0
  7  9  1  0  0  0  0
  8 11  1  0  0  0  0
 11  9  1  0  0  0  0
 11  5  1  6  0  0  0
 12 13  1  0  0  0  0
 12  8  1  0  0  0  0
 14 13  1  0  0  0  0
 15 17  1  6  0  0  0
 15 16  1  0  0  0  0
 15 14  1  0  0  0  0
 18 19  1  6  0  0  0
 18 15  1  0  0  0  0
 20 21  2  0  0  0  0
 21 18  1  0  0  0  0
 22 21  1  0  0  0  0
 23 22  1  0  0  0  0
 25 26  2  0  0  0  0
 26 24  1  0  0  0  0
 27 26  1  0  0  0  0
 28 29  2  0  0  0  0
 29 27  1  0  0  0  0
 30 29  1  0  0  0  0
M  END
>  <MODEL>
4

>  <REMARK>
 VINA RESULT:      -7.4      1.595      1.754
  Name = 
  11 active torsions:
  status: ('A' for Active; 'I' for Inactive)
    1  A    between atoms: C_1  and  C_6
    2  A    between atoms: C_4  and  C_19
    3  A    between atoms: C_5  and  C_6
    4  A    between atoms: C_5  and  C_8
    5  A    between atoms: C_8  and  C_18
    6  A    between atoms: C_9  and  C_20
    7  A    between atoms: C_9  and  C_30
    8  A    between atoms: C_18  and  C_30
    9  A    between atoms: C_19  and  C_24
   10  A    between atoms: C_22  and  C_23
   11  A    between atoms: C_23  and  C_24
                            x       y       z     vdW  Elec       q    Type
                         _______ _______ _______ _____ _____    ______ ____

>  <TORSDO>
F 11

$$$$
=
 OpenBabel11062413273D

 30 31  0  0  1  0  0  0  0  0999 V2000
  188.1480  177.1600  145.1140 C   0  0  1  0  0  3  0  0  0  0  0  0
  186.0630  178.4790  145.0930 C   0  0  2  0  0  3  0  0  0  0  0  0
  187.8240  177.4680  143.6850 C   0  0  0  0  0  0  0  0  0  0  0  0
  189.8040  177.5420  146.8140 O   0  0  0  0  0  1  0  0  0  0  0  0
  190.4660  176.0420  143.3460 F   0  0  0  0  0  0  0  0  0  0  0  0
  186.1200  177.9050  143.3710 S   0  0  0  0  0  0  0  0  0  0  0  0
  189.3370  178.0130  145.5870 C   0  0  1  0  0  3  0  0  0  0  0  0
  188.8140  177.6340  142.7900 C   0  0  0  0  0  0  0  0  0  0  0  0
  190.5060  178.0830  144.5810 C   0  0  0  0  0  2  0  0  0  0  0  0
  186.9020  177.5100  145.9160 C   0  0  0  0  0  2  0  0  0  0  0  0
  190.2320  177.4000  143.2320 C   0  0  1  0  0  3  0  0  0  0  0  0
  188.5500  178.1500  141.4060 C   0  0  0  0  0  2  0  0  0  0  0  0
  189.2040  177.2600  140.3600 C   0  0  0  0  0  2  0  0  0  0  0  0
  189.7780  178.1020  139.2240 C   0  0  0  0  0  2  0  0  0  0  0  0
  189.2520  177.7100  137.8420 C   0  0  1  0  0  0  0  0  0  0  0  0
  189.0910  178.8820  137.1210 F   0  0  0  0  0  0  0  0  0  0  0  0
  190.2720  176.8430  137.1140 C   0  0  0  0  0  1  0  0  0  0  0  0
  187.8890  177.0010  137.9590 C   0  0  2  0  0  3  0  0  0  0  0  0
  187.9510  175.6920  137.5130 F   0  0  0  0  0  0  0  0  0  0  0  0
  186.3010  178.7430  137.7340 O   0  0  0  0  0  0  0  0  0  0  0  0
  186.7850  177.7300  137.2510 C   0  0  0  0  0  0  0  0  0  0  0  0
  186.3090  177.2340  135.9260 C   0  0  0  0  0  2  0  0  0  0  0  0
  186.8550  178.1050  134.8110 C   0  0  0  0  0  1  0  0  0  0  0  0
  184.6350  178.4950  145.6100 C   0  0  0  0  0  2  0  0  0  0  0  0
  184.0850  180.2840  144.1760 O   0  0  0  0  0  0  0  0  0  0  0  0
  183.7330  179.2220  144.6640 C   0  0  0  0  0  0  0  0  0  0  0  0
  182.3800  178.6740  144.3540 C   0  0  0  0  0  2  0  0  0  0  0  0
  182.5440  178.6240  141.8670 O   0  0  0  0  0  0  0  0  0  0  0  0
  181.9330  179.1280  143.0060 C   0  0  0  0  0  0  0  0  0  0  0  0
  180.9820  179.9450  142.9010 O   0  0  0  0  0  1  0  0  0  0  0  0
  1  7  1  0  0  0  0
  1 10  1  1  0  0  0
  2 24  1  1  0  0  0
  2 10  1  0  0  0  0
  3  1  1  0  0  0  0
  6  3  1  0  0  0  0
  6  2  1  0  0  0  0
  7  4  1  1  0  0  0
  8 11  1  0  0  0  0
  8  3  2  0  0  0  0
  9  7  1  0  0  0  0
 11  5  1  1  0  0  0
 11  9  1  0  0  0  0
 12  8  1  0  0  0  0
 13 12  1  0  0  0  0
 14 13  1  0  0  0  0
 15 17  1  6  0  0  0
 15 18  1  0  0  0  0
 15 14  1  0  0  0  0
 16 15  1  0  0  0  0
 18 19  1  6  0  0  0
 21 20  2  0  0  0  0
 21 18  1  0  0  0  0
 22 21  1  0  0  0  0
 23 22  1  0  0  0  0
 25 26  2  0  0  0  0
 26 24  1  0  0  0  0
 27 26  1  0  0  0  0
 28 29  2  0  0  0  0
 29 27  1  0  0  0  0
 30 29  1  0  0  0  0
M  END
>  <MODEL>
5

>  <REMARK>
 VINA RESULT:      -7.2      2.842      6.769
  Name = 
  11 active torsions:
  status: ('A' for Active; 'I' for Inactive)
    1  A    between atoms: C_1  and  C_6
    2  A    between atoms: C_4  and  C_19
    3  A    between atoms: C_5  and  C_6
    4  A    between atoms: C_5  and  C_8
    5  A    between atoms: C_8  and  C_18
    6  A    between atoms: C_9  and  C_20
    7  A    between atoms: C_9  and  C_30
    8  A    between atoms: C_18  and  C_30
    9  A    between atoms: C_19  and  C_24
   10  A    between atoms: C_22  and  C_23
   11  A    between atoms: C_23  and  C_24
                            x       y       z     vdW  Elec       q    Type
                         _______ _______ _______ _____ _____    ______ ____

>  <TORSDO>
F 11

$$$$
=
 OpenBabel11062413273D

 30 31  0  0  1  0  0  0  0  0999 V2000
  183.7950  178.1860  142.2920 C   0  0  1  0  0  3  0  0  0  0  0  0
  183.4420  179.3320  140.1360 C   0  0  2  0  0  3  0  0  0  0  0  0
  185.1250  178.2860  141.6130 C   0  0  0  0  0  0  0  0  0  0  0  0
  182.6020  178.9010  144.2530 O   0  0  0  0  0  1  0  0  0  0  0  0
  185.9510  177.0310  144.2350 F   0  0  0  0  0  0  0  0  0  0  0  0
  185.0560  178.5510  139.8470 S   0  0  0  0  0  0  0  0  0  0  0  0
  183.7190  179.1780  143.4640 C   0  0  1  0  0  3  0  0  0  0  0  0
  186.2480  178.4130  142.3430 C   0  0  0  0  0  0  0  0  0  0  0  0
  184.9820  179.2090  144.3520 C   0  0  0  0  0  2  0  0  0  0  0  0
  182.7540  178.5390  141.2400 C   0  0  0  0  0  2  0  0  0  0  0  0
  186.1450  178.3430  143.8420 C   0  0  1  0  0  3  0  0  0  0  0  0
  187.5710  178.7300  141.7100 C   0  0  0  0  0  2  0  0  0  0  0  0
  188.4410  177.4850  141.6170 C   0  0  0  0  0  2  0  0  0  0  0  0
  189.7800  177.7140  142.3120 C   0  0  0  0  0  2  0  0  0  0  0  0
  189.9180  176.9680  143.6400 C   0  0  1  0  0  0  0  0  0  0  0  0
  188.7600  176.2300  143.8150 F   0  0  0  0  0  0  0  0  0  0  0  0
  191.0930  175.9980  143.5810 C   0  0  0  0  0  1  0  0  0  0  0  0
  190.0640  177.9600  144.8100 C   0  0  2  0  0  3  0  0  0  0  0  0
  190.9100  179.0090  144.4930 F   0  0  0  0  0  0  0  0  0  0  0  0
  191.7070  177.2050  146.3390 O   0  0  0  0  0  0  0  0  0  0  0  0
  190.5170  177.3050  146.0830 C   0  0  0  0  0  0  0  0  0  0  0  0
  189.4990  176.8150  147.0580 C   0  0  0  0  0  2  0  0  0  0  0  0
  188.2060  177.5920  146.9030 C   0  0  0  0  0  1  0  0  0  0  0  0
  182.5960  179.3050  138.8750 C   0  0  0  0  0  2  0  0  0  0  0  0
  182.6950  181.6570  138.7460 O   0  0  0  0  0  0  0  0  0  0  0  0
  182.0160  180.6540  138.5940 C   0  0  0  0  0  0  0  0  0  0  0  0
  180.5890  180.7790  138.1730 C   0  0  0  0  0  2  0  0  0  0  0  0
  179.5800  181.3950  140.3690 O   0  0  0  0  0  1  0  0  0  0  0  0
  179.8710  181.7410  139.0560 C   0  0  0  0  0  0  0  0  0  0  0  0
  179.5550  182.8790  138.6210 O   0  0  0  0  0  0  0  0  0  0  0  0
  1 10  1  6  0  0  0
  1  7  1  0  0  0  0
  2 24  1  6  0  0  0
  2 10  1  0  0  0  0
  3  1  1  0  0  0  0
  3  8  2  0  0  0  0
  6  2  1  0  0  0  0
  6  3  1  0  0  0  0
  7  4  1  1  0  0  0
  7  9  1  0  0  0  0
  8 11  1  0  0  0  0
 11  5  1  6  0  0  0
 11  9  1  0  0  0  0
 12  8  1  0  0  0  0
 13 12  1  0  0  0  0
 13 14  1  0  0  0  0
 14 15  1  0  0  0  0
 15 17  1  6  0  0  0
 15 16  1  0  0  0  0
 15 18  1  0  0  0  0
 18 19  1  6  0  0  0
 18 21  1  0  0  0  0
 21 20  2  0  0  0  0
 21 22  1  0  0  0  0
 23 22  1  0  0  0  0
 26 25  2  0  0  0  0
 26 24  1  0  0  0  0
 27 26  1  0  0  0  0
 27 29  1  0  0  0  0
 29 28  1  0  0  0  0
 30 29  2  0  0  0  0
M  END
>  <MODEL>
6

>  <REMARK>
 VINA RESULT:      -7.1      3.093      7.870
  Name = 
  11 active torsions:
  status: ('A' for Active; 'I' for Inactive)
    1  A    between atoms: C_1  and  C_6
    2  A    between atoms: C_4  and  C_19
    3  A    between atoms: C_5  and  C_6
    4  A    between atoms: C_5  and  C_8
    5  A    between atoms: C_8  and  C_18
    6  A    between atoms: C_9  and  C_20
    7  A    between atoms: C_9  and  C_30
    8  A    between atoms: C_18  and  C_30
    9  A    between atoms: C_19  and  C_24
   10  A    between atoms: C_22  and  C_23
   11  A    between atoms: C_23  and  C_24
                            x       y       z     vdW  Elec       q    Type
                         _______ _______ _______ _____ _____    ______ ____

>  <TORSDO>
F 11

$$$$
=
 OpenBabel11062413273D

 30 31  0  0  1  0  0  0  0  0999 V2000
  189.8370  177.5010  137.1700 C   0  0  1  0  0  3  0  0  0  0  0  0
  187.4560  177.5630  137.8150 C   0  0  2  0  0  3  0  0  0  0  0  0
  189.7730  177.4200  138.6630 C   0  0  0  0  0  0  0  0  0  0  0  0
  190.5320  176.2700  135.2260 O   0  0  0  0  0  1  0  0  0  0  0  0
  192.7510  177.1360  138.2340 F   0  0  0  0  0  0  0  0  0  0  0  0
  188.2480  178.0030  139.3900 S   0  0  0  0  0  0  0  0  0  0  0  0
  190.2140  176.1340  136.5770 C   0  0  1  0  0  3  0  0  0  0  0  0
  190.7060  176.7280  139.3420 C   0  0  0  0  0  0  0  0  0  0  0  0
  191.3700  175.4220  137.3110 C   0  0  0  0  0  2  0  0  0  0  0  0
  188.4440  177.9060  136.7070 C   0  0  0  0  0  2  0  0  0  0  0  0
  191.8600  176.1370  138.5800 C   0  0  1  0  0  3  0  0  0  0  0  0
  190.5670  176.4410  140.8080 C   0  0  0  0  0  2  0  0  0  0  0  0
  191.2230  177.5320  141.6410 C   0  0  0  0  0  2  0  0  0  0  0  0
  191.7520  176.9590  142.9520 C   0  0  0  0  0  2  0  0  0  0  0  0
  190.6910  176.8490  144.0480 C   0  0  1  0  0  0  0  0  0  0  0  0
  190.0070  175.6650  143.8340 F   0  0  0  0  0  0  0  0  0  0  0  0
  191.3550  176.7720  145.4190 C   0  0  0  0  0  1  0  0  0  0  0  0
  189.7000  178.0250  143.9670 C   0  0  2  0  0  3  0  0  0  0  0  0
  189.9410  178.9700  144.9490 F   0  0  0  0  0  0  0  0  0  0  0  0
  187.6720  177.2820  142.9950 O   0  0  0  0  0  0  0  0  0  0  0  0
  188.2650  177.5880  144.0190 C   0  0  0  0  0  0  0  0  0  0  0  0
  187.5760  177.4870  145.3390 C   0  0  0  0  0  2  0  0  0  0  0  0
  186.1250  177.9080  145.2090 C   0  0  0  0  0  1  0  0  0  0  0  0
  186.1690  178.3450  137.6210 C   0  0  0  0  0  2  0  0  0  0  0  0
  184.8140  176.4170  137.5840 O   0  0  0  0  0  0  0  0  0  0  0  0
  184.9840  177.5360  138.0410 C   0  0  0  0  0  0  0  0  0  0  0  0
  183.9810  178.1150  138.9820 C   0  0  0  0  0  2  0  0  0  0  0  0
  185.3470  179.3470  140.6660 O   0  0  0  0  0  1  0  0  0  0  0  0
  184.4950  179.3840  139.5710 C   0  0  0  0  0  0  0  0  0  0  0  0
  184.1790  180.4880  139.0560 O   0  0  0  0  0  0  0  0  0  0  0  0
  1 10  1  6  0  0  0
  1  3  1  0  0  0  0
  2 24  1  6  0  0  0
  2  6  1  0  0  0  0
  3  8  2  0  0  0  0
  3  6  1  0  0  0  0
  7  4  1  6  0  0  0
  7  1  1  0  0  0  0
  7  9  1  0  0  0  0
  8 12  1  0  0  0  0
  9 11  1  0  0  0  0
 10  2  1  0  0  0  0
 11  5  1  6  0  0  0
 11  8  1  0  0  0  0
 12 13  1  0  0  0  0
 13 14  1  0  0  0  0
 14 15  1  0  0  0  0
 15 17  1  1  0  0  0
 16 15  1  0  0  0  0
 18 21  1  0  0  0  0
 18 15  1  0  0  0  0
 18 19  1  1  0  0  0
 20 21  2  0  0  0  0
 21 22  1  0  0  0  0
 23 22  1  0  0  0  0
 24 26  1  0  0  0  0
 25 26  2  0  0  0  0
 26 27  1  0  0  0  0
 27 29  1  0  0  0  0
 29 28  1  0  0  0  0
 30 29  2  0  0  0  0
M  END
>  <MODEL>
7

>  <REMARK>
 VINA RESULT:      -6.8      3.524      7.250
  Name = 
  11 active torsions:
  status: ('A' for Active; 'I' for Inactive)
    1  A    between atoms: C_1  and  C_6
    2  A    between atoms: C_4  and  C_19
    3  A    between atoms: C_5  and  C_6
    4  A    between atoms: C_5  and  C_8
    5  A    between atoms: C_8  and  C_18
    6  A    between atoms: C_9  and  C_20
    7  A    between atoms: C_9  and  C_30
    8  A    between atoms: C_18  and  C_30
    9  A    between atoms: C_19  and  C_24
   10  A    between atoms: C_22  and  C_23
   11  A    between atoms: C_23  and  C_24
                            x       y       z     vdW  Elec       q    Type
                         _______ _______ _______ _____ _____    ______ ____

>  <TORSDO>
F 11

$$$$
=
 OpenBabel11062413273D

 30 31  0  0  1  0  0  0  0  0999 V2000
  189.6210  176.9830  139.6370 C   0  0  1  0  0  3  0  0  0  0  0  0
  190.9410  177.6500  141.6110 C   0  0  2  0  0  3  0  0  0  0  0  0
  188.6740  177.5780  140.6310 C   0  0  0  0  0  0  0  0  0  0  0  0
  190.5050  177.3030  137.4240 O   0  0  0  0  0  1  0  0  0  0  0  0
  186.7850  177.0620  138.3300 F   0  0  0  0  0  0  0  0  0  0  0  0
  189.2680  177.6150  142.3160 S   0  0  0  0  0  0  0  0  0  0  0  0
  189.8450  177.9550  138.4670 C   0  0  1  0  0  3  0  0  0  0  0  0
  187.5840  178.2460  140.2100 C   0  0  0  0  0  0  0  0  0  0  0  0
  188.5550  178.6110  137.9310 C   0  0  0  0  0  2  0  0  0  0  0  0
  190.9270  176.7500  140.3810 C   0  0  0  0  0  2  0  0  0  0  0  0
  187.2880  178.2840  138.7360 C   0  0  1  0  0  3  0  0  0  0  0  0
  186.7280  179.0370  141.1540 C   0  0  0  0  0  2  0  0  0  0  0  0
  185.4810  178.2560  141.5420 C   0  0  0  0  0  2  0  0  0  0  0  0
  185.4400  178.0280  143.0500 C   0  0  0  0  0  2  0  0  0  0  0  0
  184.4260  178.9110  143.7790 C   0  0  1  0  0  0  0  0  0  0  0  0
  184.9380  180.1970  143.7870 F   0  0  0  0  0  0  0  0  0  0  0  0
  183.1040  178.9330  143.0200 C   0  0  0  0  0  1  0  0  0  0  0  0
  184.2340  178.4360  145.2320 C   0  0  2  0  0  3  0  0  0  0  0  0
  183.1560  179.0580  145.8380 F   0  0  0  0  0  0  0  0  0  0  0  0
  185.6660  179.6590  146.6680 O   0  0  0  0  0  0  0  0  0  0  0  0
  185.4650  178.6110  146.0740 C   0  0  0  0  0  0  0  0  0  0  0  0
  186.4230  177.4750  146.2170 C   0  0  0  0  0  2  0  0  0  0  0  0
  187.8050  177.8920  145.7520 C   0  0  0  0  0  1  0  0  0  0  0  0
  191.9610  177.1400  142.6140 C   0  0  0  0  0  2  0  0  0  0  0  0
  190.6160  175.6660  143.8690 O   0  0  0  0  0  0  0  0  0  0  0  0
  191.2910  176.6830  143.8700 C   0  0  0  0  0  0  0  0  0  0  0  0
  191.4070  177.4960  145.1160 C   0  0  0  0  0  2  0  0  0  0  0  0
  192.4300  175.7120  146.5260 O   0  0  0  0  0  0  0  0  0  0  0  0
  191.3940  176.6120  146.3160 C   0  0  0  0  0  0  0  0  0  0  0  0
  190.4600  176.7030  147.1530 O   0  0  0  0  0  1  0  0  0  0  0  0
  1 10  1  1  0  0  0
  1  3  1  0  0  0  0
  2  6  1  0  0  0  0
  2 24  1  1  0  0  0
  3  6  1  0  0  0  0
  7  4  1  6  0  0  0
  7  1  1  0  0  0  0
  8  3  2  0  0  0  0
  8 12  1  0  0  0  0
  9  7  1  0  0  0  0
  9 11  1  0  0  0  0
 10  2  1  0  0  0  0
 11  5  1  6  0  0  0
 11  8  1  0  0  0  0
 12 13  1  0  0  0  0
 13 14  1  0  0  0  0
 14 15  1  0  0  0  0
 15 17  1  6  0  0  0
 15 16  1  0  0  0  0
 15 18  1  0  0  0  0
 18 19  1  1  0  0  0
 18 21  1  0  0  0  0
 21 22  1  0  0  0  0
 21 20  2  0  0  0  0
 23 22  1  0  0  0  0
 24 26  1  0  0  0  0
 25 26  2  0  0  0  0
 26 27  1  0  0  0  0
 27 29  1  0  0  0  0
 29 28  2  0  0  0  0
 29 30  1  0  0  0  0
M  END
>  <MODEL>
8

>  <REMARK>
 VINA RESULT:      -6.7      2.362      5.869
  Name = 
  11 active torsions:
  status: ('A' for Active; 'I' for Inactive)
    1  A    between atoms: C_1  and  C_6
    2  A    between atoms: C_4  and  C_19
    3  A    between atoms: C_5  and  C_6
    4  A    between atoms: C_5  and  C_8
    5  A    between atoms: C_8  and  C_18
    6  A    between atoms: C_9  and  C_20
    7  A    between atoms: C_9  and  C_30
    8  A    between atoms: C_18  and  C_30
    9  A    between atoms: C_19  and  C_24
   10  A    between atoms: C_22  and  C_23
   11  A    between atoms: C_23  and  C_24
                            x       y       z     vdW  Elec       q    Type
                         _______ _______ _______ _____ _____    ______ ____

>  <TORSDO>
F 11

$$$$
=
 OpenBabel11062413273D

 30 31  0  0  1  0  0  0  0  0999 V2000
  190.0040  177.0530  136.9790 C   0  0  1  0  0  3  0  0  0  0  0  0
  187.7230  177.5120  137.7990 C   0  0  2  0  0  3  0  0  0  0  0  0
  190.1210  177.5190  138.3970 C   0  0  0  0  0  0  0  0  0  0  0  0
  190.4220  175.1580  135.5600 O   0  0  0  0  0  1  0  0  0  0  0  0
  193.0140  176.8880  137.7970 F   0  0  0  0  0  0  0  0  0  0  0  0
  188.7130  178.4310  139.0130 S   0  0  0  0  0  0  0  0  0  0  0  0
  190.2660  175.5400  136.8930 C   0  0  1  0  0  3  0  0  0  0  0  0
  191.1090  177.0530  139.1820 C   0  0  0  0  0  0  0  0  0  0  0  0
  191.4830  175.0600  137.7120 C   0  0  0  0  0  2  0  0  0  0  0  0
  188.5780  177.3620  136.5470 C   0  0  0  0  0  2  0  0  0  0  0  0
  192.1440  176.1470  138.5750 C   0  0  1  0  0  3  0  0  0  0  0  0
  191.1410  177.3230  140.6570 C   0  0  0  0  0  2  0  0  0  0  0  0
  190.2050  176.3830  141.4030 C   0  0  0  0  0  2  0  0  0  0  0  0
  190.3630  176.5550  142.9110 C   0  0  0  0  0  2  0  0  0  0  0  0
  189.3240  177.4890  143.5340 C   0  0  1  0  0  0  0  0  0  0  0  0
  189.0190  178.4500  142.5850 F   0  0  0  0  0  0  0  0  0  0  0  0
  188.0480  176.7200  143.8570 C   0  0  0  0  0  1  0  0  0  0  0  0
  189.8970  178.1820  144.7860 C   0  0  2  0  0  3  0  0  0  0  0  0
  190.8070  179.1720  144.4540 F   0  0  0  0  0  0  0  0  0  0  0  0
  191.6560  176.8110  145.5810 O   0  0  0  0  0  0  0  0  0  0  0  0
  190.5190  177.2210  145.7570 C   0  0  0  0  0  0  0  0  0  0  0  0
  189.7520  176.8020  146.9670 C   0  0  0  0  0  2  0  0  0  0  0  0
  188.7540  177.8770  147.3550 C   0  0  0  0  0  1  0  0  0  0  0  0
  186.4450  178.2620  137.4660 C   0  0  0  0  0  2  0  0  0  0  0  0
  185.1500  176.3080  137.2130 O   0  0  0  0  0  0  0  0  0  0  0  0
  185.2430  177.4110  137.7280 C   0  0  0  0  0  0  0  0  0  0  0  0
  184.1340  177.9290  138.5810 C   0  0  0  0  0  2  0  0  0  0  0  0
  184.1810  180.3730  139.0760 O   0  0  0  0  0  0  0  0  0  0  0  0
  184.6020  179.0890  139.3920 C   0  0  0  0  0  0  0  0  0  0  0  0
  185.3560  178.9000  140.3820 O   0  0  0  0  0  1  0  0  0  0  0  0
  1 10  1  1  0  0  0
  1  3  1  0  0  0  0
  2 24  1  6  0  0  0
  2  6  1  0  0  0  0
  3  6  1  0  0  0  0
  3  8  2  0  0  0  0
  7  4  1  6  0  0  0
  7  1  1  0  0  0  0
  7  9  1  0  0  0  0
  8 12  1  0  0  0  0
  9 11  1  0  0  0  0
 10  2  1  0  0  0  0
 11  5  1  6  0  0  0
 11  8  1  0  0  0  0
 12 13  1  0  0  0  0
 13 14  1  0  0  0  0
 14 15  1  0  0  0  0
 15 17  1  1  0  0  0
 15 18  1  0  0  0  0
 16 15  1  0  0  0  0
 18 19  1  6  0  0  0
 18 21  1  0  0  0  0
 20 21  2  0  0  0  0
 21 22  1  0  0  0  0
 22 23  1  0  0  0  0
 24 26  1  0  0  0  0
 25 26  2  0  0  0  0
 26 27  1  0  0  0  0
 27 29  1  0  0  0  0
 28 29  2  0  0  0  0
 29 30  1  0  0  0  0
M  END
>  <MODEL>
9

>  <REMARK>
 VINA RESULT:      -6.6      3.470      7.552
  Name = 
  11 active torsions:
  status: ('A' for Active; 'I' for Inactive)
    1  A    between atoms: C_1  and  C_6
    2  A    between atoms: C_4  and  C_19
    3  A    between atoms: C_5  and  C_6
    4  A    between atoms: C_5  and  C_8
    5  A    between atoms: C_8  and  C_18
    6  A    between atoms: C_9  and  C_20
    7  A    between atoms: C_9  and  C_30
    8  A    between atoms: C_18  and  C_30
    9  A    between atoms: C_19  and  C_24
   10  A    between atoms: C_22  and  C_23
   11  A    between atoms: C_23  and  C_24
                            x       y       z     vdW  Elec       q    Type
                         _______ _______ _______ _____ _____    ______ ____

>  <TORSDO>
F 11

$$$$
