=
 OpenBabel11062416213D

 29 32  0  0  1  0  0  0  0  0999 V2000
  190.2860  177.1020  140.4830 C   0  0  1  0  0  3  0  0  0  0  0  0
  188.8250  178.8860  137.6800 C   0  0  0  0  0  3  0  0  0  0  0  0
  187.9530  177.7290  135.1180 O   0  0  0  0  0  0  0  0  0  0  0  0
  188.5040  175.6460  135.9570 N   0  0  0  0  0  2  0  0  0  0  0  0
  189.9060  177.6510  139.1380 C   0  0  0  0  0  0  0  0  0  0  0  0
  190.8830  175.8430  137.8260 N   0  0  0  0  0  0  0  0  0  0  0  0
  188.8540  174.7360  137.0410 C   0  0  0  0  0  2  0  0  0  0  0  0
  190.1640  177.0650  137.9850 C   0  0  0  0  0  0  0  0  0  0  0  0
  188.6060  177.0780  135.9750 C   0  0  0  0  0  0  0  0  0  0  0  0
  189.0520  178.7700  138.9500 N   0  0  0  0  0  0  0  0  0  0  0  0
  190.3170  174.7780  137.3510 C   0  0  0  0  0  3  0  0  0  0  0  0
  189.5450  177.8420  136.8780 C   0  0  1  0  0  3  0  0  0  0  0  0
  192.6640  177.3610  140.2940 O   0  0  0  0  0  1  0  0  0  0  0  0
  191.5530  177.7570  141.0400 C   0  0  2  0  0  3  0  0  0  0  0  0
  191.7440  177.3790  142.3940 O   0  0  0  0  0  0  0  0  0  0  0  0
  191.6830  178.3180  143.3840 C   0  0  0  0  0  0  0  0  0  0  0  0
  191.6280  179.1460  144.2580 C   0  0  0  0  0  3  0  0  0  0  0  0
  189.1090  177.1760  141.4600 C   0  0  0  0  0  2  0  0  0  0  0  0
  189.1190  176.0370  142.4720 C   0  0  0  0  0  2  0  0  0  0  0  0
  187.9730  176.1880  143.4580 C   0  0  0  0  0  2  0  0  0  0  0  0
  185.7650  178.1840  145.0780 O   0  0  0  0  0  0  0  0  0  0  0  0
  186.7380  177.6450  145.9250 C   0  0  2  0  0  3  0  0  0  0  0  0
  189.0650  177.3230  147.4860 C   0  0  0  0  0  3  0  0  0  0  0  0
  186.7380  178.2640  147.3170 C   0  0  0  0  0  2  0  0  0  0  0  0
  189.1480  177.1120  145.9880 C   0  0  0  0  0  2  0  0  0  0  0  0
  187.7690  177.6560  143.8380 C   0  0  1  0  0  3  0  0  0  0  0  0
  187.9580  177.8050  148.0920 C   0  0  0  0  0  3  0  0  0  0  0  0
  186.2810  178.0010  143.7710 C   0  0  0  0  0  2  0  0  0  0  0  0
  188.0610  177.9240  145.2870 C   0  0  1  0  0  3  0  0  0  0  0  0
  1 14  1  0  0  0  0
  1 18  1  1  0  0  0
  2 10  2  0  0  0  0
  3  9  2  0  0  0  0
  4  9  1  0  0  0  0
  4  7  1  0  0  0  0
  5  1  1  0  0  0  0
  6  8  1  0  0  0  0
  7 11  1  0  0  0  0
  8  5  2  0  0  0  0
  9 12  1  0  0  0  0
 10  5  1  0  0  0  0
 11  6  2  0  0  0  0
 12  2  1  1  0  0  0
 12  8  1  0  0  0  0
 14 13  1  6  0  0  0
 14 15  1  0  0  0  0
 15 16  1  0  0  0  0
 16 17  3  0  0  0  0
 18 19  1  0  0  0  0
 19 20  1  0  0  0  0
 21 22  1  0  0  0  0
 22 24  1  1  0  0  0
 23 27  2  0  0  0  0
 24 27  1  0  0  0  0
 25 23  1  0  0  0  0
 26 20  1  1  0  0  0
 26 29  1  0  0  0  0
 28 26  1  0  0  0  0
 28 21  1  0  0  0  0
 29 22  1  0  0  0  0
 29 25  1  1  0  0  0
M  END
>  <MODEL>
1

>  <REMARK>
 VINA RESULT:      -8.1      0.000      0.000
  Name = 
  8 active torsions:
  status: ('A' for Active; 'I' for Inactive)
    1  A    between atoms: C_1  and  C_17
    2  A    between atoms: C_1  and  C_21
    3  A    between atoms: C_5  and  O_8
    4  A    between atoms: O_8  and  C_9
    5  A    between atoms: C_9  and  C_15
    6  A    between atoms: C_11  and  C_15
    7  A    between atoms: C_15  and  C_17
    8  A    between atoms: C_21  and  C_26
                            x       y       z     vdW  Elec       q    Type
                         _______ _______ _______ _____ _____    ______ ____

>  <TORSDO>
F 8

$$$$
=
 OpenBabel11062416213D

 29 32  0  0  1  0  0  0  0  0999 V2000
  188.3210  177.7840  138.9740 C   0  0  1  0  0  3  0  0  0  0  0  0
  184.8210  178.2600  138.1400 C   0  0  0  0  0  3  0  0  0  0  0  0
  183.0410  176.3130  136.8350 O   0  0  0  0  0  0  0  0  0  0  0  0
  184.7870  174.7970  136.8830 N   0  0  0  0  0  2  0  0  0  0  0  0
  186.9680  177.8420  138.3260 C   0  0  0  0  0  0  0  0  0  0  0  0
  187.4460  176.2210  136.5670 N   0  0  0  0  0  0  0  0  0  0  0  0
  186.0940  174.3390  137.3380 C   0  0  0  0  0  2  0  0  0  0  0  0
  186.6030  177.1270  137.2790 C   0  0  0  0  0  0  0  0  0  0  0  0
  184.2840  176.1410  136.9370 C   0  0  0  0  0  0  0  0  0  0  0  0
  185.8520  178.5270  138.8770 N   0  0  0  0  0  0  0  0  0  0  0  0
  187.2050  174.9480  136.5400 C   0  0  0  0  0  3  0  0  0  0  0  0
  185.1640  177.3670  136.9840 C   0  0  1  0  0  3  0  0  0  0  0  0
  188.7190  179.6360  137.5020 O   0  0  0  0  0  1  0  0  0  0  0  0
  189.3570  178.6310  138.2310 C   0  0  2  0  0  3  0  0  0  0  0  0
  190.1070  177.8190  137.3420 O   0  0  0  0  0  0  0  0  0  0  0  0
  190.7860  176.7310  137.8140 C   0  0  0  0  0  0  0  0  0  0  0  0
  191.3860  175.7720  138.2300 C   0  0  0  0  0  3  0  0  0  0  0  0
  188.2330  178.1350  140.4620 C   0  0  0  0  0  2  0  0  0  0  0  0
  189.3260  177.4640  141.2840 C   0  0  0  0  0  2  0  0  0  0  0  0
  189.3050  177.9720  142.7160 C   0  0  0  0  0  2  0  0  0  0  0  0
  189.3170  177.2920  146.0360 O   0  0  0  0  0  0  0  0  0  0  0  0
  188.1230  177.8780  145.6030 C   0  0  2  0  0  3  0  0  0  0  0  0
  185.4730  178.2350  144.7060 C   0  0  0  0  0  3  0  0  0  0  0  0
  187.0200  177.8500  146.6520 C   0  0  0  0  0  2  0  0  0  0  0  0
  186.5420  177.8370  143.7070 C   0  0  0  0  0  2  0  0  0  0  0  0
  188.9570  176.8440  143.6900 C   0  0  1  0  0  3  0  0  0  0  0  0
  185.7030  178.2810  146.0360 C   0  0  0  0  0  3  0  0  0  0  0  0
  189.9520  176.8440  144.8510 C   0  0  0  0  0  2  0  0  0  0  0  0
  187.6660  177.0870  144.4190 C   0  0  1  0  0  3  0  0  0  0  0  0
  1 18  1  1  0  0  0
  2 10  2  0  0  0  0
  3  9  2  0  0  0  0
  4  9  1  0  0  0  0
  4  7  1  0  0  0  0
  5 10  1  0  0  0  0
  5  1  1  0  0  0  0
  6  8  1  0  0  0  0
  8  5  2  0  0  0  0
  9 12  1  0  0  0  0
 11  6  2  0  0  0  0
 11  7  1  0  0  0  0
 12  8  1  0  0  0  0
 12  2  1  1  0  0  0
 14 13  1  6  0  0  0
 14  1  1  0  0  0  0
 15 16  1  0  0  0  0
 15 14  1  0  0  0  0
 16 17  3  0  0  0  0
 18 19  1  0  0  0  0
 19 20  1  0  0  0  0
 22 21  1  0  0  0  0
 22 24  1  1  0  0  0
 23 27  2  0  0  0  0
 25 23  1  0  0  0  0
 26 20  1  6  0  0  0
 26 29  1  0  0  0  0
 26 28  1  0  0  0  0
 27 24  1  0  0  0  0
 28 21  1  0  0  0  0
 29 25  1  6  0  0  0
 29 22  1  0  0  0  0
M  END
>  <MODEL>
2

>  <REMARK>
 VINA RESULT:      -7.6      2.504      3.791
  Name = 
  8 active torsions:
  status: ('A' for Active; 'I' for Inactive)
    1  A    between atoms: C_1  and  C_17
    2  A    between atoms: C_1  and  C_21
    3  A    between atoms: C_5  and  O_8
    4  A    between atoms: O_8  and  C_9
    5  A    between atoms: C_9  and  C_15
    6  A    between atoms: C_11  and  C_15
    7  A    between atoms: C_15  and  C_17
    8  A    between atoms: C_21  and  C_26
                            x       y       z     vdW  Elec       q    Type
                         _______ _______ _______ _____ _____    ______ ____

>  <TORSDO>
F 8

$$$$
=
 OpenBabel11062416213D

 29 32  0  0  1  0  0  0  0  0999 V2000
  186.1000  178.2250  142.1040 C   0  0  1  0  0  3  0  0  0  0  0  0
  185.4680  178.7120  145.6440 C   0  0  0  0  0  3  0  0  0  0  0  0
  187.3790  178.3090  147.8460 O   0  0  0  0  0  0  0  0  0  0  0  0
  188.9890  177.8220  146.2600 N   0  0  0  0  0  2  0  0  0  0  0  0
  186.0000  178.1210  143.5990 C   0  0  0  0  0  0  0  0  0  0  0  0
  187.7450  176.4380  143.8660 N   0  0  0  0  0  0  0  0  0  0  0  0
  189.4960  177.7940  144.8930 C   0  0  0  0  0  2  0  0  0  0  0  0
  186.7510  177.3410  144.3510 C   0  0  0  0  0  0  0  0  0  0  0  0
  187.6180  177.9570  146.6610 C   0  0  0  0  0  0  0  0  0  0  0  0
  185.2200  178.9930  144.4040 N   0  0  0  0  0  0  0  0  0  0  0  0
  189.0010  176.5980  144.1410 C   0  0  0  0  0  3  0  0  0  0  0  0
  186.4450  177.5830  145.7870 C   0  0  1  0  0  3  0  0  0  0  0  0
  183.8390  177.9410  141.3510 O   0  0  0  0  0  1  0  0  0  0  0  0
  184.8630  178.8800  141.4840 C   0  0  2  0  0  3  0  0  0  0  0  0
  185.1780  179.4070  140.2050 O   0  0  0  0  0  0  0  0  0  0  0  0
  184.9430  178.6670  139.0810 C   0  0  0  0  0  0  0  0  0  0  0  0
  184.7360  178.0140  138.0890 C   0  0  0  0  0  3  0  0  0  0  0  0
  187.4020  178.9150  141.6860 C   0  0  0  0  0  2  0  0  0  0  0  0
  188.3650  177.9670  140.9840 C   0  0  0  0  0  2  0  0  0  0  0  0
  188.4960  178.3290  139.5150 C   0  0  0  0  0  2  0  0  0  0  0  0
  190.4310  175.6510  138.7600 O   0  0  0  0  0  0  0  0  0  0  0  0
  189.6540  176.0850  137.6810 C   0  0  2  0  0  3  0  0  0  0  0  0
  188.8210  177.3660  135.3100 C   0  0  0  0  0  3  0  0  0  0  0  0
  190.0300  175.4270  136.3610 C   0  0  0  0  0  2  0  0  0  0  0  0
  188.8520  178.1570  136.6030 C   0  0  0  0  0  2  0  0  0  0  0  0
  189.8940  177.9950  138.9920 C   0  0  1  0  0  3  0  0  0  0  0  0
  189.3160  176.1130  135.2120 C   0  0  0  0  0  3  0  0  0  0  0  0
  190.4100  176.7290  139.6790 C   0  0  0  0  0  2  0  0  0  0  0  0
  189.8850  177.5570  137.5550 C   0  0  1  0  0  3  0  0  0  0  0  0
  1 18  1  1  0  0  0
  1  5  1  0  0  0  0
  4  9  1  0  0  0  0
  5  8  2  0  0  0  0
  5 10  1  0  0  0  0
  6 11  2  0  0  0  0
  6  8  1  0  0  0  0
  7  4  1  0  0  0  0
  8 12  1  0  0  0  0
  9  3  2  0  0  0  0
 10  2  2  0  0  0  0
 11  7  1  0  0  0  0
 12  2  1  6  0  0  0
 12  9  1  0  0  0  0
 14 13  1  6  0  0  0
 14  1  1  0  0  0  0
 15 14  1  0  0  0  0
 16 15  1  0  0  0  0
 17 16  3  0  0  0  0
 19 18  1  0  0  0  0
 20 19  1  0  0  0  0
 21 28  1  0  0  0  0
 22 24  1  6  0  0  0
 22 21  1  0  0  0  0
 23 25  1  0  0  0  0
 26 20  1  1  0  0  0
 26 28  1  0  0  0  0
 27 23  2  0  0  0  0
 27 24  1  0  0  0  0
 29 25  1  6  0  0  0
 29 22  1  0  0  0  0
 29 26  1  0  0  0  0
M  END
>  <MODEL>
3

>  <REMARK>
 VINA RESULT:      -7.6      3.028      8.425
  Name = 
  8 active torsions:
  status: ('A' for Active; 'I' for Inactive)
    1  A    between atoms: C_1  and  C_17
    2  A    between atoms: C_1  and  C_21
    3  A    between atoms: C_5  and  O_8
    4  A    between atoms: O_8  and  C_9
    5  A    between atoms: C_9  and  C_15
    6  A    between atoms: C_11  and  C_15
    7  A    between atoms: C_15  and  C_17
    8  A    between atoms: C_21  and  C_26
                            x       y       z     vdW  Elec       q    Type
                         _______ _______ _______ _____ _____    ______ ____

>  <TORSDO>
F 8

$$$$
=
 OpenBabel11062416213D

 29 32  0  0  1  0  0  0  0  0999 V2000
  190.3230  176.8430  140.2490 C   0  0  1  0  0  3  0  0  0  0  0  0
  188.9930  178.8160  137.5080 C   0  0  0  0  0  3  0  0  0  0  0  0
  187.7690  177.7940  135.0350 O   0  0  0  0  0  0  0  0  0  0  0  0
  188.0210  175.6570  135.8810 N   0  0  0  0  0  2  0  0  0  0  0  0
  189.9490  177.4340  138.9200 C   0  0  0  0  0  0  0  0  0  0  0  0
  190.5220  175.4730  137.5870 N   0  0  0  0  0  0  0  0  0  0  0  0
  188.2880  174.7130  136.9590 C   0  0  0  0  0  2  0  0  0  0  0  0
  190.0280  176.8000  137.7650 C   0  0  0  0  0  0  0  0  0  0  0  0
  188.3610  177.0520  135.8620 C   0  0  0  0  0  0  0  0  0  0  0  0
  189.2820  178.6780  138.7630 N   0  0  0  0  0  0  0  0  0  0  0  0
  189.7560  174.5130  137.1730 C   0  0  0  0  0  3  0  0  0  0  0  0
  189.4730  177.6580  136.6840 C   0  0  1  0  0  3  0  0  0  0  0  0
  192.6450  177.4450  140.1890 O   0  0  0  0  0  1  0  0  0  0  0  0
  191.4670  177.6060  140.9210 C   0  0  2  0  0  3  0  0  0  0  0  0
  191.6710  177.1210  142.2390 O   0  0  0  0  0  0  0  0  0  0  0  0
  191.6980  177.9910  143.2930 C   0  0  0  0  0  0  0  0  0  0  0  0
  191.7210  178.7570  144.2230 C   0  0  0  0  0  3  0  0  0  0  0  0
  189.0960  176.7070  141.1550 C   0  0  0  0  0  2  0  0  0  0  0  0
  188.3550  178.0260  141.3340 C   0  0  0  0  0  2  0  0  0  0  0  0
  188.2540  178.3870  142.8060 C   0  0  0  0  0  2  0  0  0  0  0  0
  187.7580  177.4340  146.0200 O   0  0  0  0  0  0  0  0  0  0  0  0
  186.6930  178.1760  145.5000 C   0  0  2  0  0  3  0  0  0  0  0  0
  184.2320  178.8840  144.3180 C   0  0  0  0  0  3  0  0  0  0  0  0
  185.4620  178.1770  146.3950 C   0  0  0  0  0  2  0  0  0  0  0  0
  185.3830  178.4620  143.4270 C   0  0  0  0  0  2  0  0  0  0  0  0
  187.6750  177.2250  143.6150 C   0  0  1  0  0  3  0  0  0  0  0  0
  184.2850  178.7940  145.6650 C   0  0  0  0  0  3  0  0  0  0  0  0
  188.5020  177.0230  144.8860 C   0  0  0  0  0  2  0  0  0  0  0  0
  186.3270  177.5400  144.1970 C   0  0  1  0  0  3  0  0  0  0  0  0
  1 14  1  0  0  0  0
  1 18  1  1  0  0  0
  2 10  2  0  0  0  0
  3  9  2  0  0  0  0
  4  7  1  0  0  0  0
  5  1  1  0  0  0  0
  6  8  1  0  0  0  0
  7 11  1  0  0  0  0
  8  5  2  0  0  0  0
  9  4  1  0  0  0  0
  9 12  1  0  0  0  0
 10  5  1  0  0  0  0
 11  6  2  0  0  0  0
 12  2  1  1  0  0  0
 12  8  1  0  0  0  0
 14 13  1  6  0  0  0
 14 15  1  0  0  0  0
 15 16  1  0  0  0  0
 16 17  3  0  0  0  0
 18 19  1  0  0  0  0
 19 20  1  0  0  0  0
 22 21  1  0  0  0  0
 22 24  1  1  0  0  0
 23 27  2  0  0  0  0
 25 23  1  0  0  0  0
 26 20  1  1  0  0  0
 26 29  1  0  0  0  0
 26 28  1  0  0  0  0
 27 24  1  0  0  0  0
 28 21  1  0  0  0  0
 29 25  1  6  0  0  0
 29 22  1  0  0  0  0
M  END
>  <MODEL>
4

>  <REMARK>
 VINA RESULT:      -7.5      1.076      1.972
  Name = 
  8 active torsions:
  status: ('A' for Active; 'I' for Inactive)
    1  A    between atoms: C_1  and  C_17
    2  A    between atoms: C_1  and  C_21
    3  A    between atoms: C_5  and  O_8
    4  A    between atoms: O_8  and  C_9
    5  A    between atoms: C_9  and  C_15
    6  A    between atoms: C_11  and  C_15
    7  A    between atoms: C_15  and  C_17
    8  A    between atoms: C_21  and  C_26
                            x       y       z     vdW  Elec       q    Type
                         _______ _______ _______ _____ _____    ______ ____

>  <TORSDO>
F 8

$$$$
=
 OpenBabel11062416213D

 29 32  0  0  1  0  0  0  0  0999 V2000
  188.9330  177.4180  142.7200 C   0  0  1  0  0  3  0  0  0  0  0  0
  191.7850  175.6360  144.0870 C   0  0  0  0  0  3  0  0  0  0  0  0
  192.4320  175.2690  146.9340 O   0  0  0  0  0  0  0  0  0  0  0  0
  190.4630  176.3670  147.4470 N   0  0  0  0  0  2  0  0  0  0  0  0
  190.1380  176.9590  143.4910 C   0  0  0  0  0  0  0  0  0  0  0  0
  189.8510  178.4890  145.3680 N   0  0  0  0  0  0  0  0  0  0  0  0
  189.1570  176.9160  147.1020 C   0  0  0  0  0  2  0  0  0  0  0  0
  190.5080  177.4340  144.6650 C   0  0  0  0  0  0  0  0  0  0  0  0
  191.5220  176.0420  146.5340 C   0  0  0  0  0  0  0  0  0  0  0  0
  190.9180  175.8240  143.1430 N   0  0  0  0  0  0  0  0  0  0  0  0
  189.2690  178.2850  146.5080 C   0  0  0  0  0  3  0  0  0  0  0  0
  191.6790  176.6690  145.1700 C   0  0  1  0  0  3  0  0  0  0  0  0
  190.3710  177.5060  140.8010 O   0  0  0  0  0  1  0  0  0  0  0  0
  189.0800  177.1750  141.2160 C   0  0  2  0  0  3  0  0  0  0  0  0
  188.1450  177.9650  140.4990 O   0  0  0  0  0  0  0  0  0  0  0  0
  188.1510  177.9640  139.1330 C   0  0  0  0  0  0  0  0  0  0  0  0
  188.1550  177.9640  137.9270 C   0  0  0  0  0  3  0  0  0  0  0  0
  187.6510  176.8080  143.2910 C   0  0  0  0  0  2  0  0  0  0  0  0
  186.7720  177.8420  143.9840 C   0  0  0  0  0  2  0  0  0  0  0  0
  185.3330  177.7250  143.5080 C   0  0  0  0  0  2  0  0  0  0  0  0
  183.7800  178.9140  140.7410 O   0  0  0  0  0  0  0  0  0  0  0  0
  182.8870  178.5450  141.7530 C   0  0  2  0  0  3  0  0  0  0  0  0
  181.1310  178.6430  143.9570 C   0  0  0  0  0  3  0  0  0  0  0  0
  181.4550  178.9850  141.4870 C   0  0  0  0  0  2  0  0  0  0  0  0
  182.6260  178.6270  144.2070 C   0  0  0  0  0  2  0  0  0  0  0  0
  184.8500  179.0440  142.9030 C   0  0  1  0  0  3  0  0  0  0  0  0
  180.6010  178.7630  142.7200 C   0  0  0  0  0  3  0  0  0  0  0  0
  185.0380  179.0120  141.3860 C   0  0  0  0  0  2  0  0  0  0  0  0
  183.3610  179.2140  143.0030 C   0  0  1  0  0  3  0  0  0  0  0  0
  1 18  1  1  0  0  0
  1  5  1  0  0  0  0
  5  8  2  0  0  0  0
  6 11  2  0  0  0  0
  7  4  1  0  0  0  0
  8 12  1  0  0  0  0
  8  6  1  0  0  0  0
  9  3  2  0  0  0  0
  9  4  1  0  0  0  0
 10  5  1  0  0  0  0
 10  2  2  0  0  0  0
 11  7  1  0  0  0  0
 12  2  1  6  0  0  0
 12  9  1  0  0  0  0
 14 13  1  6  0  0  0
 14  1  1  0  0  0  0
 15 14  1  0  0  0  0
 16 15  1  0  0  0  0
 17 16  3  0  0  0  0
 18 19  1  0  0  0  0
 20 19  1  0  0  0  0
 21 28  1  0  0  0  0
 21 22  1  0  0  0  0
 22 24  1  6  0  0  0
 22 29  1  0  0  0  0
 23 25  1  0  0  0  0
 24 27  1  0  0  0  0
 26 29  1  0  0  0  0
 26 20  1  1  0  0  0
 27 23  2  0  0  0  0
 28 26  1  0  0  0  0
 29 25  1  1  0  0  0
M  END
>  <MODEL>
5

>  <REMARK>
 VINA RESULT:      -7.4      3.717      7.054
  Name = 
  8 active torsions:
  status: ('A' for Active; 'I' for Inactive)
    1  A    between atoms: C_1  and  C_17
    2  A    between atoms: C_1  and  C_21
    3  A    between atoms: C_5  and  O_8
    4  A    between atoms: O_8  and  C_9
    5  A    between atoms: C_9  and  C_15
    6  A    between atoms: C_11  and  C_15
    7  A    between atoms: C_15  and  C_17
    8  A    between atoms: C_21  and  C_26
                            x       y       z     vdW  Elec       q    Type
                         _______ _______ _______ _____ _____    ______ ____

>  <TORSDO>
F 8

$$$$
=
 OpenBabel11062416213D

 29 32  0  0  1  0  0  0  0  0999 V2000
  186.2880  178.6440  139.5880 C   0  0  1  0  0  3  0  0  0  0  0  0
  185.3380  176.6530  136.7060 C   0  0  0  0  0  3  0  0  0  0  0  0
  187.1240  175.6470  134.5940 O   0  0  0  0  0  0  0  0  0  0  0  0
  188.8980  176.5530  135.7670 N   0  0  0  0  0  2  0  0  0  0  0  0
  186.0980  178.0430  138.2250 C   0  0  0  0  0  0  0  0  0  0  0  0
  188.0480  179.0880  137.1990 N   0  0  0  0  0  0  0  0  0  0  0  0
  189.5010  177.1400  136.9580 C   0  0  0  0  0  2  0  0  0  0  0  0
  186.9000  178.2400  137.1960 C   0  0  0  0  0  0  0  0  0  0  0  0
  187.4970  176.4720  135.4690 C   0  0  0  0  0  0  0  0  0  0  0  0
  185.1410  177.0370  137.9270 N   0  0  0  0  0  0  0  0  0  0  0  0
  189.2440  178.6120  137.0430 C   0  0  0  0  0  3  0  0  0  0  0  0
  186.4580  177.4030  136.0480 C   0  0  1  0  0  3  0  0  0  0  0  0
  184.3060  179.9930  139.5160 O   0  0  0  0  0  1  0  0  0  0  0  0
  184.9580  179.0040  140.2540 C   0  0  2  0  0  3  0  0  0  0  0  0
  185.1840  179.4810  141.5710 O   0  0  0  0  0  0  0  0  0  0  0  0
  184.4150  179.0280  142.6060 C   0  0  0  0  0  0  0  0  0  0  0  0
  183.7380  178.6290  143.5190 C   0  0  0  0  0  3  0  0  0  0  0  0
  187.1610  177.7440  140.4670 C   0  0  0  0  0  2  0  0  0  0  0  0
  188.5390  178.3400  140.7250 C   0  0  0  0  0  2  0  0  0  0  0  0
  188.7570  178.5600  142.2120 C   0  0  0  0  0  2  0  0  0  0  0  0
  190.8620  177.5290  144.6590 O   0  0  0  0  0  0  0  0  0  0  0  0
  189.5770  177.8150  145.1290 C   0  0  2  0  0  3  0  0  0  0  0  0
  186.9030  177.5400  145.9850 C   0  0  0  0  0  3  0  0  0  0  0  0
  189.3440  177.3670  146.5660 C   0  0  0  0  0  2  0  0  0  0  0  0
  187.2020  177.5660  144.4990 C   0  0  0  0  0  2  0  0  0  0  0  0
  189.2380  177.2760  142.8900 C   0  0  1  0  0  3  0  0  0  0  0  0
  187.8750  177.4930  146.9220 C   0  0  0  0  0  3  0  0  0  0  0  0
  190.7170  177.4120  143.2550 C   0  0  0  0  0  2  0  0  0  0  0  0
  188.6260  177.0720  144.2460 C   0  0  1  0  0  3  0  0  0  0  0  0
  1 14  1  0  0  0  0
  1 18  1  1  0  0  0
  2 10  2  0  0  0  0
  3  9  2  0  0  0  0
  4  7  1  0  0  0  0
  5  1  1  0  0  0  0
  7 11  1  0  0  0  0
  8  6  1  0  0  0  0
  8  5  2  0  0  0  0
  9  4  1  0  0  0  0
  9 12  1  0  0  0  0
 10  5  1  0  0  0  0
 11  6  2  0  0  0  0
 12  2  1  1  0  0  0
 12  8  1  0  0  0  0
 14 13  1  6  0  0  0
 14 15  1  0  0  0  0
 15 16  1  0  0  0  0
 16 17  3  0  0  0  0
 18 19  1  0  0  0  0
 19 20  1  0  0  0  0
 21 22  1  0  0  0  0
 22 24  1  1  0  0  0
 23 27  2  0  0  0  0
 24 27  1  0  0  0  0
 25 23  1  0  0  0  0
 26 20  1  1  0  0  0
 26 28  1  0  0  0  0
 26 29  1  0  0  0  0
 28 21  1  0  0  0  0
 29 25  1  6  0  0  0
 29 22  1  0  0  0  0
M  END
>  <MODEL>
6

>  <REMARK>
 VINA RESULT:      -7.4      2.443      4.307
  Name = 
  8 active torsions:
  status: ('A' for Active; 'I' for Inactive)
    1  A    between atoms: C_1  and  C_17
    2  A    between atoms: C_1  and  C_21
    3  A    between atoms: C_5  and  O_8
    4  A    between atoms: O_8  and  C_9
    5  A    between atoms: C_9  and  C_15
    6  A    between atoms: C_11  and  C_15
    7  A    between atoms: C_15  and  C_17
    8  A    between atoms: C_21  and  C_26
                            x       y       z     vdW  Elec       q    Type
                         _______ _______ _______ _____ _____    ______ ____

>  <TORSDO>
F 8

$$$$
=
 OpenBabel11062416213D

 29 32  0  0  1  0  0  0  0  0999 V2000
  189.8290  176.5220  142.2440 C   0  0  1  0  0  3  0  0  0  0  0  0
  188.1350  178.9990  140.2020 C   0  0  0  0  0  3  0  0  0  0  0  0
  187.7160  178.8920  137.2910 O   0  0  0  0  0  0  0  0  0  0  0  0
  188.7110  176.8060  137.2990 N   0  0  0  0  0  2  0  0  0  0  0  0
  189.4020  177.5030  141.1900 C   0  0  0  0  0  0  0  0  0  0  0  0
  190.8630  176.6570  139.4300 N   0  0  0  0  0  0  0  0  0  0  0  0
  189.2120  175.6110  137.9670 C   0  0  0  0  0  2  0  0  0  0  0  0
  189.8590  177.5270  139.9530 C   0  0  0  0  0  0  0  0  0  0  0  0
  188.4590  178.0820  137.9040 C   0  0  0  0  0  0  0  0  0  0  0  0
  188.3120  178.4020  141.3380 N   0  0  0  0  0  0  0  0  0  0  0  0
  190.6010  175.8060  138.4880 C   0  0  0  0  0  3  0  0  0  0  0  0
  189.1310  178.5610  139.1690 C   0  0  1  0  0  3  0  0  0  0  0  0
  192.0320  177.4500  142.0380 O   0  0  0  0  0  1  0  0  0  0  0  0
  191.1070  176.9620  142.9620 C   0  0  2  0  0  3  0  0  0  0  0  0
  191.6800  175.8670  143.6570 O   0  0  0  0  0  0  0  0  0  0  0  0
  191.8790  175.9390  145.0070 C   0  0  0  0  0  0  0  0  0  0  0  0
  192.0550  176.0030  146.1980 C   0  0  0  0  0  3  0  0  0  0  0  0
  188.6830  176.2230  143.2130 C   0  0  0  0  0  2  0  0  0  0  0  0
  188.8450  176.9410  144.5470 C   0  0  0  0  0  2  0  0  0  0  0  0
  187.7880  178.0210  144.7050 C   0  0  0  0  0  2  0  0  0  0  0  0
  185.0850  179.0190  146.4880 O   0  0  0  0  0  0  0  0  0  0  0  0
  184.8880  179.1000  145.1060 C   0  0  2  0  0  3  0  0  0  0  0  0
  184.1230  178.4980  142.4590 C   0  0  0  0  0  3  0  0  0  0  0  0
  183.4420  179.3750  144.7160 C   0  0  0  0  0  2  0  0  0  0  0  0
  185.3850  177.8750  143.0210 C   0  0  0  0  0  2  0  0  0  0  0  0
  186.5170  177.4520  145.3360 C   0  0  1  0  0  3  0  0  0  0  0  0
  183.2650  179.2140  143.2190 C   0  0  0  0  0  3  0  0  0  0  0  0
  186.2200  178.1850  146.6450 C   0  0  0  0  0  2  0  0  0  0  0  0
  185.2830  177.7730  144.5420 C   0  0  1  0  0  3  0  0  0  0  0  0
  1 14  1  0  0  0  0
  1 18  1  1  0  0  0
  2 10  2  0  0  0  0
  3  9  2  0  0  0  0
  4  9  1  0  0  0  0
  4  7  1  0  0  0  0
  5 10  1  0  0  0  0
  5  1  1  0  0  0  0
  6  8  1  0  0  0  0
  7 11  1  0  0  0  0
  8  5  2  0  0  0  0
  9 12  1  0  0  0  0
 11  6  2  0  0  0  0
 12  8  1  0  0  0  0
 12  2  1  1  0  0  0
 14 13  1  6  0  0  0
 14 15  1  0  0  0  0
 15 16  1  0  0  0  0
 16 17  3  0  0  0  0
 18 19  1  0  0  0  0
 19 20  1  0  0  0  0
 21 28  1  0  0  0  0
 22 24  1  1  0  0  0
 22 21  1  0  0  0  0
 23 25  1  0  0  0  0
 23 27  2  0  0  0  0
 26 20  1  6  0  0  0
 26 28  1  0  0  0  0
 27 24  1  0  0  0  0
 29 25  1  6  0  0  0
 29 22  1  0  0  0  0
 29 26  1  0  0  0  0
M  END
>  <MODEL>
7

>  <REMARK>
 VINA RESULT:      -7.4      1.864      3.064
  Name = 
  8 active torsions:
  status: ('A' for Active; 'I' for Inactive)
    1  A    between atoms: C_1  and  C_17
    2  A    between atoms: C_1  and  C_21
    3  A    between atoms: C_5  and  O_8
    4  A    between atoms: O_8  and  C_9
    5  A    between atoms: C_9  and  C_15
    6  A    between atoms: C_11  and  C_15
    7  A    between atoms: C_15  and  C_17
    8  A    between atoms: C_21  and  C_26
                            x       y       z     vdW  Elec       q    Type
                         _______ _______ _______ _____ _____    ______ ____

>  <TORSDO>
F 8

$$$$
=
 OpenBabel11062416213D

 29 32  0  0  1  0  0  0  0  0999 V2000
  189.6490  176.8160  140.3720 C   0  0  1  0  0  3  0  0  0  0  0  0
  191.5950  176.2120  137.3680 C   0  0  0  0  0  3  0  0  0  0  0  0
  190.7640  176.7480  134.5960 O   0  0  0  0  0  0  0  0  0  0  0  0
  188.8060  177.6470  135.4340 N   0  0  0  0  0  2  0  0  0  0  0  0
  190.1570  176.4300  139.0120 C   0  0  0  0  0  0  0  0  0  0  0  0
  187.9660  176.2020  137.9650 N   0  0  0  0  0  0  0  0  0  0  0  0
  187.9770  178.1660  136.5150 C   0  0  0  0  0  2  0  0  0  0  0  0
  189.3940  176.1850  137.9650 C   0  0  0  0  0  0  0  0  0  0  0  0
  189.9730  176.8230  135.5720 C   0  0  0  0  0  0  0  0  0  0  0  0
  191.5260  176.4710  138.6350 N   0  0  0  0  0  0  0  0  0  0  0  0
  187.2970  177.0680  137.2710 C   0  0  0  0  0  3  0  0  0  0  0  0
  190.2450  175.9430  136.7690 C   0  0  1  0  0  3  0  0  0  0  0  0
  190.2120  175.7890  142.4670 O   0  0  0  0  0  1  0  0  0  0  0  0
  190.7070  176.6220  141.4620 C   0  0  2  0  0  3  0  0  0  0  0  0
  191.0600  177.8730  142.0290 O   0  0  0  0  0  0  0  0  0  0  0  0
  191.3560  177.9650  143.3600 C   0  0  0  0  0  0  0  0  0  0  0  0
  191.6180  178.0460  144.5330 C   0  0  0  0  0  3  0  0  0  0  0  0
  189.0700  178.2320  140.3610 C   0  0  0  0  0  2  0  0  0  0  0  0
  187.6640  178.2920  140.9450 C   0  0  0  0  0  2  0  0  0  0  0  0
  187.7130  178.6560  142.4200 C   0  0  0  0  0  2  0  0  0  0  0  0
  187.1420  177.8820  145.6690 O   0  0  0  0  0  0  0  0  0  0  0  0
  186.0570  178.5230  145.0610 C   0  0  2  0  0  3  0  0  0  0  0  0
  183.6100  179.0000  143.7440 C   0  0  0  0  0  3  0  0  0  0  0  0
  184.7920  178.5050  145.9080 C   0  0  0  0  0  2  0  0  0  0  0  0
  184.8190  178.5930  142.9260 C   0  0  0  0  0  2  0  0  0  0  0  0
  187.1710  177.5150  143.2820 C   0  0  1  0  0  3  0  0  0  0  0  0
  183.6120  179.0010  145.0950 C   0  0  0  0  0  3  0  0  0  0  0  0
  187.9550  177.4460  144.5940 C   0  0  0  0  0  2  0  0  0  0  0  0
  185.7830  177.7830  143.7910 C   0  0  1  0  0  3  0  0  0  0  0  0
  1 18  1  6  0  0  0
  1 14  1  0  0  0  0
  2 10  2  0  0  0  0
  3  9  2  0  0  0  0
  4  9  1  0  0  0  0
  4  7  1  0  0  0  0
  5  1  1  0  0  0  0
  6  8  1  0  0  0  0
  7 11  1  0  0  0  0
  8  5  2  0  0  0  0
  9 12  1  0  0  0  0
 10  5  1  0  0  0  0
 11  6  2  0  0  0  0
 12  2  1  1  0  0  0
 12  8  1  0  0  0  0
 14 15  1  0  0  0  0
 14 13  1  1  0  0  0
 15 16  1  0  0  0  0
 16 17  3  0  0  0  0
 18 19  1  0  0  0  0
 19 20  1  0  0  0  0
 22 21  1  0  0  0  0
 22 24  1  1  0  0  0
 23 27  2  0  0  0  0
 25 23  1  0  0  0  0
 26 20  1  6  0  0  0
 26 29  1  0  0  0  0
 26 28  1  0  0  0  0
 27 24  1  0  0  0  0
 28 21  1  0  0  0  0
 29 25  1  6  0  0  0
 29 22  1  0  0  0  0
M  END
>  <MODEL>
8

>  <REMARK>
 VINA RESULT:      -7.3      1.806      2.939
  Name = 
  8 active torsions:
  status: ('A' for Active; 'I' for Inactive)
    1  A    between atoms: C_1  and  C_17
    2  A    between atoms: C_1  and  C_21
    3  A    between atoms: C_5  and  O_8
    4  A    between atoms: O_8  and  C_9
    5  A    between atoms: C_9  and  C_15
    6  A    between atoms: C_11  and  C_15
    7  A    between atoms: C_15  and  C_17
    8  A    between atoms: C_21  and  C_26
                            x       y       z     vdW  Elec       q    Type
                         _______ _______ _______ _____ _____    ______ ____

>  <TORSDO>
F 8

$$$$
=
 OpenBabel11062416213D

 29 32  0  0  1  0  0  0  0  0999 V2000
  188.4530  177.5900  139.0020 C   0  0  1  0  0  3  0  0  0  0  0  0
  184.9760  178.3640  138.3030 C   0  0  0  0  0  3  0  0  0  0  0  0
  183.0290  176.6350  136.9310 O   0  0  0  0  0  0  0  0  0  0  0  0
  184.6620  175.0010  136.8320 N   0  0  0  0  0  2  0  0  0  0  0  0
  187.0910  177.7840  138.3990 C   0  0  0  0  0  0  0  0  0  0  0  0
  187.4070  176.2520  136.5280 N   0  0  0  0  0  0  0  0  0  0  0  0
  185.9430  174.4240  137.2190 C   0  0  0  0  0  2  0  0  0  0  0  0
  186.6500  177.1670  137.3200 C   0  0  0  0  0  0  0  0  0  0  0  0
  184.2590  176.3700  136.9860 C   0  0  0  0  0  0  0  0  0  0  0  0
  186.0420  178.5090  139.0240 N   0  0  0  0  0  0  0  0  0  0  0  0
  187.0750  175.0030  136.4280 C   0  0  0  0  0  3  0  0  0  0  0  0
  185.2260  177.5250  137.0840 C   0  0  1  0  0  3  0  0  0  0  0  0
  188.9370  179.5490  137.7040 O   0  0  0  0  0  1  0  0  0  0  0  0
  189.5220  178.4330  138.3030 C   0  0  2  0  0  3  0  0  0  0  0  0
  190.1790  177.6630  137.3090 O   0  0  0  0  0  0  0  0  0  0  0  0
  190.9310  176.5790  137.6650 C   0  0  0  0  0  0  0  0  0  0  0  0
  191.5940  175.6230  137.9780 C   0  0  0  0  0  3  0  0  0  0  0  0
  188.4210  177.8180  140.5160 C   0  0  0  0  0  2  0  0  0  0  0  0
  189.5440  177.0860  141.2390 C   0  0  0  0  0  2  0  0  0  0  0  0
  189.0940  176.6520  142.6240 C   0  0  0  0  0  2  0  0  0  0  0  0
  187.6230  177.5440  145.5440 O   0  0  0  0  0  0  0  0  0  0  0  0
  188.8980  176.9970  145.7190 C   0  0  2  0  0  3  0  0  0  0  0  0
  191.6800  176.7250  146.0900 C   0  0  0  0  0  3  0  0  0  0  0  0
  189.4330  177.1510  147.1360 C   0  0  0  0  0  2  0  0  0  0  0  0
  191.1460  176.9990  144.6980 C   0  0  0  0  0  2  0  0  0  0  0  0
  188.9590  177.8570  143.5570 C   0  0  1  0  0  3  0  0  0  0  0  0
  190.8950  176.7530  147.1890 C   0  0  0  0  0  3  0  0  0  0  0  0
  187.5580  177.8790  144.1690 C   0  0  0  0  0  2  0  0  0  0  0  0
  189.8090  177.7320  144.7890 C   0  0  1  0  0  3  0  0  0  0  0  0
  1 18  1  1  0  0  0
  2 10  2  0  0  0  0
  3  9  2  0  0  0  0
  4  9  1  0  0  0  0
  4  7  1  0  0  0  0
  5  1  1  0  0  0  0
  5 10  1  0  0  0  0
  6  8  1  0  0  0  0
  8  5  2  0  0  0  0
  9 12  1  0  0  0  0
 11  6  2  0  0  0  0
 11  7  1  0  0  0  0
 12  8  1  0  0  0  0
 12  2  1  1  0  0  0
 14 13  1  6  0  0  0
 14  1  1  0  0  0  0
 15 16  1  0  0  0  0
 15 14  1  0  0  0  0
 16 17  3  0  0  0  0
 18 19  1  0  0  0  0
 19 20  1  0  0  0  0
 21 22  1  0  0  0  0
 22 24  1  1  0  0  0
 23 27  2  0  0  0  0
 24 27  1  0  0  0  0
 25 23  1  0  0  0  0
 26 20  1  6  0  0  0
 26 28  1  0  0  0  0
 26 29  1  0  0  0  0
 28 21  1  0  0  0  0
 29 25  1  6  0  0  0
 29 22  1  0  0  0  0
M  END
>  <MODEL>
9

>  <REMARK>
 VINA RESULT:      -7.3      2.489      3.620
  Name = 
  8 active torsions:
  status: ('A' for Active; 'I' for Inactive)
    1  A    between atoms: C_1  and  C_17
    2  A    between atoms: C_1  and  C_21
    3  A    between atoms: C_5  and  O_8
    4  A    between atoms: O_8  and  C_9
    5  A    between atoms: C_9  and  C_15
    6  A    between atoms: C_11  and  C_15
    7  A    between atoms: C_15  and  C_17
    8  A    between atoms: C_21  and  C_26
                            x       y       z     vdW  Elec       q    Type
                         _______ _______ _______ _____ _____    ______ ____

>  <TORSDO>
F 8

$$$$
