=
 OpenBabel11062416043D

 36 39  0  0  1  0  0  0  0  0999 V2000
  189.8860  177.2410  139.9280 C   0  0  0  0  0  0  0  0  0  0  0  0
  189.7070  176.7370  138.6190 C   0  0  0  0  0  0  0  0  0  0  0  0
  187.7770  178.4410  139.7530 C   0  0  0  0  0  3  0  0  0  0  0  0
  188.5480  177.0920  137.9080 C   0  0  0  0  0  3  0  0  0  0  0  0
  188.9160  178.0940  140.4800 C   0  0  0  0  0  3  0  0  0  0  0  0
  187.5890  177.9470  138.4640 C   0  0  0  0  0  0  0  0  0  0  0  0
  190.7010  175.8460  137.9660 C   0  0  0  0  0  0  0  0  0  0  0  0
  190.5740  174.5920  138.0150 O   0  0  0  0  0  0  0  0  0  0  0  0
  191.8670  176.4100  137.2120 C   0  0  0  0  0  2  0  0  0  0  0  0
  193.1550  176.2500  138.0050 C   0  0  0  0  0  2  0  0  0  0  0  0
  194.1500  175.4030  137.2380 C   0  0  0  0  0  2  0  0  0  0  0  0
  195.2460  175.1190  138.0540 O   0  0  0  0  0  1  0  0  0  0  0  0
  191.0090  176.8670  140.6790 O   0  0  0  0  0  0  0  0  0  0  0  0
  191.4670  177.5870  141.8190 C   0  0  0  0  0  2  0  0  0  0  0  0
  191.5100  176.6860  143.0430 C   0  0  1  0  0  3  0  0  0  0  0  0
  189.1080  176.0870  143.5170 C   0  0  0  0  0  2  0  0  0  0  0  0
  190.6530  176.8220  145.3080 O   0  0  0  0  0  0  0  0  0  0  0  0
  191.3140  177.5470  144.2940 C   0  0  0  0  0  2  0  0  0  0  0  0
  189.2910  176.6480  144.9420 C   0  0  1  0  0  3  0  0  0  0  0  0
  190.4350  175.5950  142.9450 C   0  0  0  0  0  2  0  0  0  0  0  0
  187.3980  178.0320  144.1650 N   0  0  0  0  0  2  0  0  0  0  0  0
  186.1420  177.6900  144.8130 C   0  0  0  0  0  2  0  0  0  0  0  0
  187.7980  178.0010  146.8490 S   0  0  0  0  0  0  0  0  0  0  0  0
  186.1470  178.2940  146.1910 C   0  0  0  0  0  2  0  0  0  0  0  0
  188.4730  177.9280  145.1520 C   0  0  1  0  0  3  0  0  0  0  0  0
  186.3060  178.2510  137.7550 C   0  0  0  0  0  2  0  0  0  0  0  0
  183.1750  177.9690  139.9370 N   0  0  0  0  0  2  0  0  0  0  0  0
  185.1490  177.7210  138.4670 N   0  0  0  0  0  2  0  0  0  0  0  0
  184.3480  178.5300  139.3320 C   0  0  0  0  0  0  0  0  0  0  0  0
  184.6630  179.7340  139.5290 O   0  0  0  0  0  0  0  0  0  0  0  0
  181.1070  179.2300  140.4750 C   0  0  0  0  0  3  0  0  0  0  0  0
  182.3040  178.6200  140.8750 C   0  0  0  0  0  0  0  0  0  0  0  0
  180.2970  179.8520  141.4280 C   0  0  0  0  0  3  0  0  0  0  0  0
  182.6640  178.6490  142.2250 C   0  0  0  0  0  3  0  0  0  0  0  0
  180.6720  179.8650  142.7360 N   0  0  0  0  0  0  0  0  0  0  0  0
  181.8280  179.2820  143.1490 C   0  0  0  0  0  3  0  0  0  0  0  0
  1  5  1  0  0  0  0
  1 13  1  0  0  0  0
  2  1  2  0  0  0  0
  3  5  2  0  0  0  0
  4  6  2  0  0  0  0
  4  2  1  0  0  0  0
  6  3  1  0  0  0  0
  7  8  2  0  0  0  0
  7  2  1  0  0  0  0
  9  7  1  0  0  0  0
  9 10  1  0  0  0  0
 11 10  1  0  0  0  0
 11 12  1  0  0  0  0
 13 14  1  0  0  0  0
 15 14  1  6  0  0  0
 15 18  1  0  0  0  0
 18 17  1  0  0  0  0
 19 16  1  6  0  0  0
 19 25  1  0  0  0  0
 19 17  1  0  0  0  0
 20 15  1  0  0  0  0
 20 16  1  0  0  0  0
 21 22  1  0  0  0  0
 22 24  1  0  0  0  0
 24 23  1  0  0  0  0
 25 21  1  6  0  0  0
 25 23  1  0  0  0  0
 26  6  1  0  0  0  0
 26 28  1  0  0  0  0
 27 32  1  0  0  0  0
 28 29  1  0  0  0  0
 29 30  2  0  0  0  0
 29 27  1  0  0  0  0
 31 32  2  0  0  0  0
 31 33  1  0  0  0  0
 32 34  1  0  0  0  0
 33 35  2  0  0  0  0
 34 36  2  0  0  0  0
 35 36  1  0  0  0  0
M  END
>  <MODEL>
1

>  <REMARK>
 VINA RESULT:      -7.5      0.000      0.000
  Name = 
  11 active torsions:
  status: ('A' for Active; 'I' for Inactive)
    1  A    between atoms: N_1  and  C_18
    2  A    between atoms: C_2  and  C_23
    3  A    between atoms: C_4  and  C_13
    4  A    between atoms: C_4  and  C_35
    5  A    between atoms: C_7  and  O_12
    6  A    between atoms: C_8  and  C_9
    7  A    between atoms: C_9  and  O_12
    8  A    between atoms: N_11  and  C_27
    9  A    between atoms: C_23  and  C_35
   10  A    between atoms: C_27  and  C_34
   11  A    between atoms: C_28  and  C_33
                            x       y       z     vdW  Elec       q    Type
                         _______ _______ _______ _____ _____    ______ ____

>  <TORSDO>
F 11

$$$$
=
 OpenBabel11062416043D

 36 39  0  0  1  0  0  0  0  0999 V2000
  183.2270  178.5690  142.0570 C   0  0  0  0  0  0  0  0  0  0  0  0
  182.3550  178.8930  143.1220 C   0  0  0  0  0  0  0  0  0  0  0  0
  185.0650  178.3360  143.6350 C   0  0  0  0  0  3  0  0  0  0  0  0
  182.8630  178.9170  144.4320 C   0  0  0  0  0  3  0  0  0  0  0  0
  184.5780  178.2980  142.3270 C   0  0  0  0  0  3  0  0  0  0  0  0
  184.2120  178.6490  144.6920 C   0  0  0  0  0  0  0  0  0  0  0  0
  180.9190  179.2100  142.9070 C   0  0  0  0  0  0  0  0  0  0  0  0
  180.5310  180.4050  142.8010 O   0  0  0  0  0  0  0  0  0  0  0  0
  179.8960  178.1210  142.7880 C   0  0  0  0  0  2  0  0  0  0  0  0
  179.0560  178.3000  141.5320 C   0  0  0  0  0  2  0  0  0  0  0  0
  179.0940  177.0450  140.6830 C   0  0  0  0  0  2  0  0  0  0  0  0
  179.2130  175.9280  141.5100 O   0  0  0  0  0  1  0  0  0  0  0  0
  182.7390  178.4920  140.7450 O   0  0  0  0  0  0  0  0  0  0  0  0
  183.2770  177.6190  139.7570 C   0  0  0  0  0  2  0  0  0  0  0  0
  183.7590  178.4070  138.5500 C   0  0  1  0  0  3  0  0  0  0  0  0
  185.1220  176.7800  137.1910 C   0  0  0  0  0  2  0  0  0  0  0  0
  185.9260  179.0700  137.6850 O   0  0  0  0  0  0  0  0  0  0  0  0
  185.1470  178.9760  138.8570 C   0  0  0  0  0  2  0  0  0  0  0  0
  186.3070  177.7640  137.2750 C   0  0  1  0  0  3  0  0  0  0  0  0
  183.7880  177.5140  137.3020 C   0  0  0  0  0  2  0  0  0  0  0  0
  187.9350  175.9340  137.5930 N   0  0  0  0  0  2  0  0  0  0  0  0
  189.2010  176.1770  136.9200 C   0  0  0  0  0  2  0  0  0  0  0  0
  188.8100  178.4080  138.2810 S   0  0  0  0  0  0  0  0  0  0  0  0
  189.9900  177.1560  137.7470 C   0  0  0  0  0  2  0  0  0  0  0  0
  187.4460  177.2020  138.1340 C   0  0  1  0  0  3  0  0  0  0  0  0
  184.7410  178.5750  146.0910 C   0  0  0  0  0  2  0  0  0  0  0  0
  188.5650  178.4270  146.1490 N   0  0  0  0  0  2  0  0  0  0  0  0
  186.1480  178.9530  146.1630 N   0  0  0  0  0  2  0  0  0  0  0  0
  187.2000  177.9860  146.1610 C   0  0  0  0  0  0  0  0  0  0  0  0
  186.9180  176.7570  146.1370 O   0  0  0  0  0  0  0  0  0  0  0  0
  190.2040  177.0660  147.4220 C   0  0  0  0  0  3  0  0  0  0  0  0
  189.7310  177.5930  146.2110 C   0  0  0  0  0  0  0  0  0  0  0  0
  191.3450  176.2620  147.4280 C   0  0  0  0  0  3  0  0  0  0  0  0
  190.4180  177.3000  145.0300 C   0  0  0  0  0  3  0  0  0  0  0  0
  191.9940  175.9930  146.2620 N   0  0  0  0  0  0  0  0  0  0  0  0
  191.5580  176.4920  145.0750 C   0  0  0  0  0  3  0  0  0  0  0  0
  1  5  2  0  0  0  0
  1  2  1  0  0  0  0
  2  4  2  0  0  0  0
  3  6  2  0  0  0  0
  4  6  1  0  0  0  0
  5  3  1  0  0  0  0
  6 26  1  0  0  0  0
  7  2  1  0  0  0  0
  8  7  2  0  0  0  0
  9  7  1  0  0  0  0
 10  9  1  0  0  0  0
 11 12  1  0  0  0  0
 11 10  1  0  0  0  0
 13  1  1  0  0  0  0
 14 13  1  0  0  0  0
 15 18  1  0  0  0  0
 15 14  1  1  0  0  0
 16 20  1  0  0  0  0
 17 18  1  0  0  0  0
 19 16  1  1  0  0  0
 19 17  1  0  0  0  0
 19 25  1  0  0  0  0
 20 15  1  0  0  0  0
 22 21  1  0  0  0  0
 22 24  1  0  0  0  0
 24 23  1  0  0  0  0
 25 21  1  6  0  0  0
 25 23  1  0  0  0  0
 26 28  1  0  0  0  0
 27 29  1  0  0  0  0
 27 32  1  0  0  0  0
 29 28  1  0  0  0  0
 30 29  2  0  0  0  0
 31 33  1  0  0  0  0
 32 31  2  0  0  0  0
 34 36  2  0  0  0  0
 34 32  1  0  0  0  0
 35 33  2  0  0  0  0
 36 35  1  0  0  0  0
M  END
>  <MODEL>
2

>  <REMARK>
 VINA RESULT:      -7.4      3.653      9.794
  Name = 
  11 active torsions:
  status: ('A' for Active; 'I' for Inactive)
    1  A    between atoms: N_1  and  C_18
    2  A    between atoms: C_2  and  C_23
    3  A    between atoms: C_4  and  C_13
    4  A    between atoms: C_4  and  C_35
    5  A    between atoms: C_7  and  O_12
    6  A    between atoms: C_8  and  C_9
    7  A    between atoms: C_9  and  O_12
    8  A    between atoms: N_11  and  C_27
    9  A    between atoms: C_23  and  C_35
   10  A    between atoms: C_27  and  C_34
   11  A    between atoms: C_28  and  C_33
                            x       y       z     vdW  Elec       q    Type
                         _______ _______ _______ _____ _____    ______ ____

>  <TORSDO>
F 11

$$$$
=
 OpenBabel11062416043D

 36 39  0  0  1  0  0  0  0  0999 V2000
  186.4890  178.1100  144.2380 C   0  0  0  0  0  0  0  0  0  0  0  0
  185.3950  178.4730  145.0570 C   0  0  0  0  0  0  0  0  0  0  0  0
  185.0730  178.2950  142.2680 C   0  0  0  0  0  3  0  0  0  0  0  0
  184.1580  178.7530  144.4520 C   0  0  0  0  0  3  0  0  0  0  0  0
  186.3130  178.0220  142.8480 C   0  0  0  0  0  3  0  0  0  0  0  0
  183.9900  178.6580  143.0660 C   0  0  0  0  0  0  0  0  0  0  0  0
  185.5040  178.5680  146.5360 C   0  0  0  0  0  0  0  0  0  0  0  0
  184.5390  178.2380  147.2770 O   0  0  0  0  0  0  0  0  0  0  0  0
  186.7700  179.0350  147.1900 C   0  0  0  0  0  2  0  0  0  0  0  0
  187.3890  177.9270  148.0270 C   0  0  0  0  0  2  0  0  0  0  0  0
  188.7960  178.3020  148.4490 C   0  0  0  0  0  2  0  0  0  0  0  0
  189.7070  177.4210  147.8660 O   0  0  0  0  0  1  0  0  0  0  0  0
  187.7470  177.8710  144.8080 O   0  0  0  0  0  0  0  0  0  0  0  0
  188.4680  176.6540  144.6380 C   0  0  0  0  0  2  0  0  0  0  0  0
  189.9360  176.9340  144.3590 C   0  0  1  0  0  3  0  0  0  0  0  0
  189.9550  178.4970  142.3820 C   0  0  0  0  0  2  0  0  0  0  0  0
  191.4420  176.5200  142.5040 O   0  0  0  0  0  0  0  0  0  0  0  0
  190.4330  175.9430  143.3030 C   0  0  0  0  0  2  0  0  0  0  0  0
  190.8560  177.4860  141.6430 C   0  0  1  0  0  3  0  0  0  0  0  0
  190.1270  178.3840  143.8950 C   0  0  0  0  0  2  0  0  0  0  0  0
  188.8880  177.5550  140.1520 N   0  0  0  0  0  2  0  0  0  0  0  0
  189.1090  178.3530  138.9570 C   0  0  0  0  0  2  0  0  0  0  0  0
  191.2020  176.7410  138.9930 S   0  0  0  0  0  0  0  0  0  0  0  0
  189.9320  177.5380  137.9960 C   0  0  0  0  0  2  0  0  0  0  0  0
  190.1220  176.8350  140.4640 C   0  0  1  0  0  3  0  0  0  0  0  0
  182.7060  179.0500  142.4030 C   0  0  0  0  0  2  0  0  0  0  0  0
  182.2150  177.3920  138.9890 N   0  0  0  0  0  2  0  0  0  0  0  0
  182.3250  178.1120  141.3530 N   0  0  0  0  0  2  0  0  0  0  0  0
  182.5350  178.3910  139.9670 C   0  0  0  0  0  0  0  0  0  0  0  0
  183.0280  179.4990  139.6210 O   0  0  0  0  0  0  0  0  0  0  0  0
  183.3960  177.0400  136.8350 C   0  0  0  0  0  3  0  0  0  0  0  0
  182.3040  177.5340  137.5630 C   0  0  0  0  0  0  0  0  0  0  0  0
  183.4340  177.2070  135.4490 C   0  0  0  0  0  3  0  0  0  0  0  0
  181.2740  178.1880  136.8830 C   0  0  0  0  0  3  0  0  0  0  0  0
  182.4160  177.8470  134.8120 N   0  0  0  0  0  0  0  0  0  0  0  0
  181.3480  178.3370  135.4950 C   0  0  0  0  0  3  0  0  0  0  0  0
  1 13  1  0  0  0  0
  1  2  1  0  0  0  0
  2  7  1  0  0  0  0
  3  5  1  0  0  0  0
  3  6  2  0  0  0  0
  4  2  2  0  0  0  0
  5  1  2  0  0  0  0
  6  4  1  0  0  0  0
  7  9  1  0  0  0  0
  7  8  2  0  0  0  0
  9 10  1  0  0  0  0
 10 11  1  0  0  0  0
 12 11  1  0  0  0  0
 14 13  1  0  0  0  0
 15 14  1  6  0  0  0
 16 20  1  0  0  0  0
 17 18  1  0  0  0  0
 18 15  1  0  0  0  0
 19 16  1  1  0  0  0
 19 17  1  0  0  0  0
 20 15  1  0  0  0  0
 21 25  1  0  0  0  0
 22 21  1  0  0  0  0
 24 22  1  0  0  0  0
 24 23  1  0  0  0  0
 25 23  1  6  0  0  0
 25 19  1  0  0  0  0
 26  6  1  0  0  0  0
 27 29  1  0  0  0  0
 28 26  1  0  0  0  0
 29 28  1  0  0  0  0
 30 29  2  0  0  0  0
 31 32  1  0  0  0  0
 32 27  1  0  0  0  0
 33 31  2  0  0  0  0
 34 32  2  0  0  0  0
 35 33  1  0  0  0  0
 35 36  2  0  0  0  0
 36 34  1  0  0  0  0
M  END
>  <MODEL>
3

>  <REMARK>
 VINA RESULT:      -7.1      2.916      6.820
  Name = 
  11 active torsions:
  status: ('A' for Active; 'I' for Inactive)
    1  A    between atoms: N_1  and  C_18
    2  A    between atoms: C_2  and  C_23
    3  A    between atoms: C_4  and  C_13
    4  A    between atoms: C_4  and  C_35
    5  A    between atoms: C_7  and  O_12
    6  A    between atoms: C_8  and  C_9
    7  A    between atoms: C_9  and  O_12
    8  A    between atoms: N_11  and  C_27
    9  A    between atoms: C_23  and  C_35
   10  A    between atoms: C_27  and  C_34
   11  A    between atoms: C_28  and  C_33
                            x       y       z     vdW  Elec       q    Type
                         _______ _______ _______ _____ _____    ______ ____

>  <TORSDO>
F 11

$$$$
=
 OpenBabel11062416043D

 36 39  0  0  1  0  0  0  0  0999 V2000
  190.9010  176.8270  138.0760 C   0  0  0  0  0  0  0  0  0  0  0  0
  192.2380  176.6290  138.4930 C   0  0  0  0  0  0  0  0  0  0  0  0
  190.2960  177.4960  140.3360 C   0  0  0  0  0  3  0  0  0  0  0  0
  192.5750  176.8850  139.8330 C   0  0  0  0  0  3  0  0  0  0  0  0
  189.9420  177.2560  139.0070 C   0  0  0  0  0  3  0  0  0  0  0  0
  191.6120  177.3080  140.7560 C   0  0  0  0  0  0  0  0  0  0  0  0
  193.3000  176.1580  137.5660 C   0  0  0  0  0  0  0  0  0  0  0  0
  193.9690  176.9790  136.8820 O   0  0  0  0  0  0  0  0  0  0  0  0
  193.6220  174.7000  137.4360 C   0  0  0  0  0  2  0  0  0  0  0  0
  195.1220  174.4650  137.5280 C   0  0  0  0  0  2  0  0  0  0  0  0
  195.4960  173.9510  138.9040 C   0  0  0  0  0  2  0  0  0  0  0  0
  196.0770  174.9800  139.6440 O   0  0  0  0  0  1  0  0  0  0  0  0
  190.5450  176.6250  136.7350 O   0  0  0  0  0  0  0  0  0  0  0  0
  189.6290  175.6210  136.3090 C   0  0  0  0  0  2  0  0  0  0  0  0
  188.6060  176.2020  135.3450 C   0  0  1  0  0  3  0  0  0  0  0  0
  187.7430  178.2890  136.4630 C   0  0  0  0  0  2  0  0  0  0  0  0
  186.2200  176.6330  135.4260 O   0  0  0  0  0  0  0  0  0  0  0  0
  187.2180  175.6830  135.7320 C   0  0  0  0  0  2  0  0  0  0  0  0
  186.3160  177.7160  136.3400 C   0  0  1  0  0  3  0  0  0  0  0  0
  188.6540  177.7350  135.3700 C   0  0  0  0  0  2  0  0  0  0  0  0
  185.8380  178.4910  138.6370 N   0  0  0  0  0  2  0  0  0  0  0  0
  184.5270  179.1060  138.7680 C   0  0  0  0  0  2  0  0  0  0  0  0
  183.9940  176.8150  137.5630 S   0  0  0  0  0  0  0  0  0  0  0  0
  183.4990  178.0080  138.8180 C   0  0  0  0  0  2  0  0  0  0  0  0
  185.7310  177.3610  137.7130 C   0  0  1  0  0  3  0  0  0  0  0  0
  191.9790  177.6780  142.1590 C   0  0  0  0  0  2  0  0  0  0  0  0
  189.5760  176.8550  145.0210 N   0  0  0  0  0  2  0  0  0  0  0  0
  191.1820  176.9540  143.1430 N   0  0  0  0  0  2  0  0  0  0  0  0
  190.4040  177.6230  144.1380 C   0  0  0  0  0  0  0  0  0  0  0  0
  190.4310  178.8810  144.2080 O   0  0  0  0  0  0  0  0  0  0  0  0
  189.3140  177.5000  147.4030 C   0  0  0  0  0  3  0  0  0  0  0  0
  188.7900  177.3620  146.1100 C   0  0  0  0  0  0  0  0  0  0  0  0
  188.5060  177.9960  148.4270 C   0  0  0  0  0  3  0  0  0  0  0  0
  187.4610  177.7250  145.8740 C   0  0  0  0  0  3  0  0  0  0  0  0
  187.2150  178.3430  148.1690 N   0  0  0  0  0  0  0  0  0  0  0  0
  186.6820  178.2170  146.9250 C   0  0  0  0  0  3  0  0  0  0  0  0
  1  2  2  0  0  0  0
  1  5  1  0  0  0  0
  2  4  1  0  0  0  0
  3  6  1  0  0  0  0
  4  6  2  0  0  0  0
  5  3  2  0  0  0  0
  6 26  1  0  0  0  0
  7  2  1  0  0  0  0
  8  7  2  0  0  0  0
  9 10  1  0  0  0  0
  9  7  1  0  0  0  0
 10 11  1  0  0  0  0
 11 12  1  0  0  0  0
 13  1  1  0  0  0  0
 14 13  1  0  0  0  0
 15 20  1  0  0  0  0
 15 18  1  0  0  0  0
 15 14  1  1  0  0  0
 17 18  1  0  0  0  0
 17 19  1  0  0  0  0
 19 16  1  1  0  0  0
 19 25  1  0  0  0  0
 20 16  1  0  0  0  0
 21 22  1  0  0  0  0
 22 24  1  0  0  0  0
 23 24  1  0  0  0  0
 25 23  1  6  0  0  0
 25 21  1  0  0  0  0
 26 28  1  0  0  0  0
 27 32  1  0  0  0  0
 28 29  1  0  0  0  0
 29 30  2  0  0  0  0
 29 27  1  0  0  0  0
 31 33  1  0  0  0  0
 32 31  2  0  0  0  0
 34 32  1  0  0  0  0
 34 36  2  0  0  0  0
 35 33  2  0  0  0  0
 36 35  1  0  0  0  0
M  END
>  <MODEL>
4

>  <REMARK>
 VINA RESULT:      -7.1      3.070      6.887
  Name = 
  11 active torsions:
  status: ('A' for Active; 'I' for Inactive)
    1  A    between atoms: N_1  and  C_18
    2  A    between atoms: C_2  and  C_23
    3  A    between atoms: C_4  and  C_13
    4  A    between atoms: C_4  and  C_35
    5  A    between atoms: C_7  and  O_12
    6  A    between atoms: C_8  and  C_9
    7  A    between atoms: C_9  and  O_12
    8  A    between atoms: N_11  and  C_27
    9  A    between atoms: C_23  and  C_35
   10  A    between atoms: C_27  and  C_34
   11  A    between atoms: C_28  and  C_33
                            x       y       z     vdW  Elec       q    Type
                         _______ _______ _______ _____ _____    ______ ____

>  <TORSDO>
F 11

$$$$
=
 OpenBabel11062416043D

 36 39  0  0  1  0  0  0  0  0999 V2000
  183.7590  178.9170  140.4550 C   0  0  0  0  0  0  0  0  0  0  0  0
  184.4280  178.8570  141.6990 C   0  0  0  0  0  0  0  0  0  0  0  0
  185.8690  178.5380  139.3030 C   0  0  0  0  0  3  0  0  0  0  0  0
  185.8140  178.6230  141.7130 C   0  0  0  0  0  3  0  0  0  0  0  0
  184.4910  178.7600  139.2670 C   0  0  0  0  0  3  0  0  0  0  0  0
  186.5370  178.4720  140.5240 C   0  0  0  0  0  0  0  0  0  0  0  0
  183.7200  179.0340  142.9940 C   0  0  0  0  0  0  0  0  0  0  0  0
  182.5100  178.7010  143.1170 O   0  0  0  0  0  0  0  0  0  0  0  0
  184.4280  179.5890  144.1920 C   0  0  0  0  0  2  0  0  0  0  0  0
  184.2210  178.6970  145.4070 C   0  0  0  0  0  2  0  0  0  0  0  0
  185.5110  178.5590  146.1900 C   0  0  0  0  0  2  0  0  0  0  0  0
  185.5890  179.5760  147.1410 O   0  0  0  0  0  1  0  0  0  0  0  0
  182.3700  179.1030  140.4100 O   0  0  0  0  0  0  0  0  0  0  0  0
  181.4400  178.0380  140.2400 C   0  0  0  0  0  2  0  0  0  0  0  0
  180.0160  178.5330  140.4310 C   0  0  1  0  0  3  0  0  0  0  0  0
  179.3690  179.5780  138.2310 C   0  0  0  0  0  2  0  0  0  0  0  0
  178.9310  180.7020  140.3940 O   0  0  0  0  0  0  0  0  0  0  0  0
  180.0600  180.0010  140.8660 C   0  0  0  0  0  2  0  0  0  0  0  0
  179.0500  180.8830  138.9900 C   0  0  1  0  0  3  0  0  0  0  0  0
  179.2080  178.3610  139.1380 C   0  0  0  0  0  2  0  0  0  0  0  0
  180.9670  181.5640  137.5880 N   0  0  0  0  0  2  0  0  0  0  0  0
  180.5630  182.1790  136.3340 C   0  0  0  0  0  2  0  0  0  0  0  0
  179.1670  183.5190  138.1350 S   0  0  0  0  0  0  0  0  0  0  0  0
  180.1430  183.5950  136.6230 C   0  0  0  0  0  2  0  0  0  0  0  0
  180.0430  181.9960  138.6370 C   0  0  1  0  0  3  0  0  0  0  0  0
  187.9930  178.1240  140.5310 C   0  0  0  0  0  2  0  0  0  0  0  0
  189.7910  178.3370  143.9020 N   0  0  0  0  0  2  0  0  0  0  0  0
  188.6710  178.6350  141.7170 N   0  0  0  0  0  2  0  0  0  0  0  0
  189.0520  177.7870  142.8030 C   0  0  0  0  0  0  0  0  0  0  0  0
  188.7620  176.5610  142.7690 O   0  0  0  0  0  0  0  0  0  0  0  0
  189.3580  177.5610  146.2190 C   0  0  0  0  0  3  0  0  0  0  0  0
  190.1910  177.6430  145.0940 C   0  0  0  0  0  0  0  0  0  0  0  0
  189.7960  176.8750  147.3540 C   0  0  0  0  0  3  0  0  0  0  0  0
  191.4490  177.0360  145.1340 C   0  0  0  0  0  3  0  0  0  0  0  0
  191.0260  176.2930  147.3650 N   0  0  0  0  0  0  0  0  0  0  0  0
  191.8530  176.3600  146.2880 C   0  0  0  0  0  3  0  0  0  0  0  0
  1  2  1  0  0  0  0
  2  4  2  0  0  0  0
  2  7  1  0  0  0  0
  3  6  2  0  0  0  0
  5  3  1  0  0  0  0
  5  1  2  0  0  0  0
  6 26  1  0  0  0  0
  6  4  1  0  0  0  0
  7  8  2  0  0  0  0
  7  9  1  0  0  0  0
  9 10  1  0  0  0  0
 10 11  1  0  0  0  0
 11 12  1  0  0  0  0
 13  1  1  0  0  0  0
 14 13  1  0  0  0  0
 15 14  1  6  0  0  0
 15 18  1  0  0  0  0
 16 20  1  0  0  0  0
 17 18  1  0  0  0  0
 19 16  1  6  0  0  0
 19 17  1  0  0  0  0
 20 15  1  0  0  0  0
 22 24  1  0  0  0  0
 22 21  1  0  0  0  0
 23 25  1  0  0  0  0
 24 23  1  0  0  0  0
 25 21  1  6  0  0  0
 25 19  1  0  0  0  0
 26 28  1  0  0  0  0
 27 32  1  0  0  0  0
 28 29  1  0  0  0  0
 29 27  1  0  0  0  0
 30 29  2  0  0  0  0
 31 33  1  0  0  0  0
 32 34  1  0  0  0  0
 32 31  2  0  0  0  0
 33 35  2  0  0  0  0
 34 36  2  0  0  0  0
 36 35  1  0  0  0  0
M  END
>  <MODEL>
5

>  <REMARK>
 VINA RESULT:      -7.0      4.065      9.935
  Name = 
  11 active torsions:
  status: ('A' for Active; 'I' for Inactive)
    1  A    between atoms: N_1  and  C_18
    2  A    between atoms: C_2  and  C_23
    3  A    between atoms: C_4  and  C_13
    4  A    between atoms: C_4  and  C_35
    5  A    between atoms: C_7  and  O_12
    6  A    between atoms: C_8  and  C_9
    7  A    between atoms: C_9  and  O_12
    8  A    between atoms: N_11  and  C_27
    9  A    between atoms: C_23  and  C_35
   10  A    between atoms: C_27  and  C_34
   11  A    between atoms: C_28  and  C_33
                            x       y       z     vdW  Elec       q    Type
                         _______ _______ _______ _____ _____    ______ ____

>  <TORSDO>
F 11

$$$$
=
 OpenBabel11062416043D

 36 39  0  0  1  0  0  0  0  0999 V2000
  186.7890  178.2850  138.8580 C   0  0  0  0  0  0  0  0  0  0  0  0
  187.1360  178.3180  140.2290 C   0  0  0  0  0  0  0  0  0  0  0  0
  188.9860  177.3850  138.3260 C   0  0  0  0  0  3  0  0  0  0  0  0
  188.4080  177.8660  140.6180 C   0  0  0  0  0  3  0  0  0  0  0  0
  187.7240  177.8210  137.9190 C   0  0  0  0  0  3  0  0  0  0  0  0
  189.3360  177.4090  139.6750 C   0  0  0  0  0  0  0  0  0  0  0  0
  186.2030  178.8140  141.2750 C   0  0  0  0  0  0  0  0  0  0  0  0
  185.3650  179.7190  141.0140 O   0  0  0  0  0  0  0  0  0  0  0  0
  186.2180  178.2400  142.6590 C   0  0  0  0  0  2  0  0  0  0  0  0
  184.8600  178.3950  143.3260 C   0  0  0  0  0  2  0  0  0  0  0  0
  185.0220  178.6410  144.8120 C   0  0  0  0  0  2  0  0  0  0  0  0
  183.7830  178.9610  145.3690 O   0  0  0  0  0  1  0  0  0  0  0  0
  185.5110  178.6860  138.4460 O   0  0  0  0  0  0  0  0  0  0  0  0
  184.4860  177.7740  138.0650 C   0  0  0  0  0  2  0  0  0  0  0  0
  183.2090  178.0430  138.8450 C   0  0  1  0  0  3  0  0  0  0  0  0
  182.2750  175.7710  139.4050 C   0  0  0  0  0  2  0  0  0  0  0  0
  180.8530  177.5850  138.4970 O   0  0  0  0  0  0  0  0  0  0  0  0
  182.0290  178.0470  137.8690 C   0  0  0  0  0  2  0  0  0  0  0  0
  180.9610  176.1840  138.7100 C   0  0  1  0  0  3  0  0  0  0  0  0
  183.0180  176.9900  139.9440 C   0  0  0  0  0  2  0  0  0  0  0  0
  181.5860  174.2000  137.3780 N   0  0  0  0  0  2  0  0  0  0  0  0
  180.7700  173.0340  137.6770 C   0  0  0  0  0  2  0  0  0  0  0  0
  178.9750  174.9250  137.2380 S   0  0  0  0  0  0  0  0  0  0  0  0
  179.4430  173.2030  136.9870 C   0  0  0  0  0  2  0  0  0  0  0  0
  180.7330  175.3880  137.4190 C   0  0  1  0  0  3  0  0  0  0  0  0
  190.6550  176.8330  140.0870 C   0  0  0  0  0  2  0  0  0  0  0  0
  191.4230  177.4540  143.7840 N   0  0  0  0  0  2  0  0  0  0  0  0
  191.1460  177.4250  141.3270 N   0  0  0  0  0  2  0  0  0  0  0  0
  190.8400  176.8730  142.6100 C   0  0  0  0  0  0  0  0  0  0  0  0
  190.0880  175.8660  142.6920 O   0  0  0  0  0  0  0  0  0  0  0  0
  192.0400  176.2200  145.8470 C   0  0  0  0  0  3  0  0  0  0  0  0
  191.1710  177.0660  145.1430 C   0  0  0  0  0  0  0  0  0  0  0  0
  191.7460  175.8710  147.1660 C   0  0  0  0  0  3  0  0  0  0  0  0
  190.0230  177.5420  145.7810 C   0  0  0  0  0  3  0  0  0  0  0  0
  190.6210  176.3500  147.7630 N   0  0  0  0  0  0  0  0  0  0  0  0
  189.7620  177.1700  147.1020 C   0  0  0  0  0  3  0  0  0  0  0  0
  1  2  1  0  0  0  0
  2  4  2  0  0  0  0
  2  7  1  0  0  0  0
  3  6  2  0  0  0  0
  5  3  1  0  0  0  0
  5  1  2  0  0  0  0
  6 26  1  0  0  0  0
  6  4  1  0  0  0  0
  7  9  1  0  0  0  0
  8  7  2  0  0  0  0
  9 10  1  0  0  0  0
 10 11  1  0  0  0  0
 11 12  1  0  0  0  0
 13  1  1  0  0  0  0
 14 13  1  0  0  0  0
 15 14  1  6  0  0  0
 15 20  1  0  0  0  0
 16 20  1  0  0  0  0
 17 19  1  0  0  0  0
 18 17  1  0  0  0  0
 18 15  1  0  0  0  0
 19 16  1  6  0  0  0
 21 25  1  0  0  0  0
 21 22  1  0  0  0  0
 24 23  1  0  0  0  0
 24 22  1  0  0  0  0
 25 23  1  1  0  0  0
 25 19  1  0  0  0  0
 26 28  1  0  0  0  0
 27 32  1  0  0  0  0
 28 29  1  0  0  0  0
 29 30  2  0  0  0  0
 29 27  1  0  0  0  0
 31 33  1  0  0  0  0
 32 34  1  0  0  0  0
 32 31  2  0  0  0  0
 33 35  2  0  0  0  0
 34 36  2  0  0  0  0
 36 35  1  0  0  0  0
M  END
>  <MODEL>
6

>  <REMARK>
 VINA RESULT:      -7.0      3.867      9.148
  Name = 
  11 active torsions:
  status: ('A' for Active; 'I' for Inactive)
    1  A    between atoms: N_1  and  C_18
    2  A    between atoms: C_2  and  C_23
    3  A    between atoms: C_4  and  C_13
    4  A    between atoms: C_4  and  C_35
    5  A    between atoms: C_7  and  O_12
    6  A    between atoms: C_8  and  C_9
    7  A    between atoms: C_9  and  O_12
    8  A    between atoms: N_11  and  C_27
    9  A    between atoms: C_23  and  C_35
   10  A    between atoms: C_27  and  C_34
   11  A    between atoms: C_28  and  C_33
                            x       y       z     vdW  Elec       q    Type
                         _______ _______ _______ _____ _____    ______ ____

>  <TORSDO>
F 11

$$$$
=
 OpenBabel11062416043D

 36 39  0  0  1  0  0  0  0  0999 V2000
  183.5630  178.7430  143.0220 C   0  0  0  0  0  0  0  0  0  0  0  0
  184.9730  178.7070  143.1340 C   0  0  0  0  0  0  0  0  0  0  0  0
  183.3690  178.6550  145.4460 C   0  0  0  0  0  3  0  0  0  0  0  0
  185.5490  178.6590  144.4150 C   0  0  0  0  0  3  0  0  0  0  0  0
  182.7750  178.7120  144.1840 C   0  0  0  0  0  3  0  0  0  0  0  0
  184.7570  178.6240  145.5680 C   0  0  0  0  0  0  0  0  0  0  0  0
  185.8670  178.7170  141.9480 C   0  0  0  0  0  0  0  0  0  0  0  0
  185.6110  179.4490  140.9530 O   0  0  0  0  0  0  0  0  0  0  0  0
  187.1080  177.8780  141.9080 C   0  0  0  0  0  2  0  0  0  0  0  0
  188.2840  178.6730  141.3600 C   0  0  0  0  0  2  0  0  0  0  0  0
  188.6610  178.1790  139.9770 C   0  0  0  0  0  2  0  0  0  0  0  0
  189.3950  176.9990  140.0880 O   0  0  0  0  0  1  0  0  0  0  0  0
  182.9600  178.8380  141.7600 O   0  0  0  0  0  0  0  0  0  0  0  0
  181.5570  178.9950  141.5700 C   0  0  0  0  0  2  0  0  0  0  0  0
  181.2440  179.3000  140.1140 C   0  0  1  0  0  3  0  0  0  0  0  0
  181.0130  177.0540  138.9940 C   0  0  0  0  0  2  0  0  0  0  0  0
  182.3490  178.8860  137.9950 O   0  0  0  0  0  0  0  0  0  0  0  0
  182.5550  179.3160  139.3220 C   0  0  0  0  0  2  0  0  0  0  0  0
  182.1060  177.4860  137.9940 C   0  0  1  0  0  3  0  0  0  0  0  0
  180.2640  178.2640  139.5460 C   0  0  0  0  0  2  0  0  0  0  0  0
  183.0990  175.2790  138.4870 N   0  0  0  0  0  2  0  0  0  0  0  0
  183.3460  174.4870  137.2920 C   0  0  0  0  0  2  0  0  0  0  0  0
  184.4720  176.8070  136.7150 S   0  0  0  0  0  0  0  0  0  0  0  0
  184.5930  175.0120  136.6340 C   0  0  0  0  0  2  0  0  0  0  0  0
  183.3960  176.6790  138.1860 C   0  0  1  0  0  3  0  0  0  0  0  0
  185.3610  178.6730  146.9370 C   0  0  0  0  0  2  0  0  0  0  0  0
  189.1410  178.2110  146.5640 N   0  0  0  0  0  2  0  0  0  0  0  0
  186.7960  178.9270  146.8920 N   0  0  0  0  0  2  0  0  0  0  0  0
  187.7500  177.8820  146.6820 C   0  0  0  0  0  0  0  0  0  0  0  0
  187.3560  176.6900  146.5710 O   0  0  0  0  0  0  0  0  0  0  0  0
  190.9040  176.7530  147.5260 C   0  0  0  0  0  3  0  0  0  0  0  0
  190.2270  177.2830  146.4190 C   0  0  0  0  0  0  0  0  0  0  0  0
  191.9550  175.8550  147.3290 C   0  0  0  0  0  3  0  0  0  0  0  0
  190.6230  176.9010  145.1340 C   0  0  0  0  0  3  0  0  0  0  0  0
  192.3190  175.5000  146.0670 N   0  0  0  0  0  0  0  0  0  0  0  0
  191.6810  176.0010  144.9770 C   0  0  0  0  0  3  0  0  0  0  0  0
  1  2  2  0  0  0  0
  1  5  1  0  0  0  0
  2  4  1  0  0  0  0
  3  6  1  0  0  0  0
  4  6  2  0  0  0  0
  5  3  2  0  0  0  0
  6 26  1  0  0  0  0
  7  2  1  0  0  0  0
  8  7  2  0  0  0  0
  9  7  1  0  0  0  0
 10  9  1  0  0  0  0
 11 12  1  0  0  0  0
 11 10  1  0  0  0  0
 13  1  1  0  0  0  0
 14 13  1  0  0  0  0
 15 14  1  1  0  0  0
 16 20  1  0  0  0  0
 17 18  1  0  0  0  0
 18 15  1  0  0  0  0
 19 17  1  0  0  0  0
 19 25  1  0  0  0  0
 19 16  1  1  0  0  0
 20 15  1  0  0  0  0
 22 21  1  0  0  0  0
 24 23  1  0  0  0  0
 24 22  1  0  0  0  0
 25 23  1  6  0  0  0
 25 21  1  0  0  0  0
 27 29  1  0  0  0  0
 28 26  1  0  0  0  0
 29 28  1  0  0  0  0
 30 29  2  0  0  0  0
 32 27  1  0  0  0  0
 32 31  2  0  0  0  0
 33 31  1  0  0  0  0
 34 32  1  0  0  0  0
 35 33  2  0  0  0  0
 36 34  2  0  0  0  0
 36 35  1  0  0  0  0
M  END
>  <MODEL>
7

>  <REMARK>
 VINA RESULT:      -7.0      3.510      9.148
  Name = 
  11 active torsions:
  status: ('A' for Active; 'I' for Inactive)
    1  A    between atoms: N_1  and  C_18
    2  A    between atoms: C_2  and  C_23
    3  A    between atoms: C_4  and  C_13
    4  A    between atoms: C_4  and  C_35
    5  A    between atoms: C_7  and  O_12
    6  A    between atoms: C_8  and  C_9
    7  A    between atoms: C_9  and  O_12
    8  A    between atoms: N_11  and  C_27
    9  A    between atoms: C_23  and  C_35
   10  A    between atoms: C_27  and  C_34
   11  A    between atoms: C_28  and  C_33
                            x       y       z     vdW  Elec       q    Type
                         _______ _______ _______ _____ _____    ______ ____

>  <TORSDO>
F 11

$$$$
=
 OpenBabel11062416043D

 36 39  0  0  1  0  0  0  0  0999 V2000
  184.5350  178.8210  140.0230 C   0  0  0  0  0  0  0  0  0  0  0  0
  185.1150  178.7460  141.3110 C   0  0  0  0  0  0  0  0  0  0  0  0
  186.7000  178.3390  139.0220 C   0  0  0  0  0  3  0  0  0  0  0  0
  186.4850  178.4540  141.4220 C   0  0  0  0  0  3  0  0  0  0  0  0
  185.3390  178.6190  138.8900 C   0  0  0  0  0  3  0  0  0  0  0  0
  187.2800  178.2590  140.2870 C   0  0  0  0  0  0  0  0  0  0  0  0
  184.3280  178.9680  142.5520 C   0  0  0  0  0  0  0  0  0  0  0  0
  183.1730  178.4790  142.6790 O   0  0  0  0  0  0  0  0  0  0  0  0
  184.8930  179.7560  143.6950 C   0  0  0  0  0  2  0  0  0  0  0  0
  184.4010  179.2100  145.0270 C   0  0  0  0  0  2  0  0  0  0  0  0
  185.5620  178.6800  145.8450 C   0  0  0  0  0  2  0  0  0  0  0  0
  185.3430  178.9530  147.1950 O   0  0  0  0  0  1  0  0  0  0  0  0
  183.1620  179.0640  139.8820 O   0  0  0  0  0  0  0  0  0  0  0  0
  182.4910  179.0780  138.6250 C   0  0  0  0  0  2  0  0  0  0  0  0
  181.4090  178.0120  138.5830 C   0  0  1  0  0  3  0  0  0  0  0  0
  182.5530  175.8690  139.2540 C   0  0  0  0  0  2  0  0  0  0  0  0
  181.0400  175.9880  137.2970 O   0  0  0  0  0  0  0  0  0  0  0  0
  181.4360  177.3390  137.2070 C   0  0  0  0  0  2  0  0  0  0  0  0
  182.0720  175.2440  137.9290 C   0  0  1  0  0  3  0  0  0  0  0  0
  181.6180  176.9880  139.7060 C   0  0  0  0  0  2  0  0  0  0  0  0
  184.4380  174.5630  137.7230 N   0  0  0  0  0  2  0  0  0  0  0  0
  184.6050  173.1250  137.5850 C   0  0  0  0  0  2  0  0  0  0  0  0
  182.7970  173.6960  135.7440 S   0  0  0  0  0  0  0  0  0  0  0  0
  184.2700  172.7500  136.1670 C   0  0  0  0  0  2  0  0  0  0  0  0
  183.2440  174.9650  136.9800 C   0  0  1  0  0  3  0  0  0  0  0  0
  188.7160  177.8500  140.3960 C   0  0  0  0  0  2  0  0  0  0  0  0
  190.2490  178.1310  143.8910 N   0  0  0  0  0  2  0  0  0  0  0  0
  189.3440  178.3770  141.6030 N   0  0  0  0  0  2  0  0  0  0  0  0
  189.5510  177.5760  142.7690 C   0  0  0  0  0  0  0  0  0  0  0  0
  189.1440  176.3830  142.7860 O   0  0  0  0  0  0  0  0  0  0  0  0
  191.6670  176.7900  145.4240 C   0  0  0  0  0  3  0  0  0  0  0  0
  190.4810  177.4890  145.1540 C   0  0  0  0  0  0  0  0  0  0  0  0
  191.8420  176.1810  146.6680 C   0  0  0  0  0  3  0  0  0  0  0  0
  189.4950  177.5580  146.1410 C   0  0  0  0  0  3  0  0  0  0  0  0
  190.8640  176.2660  147.6110 N   0  0  0  0  0  0  0  0  0  0  0  0
  189.7050  176.9350  147.3740 C   0  0  0  0  0  3  0  0  0  0  0  0
  1  2  1  0  0  0  0
  2  4  2  0  0  0  0
  2  7  1  0  0  0  0
  3  6  2  0  0  0  0
  5  3  1  0  0  0  0
  5  1  2  0  0  0  0
  6 26  1  0  0  0  0
  6  4  1  0  0  0  0
  7  8  2  0  0  0  0
  7  9  1  0  0  0  0
  9 10  1  0  0  0  0
 10 11  1  0  0  0  0
 11 12  1  0  0  0  0
 13  1  1  0  0  0  0
 14 13  1  0  0  0  0
 15 14  1  6  0  0  0
 15 20  1  0  0  0  0
 16 20  1  0  0  0  0
 17 19  1  0  0  0  0
 18 17  1  0  0  0  0
 18 15  1  0  0  0  0
 19 16  1  1  0  0  0
 22 21  1  0  0  0  0
 23 24  1  0  0  0  0
 24 22  1  0  0  0  0
 25 23  1  6  0  0  0
 25 21  1  0  0  0  0
 25 19  1  0  0  0  0
 26 28  1  0  0  0  0
 27 32  1  0  0  0  0
 28 29  1  0  0  0  0
 29 30  2  0  0  0  0
 29 27  1  0  0  0  0
 31 33  1  0  0  0  0
 32 31  2  0  0  0  0
 32 34  1  0  0  0  0
 33 35  2  0  0  0  0
 34 36  2  0  0  0  0
 36 35  1  0  0  0  0
M  END
>  <MODEL>
8

>  <REMARK>
 VINA RESULT:      -6.9      3.964      9.314
  Name = 
  11 active torsions:
  status: ('A' for Active; 'I' for Inactive)
    1  A    between atoms: N_1  and  C_18
    2  A    between atoms: C_2  and  C_23
    3  A    between atoms: C_4  and  C_13
    4  A    between atoms: C_4  and  C_35
    5  A    between atoms: C_7  and  O_12
    6  A    between atoms: C_8  and  C_9
    7  A    between atoms: C_9  and  O_12
    8  A    between atoms: N_11  and  C_27
    9  A    between atoms: C_23  and  C_35
   10  A    between atoms: C_27  and  C_34
   11  A    between atoms: C_28  and  C_33
                            x       y       z     vdW  Elec       q    Type
                         _______ _______ _______ _____ _____    ______ ____

>  <TORSDO>
F 11

$$$$
=
 OpenBabel11062416043D

 36 39  0  0  1  0  0  0  0  0999 V2000
  185.0220  178.7670  140.1900 C   0  0  0  0  0  0  0  0  0  0  0  0
  183.8000  178.3980  140.7980 C   0  0  0  0  0  0  0  0  0  0  0  0
  186.0800  178.8640  142.3800 C   0  0  0  0  0  3  0  0  0  0  0  0
  183.7530  178.2580  142.1950 C   0  0  0  0  0  3  0  0  0  0  0  0
  186.1510  179.0000  140.9920 C   0  0  0  0  0  3  0  0  0  0  0  0
  184.8810  178.4970  142.9880 C   0  0  0  0  0  0  0  0  0  0  0  0
  182.5620  178.1540  140.0130 C   0  0  0  0  0  0  0  0  0  0  0  0
  182.4630  177.1470  139.2610 O   0  0  0  0  0  0  0  0  0  0  0  0
  181.3890  179.0820  140.1100 C   0  0  0  0  0  2  0  0  0  0  0  0
  180.3400  178.5330  141.0650 C   0  0  0  0  0  2  0  0  0  0  0  0
  180.1600  179.4620  142.2490 C   0  0  0  0  0  2  0  0  0  0  0  0
  179.9410  180.7610  141.7920 O   0  0  0  0  0  1  0  0  0  0  0  0
  185.1120  178.8690  138.7950 O   0  0  0  0  0  0  0  0  0  0  0  0
  185.7900  177.9180  137.9800 C   0  0  0  0  0  2  0  0  0  0  0  0
  186.9240  178.5790  137.2130 C   0  0  1  0  0  3  0  0  0  0  0  0
  188.0150  176.7250  135.9000 C   0  0  0  0  0  2  0  0  0  0  0  0
  189.3400  178.3670  137.1970 O   0  0  0  0  0  0  0  0  0  0  0  0
  188.2100  178.4580  138.0360 C   0  0  0  0  0  2  0  0  0  0  0  0
  189.3540  177.0910  136.5720 C   0  0  1  0  0  3  0  0  0  0  0  0
  187.0860  177.9340  135.8300 C   0  0  0  0  0  2  0  0  0  0  0  0
  189.6630  174.6660  136.9260 N   0  0  0  0  0  2  0  0  0  0  0  0
  190.9700  174.1920  136.4990 C   0  0  0  0  0  2  0  0  0  0  0  0
  191.5570  176.2590  138.0380 S   0  0  0  0  0  0  0  0  0  0  0  0
  191.9730  174.5740  137.5540 C   0  0  0  0  0  2  0  0  0  0  0  0
  189.8230  175.9890  137.5300 C   0  0  1  0  0  3  0  0  0  0  0  0
  184.8680  178.2540  144.4650 C   0  0  0  0  0  2  0  0  0  0  0  0
  188.4840  178.2520  145.7180 N   0  0  0  0  0  2  0  0  0  0  0  0
  186.1230  178.6480  145.0950 N   0  0  0  0  0  2  0  0  0  0  0  0
  187.2520  177.7740  145.1600 C   0  0  0  0  0  0  0  0  0  0  0  0
  187.1620  176.6040  144.6990 O   0  0  0  0  0  0  0  0  0  0  0  0
  190.5240  177.1370  144.8510 C   0  0  0  0  0  3  0  0  0  0  0  0
  189.6830  177.4880  145.9170 C   0  0  0  0  0  0  0  0  0  0  0  0
  191.6780  176.3910  145.0980 C   0  0  0  0  0  3  0  0  0  0  0  0
  190.0200  177.0800  147.2100 C   0  0  0  0  0  3  0  0  0  0  0  0
  191.9820  176.0080  146.3680 N   0  0  0  0  0  0  0  0  0  0  0  0
  191.1830  176.3340  147.4180 C   0  0  0  0  0  3  0  0  0  0  0  0
  1  2  2  0  0  0  0
  1  5  1  0  0  0  0
  2  4  1  0  0  0  0
  3  6  1  0  0  0  0
  4  6  2  0  0  0  0
  5  3  2  0  0  0  0
  6 26  1  0  0  0  0
  7  9  1  0  0  0  0
  7  2  1  0  0  0  0
  8  7  2  0  0  0  0
  9 10  1  0  0  0  0
 10 11  1  0  0  0  0
 12 11  1  0  0  0  0
 13  1  1  0  0  0  0
 14 13  1  0  0  0  0
 15 14  1  1  0  0  0
 15 18  1  0  0  0  0
 17 18  1  0  0  0  0
 19 16  1  1  0  0  0
 19 17  1  0  0  0  0
 19 25  1  0  0  0  0
 20 16  1  0  0  0  0
 20 15  1  0  0  0  0
 22 21  1  0  0  0  0
 22 24  1  0  0  0  0
 24 23  1  0  0  0  0
 25 21  1  6  0  0  0
 25 23  1  0  0  0  0
 26 28  1  0  0  0  0
 27 32  1  0  0  0  0
 28 29  1  0  0  0  0
 29 27  1  0  0  0  0
 30 29  2  0  0  0  0
 31 33  2  0  0  0  0
 31 32  1  0  0  0  0
 32 34  2  0  0  0  0
 33 35  1  0  0  0  0
 34 36  1  0  0  0  0
 35 36  2  0  0  0  0
M  END
>  <MODEL>
9

>  <REMARK>
 VINA RESULT:      -6.9      3.227      9.112
  Name = 
  11 active torsions:
  status: ('A' for Active; 'I' for Inactive)
    1  A    between atoms: N_1  and  C_18
    2  A    between atoms: C_2  and  C_23
    3  A    between atoms: C_4  and  C_13
    4  A    between atoms: C_4  and  C_35
    5  A    between atoms: C_7  and  O_12
    6  A    between atoms: C_8  and  C_9
    7  A    between atoms: C_9  and  O_12
    8  A    between atoms: N_11  and  C_27
    9  A    between atoms: C_23  and  C_35
   10  A    between atoms: C_27  and  C_34
   11  A    between atoms: C_28  and  C_33
                            x       y       z     vdW  Elec       q    Type
                         _______ _______ _______ _____ _____    ______ ____

>  <TORSDO>
F 11

$$$$
