=
 OpenBabel11062413543D

 25 27  0  0  1  0  0  0  0  0999 V2000
  190.6630  176.9650  141.8920 C   0  0  0  0  0  2  0  0  0  0  0  0
  189.3010  177.4890  141.4470 C   0  0  2  0  0  3  0  0  0  0  0  0
  191.5940  176.1220  143.9090 C   0  0  0  0  0  1  0  0  0  0  0  0
  189.3790  177.6240  144.6660 C   0  0  0  0  0  1  0  0  0  0  0  0
  190.4440  176.0580  143.0130 N   0  0  0  0  0  0  0  0  0  0  0  0
  188.3240  176.9340  142.4620 C   0  0  1  0  0  3  0  0  0  0  0  0
  189.1860  176.4920  143.6380 C   0  0  2  0  0  3  0  0  0  0  0  0
  186.3930  177.6540  143.9550 N   0  0  0  0  0  2  0  0  0  0  0  0
  187.1950  177.8690  142.7860 C   0  0  0  0  0  0  0  0  0  0  0  0
  186.9810  178.8530  142.0310 O   0  0  0  0  0  0  0  0  0  0  0  0
  184.1130  178.4390  143.3040 C   0  0  0  0  0  3  0  0  0  0  0  0
  183.1250  179.1310  143.9170 N   0  0  0  0  0  0  0  0  0  0  0  0
  184.6970  178.9090  145.3610 C   0  0  0  0  0  0  0  0  0  0  0  0
  185.1260  178.2650  144.2230 C   0  0  0  0  0  0  0  0  0  0  0  0
  183.5050  179.3970  145.1350 O   0  0  0  0  0  0  0  0  0  0  0  0
  185.4180  179.0920  146.5740 N   0  0  0  0  0  1  0  0  0  0  0  0
  188.9730  176.9740  140.1260 N   0  0  0  0  0  2  0  0  0  0  0  0
  188.8700  179.0760  139.1210 O   0  0  0  0  0  0  0  0  0  0  0  0
  188.7790  177.8240  138.9930 C   0  0  0  0  0  0  0  0  0  0  0  0
  189.4680  176.5830  136.7810 C   0  0  0  0  0  3  0  0  0  0  0  0
  187.2950  177.1540  137.1020 C   0  0  0  0  0  0  0  0  0  0  0  0
  186.0720  177.6530  137.6340 N   0  0  0  0  0  1  0  0  0  0  0  0
  187.3900  176.5090  135.8550 N   0  0  0  0  0  0  0  0  0  0  0  0
  188.4680  177.2250  137.6840 C   0  0  2  0  0  3  0  0  0  0  0  0
  188.7180  176.1300  135.5980 N   0  0  0  0  0  0  0  0  0  0  0  0
  1  5  1  0  0  0  0
  2 17  1  6  0  0  0
  2  1  1  0  0  0  0
  2  6  1  0  0  0  0
  5  7  1  0  0  0  0
  5  3  1  0  0  0  0
  6  9  1  1  0  0  0
  6  7  1  0  0  0  0
  7  4  1  1  0  0  0
  8 14  1  0  0  0  0
  9  8  1  0  0  0  0
 10  9  2  0  0  0  0
 11 12  2  0  0  0  0
 11 14  1  0  0  0  0
 12 15  1  0  0  0  0
 13 16  1  0  0  0  0
 14 13  2  0  0  0  0
 15 13  1  0  0  0  0
 19 18  2  0  0  0  0
 19 17  1  0  0  0  0
 20 24  1  0  0  0  0
 21 22  1  0  0  0  0
 21 24  1  0  0  0  0
 23 21  2  0  0  0  0
 24 19  1  6  0  0  0
 25 23  1  0  0  0  0
 25 20  2  0  0  0  0
M  END
>  <MODEL>
1

>  <REMARK>
 VINA RESULT:      -7.7      0.000      0.000
  Name = 
  4 active torsions:
  status: ('A' for Active; 'I' for Inactive)
    1  A    between atoms: C_2  and  N_12
    2  A    between atoms: N_3  and  C_20
    3  A    between atoms: C_15  and  C_17
    4  A    between atoms: C_16  and  C_24
                            x       y       z     vdW  Elec       q    Type
                         _______ _______ _______ _____ _____    ______ ____

>  <TORSDO>
F 4

$$$$
=
 OpenBabel11062413543D

 25 27  0  0  1  0  0  0  0  0999 V2000
  189.4570  176.7190  146.7580 C   0  0  0  0  0  2  0  0  0  0  0  0
  188.8570  176.7970  145.3580 C   0  0  2  0  0  3  0  0  0  0  0  0
  191.6430  176.7880  147.6870 C   0  0  0  0  0  1  0  0  0  0  0  0
  191.9720  176.0370  145.0290 C   0  0  0  0  0  1  0  0  0  0  0  0
  190.7380  177.4160  146.7300 N   0  0  0  0  0  0  0  0  0  0  0  0
  189.9290  177.4530  144.5150 C   0  0  1  0  0  3  0  0  0  0  0  0
  191.2060  177.3370  145.3390 C   0  0  2  0  0  3  0  0  0  0  0  0
  190.4680  177.7670  142.0470 N   0  0  0  0  0  2  0  0  0  0  0  0
  190.0000  176.9270  143.1110 C   0  0  0  0  0  0  0  0  0  0  0  0
  189.6650  175.7340  142.8890 O   0  0  0  0  0  0  0  0  0  0  0  0
  191.2610  176.9560  139.8230 C   0  0  0  0  0  3  0  0  0  0  0  0
  190.7620  176.9630  138.5650 N   0  0  0  0  0  0  0  0  0  0  0  0
  189.2680  177.8630  139.8160 C   0  0  0  0  0  0  0  0  0  0  0  0
  190.3070  177.5110  140.6480 C   0  0  0  0  0  0  0  0  0  0  0  0
  189.5800  177.5100  138.5960 O   0  0  0  0  0  0  0  0  0  0  0  0
  188.0740  178.5510  140.1680 N   0  0  0  0  0  1  0  0  0  0  0  0
  187.6660  177.6330  145.3680 N   0  0  0  0  0  2  0  0  0  0  0  0
  186.6710  176.5730  143.5450 O   0  0  0  0  0  0  0  0  0  0  0  0
  186.5960  177.4630  144.4360 C   0  0  0  0  0  0  0  0  0  0  0  0
  184.5580  178.4940  145.7350 C   0  0  0  0  0  3  0  0  0  0  0  0
  184.9250  179.1070  143.5810 C   0  0  0  0  0  0  0  0  0  0  0  0
  185.4510  179.2470  142.2650 N   0  0  0  0  0  1  0  0  0  0  0  0
  183.7860  179.7960  144.0350 N   0  0  0  0  0  0  0  0  0  0  0  0
  185.4140  178.3380  144.5240 C   0  0  0  0  0  0  0  0  0  0  0  0
  183.5060  179.4580  145.3690 N   0  0  0  0  0  2  0  0  0  0  0  0
  2 17  1  1  0  0  0
  2  1  1  0  0  0  0
  5  1  1  0  0  0  0
  5  3  1  0  0  0  0
  6  9  1  6  0  0  0
  6  7  1  0  0  0  0
  6  2  1  0  0  0  0
  7  4  1  1  0  0  0
  7  5  1  0  0  0  0
  8  9  1  0  0  0  0
 10  9  2  0  0  0  0
 11 14  1  0  0  0  0
 12 15  1  0  0  0  0
 12 11  2  0  0  0  0
 13 16  1  0  0  0  0
 13 14  2  0  0  0  0
 14  8  1  0  0  0  0
 15 13  1  0  0  0  0
 18 19  2  0  0  0  0
 19 24  1  0  0  0  0
 19 17  1  0  0  0  0
 21 23  2  0  0  0  0
 21 24  1  0  0  0  0
 22 21  1  0  0  0  0
 23 25  1  0  0  0  0
 24 20  2  0  0  0  0
 25 20  1  0  0  0  0
M  END
>  <MODEL>
2

>  <REMARK>
 VINA RESULT:      -7.5      2.331      6.586
  Name = 
  4 active torsions:
  status: ('A' for Active; 'I' for Inactive)
    1  A    between atoms: C_2  and  N_12
    2  A    between atoms: N_3  and  C_20
    3  A    between atoms: C_15  and  C_17
    4  A    between atoms: C_16  and  C_24
                            x       y       z     vdW  Elec       q    Type
                         _______ _______ _______ _____ _____    ______ ____

>  <TORSDO>
F 4

$$$$
=
 OpenBabel11062413543D

 25 27  0  0  1  0  0  0  0  0999 V2000
  189.2520  178.0220  139.5210 C   0  0  0  0  0  2  0  0  0  0  0  0
  188.4810  178.3120  140.8040 C   0  0  2  0  0  3  0  0  0  0  0  0
  191.2220  176.8240  138.9440 C   0  0  0  0  0  1  0  0  0  0  0  0
  191.4570  177.4110  141.6530 C   0  0  0  0  0  1  0  0  0  0  0  0
  189.9850  176.7760  139.7170 N   0  0  0  0  0  0  0  0  0  0  0  0
  188.9270  177.2380  141.7730 C   0  0  1  0  0  3  0  0  0  0  0  0
  190.2010  176.6630  141.1660 C   0  0  2  0  0  3  0  0  0  0  0  0
  188.6500  176.8460  144.2730 N   0  0  0  0  0  2  0  0  0  0  0  0
  189.0290  177.7110  143.1950 C   0  0  0  0  0  0  0  0  0  0  0  0
  189.4720  178.8670  143.4220 O   0  0  0  0  0  0  0  0  0  0  0  0
  189.2280  176.9760  146.6990 C   0  0  0  0  0  3  0  0  0  0  0  0
  188.6120  177.4480  147.8080 N   0  0  0  0  0  0  0  0  0  0  0  0
  187.2990  177.8630  146.1620 C   0  0  0  0  0  0  0  0  0  0  0  0
  188.4090  177.2520  145.6250 C   0  0  0  0  0  0  0  0  0  0  0  0
  187.4700  177.9650  147.4540 O   0  0  0  0  0  0  0  0  0  0  0  0
  186.1200  178.2690  145.4770 N   0  0  0  0  0  1  0  0  0  0  0  0
  187.0500  178.1890  140.5680 N   0  0  0  0  0  2  0  0  0  0  0  0
  186.4590  179.8350  142.1120 O   0  0  0  0  0  0  0  0  0  0  0  0
  186.0850  178.9930  141.2510 C   0  0  0  0  0  0  0  0  0  0  0  0
  183.6880  178.0500  141.7750 C   0  0  0  0  0  3  0  0  0  0  0  0
  184.0020  179.3070  139.9110 C   0  0  0  0  0  0  0  0  0  0  0  0
  184.5620  180.1050  138.8740 N   0  0  0  0  0  1  0  0  0  0  0  0
  182.6460  178.9340  139.9540 N   0  0  0  0  0  0  0  0  0  0  0  0
  184.6540  178.8230  140.9420 C   0  0  0  0  0  0  0  0  0  0  0  0
  182.3880  178.1500  141.0910 N   0  0  0  0  0  2  0  0  0  0  0  0
  1  5  1  0  0  0  0
  1  2  1  0  0  0  0
  2 17  1  6  0  0  0
  2  6  1  0  0  0  0
  3  5  1  0  0  0  0
  5  7  1  0  0  0  0
  6  9  1  1  0  0  0
  7  4  1  1  0  0  0
  7  6  1  0  0  0  0
  8 14  1  0  0  0  0
  9 10  2  0  0  0  0
  9  8  1  0  0  0  0
 11 12  2  0  0  0  0
 13 15  1  0  0  0  0
 14 13  2  0  0  0  0
 14 11  1  0  0  0  0
 15 12  1  0  0  0  0
 16 13  1  0  0  0  0
 17 19  1  0  0  0  0
 19 18  2  0  0  0  0
 21 23  2  0  0  0  0
 21 24  1  0  0  0  0
 22 21  1  0  0  0  0
 23 25  1  0  0  0  0
 24 19  1  0  0  0  0
 24 20  2  0  0  0  0
 25 20  1  0  0  0  0
M  END
>  <MODEL>
3

>  <REMARK>
 VINA RESULT:      -7.3      2.571      4.461
  Name = 
  4 active torsions:
  status: ('A' for Active; 'I' for Inactive)
    1  A    between atoms: C_2  and  N_12
    2  A    between atoms: N_3  and  C_20
    3  A    between atoms: C_15  and  C_17
    4  A    between atoms: C_16  and  C_24
                            x       y       z     vdW  Elec       q    Type
                         _______ _______ _______ _____ _____    ______ ____

>  <TORSDO>
F 4

$$$$
=
 OpenBabel11062413543D

 25 27  0  0  1  0  0  0  0  0999 V2000
  188.6870  177.8370  144.2250 C   0  0  0  0  0  2  0  0  0  0  0  0
  188.0060  178.1280  142.8920 C   0  0  2  0  0  3  0  0  0  0  0  0
  187.9780  177.4890  146.4660 C   0  0  0  0  0  1  0  0  0  0  0  0
  185.9140  178.8800  145.2250 C   0  0  0  0  0  1  0  0  0  0  0  0
  187.7240  177.1420  145.0720 N   0  0  0  0  0  0  0  0  0  0  0  0
  186.5720  177.6830  143.0850 C   0  0  1  0  0  3  0  0  0  0  0  0
  186.3980  177.5600  144.5940 C   0  0  2  0  0  3  0  0  0  0  0  0
  184.3540  177.9760  141.8720 N   0  0  0  0  0  2  0  0  0  0  0  0
  185.5710  178.5460  142.3730 C   0  0  0  0  0  0  0  0  0  0  0  0
  185.8060  179.7750  142.2450 O   0  0  0  0  0  0  0  0  0  0  0  0
  182.1020  178.7040  141.0740 C   0  0  0  0  0  3  0  0  0  0  0  0
  181.6210  179.2620  139.9390 N   0  0  0  0  0  0  0  0  0  0  0  0
  183.7420  179.0720  139.6700 C   0  0  0  0  0  0  0  0  0  0  0  0
  183.4690  178.5930  140.9310 C   0  0  0  0  0  0  0  0  0  0  0  0
  182.6190  179.4650  139.1260 O   0  0  0  0  0  0  0  0  0  0  0  0
  185.0010  179.0960  139.0080 N   0  0  0  0  0  1  0  0  0  0  0  0
  188.6200  177.3420  141.8320 N   0  0  0  0  0  2  0  0  0  0  0  0
  188.3200  178.9680  140.1870 O   0  0  0  0  0  0  0  0  0  0  0  0
  188.7580  177.8250  140.4940 C   0  0  0  0  0  0  0  0  0  0  0  0
  190.7790  176.3980  139.6080 C   0  0  0  0  0  3  0  0  0  0  0  0
  188.9140  176.5930  138.3290 C   0  0  0  0  0  0  0  0  0  0  0  0
  187.6260  176.9310  137.8250 N   0  0  0  0  0  1  0  0  0  0  0  0
  189.8310  175.7860  137.6310 N   0  0  0  0  0  0  0  0  0  0  0  0
  189.4100  176.9760  139.4820 C   0  0  2  0  0  3  0  0  0  0  0  0
  191.0120  175.6280  138.3740 N   0  0  0  0  0  0  0  0  0  0  0  0
  1  5  1  0  0  0  0
  2 17  1  6  0  0  0
  2  6  1  0  0  0  0
  2  1  1  0  0  0  0
  5  3  1  0  0  0  0
  6  9  1  1  0  0  0
  6  7  1  0  0  0  0
  7  5  1  0  0  0  0
  7  4  1  1  0  0  0
  8  9  1  0  0  0  0
 10  9  2  0  0  0  0
 12 11  2  0  0  0  0
 13 14  2  0  0  0  0
 14 11  1  0  0  0  0
 14  8  1  0  0  0  0
 15 13  1  0  0  0  0
 15 12  1  0  0  0  0
 16 13  1  0  0  0  0
 18 19  2  0  0  0  0
 19 17  1  0  0  0  0
 21 24  1  0  0  0  0
 22 21  1  0  0  0  0
 23 21  2  0  0  0  0
 23 25  1  0  0  0  0
 24 20  1  0  0  0  0
 24 19  1  6  0  0  0
 25 20  2  0  0  0  0
M  END
>  <MODEL>
4

>  <REMARK>
 VINA RESULT:      -7.3      2.348      3.522
  Name = 
  4 active torsions:
  status: ('A' for Active; 'I' for Inactive)
    1  A    between atoms: C_2  and  N_12
    2  A    between atoms: N_3  and  C_20
    3  A    between atoms: C_15  and  C_17
    4  A    between atoms: C_16  and  C_24
                            x       y       z     vdW  Elec       q    Type
                         _______ _______ _______ _____ _____    ______ ____

>  <TORSDO>
F 4

$$$$
=
 OpenBabel11062413543D

 25 27  0  0  1  0  0  0  0  0999 V2000
  186.4760  178.5120  145.0150 C   0  0  0  0  0  2  0  0  0  0  0  0
  187.7560  178.3350  144.2060 C   0  0  2  0  0  3  0  0  0  0  0  0
  184.1490  178.5970  144.5360 C   0  0  0  0  0  1  0  0  0  0  0  0
  185.4380  179.2310  142.1530 C   0  0  0  0  0  1  0  0  0  0  0  0
  185.3920  177.8780  144.2720 N   0  0  0  0  0  0  0  0  0  0  0  0
  187.3090  177.6910  142.9110 C   0  0  1  0  0  3  0  0  0  0  0  0
  185.8020  177.9110  142.8610 C   0  0  2  0  0  3  0  0  0  0  0  0
  187.8380  177.5620  140.4240 N   0  0  0  0  0  2  0  0  0  0  0  0
  188.0830  178.1500  141.7090 C   0  0  0  0  0  0  0  0  0  0  0  0
  188.9300  179.0720  141.8440 O   0  0  0  0  0  0  0  0  0  0  0  0
  188.3320  178.2530  138.0760 C   0  0  0  0  0  3  0  0  0  0  0  0
  189.3700  178.0850  137.2250 N   0  0  0  0  0  0  0  0  0  0  0  0
  189.9410  177.1500  139.0710 C   0  0  0  0  0  0  0  0  0  0  0  0
  188.6870  177.6780  139.2770 C   0  0  0  0  0  0  0  0  0  0  0  0
  190.3070  177.4250  137.8450 O   0  0  0  0  0  0  0  0  0  0  0  0
  190.7150  176.3780  139.9810 N   0  0  0  0  0  1  0  0  0  0  0  0
  188.6710  177.4420  144.9020 N   0  0  0  0  0  2  0  0  0  0  0  0
  190.5120  178.8600  144.7040 O   0  0  0  0  0  0  0  0  0  0  0  0
  190.0430  177.7700  145.1300 C   0  0  0  0  0  0  0  0  0  0  0  0
  191.0250  176.7530  147.3460 C   0  0  0  0  0  3  0  0  0  0  0  0
  191.6800  175.8980  145.3480 C   0  0  0  0  0  0  0  0  0  0  0  0
  191.8520  175.6330  143.9600 N   0  0  0  0  0  1  0  0  0  0  0  0
  192.3460  175.1840  146.3610 N   0  0  0  0  0  0  0  0  0  0  0  0
  190.9010  176.8200  145.8610 C   0  0  0  0  0  0  0  0  0  0  0  0
  191.9800  175.6680  147.6270 N   0  0  0  0  0  2  0  0  0  0  0  0
  2 17  1  1  0  0  0
  2  1  1  0  0  0  0
  5  3  1  0  0  0  0
  5  1  1  0  0  0  0
  6  9  1  6  0  0  0
  6  2  1  0  0  0  0
  7  4  1  1  0  0  0
  7  6  1  0  0  0  0
  7  5  1  0  0  0  0
  8  9  1  0  0  0  0
  9 10  2  0  0  0  0
 11 14  1  0  0  0  0
 12 15  1  0  0  0  0
 12 11  2  0  0  0  0
 13 14  2  0  0  0  0
 13 16  1  0  0  0  0
 14  8  1  0  0  0  0
 15 13  1  0  0  0  0
 17 19  1  0  0  0  0
 18 19  2  0  0  0  0
 19 24  1  0  0  0  0
 20 25  1  0  0  0  0
 21 24  1  0  0  0  0
 21 23  2  0  0  0  0
 22 21  1  0  0  0  0
 23 25  1  0  0  0  0
 24 20  2  0  0  0  0
M  END
>  <MODEL>
5

>  <REMARK>
 VINA RESULT:      -7.3      2.278      7.363
  Name = 
  4 active torsions:
  status: ('A' for Active; 'I' for Inactive)
    1  A    between atoms: C_2  and  N_12
    2  A    between atoms: N_3  and  C_20
    3  A    between atoms: C_15  and  C_17
    4  A    between atoms: C_16  and  C_24
                            x       y       z     vdW  Elec       q    Type
                         _______ _______ _______ _____ _____    ______ ____

>  <TORSDO>
F 4

$$$$
=
 OpenBabel11062413543D

 25 27  0  0  1  0  0  0  0  0999 V2000
  181.6550  178.6250  141.4560 C   0  0  0  0  0  2  0  0  0  0  0  0
  183.1530  178.7720  141.2110 C   0  0  2  0  0  3  0  0  0  0  0  0
  179.7700  177.9580  140.1720 C   0  0  0  0  0  1  0  0  0  0  0  0
  181.7060  178.7340  138.3310 C   0  0  0  0  0  1  0  0  0  0  0  0
  181.1490  177.6280  140.5190 N   0  0  0  0  0  0  0  0  0  0  0  0
  183.4320  177.9080  140.0000 C   0  0  1  0  0  3  0  0  0  0  0  0
  182.0670  177.6560  139.3720 C   0  0  2  0  0  3  0  0  0  0  0  0
  185.2110  177.6040  138.2050 N   0  0  0  0  0  2  0  0  0  0  0  0
  184.4840  178.4700  139.0870 C   0  0  0  0  0  0  0  0  0  0  0  0
  184.7000  179.7100  139.0940 O   0  0  0  0  0  0  0  0  0  0  0  0
  186.6070  177.8760  136.1520 C   0  0  0  0  0  3  0  0  0  0  0  0
  187.9030  178.1810  135.9060 N   0  0  0  0  0  0  0  0  0  0  0  0
  187.6560  178.2530  138.0370 C   0  0  0  0  0  0  0  0  0  0  0  0
  186.4210  177.9380  137.5160 C   0  0  0  0  0  0  0  0  0  0  0  0
  188.4970  178.3960  137.0460 O   0  0  0  0  0  0  0  0  0  0  0  0
  188.0150  178.3520  139.4100 N   0  0  0  0  0  1  0  0  0  0  0  0
  183.9010  178.2650  142.3520 N   0  0  0  0  0  2  0  0  0  0  0  0
  185.6780  179.7530  142.0930 O   0  0  0  0  0  0  0  0  0  0  0  0
  185.1610  178.8090  142.7510 C   0  0  0  0  0  0  0  0  0  0  0  0
  187.1210  177.4780  143.8900 C   0  0  0  0  0  3  0  0  0  0  0  0
  185.4680  178.3410  145.1840 C   0  0  0  0  0  0  0  0  0  0  0  0
  184.2980  179.0030  145.6540 N   0  0  0  0  0  1  0  0  0  0  0  0
  186.3790  177.6860  146.0310 N   0  0  0  0  0  0  0  0  0  0  0  0
  185.8470  178.2540  143.9310 C   0  0  0  0  0  0  0  0  0  0  0  0
  187.4310  177.1280  145.2860 N   0  0  0  0  0  2  0  0  0  0  0  0
  2  1  1  0  0  0  0
  2 17  1  1  0  0  0
  3  5  1  0  0  0  0
  5  1  1  0  0  0  0
  6  9  1  6  0  0  0
  6  2  1  0  0  0  0
  7  4  1  6  0  0  0
  7  6  1  0  0  0  0
  7  5  1  0  0  0  0
  8  9  1  0  0  0  0
  9 10  2  0  0  0  0
 11 14  1  0  0  0  0
 12 11  2  0  0  0  0
 12 15  1  0  0  0  0
 13 16  1  0  0  0  0
 14 13  2  0  0  0  0
 14  8  1  0  0  0  0
 15 13  1  0  0  0  0
 17 19  1  0  0  0  0
 18 19  2  0  0  0  0
 19 24  1  0  0  0  0
 20 24  2  0  0  0  0
 20 25  1  0  0  0  0
 21 22  1  0  0  0  0
 21 23  2  0  0  0  0
 24 21  1  0  0  0  0
 25 23  1  0  0  0  0
M  END
>  <MODEL>
6

>  <REMARK>
 VINA RESULT:      -7.2      2.750      7.946
  Name = 
  4 active torsions:
  status: ('A' for Active; 'I' for Inactive)
    1  A    between atoms: C_2  and  N_12
    2  A    between atoms: N_3  and  C_20
    3  A    between atoms: C_15  and  C_17
    4  A    between atoms: C_16  and  C_24
                            x       y       z     vdW  Elec       q    Type
                         _______ _______ _______ _____ _____    ______ ____

>  <TORSDO>
F 4

$$$$
=
 OpenBabel11062413543D

 25 27  0  0  1  0  0  0  0  0999 V2000
  189.3400  176.6470  141.9870 C   0  0  0  0  0  2  0  0  0  0  0  0
  188.1110  177.3060  142.6020 C   0  0  2  0  0  3  0  0  0  0  0  0
  190.4710  176.7500  139.8990 C   0  0  0  0  0  1  0  0  0  0  0  0
  187.8820  177.6400  139.4050 C   0  0  0  0  0  1  0  0  0  0  0  0
  189.8560  177.5440  140.9580 N   0  0  0  0  0  0  0  0  0  0  0  0
  187.8860  178.5530  141.7740 C   0  0  1  0  0  3  0  0  0  0  0  0
  188.7040  178.3370  140.5060 C   0  0  2  0  0  3  0  0  0  0  0  0
  185.4300  178.2610  142.3760 N   0  0  0  0  0  2  0  0  0  0  0  0
  186.4370  178.8920  141.5740 C   0  0  0  0  0  0  0  0  0  0  0  0
  186.1250  179.7530  140.7090 O   0  0  0  0  0  0  0  0  0  0  0  0
  183.4460  177.8690  140.9110 C   0  0  0  0  0  3  0  0  0  0  0  0
  182.1160  178.0920  141.0170 N   0  0  0  0  0  0  0  0  0  0  0  0
  182.9890  178.7340  142.8700 C   0  0  0  0  0  0  0  0  0  0  0  0
  184.0250  178.2550  142.1010 C   0  0  0  0  0  0  0  0  0  0  0  0
  181.8790  178.6080  142.1910 O   0  0  0  0  0  0  0  0  0  0  0  0
  183.0730  179.3300  144.1590 N   0  0  0  0  0  1  0  0  0  0  0  0
  188.3810  177.6830  143.9820 N   0  0  0  0  0  2  0  0  0  0  0  0
  186.4320  176.7210  144.8280 O   0  0  0  0  0  0  0  0  0  0  0  0
  187.5020  177.3480  145.0580 C   0  0  0  0  0  0  0  0  0  0  0  0
  189.1420  177.4180  147.1110 C   0  0  0  0  0  3  0  0  0  0  0  0
  187.1230  178.4420  147.2690 C   0  0  0  0  0  0  0  0  0  0  0  0
  185.8190  178.9520  147.0080 N   0  0  0  0  0  1  0  0  0  0  0  0
  187.7960  178.6280  148.4910 N   0  0  0  0  0  0  0  0  0  0  0  0
  187.8550  177.7480  146.4310 C   0  0  0  0  0  0  0  0  0  0  0  0
  189.0580  178.0140  148.4550 N   0  0  0  0  0  2  0  0  0  0  0  0
  1  2  1  0  0  0  0
  2 17  1  1  0  0  0
  3  5  1  0  0  0  0
  5  1  1  0  0  0  0
  6  9  1  6  0  0  0
  6  2  1  0  0  0  0
  7  4  1  6  0  0  0
  7  5  1  0  0  0  0
  7  6  1  0  0  0  0
  9  8  1  0  0  0  0
 10  9  2  0  0  0  0
 11 12  2  0  0  0  0
 11 14  1  0  0  0  0
 12 15  1  0  0  0  0
 13 16  1  0  0  0  0
 14  8  1  0  0  0  0
 14 13  2  0  0  0  0
 15 13  1  0  0  0  0
 17 19  1  0  0  0  0
 18 19  2  0  0  0  0
 19 24  1  0  0  0  0
 20 25  1  0  0  0  0
 21 23  2  0  0  0  0
 22 21  1  0  0  0  0
 24 20  2  0  0  0  0
 24 21  1  0  0  0  0
 25 23  1  0  0  0  0
M  END
>  <MODEL>
7

>  <REMARK>
 VINA RESULT:      -7.2      2.714      6.172
  Name = 
  4 active torsions:
  status: ('A' for Active; 'I' for Inactive)
    1  A    between atoms: C_2  and  N_12
    2  A    between atoms: N_3  and  C_20
    3  A    between atoms: C_15  and  C_17
    4  A    between atoms: C_16  and  C_24
                            x       y       z     vdW  Elec       q    Type
                         _______ _______ _______ _____ _____    ______ ____

>  <TORSDO>
F 4

$$$$
=
 OpenBabel11062413543D

 25 27  0  0  1  0  0  0  0  0999 V2000
  189.6830  177.0740  137.5490 C   0  0  0  0  0  2  0  0  0  0  0  0
  190.4760  176.5900  138.7570 C   0  0  2  0  0  3  0  0  0  0  0  0
  187.9440  178.6480  137.1630 C   0  0  0  0  0  1  0  0  0  0  0  0
  187.8010  178.0050  139.8660 C   0  0  0  0  0  1  0  0  0  0  0  0
  189.2210  178.4280  137.8350 N   0  0  0  0  0  0  0  0  0  0  0  0
  190.3190  177.6880  139.7880 C   0  0  1  0  0  3  0  0  0  0  0  0
  189.1380  178.5200  139.3000 C   0  0  2  0  0  3  0  0  0  0  0  0
  190.1480  178.1090  142.2920 N   0  0  0  0  0  2  0  0  0  0  0  0
  190.2320  177.1840  141.1990 C   0  0  0  0  0  0  0  0  0  0  0  0
  190.2110  175.9430  141.4040 O   0  0  0  0  0  0  0  0  0  0  0  0
  191.5930  177.6920  144.2860 C   0  0  0  0  0  3  0  0  0  0  0  0
  191.3770  177.2910  145.5610 N   0  0  0  0  0  0  0  0  0  0  0  0
  189.4490  177.4040  144.6250 C   0  0  0  0  0  0  0  0  0  0  0  0
  190.3630  177.7930  143.6720 C   0  0  0  0  0  0  0  0  0  0  0  0
  190.0950  177.1260  145.7270 O   0  0  0  0  0  0  0  0  0  0  0  0
  188.0430  177.2530  144.4630 N   0  0  0  0  0  1  0  0  0  0  0  0
  191.8830  176.4480  138.4110 N   0  0  0  0  0  2  0  0  0  0  0  0
  191.6860  174.2290  137.7200 O   0  0  0  0  0  0  0  0  0  0  0  0
  192.4280  175.2360  137.8830 C   0  0  0  0  0  0  0  0  0  0  0  0
  194.9260  174.6240  138.4200 C   0  0  0  0  0  3  0  0  0  0  0  0
  194.4250  175.5900  136.4280 C   0  0  0  0  0  0  0  0  0  0  0  0
  193.7530  176.1860  135.3230 N   0  0  0  0  0  1  0  0  0  0  0  0
  195.8140  175.3690  136.4610 N   0  0  0  0  0  0  0  0  0  0  0  0
  193.8590  175.1780  137.5380 C   0  0  0  0  0  0  0  0  0  0  0  0
  196.1880  174.7690  137.6750 N   0  0  0  0  0  2  0  0  0  0  0  0
  1  5  1  0  0  0  0
  1  2  1  0  0  0  0
  2 17  1  6  0  0  0
  2  6  1  0  0  0  0
  3  5  1  0  0  0  0
  5  7  1  0  0  0  0
  6  9  1  1  0  0  0
  7  6  1  0  0  0  0
  7  4  1  1  0  0  0
  8 14  1  0  0  0  0
  9 10  2  0  0  0  0
  9  8  1  0  0  0  0
 11 12  2  0  0  0  0
 12 15  1  0  0  0  0
 13 15  1  0  0  0  0
 14 11  1  0  0  0  0
 14 13  2  0  0  0  0
 16 13  1  0  0  0  0
 18 19  2  0  0  0  0
 19 17  1  0  0  0  0
 21 23  2  0  0  0  0
 21 24  1  0  0  0  0
 22 21  1  0  0  0  0
 23 25  1  0  0  0  0
 24 19  1  0  0  0  0
 24 20  2  0  0  0  0
 25 20  1  0  0  0  0
M  END
>  <MODEL>
8

>  <REMARK>
 VINA RESULT:      -7.1      3.823      5.922
  Name = 
  4 active torsions:
  status: ('A' for Active; 'I' for Inactive)
    1  A    between atoms: C_2  and  N_12
    2  A    between atoms: N_3  and  C_20
    3  A    between atoms: C_15  and  C_17
    4  A    between atoms: C_16  and  C_24
                            x       y       z     vdW  Elec       q    Type
                         _______ _______ _______ _____ _____    ______ ____

>  <TORSDO>
F 4

$$$$
=
 OpenBabel11062413543D

 25 27  0  0  1  0  0  0  0  0999 V2000
  190.8730  177.1180  142.3290 C   0  0  0  0  0  2  0  0  0  0  0  0
  189.5500  177.5480  141.7050 C   0  0  2  0  0  3  0  0  0  0  0  0
  191.6190  176.5030  144.5000 C   0  0  0  0  0  1  0  0  0  0  0  0
  189.3020  177.9930  144.8880 C   0  0  0  0  0  1  0  0  0  0  0  0
  190.5660  176.3140  143.5080 N   0  0  0  0  0  0  0  0  0  0  0  0
  188.4910  177.0590  142.6700 C   0  0  1  0  0  3  0  0  0  0  0  0
  189.2420  176.7620  143.9630 C   0  0  2  0  0  3  0  0  0  0  0  0
  186.2620  177.6930  143.7230 N   0  0  0  0  0  2  0  0  0  0  0  0
  187.3120  177.9810  142.7900 C   0  0  0  0  0  0  0  0  0  0  0  0
  187.2720  179.0170  142.0770 O   0  0  0  0  0  0  0  0  0  0  0  0
  184.3240  178.7970  144.8470 C   0  0  0  0  0  3  0  0  0  0  0  0
  183.0900  179.1960  144.4600 N   0  0  0  0  0  0  0  0  0  0  0  0
  184.0450  178.3930  142.7130 C   0  0  0  0  0  0  0  0  0  0  0  0
  184.9640  178.2970  143.7330 C   0  0  0  0  0  0  0  0  0  0  0  0
  182.9560  178.9400  143.1890 O   0  0  0  0  0  0  0  0  0  0  0  0
  184.1870  177.9330  141.3750 N   0  0  0  0  0  1  0  0  0  0  0  0
  189.3680  176.8980  140.4150 N   0  0  0  0  0  2  0  0  0  0  0  0
  189.0600  178.8880  139.2390 O   0  0  0  0  0  0  0  0  0  0  0  0
  189.1360  177.6290  139.2090 C   0  0  0  0  0  0  0  0  0  0  0  0
  187.6920  176.7130  137.2140 C   0  0  0  0  0  3  0  0  0  0  0  0
  189.9240  176.3030  137.2470 C   0  0  0  0  0  0  0  0  0  0  0  0
  191.3030  176.2470  137.5980 N   0  0  0  0  0  1  0  0  0  0  0  0
  189.3960  175.7100  136.0860 N   0  0  0  0  0  0  0  0  0  0  0  0
  188.9820  176.8990  137.9390 C   0  0  2  0  0  3  0  0  0  0  0  0
  188.0110  175.9300  136.0080 N   0  0  0  0  0  0  0  0  0  0  0  0
  1  5  1  0  0  0  0
  2 17  1  6  0  0  0
  2  1  1  0  0  0  0
  2  6  1  0  0  0  0
  5  7  1  0  0  0  0
  5  3  1  0  0  0  0
  6  9  1  1  0  0  0
  6  7  1  0  0  0  0
  7  4  1  1  0  0  0
  8 14  1  0  0  0  0
  9  8  1  0  0  0  0
 10  9  2  0  0  0  0
 12 11  2  0  0  0  0
 13 15  1  0  0  0  0
 13 14  2  0  0  0  0
 14 11  1  0  0  0  0
 15 12  1  0  0  0  0
 16 13  1  0  0  0  0
 19 18  2  0  0  0  0
 19 17  1  0  0  0  0
 20 24  1  0  0  0  0
 21 22  1  0  0  0  0
 21 24  1  0  0  0  0
 23 21  2  0  0  0  0
 24 19  1  1  0  0  0
 25 23  1  0  0  0  0
 25 20  2  0  0  0  0
M  END
>  <MODEL>
9

>  <REMARK>
 VINA RESULT:      -7.1      1.108      1.936
  Name = 
  4 active torsions:
  status: ('A' for Active; 'I' for Inactive)
    1  A    between atoms: C_2  and  N_12
    2  A    between atoms: N_3  and  C_20
    3  A    between atoms: C_15  and  C_17
    4  A    between atoms: C_16  and  C_24
                            x       y       z     vdW  Elec       q    Type
                         _______ _______ _______ _____ _____    ______ ____

>  <TORSDO>
F 4

$$$$
