=
 OpenBabel11062412133D

 55 61  0  0  1  0  0  0  0  0999 V2000
  188.3600  177.3610  136.5340 C   0  0  0  0  0  0  0  0  0  0  0  0
  188.4320  174.9710  136.6730 O   0  0  0  0  0  0  0  0  0  0  0  0
  187.7740  176.0490  136.5710 C   0  0  0  0  0  0  0  0  0  0  0  0
  187.2610  178.3690  136.5450 C   0  0  1  0  0  3  0  0  0  0  0  0
  186.3560  176.1200  136.5440 N   0  0  0  0  0  0  0  0  0  0  0  0
  185.9830  177.5200  136.3510 C   0  0  0  0  0  2  0  0  0  0  0  0
  189.5990  177.6200  136.1240 C   0  0  0  0  0  2  0  0  0  0  0  0
  183.5460  173.9010  136.1590 C   0  0  0  0  0  0  0  0  0  0  0  0
  184.0840  172.5840  136.6550 C   0  0  0  0  0  2  0  0  0  0  0  0
  182.0730  175.1300  134.7530 C   0  0  0  0  0  2  0  0  0  0  0  0
  186.1220  173.8100  137.3410 C   0  0  0  0  0  2  0  0  0  0  0  0
  183.0470  175.8330  137.6870 C   0  0  0  0  0  2  0  0  0  0  0  0
  181.4520  177.1180  136.1350 C   0  0  0  0  0  2  0  0  0  0  0  0
  185.4800  175.2020  137.2760 C   0  0  2  0  0  3  0  0  0  0  0  0
  184.0460  175.2240  136.7040 C   0  0  1  0  0  3  0  0  0  0  0  0
  185.1070  172.7660  137.7640 C   0  0  0  0  0  2  0  0  0  0  0  0
  181.6050  176.0100  137.1660 C   0  0  1  0  0  0  0  0  0  0  0  0
  181.0730  175.6940  135.7580 C   0  0  2  0  0  3  0  0  0  0  0  0
  182.6350  173.8960  135.2510 N   0  0  0  0  0  0  0  0  0  0  0  0
  180.5660  175.9430  138.1450 O   0  0  0  0  0  0  0  0  0  0  0  0
  179.5130  182.1590  138.8160 C   0  0  1  0  0  3  0  0  0  0  0  0
  178.9310  183.5080  139.1830 C   0  0  0  0  0  1  0  0  0  0  0  0
  181.5970  180.1450  137.9240 C   0  0  0  0  0  2  0  0  0  0  0  0
  180.7750  182.3440  138.2520 O   0  0  0  0  0  0  0  0  0  0  0  0
  179.7020  177.8720  141.2370 C   0  0  0  0  0  0  0  0  0  0  0  0
  180.7020  179.3390  138.8710 C   0  0  1  0  0  3  0  0  0  0  0  0
  180.0430  176.8950  140.2250 N   0  0  0  0  0  0  0  0  0  0  0  0
  179.5570  179.2910  141.0000 N   0  0  0  0  0  0  0  0  0  0  0  0
  179.6180  181.3600  139.9870 O   0  0  0  0  0  0  0  0  0  0  0  0
  179.9610  180.0020  139.9900 C   0  0  0  0  0  0  0  0  0  0  0  0
  180.1330  177.0150  138.9310 C   0  0  0  0  0  0  0  0  0  0  0  0
  180.8890  181.3320  137.3010 C   0  0  0  0  0  2  0  0  0  0  0  0
  179.5260  177.4500  142.4460 N   0  0  0  0  0  2  0  0  0  0  0  0
  179.8400  178.2890  138.2240 C   0  0  0  0  0  2  0  0  0  0  0  0
  187.2000  178.9930  137.7990 O   0  0  0  0  0  0  0  0  0  0  0  0
  185.8000  178.6650  140.7000 C   0  0  0  0  0  0  0  0  0  0  0  0
  186.9270  177.9810  138.7350 C   0  0  1  0  0  3  0  0  0  0  0  0
  187.8330  178.1290  139.9260 C   0  0  0  0  0  0  0  0  0  0  0  0
  187.2110  178.5460  141.0110 C   0  0  0  0  0  3  0  0  0  0  0  0
  184.8580  179.1260  141.5180 C   0  0  0  0  0  3  0  0  0  0  0  0
  185.5280  178.2260  139.3130 C   0  0  0  0  0  2  0  0  0  0  0  0
  189.2370  177.8730  139.9360 N   0  0  0  0  0  2  0  0  0  0  0  0
  190.0080  175.9120  141.5900 O   0  0  0  0  0  0  0  0  0  0  0  0
  191.6270  177.6530  141.0370 O   0  0  0  0  0  0  0  0  0  0  0  0
  190.1730  177.3790  141.3160 S   0  0  0  0  0  0  0  0  0  0  0  0
  189.6760  178.3060  142.7620 C   0  0  0  0  0  2  0  0  0  0  0  0
  190.3180  177.8330  144.0260 C   0  0  0  0  0  0  0  0  0  0  0  0
  191.5640  178.3000  144.4280 O   0  0  0  0  0  0  0  0  0  0  0  0
  189.7000  177.0150  144.7600 O   0  0  0  0  0  1  0  0  0  0  0  0
  185.1500  179.5700  142.9170 C   0  0  0  0  0  2  0  0  0  0  0  0
  184.9510  178.4540  143.8320 N   0  0  0  0  0  0  0  0  0  0  0  0
  186.2230  178.2060  144.5130 C   0  0  0  0  0  2  0  0  0  0  0  0
  185.9760  177.7780  145.9490 C   0  0  0  0  0  1  0  0  0  0  0  0
  182.6380  178.7340  144.2950 O   0  0  0  0  0  1  0  0  0  0  0  0
  183.9320  178.8240  144.8200 C   0  0  0  0  0  2  0  0  0  0  0  0
  1  4  1  0  0  0  0
  1  3  1  0  0  0  0
  3  2  2  0  0  0  0
  4 35  1  1  0  0  0
  5  3  1  0  0  0  0
  6  5  1  0  0  0  0
  6  4  1  0  0  0  0
  7  1  2  0  0  0  0
  8  9  1  0  0  0  0
  8 15  1  0  0  0  0
  9 16  1  0  0  0  0
 10 19  1  0  0  0  0
 11 16  1  0  0  0  0
 13 17  1  0  0  0  0
 14  5  1  6  0  0  0
 14 11  1  0  0  0  0
 15 14  1  0  0  0  0
 15 12  1  1  0  0  0
 17 12  1  0  0  0  0
 17 20  1  1  0  0  0
 18 10  1  6  0  0  0
 18 13  1  0  0  0  0
 18 17  1  0  0  0  0
 19  8  2  0  0  0  0
 20 31  1  0  0  0  0
 21 22  1  1  0  0  0
 21 29  1  0  0  0  0
 24 21  1  0  0  0  0
 25 33  2  0  0  0  0
 26 23  1  6  0  0  0
 26 30  1  0  0  0  0
 27 25  1  0  0  0  0
 28 25  1  0  0  0  0
 29 30  1  0  0  0  0
 30 28  2  0  0  0  0
 31 27  2  0  0  0  0
 32 23  1  0  0  0  0
 32 24  1  0  0  0  0
 34 26  1  0  0  0  0
 34 31  1  0  0  0  0
 36 39  1  0  0  0  0
 36 40  2  0  0  0  0
 37 35  1  6  0  0  0
 37 41  1  0  0  0  0
 37 38  1  0  0  0  0
 38 42  1  0  0  0  0
 38 39  2  0  0  0  0
 40 50  1  0  0  0  0
 41 36  1  0  0  0  0
 42 45  1  0  0  0  0
 44 45  2  0  0  0  0
 45 43  2  0  0  0  0
 45 46  1  0  0  0  0
 46 47  1  0  0  0  0
 47 48  2  0  0  0  0
 47 49  1  0  0  0  0
 50 51  1  0  0  0  0
 51 52  1  0  0  0  0
 51 55  1  0  0  0  0
 52 53  1  0  0  0  0
 54 55  1  0  0  0  0
M  END
>  <MODEL>
1

>  <REMARK>
 VINA RESULT:      -7.9      0.000      0.000
  Name = 
  13 active torsions:
  status: ('A' for Active; 'I' for Inactive)
    1  A    between atoms: C_4  and  C_23
    2  A    between atoms: C_4  and  S_31
    3  A    between atoms: O_7  and  C_8
    4  A    between atoms: O_7  and  C_29
    5  A    between atoms: C_9  and  N_27
    6  A    between atoms: C_11  and  N_18
    7  A    between atoms: N_18  and  S_31
    8  A    between atoms: O_22  and  C_42
    9  A    between atoms: O_22  and  C_43
   10  A    between atoms: N_27  and  C_50
   11  A    between atoms: N_27  and  C_53
   12  A    between atoms: C_28  and  N_34
   13  A    between atoms: C_45  and  C_50
                            x       y       z     vdW  Elec       q    Type
                         _______ _______ _______ _____ _____    ______ ____

>  <TORSDO>
F 13

$$$$
=
 OpenBabel11062412133D

 55 61  0  0  1  0  0  0  0  0999 V2000
  190.9460  177.6970  142.3850 C   0  0  0  0  0  0  0  0  0  0  0  0
  192.3440  177.6840  140.4410 O   0  0  0  0  0  0  0  0  0  0  0  0
  191.2030  177.5640  140.9770 C   0  0  0  0  0  0  0  0  0  0  0  0
  189.5170  177.3540  142.6370 C   0  0  1  0  0  3  0  0  0  0  0  0
  190.0220  177.2130  140.2700 N   0  0  0  0  0  0  0  0  0  0  0  0
  188.9100  177.2410  141.2190 C   0  0  0  0  0  2  0  0  0  0  0  0
  191.6960  178.4080  143.2220 C   0  0  0  0  0  2  0  0  0  0  0  0
  190.0640  177.1580  136.6690 C   0  0  0  0  0  0  0  0  0  0  0  0
  191.2660  176.3050  136.3580 C   0  0  0  0  0  2  0  0  0  0  0  0
  188.5740  178.9170  136.0830 C   0  0  0  0  0  2  0  0  0  0  0  0
  191.4260  175.8520  138.7870 C   0  0  0  0  0  2  0  0  0  0  0  0
  187.9360  176.2210  137.6240 C   0  0  0  0  0  2  0  0  0  0  0  0
  186.3650  178.1410  136.9570 C   0  0  0  0  0  2  0  0  0  0  0  0
  190.0000  176.3160  139.1130 C   0  0  2  0  0  3  0  0  0  0  0  0
  189.2430  176.9520  137.9270 C   0  0  1  0  0  3  0  0  0  0  0  0
  191.4900  175.2280  137.4070 C   0  0  0  0  0  2  0  0  0  0  0  0
  187.0450  176.8480  136.5320 C   0  0  1  0  0  0  0  0  0  0  0  0
  187.2960  178.1520  135.7540 C   0  0  2  0  0  3  0  0  0  0  0  0
  189.7280  178.0820  135.8410 N   0  0  0  0  0  0  0  0  0  0  0  0
  186.2240  175.9460  135.7880 O   0  0  0  0  0  0  0  0  0  0  0  0
  180.4840  176.4520  138.4330 C   0  0  1  0  0  3  0  0  0  0  0  0
  179.0270  176.2650  138.8020 C   0  0  0  0  0  1  0  0  0  0  0  0
  183.3640  177.3530  138.7230 C   0  0  0  0  0  2  0  0  0  0  0  0
  181.0740  177.3360  139.3350 O   0  0  0  0  0  0  0  0  0  0  0  0
  184.0000  173.2520  137.1390 C   0  0  0  0  0  0  0  0  0  0  0  0
  183.4740  176.0590  137.9110 C   0  0  1  0  0  3  0  0  0  0  0  0
  185.0460  174.0700  136.5620 N   0  0  0  0  0  0  0  0  0  0  0  0
  182.7630  173.7590  137.6890 N   0  0  0  0  0  0  0  0  0  0  0  0
  181.1440  175.1940  138.4840 O   0  0  0  0  0  0  0  0  0  0  0  0
  182.4550  174.9700  138.0450 C   0  0  0  0  0  0  0  0  0  0  0  0
  185.0590  175.3400  136.2680 C   0  0  0  0  0  0  0  0  0  0  0  0
  182.0170  178.0330  138.5820 C   0  0  0  0  0  2  0  0  0  0  0  0
  184.1900  171.9740  137.1800 N   0  0  0  0  0  2  0  0  0  0  0  0
  183.8790  176.2190  136.4710 C   0  0  0  0  0  2  0  0  0  0  0  0
  189.4320  176.1020  143.2640 O   0  0  0  0  0  0  0  0  0  0  0  0
  186.5990  177.6170  143.6670 C   0  0  0  0  0  0  0  0  0  0  0  0
  188.4160  176.2080  144.2280 C   0  0  1  0  0  3  0  0  0  0  0  0
  188.4770  177.5580  144.8880 C   0  0  0  0  0  0  0  0  0  0  0  0
  187.4840  178.3560  144.5460 C   0  0  0  0  0  3  0  0  0  0  0  0
  185.5230  178.1040  143.0560 C   0  0  0  0  0  3  0  0  0  0  0  0
  187.0650  176.2210  143.5030 C   0  0  0  0  0  2  0  0  0  0  0  0
  189.4920  177.9930  145.7910 N   0  0  0  0  0  2  0  0  0  0  0  0
  189.0770  178.6750  148.3480 O   0  0  0  0  0  0  0  0  0  0  0  0
  188.7880  176.3340  147.7200 O   0  0  0  0  0  0  0  0  0  0  0  0
  189.6060  177.5740  147.4750 S   0  0  0  0  0  0  0  0  0  0  0  0
  191.3070  177.2410  147.9140 C   0  0  0  0  0  2  0  0  0  0  0  0
  191.9440  176.1760  147.0820 C   0  0  0  0  0  0  0  0  0  0  0  0
  192.8210  175.2490  147.6330 O   0  0  0  0  0  1  0  0  0  0  0  0
  191.6530  176.0980  145.8580 O   0  0  0  0  0  0  0  0  0  0  0  0
  185.0670  179.5190  143.2290 C   0  0  0  0  0  2  0  0  0  0  0  0
  183.6660  179.5320  143.6290 N   0  0  0  0  0  0  0  0  0  0  0  0
  182.8930  178.9090  142.5530 C   0  0  0  0  0  2  0  0  0  0  0  0
  181.4390  178.7620  142.9690 C   0  0  0  0  0  1  0  0  0  0  0  0
  184.2660  179.2780  145.9130 O   0  0  0  0  0  1  0  0  0  0  0  0
  183.5130  178.7480  144.8590 C   0  0  0  0  0  2  0  0  0  0  0  0
  1  4  1  0  0  0  0
  1  7  2  0  0  0  0
  2  3  2  0  0  0  0
  3  1  1  0  0  0  0
  4 35  1  6  0  0  0
  5  3  1  0  0  0  0
  5  6  1  0  0  0  0
  6  4  1  0  0  0  0
  8 15  1  0  0  0  0
  9  8  1  0  0  0  0
  9 16  1  0  0  0  0
 14 11  1  6  0  0  0
 14  5  1  0  0  0  0
 15 12  1  6  0  0  0
 15 14  1  0  0  0  0
 16 11  1  0  0  0  0
 17 20  1  6  0  0  0
 17 13  1  0  0  0  0
 17 12  1  0  0  0  0
 18 10  1  1  0  0  0
 18 17  1  0  0  0  0
 18 13  1  0  0  0  0
 19 10  1  0  0  0  0
 19  8  2  0  0  0  0
 20 31  1  0  0  0  0
 21 29  1  0  0  0  0
 21 22  1  1  0  0  0
 21 24  1  0  0  0  0
 25 33  2  0  0  0  0
 25 28  1  0  0  0  0
 26 34  1  6  0  0  0
 26 30  1  0  0  0  0
 26 23  1  0  0  0  0
 27 25  1  0  0  0  0
 28 30  2  0  0  0  0
 30 29  1  0  0  0  0
 31 34  1  0  0  0  0
 31 27  2  0  0  0  0
 32 23  1  0  0  0  0
 32 24  1  0  0  0  0
 36 39  1  0  0  0  0
 37 35  1  6  0  0  0
 37 38  1  0  0  0  0
 38 42  1  0  0  0  0
 39 38  2  0  0  0  0
 40 50  1  0  0  0  0
 40 36  2  0  0  0  0
 41 36  1  0  0  0  0
 41 37  1  0  0  0  0
 42 45  1  0  0  0  0
 45 44  2  0  0  0  0
 45 46  1  0  0  0  0
 45 43  2  0  0  0  0
 47 48  1  0  0  0  0
 47 46  1  0  0  0  0
 49 47  2  0  0  0  0
 50 51  1  0  0  0  0
 51 55  1  0  0  0  0
 52 53  1  0  0  0  0
 52 51  1  0  0  0  0
 55 54  1  0  0  0  0
M  END
>  <MODEL>
2

>  <REMARK>
 VINA RESULT:      -7.6      2.682      5.733
  Name = 
  13 active torsions:
  status: ('A' for Active; 'I' for Inactive)
    1  A    between atoms: C_4  and  C_23
    2  A    between atoms: C_4  and  S_31
    3  A    between atoms: O_7  and  C_8
    4  A    between atoms: O_7  and  C_29
    5  A    between atoms: C_9  and  N_27
    6  A    between atoms: C_11  and  N_18
    7  A    between atoms: N_18  and  S_31
    8  A    between atoms: O_22  and  C_42
    9  A    between atoms: O_22  and  C_43
   10  A    between atoms: N_27  and  C_50
   11  A    between atoms: N_27  and  C_53
   12  A    between atoms: C_28  and  N_34
   13  A    between atoms: C_45  and  C_50
                            x       y       z     vdW  Elec       q    Type
                         _______ _______ _______ _____ _____    ______ ____

>  <TORSDO>
F 13

$$$$
=
 OpenBabel11062412133D

 55 61  0  0  1  0  0  0  0  0999 V2000
  190.2960  177.3870  140.9840 C   0  0  0  0  0  0  0  0  0  0  0  0
  191.3420  175.7990  139.5290 O   0  0  0  0  0  0  0  0  0  0  0  0
  190.3910  176.5940  139.7900 C   0  0  0  0  0  0  0  0  0  0  0  0
  188.9770  178.0840  140.9840 C   0  0  1  0  0  3  0  0  0  0  0  0
  189.2470  176.7660  138.9670 N   0  0  0  0  0  0  0  0  0  0  0  0
  188.4180  177.8100  139.5690 C   0  0  0  0  0  2  0  0  0  0  0  0
  191.3380  177.7750  141.7150 C   0  0  0  0  0  2  0  0  0  0  0  0
  188.3340  175.8360  135.6100 C   0  0  0  0  0  0  0  0  0  0  0  0
  189.0830  174.5440  135.4010 C   0  0  0  0  0  2  0  0  0  0  0  0
  187.3750  177.8280  134.7360 C   0  0  0  0  0  2  0  0  0  0  0  0
  189.7160  174.6640  137.7920 C   0  0  0  0  0  2  0  0  0  0  0  0
  186.3440  176.0270  137.1320 C   0  0  0  0  0  2  0  0  0  0  0  0
  185.3400  178.1760  136.1450 C   0  0  0  0  0  2  0  0  0  0  0  0
  188.6440  175.6940  138.1720 C   0  0  2  0  0  3  0  0  0  0  0  0
  187.8450  176.2630  136.9800 C   0  0  1  0  0  3  0  0  0  0  0  0
  189.2200  173.7490  136.6890 C   0  0  0  0  0  2  0  0  0  0  0  0
  185.4440  176.6620  136.0510 C   0  0  1  0  0  0  0  0  0  0  0  0
  185.8820  177.5470  134.8710 C   0  0  2  0  0  3  0  0  0  0  0  0
  188.1030  176.5890  134.5940 N   0  0  0  0  0  0  0  0  0  0  0  0
  184.2180  175.9840  135.7700 O   0  0  0  0  0  0  0  0  0  0  0  0
  180.1760  179.6970  138.9460 C   0  0  1  0  0  3  0  0  0  0  0  0
  178.9320  180.3420  139.5190 C   0  0  0  0  0  1  0  0  0  0  0  0
  183.1120  178.9810  138.6970 C   0  0  0  0  0  2  0  0  0  0  0  0
  181.3000  180.2310  139.5770 O   0  0  0  0  0  0  0  0  0  0  0  0
  181.2840  175.0140  137.8860 C   0  0  0  0  0  0  0  0  0  0  0  0
  182.3940  177.7440  138.1490 C   0  0  1  0  0  3  0  0  0  0  0  0
  182.4520  175.0970  137.0360 N   0  0  0  0  0  0  0  0  0  0  0  0
  180.6060  176.1490  138.4730 N   0  0  0  0  0  0  0  0  0  0  0  0
  180.1190  178.2930  139.1620 O   0  0  0  0  0  0  0  0  0  0  0  0
  181.0220  177.3710  138.6180 C   0  0  0  0  0  0  0  0  0  0  0  0
  183.0340  176.1330  136.4990 C   0  0  0  0  0  0  0  0  0  0  0  0
  182.2850  180.2460  138.5910 C   0  0  0  0  0  2  0  0  0  0  0  0
  180.8170  173.8390  138.1550 N   0  0  0  0  0  2  0  0  0  0  0  0
  182.5180  177.5160  136.6670 C   0  0  0  0  0  2  0  0  0  0  0  0
  188.1260  177.4910  141.9270 O   0  0  0  0  0  0  0  0  0  0  0  0
  189.0280  177.5660  145.0350 C   0  0  0  0  0  0  0  0  0  0  0  0
  188.0740  178.3670  143.0230 C   0  0  1  0  0  3  0  0  0  0  0  0
  187.0560  177.8810  144.0180 C   0  0  0  0  0  0  0  0  0  0  0  0
  187.5900  177.4000  145.1240 C   0  0  0  0  0  3  0  0  0  0  0  0
  189.9180  177.1380  145.9260 C   0  0  0  0  0  3  0  0  0  0  0  0
  189.4020  178.2640  143.7840 C   0  0  0  0  0  2  0  0  0  0  0  0
  185.6420  177.8990  143.8330 N   0  0  0  0  0  2  0  0  0  0  0  0
  184.8230  179.2900  145.9690 O   0  0  0  0  0  0  0  0  0  0  0  0
  184.7010  180.3650  143.7810 O   0  0  0  0  0  0  0  0  0  0  0  0
  184.5400  179.0590  144.5130 S   0  0  0  0  0  0  0  0  0  0  0  0
  182.8540  178.4930  144.3250 C   0  0  0  0  0  2  0  0  0  0  0  0
  182.2090  178.9460  143.0550 C   0  0  0  0  0  0  0  0  0  0  0  0
  181.1510  179.8490  143.0580 O   0  0  0  0  0  1  0  0  0  0  0  0
  182.6550  178.5220  141.9550 O   0  0  0  0  0  0  0  0  0  0  0  0
  189.5250  176.4300  147.1840 C   0  0  0  0  0  2  0  0  0  0  0  0
  190.3220  176.9340  148.2950 N   0  0  0  0  0  0  0  0  0  0  0  0
  191.6990  177.0850  147.8200 C   0  0  0  0  0  2  0  0  0  0  0  0
  192.4670  175.7900  148.0200 C   0  0  0  0  0  1  0  0  0  0  0  0
  188.4020  178.2860  148.6510 O   0  0  0  0  0  1  0  0  0  0  0  0
  189.7990  178.2430  148.7020 C   0  0  0  0  0  2  0  0  0  0  0  0
  1  7  2  0  0  0  0
  2  3  2  0  0  0  0
  3  1  1  0  0  0  0
  4  1  1  0  0  0  0
  4 35  1  1  0  0  0
  5  6  1  0  0  0  0
  5  3  1  0  0  0  0
  6  4  1  0  0  0  0
  8 15  1  0  0  0  0
  9  8  1  0  0  0  0
  9 16  1  0  0  0  0
 14 11  1  6  0  0  0
 14  5  1  0  0  0  0
 15 12  1  1  0  0  0
 15 14  1  0  0  0  0
 16 11  1  0  0  0  0
 17 20  1  6  0  0  0
 17 13  1  0  0  0  0
 17 12  1  0  0  0  0
 18 10  1  1  0  0  0
 18 17  1  0  0  0  0
 18 13  1  0  0  0  0
 19 10  1  0  0  0  0
 19  8  2  0  0  0  0
 20 31  1  0  0  0  0
 21 29  1  0  0  0  0
 21 22  1  1  0  0  0
 21 24  1  0  0  0  0
 25 33  2  0  0  0  0
 25 28  1  0  0  0  0
 26 34  1  6  0  0  0
 26 30  1  0  0  0  0
 26 23  1  0  0  0  0
 27 25  1  0  0  0  0
 28 30  2  0  0  0  0
 30 29  1  0  0  0  0
 31 34  1  0  0  0  0
 31 27  2  0  0  0  0
 32 23  1  0  0  0  0
 32 24  1  0  0  0  0
 36 39  1  0  0  0  0
 36 40  2  0  0  0  0
 37 35  1  6  0  0  0
 37 41  1  0  0  0  0
 37 38  1  0  0  0  0
 38 39  2  0  0  0  0
 40 50  1  0  0  0  0
 41 36  1  0  0  0  0
 42 38  1  0  0  0  0
 42 45  1  0  0  0  0
 44 45  2  0  0  0  0
 45 43  2  0  0  0  0
 46 45  1  0  0  0  0
 47 48  1  0  0  0  0
 47 46  1  0  0  0  0
 49 47  2  0  0  0  0
 50 51  1  0  0  0  0
 51 55  1  0  0  0  0
 52 53  1  0  0  0  0
 52 51  1  0  0  0  0
 54 55  1  0  0  0  0
M  END
>  <MODEL>
3

>  <REMARK>
 VINA RESULT:      -6.7      2.637      5.339
  Name = 
  13 active torsions:
  status: ('A' for Active; 'I' for Inactive)
    1  A    between atoms: C_4  and  C_23
    2  A    between atoms: C_4  and  S_31
    3  A    between atoms: O_7  and  C_8
    4  A    between atoms: O_7  and  C_29
    5  A    between atoms: C_9  and  N_27
    6  A    between atoms: C_11  and  N_18
    7  A    between atoms: N_18  and  S_31
    8  A    between atoms: O_22  and  C_42
    9  A    between atoms: O_22  and  C_43
   10  A    between atoms: N_27  and  C_50
   11  A    between atoms: N_27  and  C_53
   12  A    between atoms: C_28  and  N_34
   13  A    between atoms: C_45  and  C_50
                            x       y       z     vdW  Elec       q    Type
                         _______ _______ _______ _____ _____    ______ ____

>  <TORSDO>
F 13

$$$$
=
 OpenBabel11062412133D

 55 61  0  0  1  0  0  0  0  0999 V2000
  187.0260  177.0750  135.7540 C   0  0  0  0  0  0  0  0  0  0  0  0
  189.3640  177.5290  135.5070 O   0  0  0  0  0  0  0  0  0  0  0  0
  188.4240  176.7740  135.8970 C   0  0  0  0  0  0  0  0  0  0  0  0
  186.2430  176.0140  136.4510 C   0  0  1  0  0  3  0  0  0  0  0  0
  188.6180  175.5510  136.5910 N   0  0  0  0  0  0  0  0  0  0  0  0
  187.3040  174.9470  136.8060 C   0  0  0  0  0  2  0  0  0  0  0  0
  186.5200  177.8760  134.8200 C   0  0  0  0  0  2  0  0  0  0  0  0
  192.1370  176.1190  137.1070 C   0  0  0  0  0  0  0  0  0  0  0  0
  192.1720  176.8480  138.4260 C   0  0  0  0  0  2  0  0  0  0  0  0
  193.0770  175.6770  134.9680 C   0  0  0  0  0  2  0  0  0  0  0  0
  189.7410  176.4130  138.5960 C   0  0  0  0  0  2  0  0  0  0  0  0
  191.5720  173.6770  136.9130 C   0  0  0  0  0  2  0  0  0  0  0  0
  192.6130  173.2480  134.6040 C   0  0  0  0  0  2  0  0  0  0  0  0
  189.7170  175.3110  137.5290 C   0  0  2  0  0  3  0  0  0  0  0  0
  191.0540  175.1090  136.7820 C   0  0  1  0  0  3  0  0  0  0  0  0
  191.0540  176.4040  139.3540 C   0  0  0  0  0  2  0  0  0  0  0  0
  192.8420  173.3390  136.1060 C   0  0  1  0  0  0  0  0  0  0  0  0
  193.6130  174.2590  135.1440 C   0  0  2  0  0  3  0  0  0  0  0  0
  193.0540  176.3610  136.2400 N   0  0  0  0  0  0  0  0  0  0  0  0
  193.6900  172.3270  136.6530 O   0  0  0  0  0  0  0  0  0  0  0  0
  197.6760  175.0020  140.7960 C   0  0  1  0  0  3  0  0  0  0  0  0
  198.8220  175.2780  141.7470 C   0  0  0  0  0  1  0  0  0  0  0  0
  195.3400  175.6040  138.9580 C   0  0  0  0  0  2  0  0  0  0  0  0
  196.9520  176.1770  140.6000 O   0  0  0  0  0  0  0  0  0  0  0  0
  197.4290  172.5070  136.5540 C   0  0  0  0  0  0  0  0  0  0  0  0
  195.9590  174.3410  138.3500 C   0  0  1  0  0  3  0  0  0  0  0  0
  196.0140  172.2970  136.3340 N   0  0  0  0  0  0  0  0  0  0  0  0
  197.9940  173.2250  137.6750 N   0  0  0  0  0  0  0  0  0  0  0  0
  198.1970  174.5400  139.5560 O   0  0  0  0  0  0  0  0  0  0  0  0
  197.4160  174.0370  138.5080 C   0  0  0  0  0  0  0  0  0  0  0  0
  194.9950  172.5350  137.1110 C   0  0  0  0  0  0  0  0  0  0  0  0
  195.6330  175.7570  140.4380 C   0  0  0  0  0  2  0  0  0  0  0  0
  198.2520  172.0320  135.6770 N   0  0  0  0  0  2  0  0  0  0  0  0
  195.1460  173.0820  138.4840 C   0  0  0  0  0  2  0  0  0  0  0  0
  185.7040  176.5250  137.6400 O   0  0  0  0  0  0  0  0  0  0  0  0
  183.1570  177.8600  139.1290 C   0  0  0  0  0  0  0  0  0  0  0  0
  184.3610  176.8330  137.3690 C   0  0  1  0  0  3  0  0  0  0  0  0
  183.4590  175.8860  138.1130 C   0  0  0  0  0  0  0  0  0  0  0  0
  182.8170  176.4500  139.1170 C   0  0  0  0  0  3  0  0  0  0  0  0
  182.7630  178.7480  140.0370 C   0  0  0  0  0  3  0  0  0  0  0  0
  184.0440  178.1980  137.9930 C   0  0  0  0  0  2  0  0  0  0  0  0
  183.2870  174.5010  137.8160 N   0  0  0  0  0  2  0  0  0  0  0  0
  181.0040  173.1640  137.4000 O   0  0  0  0  0  0  0  0  0  0  0  0
  181.5890  174.9530  135.8460 O   0  0  0  0  0  0  0  0  0  0  0  0
  182.1430  173.8350  136.6880 S   0  0  0  0  0  0  0  0  0  0  0  0
  182.9480  172.6490  135.6200 C   0  0  0  0  0  2  0  0  0  0  0  0
  184.3620  172.3580  136.0060 C   0  0  0  0  0  0  0  0  0  0  0  0
  185.4080  172.5040  135.1020 O   0  0  0  0  0  0  0  0  0  0  0  0
  184.6140  172.0010  137.1890 O   0  0  0  0  0  1  0  0  0  0  0  0
  181.8700  178.3900  141.1820 C   0  0  0  0  0  2  0  0  0  0  0  0
  182.1580  179.2610  142.3140 N   0  0  0  0  0  0  0  0  0  0  0  0
  180.9220  179.4090  143.0860 C   0  0  0  0  0  2  0  0  0  0  0  0
  180.1190  178.1210  143.0420 C   0  0  0  0  0  1  0  0  0  0  0  0
  183.4440  179.3750  144.3080 O   0  0  0  0  0  1  0  0  0  0  0  0
  183.1850  178.6310  143.1520 C   0  0  0  0  0  2  0  0  0  0  0  0
  1  3  1  0  0  0  0
  1  4  1  0  0  0  0
  2  3  2  0  0  0  0
  3  5  1  0  0  0  0
  4  6  1  0  0  0  0
  4 35  1  1  0  0  0
  5  6  1  0  0  0  0
  7  1  2  0  0  0  0
  8  9  1  0  0  0  0
  9 16  1  0  0  0  0
 10 18  1  0  0  0  0
 10 19  1  0  0  0  0
 11 16  1  0  0  0  0
 13 17  1  0  0  0  0
 14  5  1  6  0  0  0
 14 11  1  0  0  0  0
 15 12  1  1  0  0  0
 15  8  1  0  0  0  0
 15 14  1  0  0  0  0
 17 20  1  1  0  0  0
 17 12  1  0  0  0  0
 18 13  1  6  0  0  0
 18 17  1  0  0  0  0
 19  8  2  0  0  0  0
 20 31  1  0  0  0  0
 21 22  1  1  0  0  0
 23 32  1  0  0  0  0
 24 21  1  0  0  0  0
 25 28  1  0  0  0  0
 26 34  1  1  0  0  0
 26 30  1  0  0  0  0
 26 23  1  0  0  0  0
 27 25  1  0  0  0  0
 27 31  2  0  0  0  0
 28 30  2  0  0  0  0
 29 21  1  0  0  0  0
 30 29  1  0  0  0  0
 31 34  1  0  0  0  0
 32 24  1  0  0  0  0
 33 25  2  0  0  0  0
 36 40  2  0  0  0  0
 37 35  1  1  0  0  0
 37 41  1  0  0  0  0
 37 38  1  0  0  0  0
 38 39  2  0  0  0  0
 39 36  1  0  0  0  0
 40 50  1  0  0  0  0
 41 36  1  0  0  0  0
 42 38  1  0  0  0  0
 44 45  2  0  0  0  0
 45 43  2  0  0  0  0
 45 42  1  0  0  0  0
 46 47  1  0  0  0  0
 46 45  1  0  0  0  0
 47 49  1  0  0  0  0
 48 47  2  0  0  0  0
 50 51  1  0  0  0  0
 51 52  1  0  0  0  0
 51 55  1  0  0  0  0
 53 52  1  0  0  0  0
 55 54  1  0  0  0  0
M  END
>  <MODEL>
4

>  <REMARK>
 VINA RESULT:      -5.9      5.205     11.282
  Name = 
  13 active torsions:
  status: ('A' for Active; 'I' for Inactive)
    1  A    between atoms: C_4  and  C_23
    2  A    between atoms: C_4  and  S_31
    3  A    between atoms: O_7  and  C_8
    4  A    between atoms: O_7  and  C_29
    5  A    between atoms: C_9  and  N_27
    6  A    between atoms: C_11  and  N_18
    7  A    between atoms: N_18  and  S_31
    8  A    between atoms: O_22  and  C_42
    9  A    between atoms: O_22  and  C_43
   10  A    between atoms: N_27  and  C_50
   11  A    between atoms: N_27  and  C_53
   12  A    between atoms: C_28  and  N_34
   13  A    between atoms: C_45  and  C_50
                            x       y       z     vdW  Elec       q    Type
                         _______ _______ _______ _____ _____    ______ ____

>  <TORSDO>
F 13

$$$$
=
 OpenBabel11062412133D

 55 61  0  0  1  0  0  0  0  0999 V2000
  185.9120  177.7570  138.5070 C   0  0  0  0  0  0  0  0  0  0  0  0
  188.2210  177.1960  138.2120 O   0  0  0  0  0  0  0  0  0  0  0  0
  187.0620  177.3740  137.7340 C   0  0  0  0  0  0  0  0  0  0  0  0
  184.7160  177.7330  137.6150 C   0  0  1  0  0  3  0  0  0  0  0  0
  186.7170  177.1570  136.3740 N   0  0  0  0  0  0  0  0  0  0  0  0
  185.3150  177.5330  136.2040 C   0  0  0  0  0  2  0  0  0  0  0  0
  185.9660  178.4250  139.6550 C   0  0  0  0  0  2  0  0  0  0  0  0
  188.8360  174.2460  136.4720 C   0  0  0  0  0  0  0  0  0  0  0  0
  187.9710  173.1780  135.8540 C   0  0  0  0  0  2  0  0  0  0  0  0
  190.5710  174.8880  137.9670 C   0  0  0  0  0  2  0  0  0  0  0  0
  186.3370  174.9640  135.3390 C   0  0  0  0  0  2  0  0  0  0  0  0
  189.8410  176.1260  135.1410 C   0  0  0  0  0  2  0  0  0  0  0  0
  191.7070  176.7740  136.7840 C   0  0  0  0  0  2  0  0  0  0  0  0
  187.3250  176.1220  135.5340 C   0  0  2  0  0  3  0  0  0  0  0  0
  188.7090  175.7040  136.0760 C   0  0  1  0  0  3  0  0  0  0  0  0
  187.0420  173.7390  134.7910 C   0  0  0  0  0  2  0  0  0  0  0  0
  191.2740  175.8600  135.6470 C   0  0  1  0  0  0  0  0  0  0  0  0
  191.6920  175.2690  137.0050 C   0  0  2  0  0  3  0  0  0  0  0  0
  189.7050  173.9060  137.3560 N   0  0  0  0  0  0  0  0  0  0  0  0
  192.2660  175.6230  134.6460 O   0  0  0  0  0  0  0  0  0  0  0  0
  197.7280  173.3380  136.9160 C   0  0  1  0  0  3  0  0  0  0  0  0
  199.1800  172.9550  137.1080 C   0  0  0  0  0  1  0  0  0  0  0  0
  194.8420  173.8880  137.6670 C   0  0  0  0  0  2  0  0  0  0  0  0
  197.0220  173.0560  138.0850 O   0  0  0  0  0  0  0  0  0  0  0  0
  195.5920  177.3170  134.9440 C   0  0  0  0  0  0  0  0  0  0  0  0
  195.1000  174.8530  136.5060 C   0  0  1  0  0  3  0  0  0  0  0  0
  194.2180  176.9230  134.7210 N   0  0  0  0  0  0  0  0  0  0  0  0
  196.6080  176.4760  135.5370 N   0  0  0  0  0  0  0  0  0  0  0  0
  197.6450  174.7270  136.6220 O   0  0  0  0  0  0  0  0  0  0  0  0
  196.4720  175.3830  136.2260 C   0  0  0  0  0  0  0  0  0  0  0  0
  193.6450  175.7580  134.8340 C   0  0  0  0  0  0  0  0  0  0  0  0
  195.7540  172.6780  137.6500 C   0  0  0  0  0  2  0  0  0  0  0  0
  195.9380  178.5150  134.6020 N   0  0  0  0  0  2  0  0  0  0  0  0
  194.3930  174.5320  135.2170 C   0  0  0  0  0  2  0  0  0  0  0  0
  183.9150  176.6250  137.9250 O   0  0  0  0  0  0  0  0  0  0  0  0
  180.9990  177.8430  138.6290 C   0  0  0  0  0  0  0  0  0  0  0  0
  182.6780  176.8400  137.2960 C   0  0  1  0  0  3  0  0  0  0  0  0
  181.6620  175.8620  137.8180 C   0  0  0  0  0  0  0  0  0  0  0  0
  180.7480  176.4150  138.5910 C   0  0  0  0  0  3  0  0  0  0  0  0
  180.3330  178.7320  139.3600 C   0  0  0  0  0  3  0  0  0  0  0  0
  182.1370  178.2010  137.7520 C   0  0  0  0  0  2  0  0  0  0  0  0
  181.6470  174.4610  137.5500 N   0  0  0  0  0  2  0  0  0  0  0  0
  179.0330  173.8850  137.4590 O   0  0  0  0  0  0  0  0  0  0  0  0
  180.2620  173.9840  135.3530 O   0  0  0  0  0  0  0  0  0  0  0  0
  180.3470  173.5810  136.8010 S   0  0  0  0  0  0  0  0  0  0  0  0
  180.6580  171.8220  136.8950 C   0  0  0  0  0  2  0  0  0  0  0  0
  181.9860  171.4180  136.3430 C   0  0  0  0  0  0  0  0  0  0  0  0
  182.2560  171.4790  134.9790 O   0  0  0  0  0  0  0  0  0  0  0  0
  182.8920  171.0430  137.1340 O   0  0  0  0  0  1  0  0  0  0  0  0
  179.1870  178.3530  140.2450 C   0  0  0  0  0  2  0  0  0  0  0  0
  179.3360  179.0060  141.5390 N   0  0  0  0  0  0  0  0  0  0  0  0
  180.1130  178.1120  142.4000 C   0  0  0  0  0  2  0  0  0  0  0  0
  181.3160  178.8450  142.9680 C   0  0  0  0  0  1  0  0  0  0  0  0
  179.2670  181.3780  141.6410 O   0  0  0  0  0  1  0  0  0  0  0  0
  180.0670  180.2660  141.3560 C   0  0  0  0  0  2  0  0  0  0  0  0
  1  7  2  0  0  0  0
  3  2  2  0  0  0  0
  3  1  1  0  0  0  0
  4 35  1  1  0  0  0
  4  1  1  0  0  0  0
  5  3  1  0  0  0  0
  6  5  1  0  0  0  0
  6  4  1  0  0  0  0
  8 19  2  0  0  0  0
  9  8  1  0  0  0  0
 12 17  1  0  0  0  0
 14 11  1  1  0  0  0
 14 15  1  0  0  0  0
 14  5  1  0  0  0  0
 15 12  1  6  0  0  0
 15  8  1  0  0  0  0
 16 11  1  0  0  0  0
 16  9  1  0  0  0  0
 17 20  1  6  0  0  0
 17 13  1  0  0  0  0
 17 18  1  0  0  0  0
 18 13  1  1  0  0  0
 18 10  1  0  0  0  0
 19 10  1  0  0  0  0
 20 31  1  0  0  0  0
 21 22  1  1  0  0  0
 21 24  1  0  0  0  0
 25 28  1  0  0  0  0
 26 34  1  6  0  0  0
 26 23  1  0  0  0  0
 27 31  2  0  0  0  0
 27 25  1  0  0  0  0
 28 30  2  0  0  0  0
 29 21  1  0  0  0  0
 30 26  1  0  0  0  0
 30 29  1  0  0  0  0
 31 34  1  0  0  0  0
 32 23  1  0  0  0  0
 32 24  1  0  0  0  0
 33 25  2  0  0  0  0
 36 40  2  0  0  0  0
 37 41  1  0  0  0  0
 37 38  1  0  0  0  0
 37 35  1  1  0  0  0
 38 39  2  0  0  0  0
 39 36  1  0  0  0  0
 40 50  1  0  0  0  0
 41 36  1  0  0  0  0
 42 38  1  0  0  0  0
 44 45  2  0  0  0  0
 45 46  1  0  0  0  0
 45 43  2  0  0  0  0
 45 42  1  0  0  0  0
 47 46  1  0  0  0  0
 47 49  1  0  0  0  0
 48 47  2  0  0  0  0
 50 51  1  0  0  0  0
 51 52  1  0  0  0  0
 52 53  1  0  0  0  0
 55 51  1  0  0  0  0
 55 54  1  0  0  0  0
M  END
>  <MODEL>
5

>  <REMARK>
 VINA RESULT:      -5.9      4.670     11.097
  Name = 
  13 active torsions:
  status: ('A' for Active; 'I' for Inactive)
    1  A    between atoms: C_4  and  C_23
    2  A    between atoms: C_4  and  S_31
    3  A    between atoms: O_7  and  C_8
    4  A    between atoms: O_7  and  C_29
    5  A    between atoms: C_9  and  N_27
    6  A    between atoms: C_11  and  N_18
    7  A    between atoms: N_18  and  S_31
    8  A    between atoms: O_22  and  C_42
    9  A    between atoms: O_22  and  C_43
   10  A    between atoms: N_27  and  C_50
   11  A    between atoms: N_27  and  C_53
   12  A    between atoms: C_28  and  N_34
   13  A    between atoms: C_45  and  C_50
                            x       y       z     vdW  Elec       q    Type
                         _______ _______ _______ _____ _____    ______ ____

>  <TORSDO>
F 13

$$$$
=
 OpenBabel11062412133D

 55 61  0  0  1  0  0  0  0  0999 V2000
  186.9150  177.5300  135.6010 C   0  0  0  0  0  0  0  0  0  0  0  0
  189.2910  177.6270  135.3170 O   0  0  0  0  0  0  0  0  0  0  0  0
  188.2600  177.0510  135.7740 C   0  0  0  0  0  0  0  0  0  0  0  0
  186.0000  176.6590  136.3940 C   0  0  1  0  0  3  0  0  0  0  0  0
  188.2890  175.8840  136.5810 N   0  0  0  0  0  0  0  0  0  0  0  0
  186.9060  175.4920  136.8490 C   0  0  0  0  0  2  0  0  0  0  0  0
  186.5160  178.3030  134.5950 C   0  0  0  0  0  2  0  0  0  0  0  0
  191.8010  176.3540  137.2230 C   0  0  0  0  0  0  0  0  0  0  0  0
  191.8110  177.0250  138.5730 C   0  0  0  0  0  2  0  0  0  0  0  0
  192.7960  175.9840  135.0950 C   0  0  0  0  0  2  0  0  0  0  0  0
  189.3680  176.6350  138.6530 C   0  0  0  0  0  2  0  0  0  0  0  0
  191.1940  173.9360  136.9070 C   0  0  0  0  0  2  0  0  0  0  0  0
  192.2960  173.5830  134.6130 C   0  0  0  0  0  2  0  0  0  0  0  0
  189.3550  175.5800  137.5390 C   0  0  2  0  0  3  0  0  0  0  0  0
  190.7090  175.3820  136.8230 C   0  0  1  0  0  3  0  0  0  0  0  0
  190.6570  176.5650  139.4480 C   0  0  0  0  0  2  0  0  0  0  0  0
  192.4810  173.6050  136.1230 C   0  0  1  0  0  0  0  0  0  0  0  0
  193.2980  174.5500  135.2250 C   0  0  2  0  0  3  0  0  0  0  0  0
  192.7490  176.6140  136.3950 N   0  0  0  0  0  0  0  0  0  0  0  0
  193.2920  172.5530  136.6510 O   0  0  0  0  0  0  0  0  0  0  0  0
  197.2940  175.0550  140.8850 C   0  0  1  0  0  3  0  0  0  0  0  0
  198.4300  175.2820  141.8600 C   0  0  0  0  0  1  0  0  0  0  0  0
  195.0170  175.7530  139.0080 C   0  0  0  0  0  2  0  0  0  0  0  0
  196.6170  176.2570  140.6830 O   0  0  0  0  0  0  0  0  0  0  0  0
  197.0360  172.5950  136.6240 C   0  0  0  0  0  0  0  0  0  0  0  0
  195.6010  174.4720  138.4030 C   0  0  1  0  0  3  0  0  0  0  0  0
  195.6190  172.4380  136.3760 N   0  0  0  0  0  0  0  0  0  0  0  0
  197.6060  173.2840  137.7600 N   0  0  0  0  0  0  0  0  0  0  0  0
  197.8210  174.5810  139.6530 O   0  0  0  0  0  0  0  0  0  0  0  0
  197.0420  174.1130  138.5870 C   0  0  0  0  0  0  0  0  0  0  0  0
  194.5940  172.7090  137.1340 C   0  0  0  0  0  0  0  0  0  0  0  0
  195.2870  175.8870  140.4930 C   0  0  0  0  0  2  0  0  0  0  0  0
  197.8570  172.0940  135.7590 N   0  0  0  0  0  2  0  0  0  0  0  0
  194.7390  173.2430  138.5130 C   0  0  0  0  0  2  0  0  0  0  0  0
  185.5510  177.3500  137.5290 O   0  0  0  0  0  0  0  0  0  0  0  0
  182.3980  177.9910  137.1690 C   0  0  0  0  0  0  0  0  0  0  0  0
  184.3110  176.7880  137.8720 C   0  0  1  0  0  3  0  0  0  0  0  0
  183.6710  177.5940  138.9690 C   0  0  0  0  0  0  0  0  0  0  0  0
  182.6280  178.2930  138.5680 C   0  0  0  0  0  3  0  0  0  0  0  0
  181.4790  178.5560  136.3910 C   0  0  0  0  0  3  0  0  0  0  0  0
  183.3560  176.9700  136.6860 C   0  0  0  0  0  2  0  0  0  0  0  0
  184.1150  177.6470  140.3240 N   0  0  0  0  0  2  0  0  0  0  0  0
  186.6200  178.5870  140.4330 O   0  0  0  0  0  0  0  0  0  0  0  0
  184.7830  180.1840  140.6160 O   0  0  0  0  0  0  0  0  0  0  0  0
  185.2400  178.7970  140.9840 S   0  0  0  0  0  0  0  0  0  0  0  0
  185.2910  178.6580  142.7660 C   0  0  0  0  0  2  0  0  0  0  0  0
  183.9450  178.7270  143.4110 C   0  0  0  0  0  0  0  0  0  0  0  0
  182.7780  178.7680  142.6570 O   0  0  0  0  0  0  0  0  0  0  0  0
  183.8660  178.7180  144.6690 O   0  0  0  0  0  1  0  0  0  0  0  0
  180.5210  179.5900  136.8930 C   0  0  0  0  0  2  0  0  0  0  0  0
  181.1160  180.9120  136.7500 N   0  0  0  0  0  0  0  0  0  0  0  0
  180.1600  181.7520  136.0250 C   0  0  0  0  0  2  0  0  0  0  0  0
  180.8620  182.9710  135.4520 C   0  0  0  0  0  1  0  0  0  0  0  0
  180.2640  181.2610  138.9390 O   0  0  0  0  0  1  0  0  0  0  0  0
  181.3500  181.4760  138.0840 C   0  0  0  0  0  2  0  0  0  0  0  0
  1  3  1  0  0  0  0
  1  4  1  0  0  0  0
  2  3  2  0  0  0  0
  3  5  1  0  0  0  0
  4  6  1  0  0  0  0
  4 35  1  1  0  0  0
  5  6  1  0  0  0  0
  7  1  2  0  0  0  0
  8  9  1  0  0  0  0
  9 16  1  0  0  0  0
 10 18  1  0  0  0  0
 10 19  1  0  0  0  0
 11 16  1  0  0  0  0
 13 17  1  0  0  0  0
 14  5  1  6  0  0  0
 14 11  1  0  0  0  0
 15 12  1  1  0  0  0
 15  8  1  0  0  0  0
 15 14  1  0  0  0  0
 17 20  1  1  0  0  0
 17 12  1  0  0  0  0
 18 13  1  6  0  0  0
 18 17  1  0  0  0  0
 19  8  2  0  0  0  0
 20 31  1  0  0  0  0
 21 22  1  1  0  0  0
 23 32  1  0  0  0  0
 24 21  1  0  0  0  0
 25 28  1  0  0  0  0
 26 34  1  1  0  0  0
 26 30  1  0  0  0  0
 26 23  1  0  0  0  0
 27 25  1  0  0  0  0
 27 31  2  0  0  0  0
 28 30  2  0  0  0  0
 29 21  1  0  0  0  0
 30 29  1  0  0  0  0
 31 34  1  0  0  0  0
 32 24  1  0  0  0  0
 33 25  2  0  0  0  0
 36 39  1  0  0  0  0
 37 35  1  6  0  0  0
 37 38  1  0  0  0  0
 38 42  1  0  0  0  0
 39 38  2  0  0  0  0
 40 50  1  0  0  0  0
 40 36  2  0  0  0  0
 41 36  1  0  0  0  0
 41 37  1  0  0  0  0
 42 45  1  0  0  0  0
 43 45  2  0  0  0  0
 44 45  2  0  0  0  0
 45 46  1  0  0  0  0
 46 47  1  0  0  0  0
 47 49  1  0  0  0  0
 48 47  2  0  0  0  0
 51 50  1  0  0  0  0
 51 55  1  0  0  0  0
 52 51  1  0  0  0  0
 53 52  1  0  0  0  0
 55 54  1  0  0  0  0
M  END
>  <MODEL>
6

>  <REMARK>
 VINA RESULT:      -5.8      4.808     10.928
  Name = 
  13 active torsions:
  status: ('A' for Active; 'I' for Inactive)
    1  A    between atoms: C_4  and  C_23
    2  A    between atoms: C_4  and  S_31
    3  A    between atoms: O_7  and  C_8
    4  A    between atoms: O_7  and  C_29
    5  A    between atoms: C_9  and  N_27
    6  A    between atoms: C_11  and  N_18
    7  A    between atoms: N_18  and  S_31
    8  A    between atoms: O_22  and  C_42
    9  A    between atoms: O_22  and  C_43
   10  A    between atoms: N_27  and  C_50
   11  A    between atoms: N_27  and  C_53
   12  A    between atoms: C_28  and  N_34
   13  A    between atoms: C_45  and  C_50
                            x       y       z     vdW  Elec       q    Type
                         _______ _______ _______ _____ _____    ______ ____

>  <TORSDO>
F 13

$$$$
=
 OpenBabel11062412133D

 55 61  0  0  1  0  0  0  0  0999 V2000
  189.4520  177.4290  139.5510 C   0  0  0  0  0  0  0  0  0  0  0  0
  188.4060  178.0600  141.6100 O   0  0  0  0  0  0  0  0  0  0  0  0
  188.3240  177.7100  140.3960 C   0  0  0  0  0  0  0  0  0  0  0  0
  188.9550  177.1860  138.1660 C   0  0  1  0  0  3  0  0  0  0  0  0
  187.1050  177.6090  139.6740 N   0  0  0  0  0  0  0  0  0  0  0  0
  187.4200  177.1160  138.3350 C   0  0  0  0  0  2  0  0  0  0  0  0
  190.6410  177.0270  139.9930 C   0  0  0  0  0  2  0  0  0  0  0  0
  183.5730  177.5710  140.3750 C   0  0  0  0  0  0  0  0  0  0  0  0
  183.4720  178.3680  141.6500 C   0  0  0  0  0  2  0  0  0  0  0  0
  182.7540  175.8590  138.9420 C   0  0  0  0  0  2  0  0  0  0  0  0
  185.8810  178.8750  141.3840 C   0  0  0  0  0  2  0  0  0  0  0  0
  184.1040  178.6160  138.1520 C   0  0  0  0  0  2  0  0  0  0  0  0
  183.1940  176.7440  136.6460 C   0  0  0  0  0  2  0  0  0  0  0  0
  185.9480  178.4770  139.9030 C   0  0  2  0  0  3  0  0  0  0  0  0
  184.6550  177.8410  139.3480 C   0  0  1  0  0  3  0  0  0  0  0  0
  184.5250  179.4610  141.7250 C   0  0  0  0  0  2  0  0  0  0  0  0
  182.8780  177.9970  137.4480 C   0  0  1  0  0  0  0  0  0  0  0  0
  182.1830  176.6650  137.7790 C   0  0  2  0  0  3  0  0  0  0  0  0
  182.7130  176.6410  140.1560 N   0  0  0  0  0  0  0  0  0  0  0  0
  181.9810  178.9120  136.8170 O   0  0  0  0  0  0  0  0  0  0  0  0
  179.8110  184.7690  137.9130 C   0  0  1  0  0  3  0  0  0  0  0  0
  178.9310  185.9690  138.1920 C   0  0  0  0  0  1  0  0  0  0  0  0
  182.3570  183.1320  137.7230 C   0  0  0  0  0  2  0  0  0  0  0  0
  181.1490  185.1540  137.9950 O   0  0  0  0  0  0  0  0  0  0  0  0
  179.6250  180.0990  139.4760 C   0  0  0  0  0  0  0  0  0  0  0  0
  181.2830  182.0890  138.0460 C   0  0  1  0  0  3  0  0  0  0  0  0
  180.5010  179.3770  138.5780 N   0  0  0  0  0  0  0  0  0  0  0  0
  179.3780  181.5230  139.4220 N   0  0  0  0  0  0  0  0  0  0  0  0
  179.5390  183.7550  138.8720 O   0  0  0  0  0  0  0  0  0  0  0  0
  180.0520  182.4530  138.8150 C   0  0  0  0  0  0  0  0  0  0  0  0
  181.1020  179.7680  137.4890 C   0  0  0  0  0  0  0  0  0  0  0  0
  181.8010  184.3690  137.0460 C   0  0  0  0  0  2  0  0  0  0  0  0
  179.0280  179.4270  140.4040 N   0  0  0  0  0  2  0  0  0  0  0  0
  180.9400  181.1360  136.9330 C   0  0  0  0  0  2  0  0  0  0  0  0
  189.2690  178.2800  137.3490 O   0  0  0  0  0  0  0  0  0  0  0  0
  188.6110  175.9040  135.2510 C   0  0  0  0  0  0  0  0  0  0  0  0
  189.7840  177.7510  136.1540 C   0  0  1  0  0  3  0  0  0  0  0  0
  190.4460  176.4270  136.4250 C   0  0  0  0  0  0  0  0  0  0  0  0
  189.7730  175.3960  135.9540 C   0  0  0  0  0  3  0  0  0  0  0  0
  187.6510  175.1670  134.6990 C   0  0  0  0  0  3  0  0  0  0  0  0
  188.6050  177.3850  135.2440 C   0  0  0  0  0  2  0  0  0  0  0  0
  191.6730  176.2440  137.1310 N   0  0  0  0  0  2  0  0  0  0  0  0
  192.9250  175.0620  135.0800 O   0  0  0  0  0  0  0  0  0  0  0  0
  194.1690  176.6960  136.4000 O   0  0  0  0  0  0  0  0  0  0  0  0
  193.1430  175.5960  136.4660 S   0  0  0  0  0  0  0  0  0  0  0  0
  193.7660  174.2850  137.5090 C   0  0  0  0  0  2  0  0  0  0  0  0
  195.1480  174.5320  138.0210 C   0  0  0  0  0  0  0  0  0  0  0  0
  196.2720  174.1810  137.2800 O   0  0  0  0  0  0  0  0  0  0  0  0
  195.2980  175.1000  139.1360 O   0  0  0  0  0  1  0  0  0  0  0  0
  187.6690  173.6720  134.7180 C   0  0  0  0  0  2  0  0  0  0  0  0
  186.3200  173.1720  134.9500 N   0  0  0  0  0  0  0  0  0  0  0  0
  186.4360  171.8730  135.6140 C   0  0  0  0  0  2  0  0  0  0  0  0
  187.8670  171.6400  136.0660 C   0  0  0  0  0  1  0  0  0  0  0  0
  185.2470  173.5140  137.0410 O   0  0  0  0  0  1  0  0  0  0  0  0
  185.6090  174.1090  135.8280 C   0  0  0  0  0  2  0  0  0  0  0  0
  1  7  2  0  0  0  0
  1  3  1  0  0  0  0
  3  2  2  0  0  0  0
  4 35  1  6  0  0  0
  4  6  1  0  0  0  0
  4  1  1  0  0  0  0
  5  3  1  0  0  0  0
  6  5  1  0  0  0  0
  8  9  1  0  0  0  0
  9 16  1  0  0  0  0
 10 19  1  0  0  0  0
 11 16  1  0  0  0  0
 13 17  1  0  0  0  0
 14  5  1  1  0  0  0
 14 11  1  0  0  0  0
 15 12  1  6  0  0  0
 15 14  1  0  0  0  0
 15  8  1  0  0  0  0
 17 20  1  6  0  0  0
 17 18  1  0  0  0  0
 17 12  1  0  0  0  0
 18 13  1  6  0  0  0
 18 10  1  0  0  0  0
 19  8  2  0  0  0  0
 20 31  1  0  0  0  0
 21 24  1  0  0  0  0
 21 22  1  1  0  0  0
 21 29  1  0  0  0  0
 23 26  1  0  0  0  0
 25 33  2  0  0  0  0
 26 34  1  6  0  0  0
 26 30  1  0  0  0  0
 27 25  1  0  0  0  0
 28 25  1  0  0  0  0
 30 29  1  0  0  0  0
 30 28  2  0  0  0  0
 31 27  2  0  0  0  0
 32 23  1  0  0  0  0
 32 24  1  0  0  0  0
 34 31  1  0  0  0  0
 36 39  1  0  0  0  0
 37 38  1  0  0  0  0
 37 35  1  1  0  0  0
 38 42  1  0  0  0  0
 39 38  2  0  0  0  0
 40 50  1  0  0  0  0
 40 36  2  0  0  0  0
 41 36  1  0  0  0  0
 41 37  1  0  0  0  0
 43 45  2  0  0  0  0
 44 45  2  0  0  0  0
 45 42  1  0  0  0  0
 45 46  1  0  0  0  0
 46 47  1  0  0  0  0
 47 49  1  0  0  0  0
 48 47  2  0  0  0  0
 50 51  1  0  0  0  0
 51 52  1  0  0  0  0
 51 55  1  0  0  0  0
 52 53  1  0  0  0  0
 55 54  1  0  0  0  0
M  END
>  <MODEL>
7

>  <REMARK>
 VINA RESULT:      -5.5      2.859      5.800
  Name = 
  13 active torsions:
  status: ('A' for Active; 'I' for Inactive)
    1  A    between atoms: C_4  and  C_23
    2  A    between atoms: C_4  and  S_31
    3  A    between atoms: O_7  and  C_8
    4  A    between atoms: O_7  and  C_29
    5  A    between atoms: C_9  and  N_27
    6  A    between atoms: C_11  and  N_18
    7  A    between atoms: N_18  and  S_31
    8  A    between atoms: O_22  and  C_42
    9  A    between atoms: O_22  and  C_43
   10  A    between atoms: N_27  and  C_50
   11  A    between atoms: N_27  and  C_53
   12  A    between atoms: C_28  and  N_34
   13  A    between atoms: C_45  and  C_50
                            x       y       z     vdW  Elec       q    Type
                         _______ _______ _______ _____ _____    ______ ____

>  <TORSDO>
F 13

$$$$
=
 OpenBabel11062412133D

 55 61  0  0  1  0  0  0  0  0999 V2000
  185.4300  178.6610  142.8410 C   0  0  0  0  0  0  0  0  0  0  0  0
  183.0470  178.8530  142.7070 O   0  0  0  0  0  0  0  0  0  0  0  0
  184.1520  178.4870  142.2080 C   0  0  0  0  0  0  0  0  0  0  0  0
  186.4920  178.2300  141.8870 C   0  0  1  0  0  3  0  0  0  0  0  0
  184.2930  177.9110  140.9180 N   0  0  0  0  0  0  0  0  0  0  0  0
  185.7020  177.5670  140.7350 C   0  0  0  0  0  2  0  0  0  0  0  0
  185.6110  178.7600  144.1560 C   0  0  0  0  0  2  0  0  0  0  0  0
  180.9010  178.6550  139.9610 C   0  0  0  0  0  0  0  0  0  0  0  0
  181.0200  180.0180  139.3280 C   0  0  0  0  0  2  0  0  0  0  0  0
  179.6330  177.0410  141.1600 C   0  0  0  0  0  2  0  0  0  0  0  0
  183.4740  179.7770  139.5510 C   0  0  0  0  0  2  0  0  0  0  0  0
  181.7740  176.5650  138.8720 C   0  0  0  0  0  2  0  0  0  0  0  0
  180.3710  174.8610  140.1870 C   0  0  0  0  0  2  0  0  0  0  0  0
  183.4490  178.2590  139.7720 C   0  0  2  0  0  3  0  0  0  0  0  0
  182.0370  177.6510  139.9140 C   0  0  1  0  0  3  0  0  0  0  0  0
  182.3530  180.2070  138.6240 C   0  0  0  0  0  2  0  0  0  0  0  0
  180.4340  175.8110  139.0010 C   0  0  1  0  0  0  0  0  0  0  0  0
  179.3590  175.9920  140.0870 C   0  0  2  0  0  3  0  0  0  0  0  0
  179.8050  178.3400  140.5520 N   0  0  0  0  0  0  0  0  0  0  0  0
  179.8720  175.3080  137.7880 O   0  0  0  0  0  0  0  0  0  0  0  0
  184.7970  171.8880  135.7260 C   0  0  1  0  0  3  0  0  0  0  0  0
  185.7150  170.7580  135.3090 C   0  0  0  0  0  1  0  0  0  0  0  0
  183.7420  174.7230  135.9300 C   0  0  0  0  0  2  0  0  0  0  0  0
  185.3860  173.1050  135.3830 O   0  0  0  0  0  0  0  0  0  0  0  0
  179.9330  172.5340  135.2720 C   0  0  0  0  0  0  0  0  0  0  0  0
  182.4750  173.8640  135.9930 C   0  0  1  0  0  3  0  0  0  0  0  0
  179.6210  173.6150  136.1820 N   0  0  0  0  0  0  0  0  0  0  0  0
  181.2590  172.0040  135.0420 N   0  0  0  0  0  0  0  0  0  0  0  0
  183.5490  171.7480  135.0590 O   0  0  0  0  0  0  0  0  0  0  0  0
  182.4140  172.5220  135.3340 C   0  0  0  0  0  0  0  0  0  0  0  0
  180.3650  174.2160  137.0670 C   0  0  0  0  0  0  0  0  0  0  0  0
  184.9850  173.9860  136.3860 C   0  0  0  0  0  2  0  0  0  0  0  0
  178.9590  172.0100  134.6030 N   0  0  0  0  0  2  0  0  0  0  0  0
  181.7750  173.8240  137.3240 C   0  0  0  0  0  2  0  0  0  0  0  0
  187.1650  179.3520  141.3840 O   0  0  0  0  0  0  0  0  0  0  0  0
  189.2010  177.7330  139.4570 C   0  0  0  0  0  0  0  0  0  0  0  0
  188.5260  179.0100  141.3320 C   0  0  1  0  0  3  0  0  0  0  0  0
  188.6960  177.5460  141.6330 C   0  0  0  0  0  0  0  0  0  0  0  0
  189.0360  176.8290  140.5800 C   0  0  0  0  0  3  0  0  0  0  0  0
  189.4710  177.3780  138.2050 C   0  0  0  0  0  3  0  0  0  0  0  0
  188.9980  179.1380  139.8780 C   0  0  0  0  0  2  0  0  0  0  0  0
  188.5080  176.9350  142.9080 N   0  0  0  0  0  2  0  0  0  0  0  0
  190.5820  176.2650  144.4640 O   0  0  0  0  0  0  0  0  0  0  0  0
  190.0290  178.6320  144.2410 O   0  0  0  0  0  0  0  0  0  0  0  0
  189.4520  177.2450  144.3350 S   0  0  0  0  0  0  0  0  0  0  0  0
  188.4190  177.1440  145.7920 C   0  0  0  0  0  2  0  0  0  0  0  0
  189.1830  177.2270  147.0740 C   0  0  0  0  0  0  0  0  0  0  0  0
  188.7600  178.0380  148.1220 O   0  0  0  0  0  1  0  0  0  0  0  0
  190.2170  176.5220  147.2190 O   0  0  0  0  0  0  0  0  0  0  0  0
  189.6700  175.9530  137.7940 C   0  0  0  0  0  2  0  0  0  0  0  0
  189.4570  175.8270  136.3580 N   0  0  0  0  0  0  0  0  0  0  0  0
  189.7870  174.4510  135.9800 C   0  0  0  0  0  2  0  0  0  0  0  0
  190.3690  173.7060  137.1680 C   0  0  0  0  0  1  0  0  0  0  0  0
  187.7180  175.7600  134.7410 O   0  0  0  0  0  1  0  0  0  0  0  0
  188.0440  176.0900  136.0610 C   0  0  0  0  0  2  0  0  0  0  0  0
  1  7  2  0  0  0  0
  3  2  2  0  0  0  0
  3  1  1  0  0  0  0
  4 35  1  6  0  0  0
  4  1  1  0  0  0  0
  5  3  1  0  0  0  0
  6  5  1  0  0  0  0
  6  4  1  0  0  0  0
  8 19  2  0  0  0  0
  9  8  1  0  0  0  0
 12 17  1  0  0  0  0
 14 11  1  1  0  0  0
 14 15  1  0  0  0  0
 14  5  1  0  0  0  0
 15 12  1  6  0  0  0
 15  8  1  0  0  0  0
 16  9  1  0  0  0  0
 16 11  1  0  0  0  0
 17 20  1  6  0  0  0
 17 18  1  0  0  0  0
 17 13  1  0  0  0  0
 18 13  1  1  0  0  0
 18 10  1  0  0  0  0
 19 10  1  0  0  0  0
 21 22  1  6  0  0  0
 23 32  1  0  0  0  0
 24 21  1  0  0  0  0
 24 32  1  0  0  0  0
 25 27  1  0  0  0  0
 26 23  1  1  0  0  0
 26 34  1  0  0  0  0
 27 31  2  0  0  0  0
 28 25  1  0  0  0  0
 28 30  2  0  0  0  0
 29 30  1  0  0  0  0
 29 21  1  0  0  0  0
 30 26  1  0  0  0  0
 31 34  1  0  0  0  0
 31 20  1  0  0  0  0
 33 25  2  0  0  0  0
 36 41  1  0  0  0  0
 36 39  1  0  0  0  0
 37 35  1  6  0  0  0
 37 38  1  0  0  0  0
 38 42  1  0  0  0  0
 39 38  2  0  0  0  0
 40 36  2  0  0  0  0
 41 37  1  0  0  0  0
 42 45  1  0  0  0  0
 44 45  2  0  0  0  0
 45 43  2  0  0  0  0
 45 46  1  0  0  0  0
 46 47  1  0  0  0  0
 47 49  2  0  0  0  0
 47 48  1  0  0  0  0
 50 40  1  0  0  0  0
 51 50  1  0  0  0  0
 52 51  1  0  0  0  0
 52 53  1  0  0  0  0
 54 55  1  0  0  0  0
 55 51  1  0  0  0  0
M  END
>  <MODEL>
8

>  <REMARK>
 VINA RESULT:      -5.4      2.357      7.001
  Name = 
  13 active torsions:
  status: ('A' for Active; 'I' for Inactive)
    1  A    between atoms: C_4  and  C_23
    2  A    between atoms: C_4  and  S_31
    3  A    between atoms: O_7  and  C_8
    4  A    between atoms: O_7  and  C_29
    5  A    between atoms: C_9  and  N_27
    6  A    between atoms: C_11  and  N_18
    7  A    between atoms: N_18  and  S_31
    8  A    between atoms: O_22  and  C_42
    9  A    between atoms: O_22  and  C_43
   10  A    between atoms: N_27  and  C_50
   11  A    between atoms: N_27  and  C_53
   12  A    between atoms: C_28  and  N_34
   13  A    between atoms: C_45  and  C_50
                            x       y       z     vdW  Elec       q    Type
                         _______ _______ _______ _____ _____    ______ ____

>  <TORSDO>
F 13

$$$$
=
 OpenBabel11062412133D

 55 61  0  0  1  0  0  0  0  0999 V2000
  187.0940  177.2390  136.0040 C   0  0  0  0  0  0  0  0  0  0  0  0
  189.4020  177.8660  135.8970 O   0  0  0  0  0  0  0  0  0  0  0  0
  188.5050  177.0100  136.1540 C   0  0  0  0  0  0  0  0  0  0  0  0
  186.3650  176.0500  136.5320 C   0  0  1  0  0  3  0  0  0  0  0  0
  188.7610  175.7210  136.6920 N   0  0  0  0  0  0  0  0  0  0  0  0
  187.4850  175.0140  136.7820 C   0  0  0  0  0  2  0  0  0  0  0  0
  186.5600  178.1220  135.1640 C   0  0  0  0  0  2  0  0  0  0  0  0
  192.2650  176.2940  137.3000 C   0  0  0  0  0  0  0  0  0  0  0  0
  192.2710  176.9300  138.6660 C   0  0  0  0  0  2  0  0  0  0  0  0
  193.2410  176.0130  135.1500 C   0  0  0  0  0  2  0  0  0  0  0  0
  189.8440  176.4550  138.7690 C   0  0  0  0  0  2  0  0  0  0  0  0
  191.7340  173.8650  136.9290 C   0  0  0  0  0  2  0  0  0  0  0  0
  192.8150  173.6100  134.6120 C   0  0  0  0  0  2  0  0  0  0  0  0
  189.8500  175.4300  137.6270 C   0  0  2  0  0  3  0  0  0  0  0  0
  191.2000  175.2960  136.8890 C   0  0  1  0  0  3  0  0  0  0  0  0
  191.1450  176.4090  139.5440 C   0  0  0  0  0  2  0  0  0  0  0  0
  193.0210  173.5990  136.1190 C   0  0  1  0  0  0  0  0  0  0  0  0
  193.7930  174.5940  135.2350 C   0  0  2  0  0  3  0  0  0  0  0  0
  193.1910  176.6070  136.4670 N   0  0  0  0  0  0  0  0  0  0  0  0
  193.8740  172.5620  136.6080 O   0  0  0  0  0  0  0  0  0  0  0  0
  197.6710  175.0960  141.0090 C   0  0  1  0  0  3  0  0  0  0  0  0
  198.7740  175.3400  142.0170 C   0  0  0  0  0  1  0  0  0  0  0  0
  195.4110  175.7570  139.0990 C   0  0  0  0  0  2  0  0  0  0  0  0
  196.9500  176.2750  140.8260 O   0  0  0  0  0  0  0  0  0  0  0  0
  197.6130  172.7570  136.6720 C   0  0  0  0  0  0  0  0  0  0  0  0
  196.0600  174.5200  138.4710 C   0  0  1  0  0  3  0  0  0  0  0  0
  196.2100  172.5510  136.3860 N   0  0  0  0  0  0  0  0  0  0  0  0
  198.1270  173.4350  137.8420 N   0  0  0  0  0  0  0  0  0  0  0  0
  198.2450  174.6820  139.7770 O   0  0  0  0  0  0  0  0  0  0  0  0
  197.5110  174.2150  138.6790 C   0  0  0  0  0  0  0  0  0  0  0  0
  195.1570  172.7570  137.1270 C   0  0  0  0  0  0  0  0  0  0  0  0
  195.6410  175.8570  140.5940 C   0  0  0  0  0  2  0  0  0  0  0  0
  198.4740  172.3180  135.8140 N   0  0  0  0  0  2  0  0  0  0  0  0
  195.2480  173.2540  138.5250 C   0  0  0  0  0  2  0  0  0  0  0  0
  185.7630  176.3660  137.7580 O   0  0  0  0  0  0  0  0  0  0  0  0
  185.8150  178.6760  140.0270 C   0  0  0  0  0  0  0  0  0  0  0  0
  185.7450  177.7680  137.8420 C   0  0  1  0  0  3  0  0  0  0  0  0
  184.4040  178.2320  138.3430 C   0  0  0  0  0  0  0  0  0  0  0  0
  184.4380  178.7030  139.5740 C   0  0  0  0  0  3  0  0  0  0  0  0
  186.2420  179.0050  141.2420 C   0  0  0  0  0  3  0  0  0  0  0  0
  186.7130  178.1960  138.9520 C   0  0  0  0  0  2  0  0  0  0  0  0
  183.1820  178.1790  137.6090 N   0  0  0  0  0  2  0  0  0  0  0  0
  180.5550  178.4430  137.1600 O   0  0  0  0  0  0  0  0  0  0  0  0
  181.2760  177.7220  139.3780 O   0  0  0  0  0  0  0  0  0  0  0  0
  181.6110  178.6150  138.2130 S   0  0  0  0  0  0  0  0  0  0  0  0
  181.6140  180.3150  138.7690 C   0  0  0  0  0  2  0  0  0  0  0  0
  180.6470  181.1860  138.0350 C   0  0  0  0  0  0  0  0  0  0  0  0
  179.5900  181.8120  138.6880 O   0  0  0  0  0  1  0  0  0  0  0  0
  180.8110  181.3820  136.8010 O   0  0  0  0  0  0  0  0  0  0  0  0
  185.3210  179.4840  142.3200 C   0  0  0  0  0  2  0  0  0  0  0  0
  184.6250  178.3460  142.9050 N   0  0  0  0  0  0  0  0  0  0  0  0
  185.1660  178.1390  144.2500 C   0  0  0  0  0  2  0  0  0  0  0  0
  186.6580  177.8680  144.1790 C   0  0  0  0  0  1  0  0  0  0  0  0
  182.7250  178.5780  144.3120 O   0  0  0  0  0  1  0  0  0  0  0  0
  183.1940  178.6570  142.9960 C   0  0  0  0  0  2  0  0  0  0  0  0
  1  3  1  0  0  0  0
  1  4  1  0  0  0  0
  2  3  2  0  0  0  0
  3  5  1  0  0  0  0
  4  6  1  0  0  0  0
  4 35  1  1  0  0  0
  5  6  1  0  0  0  0
  7  1  2  0  0  0  0
  8  9  1  0  0  0  0
  9 16  1  0  0  0  0
 10 18  1  0  0  0  0
 10 19  1  0  0  0  0
 11 16  1  0  0  0  0
 13 17  1  0  0  0  0
 14  5  1  6  0  0  0
 14 11  1  0  0  0  0
 15 12  1  1  0  0  0
 15  8  1  0  0  0  0
 15 14  1  0  0  0  0
 17 20  1  1  0  0  0
 17 12  1  0  0  0  0
 18 13  1  6  0  0  0
 18 17  1  0  0  0  0
 19  8  2  0  0  0  0
 20 31  1  0  0  0  0
 21 22  1  1  0  0  0
 23 32  1  0  0  0  0
 24 21  1  0  0  0  0
 25 28  1  0  0  0  0
 26 34  1  1  0  0  0
 26 30  1  0  0  0  0
 26 23  1  0  0  0  0
 27 25  1  0  0  0  0
 27 31  2  0  0  0  0
 28 30  2  0  0  0  0
 29 21  1  0  0  0  0
 30 29  1  0  0  0  0
 31 34  1  0  0  0  0
 32 24  1  0  0  0  0
 33 25  2  0  0  0  0
 36 40  2  0  0  0  0
 37 35  1  1  0  0  0
 37 38  1  0  0  0  0
 37 41  1  0  0  0  0
 38 39  2  0  0  0  0
 39 36  1  0  0  0  0
 40 50  1  0  0  0  0
 41 36  1  0  0  0  0
 42 45  1  0  0  0  0
 42 38  1  0  0  0  0
 43 45  2  0  0  0  0
 45 46  1  0  0  0  0
 45 44  2  0  0  0  0
 47 48  1  0  0  0  0
 47 46  1  0  0  0  0
 49 47  2  0  0  0  0
 50 51  1  0  0  0  0
 51 55  1  0  0  0  0
 51 52  1  0  0  0  0
 53 52  1  0  0  0  0
 55 54  1  0  0  0  0
M  END
>  <MODEL>
9

>  <REMARK>
 VINA RESULT:      -5.4      5.047     11.213
  Name = 
  13 active torsions:
  status: ('A' for Active; 'I' for Inactive)
    1  A    between atoms: C_4  and  C_23
    2  A    between atoms: C_4  and  S_31
    3  A    between atoms: O_7  and  C_8
    4  A    between atoms: O_7  and  C_29
    5  A    between atoms: C_9  and  N_27
    6  A    between atoms: C_11  and  N_18
    7  A    between atoms: N_18  and  S_31
    8  A    between atoms: O_22  and  C_42
    9  A    between atoms: O_22  and  C_43
   10  A    between atoms: N_27  and  C_50
   11  A    between atoms: N_27  and  C_53
   12  A    between atoms: C_28  and  N_34
   13  A    between atoms: C_45  and  C_50
                            x       y       z     vdW  Elec       q    Type
                         _______ _______ _______ _____ _____    ______ ____

>  <TORSDO>
F 13

$$$$
