=
 OpenBabel11062415003D

 31 32  0  0  1  0  0  0  0  0999 V2000
  187.2720  177.9090  137.6510 C   0  0  2  0  0  3  0  0  0  0  0  0
  189.7710  176.9420  136.7020 C   0  0  0  0  0  0  0  0  0  0  0  0
  189.2590  176.5180  137.9350 O   0  0  0  0  0  0  0  0  0  0  0  0
  190.8490  176.4540  136.2750 O   0  0  0  0  0  0  0  0  0  0  0  0
  188.2390  177.2340  138.6360 C   0  0  1  0  0  3  0  0  0  0  0  0
  188.0590  178.7610  136.6610 C   0  0  0  0  0  2  0  0  0  0  0  0
  188.9970  177.8890  135.8350 C   0  0  0  0  0  2  0  0  0  0  0  0
  186.3280  178.7190  138.3410 O   0  0  0  0  0  0  0  0  0  0  0  0
  184.3310  177.7330  137.7270 O   0  0  0  0  0  0  0  0  0  0  0  0
  184.4850  178.4540  139.9290 N   0  0  0  0  0  2  0  0  0  0  0  0
  185.0300  178.2810  138.6210 C   0  0  0  0  0  0  0  0  0  0  0  0
  185.2740  178.9900  141.0270 C   0  0  0  0  0  2  0  0  0  0  0  0
  184.9000  178.2880  142.3210 C   0  0  0  0  0  2  0  0  0  0  0  0
  185.7720  178.7790  143.4660 C   0  0  0  0  0  2  0  0  0  0  0  0
  185.5330  177.9720  144.7360 C   0  0  2  0  0  3  0  0  0  0  0  0
  183.4960  179.2490  145.4540 O   0  0  0  0  0  0  0  0  0  0  0  0
  184.7700  178.7730  145.7440 C   0  0  0  0  0  0  0  0  0  0  0  0
  185.2970  179.0400  146.8560 O   0  0  0  0  0  1  0  0  0  0  0  0
  186.8700  177.5260  145.3070 C   0  0  0  0  0  2  0  0  0  0  0  0
  187.6940  176.8220  144.2450 C   0  0  0  0  0  1  0  0  0  0  0  0
  188.8770  178.2570  139.5720 C   0  0  0  0  0  2  0  0  0  0  0  0
  189.1060  177.6530  140.9470 C   0  0  0  0  0  2  0  0  0  0  0  0
  190.5930  177.4260  141.1820 C   0  0  0  0  0  2  0  0  0  0  0  0
  190.8840  177.3040  142.6420 C   0  0  0  0  0  0  0  0  0  0  0  0
  191.1550  176.0500  143.2040 C   0  0  0  0  0  3  0  0  0  0  0  0
  190.9370  178.4500  143.4400 C   0  0  0  0  0  3  0  0  0  0  0  0
  191.4720  175.9440  144.5620 C   0  0  0  0  0  3  0  0  0  0  0  0
  191.5240  177.0860  145.3680 C   0  0  0  0  0  0  0  0  0  0  0  0
  191.2540  178.3430  144.7990 C   0  0  0  0  0  3  0  0  0  0  0  0
  192.3220  175.7280  147.2750 C   0  0  0  0  0  1  0  0  0  0  0  0
  191.8460  176.9470  146.7200 O   0  0  0  0  0  0  0  0  0  0  0  0
  1  8  1  1  0  0  0
  1  5  1  0  0  0  0
  2  3  1  0  0  0  0
  3  5  1  0  0  0  0
  4  2  2  0  0  0  0
  5 21  1  6  0  0  0
  6  1  1  0  0  0  0
  7  6  1  0  0  0  0
  7  2  1  0  0  0  0
  8 11  1  0  0  0  0
  9 11  2  0  0  0  0
 10 12  1  0  0  0  0
 11 10  1  0  0  0  0
 12 13  1  0  0  0  0
 13 14  1  0  0  0  0
 15 14  1  6  0  0  0
 15 19  1  0  0  0  0
 15 17  1  0  0  0  0
 16 17  2  0  0  0  0
 17 18  1  0  0  0  0
 20 19  1  0  0  0  0
 21 22  1  0  0  0  0
 22 23  1  0  0  0  0
 23 24  1  0  0  0  0
 24 25  2  0  0  0  0
 24 26  1  0  0  0  0
 25 27  1  0  0  0  0
 26 29  2  0  0  0  0
 27 28  2  0  0  0  0
 28 31  1  0  0  0  0
 29 28  1  0  0  0  0
 31 30  1  0  0  0  0
M  END
>  <MODEL>
1

>  <REMARK>
 VINA RESULT:      -7.6      0.000      0.000
  Name = 
  13 active torsions:
  status: ('A' for Active; 'I' for Inactive)
    1  A    between atoms: C_1  and  O_10
    2  A    between atoms: C_2  and  C_26
    3  A    between atoms: C_2  and  C_31
    4  A    between atoms: C_6  and  C_29
    5  A    between atoms: C_7  and  C_22
    6  A    between atoms: C_7  and  C_25
    7  A    between atoms: C_8  and  C_22
    8  A    between atoms: O_10  and  C_19
    9  A    between atoms: C_11  and  C_29
   10  A    between atoms: O_14  and  C_24
   11  A    between atoms: N_17  and  C_31
   12  A    between atoms: C_20  and  C_25
   13  A    between atoms: C_26  and  C_29
                            x       y       z     vdW  Elec       q    Type
                         _______ _______ _______ _____ _____    ______ ____

>  <TORSDO>
F 13

$$$$
=
 OpenBabel11062415003D

 31 32  0  0  1  0  0  0  0  0999 V2000
  184.1610  179.0280  141.4770 C   0  0  2  0  0  3  0  0  0  0  0  0
  183.6840  179.1630  144.2760 C   0  0  0  0  0  0  0  0  0  0  0  0
  184.9210  179.5460  143.7390 O   0  0  0  0  0  0  0  0  0  0  0  0
  183.4770  179.2910  145.5110 O   0  0  0  0  0  0  0  0  0  0  0  0
  185.3540  179.1450  142.4370 C   0  0  1  0  0  3  0  0  0  0  0  0
  183.1000  178.1160  142.0850 C   0  0  0  0  0  2  0  0  0  0  0  0
  182.5680  178.7090  143.3850 C   0  0  0  0  0  2  0  0  0  0  0  0
  184.5710  178.5160  140.2160 O   0  0  0  0  0  0  0  0  0  0  0  0
  184.1300  180.3930  138.9430 O   0  0  0  0  0  0  0  0  0  0  0  0
  185.8200  179.0010  138.1680 N   0  0  0  0  0  2  0  0  0  0  0  0
  184.8070  179.3430  139.1130 C   0  0  0  0  0  0  0  0  0  0  0  0
  186.6980  177.8560  138.3590 C   0  0  0  0  0  2  0  0  0  0  0  0
  187.8190  178.2220  139.3170 C   0  0  0  0  0  2  0  0  0  0  0  0
  189.1120  178.4680  138.5540 C   0  0  0  0  0  2  0  0  0  0  0  0
  190.2460  177.5990  139.0830 C   0  0  2  0  0  3  0  0  0  0  0  0
  190.8460  175.2140  138.5840 O   0  0  0  0  0  1  0  0  0  0  0  0
  190.5680  176.4960  138.1230 C   0  0  0  0  0  0  0  0  0  0  0  0
  190.6130  176.7380  136.8890 O   0  0  0  0  0  0  0  0  0  0  0  0
  189.8530  177.0310  140.4380 C   0  0  0  0  0  2  0  0  0  0  0  0
  190.9640  177.2520  141.4490 C   0  0  0  0  0  1  0  0  0  0  0  0
  186.1200  177.8280  142.5310 C   0  0  0  0  0  2  0  0  0  0  0  0
  187.3690  177.9940  143.3780 C   0  0  0  0  0  2  0  0  0  0  0  0
  187.1090  177.5160  144.7990 C   0  0  0  0  0  2  0  0  0  0  0  0
  188.3950  177.3030  145.5290 C   0  0  0  0  0  0  0  0  0  0  0  0
  189.5910  177.1410  144.8180 C   0  0  0  0  0  3  0  0  0  0  0  0
  188.4130  177.3170  146.9270 C   0  0  0  0  0  3  0  0  0  0  0  0
  190.7990  176.9870  145.5050 C   0  0  0  0  0  3  0  0  0  0  0  0
  190.8250  176.9970  146.9030 C   0  0  0  0  0  0  0  0  0  0  0  0
  189.6220  177.1620  147.6130 C   0  0  0  0  0  3  0  0  0  0  0  0
  192.5520  175.5770  147.9600 C   0  0  0  0  0  1  0  0  0  0  0  0
  192.0480  176.8440  147.5590 O   0  0  0  0  0  0  0  0  0  0  0  0
  1  8  1  6  0  0  0
  1  6  1  0  0  0  0
  1  5  1  0  0  0  0
  2  4  2  0  0  0  0
  3  2  1  0  0  0  0
  5 21  1  1  0  0  0
  5  3  1  0  0  0  0
  6  7  1  0  0  0  0
  7  2  1  0  0  0  0
  9 11  2  0  0  0  0
 10 12  1  0  0  0  0
 10 11  1  0  0  0  0
 11  8  1  0  0  0  0
 12 13  1  0  0  0  0
 14 13  1  0  0  0  0
 15 14  1  6  0  0  0
 15 19  1  0  0  0  0
 17 16  1  0  0  0  0
 17 15  1  0  0  0  0
 18 17  2  0  0  0  0
 19 20  1  0  0  0  0
 21 22  1  0  0  0  0
 22 23  1  0  0  0  0
 23 24  1  0  0  0  0
 24 26  1  0  0  0  0
 25 27  1  0  0  0  0
 25 24  2  0  0  0  0
 26 29  2  0  0  0  0
 27 28  2  0  0  0  0
 28 31  1  0  0  0  0
 28 29  1  0  0  0  0
 31 30  1  0  0  0  0
M  END
>  <MODEL>
2

>  <REMARK>
 VINA RESULT:      -7.5      1.671      6.124
  Name = 
  13 active torsions:
  status: ('A' for Active; 'I' for Inactive)
    1  A    between atoms: C_1  and  O_10
    2  A    between atoms: C_2  and  C_26
    3  A    between atoms: C_2  and  C_31
    4  A    between atoms: C_6  and  C_29
    5  A    between atoms: C_7  and  C_22
    6  A    between atoms: C_7  and  C_25
    7  A    between atoms: C_8  and  C_22
    8  A    between atoms: O_10  and  C_19
    9  A    between atoms: C_11  and  C_29
   10  A    between atoms: O_14  and  C_24
   11  A    between atoms: N_17  and  C_31
   12  A    between atoms: C_20  and  C_25
   13  A    between atoms: C_26  and  C_29
                            x       y       z     vdW  Elec       q    Type
                         _______ _______ _______ _____ _____    ______ ____

>  <TORSDO>
F 13

$$$$
=
 OpenBabel11062415003D

 31 32  0  0  1  0  0  0  0  0999 V2000
  189.8870  177.4040  139.7550 C   0  0  2  0  0  3  0  0  0  0  0  0
  187.8190  178.2490  137.9970 C   0  0  0  0  0  0  0  0  0  0  0  0
  188.0910  178.9540  139.1770 O   0  0  0  0  0  0  0  0  0  0  0  0
  186.9400  178.6780  137.2050 O   0  0  0  0  0  0  0  0  0  0  0  0
  188.8200  178.3840  140.2670 C   0  0  1  0  0  3  0  0  0  0  0  0
  189.2380  176.3730  138.8370 C   0  0  0  0  0  2  0  0  0  0  0  0
  188.6360  177.0530  137.6130 C   0  0  0  0  0  2  0  0  0  0  0  0
  190.5330  176.7460  140.8380 O   0  0  0  0  0  0  0  0  0  0  0  0
  192.5620  177.8470  140.7450 O   0  0  0  0  0  0  0  0  0  0  0  0
  191.8980  177.0950  142.8390 N   0  0  0  0  0  2  0  0  0  0  0  0
  191.6920  177.2520  141.4350 C   0  0  0  0  0  0  0  0  0  0  0  0
  190.8880  176.5050  143.7040 C   0  0  0  0  0  2  0  0  0  0  0  0
  190.0440  177.6010  144.3330 C   0  0  0  0  0  2  0  0  0  0  0  0
  188.7400  177.0280  144.8670 C   0  0  0  0  0  2  0  0  0  0  0  0
  188.2050  177.8510  146.0320 C   0  0  2  0  0  3  0  0  0  0  0  0
  189.0900  178.5000  148.2890 O   0  0  0  0  0  1  0  0  0  0  0  0
  188.9500  177.5400  147.2930 C   0  0  0  0  0  0  0  0  0  0  0  0
  189.4760  176.4060  147.4430 O   0  0  0  0  0  0  0  0  0  0  0  0
  186.7200  177.5720  146.2050 C   0  0  0  0  0  2  0  0  0  0  0  0
  186.0590  178.6890  146.9910 C   0  0  0  0  0  1  0  0  0  0  0  0
  187.8560  177.6990  141.2310 C   0  0  0  0  0  2  0  0  0  0  0  0
  186.6330  178.5670  141.4710 C   0  0  0  0  0  2  0  0  0  0  0  0
  186.0180  178.2480  142.8260 C   0  0  0  0  0  2  0  0  0  0  0  0
  184.5460  178.5030  142.8120 C   0  0  0  0  0  0  0  0  0  0  0  0
  183.8360  178.4690  141.6050 C   0  0  0  0  0  3  0  0  0  0  0  0
  183.8660  178.7250  144.0130 C   0  0  0  0  0  3  0  0  0  0  0  0
  182.4510  178.6640  141.6010 C   0  0  0  0  0  3  0  0  0  0  0  0
  181.7650  178.8900  142.7980 C   0  0  0  0  0  0  0  0  0  0  0  0
  182.4810  178.9210  144.0080 C   0  0  0  0  0  3  0  0  0  0  0  0
  179.7830  180.3580  142.6100 C   0  0  0  0  0  1  0  0  0  0  0  0
  180.3810  179.0780  142.7600 O   0  0  0  0  0  0  0  0  0  0  0  0
  1  5  1  0  0  0  0
  1  8  1  1  0  0  0
  2  3  1  0  0  0  0
  3  5  1  0  0  0  0
  4  2  2  0  0  0  0
  5 21  1  1  0  0  0
  6  1  1  0  0  0  0
  7  2  1  0  0  0  0
  7  6  1  0  0  0  0
  8 11  1  0  0  0  0
  9 11  2  0  0  0  0
 10 12  1  0  0  0  0
 11 10  1  0  0  0  0
 12 13  1  0  0  0  0
 13 14  1  0  0  0  0
 15 14  1  6  0  0  0
 15 19  1  0  0  0  0
 15 17  1  0  0  0  0
 17 18  2  0  0  0  0
 17 16  1  0  0  0  0
 19 20  1  0  0  0  0
 21 22  1  0  0  0  0
 22 23  1  0  0  0  0
 24 23  1  0  0  0  0
 24 26  1  0  0  0  0
 25 24  2  0  0  0  0
 27 25  1  0  0  0  0
 27 28  2  0  0  0  0
 28 29  1  0  0  0  0
 29 26  2  0  0  0  0
 30 31  1  0  0  0  0
 31 28  1  0  0  0  0
M  END
>  <MODEL>
3

>  <REMARK>
 VINA RESULT:      -7.5      2.724      6.509
  Name = 
  13 active torsions:
  status: ('A' for Active; 'I' for Inactive)
    1  A    between atoms: C_1  and  O_10
    2  A    between atoms: C_2  and  C_26
    3  A    between atoms: C_2  and  C_31
    4  A    between atoms: C_6  and  C_29
    5  A    between atoms: C_7  and  C_22
    6  A    between atoms: C_7  and  C_25
    7  A    between atoms: C_8  and  C_22
    8  A    between atoms: O_10  and  C_19
    9  A    between atoms: C_11  and  C_29
   10  A    between atoms: O_14  and  C_24
   11  A    between atoms: N_17  and  C_31
   12  A    between atoms: C_20  and  C_25
   13  A    between atoms: C_26  and  C_29
                            x       y       z     vdW  Elec       q    Type
                         _______ _______ _______ _____ _____    ______ ____

>  <TORSDO>
F 13

$$$$
=
 OpenBabel11062415003D

 31 32  0  0  1  0  0  0  0  0999 V2000
  187.9740  177.8750  146.4640 C   0  0  2  0  0  3  0  0  0  0  0  0
  190.7250  177.2170  146.1750 C   0  0  0  0  0  0  0  0  0  0  0  0
  190.0370  177.8910  145.1570 O   0  0  0  0  0  0  0  0  0  0  0  0
  191.9560  176.9920  146.0490 O   0  0  0  0  0  0  0  0  0  0  0  0
  188.6100  177.9030  145.0660 C   0  0  1  0  0  3  0  0  0  0  0  0
  188.5350  176.7000  147.2590 C   0  0  0  0  0  2  0  0  0  0  0  0
  190.0380  176.8590  147.4580 C   0  0  0  0  0  2  0  0  0  0  0  0
  186.5590  177.7670  146.3770 O   0  0  0  0  0  0  0  0  0  0  0  0
  185.7460  179.6760  147.3910 O   0  0  0  0  0  0  0  0  0  0  0  0
  184.8230  179.1370  145.3290 N   0  0  0  0  0  2  0  0  0  0  0  0
  185.7200  178.8850  146.4100 C   0  0  0  0  0  0  0  0  0  0  0  0
  184.8150  178.3160  144.1280 C   0  0  0  0  0  2  0  0  0  0  0  0
  184.3290  179.1380  142.9460 C   0  0  0  0  0  2  0  0  0  0  0  0
  185.0900  178.7590  141.6840 C   0  0  0  0  0  2  0  0  0  0  0  0
  184.1470  178.2910  140.5830 C   0  0  2  0  0  3  0  0  0  0  0  0
  184.3860  180.2980  139.0970 O   0  0  0  0  0  1  0  0  0  0  0  0
  184.4990  178.9240  139.2720 C   0  0  0  0  0  0  0  0  0  0  0  0
  184.8770  178.2020  138.3130 O   0  0  0  0  0  0  0  0  0  0  0  0
  182.7150  178.6250  140.9710 C   0  0  0  0  0  2  0  0  0  0  0  0
  181.7440  178.0660  139.9480 C   0  0  0  0  0  1  0  0  0  0  0  0
  188.1370  176.7250  144.2190 C   0  0  0  0  0  2  0  0  0  0  0  0
  188.8950  176.6730  142.9040 C   0  0  0  0  0  2  0  0  0  0  0  0
  188.5430  177.8790  142.0450 C   0  0  0  0  0  2  0  0  0  0  0  0
  188.9430  177.6500  140.6240 C   0  0  0  0  0  0  0  0  0  0  0  0
  188.2280  178.2580  139.5840 C   0  0  0  0  0  3  0  0  0  0  0  0
  190.0640  176.8680  140.3330 C   0  0  0  0  0  3  0  0  0  0  0  0
  188.6320  178.0780  138.2570 C   0  0  0  0  0  3  0  0  0  0  0  0
  189.7510  177.2950  137.9580 C   0  0  0  0  0  0  0  0  0  0  0  0
  190.4670  176.6880  139.0050 C   0  0  0  0  0  3  0  0  0  0  0  0
  189.2330  177.3420  135.5400 C   0  0  0  0  0  1  0  0  0  0  0  0
  190.1300  177.1370  136.6230 O   0  0  0  0  0  0  0  0  0  0  0  0
  1  8  1  6  0  0  0
  1  6  1  0  0  0  0
  2  7  1  0  0  0  0
  3  2  1  0  0  0  0
  4  2  2  0  0  0  0
  5 21  1  6  0  0  0
  5  3  1  0  0  0  0
  5  1  1  0  0  0  0
  6  7  1  0  0  0  0
  8 11  1  0  0  0  0
 10 11  1  0  0  0  0
 11  9  2  0  0  0  0
 12 10  1  0  0  0  0
 13 12  1  0  0  0  0
 14 13  1  0  0  0  0
 15 19  1  1  0  0  0
 15 14  1  0  0  0  0
 16 17  1  0  0  0  0
 17 15  1  0  0  0  0
 18 17  2  0  0  0  0
 20 19  1  0  0  0  0
 22 21  1  0  0  0  0
 23 22  1  0  0  0  0
 24 23  1  0  0  0  0
 25 24  2  0  0  0  0
 26 24  1  0  0  0  0
 27 25  1  0  0  0  0
 28 27  2  0  0  0  0
 28 29  1  0  0  0  0
 29 26  2  0  0  0  0
 30 31  1  0  0  0  0
 31 28  1  0  0  0  0
M  END
>  <MODEL>
4

>  <REMARK>
 VINA RESULT:      -7.5      1.905      7.278
  Name = 
  13 active torsions:
  status: ('A' for Active; 'I' for Inactive)
    1  A    between atoms: C_1  and  O_10
    2  A    between atoms: C_2  and  C_26
    3  A    between atoms: C_2  and  C_31
    4  A    between atoms: C_6  and  C_29
    5  A    between atoms: C_7  and  C_22
    6  A    between atoms: C_7  and  C_25
    7  A    between atoms: C_8  and  C_22
    8  A    between atoms: O_10  and  C_19
    9  A    between atoms: C_11  and  C_29
   10  A    between atoms: O_14  and  C_24
   11  A    between atoms: N_17  and  C_31
   12  A    between atoms: C_20  and  C_25
   13  A    between atoms: C_26  and  C_29
                            x       y       z     vdW  Elec       q    Type
                         _______ _______ _______ _____ _____    ______ ____

>  <TORSDO>
F 13

$$$$
=
 OpenBabel11062415003D

 31 32  0  0  1  0  0  0  0  0999 V2000
  190.2330  177.5840  139.0850 C   0  0  2  0  0  3  0  0  0  0  0  0
  188.8300  178.0820  136.6630 C   0  0  0  0  0  0  0  0  0  0  0  0
  188.6790  178.9300  137.7680 O   0  0  0  0  0  0  0  0  0  0  0  0
  188.2470  178.3580  135.5830 O   0  0  0  0  0  0  0  0  0  0  0  0
  189.0280  178.5360  139.0970 C   0  0  1  0  0  3  0  0  0  0  0  0
  189.9530  176.4140  138.1460 C   0  0  0  0  0  2  0  0  0  0  0  0
  189.7650  176.9120  136.7170 C   0  0  0  0  0  2  0  0  0  0  0  0
  190.5090  177.0970  140.3920 O   0  0  0  0  0  0  0  0  0  0  0  0
  192.8020  177.3460  140.5220 O   0  0  0  0  0  0  0  0  0  0  0  0
  191.6020  177.8740  142.4390 N   0  0  0  0  0  2  0  0  0  0  0  0
  191.6770  177.4320  141.0840 C   0  0  0  0  0  0  0  0  0  0  0  0
  190.3290  178.0860  143.1110 C   0  0  0  0  0  2  0  0  0  0  0  0
  190.0510  176.9350  144.0630 C   0  0  0  0  0  2  0  0  0  0  0  0
  191.2550  176.6810  144.9570 C   0  0  0  0  0  2  0  0  0  0  0  0
  190.9880  177.1200  146.3910 C   0  0  2  0  0  3  0  0  0  0  0  0
  192.4740  177.0000  148.4090 O   0  0  0  0  0  1  0  0  0  0  0  0
  191.8420  176.3530  147.3530 C   0  0  0  0  0  0  0  0  0  0  0  0
  192.0080  175.1170  147.1900 O   0  0  0  0  0  0  0  0  0  0  0  0
  189.5140  176.9240  146.7100 C   0  0  0  0  0  2  0  0  0  0  0  0
  189.1340  177.6960  147.9600 C   0  0  0  0  0  1  0  0  0  0  0  0
  187.8230  177.8950  139.7790 C   0  0  0  0  0  2  0  0  0  0  0  0
  187.4070  178.7000  140.9990 C   0  0  0  0  0  2  0  0  0  0  0  0
  185.9190  178.5240  141.2640 C   0  0  0  0  0  2  0  0  0  0  0  0
  185.6390  178.5320  142.7310 C   0  0  0  0  0  0  0  0  0  0  0  0
  186.4830  177.8470  143.6140 C   0  0  0  0  0  3  0  0  0  0  0  0
  184.5610  179.2680  143.2300 C   0  0  0  0  0  3  0  0  0  0  0  0
  186.2440  177.8930  144.9910 C   0  0  0  0  0  3  0  0  0  0  0  0
  185.1650  178.6250  145.4970 C   0  0  0  0  0  0  0  0  0  0  0  0
  184.3220  179.3140  144.6080 C   0  0  0  0  0  3  0  0  0  0  0  0
  185.9550  179.0690  147.7990 C   0  0  0  0  0  1  0  0  0  0  0  0
  184.9550  178.6540  146.8780 O   0  0  0  0  0  0  0  0  0  0  0  0
  1  5  1  0  0  0  0
  1  8  1  1  0  0  0
  2  7  1  0  0  0  0
  2  3  1  0  0  0  0
  3  5  1  0  0  0  0
  4  2  2  0  0  0  0
  5 21  1  6  0  0  0
  6  1  1  0  0  0  0
  7  6  1  0  0  0  0
  8 11  1  0  0  0  0
  9 11  2  0  0  0  0
 10 12  1  0  0  0  0
 11 10  1  0  0  0  0
 12 13  1  0  0  0  0
 13 14  1  0  0  0  0
 15 14  1  6  0  0  0
 15 19  1  0  0  0  0
 15 17  1  0  0  0  0
 17 16  1  0  0  0  0
 18 17  2  0  0  0  0
 19 20  1  0  0  0  0
 21 22  1  0  0  0  0
 22 23  1  0  0  0  0
 23 24  1  0  0  0  0
 24 26  2  0  0  0  0
 24 25  1  0  0  0  0
 25 27  2  0  0  0  0
 26 29  1  0  0  0  0
 27 28  1  0  0  0  0
 28 31  1  0  0  0  0
 29 28  2  0  0  0  0
 31 30  1  0  0  0  0
M  END
>  <MODEL>
5

>  <REMARK>
 VINA RESULT:      -7.3      2.251      5.621
  Name = 
  13 active torsions:
  status: ('A' for Active; 'I' for Inactive)
    1  A    between atoms: C_1  and  O_10
    2  A    between atoms: C_2  and  C_26
    3  A    between atoms: C_2  and  C_31
    4  A    between atoms: C_6  and  C_29
    5  A    between atoms: C_7  and  C_22
    6  A    between atoms: C_7  and  C_25
    7  A    between atoms: C_8  and  C_22
    8  A    between atoms: O_10  and  C_19
    9  A    between atoms: C_11  and  C_29
   10  A    between atoms: O_14  and  C_24
   11  A    between atoms: N_17  and  C_31
   12  A    between atoms: C_20  and  C_25
   13  A    between atoms: C_26  and  C_29
                            x       y       z     vdW  Elec       q    Type
                         _______ _______ _______ _____ _____    ______ ____

>  <TORSDO>
F 13

$$$$
=
 OpenBabel11062415003D

 31 32  0  0  1  0  0  0  0  0999 V2000
  184.1130  178.5240  143.9600 C   0  0  2  0  0  3  0  0  0  0  0  0
  182.1800  178.5890  141.8760 C   0  0  0  0  0  0  0  0  0  0  0  0
  183.4170  177.9590  141.6880 O   0  0  0  0  0  0  0  0  0  0  0  0
  181.3180  178.5500  140.9600 O   0  0  0  0  0  0  0  0  0  0  0  0
  184.5510  178.2210  142.5190 C   0  0  1  0  0  3  0  0  0  0  0  0
  183.0760  179.6440  143.9550 C   0  0  0  0  0  2  0  0  0  0  0  0
  181.8290  179.2120  143.1930 C   0  0  0  0  0  2  0  0  0  0  0  0
  185.2250  178.9010  144.7610 O   0  0  0  0  0  0  0  0  0  0  0  0
  184.6730  178.6350  146.9880 O   0  0  0  0  0  0  0  0  0  0  0  0
  186.5610  177.4980  146.2560 N   0  0  0  0  0  2  0  0  0  0  0  0
  185.4480  178.3630  146.0320 C   0  0  0  0  0  0  0  0  0  0  0  0
  187.4340  177.0700  145.1740 C   0  0  0  0  0  2  0  0  0  0  0  0
  188.6930  177.9210  145.1600 C   0  0  0  0  0  2  0  0  0  0  0  0
  189.6080  177.5370  146.3120 C   0  0  0  0  0  2  0  0  0  0  0  0
  190.7310  176.6170  145.8500 C   0  0  2  0  0  3  0  0  0  0  0  0
  191.7290  177.1410  148.0920 O   0  0  0  0  0  1  0  0  0  0  0  0
  191.6730  176.3160  146.9750 C   0  0  0  0  0  0  0  0  0  0  0  0
  192.4390  175.3200  146.8960 O   0  0  0  0  0  0  0  0  0  0  0  0
  191.4710  177.2690  144.6920 C   0  0  0  0  0  2  0  0  0  0  0  0
  191.6830  176.2700  143.5690 C   0  0  0  0  0  1  0  0  0  0  0  0
  185.3650  179.3710  141.9340 C   0  0  0  0  0  2  0  0  0  0  0  0
  186.3320  178.8610  140.8800 C   0  0  0  0  0  2  0  0  0  0  0  0
  187.7070  178.6320  141.4910 C   0  0  0  0  0  2  0  0  0  0  0  0
  188.6590  178.1050  140.4690 C   0  0  0  0  0  0  0  0  0  0  0  0
  188.5600  178.5170  139.1340 C   0  0  0  0  0  3  0  0  0  0  0  0
  189.6840  177.2360  140.8540 C   0  0  0  0  0  3  0  0  0  0  0  0
  189.4810  178.0560  138.1880 C   0  0  0  0  0  3  0  0  0  0  0  0
  190.5070  177.1850  138.5650 C   0  0  0  0  0  0  0  0  0  0  0  0
  190.6050  176.7750  139.9070 C   0  0  0  0  0  3  0  0  0  0  0  0
  192.7440  176.3560  137.9100 C   0  0  0  0  0  1  0  0  0  0  0  0
  191.4130  176.7450  137.5970 O   0  0  0  0  0  0  0  0  0  0  0  0
  1  8  1  1  0  0  0
  2  7  1  0  0  0  0
  3  2  1  0  0  0  0
  3  5  1  0  0  0  0
  4  2  2  0  0  0  0
  5 21  1  6  0  0  0
  5  1  1  0  0  0  0
  6  1  1  0  0  0  0
  7  6  1  0  0  0  0
  8 11  1  0  0  0  0
 11 10  1  0  0  0  0
 11  9  2  0  0  0  0
 12 10  1  0  0  0  0
 13 12  1  0  0  0  0
 13 14  1  0  0  0  0
 15 19  1  6  0  0  0
 15 14  1  0  0  0  0
 15 17  1  0  0  0  0
 17 16  1  0  0  0  0
 18 17  2  0  0  0  0
 20 19  1  0  0  0  0
 22 23  1  0  0  0  0
 22 21  1  0  0  0  0
 24 26  1  0  0  0  0
 24 23  1  0  0  0  0
 25 24  2  0  0  0  0
 27 28  2  0  0  0  0
 27 25  1  0  0  0  0
 28 29  1  0  0  0  0
 29 26  2  0  0  0  0
 31 30  1  0  0  0  0
 31 28  1  0  0  0  0
M  END
>  <MODEL>
6

>  <REMARK>
 VINA RESULT:      -7.3      2.266      6.892
  Name = 
  13 active torsions:
  status: ('A' for Active; 'I' for Inactive)
    1  A    between atoms: C_1  and  O_10
    2  A    between atoms: C_2  and  C_26
    3  A    between atoms: C_2  and  C_31
    4  A    between atoms: C_6  and  C_29
    5  A    between atoms: C_7  and  C_22
    6  A    between atoms: C_7  and  C_25
    7  A    between atoms: C_8  and  C_22
    8  A    between atoms: O_10  and  C_19
    9  A    between atoms: C_11  and  C_29
   10  A    between atoms: O_14  and  C_24
   11  A    between atoms: N_17  and  C_31
   12  A    between atoms: C_20  and  C_25
   13  A    between atoms: C_26  and  C_29
                            x       y       z     vdW  Elec       q    Type
                         _______ _______ _______ _____ _____    ______ ____

>  <TORSDO>
F 13

$$$$
=
 OpenBabel11062415003D

 31 32  0  0  1  0  0  0  0  0999 V2000
  184.3980  178.5390  144.0840 C   0  0  2  0  0  3  0  0  0  0  0  0
  182.5410  178.4850  141.9320 C   0  0  0  0  0  0  0  0  0  0  0  0
  183.7920  177.8640  141.8170 O   0  0  0  0  0  0  0  0  0  0  0  0
  181.7130  178.3940  140.9890 O   0  0  0  0  0  0  0  0  0  0  0  0
  184.8920  178.1770  142.6740 C   0  0  1  0  0  3  0  0  0  0  0  0
  183.3490  179.6430  143.9920 C   0  0  0  0  0  2  0  0  0  0  0  0
  182.1350  179.1610  143.2060 C   0  0  0  0  0  2  0  0  0  0  0  0
  185.4770  178.9650  144.9060 O   0  0  0  0  0  0  0  0  0  0  0  0
  184.7070  178.6220  147.0570 O   0  0  0  0  0  0  0  0  0  0  0  0
  186.8770  177.9200  146.6190 N   0  0  0  0  0  2  0  0  0  0  0  0
  185.6420  178.5120  146.2190 C   0  0  0  0  0  0  0  0  0  0  0  0
  187.9570  177.6770  145.6750 C   0  0  0  0  0  2  0  0  0  0  0  0
  189.2440  177.3850  146.4280 C   0  0  0  0  0  2  0  0  0  0  0  0
  190.3090  176.8590  145.4790 C   0  0  0  0  0  2  0  0  0  0  0  0
  190.0000  177.2290  144.0330 C   0  0  2  0  0  3  0  0  0  0  0  0
  188.3340  175.6990  142.9470 O   0  0  0  0  0  1  0  0  0  0  0  0
  189.6590  176.0110  143.2310 C   0  0  0  0  0  0  0  0  0  0  0  0
  190.5780  175.2510  142.8310 O   0  0  0  0  0  0  0  0  0  0  0  0
  191.1970  177.9480  143.4310 C   0  0  0  0  0  2  0  0  0  0  0  0
  191.2860  179.3670  143.9630 C   0  0  0  0  0  1  0  0  0  0  0  0
  185.7130  179.3120  142.0680 C   0  0  0  0  0  2  0  0  0  0  0  0
  186.4690  178.8290  140.8430 C   0  0  0  0  0  2  0  0  0  0  0  0
  187.9360  178.6070  141.1830 C   0  0  0  0  0  2  0  0  0  0  0  0
  188.6840  178.1030  139.9920 C   0  0  0  0  0  0  0  0  0  0  0  0
  189.8990  177.4270  140.1570 C   0  0  0  0  0  3  0  0  0  0  0  0
  188.1440  178.2610  138.7130 C   0  0  0  0  0  3  0  0  0  0  0  0
  190.5750  176.9160  139.0440 C   0  0  0  0  0  3  0  0  0  0  0  0
  190.0420  177.0730  137.7610 C   0  0  0  0  0  0  0  0  0  0  0  0
  188.8210  177.7500  137.5990 C   0  0  0  0  0  3  0  0  0  0  0  0
  191.7060  175.5150  136.8000 C   0  0  0  0  0  1  0  0  0  0  0  0
  190.7400  176.5490  136.6700 O   0  0  0  0  0  0  0  0  0  0  0  0
  1  8  1  1  0  0  0
  2  7  1  0  0  0  0
  3  2  1  0  0  0  0
  3  5  1  0  0  0  0
  4  2  2  0  0  0  0
  5 21  1  6  0  0  0
  5  1  1  0  0  0  0
  6  1  1  0  0  0  0
  7  6  1  0  0  0  0
  8 11  1  0  0  0  0
 11 10  1  0  0  0  0
 11  9  2  0  0  0  0
 12 13  1  0  0  0  0
 12 10  1  0  0  0  0
 14 13  1  0  0  0  0
 15 19  1  6  0  0  0
 15 14  1  0  0  0  0
 16 17  1  0  0  0  0
 17 15  1  0  0  0  0
 18 17  2  0  0  0  0
 19 20  1  0  0  0  0
 22 23  1  0  0  0  0
 22 21  1  0  0  0  0
 24 25  1  0  0  0  0
 24 23  1  0  0  0  0
 26 24  2  0  0  0  0
 27 25  2  0  0  0  0
 28 27  1  0  0  0  0
 29 28  2  0  0  0  0
 29 26  1  0  0  0  0
 31 30  1  0  0  0  0
 31 28  1  0  0  0  0
M  END
>  <MODEL>
7

>  <REMARK>
 VINA RESULT:      -7.2      2.514      6.925
  Name = 
  13 active torsions:
  status: ('A' for Active; 'I' for Inactive)
    1  A    between atoms: C_1  and  O_10
    2  A    between atoms: C_2  and  C_26
    3  A    between atoms: C_2  and  C_31
    4  A    between atoms: C_6  and  C_29
    5  A    between atoms: C_7  and  C_22
    6  A    between atoms: C_7  and  C_25
    7  A    between atoms: C_8  and  C_22
    8  A    between atoms: O_10  and  C_19
    9  A    between atoms: C_11  and  C_29
   10  A    between atoms: O_14  and  C_24
   11  A    between atoms: N_17  and  C_31
   12  A    between atoms: C_20  and  C_25
   13  A    between atoms: C_26  and  C_29
                            x       y       z     vdW  Elec       q    Type
                         _______ _______ _______ _____ _____    ______ ____

>  <TORSDO>
F 13

$$$$
=
 OpenBabel11062415003D

 31 32  0  0  1  0  0  0  0  0999 V2000
  184.7160  178.3050  138.1000 C   0  0  2  0  0  3  0  0  0  0  0  0
  182.1200  179.1790  138.8600 C   0  0  0  0  0  0  0  0  0  0  0  0
  183.2650  179.7550  139.4250 O   0  0  0  0  0  0  0  0  0  0  0  0
  180.9840  179.6250  139.1670 O   0  0  0  0  0  0  0  0  0  0  0  0
  184.5460  179.1200  139.3910 C   0  0  1  0  0  3  0  0  0  0  0  0
  183.5430  177.3420  137.9430 C   0  0  0  0  0  2  0  0  0  0  0  0
  182.2340  178.1130  137.8120 C   0  0  0  0  0  2  0  0  0  0  0  0
  185.9380  177.5770  138.1150 O   0  0  0  0  0  0  0  0  0  0  0  0
  187.2510  178.3220  136.3670 O   0  0  0  0  0  0  0  0  0  0  0  0
  188.2160  178.3930  138.4770 N   0  0  0  0  0  2  0  0  0  0  0  0
  187.1280  178.1020  137.6020 C   0  0  0  0  0  0  0  0  0  0  0  0
  188.1020  178.2520  139.9210 C   0  0  0  0  0  2  0  0  0  0  0  0
  189.3230  177.5300  140.4660 C   0  0  0  0  0  2  0  0  0  0  0  0
  189.5890  177.9440  141.9060 C   0  0  0  0  0  2  0  0  0  0  0  0
  190.8800  177.3320  142.4330 C   0  0  2  0  0  3  0  0  0  0  0  0
  191.6500  175.3240  143.7260 O   0  0  0  0  0  1  0  0  0  0  0  0
  190.6100  176.0460  143.1500 C   0  0  0  0  0  0  0  0  0  0  0  0
  189.4340  175.6020  143.2120 O   0  0  0  0  0  0  0  0  0  0  0  0
  191.5670  178.3260  143.3570 C   0  0  0  0  0  2  0  0  0  0  0  0
  190.6310  178.7450  144.4750 C   0  0  0  0  0  1  0  0  0  0  0  0
  184.7210  178.2420  140.6270 C   0  0  0  0  0  2  0  0  0  0  0  0
  185.2090  179.0670  141.8050 C   0  0  0  0  0  2  0  0  0  0  0  0
  184.3580  178.7850  143.0350 C   0  0  0  0  0  2  0  0  0  0  0  0
  185.2200  178.4880  144.2170 C   0  0  0  0  0  0  0  0  0  0  0  0
  184.7640  178.7700  145.5110 C   0  0  0  0  0  3  0  0  0  0  0  0
  186.4650  177.8790  144.0370 C   0  0  0  0  0  3  0  0  0  0  0  0
  185.5550  178.4500  146.6190 C   0  0  0  0  0  3  0  0  0  0  0  0
  186.8030  177.8430  146.4460 C   0  0  0  0  0  0  0  0  0  0  0  0
  187.2560  177.5590  145.1450 C   0  0  0  0  0  3  0  0  0  0  0  0
  188.9710  177.3200  147.5140 C   0  0  0  0  0  1  0  0  0  0  0  0
  187.5670  177.5330  147.5720 O   0  0  0  0  0  0  0  0  0  0  0  0
  1  8  1  1  0  0  0
  1  5  1  0  0  0  0
  2  4  2  0  0  0  0
  2  3  1  0  0  0  0
  5  3  1  0  0  0  0
  5 21  1  1  0  0  0
  6  1  1  0  0  0  0
  7  6  1  0  0  0  0
  7  2  1  0  0  0  0
  9 11  2  0  0  0  0
 10 12  1  0  0  0  0
 11  8  1  0  0  0  0
 11 10  1  0  0  0  0
 12 13  1  0  0  0  0
 13 14  1  0  0  0  0
 15 14  1  1  0  0  0
 15 17  1  0  0  0  0
 15 19  1  0  0  0  0
 17 18  2  0  0  0  0
 17 16  1  0  0  0  0
 19 20  1  0  0  0  0
 21 22  1  0  0  0  0
 22 23  1  0  0  0  0
 23 24  1  0  0  0  0
 24 25  1  0  0  0  0
 25 27  2  0  0  0  0
 26 24  2  0  0  0  0
 26 29  1  0  0  0  0
 28 27  1  0  0  0  0
 28 31  1  0  0  0  0
 29 28  2  0  0  0  0
 30 31  1  0  0  0  0
M  END
>  <MODEL>
8

>  <REMARK>
 VINA RESULT:      -7.0      2.134      5.607
  Name = 
  13 active torsions:
  status: ('A' for Active; 'I' for Inactive)
    1  A    between atoms: C_1  and  O_10
    2  A    between atoms: C_2  and  C_26
    3  A    between atoms: C_2  and  C_31
    4  A    between atoms: C_6  and  C_29
    5  A    between atoms: C_7  and  C_22
    6  A    between atoms: C_7  and  C_25
    7  A    between atoms: C_8  and  C_22
    8  A    between atoms: O_10  and  C_19
    9  A    between atoms: C_11  and  C_29
   10  A    between atoms: O_14  and  C_24
   11  A    between atoms: N_17  and  C_31
   12  A    between atoms: C_20  and  C_25
   13  A    between atoms: C_26  and  C_29
                            x       y       z     vdW  Elec       q    Type
                         _______ _______ _______ _____ _____    ______ ____

>  <TORSDO>
F 13

$$$$
=
 OpenBabel11062415003D

 31 32  0  0  1  0  0  0  0  0999 V2000
  183.7710  179.0020  141.7690 C   0  0  2  0  0  3  0  0  0  0  0  0
  181.2370  178.9610  143.0580 C   0  0  0  0  0  0  0  0  0  0  0  0
  182.3180  179.6510  143.6220 O   0  0  0  0  0  0  0  0  0  0  0  0
  180.1100  179.0090  143.6160 O   0  0  0  0  0  0  0  0  0  0  0  0
  183.6750  179.3970  143.2510 C   0  0  1  0  0  3  0  0  0  0  0  0
  182.8220  177.8420  141.4850 C   0  0  0  0  0  2  0  0  0  0  0  0
  181.3780  178.2580  141.7420 C   0  0  0  0  0  2  0  0  0  0  0  0
  185.1000  178.6340  141.4260 O   0  0  0  0  0  0  0  0  0  0  0  0
  184.9850  179.5180  139.2950 O   0  0  0  0  0  0  0  0  0  0  0  0
  187.0340  178.6260  139.9260 N   0  0  0  0  0  2  0  0  0  0  0  0
  185.6680  178.9490  140.1880 C   0  0  0  0  0  0  0  0  0  0  0  0
  187.9010  178.0580  140.9480 C   0  0  0  0  0  2  0  0  0  0  0  0
  189.3560  178.2640  140.5610 C   0  0  0  0  0  2  0  0  0  0  0  0
  190.1600  177.0000  140.8210 C   0  0  0  0  0  2  0  0  0  0  0  0
  190.9710  177.1090  142.1060 C   0  0  2  0  0  3  0  0  0  0  0  0
  191.6300  175.3590  143.7780 O   0  0  0  0  0  1  0  0  0  0  0  0
  190.6330  175.9960  143.0490 C   0  0  0  0  0  0  0  0  0  0  0  0
  189.4380  175.6180  143.1630 O   0  0  0  0  0  0  0  0  0  0  0  0
  190.7060  178.4590  142.7540 C   0  0  0  0  0  2  0  0  0  0  0  0
  191.6240  178.6640  143.9450 C   0  0  0  0  0  1  0  0  0  0  0  0
  184.2620  178.3130  144.1510 C   0  0  0  0  0  2  0  0  0  0  0  0
  185.4710  178.8390  144.9040 C   0  0  0  0  0  2  0  0  0  0  0  0
  185.5760  178.1700  146.2670 C   0  0  0  0  0  2  0  0  0  0  0  0
  187.0050  177.9350  146.6310 C   0  0  0  0  0  0  0  0  0  0  0  0
  187.4140  178.0140  147.9690 C   0  0  0  0  0  3  0  0  0  0  0  0
  187.9280  177.5840  145.6420 C   0  0  0  0  0  3  0  0  0  0  0  0
  188.7430  177.7490  148.3120 C   0  0  0  0  0  3  0  0  0  0  0  0
  189.6720  177.4000  147.3280 C   0  0  0  0  0  0  0  0  0  0  0  0
  189.2570  177.3190  145.9870 C   0  0  0  0  0  3  0  0  0  0  0  0
  191.6870  175.9650  147.3030 C   0  0  0  0  0  1  0  0  0  0  0  0
  190.9920  177.1380  147.7040 O   0  0  0  0  0  0  0  0  0  0  0  0
  1  8  1  1  0  0  0
  1  5  1  0  0  0  0
  2  4  2  0  0  0  0
  2  3  1  0  0  0  0
  5  3  1  0  0  0  0
  5 21  1  1  0  0  0
  6  7  1  0  0  0  0
  6  1  1  0  0  0  0
  7  2  1  0  0  0  0
  9 11  2  0  0  0  0
 10 11  1  0  0  0  0
 10 12  1  0  0  0  0
 11  8  1  0  0  0  0
 13 14  1  0  0  0  0
 13 12  1  0  0  0  0
 15 14  1  6  0  0  0
 15 19  1  0  0  0  0
 15 17  1  0  0  0  0
 17 18  2  0  0  0  0
 17 16  1  0  0  0  0
 19 20  1  0  0  0  0
 21 22  1  0  0  0  0
 22 23  1  0  0  0  0
 23 24  1  0  0  0  0
 24 25  1  0  0  0  0
 25 27  2  0  0  0  0
 26 29  1  0  0  0  0
 26 24  2  0  0  0  0
 28 31  1  0  0  0  0
 28 27  1  0  0  0  0
 29 28  2  0  0  0  0
 30 31  1  0  0  0  0
M  END
>  <MODEL>
9

>  <REMARK>
 VINA RESULT:      -7.0      2.663      6.217
  Name = 
  13 active torsions:
  status: ('A' for Active; 'I' for Inactive)
    1  A    between atoms: C_1  and  O_10
    2  A    between atoms: C_2  and  C_26
    3  A    between atoms: C_2  and  C_31
    4  A    between atoms: C_6  and  C_29
    5  A    between atoms: C_7  and  C_22
    6  A    between atoms: C_7  and  C_25
    7  A    between atoms: C_8  and  C_22
    8  A    between atoms: O_10  and  C_19
    9  A    between atoms: C_11  and  C_29
   10  A    between atoms: O_14  and  C_24
   11  A    between atoms: N_17  and  C_31
   12  A    between atoms: C_20  and  C_25
   13  A    between atoms: C_26  and  C_29
                            x       y       z     vdW  Elec       q    Type
                         _______ _______ _______ _____ _____    ______ ____

>  <TORSDO>
F 13

$$$$
