=
 OpenBabel11062417073D

 65 70  0  0  1  0  0  0  0  0999 V2000
  183.4610  176.9290  138.8930 C   0  0  0  0  0  2  0  0  0  0  0  0
  181.0360  178.2500  140.5220 C   0  0  2  0  0  3  0  0  0  0  0  0
  183.9510  175.7450  138.0930 C   0  0  0  0  0  2  0  0  0  0  0  0
  184.2500  176.8580  135.7020 C   0  0  2  0  0  3  0  0  0  0  0  0
  181.0490  176.4460  138.2520 C   0  0  0  0  0  2  0  0  0  0  0  0
  182.7570  177.2780  135.8760 C   0  0  2  0  0  0  0  0  0  0  0  0
  182.4180  178.1380  136.9900 O   0  0  0  0  0  0  0  0  0  0  0  0
  184.8320  176.0780  136.8800 C   0  0  1  0  0  0  0  0  0  0  0  0
  184.9230  178.5410  137.3490 F   0  0  0  0  0  0  0  0  0  0  0  0
  179.9530  176.6990  139.2970 C   0  0  2  0  0  3  0  0  0  0  0  0
  182.1820  177.5240  138.2680 C   0  0  2  0  0  0  0  0  0  0  0  0
  181.9690  176.1040  135.8240 O   0  0  0  0  0  1  0  0  0  0  0  0
  180.5910  176.9110  140.5180 O   0  0  0  0  0  0  0  0  0  0  0  0
  185.3290  177.5190  136.5400 C   0  0  2  0  0  0  0  0  0  0  0  0
  182.4620  178.0800  134.6170 C   0  0  0  0  0  1  0  0  0  0  0  0
  181.7810  178.6730  139.2320 C   0  0  0  0  0  2  0  0  0  0  0  0
  186.7440  177.5990  135.9890 C   0  0  0  0  0  0  0  0  0  0  0  0
  186.8980  177.3570  134.6700 C   0  0  0  0  0  2  0  0  0  0  0  0
  187.9690  177.7950  136.8560 C   0  0  1  0  0  3  0  0  0  0  0  0
  187.6580  177.5000  138.3370 C   0  0  0  0  0  1  0  0  0  0  0  0
  189.1090  176.8740  136.4140 C   0  0  0  0  0  2  0  0  0  0  0  0
  189.1190  175.4790  137.0620 C   0  0  0  0  0  2  0  0  0  0  0  0
  189.9650  172.2270  135.2820 O   0  0  0  0  0  0  0  0  0  0  0  0
  189.6610  174.5060  136.1120 N   0  0  0  0  0  0  0  0  0  0  0  0
  188.4010  172.6700  136.9000 O   0  0  0  0  0  1  0  0  0  0  0  0
  189.2510  173.1150  136.0670 C   0  0  0  0  0  0  0  0  0  0  0  0
  190.5200  174.9050  134.9880 C   0  0  0  0  0  2  0  0  0  0  0  0
  192.8050  173.7180  134.5940 C   0  0  0  0  0  2  0  0  0  0  0  0
  192.0300  174.8630  135.2530 C   0  0  0  0  0  3  0  0  0  0  0  0
  193.9060  173.3790  135.5870 C   0  0  0  0  0  2  0  0  0  0  0  0
  192.4100  174.8980  136.7510 C   0  0  0  0  0  2  0  0  0  0  0  0
  193.3650  173.7470  136.9770 C   0  0  0  0  0  2  0  0  0  0  0  0
  185.6720  175.0280  136.4180 O   0  0  0  0  0  0  0  0  0  0  0  0
  185.1540  173.8440  135.9620 C   0  0  0  0  0  0  0  0  0  0  0  0
  184.5940  172.8420  135.5780 C   0  0  0  0  0  0  0  0  0  0  0  0
  183.8290  171.7010  135.1180 C   0  0  0  0  0  2  0  0  0  0  0  0
  183.3780  170.8640  136.2470 C   0  0  0  0  0  0  0  0  0  0  0  0
  182.6180  171.4250  137.2920 O   0  0  0  0  0  1  0  0  0  0  0  0
  183.6450  169.6390  136.2370 O   0  0  0  0  0  0  0  0  0  0  0  0
  178.9510  175.5280  139.3560 C   0  0  0  0  0  2  0  0  0  0  0  0
  179.1280  173.7350  140.9400 O   0  0  0  0  0  1  0  0  0  0  0  0
  179.6670  174.2410  139.7690 C   0  0  1  0  0  3  0  0  0  0  0  0
  179.5590  173.2550  138.6910 N   0  0  0  0  0  1  0  0  0  0  0  0
  181.9120  178.4460  141.7550 C   0  0  0  0  0  2  0  0  0  0  0  0
  183.2690  178.6610  141.3760 O   0  0  0  0  0  0  0  0  0  0  0  0
  186.7710  178.3170  142.4950 C   0  0  1  0  0  3  0  0  0  0  0  0
  187.8920  177.5110  141.9030 C   0  0  0  0  0  1  0  0  0  0  0  0
  183.1790  179.7310  144.1480 C   0  0  0  0  0  1  0  0  0  0  0  0
  185.6580  178.9490  144.3440 C   0  0  2  0  0  3  0  0  0  0  0  0
  184.3220  178.9690  143.5610 C   0  0  0  0  0  0  0  0  0  0  0  0
  185.5780  178.1140  141.7480 O   0  0  0  0  0  0  0  0  0  0  0  0
  186.5680  177.9790  143.8390 O   0  0  0  0  0  0  0  0  0  0  0  0
  184.3620  178.6020  142.2620 C   0  0  0  0  0  0  0  0  0  0  0  0
  184.2740  178.2120  146.1310 O   0  0  0  0  0  0  0  0  0  0  0  0
  185.3640  178.6340  145.7940 C   0  0  0  0  0  0  0  0  0  0  0  0
  186.3180  179.1730  146.8480 C   0  0  0  0  0  2  0  0  0  0  0  0
  186.6670  178.0800  147.8410 C   0  0  0  0  0  2  0  0  0  0  0  0
  187.7460  177.2710  147.3510 O   0  0  0  0  0  0  0  0  0  0  0  0
  189.3920  178.3560  148.5210 O   0  0  0  0  0  0  0  0  0  0  0  0
  189.0930  177.4910  147.6510 C   0  0  0  0  0  0  0  0  0  0  0  0
  190.1890  176.7650  146.9370 C   0  0  0  0  0  2  0  0  0  0  0  0
  191.7920  177.7340  145.3490 O   0  0  0  0  0  0  0  0  0  0  0  0
  189.6120  178.4320  145.1600 F   0  0  0  0  0  0  0  0  0  0  0  0
  190.4440  177.3940  145.5750 C   0  0  2  0  0  0  0  0  0  0  0  0
  191.2690  176.6990  144.5540 C   0  0  0  0  0  2  0  0  0  0  0  0
  2 44  1  1  0  0  0
  3  1  1  0  0  0  0
  4  6  1  0  0  0  0
  4 14  1  0  0  0  0
  4  8  1  0  0  0  0
  5 11  1  0  0  0  0
  5 10  1  0  0  0  0
  6  7  1  0  0  0  0
  7 11  1  0  0  0  0
  8  3  1  0  0  0  0
 10 40  1  0  0  0  0
 10 13  1  0  0  0  0
 11  1  1  0  0  0  0
 11 16  1  0  0  0  0
 12  6  1  0  0  0  0
 13  2  1  0  0  0  0
 14  8  1  0  0  0  0
 14  9  1  0  0  0  0
 15  6  1  0  0  0  0
 16  2  1  0  0  0  0
 17 14  1  0  0  0  0
 17 19  1  0  0  0  0
 18 17  2  0  0  0  0
 19 20  1  0  0  0  0
 21 19  1  0  0  0  0
 21 22  1  0  0  0  0
 23 26  2  0  0  0  0
 24 22  1  0  0  0  0
 26 24  1  0  0  0  0
 26 25  1  0  0  0  0
 27 29  1  0  0  0  0
 27 24  1  0  0  0  0
 28 29  1  0  0  0  0
 28 30  1  0  0  0  0
 29 31  1  0  0  0  0
 30 32  1  0  0  0  0
 31 32  1  0  0  0  0
 33  8  1  0  0  0  0
 34 33  1  0  0  0  0
 35 34  3  0  0  0  0
 36 35  1  0  0  0  0
 36 37  1  0  0  0  0
 37 38  1  0  0  0  0
 39 37  2  0  0  0  0
 40 42  1  0  0  0  0
 42 41  1  0  0  0  0
 43 42  1  0  0  0  0
 45 44  1  0  0  0  0
 45 53  1  0  0  0  0
 46 52  1  0  0  0  0
 47 46  1  0  0  0  0
 49 55  1  0  0  0  0
 50 48  1  0  0  0  0
 50 49  1  0  0  0  0
 51 53  1  0  0  0  0
 51 46  1  0  0  0  0
 52 49  1  0  0  0  0
 53 50  2  0  0  0  0
 55 54  2  0  0  0  0
 55 56  1  0  0  0  0
 56 57  1  0  0  0  0
 58 60  1  0  0  0  0
 58 57  1  0  0  0  0
 60 59  2  0  0  0  0
 61 60  1  0  0  0  0
 62 64  1  0  0  0  0
 63 64  1  0  0  0  0
 64 61  1  0  0  0  0
 65 62  1  0  0  0  0
 65 64  1  0  0  0  0
M  END
>  <MODEL>
1

>  <REMARK>
 VINA RESULT:      -6.4      0.000      0.000
  Name = 
  23 active torsions:
  status: ('A' for Active; 'I' for Inactive)
    1  A    between atoms: C_1  and  C_41
    2  A    between atoms: C_1  and  C_47
    3  A    between atoms: C_2  and  C_33
    4  A    between atoms: C_4  and  O_39
    5  A    between atoms: C_6  and  C_16
    6  A    between atoms: C_12  and  C_41
    7  A    between atoms: C_12  and  C_59
    8  A    between atoms: O_15  and  C_23
    9  A    between atoms: O_15  and  C_64
   10  A    between atoms: C_16  and  O_18
   11  A    between atoms: C_17  and  C_31
   12  A    between atoms: C_17  and  C_42
   13  A    between atoms: O_18  and  C_55
   14  A    between atoms: C_22  and  C_61
   15  A    between atoms: C_23  and  C_38
   16  A    between atoms: N_27  and  C_47
   17  A    between atoms: N_27  and  C_56
   18  A    between atoms: C_28  and  O_39
   19  A    between atoms: C_29  and  C_56
   20  A    between atoms: C_33  and  C_52
   21  A    between atoms: C_38  and  C_61
   22  A    between atoms: C_45  and  C_63
   23  A    between atoms: C_63  and  C_64
                            x       y       z     vdW  Elec       q    Type
                         _______ _______ _______ _____ _____    ______ ____

>  <TORSDO>
F 23

$$$$
=
 OpenBabel11062417073D

 65 70  0  0  1  0  0  0  0  0999 V2000
  183.9700  177.3670  140.6860 C   0  0  0  0  0  2  0  0  0  0  0  0
  184.8620  178.9110  143.3520 C   0  0  2  0  0  3  0  0  0  0  0  0
  182.8590  176.6650  139.9430 C   0  0  0  0  0  2  0  0  0  0  0  0
  182.4880  178.3380  137.9160 C   0  0  2  0  0  3  0  0  0  0  0  0
  182.2990  178.7570  142.0040 C   0  0  0  0  0  2  0  0  0  0  0  0
  182.2940  179.4110  139.0330 C   0  0  2  0  0  0  0  0  0  0  0  0
  183.4000  179.6650  139.9310 O   0  0  0  0  0  0  0  0  0  0  0  0
  182.7920  176.9330  138.4320 C   0  0  1  0  0  0  0  0  0  0  0  0
  184.8950  178.2990  138.3620 F   0  0  0  0  0  0  0  0  0  0  0  0
  182.6180  179.0820  143.4700 C   0  0  2  0  0  3  0  0  0  0  0  0
  183.5530  178.8020  141.0720 C   0  0  2  0  0  0  0  0  0  0  0  0
  181.0870  179.1170  139.7100 O   0  0  0  0  0  1  0  0  0  0  0  0
  183.6980  178.2830  143.8430 O   0  0  0  0  0  0  0  0  0  0  0  0
  183.8650  177.7570  137.6510 C   0  0  2  0  0  0  0  0  0  0  0  0
  182.0760  180.7010  138.2560 C   0  0  0  0  0  1  0  0  0  0  0  0
  184.7650  179.3540  141.8710 C   0  0  0  0  0  2  0  0  0  0  0  0
  184.1880  177.2360  136.2590 C   0  0  0  0  0  0  0  0  0  0  0  0
  183.3690  177.6240  135.2590 C   0  0  0  0  0  2  0  0  0  0  0  0
  185.2750  176.2230  135.9780 C   0  0  1  0  0  3  0  0  0  0  0  0
  186.6460  176.7200  136.4790 C   0  0  0  0  0  1  0  0  0  0  0  0
  184.9720  174.8880  136.6630 C   0  0  0  0  0  2  0  0  0  0  0  0
  186.1980  174.1260  137.1970 C   0  0  0  0  0  2  0  0  0  0  0  0
  188.3900  171.9660  134.9640 O   0  0  0  0  0  0  0  0  0  0  0  0
  186.6460  173.1620  136.1920 N   0  0  0  0  0  0  0  0  0  0  0  0
  188.9190  173.1820  136.8360 O   0  0  0  0  0  1  0  0  0  0  0  0
  188.0210  172.7130  136.0690 C   0  0  0  0  0  0  0  0  0  0  0  0
  185.7030  172.4110  135.3510 C   0  0  0  0  0  2  0  0  0  0  0  0
  184.6010  170.0510  135.3260 C   0  0  0  0  0  2  0  0  0  0  0  0
  184.8510  171.3620  136.0760 C   0  0  0  0  0  3  0  0  0  0  0  0
  183.2020  169.6290  135.7460 C   0  0  0  0  0  2  0  0  0  0  0  0
  183.4880  171.8930  136.5780 C   0  0  0  0  0  2  0  0  0  0  0  0
  182.4410  170.9210  136.0810 C   0  0  0  0  0  2  0  0  0  0  0  0
  182.1040  175.9570  137.6610 O   0  0  0  0  0  0  0  0  0  0  0  0
  180.9990  175.3080  138.1460 C   0  0  0  0  0  0  0  0  0  0  0  0
  180.0680  174.7470  138.6780 C   0  0  0  0  0  0  0  0  0  0  0  0
  178.9920  174.1140  139.4120 C   0  0  0  0  0  2  0  0  0  0  0  0
  179.1340  174.3240  140.8660 C   0  0  0  0  0  0  0  0  0  0  0  0
  179.5200  173.2610  141.7070 O   0  0  0  0  0  1  0  0  0  0  0  0
  178.9490  175.4730  141.3330 O   0  0  0  0  0  0  0  0  0  0  0  0
  181.3890  178.8640  144.3760 C   0  0  0  0  0  2  0  0  0  0  0  0
  179.9510  177.2920  143.2720 O   0  0  0  0  0  1  0  0  0  0  0  0
  180.1380  178.6420  143.5220 C   0  0  1  0  0  3  0  0  0  0  0  0
  178.9720  179.1990  144.2100 N   0  0  0  0  0  1  0  0  0  0  0  0
  186.0320  177.9560  143.5660 C   0  0  0  0  0  2  0  0  0  0  0  0
  186.9180  177.9910  142.4510 O   0  0  0  0  0  0  0  0  0  0  0  0
  190.1160  176.8380  143.8950 C   0  0  1  0  0  3  0  0  0  0  0  0
  190.6900  177.0740  145.2620 C   0  0  0  0  0  1  0  0  0  0  0  0
  188.4490  177.1340  140.0520 C   0  0  0  0  0  1  0  0  0  0  0  0
  190.4610  176.7890  141.6740 C   0  0  2  0  0  3  0  0  0  0  0  0
  189.0290  177.3200  141.4150 C   0  0  0  0  0  0  0  0  0  0  0  0
  188.8690  177.5110  143.7680 O   0  0  0  0  0  0  0  0  0  0  0  0
  191.0030  177.2650  142.9000 O   0  0  0  0  0  0  0  0  0  0  0  0
  188.2710  177.6010  142.4970 C   0  0  0  0  0  0  0  0  0  0  0  0
  192.4440  177.7290  140.7600 O   0  0  0  0  0  0  0  0  0  0  0  0
  191.3540  177.2370  140.5380 C   0  0  0  0  0  0  0  0  0  0  0  0
  190.7340  177.3790  139.1570 C   0  0  0  0  0  2  0  0  0  0  0  0
  191.3810  176.4030  138.1930 C   0  0  0  0  0  2  0  0  0  0  0  0
  192.6850  176.8580  137.8050 O   0  0  0  0  0  0  0  0  0  0  0  0
  194.4710  176.5370  136.4030 O   0  0  0  0  0  0  0  0  0  0  0  0
  193.6690  176.0400  137.2420 C   0  0  0  0  0  0  0  0  0  0  0  0
  193.7670  174.5840  137.5720 C   0  0  0  0  0  2  0  0  0  0  0  0
  194.4450  173.3860  135.5390 O   0  0  0  0  0  0  0  0  0  0  0  0
  192.2820  174.1590  135.6020 F   0  0  0  0  0  0  0  0  0  0  0  0
  193.3650  173.7390  136.3720 C   0  0  2  0  0  0  0  0  0  0  0  0
  193.8270  172.3340  136.2370 C   0  0  0  0  0  2  0  0  0  0  0  0
  1 11  1  0  0  0  0
  2 44  1  6  0  0  0
  2 13  1  0  0  0  0
  3  1  1  0  0  0  0
  4  8  1  0  0  0  0
  4  6  1  0  0  0  0
  5 10  1  0  0  0  0
  6 12  1  0  0  0  0
  6  7  1  0  0  0  0
  7 11  1  0  0  0  0
  8  3  1  0  0  0  0
 10 13  1  0  0  0  0
 10 40  1  0  0  0  0
 11 16  1  0  0  0  0
 11  5  1  0  0  0  0
 14  4  1  0  0  0  0
 14  9  1  0  0  0  0
 14  8  1  0  0  0  0
 15  6  1  0  0  0  0
 16  2  1  0  0  0  0
 17 14  1  0  0  0  0
 18 17  2  0  0  0  0
 19 17  1  0  0  0  0
 19 20  1  0  0  0  0
 19 21  1  0  0  0  0
 21 22  1  0  0  0  0
 23 26  2  0  0  0  0
 24 22  1  0  0  0  0
 26 24  1  0  0  0  0
 26 25  1  0  0  0  0
 27 29  1  0  0  0  0
 27 24  1  0  0  0  0
 28 30  1  0  0  0  0
 28 29  1  0  0  0  0
 29 31  1  0  0  0  0
 30 32  1  0  0  0  0
 32 31  1  0  0  0  0
 33 34  1  0  0  0  0
 33  8  1  0  0  0  0
 34 35  3  0  0  0  0
 35 36  1  0  0  0  0
 36 37  1  0  0  0  0
 37 39  2  0  0  0  0
 37 38  1  0  0  0  0
 41 42  1  0  0  0  0
 42 43  1  0  0  0  0
 42 40  1  0  0  0  0
 45 53  1  0  0  0  0
 45 44  1  0  0  0  0
 46 47  1  0  0  0  0
 48 50  1  0  0  0  0
 49 52  1  0  0  0  0
 50 49  1  0  0  0  0
 50 53  2  0  0  0  0
 51 46  1  0  0  0  0
 52 46  1  0  0  0  0
 53 51  1  0  0  0  0
 55 54  2  0  0  0  0
 55 49  1  0  0  0  0
 56 55  1  0  0  0  0
 57 56  1  0  0  0  0
 58 57  1  0  0  0  0
 59 60  2  0  0  0  0
 60 61  1  0  0  0  0
 60 58  1  0  0  0  0
 62 65  1  0  0  0  0
 62 64  1  0  0  0  0
 63 64  1  0  0  0  0
 64 61  1  0  0  0  0
 65 64  1  0  0  0  0
M  END
>  <MODEL>
2

>  <REMARK>
 VINA RESULT:      -6.4      2.566      6.617
  Name = 
  23 active torsions:
  status: ('A' for Active; 'I' for Inactive)
    1  A    between atoms: C_1  and  C_41
    2  A    between atoms: C_1  and  C_47
    3  A    between atoms: C_2  and  C_33
    4  A    between atoms: C_4  and  O_39
    5  A    between atoms: C_6  and  C_16
    6  A    between atoms: C_12  and  C_41
    7  A    between atoms: C_12  and  C_59
    8  A    between atoms: O_15  and  C_23
    9  A    between atoms: O_15  and  C_64
   10  A    between atoms: C_16  and  O_18
   11  A    between atoms: C_17  and  C_31
   12  A    between atoms: C_17  and  C_42
   13  A    between atoms: O_18  and  C_55
   14  A    between atoms: C_22  and  C_61
   15  A    between atoms: C_23  and  C_38
   16  A    between atoms: N_27  and  C_47
   17  A    between atoms: N_27  and  C_56
   18  A    between atoms: C_28  and  O_39
   19  A    between atoms: C_29  and  C_56
   20  A    between atoms: C_33  and  C_52
   21  A    between atoms: C_38  and  C_61
   22  A    between atoms: C_45  and  C_63
   23  A    between atoms: C_63  and  C_64
                            x       y       z     vdW  Elec       q    Type
                         _______ _______ _______ _____ _____    ______ ____

>  <TORSDO>
F 23

$$$$
=
 OpenBabel11062417073D

 65 70  0  0  1  0  0  0  0  0999 V2000
  183.4300  177.2070  139.4790 C   0  0  0  0  0  2  0  0  0  0  0  0
  181.7590  178.7220  141.7590 C   0  0  2  0  0  3  0  0  0  0  0  0
  183.4700  176.0730  138.4830 C   0  0  0  0  0  2  0  0  0  0  0  0
  183.4640  177.4250  136.1980 C   0  0  2  0  0  3  0  0  0  0  0  0
  180.8900  177.2710  139.4030 C   0  0  0  0  0  2  0  0  0  0  0  0
  182.1700  178.0860  136.7670 C   0  0  2  0  0  0  0  0  0  0  0  0
  182.2740  178.8350  138.0000 O   0  0  0  0  0  0  0  0  0  0  0  0
  184.1120  176.3990  137.1260 C   0  0  1  0  0  0  0  0  0  0  0  0
  184.8240  178.7150  137.7740 F   0  0  0  0  0  0  0  0  0  0  0  0
  180.1300  177.5780  140.7010 C   0  0  2  0  0  3  0  0  0  0  0  0
  182.2000  178.1080  139.2390 C   0  0  2  0  0  0  0  0  0  0  0  0
  181.1590  177.0960  136.8040 O   0  0  0  0  0  1  0  0  0  0  0  0
  181.0520  177.5020  141.7450 O   0  0  0  0  0  0  0  0  0  0  0  0
  184.8160  177.7550  136.8040 C   0  0  2  0  0  0  0  0  0  0  0  0
  181.7810  179.0910  135.6930 C   0  0  0  0  0  1  0  0  0  0  0  0
  182.2740  179.1700  140.3690 C   0  0  0  0  0  2  0  0  0  0  0  0
  186.0590  177.6450  135.9350 C   0  0  0  0  0  0  0  0  0  0  0  0
  185.8620  177.4760  134.6100 C   0  0  0  0  0  2  0  0  0  0  0  0
  187.4640  177.5810  136.4910 C   0  0  1  0  0  3  0  0  0  0  0  0
  187.9950  178.9890  136.8300 C   0  0  0  0  0  1  0  0  0  0  0  0
  187.5130  176.7330  137.7640 C   0  0  0  0  0  2  0  0  0  0  0  0
  187.8960  175.2560  137.5590 C   0  0  0  0  0  2  0  0  0  0  0  0
  191.5150  175.4010  136.4020 O   0  0  0  0  0  0  0  0  0  0  0  0
  189.1030  175.1770  136.7370 N   0  0  0  0  0  0  0  0  0  0  0  0
  190.6280  175.4760  138.5160 O   0  0  0  0  0  1  0  0  0  0  0  0
  190.4480  175.2770  137.2740 C   0  0  0  0  0  0  0  0  0  0  0  0
  189.0620  174.7840  135.3210 C   0  0  0  0  0  2  0  0  0  0  0  0
  187.0260  173.3310  134.5960 C   0  0  0  0  0  2  0  0  0  0  0  0
  188.4930  173.3900  135.0310 C   0  0  0  0  0  3  0  0  0  0  0  0
  186.5040  172.0300  135.1860 C   0  0  0  0  0  2  0  0  0  0  0  0
  188.6930  172.3740  136.1800 C   0  0  0  0  0  2  0  0  0  0  0  0
  187.3370  171.7600  136.4470 C   0  0  0  0  0  2  0  0  0  0  0  0
  184.5880  175.2830  136.3840 O   0  0  0  0  0  0  0  0  0  0  0  0
  183.7650  174.2390  136.0520 C   0  0  0  0  0  0  0  0  0  0  0  0
  183.1270  173.2700  135.7060 C   0  0  0  0  0  0  0  0  0  0  0  0
  182.4600  172.0620  135.2660 C   0  0  0  0  0  2  0  0  0  0  0  0
  181.5550  171.5370  136.3080 C   0  0  0  0  0  0  0  0  0  0  0  0
  180.2140  171.2320  136.0000 O   0  0  0  0  0  0  0  0  0  0  0  0
  182.0110  171.3280  137.4570 O   0  0  0  0  0  1  0  0  0  0  0  0
  178.9410  176.6160  140.8990 C   0  0  0  0  0  2  0  0  0  0  0  0
  179.0340  174.5820  142.1700 O   0  0  0  0  0  1  0  0  0  0  0  0
  179.4390  175.1720  140.9820 C   0  0  1  0  0  3  0  0  0  0  0  0
  178.9310  174.4130  139.8380 N   0  0  0  0  0  1  0  0  0  0  0  0
  182.9060  178.5840  142.7540 C   0  0  0  0  0  2  0  0  0  0  0  0
  184.1390  178.9710  142.1540 O   0  0  0  0  0  0  0  0  0  0  0  0
  186.6870  177.4110  144.3250 C   0  0  1  0  0  3  0  0  0  0  0  0
  186.7610  177.3500  145.8240 C   0  0  0  0  0  1  0  0  0  0  0  0
  186.4090  178.5250  140.2860 C   0  0  0  0  0  1  0  0  0  0  0  0
  187.7620  177.7780  142.3850 C   0  0  2  0  0  3  0  0  0  0  0  0
  186.4900  178.4160  141.7740 C   0  0  0  0  0  0  0  0  0  0  0  0
  185.5410  178.1530  143.9250 O   0  0  0  0  0  0  0  0  0  0  0  0
  187.8490  177.9810  143.7910 O   0  0  0  0  0  0  0  0  0  0  0  0
  185.4060  178.5170  142.5710 C   0  0  0  0  0  0  0  0  0  0  0  0
  188.9140  179.4950  141.2130 O   0  0  0  0  0  0  0  0  0  0  0  0
  188.9760  178.3940  141.7270 C   0  0  0  0  0  0  0  0  0  0  0  0
  190.1570  177.4880  141.4180 C   0  0  0  0  0  2  0  0  0  0  0  0
  191.2100  177.6170  142.5030 C   0  0  0  0  0  2  0  0  0  0  0  0
  191.7270  176.3280  142.8670 O   0  0  0  0  0  0  0  0  0  0  0  0
  192.1730  174.6550  144.3690 O   0  0  0  0  0  0  0  0  0  0  0  0
  191.6750  175.7970  144.1580 C   0  0  0  0  0  0  0  0  0  0  0  0
  191.0080  176.5210  145.2840 C   0  0  0  0  0  2  0  0  0  0  0  0
  192.1080  177.2340  147.3590 O   0  0  0  0  0  0  0  0  0  0  0  0
  192.5840  175.1110  146.6230 F   0  0  0  0  0  0  0  0  0  0  0  0
  191.6390  176.1350  146.6130 C   0  0  2  0  0  0  0  0  0  0  0  0
  191.0150  176.5340  147.9010 C   0  0  0  0  0  2  0  0  0  0  0  0
  2 44  1  1  0  0  0
  3  1  1  0  0  0  0
  4  6  1  0  0  0  0
  4 14  1  0  0  0  0
  4  8  1  0  0  0  0
  5 10  1  0  0  0  0
  6 12  1  0  0  0  0
  6  7  1  0  0  0  0
  7 11  1  0  0  0  0
  8  3  1  0  0  0  0
 10 40  1  0  0  0  0
 10 13  1  0  0  0  0
 11  5  1  0  0  0  0
 11  1  1  0  0  0  0
 11 16  1  0  0  0  0
 13  2  1  0  0  0  0
 14  8  1  0  0  0  0
 14  9  1  0  0  0  0
 15  6  1  0  0  0  0
 16  2  1  0  0  0  0
 17 19  1  0  0  0  0
 17 14  1  0  0  0  0
 18 17  2  0  0  0  0
 19 20  1  0  0  0  0
 19 21  1  0  0  0  0
 22 21  1  0  0  0  0
 23 26  2  0  0  0  0
 24 26  1  0  0  0  0
 24 22  1  0  0  0  0
 26 25  1  0  0  0  0
 27 24  1  0  0  0  0
 28 29  1  0  0  0  0
 28 30  1  0  0  0  0
 29 27  1  0  0  0  0
 29 31  1  0  0  0  0
 30 32  1  0  0  0  0
 31 32  1  0  0  0  0
 33  8  1  0  0  0  0
 34 33  1  0  0  0  0
 35 34  3  0  0  0  0
 36 35  1  0  0  0  0
 36 37  1  0  0  0  0
 37 39  1  0  0  0  0
 38 37  2  0  0  0  0
 40 42  1  0  0  0  0
 42 41  1  0  0  0  0
 43 42  1  0  0  0  0
 45 53  1  0  0  0  0
 45 44  1  0  0  0  0
 46 47  1  0  0  0  0
 48 50  1  0  0  0  0
 49 52  1  0  0  0  0
 50 49  1  0  0  0  0
 50 53  2  0  0  0  0
 51 46  1  0  0  0  0
 52 46  1  0  0  0  0
 53 51  1  0  0  0  0
 54 55  2  0  0  0  0
 55 49  1  0  0  0  0
 56 55  1  0  0  0  0
 56 57  1  0  0  0  0
 57 58  1  0  0  0  0
 58 60  1  0  0  0  0
 60 59  2  0  0  0  0
 60 61  1  0  0  0  0
 61 64  1  0  0  0  0
 62 65  1  0  0  0  0
 64 63  1  0  0  0  0
 64 62  1  0  0  0  0
 64 65  1  0  0  0  0
M  END
>  <MODEL>
3

>  <REMARK>
 VINA RESULT:      -6.2      1.917      3.217
  Name = 
  23 active torsions:
  status: ('A' for Active; 'I' for Inactive)
    1  A    between atoms: C_1  and  C_41
    2  A    between atoms: C_1  and  C_47
    3  A    between atoms: C_2  and  C_33
    4  A    between atoms: C_4  and  O_39
    5  A    between atoms: C_6  and  C_16
    6  A    between atoms: C_12  and  C_41
    7  A    between atoms: C_12  and  C_59
    8  A    between atoms: O_15  and  C_23
    9  A    between atoms: O_15  and  C_64
   10  A    between atoms: C_16  and  O_18
   11  A    between atoms: C_17  and  C_31
   12  A    between atoms: C_17  and  C_42
   13  A    between atoms: O_18  and  C_55
   14  A    between atoms: C_22  and  C_61
   15  A    between atoms: C_23  and  C_38
   16  A    between atoms: N_27  and  C_47
   17  A    between atoms: N_27  and  C_56
   18  A    between atoms: C_28  and  O_39
   19  A    between atoms: C_29  and  C_56
   20  A    between atoms: C_33  and  C_52
   21  A    between atoms: C_38  and  C_61
   22  A    between atoms: C_45  and  C_63
   23  A    between atoms: C_63  and  C_64
                            x       y       z     vdW  Elec       q    Type
                         _______ _______ _______ _____ _____    ______ ____

>  <TORSDO>
F 23

$$$$
=
 OpenBabel11062417073D

 65 70  0  0  1  0  0  0  0  0999 V2000
  183.4080  177.1410  139.7840 C   0  0  0  0  0  2  0  0  0  0  0  0
  182.6430  179.2210  142.1020 C   0  0  2  0  0  3  0  0  0  0  0  0
  182.9630  175.9740  138.9350 C   0  0  0  0  0  2  0  0  0  0  0  0
  182.9000  177.1090  136.5360 C   0  0  2  0  0  3  0  0  0  0  0  0
  181.0060  177.9120  140.0980 C   0  0  0  0  0  2  0  0  0  0  0  0
  181.9540  178.1470  137.2180 C   0  0  2  0  0  0  0  0  0  0  0  0
  182.4760  178.9210  138.3230 O   0  0  0  0  0  0  0  0  0  0  0  0
  183.4100  176.0100  137.4660 C   0  0  1  0  0  0  0  0  0  0  0  0
  184.8170  178.0710  137.7180 F   0  0  0  0  0  0  0  0  0  0  0  0
  180.6050  178.5110  141.4540 C   0  0  2  0  0  3  0  0  0  0  0  0
  182.4390  178.3320  139.6350 C   0  0  2  0  0  0  0  0  0  0  0  0
  180.7410  177.4870  137.5280 O   0  0  0  0  0  1  0  0  0  0  0  0
  181.6470  178.2520  142.3430 O   0  0  0  0  0  0  0  0  0  0  0  0
  184.3780  177.0870  136.8810 C   0  0  2  0  0  0  0  0  0  0  0  0
  181.6570  179.1430  136.1060 C   0  0  0  0  0  1  0  0  0  0  0  0
  182.9970  179.4080  140.6060 C   0  0  0  0  0  2  0  0  0  0  0  0
  185.3670  176.5700  135.8470 C   0  0  0  0  0  0  0  0  0  0  0  0
  185.2460  177.0550  134.5940 C   0  0  0  0  0  2  0  0  0  0  0  0
  186.3640  175.4670  136.1250 C   0  0  1  0  0  3  0  0  0  0  0  0
  186.2490  174.3350  135.0830 C   0  0  0  0  0  1  0  0  0  0  0  0
  187.7980  176.0010  136.0920 C   0  0  0  0  0  2  0  0  0  0  0  0
  188.7430  175.2970  135.1020 C   0  0  0  0  0  2  0  0  0  0  0  0
  190.9550  173.2820  137.4470 O   0  0  0  0  0  1  0  0  0  0  0  0
  189.9050  174.7790  135.8250 N   0  0  0  0  0  0  0  0  0  0  0  0
  188.7890  172.9300  136.7810 O   0  0  0  0  0  0  0  0  0  0  0  0
  189.8720  173.5760  136.6380 C   0  0  0  0  0  0  0  0  0  0  0  0
  191.2580  175.3180  135.6240 C   0  0  0  0  0  2  0  0  0  0  0  0
  193.1320  176.3890  137.0820 C   0  0  0  0  0  2  0  0  0  0  0  0
  191.6830  176.4320  136.5880 C   0  0  0  0  0  3  0  0  0  0  0  0
  193.0680  176.9230  138.5040 C   0  0  0  0  0  2  0  0  0  0  0  0
  190.7620  176.5870  137.8210 C   0  0  0  0  0  2  0  0  0  0  0  0
  191.6660  176.5850  139.0330 C   0  0  0  0  0  2  0  0  0  0  0  0
  183.4300  174.7570  136.7950 O   0  0  0  0  0  0  0  0  0  0  0  0
  182.3030  173.9840  136.6870 C   0  0  0  0  0  0  0  0  0  0  0  0
  181.2480  173.3980  136.5820 C   0  0  0  0  0  0  0  0  0  0  0  0
  179.9420  172.7930  136.4240 C   0  0  0  0  0  2  0  0  0  0  0  0
  180.0440  171.3330  136.2320 C   0  0  0  0  0  0  0  0  0  0  0  0
  178.9570  170.4940  136.5460 O   0  0  0  0  0  1  0  0  0  0  0  0
  181.0990  170.8590  135.7450 O   0  0  0  0  0  0  0  0  0  0  0  0
  179.2600  177.9400  141.9460 C   0  0  0  0  0  2  0  0  0  0  0  0
  179.7290  177.7320  144.2900 O   0  0  0  0  0  1  0  0  0  0  0  0
  178.9670  178.4290  143.3660 C   0  0  1  0  0  3  0  0  0  0  0  0
  179.2460  179.8640  143.4550 N   0  0  0  0  0  1  0  0  0  0  0  0
  183.8740  178.8350  142.9160 C   0  0  0  0  0  2  0  0  0  0  0  0
  185.0400  179.4650  142.3900 O   0  0  0  0  0  0  0  0  0  0  0  0
  187.9240  178.5060  140.2920 C   0  0  1  0  0  3  0  0  0  0  0  0
  188.0600  178.4970  138.7970 C   0  0  0  0  0  1  0  0  0  0  0  0
  186.7760  177.9880  144.2980 C   0  0  0  0  0  1  0  0  0  0  0  0
  188.2720  177.4320  142.2370 C   0  0  2  0  0  3  0  0  0  0  0  0
  186.9530  178.0030  142.8150 C   0  0  0  0  0  0  0  0  0  0  0  0
  186.6120  178.9140  140.6590 O   0  0  0  0  0  0  0  0  0  0  0  0
  188.2100  177.2440  140.8280 O   0  0  0  0  0  0  0  0  0  0  0  0
  186.2070  178.7800  142.0010 C   0  0  0  0  0  0  0  0  0  0  0  0
  187.7760  175.6310  143.7070 O   0  0  0  0  0  0  0  0  0  0  0  0
  188.5510  176.1000  142.8950 C   0  0  0  0  0  0  0  0  0  0  0  0
  189.9580  175.5330  142.7890 C   0  0  0  0  0  2  0  0  0  0  0  0
  190.9390  176.4340  143.5150 C   0  0  0  0  0  2  0  0  0  0  0  0
  190.2450  177.3850  144.3350 O   0  0  0  0  0  0  0  0  0  0  0  0
  191.2840  178.4980  146.0490 O   0  0  0  0  0  0  0  0  0  0  0  0
  190.4930  177.5790  145.6960 C   0  0  0  0  0  0  0  0  0  0  0  0
  189.8850  176.6980  146.7420 C   0  0  0  0  0  2  0  0  0  0  0  0
  188.2360  178.3640  147.4730 O   0  0  0  0  0  0  0  0  0  0  0  0
  190.1850  178.2490  148.6840 F   0  0  0  0  0  0  0  0  0  0  0  0
  189.3050  177.5370  147.8710 C   0  0  2  0  0  0  0  0  0  0  0  0
  187.9180  177.3150  148.3540 C   0  0  0  0  0  2  0  0  0  0  0  0
  2 13  1  0  0  0  0
  2 44  1  1  0  0  0
  3  1  1  0  0  0  0
  4 14  1  0  0  0  0
  4  6  1  0  0  0  0
  4  8  1  0  0  0  0
  5 10  1  0  0  0  0
  6 12  1  0  0  0  0
  6  7  1  0  0  0  0
  7 11  1  0  0  0  0
  8  3  1  0  0  0  0
 10 40  1  0  0  0  0
 10 13  1  0  0  0  0
 11  1  1  0  0  0  0
 11  5  1  0  0  0  0
 11 16  1  0  0  0  0
 14  8  1  0  0  0  0
 14  9  1  0  0  0  0
 15  6  1  0  0  0  0
 16  2  1  0  0  0  0
 17 19  1  0  0  0  0
 17 14  1  0  0  0  0
 18 17  2  0  0  0  0
 20 19  1  0  0  0  0
 21 19  1  0  0  0  0
 22 24  1  0  0  0  0
 22 21  1  0  0  0  0
 24 26  1  0  0  0  0
 26 25  2  0  0  0  0
 26 23  1  0  0  0  0
 27 24  1  0  0  0  0
 27 29  1  0  0  0  0
 28 30  1  0  0  0  0
 29 28  1  0  0  0  0
 29 31  1  0  0  0  0
 30 32  1  0  0  0  0
 31 32  1  0  0  0  0
 33  8  1  0  0  0  0
 34 33  1  0  0  0  0
 35 34  3  0  0  0  0
 36 35  1  0  0  0  0
 37 36  1  0  0  0  0
 37 38  1  0  0  0  0
 39 37  2  0  0  0  0
 40 42  1  0  0  0  0
 42 43  1  0  0  0  0
 42 41  1  0  0  0  0
 45 44  1  0  0  0  0
 46 51  1  0  0  0  0
 46 52  1  0  0  0  0
 47 46  1  0  0  0  0
 49 50  1  0  0  0  0
 49 55  1  0  0  0  0
 50 48  1  0  0  0  0
 51 53  1  0  0  0  0
 52 49  1  0  0  0  0
 53 45  1  0  0  0  0
 53 50  2  0  0  0  0
 55 54  2  0  0  0  0
 56 55  1  0  0  0  0
 56 57  1  0  0  0  0
 57 58  1  0  0  0  0
 58 60  1  0  0  0  0
 60 59  2  0  0  0  0
 60 61  1  0  0  0  0
 61 64  1  0  0  0  0
 62 64  1  0  0  0  0
 62 65  1  0  0  0  0
 64 65  1  0  0  0  0
 64 63  1  0  0  0  0
M  END
>  <MODEL>
4

>  <REMARK>
 VINA RESULT:      -5.7      2.223      3.278
  Name = 
  23 active torsions:
  status: ('A' for Active; 'I' for Inactive)
    1  A    between atoms: C_1  and  C_41
    2  A    between atoms: C_1  and  C_47
    3  A    between atoms: C_2  and  C_33
    4  A    between atoms: C_4  and  O_39
    5  A    between atoms: C_6  and  C_16
    6  A    between atoms: C_12  and  C_41
    7  A    between atoms: C_12  and  C_59
    8  A    between atoms: O_15  and  C_23
    9  A    between atoms: O_15  and  C_64
   10  A    between atoms: C_16  and  O_18
   11  A    between atoms: C_17  and  C_31
   12  A    between atoms: C_17  and  C_42
   13  A    between atoms: O_18  and  C_55
   14  A    between atoms: C_22  and  C_61
   15  A    between atoms: C_23  and  C_38
   16  A    between atoms: N_27  and  C_47
   17  A    between atoms: N_27  and  C_56
   18  A    between atoms: C_28  and  O_39
   19  A    between atoms: C_29  and  C_56
   20  A    between atoms: C_33  and  C_52
   21  A    between atoms: C_38  and  C_61
   22  A    between atoms: C_45  and  C_63
   23  A    between atoms: C_63  and  C_64
                            x       y       z     vdW  Elec       q    Type
                         _______ _______ _______ _____ _____    ______ ____

>  <TORSDO>
F 23

$$$$
=
 OpenBabel11062417073D

 65 70  0  0  1  0  0  0  0  0999 V2000
  185.1970  176.2810  138.1880 C   0  0  0  0  0  2  0  0  0  0  0  0
  184.0460  178.6580  140.0070 C   0  0  2  0  0  3  0  0  0  0  0  0
  184.9470  175.3340  137.0380 C   0  0  0  0  0  2  0  0  0  0  0  0
  186.7310  176.2170  135.2810 C   0  0  2  0  0  3  0  0  0  0  0  0
  183.5650  177.9790  137.2290 C   0  0  0  0  0  2  0  0  0  0  0  0
  186.0300  177.5960  135.4870 C   0  0  2  0  0  0  0  0  0  0  0  0
  186.0400  178.1720  136.8140 O   0  0  0  0  0  0  0  0  0  0  0  0
  186.1470  175.0770  136.1140 C   0  0  1  0  0  0  0  0  0  0  0  0
  187.7690  176.4060  137.4900 F   0  0  0  0  0  0  0  0  0  0  0  0
  182.6990  178.7880  138.2050 C   0  0  2  0  0  3  0  0  0  0  0  0
  185.0250  177.7480  137.7410 C   0  0  2  0  0  0  0  0  0  0  0  0
  184.7310  177.5070  134.9320 O   0  0  0  0  0  1  0  0  0  0  0  0
  182.8310  178.1960  139.4600 O   0  0  0  0  0  0  0  0  0  0  0  0
  187.5840  175.6240  136.3870 C   0  0  2  0  0  0  0  0  0  0  0  0
  186.8360  178.5410  134.6090 C   0  0  0  0  0  1  0  0  0  0  0  0
  185.2500  178.5750  139.0360 C   0  0  0  0  0  2  0  0  0  0  0  0
  188.7150  174.6760  136.0170 C   0  0  0  0  0  0  0  0  0  0  0  0
  189.1580  174.7260  134.7440 C   0  0  0  0  0  2  0  0  0  0  0  0
  189.2550  173.6160  136.9520 C   0  0  1  0  0  3  0  0  0  0  0  0
  188.6800  172.2260  136.6120 C   0  0  0  0  0  1  0  0  0  0  0  0
  190.7810  173.5350  136.8670 C   0  0  0  0  0  2  0  0  0  0  0  0
  191.5410  174.7250  137.4810 C   0  0  0  0  0  2  0  0  0  0  0  0
  194.8290  176.1790  136.2460 O   0  0  0  0  0  0  0  0  0  0  0  0
  192.8080  174.9090  136.7740 N   0  0  0  0  0  0  0  0  0  0  0  0
  193.5080  176.7900  138.0190 O   0  0  0  0  0  1  0  0  0  0  0  0
  193.7630  175.9530  137.0990 C   0  0  0  0  0  0  0  0  0  0  0  0
  193.3160  173.9250  135.8060 C   0  0  0  0  0  2  0  0  0  0  0  0
  195.6770  172.8340  135.9410 C   0  0  0  0  0  2  0  0  0  0  0  0
  194.2110  172.8220  136.3840 C   0  0  0  0  0  3  0  0  0  0  0  0
  196.0720  171.3660  135.8840 C   0  0  0  0  0  2  0  0  0  0  0  0
  193.6620  171.3910  136.1810 C   0  0  0  0  0  2  0  0  0  0  0  0
  194.7880  170.5830  135.5750 C   0  0  0  0  0  2  0  0  0  0  0  0
  186.0950  173.8770  135.3540 O   0  0  0  0  0  0  0  0  0  0  0  0
  185.0610  172.9870  135.4880 C   0  0  0  0  0  0  0  0  0  0  0  0
  184.2200  172.1350  135.6660 C   0  0  0  0  0  0  0  0  0  0  0  0
  183.2810  171.0710  135.9540 C   0  0  0  0  0  2  0  0  0  0  0  0
  181.9430  171.6060  136.2790 C   0  0  0  0  0  0  0  0  0  0  0  0
  181.7610  172.9840  136.5040 O   0  0  0  0  0  1  0  0  0  0  0  0
  180.9670  170.8190  136.3080 O   0  0  0  0  0  0  0  0  0  0  0  0
  181.2310  178.8480  137.7380 C   0  0  0  0  0  2  0  0  0  0  0  0
  180.0680  176.8070  138.2310 O   0  0  0  0  0  1  0  0  0  0  0  0
  180.7780  177.4720  137.2440 C   0  0  1  0  0  3  0  0  0  0  0  0
  179.9550  177.6310  136.0430 N   0  0  0  0  0  1  0  0  0  0  0  0
  184.3120  177.8690  141.2850 C   0  0  0  0  0  2  0  0  0  0  0  0
  185.4340  178.4060  141.9800 O   0  0  0  0  0  0  0  0  0  0  0  0
  184.8840  178.0970  145.6200 C   0  0  1  0  0  3  0  0  0  0  0  0
  183.9660  178.8740  146.5190 C   0  0  0  0  0  1  0  0  0  0  0  0
  187.7700  176.7930  142.8620 C   0  0  0  0  0  1  0  0  0  0  0  0
  186.9290  177.2230  145.2920 C   0  0  2  0  0  3  0  0  0  0  0  0
  186.8410  177.5240  143.7750 C   0  0  0  0  0  0  0  0  0  0  0  0
  184.7930  178.5910  144.2880 O   0  0  0  0  0  0  0  0  0  0  0  0
  186.2060  178.1650  146.0750 O   0  0  0  0  0  0  0  0  0  0  0  0
  185.7290  178.1500  143.3340 C   0  0  0  0  0  0  0  0  0  0  0  0
  188.7080  177.6690  146.8040 O   0  0  0  0  0  0  0  0  0  0  0  0
  188.3830  177.2550  145.7070 C   0  0  0  0  0  0  0  0  0  0  0  0
  189.4380  177.0930  144.6240 C   0  0  0  0  0  2  0  0  0  0  0  0
  190.8020  176.8810  145.2530 C   0  0  0  0  0  2  0  0  0  0  0  0
  191.8470  177.1760  144.3150 O   0  0  0  0  0  0  0  0  0  0  0  0
  191.3370  179.2930  143.5980 O   0  0  0  0  0  0  0  0  0  0  0  0
  191.7480  178.1350  143.3040 C   0  0  0  0  0  0  0  0  0  0  0  0
  192.0720  177.8160  141.8790 C   0  0  0  0  0  2  0  0  0  0  0  0
  189.8430  177.8200  140.8500 O   0  0  0  0  0  0  0  0  0  0  0  0
  190.4900  175.8750  141.8870 F   0  0  0  0  0  0  0  0  0  0  0  0
  190.9380  177.0260  141.2410 C   0  0  2  0  0  0  0  0  0  0  0  0
  190.5800  177.2200  139.8130 C   0  0  0  0  0  2  0  0  0  0  0  0
  2 44  1  1  0  0  0
  3  1  1  0  0  0  0
  4  6  1  0  0  0  0
  4  8  1  0  0  0  0
  4 14  1  0  0  0  0
  5 11  1  0  0  0  0
  5 10  1  0  0  0  0
  6  7  1  0  0  0  0
  7 11  1  0  0  0  0
  8 14  1  0  0  0  0
  8  3  1  0  0  0  0
 10 13  1  0  0  0  0
 11  1  1  0  0  0  0
 11 16  1  0  0  0  0
 12  6  1  0  0  0  0
 13  2  1  0  0  0  0
 14  9  1  0  0  0  0
 15  6  1  0  0  0  0
 16  2  1  0  0  0  0
 17 14  1  0  0  0  0
 17 19  1  0  0  0  0
 18 17  2  0  0  0  0
 20 19  1  0  0  0  0
 21 19  1  0  0  0  0
 21 22  1  0  0  0  0
 23 26  2  0  0  0  0
 24 26  1  0  0  0  0
 24 22  1  0  0  0  0
 26 25  1  0  0  0  0
 27 29  1  0  0  0  0
 27 24  1  0  0  0  0
 28 29  1  0  0  0  0
 30 28  1  0  0  0  0
 31 29  1  0  0  0  0
 32 30  1  0  0  0  0
 32 31  1  0  0  0  0
 33 34  1  0  0  0  0
 33  8  1  0  0  0  0
 34 35  3  0  0  0  0
 35 36  1  0  0  0  0
 36 37  1  0  0  0  0
 37 39  2  0  0  0  0
 37 38  1  0  0  0  0
 40 10  1  0  0  0  0
 42 40  1  0  0  0  0
 42 41  1  0  0  0  0
 43 42  1  0  0  0  0
 44 45  1  0  0  0  0
 45 53  1  0  0  0  0
 46 52  1  0  0  0  0
 46 47  1  0  0  0  0
 48 50  1  0  0  0  0
 49 55  1  0  0  0  0
 49 52  1  0  0  0  0
 50 49  1  0  0  0  0
 51 46  1  0  0  0  0
 53 50  2  0  0  0  0
 53 51  1  0  0  0  0
 55 54  2  0  0  0  0
 56 57  1  0  0  0  0
 56 55  1  0  0  0  0
 58 57  1  0  0  0  0
 60 59  2  0  0  0  0
 60 58  1  0  0  0  0
 61 60  1  0  0  0  0
 62 64  1  0  0  0  0
 64 61  1  0  0  0  0
 64 63  1  0  0  0  0
 65 62  1  0  0  0  0
 65 64  1  0  0  0  0
M  END
>  <MODEL>
5

>  <REMARK>
 VINA RESULT:      -5.3      2.341      3.798
  Name = 
  23 active torsions:
  status: ('A' for Active; 'I' for Inactive)
    1  A    between atoms: C_1  and  C_41
    2  A    between atoms: C_1  and  C_47
    3  A    between atoms: C_2  and  C_33
    4  A    between atoms: C_4  and  O_39
    5  A    between atoms: C_6  and  C_16
    6  A    between atoms: C_12  and  C_41
    7  A    between atoms: C_12  and  C_59
    8  A    between atoms: O_15  and  C_23
    9  A    between atoms: O_15  and  C_64
   10  A    between atoms: C_16  and  O_18
   11  A    between atoms: C_17  and  C_31
   12  A    between atoms: C_17  and  C_42
   13  A    between atoms: O_18  and  C_55
   14  A    between atoms: C_22  and  C_61
   15  A    between atoms: C_23  and  C_38
   16  A    between atoms: N_27  and  C_47
   17  A    between atoms: N_27  and  C_56
   18  A    between atoms: C_28  and  O_39
   19  A    between atoms: C_29  and  C_56
   20  A    between atoms: C_33  and  C_52
   21  A    between atoms: C_38  and  C_61
   22  A    between atoms: C_45  and  C_63
   23  A    between atoms: C_63  and  C_64
                            x       y       z     vdW  Elec       q    Type
                         _______ _______ _______ _____ _____    ______ ____

>  <TORSDO>
F 23

$$$$
=
 OpenBabel11062417073D

 65 70  0  0  1  0  0  0  0  0999 V2000
  183.7210  177.5470  139.8940 C   0  0  0  0  0  2  0  0  0  0  0  0
  186.1420  179.1280  141.2830 C   0  0  2  0  0  3  0  0  0  0  0  0
  182.6060  176.5420  140.0610 C   0  0  0  0  0  2  0  0  0  0  0  0
  180.4860  178.1010  139.7130 C   0  0  2  0  0  3  0  0  0  0  0  0
  183.6330  178.1520  142.3610 C   0  0  0  0  0  2  0  0  0  0  0  0
  181.1140  178.9560  140.8580 C   0  0  2  0  0  0  0  0  0  0  0  0
  182.4230  179.5300  140.6380 O   0  0  0  0  0  0  0  0  0  0  0  0
  181.2990  176.8680  139.3230 C   0  0  1  0  0  0  0  0  0  0  0  0
  182.2050  178.9000  138.1640 F   0  0  0  0  0  0  0  0  0  0  0  0
  184.9510  178.4720  143.0800 C   0  0  2  0  0  3  0  0  0  0  0  0
  183.5730  178.7070  140.9010 C   0  0  2  0  0  0  0  0  0  0  0  0
  181.0330  178.2030  142.0540 O   0  0  0  0  0  1  0  0  0  0  0  0
  185.9870  178.0930  142.2280 O   0  0  0  0  0  0  0  0  0  0  0  0
  181.1350  178.0730  138.3420 C   0  0  2  0  0  0  0  0  0  0  0  0
  180.1540  180.1290  140.9950 C   0  0  0  0  0  1  0  0  0  0  0  0
  184.8140  179.6030  140.6420 C   0  0  0  0  0  2  0  0  0  0  0  0
  180.2690  177.7960  137.1230 C   0  0  0  0  0  0  0  0  0  0  0  0
  178.9340  177.9160  137.2850 C   0  0  0  0  0  2  0  0  0  0  0  0
  180.8140  177.2750  135.8110 C   0  0  1  0  0  3  0  0  0  0  0  0
  180.2320  178.0550  134.6150 C   0  0  0  0  0  1  0  0  0  0  0  0
  182.3390  177.3970  135.7640 C   0  0  0  0  0  2  0  0  0  0  0  0
  183.1150  176.2230  136.3880 C   0  0  0  0  0  2  0  0  0  0  0  0
  186.6750  176.9920  135.2970 O   0  0  0  0  0  0  0  0  0  0  0  0
  184.4360  176.1290  135.7670 N   0  0  0  0  0  0  0  0  0  0  0  0
  185.3720  177.9720  136.9110 O   0  0  0  0  0  1  0  0  0  0  0  0
  185.5360  177.0240  136.0820 C   0  0  0  0  0  0  0  0  0  0  0  0
  184.8250  174.9910  134.9210 C   0  0  0  0  0  2  0  0  0  0  0  0
  185.5230  173.7930  137.1260 C   0  0  0  0  0  2  0  0  0  0  0  0
  185.1010  173.6750  135.6590 C   0  0  0  0  0  3  0  0  0  0  0  0
  186.4940  172.6420  137.3390 C   0  0  0  0  0  2  0  0  0  0  0  0
  186.1130  172.7500  134.9430 C   0  0  0  0  0  2  0  0  0  0  0  0
  187.1480  172.3680  135.9770 C   0  0  0  0  0  2  0  0  0  0  0  0
  180.4420  175.7630  139.0670 O   0  0  0  0  0  0  0  0  0  0  0  0
  180.8980  174.6310  138.4460 C   0  0  0  0  0  0  0  0  0  0  0  0
  181.2130  173.6390  137.8260 C   0  0  0  0  0  0  0  0  0  0  0  0
  181.5180  172.4850  137.0060 C   0  0  0  0  0  2  0  0  0  0  0  0
  180.3580  172.0860  136.1840 C   0  0  0  0  0  0  0  0  0  0  0  0
  179.4340  171.1380  136.6650 O   0  0  0  0  0  1  0  0  0  0  0  0
  180.1870  172.6380  135.0710 O   0  0  0  0  0  0  0  0  0  0  0  0
  185.0310  177.7670  144.4500 C   0  0  0  0  0  2  0  0  0  0  0  0
  184.7100  179.5090  146.0690 O   0  0  0  0  0  1  0  0  0  0  0  0
  185.6690  178.6970  145.4840 C   0  0  1  0  0  3  0  0  0  0  0  0
  186.3500  177.8980  146.5050 N   0  0  0  0  0  1  0  0  0  0  0  0
  187.1250  178.6460  140.2210 C   0  0  0  0  0  2  0  0  0  0  0  0
  187.8570  177.5180  140.6920 O   0  0  0  0  0  0  0  0  0  0  0  0
  191.4810  176.9580  141.1380 C   0  0  1  0  0  3  0  0  0  0  0  0
  192.4290  177.5630  142.1340 C   0  0  0  0  0  1  0  0  0  0  0  0
  188.6320  176.1810  138.1520 C   0  0  0  0  0  1  0  0  0  0  0  0
  191.0890  176.3750  139.0020 C   0  0  2  0  0  3  0  0  0  0  0  0
  189.5900  176.7380  139.1530 C   0  0  0  0  0  0  0  0  0  0  0  0
  190.1780  177.5010  141.3140 O   0  0  0  0  0  0  0  0  0  0  0  0
  191.9270  177.1750  139.8290 O   0  0  0  0  0  0  0  0  0  0  0  0
  189.1930  177.2350  140.3440 C   0  0  0  0  0  0  0  0  0  0  0  0
  190.8260  177.2760  136.8180 O   0  0  0  0  0  0  0  0  0  0  0  0
  191.4910  176.5770  137.5580 C   0  0  0  0  0  0  0  0  0  0  0  0
  192.5260  175.6320  136.9680 C   0  0  0  0  0  2  0  0  0  0  0  0
  192.5330  174.3230  137.7340 C   0  0  0  0  0  2  0  0  0  0  0  0
  193.8700  173.8200  137.8710 O   0  0  0  0  0  0  0  0  0  0  0  0
  195.1580  175.3360  139.0100 O   0  0  0  0  0  0  0  0  0  0  0  0
  195.0060  174.6260  137.9770 C   0  0  0  0  0  0  0  0  0  0  0  0
  196.0220  174.7060  136.8810 C   0  0  0  0  0  2  0  0  0  0  0  0
  197.0760  172.7120  137.8510 O   0  0  0  0  0  0  0  0  0  0  0  0
  198.2440  174.6820  138.0330 F   0  0  0  0  0  0  0  0  0  0  0  0
  197.2980  173.9840  137.2860 C   0  0  2  0  0  0  0  0  0  0  0  0
  197.7200  172.7350  136.6010 C   0  0  0  0  0  2  0  0  0  0  0  0
  1  3  1  0  0  0  0
  1 11  1  0  0  0  0
  2 44  1  6  0  0  0
  2 13  1  0  0  0  0
  4  6  1  0  0  0  0
  5 10  1  0  0  0  0
  6 15  1  0  0  0  0
  6 12  1  0  0  0  0
  7  6  1  0  0  0  0
  7 11  1  0  0  0  0
  8  4  1  0  0  0  0
  8  3  1  0  0  0  0
  9 14  1  0  0  0  0
 10 40  1  0  0  0  0
 11  5  1  0  0  0  0
 13 10  1  0  0  0  0
 14  8  1  0  0  0  0
 14  4  1  0  0  0  0
 16 11  1  0  0  0  0
 16  2  1  0  0  0  0
 17 18  2  0  0  0  0
 17 14  1  0  0  0  0
 19 17  1  0  0  0  0
 20 19  1  0  0  0  0
 21 19  1  0  0  0  0
 21 22  1  0  0  0  0
 23 26  2  0  0  0  0
 24 26  1  0  0  0  0
 24 22  1  0  0  0  0
 26 25  1  0  0  0  0
 27 29  1  0  0  0  0
 27 24  1  0  0  0  0
 28 30  1  0  0  0  0
 29 28  1  0  0  0  0
 31 29  1  0  0  0  0
 31 32  1  0  0  0  0
 32 30  1  0  0  0  0
 33  8  1  0  0  0  0
 34 33  1  0  0  0  0
 35 34  3  0  0  0  0
 36 35  1  0  0  0  0
 37 38  1  0  0  0  0
 37 36  1  0  0  0  0
 39 37  2  0  0  0  0
 40 42  1  0  0  0  0
 42 41  1  0  0  0  0
 42 43  1  0  0  0  0
 44 45  1  0  0  0  0
 46 51  1  0  0  0  0
 46 47  1  0  0  0  0
 48 50  1  0  0  0  0
 49 50  1  0  0  0  0
 49 52  1  0  0  0  0
 50 53  2  0  0  0  0
 52 46  1  0  0  0  0
 53 45  1  0  0  0  0
 53 51  1  0  0  0  0
 54 55  2  0  0  0  0
 55 49  1  0  0  0  0
 56 55  1  0  0  0  0
 56 57  1  0  0  0  0
 57 58  1  0  0  0  0
 58 60  1  0  0  0  0
 60 59  2  0  0  0  0
 61 64  1  0  0  0  0
 61 60  1  0  0  0  0
 64 62  1  0  0  0  0
 64 63  1  0  0  0  0
 65 64  1  0  0  0  0
 65 62  1  0  0  0  0
M  END
>  <MODEL>
6

>  <REMARK>
 VINA RESULT:      -5.1      3.410      7.441
  Name = 
  23 active torsions:
  status: ('A' for Active; 'I' for Inactive)
    1  A    between atoms: C_1  and  C_41
    2  A    between atoms: C_1  and  C_47
    3  A    between atoms: C_2  and  C_33
    4  A    between atoms: C_4  and  O_39
    5  A    between atoms: C_6  and  C_16
    6  A    between atoms: C_12  and  C_41
    7  A    between atoms: C_12  and  C_59
    8  A    between atoms: O_15  and  C_23
    9  A    between atoms: O_15  and  C_64
   10  A    between atoms: C_16  and  O_18
   11  A    between atoms: C_17  and  C_31
   12  A    between atoms: C_17  and  C_42
   13  A    between atoms: O_18  and  C_55
   14  A    between atoms: C_22  and  C_61
   15  A    between atoms: C_23  and  C_38
   16  A    between atoms: N_27  and  C_47
   17  A    between atoms: N_27  and  C_56
   18  A    between atoms: C_28  and  O_39
   19  A    between atoms: C_29  and  C_56
   20  A    between atoms: C_33  and  C_52
   21  A    between atoms: C_38  and  C_61
   22  A    between atoms: C_45  and  C_63
   23  A    between atoms: C_63  and  C_64
                            x       y       z     vdW  Elec       q    Type
                         _______ _______ _______ _____ _____    ______ ____

>  <TORSDO>
F 23

$$$$
=
 OpenBabel11062417073D

 65 70  0  0  1  0  0  0  0  0999 V2000
  185.7980  176.4580  138.1820 C   0  0  0  0  0  2  0  0  0  0  0  0
  183.8650  178.5190  139.6980 C   0  0  2  0  0  3  0  0  0  0  0  0
  185.9360  175.4210  137.0920 C   0  0  0  0  0  2  0  0  0  0  0  0
  187.5940  176.6670  135.4360 C   0  0  2  0  0  3  0  0  0  0  0  0
  183.8830  177.5910  136.9520 C   0  0  0  0  0  2  0  0  0  0  0  0
  186.5310  177.8100  135.4700 C   0  0  2  0  0  0  0  0  0  0  0  0
  186.2450  178.4340  136.7430 O   0  0  0  0  0  0  0  0  0  0  0  0
  187.2520  175.4560  136.3020 C   0  0  1  0  0  0  0  0  0  0  0  0
  188.3020  177.2490  137.7070 F   0  0  0  0  0  0  0  0  0  0  0  0
  182.7330  178.1800  137.7800 C   0  0  2  0  0  3  0  0  0  0  0  0
  185.2880  177.7970  137.6070 C   0  0  2  0  0  0  0  0  0  0  0  0
  185.3710  177.3390  134.8110 O   0  0  0  0  0  1  0  0  0  0  0  0
  182.8840  177.7130  139.0850 O   0  0  0  0  0  0  0  0  0  0  0  0
  188.4520  176.3900  136.6570 C   0  0  2  0  0  0  0  0  0  0  0  0
  187.1430  178.8930  134.5950 C   0  0  0  0  0  1  0  0  0  0  0  0
  185.1440  178.7190  138.8480 C   0  0  0  0  0  2  0  0  0  0  0  0
  189.8280  175.7710  136.4640 C   0  0  0  0  0  0  0  0  0  0  0  0
  190.5190  176.1520  135.3690 C   0  0  0  0  0  2  0  0  0  0  0  0
  190.3830  174.6770  137.3500 C   0  0  1  0  0  3  0  0  0  0  0  0
  190.4340  173.3280  136.6050 C   0  0  0  0  0  1  0  0  0  0  0  0
  191.7990  175.0170  137.8200 C   0  0  0  0  0  2  0  0  0  0  0  0
  192.9360  174.3310  137.0430 C   0  0  0  0  0  2  0  0  0  0  0  0
  195.7930  175.1900  139.4000 O   0  0  0  0  0  1  0  0  0  0  0  0
  194.1190  174.2310  137.8980 N   0  0  0  0  0  0  0  0  0  0  0  0
  193.9210  176.3900  138.8370 O   0  0  0  0  0  0  0  0  0  0  0  0
  194.5550  175.2900  138.7910 C   0  0  0  0  0  0  0  0  0  0  0  0
  194.8510  172.9690  138.0780 C   0  0  0  0  0  2  0  0  0  0  0  0
  196.1320  171.0980  136.7970 C   0  0  0  0  0  2  0  0  0  0  0  0
  195.8150  172.5890  136.9480 C   0  0  0  0  0  3  0  0  0  0  0  0
  197.5780  171.0600  136.3270 C   0  0  0  0  0  2  0  0  0  0  0  0
  197.1530  173.3630  136.9700 C   0  0  0  0  0  2  0  0  0  0  0  0
  198.2490  172.3240  136.8830 C   0  0  0  0  0  2  0  0  0  0  0  0
  187.6050  174.2500  135.6370 O   0  0  0  0  0  0  0  0  0  0  0  0
  186.6610  173.3180  135.2930 C   0  0  0  0  0  0  0  0  0  0  0  0
  185.8540  172.4390  135.0850 C   0  0  0  0  0  0  0  0  0  0  0  0
  184.9040  171.3560  134.9410 C   0  0  0  0  0  2  0  0  0  0  0  0
  184.1020  171.1760  136.1670 C   0  0  0  0  0  0  0  0  0  0  0  0
  183.9160  172.2480  137.0620 O   0  0  0  0  0  1  0  0  0  0  0  0
  183.5530  170.0680  136.3750 O   0  0  0  0  0  0  0  0  0  0  0  0
  181.3610  177.8100  137.1810 C   0  0  0  0  0  2  0  0  0  0  0  0
  179.5580  179.0300  138.1900 O   0  0  0  0  0  1  0  0  0  0  0  0
  180.4560  179.0430  137.1350 C   0  0  1  0  0  3  0  0  0  0  0  0
  181.2780  180.2540  137.1810 N   0  0  0  0  0  1  0  0  0  0  0  0
  184.1950  177.9010  141.0530 C   0  0  0  0  0  2  0  0  0  0  0  0
  185.3430  178.5250  141.6220 O   0  0  0  0  0  0  0  0  0  0  0  0
  185.0420  178.1260  145.2810 C   0  0  1  0  0  3  0  0  0  0  0  0
  183.9870  178.6420  146.2180 C   0  0  0  0  0  1  0  0  0  0  0  0
  188.0580  177.6030  142.4070 C   0  0  0  0  0  1  0  0  0  0  0  0
  187.2310  177.8240  144.8690 C   0  0  2  0  0  3  0  0  0  0  0  0
  187.0050  178.0710  143.3570 C   0  0  0  0  0  0  0  0  0  0  0  0
  184.7690  178.5610  143.9540 O   0  0  0  0  0  0  0  0  0  0  0  0
  186.3150  178.5490  145.6810 O   0  0  0  0  0  0  0  0  0  0  0  0
  185.7500  178.3730  142.9620 C   0  0  0  0  0  0  0  0  0  0  0  0
  189.4810  178.3970  144.3580 O   0  0  0  0  0  0  0  0  0  0  0  0
  188.6390  178.2480  145.2230 C   0  0  0  0  0  0  0  0  0  0  0  0
  189.0690  178.1480  146.6780 C   0  0  0  0  0  2  0  0  0  0  0  0
  189.1680  176.6920  147.0930 C   0  0  0  0  0  2  0  0  0  0  0  0
  190.3550  176.4630  147.8670 O   0  0  0  0  0  0  0  0  0  0  0  0
  192.6310  176.7300  147.8200 O   0  0  0  0  0  0  0  0  0  0  0  0
  191.6090  176.1840  147.3180 C   0  0  0  0  0  0  0  0  0  0  0  0
  191.7690  175.2940  146.1260 C   0  0  0  0  0  2  0  0  0  0  0  0
  192.2770  175.4690  143.7310 O   0  0  0  0  0  0  0  0  0  0  0  0
  192.0780  177.4450  144.8840 F   0  0  0  0  0  0  0  0  0  0  0  0
  191.6930  176.1070  144.8430 C   0  0  2  0  0  0  0  0  0  0  0  0
  190.8820  175.6400  143.6890 C   0  0  0  0  0  2  0  0  0  0  0  0
  2 44  1  1  0  0  0
  3  1  1  0  0  0  0
  4  6  1  0  0  0  0
  4  8  1  0  0  0  0
  4 14  1  0  0  0  0
  5 11  1  0  0  0  0
  5 10  1  0  0  0  0
  6  7  1  0  0  0  0
  7 11  1  0  0  0  0
  8 14  1  0  0  0  0
  8  3  1  0  0  0  0
 10 13  1  0  0  0  0
 11  1  1  0  0  0  0
 11 16  1  0  0  0  0
 12  6  1  0  0  0  0
 13  2  1  0  0  0  0
 14  9  1  0  0  0  0
 15  6  1  0  0  0  0
 16  2  1  0  0  0  0
 17 14  1  0  0  0  0
 17 19  1  0  0  0  0
 18 17  2  0  0  0  0
 19 21  1  0  0  0  0
 20 19  1  0  0  0  0
 22 21  1  0  0  0  0
 22 24  1  0  0  0  0
 24 27  1  0  0  0  0
 24 26  1  0  0  0  0
 26 25  2  0  0  0  0
 26 23  1  0  0  0  0
 28 29  1  0  0  0  0
 29 31  1  0  0  0  0
 29 27  1  0  0  0  0
 30 28  1  0  0  0  0
 30 32  1  0  0  0  0
 32 31  1  0  0  0  0
 33  8  1  0  0  0  0
 34 33  1  0  0  0  0
 35 34  3  0  0  0  0
 36 35  1  0  0  0  0
 36 37  1  0  0  0  0
 37 39  2  0  0  0  0
 37 38  1  0  0  0  0
 40 10  1  0  0  0  0
 42 40  1  0  0  0  0
 42 43  1  0  0  0  0
 42 41  1  0  0  0  0
 44 45  1  0  0  0  0
 45 53  1  0  0  0  0
 46 52  1  0  0  0  0
 46 47  1  0  0  0  0
 48 50  1  0  0  0  0
 49 55  1  0  0  0  0
 49 52  1  0  0  0  0
 50 49  1  0  0  0  0
 51 46  1  0  0  0  0
 53 50  2  0  0  0  0
 53 51  1  0  0  0  0
 54 55  2  0  0  0  0
 55 56  1  0  0  0  0
 56 57  1  0  0  0  0
 57 58  1  0  0  0  0
 60 59  2  0  0  0  0
 60 58  1  0  0  0  0
 61 60  1  0  0  0  0
 62 64  1  0  0  0  0
 64 63  1  0  0  0  0
 64 61  1  0  0  0  0
 65 62  1  0  0  0  0
 65 64  1  0  0  0  0
M  END
>  <MODEL>
7

>  <REMARK>
 VINA RESULT:      -4.9      2.602      3.878
  Name = 
  23 active torsions:
  status: ('A' for Active; 'I' for Inactive)
    1  A    between atoms: C_1  and  C_41
    2  A    between atoms: C_1  and  C_47
    3  A    between atoms: C_2  and  C_33
    4  A    between atoms: C_4  and  O_39
    5  A    between atoms: C_6  and  C_16
    6  A    between atoms: C_12  and  C_41
    7  A    between atoms: C_12  and  C_59
    8  A    between atoms: O_15  and  C_23
    9  A    between atoms: O_15  and  C_64
   10  A    between atoms: C_16  and  O_18
   11  A    between atoms: C_17  and  C_31
   12  A    between atoms: C_17  and  C_42
   13  A    between atoms: O_18  and  C_55
   14  A    between atoms: C_22  and  C_61
   15  A    between atoms: C_23  and  C_38
   16  A    between atoms: N_27  and  C_47
   17  A    between atoms: N_27  and  C_56
   18  A    between atoms: C_28  and  O_39
   19  A    between atoms: C_29  and  C_56
   20  A    between atoms: C_33  and  C_52
   21  A    between atoms: C_38  and  C_61
   22  A    between atoms: C_45  and  C_63
   23  A    between atoms: C_63  and  C_64
                            x       y       z     vdW  Elec       q    Type
                         _______ _______ _______ _____ _____    ______ ____

>  <TORSDO>
F 23

$$$$
=
 OpenBabel11062417073D

 65 70  0  0  1  0  0  0  0  0999 V2000
  185.5000  176.5510  138.2850 C   0  0  0  0  0  2  0  0  0  0  0  0
  183.7430  178.6720  139.9280 C   0  0  2  0  0  3  0  0  0  0  0  0
  185.5270  175.5070  137.1940 C   0  0  0  0  0  2  0  0  0  0  0  0
  187.0930  176.6990  135.4130 C   0  0  2  0  0  3  0  0  0  0  0  0
  183.5320  177.7340  137.1930 C   0  0  0  0  0  2  0  0  0  0  0  0
  186.0680  177.8710  135.5190 C   0  0  2  0  0  0  0  0  0  0  0  0
  185.8950  178.5080  136.8060 O   0  0  0  0  0  0  0  0  0  0  0  0
  186.7810  175.5010  136.3080 C   0  0  1  0  0  0  0  0  0  0  0  0
  187.9830  177.2680  137.6220 F   0  0  0  0  0  0  0  0  0  0  0  0
  182.4630  178.3590  138.1000 C   0  0  2  0  0  3  0  0  0  0  0  0
  184.9860  177.9020  137.7420 C   0  0  2  0  0  0  0  0  0  0  0  0
  184.8490  177.4320  134.9500 O   0  0  0  0  0  1  0  0  0  0  0  0
  182.6970  177.8930  139.3930 O   0  0  0  0  0  0  0  0  0  0  0  0
  188.0300  176.4020  136.5680 C   0  0  2  0  0  0  0  0  0  0  0  0
  186.6440  178.9340  134.5950 C   0  0  0  0  0  1  0  0  0  0  0  0
  184.9610  178.8320  138.9840 C   0  0  0  0  0  2  0  0  0  0  0  0
  189.3700  175.7430  136.2790 C   0  0  0  0  0  0  0  0  0  0  0  0
  189.8910  175.9390  135.0500 C   0  0  0  0  0  2  0  0  0  0  0  0
  190.0580  174.7930  137.2350 C   0  0  1  0  0  3  0  0  0  0  0  0
  190.1250  173.3660  136.6530 C   0  0  0  0  0  1  0  0  0  0  0  0
  191.4870  175.2540  137.5340 C   0  0  0  0  0  2  0  0  0  0  0  0
  191.6490  176.1220  138.7940 C   0  0  0  0  0  2  0  0  0  0  0  0
  194.8980  177.5320  140.1770 O   0  0  0  0  0  0  0  0  0  0  0  0
  193.0660  176.4260  138.9950 N   0  0  0  0  0  0  0  0  0  0  0  0
  192.7910  177.4960  141.0830 O   0  0  0  0  0  1  0  0  0  0  0  0
  193.5830  177.1020  140.1710 C   0  0  0  0  0  0  0  0  0  0  0  0
  194.1150  175.8900  138.1150 C   0  0  0  0  0  2  0  0  0  0  0  0
  196.0950  174.3670  138.8510 C   0  0  0  0  0  2  0  0  0  0  0  0
  194.6200  174.4830  138.4580 C   0  0  0  0  0  3  0  0  0  0  0  0
  196.5300  173.0130  138.3130 C   0  0  0  0  0  2  0  0  0  0  0  0
  194.3310  173.4240  137.3690 C   0  0  0  0  0  2  0  0  0  0  0  0
  195.6440  172.7260  137.0920 C   0  0  0  0  0  2  0  0  0  0  0  0
  187.0500  174.2830  135.6260 O   0  0  0  0  0  0  0  0  0  0  0  0
  186.1270  173.2710  135.5750 C   0  0  0  0  0  0  0  0  0  0  0  0
  185.2520  172.4420  135.4580 C   0  0  0  0  0  0  0  0  0  0  0  0
  184.1700  171.5070  135.2300 C   0  0  0  0  0  2  0  0  0  0  0  0
  183.1530  171.5910  136.2970 C   0  0  0  0  0  0  0  0  0  0  0  0
  181.8100  171.8760  135.9820 O   0  0  0  0  0  0  0  0  0  0  0  0
  183.4970  171.3600  137.4810 O   0  0  0  0  0  1  0  0  0  0  0  0
  181.0400  178.0270  137.6060 C   0  0  0  0  0  2  0  0  0  0  0  0
  181.0960  180.0770  136.3610 O   0  0  0  0  0  1  0  0  0  0  0  0
  180.7650  178.7340  136.2780 C   0  0  1  0  0  3  0  0  0  0  0  0
  181.5320  178.0860  135.2120 N   0  0  0  0  0  1  0  0  0  0  0  0
  184.1550  178.0500  141.2580 C   0  0  0  0  0  2  0  0  0  0  0  0
  185.2570  178.7550  141.8220 O   0  0  0  0  0  0  0  0  0  0  0  0
  186.6950  177.2130  144.8550 C   0  0  1  0  0  3  0  0  0  0  0  0
  186.3350  177.4220  146.2980 C   0  0  0  0  0  1  0  0  0  0  0  0
  187.7990  177.5840  140.8200 C   0  0  0  0  0  1  0  0  0  0  0  0
  188.3190  177.0210  143.3120 C   0  0  2  0  0  3  0  0  0  0  0  0
  187.4390  177.7420  142.2610 C   0  0  0  0  0  0  0  0  0  0  0  0
  185.8980  178.0540  144.0290 O   0  0  0  0  0  0  0  0  0  0  0  0
  188.0550  177.4640  144.6380 O   0  0  0  0  0  0  0  0  0  0  0  0
  186.2260  178.1760  142.6650 C   0  0  0  0  0  0  0  0  0  0  0  0
  190.2850  176.8100  141.9930 O   0  0  0  0  0  0  0  0  0  0  0  0
  189.7720  177.2850  142.9890 C   0  0  0  0  0  0  0  0  0  0  0  0
  190.6550  177.8550  144.0880 C   0  0  0  0  0  2  0  0  0  0  0  0
  191.4910  176.7520  144.7090 C   0  0  0  0  0  2  0  0  0  0  0  0
  191.9800  177.1480  145.9990 O   0  0  0  0  0  0  0  0  0  0  0  0
  192.1550  176.4300  148.1690 O   0  0  0  0  0  0  0  0  0  0  0  0
  191.4020  176.7610  147.2110 C   0  0  0  0  0  0  0  0  0  0  0  0
  189.9180  176.6840  147.3890 C   0  0  0  0  0  2  0  0  0  0  0  0
  188.3150  177.8070  148.8700 O   0  0  0  0  0  0  0  0  0  0  0  0
  189.1110  179.0360  147.1000 F   0  0  0  0  0  0  0  0  0  0  0  0
  189.3850  177.9840  147.9720 C   0  0  2  0  0  0  0  0  0  0  0  0
  189.5170  178.2830  149.4210 C   0  0  0  0  0  2  0  0  0  0  0  0
  2 44  1  1  0  0  0
  3  1  1  0  0  0  0
  4  6  1  0  0  0  0
  4  8  1  0  0  0  0
  4 14  1  0  0  0  0
  5 11  1  0  0  0  0
  5 10  1  0  0  0  0
  6  7  1  0  0  0  0
  7 11  1  0  0  0  0
  8 14  1  0  0  0  0
  8  3  1  0  0  0  0
 10 13  1  0  0  0  0
 11  1  1  0  0  0  0
 11 16  1  0  0  0  0
 12  6  1  0  0  0  0
 13  2  1  0  0  0  0
 14  9  1  0  0  0  0
 15  6  1  0  0  0  0
 16  2  1  0  0  0  0
 17 14  1  0  0  0  0
 17 19  1  0  0  0  0
 18 17  2  0  0  0  0
 19 21  1  0  0  0  0
 20 19  1  0  0  0  0
 21 22  1  0  0  0  0
 22 24  1  0  0  0  0
 24 26  1  0  0  0  0
 26 23  2  0  0  0  0
 26 25  1  0  0  0  0
 27 29  1  0  0  0  0
 27 24  1  0  0  0  0
 29 28  1  0  0  0  0
 30 28  1  0  0  0  0
 31 29  1  0  0  0  0
 32 31  1  0  0  0  0
 32 30  1  0  0  0  0
 33  8  1  0  0  0  0
 34 33  1  0  0  0  0
 35 34  3  0  0  0  0
 36 35  1  0  0  0  0
 36 37  1  0  0  0  0
 37 39  1  0  0  0  0
 38 37  2  0  0  0  0
 40 10  1  0  0  0  0
 42 41  1  0  0  0  0
 42 40  1  0  0  0  0
 43 42  1  0  0  0  0
 44 45  1  0  0  0  0
 45 53  1  0  0  0  0
 46 47  1  0  0  0  0
 48 50  1  0  0  0  0
 49 52  1  0  0  0  0
 50 53  2  0  0  0  0
 50 49  1  0  0  0  0
 51 46  1  0  0  0  0
 52 46  1  0  0  0  0
 53 51  1  0  0  0  0
 54 55  2  0  0  0  0
 55 49  1  0  0  0  0
 55 56  1  0  0  0  0
 56 57  1  0  0  0  0
 57 58  1  0  0  0  0
 58 60  1  0  0  0  0
 60 61  1  0  0  0  0
 60 59  2  0  0  0  0
 61 64  1  0  0  0  0
 62 65  1  0  0  0  0
 63 64  1  0  0  0  0
 64 62  1  0  0  0  0
 64 65  1  0  0  0  0
M  END
>  <MODEL>
8

>  <REMARK>
 VINA RESULT:      -4.8      2.285      4.041
  Name = 
  23 active torsions:
  status: ('A' for Active; 'I' for Inactive)
    1  A    between atoms: C_1  and  C_41
    2  A    between atoms: C_1  and  C_47
    3  A    between atoms: C_2  and  C_33
    4  A    between atoms: C_4  and  O_39
    5  A    between atoms: C_6  and  C_16
    6  A    between atoms: C_12  and  C_41
    7  A    between atoms: C_12  and  C_59
    8  A    between atoms: O_15  and  C_23
    9  A    between atoms: O_15  and  C_64
   10  A    between atoms: C_16  and  O_18
   11  A    between atoms: C_17  and  C_31
   12  A    between atoms: C_17  and  C_42
   13  A    between atoms: O_18  and  C_55
   14  A    between atoms: C_22  and  C_61
   15  A    between atoms: C_23  and  C_38
   16  A    between atoms: N_27  and  C_47
   17  A    between atoms: N_27  and  C_56
   18  A    between atoms: C_28  and  O_39
   19  A    between atoms: C_29  and  C_56
   20  A    between atoms: C_33  and  C_52
   21  A    between atoms: C_38  and  C_61
   22  A    between atoms: C_45  and  C_63
   23  A    between atoms: C_63  and  C_64
                            x       y       z     vdW  Elec       q    Type
                         _______ _______ _______ _____ _____    ______ ____

>  <TORSDO>
F 23

$$$$
=
 OpenBabel11062417073D

 65 70  0  0  1  0  0  0  0  0999 V2000
  188.2540  177.1720  138.5990 C   0  0  0  0  0  2  0  0  0  0  0  0
  188.0210  177.5370  135.4210 C   0  0  2  0  0  3  0  0  0  0  0  0
  188.4350  176.2130  139.7520 C   0  0  0  0  0  2  0  0  0  0  0  0
  190.8100  176.9760  140.6570 C   0  0  2  0  0  3  0  0  0  0  0  0
  189.4760  175.6020  137.0170 C   0  0  0  0  0  2  0  0  0  0  0  0
  191.2820  176.7280  139.1890 C   0  0  2  0  0  0  0  0  0  0  0  0
  190.6710  177.5110  138.1370 O   0  0  0  0  0  0  0  0  0  0  0  0
  189.3260  176.7100  140.8990 C   0  0  1  0  0  0  0  0  0  0  0  0
  189.6450  179.0080  139.9460 F   0  0  0  0  0  0  0  0  0  0  0  0
  188.9880  175.5070  135.5640 C   0  0  2  0  0  3  0  0  0  0  0  0
  189.4200  177.0530  137.5950 C   0  0  2  0  0  0  0  0  0  0  0  0
  191.2250  175.3350  138.9470 O   0  0  0  0  0  1  0  0  0  0  0  0
  187.7550  176.1540  135.5010 O   0  0  0  0  0  0  0  0  0  0  0  0
  189.9120  178.1560  140.9770 C   0  0  2  0  0  0  0  0  0  0  0  0
  192.7510  177.1240  139.2150 C   0  0  0  0  0  1  0  0  0  0  0  0
  189.0530  178.0440  136.4580 C   0  0  0  0  0  2  0  0  0  0  0  0
  189.9570  178.7580  142.3730 C   0  0  0  0  0  0  0  0  0  0  0  0
  189.0280  179.6930  142.6630 C   0  0  0  0  0  2  0  0  0  0  0  0
  191.0510  178.4620  143.3760 C   0  0  1  0  0  3  0  0  0  0  0  0
  191.6630  179.7620  143.9360 C   0  0  0  0  0  1  0  0  0  0  0  0
  190.5110  177.6430  144.5510 C   0  0  0  0  0  2  0  0  0  0  0  0
  191.3160  176.3800  144.9020 C   0  0  0  0  0  2  0  0  0  0  0  0
  192.4630  175.3090  148.3650 O   0  0  0  0  0  1  0  0  0  0  0  0
  191.6010  176.3670  146.3370 N   0  0  0  0  0  0  0  0  0  0  0  0
  192.9130  174.4030  146.3060 O   0  0  0  0  0  0  0  0  0  0  0  0
  192.4230  175.3600  146.9830 C   0  0  0  0  0  0  0  0  0  0  0  0
  191.2460  177.4910  147.2160 C   0  0  0  0  0  2  0  0  0  0  0  0
  188.8730  176.4410  147.4410 C   0  0  0  0  0  2  0  0  0  0  0  0
  189.9770  177.3060  148.0570 C   0  0  0  0  0  3  0  0  0  0  0  0
  187.5770  177.0690  147.9300 C   0  0  0  0  0  2  0  0  0  0  0  0
  189.3370  178.6300  148.5340 C   0  0  0  0  0  2  0  0  0  0  0  0
  187.8740  178.5590  148.1550 C   0  0  0  0  0  2  0  0  0  0  0  0
  189.1300  176.0720  142.1550 O   0  0  0  0  0  0  0  0  0  0  0  0
  188.0740  176.3950  142.9660 C   0  0  0  0  0  0  0  0  0  0  0  0
  187.2150  176.7330  143.7490 C   0  0  0  0  0  0  0  0  0  0  0  0
  186.2620  177.2070  144.7310 C   0  0  0  0  0  2  0  0  0  0  0  0
  185.4090  178.2800  144.1810 C   0  0  0  0  0  0  0  0  0  0  0  0
  185.0850  179.4060  144.9620 O   0  0  0  0  0  1  0  0  0  0  0  0
  185.0160  178.1910  142.9930 O   0  0  0  0  0  0  0  0  0  0  0  0
  188.9040  174.0410  135.0930 C   0  0  0  0  0  2  0  0  0  0  0  0
  186.6510  173.2420  134.8810 O   0  0  0  0  0  1  0  0  0  0  0  0
  187.7190  173.3400  135.7590 C   0  0  1  0  0  3  0  0  0  0  0  0
  188.1290  172.0090  136.2120 N   0  0  0  0  0  1  0  0  0  0  0  0
  186.6930  178.2750  135.5590 C   0  0  0  0  0  2  0  0  0  0  0  0
  185.6020  177.3970  135.2970 O   0  0  0  0  0  0  0  0  0  0  0  0
  183.8000  174.7250  137.1010 C   0  0  1  0  0  3  0  0  0  0  0  0
  183.1240  173.4950  136.5660 C   0  0  0  0  0  1  0  0  0  0  0  0
  185.1280  178.6140  137.9670 C   0  0  0  0  0  1  0  0  0  0  0  0
  183.7060  176.4920  138.4880 C   0  0  2  0  0  3  0  0  0  0  0  0
  184.4790  177.3640  137.4680 C   0  0  0  0  0  0  0  0  0  0  0  0
  184.3330  175.4930  136.0280 O   0  0  0  0  0  0  0  0  0  0  0  0
  182.9090  175.4960  137.8570 O   0  0  0  0  0  0  0  0  0  0  0  0
  184.8120  176.7900  136.2930 C   0  0  0  0  0  0  0  0  0  0  0  0
  182.9290  177.4580  140.5160 O   0  0  0  0  0  0  0  0  0  0  0  0
  182.8070  177.3890  139.3080 C   0  0  0  0  0  0  0  0  0  0  0  0
  181.5450  177.9270  138.6510 C   0  0  0  0  0  2  0  0  0  0  0  0
  180.7180  178.6960  139.6640 C   0  0  0  0  0  2  0  0  0  0  0  0
  181.0250  180.0980  139.6130 O   0  0  0  0  0  0  0  0  0  0  0  0
  179.6350  181.2160  141.0520 O   0  0  0  0  0  0  0  0  0  0  0  0
  180.1060  181.1140  139.8850 C   0  0  0  0  0  0  0  0  0  0  0  0
  179.6310  182.0540  138.8220 C   0  0  0  0  0  2  0  0  0  0  0  0
  180.7930  181.4510  136.7450 O   0  0  0  0  0  0  0  0  0  0  0  0
  182.0340  182.5570  138.3310 F   0  0  0  0  0  0  0  0  0  0  0  0
  180.7500  182.3450  137.8330 C   0  0  2  0  0  0  0  0  0  0  0  0
  180.4490  182.7810  136.4450 C   0  0  0  0  0  2  0  0  0  0  0  0
  1  3  1  0  0  0  0
  2 13  1  0  0  0  0
  2 44  1  1  0  0  0
  2 16  1  0  0  0  0
  3  8  1  0  0  0  0
  4  8  1  0  0  0  0
  4 14  1  0  0  0  0
  5 11  1  0  0  0  0
  6 15  1  0  0  0  0
  6  4  1  0  0  0  0
  7  6  1  0  0  0  0
  8 14  1  0  0  0  0
  8 33  1  0  0  0  0
  9 14  1  0  0  0  0
 10  5  1  0  0  0  0
 11  7  1  0  0  0  0
 11  1  1  0  0  0  0
 12  6  1  0  0  0  0
 13 10  1  0  0  0  0
 14 17  1  0  0  0  0
 16 11  1  0  0  0  0
 17 18  2  0  0  0  0
 17 19  1  0  0  0  0
 19 20  1  0  0  0  0
 19 21  1  0  0  0  0
 21 22  1  0  0  0  0
 22 24  1  0  0  0  0
 24 26  1  0  0  0  0
 24 27  1  0  0  0  0
 25 26  2  0  0  0  0
 26 23  1  0  0  0  0
 27 29  1  0  0  0  0
 28 30  1  0  0  0  0
 28 29  1  0  0  0  0
 29 31  1  0  0  0  0
 30 32  1  0  0  0  0
 32 31  1  0  0  0  0
 33 34  1  0  0  0  0
 34 35  3  0  0  0  0
 35 36  1  0  0  0  0
 37 36  1  0  0  0  0
 37 38  1  0  0  0  0
 39 37  2  0  0  0  0
 40 10  1  0  0  0  0
 40 42  1  0  0  0  0
 41 42  1  0  0  0  0
 42 43  1  0  0  0  0
 45 44  1  0  0  0  0
 45 53  1  0  0  0  0
 46 52  1  0  0  0  0
 47 46  1  0  0  0  0
 49 55  1  0  0  0  0
 50 48  1  0  0  0  0
 50 49  1  0  0  0  0
 51 53  1  0  0  0  0
 51 46  1  0  0  0  0
 52 49  1  0  0  0  0
 53 50  2  0  0  0  0
 55 54  2  0  0  0  0
 56 55  1  0  0  0  0
 56 57  1  0  0  0  0
 58 57  1  0  0  0  0
 58 60  1  0  0  0  0
 60 59  2  0  0  0  0
 61 60  1  0  0  0  0
 62 64  1  0  0  0  0
 64 63  1  0  0  0  0
 64 61  1  0  0  0  0
 65 62  1  0  0  0  0
 65 64  1  0  0  0  0
M  END
>  <MODEL>
9

>  <REMARK>
 VINA RESULT:      -4.5      2.881      9.775
  Name = 
  23 active torsions:
  status: ('A' for Active; 'I' for Inactive)
    1  A    between atoms: C_1  and  C_41
    2  A    between atoms: C_1  and  C_47
    3  A    between atoms: C_2  and  C_33
    4  A    between atoms: C_4  and  O_39
    5  A    between atoms: C_6  and  C_16
    6  A    between atoms: C_12  and  C_41
    7  A    between atoms: C_12  and  C_59
    8  A    between atoms: O_15  and  C_23
    9  A    between atoms: O_15  and  C_64
   10  A    between atoms: C_16  and  O_18
   11  A    between atoms: C_17  and  C_31
   12  A    between atoms: C_17  and  C_42
   13  A    between atoms: O_18  and  C_55
   14  A    between atoms: C_22  and  C_61
   15  A    between atoms: C_23  and  C_38
   16  A    between atoms: N_27  and  C_47
   17  A    between atoms: N_27  and  C_56
   18  A    between atoms: C_28  and  O_39
   19  A    between atoms: C_29  and  C_56
   20  A    between atoms: C_33  and  C_52
   21  A    between atoms: C_38  and  C_61
   22  A    between atoms: C_45  and  C_63
   23  A    between atoms: C_63  and  C_64
                            x       y       z     vdW  Elec       q    Type
                         _______ _______ _______ _____ _____    ______ ____

>  <TORSDO>
F 23

$$$$
