=
 OpenBabel11062414303D

 50 54  0  0  1  0  0  0  0  0999 V2000
  189.0360  176.6540  136.5080 N   0  0  0  0  0  2  0  0  0  0  0  0
  185.9130  175.3740  134.7310 C   0  0  0  0  0  2  0  0  0  0  0  0
  184.5760  175.4910  136.6310 C   0  0  1  0  0  3  0  0  0  0  0  0
  181.3270  177.3570  140.2890 O   0  0  0  0  0  0  0  0  0  0  0  0
  187.2370  175.1780  135.4820 C   0  0  2  0  0  3  0  0  0  0  0  0
  188.4920  178.3810  140.2700 C   0  0  1  0  0  3  0  0  0  0  0  0
  188.6120  178.6880  137.7470 C   0  0  0  0  0  0  0  0  0  0  0  0
  184.3270  176.5020  137.7370 C   0  0  0  0  0  2  0  0  0  0  0  0
  186.4100  179.4340  140.6950 C   0  0  0  0  0  3  0  0  0  0  0  0
  185.0570  176.1910  135.4940 O   0  0  0  0  0  0  0  0  0  0  0  0
  186.9670  174.7230  136.9260 C   0  0  0  0  0  2  0  0  0  0  0  0
  183.3350  178.8900  142.4330 F   0  0  0  0  0  0  0  0  0  0  0  0
  183.9440  177.0900  140.9860 C   0  0  0  0  0  2  0  0  0  0  0  0
  187.4700  178.9280  137.3880 O   0  0  0  0  0  0  0  0  0  0  0  0
  184.9140  179.4490  140.7230 C   0  0  1  0  0  3  0  0  0  0  0  0
  184.3520  179.3370  139.2940 C   0  0  0  0  0  2  0  0  0  0  0  0
  182.9620  179.1460  139.2950 O   0  0  0  0  0  0  0  0  0  0  0  0
  187.8810  177.3200  134.5980 O   0  0  0  0  0  0  0  0  0  0  0  0
  189.5560  177.9760  136.8290 C   0  0  0  0  0  2  0  0  0  0  0  0
  184.3820  178.3730  141.6920 C   0  0  1  0  0  3  0  0  0  0  0  0
  189.0920  179.1550  139.0890 C   0  0  0  0  0  2  0  0  0  0  0  0
  185.4990  174.3750  137.1660 C   0  0  0  0  0  2  0  0  0  0  0  0
  188.0490  176.4490  135.4950 C   0  0  0  0  0  0  0  0  0  0  0  0
  187.0490  178.4040  140.2720 N   0  0  0  0  0  0  0  0  0  0  0  0
  182.8980  176.4290  138.2600 C   0  0  1  0  0  3  0  0  0  0  0  0
  182.7160  177.5140  139.7110 P   0  0  2  0  0  0  0  0  0  0  0  0
  181.3120  175.9100  136.5620 O   0  0  0  0  0  0  0  0  0  0  0  0
  181.6680  178.1980  136.9140 N   0  0  0  0  0  2  0  0  0  0  0  0
  181.9130  176.8140  137.2010 C   0  0  0  0  0  0  0  0  0  0  0  0
  180.8140  178.6830  135.8320 C   0  0  2  0  0  3  0  0  0  0  0  0
  181.6370  178.9920  134.5950 C   0  0  0  0  0  1  0  0  0  0  0  0
  180.0240  179.9130  136.2640 C   0  0  0  0  0  2  0  0  0  0  0  0
  180.9180  180.9000  137.0060 C   0  0  1  0  0  3  0  0  0  0  0  0
  180.2000  182.6500  137.6630 C   0  0  0  0  0  2  0  0  0  0  0  0
  180.7670  182.1870  136.4640 O   0  0  0  0  0  0  0  0  0  0  0  0
  180.3030  181.3010  138.3180 C   0  0  0  0  0  2  0  0  0  0  0  0
  189.0300  176.9500  140.3740 C   0  0  2  0  0  3  0  0  0  0  0  0
  188.2530  176.0720  139.6170 O   0  0  0  0  0  1  0  0  0  0  0  0
  189.0400  176.4820  141.8230 C   0  0  0  0  0  2  0  0  0  0  0  0
  189.3800  177.6240  142.7780 C   0  0  1  0  0  3  0  0  0  0  0  0
  187.7830  178.1180  146.7700 C   0  0  2  0  0  3  0  0  0  0  0  0
  188.6530  177.4830  144.0810 C   0  0  0  0  0  0  0  0  0  0  0  0
  187.4000  177.9880  148.1640 N   0  0  0  0  0  1  0  0  0  0  0  0
  186.4300  177.5250  145.7050 S   0  0  0  0  0  0  0  0  0  0  0  0
  189.4260  177.0530  145.2640 C   0  0  0  0  0  3  0  0  0  0  0  0
  187.3590  177.8140  144.1900 C   0  0  0  0  0  3  0  0  0  0  0  0
  189.0190  177.3120  146.5100 C   0  0  0  0  0  3  0  0  0  0  0  0
  191.6960  176.6650  142.8900 O   0  0  0  0  0  0  0  0  0  0  0  0
  191.3400  178.9010  143.2440 O   0  0  0  0  0  1  0  0  0  0  0  0
  190.8580  177.7700  142.9760 C   0  0  0  0  0  0  0  0  0  0  0  0
  1 19  1  0  0  0  0
  2 10  1  0  0  0  0
  3 22  1  1  0  0  0
  3  8  1  0  0  0  0
  5  2  1  1  0  0  0
  5 23  1  0  0  0  0
  5 11  1  0  0  0  0
  6 24  1  0  0  0  0
  6 37  1  6  0  0  0
  7 21  1  0  0  0  0
  8 25  1  0  0  0  0
  9 15  1  0  0  0  0
 10  3  1  0  0  0  0
 11 22  1  0  0  0  0
 13 20  1  0  0  0  0
 14  7  2  0  0  0  0
 15 16  1  6  0  0  0
 15 20  1  0  0  0  0
 16 17  1  0  0  0  0
 17 26  1  0  0  0  0
 18 23  2  0  0  0  0
 19  7  1  0  0  0  0
 20 12  1  6  0  0  0
 21  6  1  0  0  0  0
 23  1  1  0  0  0  0
 24  9  2  0  0  0  0
 25 29  1  6  0  0  0
 25 26  1  0  0  0  0
 26  4  2  1  0  0  0
 26 13  1  0  0  0  0
 27 29  2  0  0  0  0
 28 29  1  0  0  0  0
 30 31  1  6  0  0  0
 30 32  1  0  0  0  0
 30 28  1  0  0  0  0
 33 32  1  6  0  0  0
 33 36  1  0  0  0  0
 34 36  1  0  0  0  0
 35 33  1  0  0  0  0
 35 34  1  0  0  0  0
 37 38  1  6  0  0  0
 37 39  1  0  0  0  0
 40 39  1  6  0  0  0
 40 50  1  0  0  0  0
 40 42  1  0  0  0  0
 41 43  1  1  0  0  0
 42 46  2  0  0  0  0
 42 45  1  0  0  0  0
 44 41  1  0  0  0  0
 45 47  2  0  0  0  0
 46 44  1  0  0  0  0
 47 41  1  0  0  0  0
 48 50  2  0  0  0  0
 50 49  1  0  0  0  0
M  END
>  <MODEL>
1

>  <REMARK>
 VINA RESULT:      -5.4      0.000      0.000
  Name = 
  9 active torsions:
  status: ('A' for Active; 'I' for Inactive)
    1  A    between atoms: C_2  and  C_12
    2  A    between atoms: C_4  and  C_12
    3  A    between atoms: C_4  and  N_36
    4  A    between atoms: C_7  and  C_16
    5  A    between atoms: C_7  and  C_33
    6  A    between atoms: C_7  and  C_42
    7  A    between atoms: C_14  and  C_18
    8  A    between atoms: C_18  and  C_33
    9  A    between atoms: C_40  and  C_48
                            x       y       z     vdW  Elec       q    Type
                         _______ _______ _______ _____ _____    ______ ____

>  <TORSDO>
F 9

$$$$
=
 OpenBabel11062414303D

 50 54  0  0  1  0  0  0  0  0999 V2000
  189.2950  176.5660  136.7580 N   0  0  0  0  0  2  0  0  0  0  0  0
  186.4160  175.0070  134.8010 C   0  0  0  0  0  2  0  0  0  0  0  0
  184.9060  175.1650  136.5640 C   0  0  1  0  0  3  0  0  0  0  0  0
  181.2470  177.0680  139.7880 O   0  0  0  0  0  0  0  0  0  0  0  0
  187.6740  174.9320  135.6770 C   0  0  2  0  0  3  0  0  0  0  0  0
  188.3230  178.4880  140.3340 C   0  0  1  0  0  3  0  0  0  0  0  0
  188.6580  178.6450  137.8170 C   0  0  0  0  0  0  0  0  0  0  0  0
  184.5070  176.2270  137.5740 C   0  0  0  0  0  2  0  0  0  0  0  0
  186.1610  179.4470  140.5030 C   0  0  0  0  0  3  0  0  0  0  0  0
  185.4540  175.8200  135.4290 O   0  0  0  0  0  0  0  0  0  0  0  0
  187.2960  174.5510  137.1180 C   0  0  0  0  0  2  0  0  0  0  0  0
  182.9710  178.8400  141.9950 F   0  0  0  0  0  0  0  0  0  0  0  0
  183.7990  176.9920  140.7300 C   0  0  0  0  0  2  0  0  0  0  0  0
  187.5430  178.7990  137.3430 O   0  0  0  0  0  0  0  0  0  0  0  0
  184.6690  179.3800  140.3970 C   0  0  1  0  0  3  0  0  0  0  0  0
  184.2480  179.1500  138.9350 C   0  0  0  0  0  2  0  0  0  0  0  0
  182.8750  178.8810  138.8260 O   0  0  0  0  0  0  0  0  0  0  0  0
  188.2880  177.0480  134.7130 O   0  0  0  0  0  0  0  0  0  0  0  0
  189.7170  177.9320  137.0350 C   0  0  0  0  0  2  0  0  0  0  0  0
  184.1060  178.3380  141.3850 C   0  0  1  0  0  3  0  0  0  0  0  0
  188.9890  179.2200  139.1620 C   0  0  0  0  0  2  0  0  0  0  0  0
  185.8320  174.1380  137.2500 C   0  0  0  0  0  2  0  0  0  0  0  0
  188.4160  176.2440  135.6770 C   0  0  0  0  0  0  0  0  0  0  0  0
  186.8870  178.4300  140.2070 N   0  0  0  0  0  0  0  0  0  0  0  0
  183.0420  176.1070  137.9720 C   0  0  1  0  0  3  0  0  0  0  0  0
  182.6730  177.2670  139.3260 P   0  0  2  0  0  0  0  0  0  0  0  0
  182.4280  177.2940  136.0020 O   0  0  0  0  0  0  0  0  0  0  0  0
  180.9540  175.5830  136.6220 N   0  0  0  0  0  2  0  0  0  0  0  0
  182.1400  176.3700  136.8070 C   0  0  0  0  0  0  0  0  0  0  0  0
  179.9510  175.8240  135.5870 C   0  0  2  0  0  3  0  0  0  0  0  0
  179.1720  177.0930  135.8800 C   0  0  0  0  0  1  0  0  0  0  0  0
  179.0030  174.6380  135.4530 C   0  0  0  0  0  2  0  0  0  0  0  0
  179.6280  173.5340  134.6080 C   0  0  1  0  0  3  0  0  0  0  0  0
  180.3720  171.8810  135.4570 C   0  0  0  0  0  2  0  0  0  0  0  0
  180.8690  173.1580  135.1490 O   0  0  0  0  0  0  0  0  0  0  0  0
  179.0060  172.2010  134.9200 C   0  0  0  0  0  2  0  0  0  0  0  0
  188.9200  177.0980  140.5800 C   0  0  2  0  0  3  0  0  0  0  0  0
  188.4240  176.1750  139.6580 O   0  0  0  0  0  1  0  0  0  0  0  0
  188.6000  176.6150  141.9880 C   0  0  0  0  0  2  0  0  0  0  0  0
  189.4750  177.3090  143.0300 C   0  0  1  0  0  3  0  0  0  0  0  0
  188.0740  178.2480  147.0160 C   0  0  2  0  0  3  0  0  0  0  0  0
  188.8230  177.3100  144.3790 C   0  0  0  0  0  0  0  0  0  0  0  0
  187.7690  178.2800  148.4340 N   0  0  0  0  0  1  0  0  0  0  0  0
  186.6870  177.4940  146.1080 S   0  0  0  0  0  0  0  0  0  0  0  0
  189.6700  177.0490  145.5600 C   0  0  0  0  0  3  0  0  0  0  0  0
  187.5250  177.6190  144.5190 C   0  0  0  0  0  3  0  0  0  0  0  0
  189.3210  177.4480  146.7860 C   0  0  0  0  0  3  0  0  0  0  0  0
  191.9720  177.5510  142.9390 O   0  0  0  0  0  0  0  0  0  0  0  0
  191.0070  175.4920  143.2280 O   0  0  0  0  0  1  0  0  0  0  0  0
  190.8570  176.7320  143.0790 C   0  0  0  0  0  0  0  0  0  0  0  0
  1 19  1  0  0  0  0
  2 10  1  0  0  0  0
  3 22  1  1  0  0  0
  3  8  1  0  0  0  0
  5  2  1  6  0  0  0
  5 11  1  0  0  0  0
  6 37  1  6  0  0  0
  7 21  1  0  0  0  0
  8 25  1  0  0  0  0
 10  3  1  0  0  0  0
 11 22  1  0  0  0  0
 13 20  1  0  0  0  0
 14  7  2  0  0  0  0
 15 16  1  6  0  0  0
 15  9  1  0  0  0  0
 15 20  1  0  0  0  0
 17 16  1  0  0  0  0
 17 26  1  0  0  0  0
 18 23  2  0  0  0  0
 19  7  1  0  0  0  0
 20 12  1  6  0  0  0
 21  6  1  0  0  0  0
 23  5  1  0  0  0  0
 23  1  1  0  0  0  0
 24  6  1  0  0  0  0
 24  9  2  0  0  0  0
 25 29  1  6  0  0  0
 25 26  1  0  0  0  0
 26  4  2  1  0  0  0
 26 13  1  0  0  0  0
 27 29  2  0  0  0  0
 28 29  1  0  0  0  0
 30 31  1  1  0  0  0
 30 28  1  0  0  0  0
 32 30  1  0  0  0  0
 33 36  1  0  0  0  0
 33 35  1  0  0  0  0
 33 32  1  1  0  0  0
 35 34  1  0  0  0  0
 36 34  1  0  0  0  0
 37 38  1  6  0  0  0
 37 39  1  0  0  0  0
 40 39  1  6  0  0  0
 40 50  1  0  0  0  0
 40 42  1  0  0  0  0
 41 43  1  1  0  0  0
 42 46  2  0  0  0  0
 42 45  1  0  0  0  0
 44 41  1  0  0  0  0
 45 47  2  0  0  0  0
 46 44  1  0  0  0  0
 47 41  1  0  0  0  0
 48 50  2  0  0  0  0
 50 49  1  0  0  0  0
M  END
>  <MODEL>
2

>  <REMARK>
 VINA RESULT:      -4.5      1.719      2.977
  Name = 
  9 active torsions:
  status: ('A' for Active; 'I' for Inactive)
    1  A    between atoms: C_2  and  C_12
    2  A    between atoms: C_4  and  C_12
    3  A    between atoms: C_4  and  N_36
    4  A    between atoms: C_7  and  C_16
    5  A    between atoms: C_7  and  C_33
    6  A    between atoms: C_7  and  C_42
    7  A    between atoms: C_14  and  C_18
    8  A    between atoms: C_18  and  C_33
    9  A    between atoms: C_40  and  C_48
                            x       y       z     vdW  Elec       q    Type
                         _______ _______ _______ _____ _____    ______ ____

>  <TORSDO>
F 9

$$$$
=
 OpenBabel11062414303D

 50 54  0  0  1  0  0  0  0  0999 V2000
  189.3540  178.4680  138.3290 N   0  0  0  0  0  2  0  0  0  0  0  0
  185.5620  178.6320  137.9510 C   0  0  0  0  0  2  0  0  0  0  0  0
  185.4580  176.8260  136.4890 C   0  0  1  0  0  3  0  0  0  0  0  0
  185.0920  171.9170  134.7070 O   0  0  0  0  0  0  0  0  0  0  0  0
  186.9930  179.0490  137.5850 C   0  0  2  0  0  3  0  0  0  0  0  0
  191.2410  175.0130  136.9390 C   0  0  1  0  0  3  0  0  0  0  0  0
  190.1220  176.2380  138.8670 C   0  0  0  0  0  0  0  0  0  0  0  0
  186.0600  175.4330  136.4220 C   0  0  0  0  0  2  0  0  0  0  0  0
  189.9900  172.9990  136.9760 C   0  0  0  0  0  3  0  0  0  0  0  0
  185.4400  177.2330  137.8490 O   0  0  0  0  0  0  0  0  0  0  0  0
  187.4000  178.4260  136.2390 C   0  0  0  0  0  2  0  0  0  0  0  0
  188.2120  170.8020  134.7880 F   0  0  0  0  0  0  0  0  0  0  0  0
  187.5460  173.0880  134.5940 C   0  0  0  0  0  2  0  0  0  0  0  0
  189.0520  175.6750  139.0420 O   0  0  0  0  0  0  0  0  0  0  0  0
  188.7720  172.1890  136.6570 C   0  0  1  0  0  3  0  0  0  0  0  0
  187.5520  172.7400  137.4150 C   0  0  0  0  0  2  0  0  0  0  0  0
  186.3590  172.1360  136.9890 O   0  0  0  0  0  0  0  0  0  0  0  0
  187.5810  178.4570  139.8410 O   0  0  0  0  0  0  0  0  0  0  0  0
  190.2610  177.6990  139.1680 C   0  0  0  0  0  2  0  0  0  0  0  0
  188.5740  172.0920  135.1310 C   0  0  1  0  0  3  0  0  0  0  0  0
  191.3160  175.4580  138.4060 C   0  0  0  0  0  2  0  0  0  0  0  0
  186.2280  177.7550  135.5260 C   0  0  0  0  0  2  0  0  0  0  0  0
  187.9710  178.6330  138.6530 C   0  0  0  0  0  0  0  0  0  0  0  0
  190.0560  174.2400  136.6550 N   0  0  0  0  0  0  0  0  0  0  0  0
  185.1300  174.4480  135.7230 C   0  0  1  0  0  3  0  0  0  0  0  0
  185.9800  172.8540  135.4930 P   0  0  2  0  0  0  0  0  0  0  0  0
  183.9060  174.2850  137.7590 O   0  0  0  0  0  0  0  0  0  0  0  0
  182.6280  174.0140  135.8150 N   0  0  0  0  0  2  0  0  0  0  0  0
  183.8660  174.2510  136.5010 C   0  0  0  0  0  0  0  0  0  0  0  0
  181.3610  173.7020  136.4730 C   0  0  2  0  0  3  0  0  0  0  0  0
  180.7940  172.3940  135.9520 C   0  0  0  0  0  1  0  0  0  0  0  0
  180.3520  174.8290  136.2870 C   0  0  0  0  0  2  0  0  0  0  0  0
  180.9100  176.1490  136.8050 C   0  0  1  0  0  3  0  0  0  0  0  0
  179.6920  177.6110  137.4270 C   0  0  0  0  0  2  0  0  0  0  0  0
  180.2440  177.2250  136.1950 O   0  0  0  0  0  0  0  0  0  0  0  0
  180.3470  176.4750  138.1620 C   0  0  0  0  0  2  0  0  0  0  0  0
  191.3980  176.1800  135.9580 C   0  0  2  0  0  3  0  0  0  0  0  0
  190.2530  176.3240  135.1730 O   0  0  0  0  0  1  0  0  0  0  0  0
  192.6000  175.9620  135.0500 C   0  0  0  0  0  2  0  0  0  0  0  0
  193.8840  175.7780  135.8560 C   0  0  1  0  0  3  0  0  0  0  0  0
  194.1770  171.4850  136.3170 C   0  0  2  0  0  3  0  0  0  0  0  0
  194.3180  174.3430  135.8730 C   0  0  0  0  0  0  0  0  0  0  0  0
  194.5340  170.1230  136.6730 N   0  0  0  0  0  1  0  0  0  0  0  0
  194.9380  171.9190  134.7220 S   0  0  0  0  0  0  0  0  0  0  0  0
  194.6880  173.7450  137.1710 C   0  0  0  0  0  3  0  0  0  0  0  0
  194.2940  173.6010  134.7560 C   0  0  0  0  0  3  0  0  0  0  0  0
  194.6580  172.4260  137.3790 C   0  0  0  0  0  3  0  0  0  0  0  0
  196.0120  176.1980  134.5940 O   0  0  0  0  0  0  0  0  0  0  0  0
  194.9730  177.8960  135.7290 O   0  0  0  0  0  1  0  0  0  0  0  0
  194.9790  176.6860  135.3860 C   0  0  0  0  0  0  0  0  0  0  0  0
  1 23  1  0  0  0  0
  1 19  1  0  0  0  0
  3 22  1  6  0  0  0
  3 10  1  0  0  0  0
  5 11  1  6  0  0  0
  5  2  1  0  0  0  0
  5 23  1  0  0  0  0
  6 37  1  6  0  0  0
  6 21  1  0  0  0  0
  7 14  2  0  0  0  0
  7 19  1  0  0  0  0
  8  3  1  0  0  0  0
 10  2  1  0  0  0  0
 13 20  1  0  0  0  0
 13 26  1  0  0  0  0
 15  9  1  6  0  0  0
 15 16  1  0  0  0  0
 17 16  1  0  0  0  0
 20 12  1  1  0  0  0
 20 15  1  0  0  0  0
 21  7  1  0  0  0  0
 22 11  1  0  0  0  0
 23 18  2  0  0  0  0
 24  6  1  0  0  0  0
 24  9  2  0  0  0  0
 25  8  1  0  0  0  0
 25 29  1  1  0  0  0
 26  4  2  6  0  0  0
 26 25  1  0  0  0  0
 26 17  1  0  0  0  0
 28 30  1  0  0  0  0
 28 29  1  0  0  0  0
 29 27  2  0  0  0  0
 30 31  1  6  0  0  0
 32 30  1  0  0  0  0
 33 32  1  6  0  0  0
 33 36  1  0  0  0  0
 34 36  1  0  0  0  0
 35 33  1  0  0  0  0
 35 34  1  0  0  0  0
 37 38  1  6  0  0  0
 39 37  1  0  0  0  0
 40 39  1  6  0  0  0
 40 42  1  0  0  0  0
 41 43  1  1  0  0  0
 41 47  1  0  0  0  0
 42 45  1  0  0  0  0
 44 46  1  0  0  0  0
 44 41  1  0  0  0  0
 45 47  2  0  0  0  0
 46 42  2  0  0  0  0
 48 50  2  0  0  0  0
 50 49  1  0  0  0  0
 50 40  1  0  0  0  0
M  END
>  <MODEL>
3

>  <REMARK>
 VINA RESULT:      -3.9      4.895      7.495
  Name = 
  9 active torsions:
  status: ('A' for Active; 'I' for Inactive)
    1  A    between atoms: C_2  and  C_12
    2  A    between atoms: C_4  and  C_12
    3  A    between atoms: C_4  and  N_36
    4  A    between atoms: C_7  and  C_16
    5  A    between atoms: C_7  and  C_33
    6  A    between atoms: C_7  and  C_42
    7  A    between atoms: C_14  and  C_18
    8  A    between atoms: C_18  and  C_33
    9  A    between atoms: C_40  and  C_48
                            x       y       z     vdW  Elec       q    Type
                         _______ _______ _______ _____ _____    ______ ____

>  <TORSDO>
F 9

$$$$
=
 OpenBabel11062414303D

 50 54  0  0  1  0  0  0  0  0999 V2000
  186.4330  179.0050  138.1030 N   0  0  0  0  0  2  0  0  0  0  0  0
  190.0510  177.8760  137.6710 C   0  0  0  0  0  2  0  0  0  0  0  0
  189.5220  175.6100  137.6540 C   0  0  1  0  0  3  0  0  0  0  0  0
  188.1800  170.8560  135.9220 O   0  0  0  0  0  0  0  0  0  0  0  0
  188.8450  178.3130  138.5140 C   0  0  2  0  0  3  0  0  0  0  0  0
  183.4710  176.1360  137.4490 C   0  0  1  0  0  3  0  0  0  0  0  0
  184.9560  177.9670  136.4920 C   0  0  0  0  0  0  0  0  0  0  0  0
  188.4810  174.7320  136.9810 C   0  0  0  0  0  2  0  0  0  0  0  0
  183.9610  174.3930  135.9170 C   0  0  0  0  0  3  0  0  0  0  0  0
  189.6890  176.7800  136.8660 O   0  0  0  0  0  0  0  0  0  0  0  0
  188.2400  177.1020  139.2440 C   0  0  0  0  0  2  0  0  0  0  0  0
  184.8680  170.9370  135.8510 F   0  0  0  0  0  0  0  0  0  0  0  0
  186.2710  172.2650  137.2560 C   0  0  0  0  0  2  0  0  0  0  0  0
  185.7710  177.3970  135.7840 O   0  0  0  0  0  0  0  0  0  0  0  0
  184.8270  173.2880  135.4000 C   0  0  1  0  0  3  0  0  0  0  0  0
  186.1690  173.8510  134.8990 C   0  0  0  0  0  2  0  0  0  0  0  0
  187.0810  172.8290  134.5950 O   0  0  0  0  0  0  0  0  0  0  0  0
  188.1080  179.5110  136.5640 O   0  0  0  0  0  0  0  0  0  0  0  0
  185.3240  179.2400  137.1890 C   0  0  0  0  0  2  0  0  0  0  0  0
  184.9690  172.1750  136.4590 C   0  0  1  0  0  3  0  0  0  0  0  0
  183.5630  177.4250  136.6230 C   0  0  0  0  0  2  0  0  0  0  0  0
  189.1070  175.8510  139.1220 C   0  0  0  0  0  2  0  0  0  0  0  0
  187.7920  178.9680  137.6590 C   0  0  0  0  0  0  0  0  0  0  0  0
  184.3190  175.0870  136.9360 N   0  0  0  0  0  0  0  0  0  0  0  0
  189.0140  173.3310  136.7080 C   0  0  1  0  0  3  0  0  0  0  0  0
  187.6700  172.2690  136.0910 P   0  0  2  0  0  0  0  0  0  0  0  0
  189.9930  173.9820  134.6380 O   0  0  0  0  0  0  0  0  0  0  0  0
  191.3710  172.6810  136.0140 N   0  0  0  0  0  2  0  0  0  0  0  0
  190.1410  173.3620  135.7240 C   0  0  0  0  0  0  0  0  0  0  0  0
  192.4900  172.5560  135.0830 C   0  0  2  0  0  3  0  0  0  0  0  0
  192.7630  171.0960  134.7660 C   0  0  0  0  0  1  0  0  0  0  0  0
  193.7440  173.2210  135.6370 C   0  0  0  0  0  2  0  0  0  0  0  0
  193.5290  173.6740  137.0770 C   0  0  1  0  0  3  0  0  0  0  0  0
  194.8700  174.8360  138.0040 C   0  0  0  0  0  2  0  0  0  0  0  0
  194.6940  173.4530  137.8290 O   0  0  0  0  0  0  0  0  0  0  0  0
  193.6480  175.1680  137.1940 C   0  0  0  0  0  2  0  0  0  0  0  0
  183.7140  176.3720  138.9440 C   0  0  2  0  0  3  0  0  0  0  0  0
  182.8940  175.5480  139.7150 O   0  0  0  0  0  1  0  0  0  0  0  0
  183.4430  177.8250  139.3100 C   0  0  0  0  0  2  0  0  0  0  0  0
  182.3590  177.9400  140.3800 C   0  0  1  0  0  3  0  0  0  0  0  0
  183.6230  178.5510  144.4730 C   0  0  2  0  0  3  0  0  0  0  0  0
  182.9130  178.4730  141.6660 C   0  0  0  0  0  0  0  0  0  0  0  0
  183.8350  179.0190  145.8310 N   0  0  0  0  0  1  0  0  0  0  0  0
  184.9330  179.2030  143.3900 S   0  0  0  0  0  0  0  0  0  0  0  0
  181.9600  178.9460  142.6900 C   0  0  0  0  0  3  0  0  0  0  0  0
  184.2310  178.4460  141.9150 C   0  0  0  0  0  3  0  0  0  0  0  0
  182.2850  179.0170  143.9840 C   0  0  0  0  0  3  0  0  0  0  0  0
  179.9320  178.1480  139.7770 O   0  0  0  0  0  1  0  0  0  0  0  0
  181.3370  179.9500  139.6030 O   0  0  0  0  0  0  0  0  0  0  0  0
  181.1830  178.7380  139.9060 C   0  0  0  0  0  0  0  0  0  0  0  0
  3  8  1  6  0  0  0
  3 22  1  0  0  0  0
  5  2  1  6  0  0  0
  5 11  1  0  0  0  0
  6 37  1  1  0  0  0
  7 21  1  0  0  0  0
  7 19  1  0  0  0  0
  9 24  2  0  0  0  0
 10  3  1  0  0  0  0
 10  2  1  0  0  0  0
 14  7  2  0  0  0  0
 15 16  1  1  0  0  0
 15  9  1  0  0  0  0
 15 20  1  0  0  0  0
 17 16  1  0  0  0  0
 17 26  1  0  0  0  0
 18 23  2  0  0  0  0
 19  1  1  0  0  0  0
 20 12  1  6  0  0  0
 20 13  1  0  0  0  0
 21  6  1  0  0  0  0
 22 11  1  0  0  0  0
 23  1  1  0  0  0  0
 23  5  1  0  0  0  0
 24  6  1  0  0  0  0
 25 29  1  6  0  0  0
 25  8  1  0  0  0  0
 26  4  2  6  0  0  0
 26 25  1  0  0  0  0
 26 13  1  0  0  0  0
 27 29  2  0  0  0  0
 29 28  1  0  0  0  0
 30 31  1  1  0  0  0
 30 32  1  0  0  0  0
 30 28  1  0  0  0  0
 33 32  1  6  0  0  0
 33 36  1  0  0  0  0
 33 35  1  0  0  0  0
 35 34  1  0  0  0  0
 36 34  1  0  0  0  0
 37 39  1  0  0  0  0
 37 38  1  1  0  0  0
 40 39  1  6  0  0  0
 40 42  1  0  0  0  0
 41 43  1  1  0  0  0
 42 46  2  0  0  0  0
 42 45  1  0  0  0  0
 44 41  1  0  0  0  0
 45 47  2  0  0  0  0
 46 44  1  0  0  0  0
 47 41  1  0  0  0  0
 48 50  1  0  0  0  0
 49 50  2  0  0  0  0
 50 40  1  0  0  0  0
M  END
>  <MODEL>
4

>  <REMARK>
 VINA RESULT:      -3.5      3.799      8.538
  Name = 
  9 active torsions:
  status: ('A' for Active; 'I' for Inactive)
    1  A    between atoms: C_2  and  C_12
    2  A    between atoms: C_4  and  C_12
    3  A    between atoms: C_4  and  N_36
    4  A    between atoms: C_7  and  C_16
    5  A    between atoms: C_7  and  C_33
    6  A    between atoms: C_7  and  C_42
    7  A    between atoms: C_14  and  C_18
    8  A    between atoms: C_18  and  C_33
    9  A    between atoms: C_40  and  C_48
                            x       y       z     vdW  Elec       q    Type
                         _______ _______ _______ _____ _____    ______ ____

>  <TORSDO>
F 9

$$$$
=
 OpenBabel11062414303D

 50 54  0  0  1  0  0  0  0  0999 V2000
  187.7620  176.9110  135.7120 N   0  0  0  0  0  2  0  0  0  0  0  0
  183.9810  176.5570  135.3570 C   0  0  0  0  0  2  0  0  0  0  0  0
  183.5990  176.5020  137.6520 C   0  0  1  0  0  3  0  0  0  0  0  0
  182.6580  178.0890  142.5510 O   0  0  0  0  0  0  0  0  0  0  0  0
  185.4080  175.9950  135.4210 C   0  0  2  0  0  3  0  0  0  0  0  0
  189.2180  177.8960  139.4990 C   0  0  1  0  0  3  0  0  0  0  0  0
  188.3730  178.6900  137.2340 C   0  0  0  0  0  0  0  0  0  0  0  0
  184.0680  177.2920  138.8610 C   0  0  0  0  0  2  0  0  0  0  0  0
  187.8020  179.1690  140.9130 C   0  0  0  0  0  3  0  0  0  0  0  0
  183.7280  177.3310  136.5060 O   0  0  0  0  0  0  0  0  0  0  0  0
  185.6470  175.3050  136.7740 C   0  0  0  0  0  2  0  0  0  0  0  0
  185.6640  178.7970  143.7520 F   0  0  0  0  0  0  0  0  0  0  0  0
  185.1880  177.2560  141.9910 C   0  0  0  0  0  2  0  0  0  0  0  0
  187.2760  179.1840  137.4440 O   0  0  0  0  0  0  0  0  0  0  0  0
  186.4960  179.4250  141.5980 C   0  0  1  0  0  3  0  0  0  0  0  0
  185.3950  179.7040  140.5600 C   0  0  0  0  0  2  0  0  0  0  0  0
  184.1230  179.7490  141.1500 O   0  0  0  0  0  0  0  0  0  0  0  0
  186.1250  178.1370  134.5940 O   0  0  0  0  0  0  0  0  0  0  0  0
  188.6640  178.0350  135.9190 C   0  0  0  0  0  2  0  0  0  0  0  0
  186.1650  178.2770  142.5730 C   0  0  1  0  0  3  0  0  0  0  0  0
  189.4520  178.7860  138.2710 C   0  0  0  0  0  2  0  0  0  0  0  0
  184.3660  175.1630  137.5940 C   0  0  0  0  0  2  0  0  0  0  0  0
  186.4310  177.0840  135.2200 C   0  0  0  0  0  0  0  0  0  0  0  0
  187.9510  178.1570  140.1380 N   0  0  0  0  0  0  0  0  0  0  0  0
  183.0020  177.3500  139.9470 C   0  0  1  0  0  3  0  0  0  0  0  0
  183.6870  178.1300  141.4440 P   0  0  2  0  0  0  0  0  0  0  0  0
  180.6490  177.6270  139.7060 O   0  0  0  0  0  0  0  0  0  0  0  0
  181.9450  179.3420  138.7760 N   0  0  0  0  0  2  0  0  0  0  0  0
  181.7940  178.1010  139.4810 C   0  0  0  0  0  0  0  0  0  0  0  0
  180.8440  180.0990  138.1830 C   0  0  2  0  0  3  0  0  0  0  0  0
  180.7120  179.7850  136.7040 C   0  0  0  0  0  1  0  0  0  0  0  0
  181.0320  181.5970  138.3930 C   0  0  0  0  0  2  0  0  0  0  0  0
  180.1760  182.3950  137.4170 C   0  0  1  0  0  3  0  0  0  0  0  0
  179.9770  184.3780  137.6010 C   0  0  0  0  0  2  0  0  0  0  0  0
  179.3160  183.2530  138.1210 O   0  0  0  0  0  0  0  0  0  0  0  0
  180.9560  183.5380  136.8290 C   0  0  0  0  0  2  0  0  0  0  0  0
  189.3950  176.4060  139.1920 C   0  0  2  0  0  3  0  0  0  0  0  0
  189.9650  175.7400  140.2780 O   0  0  0  0  0  1  0  0  0  0  0  0
  190.2800  176.2090  137.9680 C   0  0  0  0  0  2  0  0  0  0  0  0
  191.6380  175.6230  138.3490 C   0  0  1  0  0  3  0  0  0  0  0  0
  192.9230  172.1690  136.0790 C   0  0  2  0  0  3  0  0  0  0  0  0
  192.1390  174.6760  137.3000 C   0  0  0  0  0  0  0  0  0  0  0  0
  193.6470  171.1780  135.3030 N   0  0  0  0  0  1  0  0  0  0  0  0
  191.9540  173.2320  134.9620 S   0  0  0  0  0  0  0  0  0  0  0  0
  193.5090  174.1450  137.4410 C   0  0  0  0  0  3  0  0  0  0  0  0
  191.3390  174.2590  136.3070 C   0  0  0  0  0  3  0  0  0  0  0  0
  193.8930  173.0060  136.8570 C   0  0  0  0  0  3  0  0  0  0  0  0
  192.7440  177.2120  139.9460 O   0  0  0  0  0  1  0  0  0  0  0  0
  193.3890  177.1280  137.7490 O   0  0  0  0  0  0  0  0  0  0  0  0
  192.6430  176.6890  138.6620 C   0  0  0  0  0  0  0  0  0  0  0  0
  1 19  1  0  0  0  0
  2 10  1  0  0  0  0
  3 22  1  6  0  0  0
  3  8  1  0  0  0  0
  5  2  1  1  0  0  0
  5 11  1  0  0  0  0
  6 37  1  6  0  0  0
  6 24  1  0  0  0  0
  7 14  2  0  0  0  0
  7 21  1  0  0  0  0
  8 25  1  0  0  0  0
  9 15  1  0  0  0  0
 10  3  1  0  0  0  0
 11 22  1  0  0  0  0
 13 20  1  0  0  0  0
 15 16  1  6  0  0  0
 15 20  1  0  0  0  0
 16 17  1  0  0  0  0
 17 26  1  0  0  0  0
 18 23  2  0  0  0  0
 19  7  1  0  0  0  0
 20 12  1  1  0  0  0
 21  6  1  0  0  0  0
 23  5  1  0  0  0  0
 23  1  1  0  0  0  0
 24  9  2  0  0  0  0
 25 29  1  6  0  0  0
 25 26  1  0  0  0  0
 26 13  1  0  0  0  0
 26  4  2  1  0  0  0
 28 29  1  0  0  0  0
 29 27  2  0  0  0  0
 30 31  1  6  0  0  0
 30 32  1  0  0  0  0
 30 28  1  0  0  0  0
 33 35  1  0  0  0  0
 33 32  1  1  0  0  0
 34 35  1  0  0  0  0
 36 33  1  0  0  0  0
 36 34  1  0  0  0  0
 37 38  1  1  0  0  0
 39 37  1  0  0  0  0
 40 39  1  6  0  0  0
 40 50  1  0  0  0  0
 41 43  1  6  0  0  0
 41 47  1  0  0  0  0
 42 45  1  0  0  0  0
 42 40  1  0  0  0  0
 44 41  1  0  0  0  0
 44 46  1  0  0  0  0
 46 42  2  0  0  0  0
 47 45  2  0  0  0  0
 49 50  2  0  0  0  0
 50 48  1  0  0  0  0
M  END
>  <MODEL>
5

>  <REMARK>
 VINA RESULT:      -3.3      3.259      4.974
  Name = 
  9 active torsions:
  status: ('A' for Active; 'I' for Inactive)
    1  A    between atoms: C_2  and  C_12
    2  A    between atoms: C_4  and  C_12
    3  A    between atoms: C_4  and  N_36
    4  A    between atoms: C_7  and  C_16
    5  A    between atoms: C_7  and  C_33
    6  A    between atoms: C_7  and  C_42
    7  A    between atoms: C_14  and  C_18
    8  A    between atoms: C_18  and  C_33
    9  A    between atoms: C_40  and  C_48
                            x       y       z     vdW  Elec       q    Type
                         _______ _______ _______ _____ _____    ______ ____

>  <TORSDO>
F 9

$$$$
=
 OpenBabel11062414303D

 50 54  0  0  1  0  0  0  0  0999 V2000
  189.2980  176.1270  136.7500 N   0  0  0  0  0  2  0  0  0  0  0  0
  187.0820  173.3950  135.2740 C   0  0  0  0  0  2  0  0  0  0  0  0
  185.3170  173.8000  136.7340 C   0  0  1  0  0  3  0  0  0  0  0  0
  180.9240  175.8140  138.7480 O   0  0  0  0  0  0  0  0  0  0  0  0
  188.1840  173.9050  136.2140 C   0  0  2  0  0  3  0  0  0  0  0  0
  187.4580  178.8780  139.2950 C   0  0  1  0  0  3  0  0  0  0  0  0
  188.1400  178.2440  136.9280 C   0  0  0  0  0  0  0  0  0  0  0  0
  184.5820  175.0240  137.2550 C   0  0  0  0  0  2  0  0  0  0  0  0
  185.1580  179.3280  138.9330 C   0  0  0  0  0  3  0  0  0  0  0  0
  185.9040  174.1360  135.4860 O   0  0  0  0  0  0  0  0  0  0  0  0
  187.6650  173.9610  137.6600 C   0  0  0  0  0  2  0  0  0  0  0  0
  181.9400  178.5660  140.2880 F   0  0  0  0  0  0  0  0  0  0  0  0
  183.2730  176.6340  139.8510 C   0  0  0  0  0  2  0  0  0  0  0  0
  187.1020  177.9740  136.3450 O   0  0  0  0  0  0  0  0  0  0  0  0
  183.7370  178.8980  138.7430 C   0  0  1  0  0  3  0  0  0  0  0  0
  183.5930  178.0980  137.4360 C   0  0  0  0  0  2  0  0  0  0  0  0
  182.3240  177.5080  137.3240 O   0  0  0  0  0  0  0  0  0  0  0  0
  188.5450  175.6490  134.5980 O   0  0  0  0  0  0  0  0  0  0  0  0
  189.4170  177.5630  136.5440 C   0  0  0  0  0  2  0  0  0  0  0  0
  183.2270  178.1550  139.9940 C   0  0  1  0  0  3  0  0  0  0  0  0
  188.1520  179.2990  137.9930 C   0  0  0  0  0  2  0  0  0  0  0  0
  186.2970  173.3010  137.8180 C   0  0  0  0  0  2  0  0  0  0  0  0
  188.6670  175.2700  135.7950 C   0  0  0  0  0  0  0  0  0  0  0  0
  186.0920  178.4610  139.0860 N   0  0  0  0  0  0  0  0  0  0  0  0
  183.1190  174.7210  137.5530 C   0  0  1  0  0  3  0  0  0  0  0  0
  182.3440  176.1580  138.3590 P   0  0  2  0  0  0  0  0  0  0  0  0
  182.9480  174.4820  135.1910 O   0  0  0  0  0  0  0  0  0  0  0  0
  181.0160  173.9070  136.3830 N   0  0  0  0  0  2  0  0  0  0  0  0
  182.3740  174.3650  136.3050 C   0  0  0  0  0  0  0  0  0  0  0  0
  180.1630  173.6380  135.2270 C   0  0  2  0  0  3  0  0  0  0  0  0
  179.1120  174.7230  135.0720 C   0  0  0  0  0  1  0  0  0  0  0  0
  179.5010  172.2700  135.3390 C   0  0  0  0  0  2  0  0  0  0  0  0
  180.3060  171.2130  134.5940 C   0  0  1  0  0  3  0  0  0  0  0  0
  181.3220  169.8010  135.5850 C   0  0  0  0  0  2  0  0  0  0  0  0
  181.5920  171.1080  135.1490 O   0  0  0  0  0  0  0  0  0  0  0  0
  179.9210  169.8290  135.0410 C   0  0  0  0  0  2  0  0  0  0  0  0
  188.2520  177.8250  140.0750 C   0  0  2  0  0  3  0  0  0  0  0  0
  187.5640  176.6110  140.1090 O   0  0  0  0  0  1  0  0  0  0  0  0
  188.5080  178.2910  141.5020 C   0  0  0  0  0  2  0  0  0  0  0  0
  188.3220  177.1540  142.5040 C   0  0  1  0  0  3  0  0  0  0  0  0
  191.0980  176.5050  145.7600 C   0  0  2  0  0  3  0  0  0  0  0  0
  189.5330  176.9830  143.3700 C   0  0  0  0  0  0  0  0  0  0  0  0
  192.1290  176.6010  146.7780 N   0  0  0  0  0  1  0  0  0  0  0  0
  191.7630  175.6570  144.2930 S   0  0  0  0  0  0  0  0  0  0  0  0
  189.8870  178.0810  144.2930 C   0  0  0  0  0  3  0  0  0  0  0  0
  190.2290  175.8370  143.3670 C   0  0  0  0  0  3  0  0  0  0  0  0
  190.6350  177.8790  145.3820 C   0  0  0  0  0  3  0  0  0  0  0  0
  185.9140  177.8210  142.7390 O   0  0  0  0  0  0  0  0  0  0  0  0
  187.0850  177.0190  144.5390 O   0  0  0  0  0  1  0  0  0  0  0  0
  187.0740  177.3190  143.3170 C   0  0  0  0  0  0  0  0  0  0  0  0
  2 10  1  0  0  0  0
  3  8  1  1  0  0  0
  3 22  1  0  0  0  0
  5  2  1  6  0  0  0
  5 11  1  0  0  0  0
  6 37  1  6  0  0  0
  7 21  1  0  0  0  0
  8 25  1  0  0  0  0
  9 24  2  0  0  0  0
 10  3  1  0  0  0  0
 11 22  1  0  0  0  0
 13 20  1  0  0  0  0
 14  7  2  0  0  0  0
 15 16  1  6  0  0  0
 15  9  1  0  0  0  0
 15 20  1  0  0  0  0
 17 16  1  0  0  0  0
 17 26  1  0  0  0  0
 18 23  2  0  0  0  0
 19  1  1  0  0  0  0
 19  7  1  0  0  0  0
 20 12  1  6  0  0  0
 21  6  1  0  0  0  0
 23  5  1  0  0  0  0
 23  1  1  0  0  0  0
 24  6  1  0  0  0  0
 25 29  1  6  0  0  0
 25 26  1  0  0  0  0
 26  4  2  1  0  0  0
 26 13  1  0  0  0  0
 27 29  2  0  0  0  0
 29 28  1  0  0  0  0
 30 31  1  1  0  0  0
 30 32  1  0  0  0  0
 30 28  1  0  0  0  0
 33 36  1  0  0  0  0
 33 35  1  0  0  0  0
 33 32  1  1  0  0  0
 35 34  1  0  0  0  0
 36 34  1  0  0  0  0
 37 38  1  1  0  0  0
 37 39  1  0  0  0  0
 40 39  1  1  0  0  0
 40 50  1  0  0  0  0
 40 42  1  0  0  0  0
 41 43  1  1  0  0  0
 42 45  1  0  0  0  0
 44 41  1  0  0  0  0
 45 47  2  0  0  0  0
 46 42  2  0  0  0  0
 46 44  1  0  0  0  0
 47 41  1  0  0  0  0
 48 50  2  0  0  0  0
 50 49  1  0  0  0  0
M  END
>  <MODEL>
6

>  <REMARK>
 VINA RESULT:      -3.2      2.969      4.346
  Name = 
  9 active torsions:
  status: ('A' for Active; 'I' for Inactive)
    1  A    between atoms: C_2  and  C_12
    2  A    between atoms: C_4  and  C_12
    3  A    between atoms: C_4  and  N_36
    4  A    between atoms: C_7  and  C_16
    5  A    between atoms: C_7  and  C_33
    6  A    between atoms: C_7  and  C_42
    7  A    between atoms: C_14  and  C_18
    8  A    between atoms: C_18  and  C_33
    9  A    between atoms: C_40  and  C_48
                            x       y       z     vdW  Elec       q    Type
                         _______ _______ _______ _____ _____    ______ ____

>  <TORSDO>
F 9

$$$$
=
 OpenBabel11062414303D

 50 54  0  0  1  0  0  0  0  0999 V2000
  188.6050  176.1900  136.7450 N   0  0  0  0  0  2  0  0  0  0  0  0
  186.2160  173.6950  135.1280 C   0  0  0  0  0  2  0  0  0  0  0  0
  184.5290  174.0350  136.6950 C   0  0  1  0  0  3  0  0  0  0  0  0
  180.3120  176.0290  139.0710 O   0  0  0  0  0  0  0  0  0  0  0  0
  187.3750  174.0720  136.0610 C   0  0  2  0  0  3  0  0  0  0  0  0
  186.9900  178.7680  139.6040 C   0  0  1  0  0  3  0  0  0  0  0  0
  187.5490  178.3260  137.1620 C   0  0  0  0  0  0  0  0  0  0  0  0
  183.8700  175.2340  137.3540 C   0  0  0  0  0  2  0  0  0  0  0  0
  184.6990  179.3410  139.3850 C   0  0  0  0  0  3  0  0  0  0  0  0
  185.0800  174.4600  135.4570 O   0  0  0  0  0  0  0  0  0  0  0  0
  186.9170  174.0170  137.5280 C   0  0  0  0  0  2  0  0  0  0  0  0
  181.5080  178.5870  140.8060 F   0  0  0  0  0  0  0  0  0  0  0  0
  182.7370  176.6510  140.1390 C   0  0  0  0  0  2  0  0  0  0  0  0
  186.4770  178.1530  136.6030 O   0  0  0  0  0  0  0  0  0  0  0  0
  183.2550  178.9860  139.2190 C   0  0  1  0  0  3  0  0  0  0  0  0
  183.0240  178.3160  137.8530 C   0  0  0  0  0  2  0  0  0  0  0  0
  181.7270  177.7900  137.7440 O   0  0  0  0  0  0  0  0  0  0  0  0
  187.7470  175.9410  134.5930 O   0  0  0  0  0  0  0  0  0  0  0  0
  188.7790  177.6330  136.6630 C   0  0  0  0  0  2  0  0  0  0  0  0
  182.7630  178.1530  140.4200 C   0  0  1  0  0  3  0  0  0  0  0  0
  187.6490  179.2780  138.3160 C   0  0  0  0  0  2  0  0  0  0  0  0
  185.5290  173.4000  137.6850 C   0  0  0  0  0  2  0  0  0  0  0  0
  187.9010  175.4500  135.7460 C   0  0  0  0  0  0  0  0  0  0  0  0
  185.6000  178.4270  139.4180 N   0  0  0  0  0  0  0  0  0  0  0  0
  182.4080  174.9630  137.6880 C   0  0  1  0  0  3  0  0  0  0  0  0
  181.7290  176.3510  138.6530 P   0  0  2  0  0  0  0  0  0  0  0  0
  181.6480  175.6110  135.5270 O   0  0  0  0  0  0  0  0  0  0  0  0
  180.7680  173.5900  136.3170 N   0  0  0  0  0  2  0  0  0  0  0  0
  181.5990  174.7530  136.4470 C   0  0  0  0  0  0  0  0  0  0  0  0
  179.8580  173.3400  135.2020 C   0  0  2  0  0  3  0  0  0  0  0  0
  178.9600  174.5410  134.9630 C   0  0  0  0  0  1  0  0  0  0  0  0
  179.0190  172.0910  135.4450 C   0  0  0  0  0  2  0  0  0  0  0  0
  179.8240  171.0320  136.1890 C   0  0  1  0  0  3  0  0  0  0  0  0
  180.9100  169.6750  135.1960 C   0  0  0  0  0  2  0  0  0  0  0  0
  179.5790  169.7650  135.6350 O   0  0  0  0  0  0  0  0  0  0  0  0
  181.2590  171.0330  135.7390 C   0  0  0  0  0  2  0  0  0  0  0  0
  187.7680  177.6170  140.2510 C   0  0  2  0  0  3  0  0  0  0  0  0
  187.2830  177.3500  141.5320 O   0  0  0  0  0  1  0  0  0  0  0  0
  189.2500  177.9530  140.3420 C   0  0  0  0  0  2  0  0  0  0  0  0
  190.0920  176.7050  140.6010 C   0  0  1  0  0  3  0  0  0  0  0  0
  193.4920  175.6430  138.1430 C   0  0  2  0  0  3  0  0  0  0  0  0
  191.0510  176.4480  139.4780 C   0  0  0  0  0  0  0  0  0  0  0  0
  194.6230  175.6140  137.2330 N   0  0  0  0  0  1  0  0  0  0  0  0
  191.9910  175.0960  137.2710 S   0  0  0  0  0  0  0  0  0  0  0  0
  192.1780  177.3860  139.3000 C   0  0  0  0  0  3  0  0  0  0  0  0
  190.9370  175.3560  138.7080 C   0  0  0  0  0  3  0  0  0  0  0  0
  193.2960  177.0370  138.6580 C   0  0  0  0  0  3  0  0  0  0  0  0
  190.6960  175.6980  142.8190 O   0  0  0  0  0  1  0  0  0  0  0  0
  191.4430  177.7870  142.2410 O   0  0  0  0  0  0  0  0  0  0  0  0
  190.7870  176.7600  141.9260 C   0  0  0  0  0  0  0  0  0  0  0  0
  2 10  1  0  0  0  0
  3  8  1  1  0  0  0
  3 22  1  0  0  0  0
  5  2  1  6  0  0  0
  5 11  1  0  0  0  0
  6 37  1  6  0  0  0
  7 21  1  0  0  0  0
  8 25  1  0  0  0  0
  9 24  2  0  0  0  0
 10  3  1  0  0  0  0
 11 22  1  0  0  0  0
 13 20  1  0  0  0  0
 14  7  2  0  0  0  0
 15 16  1  6  0  0  0
 15  9  1  0  0  0  0
 15 20  1  0  0  0  0
 17 16  1  0  0  0  0
 17 26  1  0  0  0  0
 18 23  2  0  0  0  0
 19  1  1  0  0  0  0
 19  7  1  0  0  0  0
 20 12  1  6  0  0  0
 21  6  1  0  0  0  0
 23  5  1  0  0  0  0
 23  1  1  0  0  0  0
 24  6  1  0  0  0  0
 25 29  1  6  0  0  0
 25 26  1  0  0  0  0
 26  4  2  1  0  0  0
 26 13  1  0  0  0  0
 27 29  2  0  0  0  0
 28 29  1  0  0  0  0
 30 31  1  1  0  0  0
 30 32  1  0  0  0  0
 30 28  1  0  0  0  0
 33 32  1  6  0  0  0
 34 35  1  0  0  0  0
 34 36  1  0  0  0  0
 35 33  1  0  0  0  0
 36 33  1  0  0  0  0
 37 39  1  0  0  0  0
 37 38  1  1  0  0  0
 40 39  1  6  0  0  0
 40 50  1  0  0  0  0
 41 43  1  6  0  0  0
 41 47  1  0  0  0  0
 42 40  1  0  0  0  0
 44 41  1  0  0  0  0
 44 46  1  0  0  0  0
 45 42  1  0  0  0  0
 46 42  2  0  0  0  0
 47 45  2  0  0  0  0
 50 49  2  0  0  0  0
 50 48  1  0  0  0  0
M  END
>  <MODEL>
7

>  <REMARK>
 VINA RESULT:      -3.1      3.287      5.272
  Name = 
  9 active torsions:
  status: ('A' for Active; 'I' for Inactive)
    1  A    between atoms: C_2  and  C_12
    2  A    between atoms: C_4  and  C_12
    3  A    between atoms: C_4  and  N_36
    4  A    between atoms: C_7  and  C_16
    5  A    between atoms: C_7  and  C_33
    6  A    between atoms: C_7  and  C_42
    7  A    between atoms: C_14  and  C_18
    8  A    between atoms: C_18  and  C_33
    9  A    between atoms: C_40  and  C_48
                            x       y       z     vdW  Elec       q    Type
                         _______ _______ _______ _____ _____    ______ ____

>  <TORSDO>
F 9

$$$$
=
 OpenBabel11062414303D

 50 54  0  0  1  0  0  0  0  0999 V2000
  186.9260  176.7490  135.5970 N   0  0  0  0  0  2  0  0  0  0  0  0
  183.1720  176.0840  135.7120 C   0  0  0  0  0  2  0  0  0  0  0  0
  183.0520  176.1840  138.0330 C   0  0  1  0  0  3  0  0  0  0  0  0
  182.5300  178.0850  142.8830 O   0  0  0  0  0  0  0  0  0  0  0  0
  184.6390  175.6380  135.6490 C   0  0  2  0  0  3  0  0  0  0  0  0
  188.7040  178.1410  139.1080 C   0  0  1  0  0  3  0  0  0  0  0  0
  187.5510  178.6840  136.9070 C   0  0  0  0  0  0  0  0  0  0  0  0
  183.5850  177.1020  139.1200 C   0  0  0  0  0  2  0  0  0  0  0  0
  187.3520  179.4130  140.5840 C   0  0  0  0  0  3  0  0  0  0  0  0
  182.9840  176.9260  136.8240 O   0  0  0  0  0  0  0  0  0  0  0  0
  185.0830  175.0780  137.0100 C   0  0  0  0  0  2  0  0  0  0  0  0
  185.5800  179.1100  143.6730 F   0  0  0  0  0  0  0  0  0  0  0  0
  185.0430  177.4020  142.0920 C   0  0  0  0  0  2  0  0  0  0  0  0
  186.4460  179.1100  137.2070 O   0  0  0  0  0  0  0  0  0  0  0  0
  186.1140  179.6250  141.3960 C   0  0  1  0  0  3  0  0  0  0  0  0
  184.8850  179.7350  140.4770 C   0  0  0  0  0  2  0  0  0  0  0  0
  183.6860  179.7320  141.2070 O   0  0  0  0  0  0  0  0  0  0  0  0
  185.0790  177.7540  134.5940 O   0  0  0  0  0  0  0  0  0  0  0  0
  187.7490  177.9500  135.6170 C   0  0  0  0  0  2  0  0  0  0  0  0
  185.9900  178.5370  142.4820 C   0  0  1  0  0  3  0  0  0  0  0  0
  188.7260  178.9440  137.8010 C   0  0  0  0  0  2  0  0  0  0  0  0
  183.9180  174.9070  137.9820 C   0  0  0  0  0  2  0  0  0  0  0  0
  185.5390  176.7810  135.2530 C   0  0  0  0  0  0  0  0  0  0  0  0
  187.4980  178.3560  139.8710 N   0  0  0  0  0  0  0  0  0  0  0  0
  182.6440  177.1670  140.3170 C   0  0  1  0  0  3  0  0  0  0  0  0
  183.4230  178.1130  141.6640 P   0  0  2  0  0  0  0  0  0  0  0  0
  180.2820  177.0980  140.0270 O   0  0  0  0  0  0  0  0  0  0  0  0
  181.2830  179.1440  139.4820 N   0  0  0  0  0  2  0  0  0  0  0  0
  181.3330  177.7850  139.9430 C   0  0  0  0  0  0  0  0  0  0  0  0
  180.0790  179.8090  138.9900 C   0  0  2  0  0  3  0  0  0  0  0  0
  179.6850  179.2680  137.6270 C   0  0  0  0  0  1  0  0  0  0  0  0
  180.2730  181.3200  138.9250 C   0  0  0  0  0  2  0  0  0  0  0  0
  181.2080  181.7000  137.7830 C   0  0  1  0  0  3  0  0  0  0  0  0
  180.8070  183.2610  136.5970 C   0  0  0  0  0  2  0  0  0  0  0  0
  180.4720  181.8970  136.6030 O   0  0  0  0  0  0  0  0  0  0  0  0
  181.5990  183.1490  137.8690 C   0  0  0  0  0  2  0  0  0  0  0  0
  188.9710  176.6480  138.8890 C   0  0  2  0  0  3  0  0  0  0  0  0
  187.7730  175.9340  138.8350 O   0  0  0  0  0  1  0  0  0  0  0  0
  189.8340  176.0850  140.0100 C   0  0  0  0  0  2  0  0  0  0  0  0
  190.6490  177.1810  140.6930 C   0  0  1  0  0  3  0  0  0  0  0  0
  191.4060  177.1440  144.9540 C   0  0  2  0  0  3  0  0  0  0  0  0
  190.5560  177.0820  142.1860 C   0  0  0  0  0  0  0  0  0  0  0  0
  191.5630  176.8090  146.3580 N   0  0  0  0  0  1  0  0  0  0  0  0
  189.7850  177.9290  144.6900 S   0  0  0  0  0  0  0  0  0  0  0  0
  191.1380  175.8940  142.8410 C   0  0  0  0  0  3  0  0  0  0  0  0
  190.0330  178.0800  142.9130 C   0  0  0  0  0  3  0  0  0  0  0  0
  191.5050  175.8990  144.1250 C   0  0  0  0  0  3  0  0  0  0  0  0
  193.0550  177.8370  140.9720 O   0  0  0  0  0  1  0  0  0  0  0  0
  192.3730  176.6540  139.1310 O   0  0  0  0  0  0  0  0  0  0  0  0
  192.0710  177.2010  140.2230 C   0  0  0  0  0  0  0  0  0  0  0  0
  1 19  1  0  0  0  0
  2 10  1  0  0  0  0
  3 22  1  6  0  0  0
  3  8  1  0  0  0  0
  5  2  1  1  0  0  0
  5 11  1  0  0  0  0
  6 37  1  6  0  0  0
  6 24  1  0  0  0  0
  7 14  2  0  0  0  0
  7 21  1  0  0  0  0
  8 25  1  0  0  0  0
  9 15  1  0  0  0  0
 10  3  1  0  0  0  0
 11 22  1  0  0  0  0
 13 20  1  0  0  0  0
 15 16  1  6  0  0  0
 15 20  1  0  0  0  0
 16 17  1  0  0  0  0
 17 26  1  0  0  0  0
 18 23  2  0  0  0  0
 19  7  1  0  0  0  0
 20 12  1  1  0  0  0
 21  6  1  0  0  0  0
 23  1  1  0  0  0  0
 23  5  1  0  0  0  0
 24  9  2  0  0  0  0
 25 29  1  6  0  0  0
 25 26  1  0  0  0  0
 26 13  1  0  0  0  0
 26  4  2  1  0  0  0
 28 29  1  0  0  0  0
 29 27  2  0  0  0  0
 30 31  1  6  0  0  0
 30 28  1  0  0  0  0
 32 30  1  0  0  0  0
 33 36  1  0  0  0  0
 33 32  1  1  0  0  0
 34 35  1  0  0  0  0
 34 36  1  0  0  0  0
 35 33  1  0  0  0  0
 37 38  1  1  0  0  0
 37 39  1  0  0  0  0
 40 39  1  6  0  0  0
 40 42  1  0  0  0  0
 41 43  1  1  0  0  0
 42 45  1  0  0  0  0
 42 46  2  0  0  0  0
 44 41  1  0  0  0  0
 45 47  2  0  0  0  0
 46 44  1  0  0  0  0
 47 41  1  0  0  0  0
 49 50  2  0  0  0  0
 50 40  1  0  0  0  0
 50 48  1  0  0  0  0
M  END
>  <MODEL>
8

>  <REMARK>
 VINA RESULT:      -2.7      1.982      2.556
  Name = 
  9 active torsions:
  status: ('A' for Active; 'I' for Inactive)
    1  A    between atoms: C_2  and  C_12
    2  A    between atoms: C_4  and  C_12
    3  A    between atoms: C_4  and  N_36
    4  A    between atoms: C_7  and  C_16
    5  A    between atoms: C_7  and  C_33
    6  A    between atoms: C_7  and  C_42
    7  A    between atoms: C_14  and  C_18
    8  A    between atoms: C_18  and  C_33
    9  A    between atoms: C_40  and  C_48
                            x       y       z     vdW  Elec       q    Type
                         _______ _______ _______ _____ _____    ______ ____

>  <TORSDO>
F 9

$$$$
=
 OpenBabel11062414303D

 50 54  0  0  1  0  0  0  0  0999 V2000
  183.3240  176.6730  136.5110 N   0  0  0  0  0  2  0  0  0  0  0  0
  187.0850  176.3090  135.9870 C   0  0  0  0  0  2  0  0  0  0  0  0
  187.6400  177.6940  137.7720 C   0  0  1  0  0  3  0  0  0  0  0  0
  188.8050  179.2910  142.6200 O   0  0  0  0  0  0  0  0  0  0  0  0
  185.7200  176.9530  135.7070 C   0  0  2  0  0  3  0  0  0  0  0  0
  182.0760  178.3460  140.1270 C   0  0  1  0  0  3  0  0  0  0  0  0
  182.6780  176.2570  138.8050 C   0  0  0  0  0  0  0  0  0  0  0  0
  187.1960  177.8540  139.2160 C   0  0  0  0  0  2  0  0  0  0  0  0
  183.4790  178.0340  142.0140 C   0  0  0  0  0  3  0  0  0  0  0  0
  187.3550  176.3630  137.3680 O   0  0  0  0  0  0  0  0  0  0  0  0
  185.6430  178.3420  136.3630 C   0  0  0  0  0  2  0  0  0  0  0  0
  185.8470  179.7990  144.0260 F   0  0  0  0  0  0  0  0  0  0  0  0
  186.3210  179.8980  141.6870 C   0  0  0  0  0  2  0  0  0  0  0  0
  183.7410  175.8690  139.2650 O   0  0  0  0  0  0  0  0  0  0  0  0
  184.8050  178.0970  142.7040 C   0  0  1  0  0  3  0  0  0  0  0  0
  185.7980  177.1260  142.0410 C   0  0  0  0  0  2  0  0  0  0  0  0
  187.1020  177.3020  142.5270 O   0  0  0  0  0  0  0  0  0  0  0  0
  184.7620  174.8460  136.3570 O   0  0  0  0  0  0  0  0  0  0  0  0
  182.3470  176.0140  137.3650 C   0  0  0  0  0  2  0  0  0  0  0  0
  185.3060  179.5540  142.7770 C   0  0  1  0  0  3  0  0  0  0  0  0
  181.6750  176.9290  139.6950 C   0  0  0  0  0  2  0  0  0  0  0  0
  186.9890  178.8030  136.9180 C   0  0  0  0  0  2  0  0  0  0  0  0
  184.5960  176.0890  136.2170 C   0  0  0  0  0  0  0  0  0  0  0  0
  183.3600  178.3820  140.7840 N   0  0  0  0  0  0  0  0  0  0  0  0
  188.3320  178.3430  140.1060 C   0  0  1  0  0  3  0  0  0  0  0  0
  187.6960  178.7080  141.7730 P   0  0  2  0  0  0  0  0  0  0  0  0
  189.4200  176.4770  141.1090 O   0  0  0  0  0  0  0  0  0  0  0  0
  190.4960  177.3470  139.2200 N   0  0  0  0  0  2  0  0  0  0  0  0
  189.4330  177.3310  140.1850 C   0  0  0  0  0  0  0  0  0  0  0  0
  191.6720  176.4810  139.2660 C   0  0  2  0  0  3  0  0  0  0  0  0
  192.7890  177.1330  140.0600 C   0  0  0  0  0  1  0  0  0  0  0  0
  192.1530  176.1320  137.8620 C   0  0  0  0  0  2  0  0  0  0  0  0
  192.0690  174.6300  137.6160 C   0  0  1  0  0  3  0  0  0  0  0  0
  190.6080  173.8490  136.4930 C   0  0  0  0  0  2  0  0  0  0  0  0
  190.7610  174.1760  137.8500 O   0  0  0  0  0  0  0  0  0  0  0  0
  191.9880  174.3310  136.1440 C   0  0  0  0  0  2  0  0  0  0  0  0
  182.0050  179.3570  138.9780 C   0  0  2  0  0  3  0  0  0  0  0  0
  183.1770  180.1120  138.9090 O   0  0  0  0  0  1  0  0  0  0  0  0
  180.8200  180.2960  139.1590 C   0  0  0  0  0  2  0  0  0  0  0  0
  179.8980  180.2750  137.9410 C   0  0  1  0  0  3  0  0  0  0  0  0
  180.7320  183.7620  135.5170 C   0  0  2  0  0  3  0  0  0  0  0  0
  179.8750  181.6050  137.2500 C   0  0  0  0  0  0  0  0  0  0  0  0
  181.0180  185.0890  135.0030 N   0  0  0  0  0  1  0  0  0  0  0  0
  178.9420  183.4420  135.4220 S   0  0  0  0  0  0  0  0  0  0  0  0
  180.8090  182.6480  137.7200 C   0  0  0  0  0  3  0  0  0  0  0  0
  179.0890  181.8170  136.1840 C   0  0  0  0  0  3  0  0  0  0  0  0
  181.1870  183.6660  136.9420 C   0  0  0  0  0  3  0  0  0  0  0  0
  179.5410  177.9600  137.0430 O   0  0  0  0  0  1  0  0  0  0  0  0
  181.1730  179.3120  136.1710 O   0  0  0  0  0  0  0  0  0  0  0  0
  180.2370  179.1620  136.9980 C   0  0  0  0  0  0  0  0  0  0  0  0
  1 19  1  0  0  0  0
  2 10  1  0  0  0  0
  3 22  1  6  0  0  0
  3  8  1  0  0  0  0
  5  2  1  1  0  0  0
  5 23  1  0  0  0  0
  5 11  1  0  0  0  0
  6 37  1  6  0  0  0
  6 24  1  0  0  0  0
  7 14  2  0  0  0  0
  7 21  1  0  0  0  0
  8 25  1  0  0  0  0
 10  3  1  0  0  0  0
 11 22  1  0  0  0  0
 13 26  1  0  0  0  0
 13 20  1  0  0  0  0
 15  9  1  6  0  0  0
 15 20  1  0  0  0  0
 16 17  1  0  0  0  0
 16 15  1  0  0  0  0
 19  7  1  0  0  0  0
 20 12  1  1  0  0  0
 21  6  1  0  0  0  0
 23 18  2  0  0  0  0
 23  1  1  0  0  0  0
 24  9  2  0  0  0  0
 25 29  1  1  0  0  0
 25 26  1  0  0  0  0
 26 17  1  0  0  0  0
 26  4  2  1  0  0  0
 28 30  1  0  0  0  0
 28 29  1  0  0  0  0
 29 27  2  0  0  0  0
 30 31  1  1  0  0  0
 32 30  1  0  0  0  0
 33 35  1  0  0  0  0
 33 32  1  6  0  0  0
 34 35  1  0  0  0  0
 36 34  1  0  0  0  0
 36 33  1  0  0  0  0
 37 38  1  1  0  0  0
 37 39  1  0  0  0  0
 40 39  1  1  0  0  0
 41 43  1  1  0  0  0
 41 47  1  0  0  0  0
 42 45  1  0  0  0  0
 42 40  1  0  0  0  0
 44 41  1  0  0  0  0
 44 46  1  0  0  0  0
 46 42  2  0  0  0  0
 47 45  2  0  0  0  0
 49 50  2  0  0  0  0
 50 48  1  0  0  0  0
 50 40  1  0  0  0  0
M  END
>  <MODEL>
9

>  <REMARK>
 VINA RESULT:      -2.7      3.389      9.079
  Name = 
  9 active torsions:
  status: ('A' for Active; 'I' for Inactive)
    1  A    between atoms: C_2  and  C_12
    2  A    between atoms: C_4  and  C_12
    3  A    between atoms: C_4  and  N_36
    4  A    between atoms: C_7  and  C_16
    5  A    between atoms: C_7  and  C_33
    6  A    between atoms: C_7  and  C_42
    7  A    between atoms: C_14  and  C_18
    8  A    between atoms: C_18  and  C_33
    9  A    between atoms: C_40  and  C_48
                            x       y       z     vdW  Elec       q    Type
                         _______ _______ _______ _____ _____    ______ ____

>  <TORSDO>
F 9

$$$$
