=
 OpenBabel11062416073D

 43 49  0  0  1  0  0  0  0  0999 V2000
  184.6210  178.6330  140.1540 N   0  0  0  0  0  0  0  0  0  0  0  0
  188.2160  178.2950  142.3490 C   0  0  0  0  0  3  0  0  0  0  0  0
  189.4330  178.1220  141.6900 C   0  0  0  0  0  0  0  0  0  0  0  0
  187.0190  178.0260  140.2510 C   0  0  0  0  0  0  0  0  0  0  0  0
  183.3370  178.8980  142.2630 C   0  0  0  0  0  3  0  0  0  0  0  0
  184.5510  178.6590  141.5960 C   0  0  0  0  0  0  0  0  0  0  0  0
  188.2460  177.8170  139.5900 C   0  0  0  0  0  0  0  0  0  0  0  0
  188.3040  177.5430  138.1240 C   0  0  0  0  0  1  0  0  0  0  0  0
  185.7220  178.4510  142.3480 C   0  0  0  0  0  0  0  0  0  0  0  0
  184.4430  178.6810  144.4000 C   0  0  0  0  0  0  0  0  0  0  0  0
  183.2830  178.9060  143.6570 C   0  0  0  0  0  3  0  0  0  0  0  0
  187.0050  178.2450  141.6450 C   0  0  0  0  0  0  0  0  0  0  0  0
  185.6580  178.4590  143.7510 C   0  0  0  0  0  3  0  0  0  0  0  0
  185.7190  177.9270  139.4890 C   0  0  0  0  0  2  0  0  0  0  0  0
  189.4420  177.8650  140.3100 C   0  0  0  0  0  3  0  0  0  0  0  0
  184.3870  178.6730  145.7880 O   0  0  0  0  0  1  0  0  0  0  0  0
  179.8480  177.9130  139.7700 C   0  0  0  0  0  1  0  0  0  0  0  0
  178.9310  180.0370  137.5210 O   0  0  0  0  0  1  0  0  0  0  0  0
  182.2820  178.1000  139.3860 C   0  0  2  0  0  3  0  0  0  0  0  0
  179.7300  182.1690  138.3170 C   0  0  2  0  0  3  0  0  0  0  0  0
  180.7630  180.1400  139.0760 C   0  0  2  0  0  3  0  0  0  0  0  0
  181.2120  182.2270  137.9740 C   0  0  0  0  0  2  0  0  0  0  0  0
  179.4150  180.7080  138.6520 C   0  0  2  0  0  3  0  0  0  0  0  0
  181.7500  180.8230  138.1720 C   0  0  1  0  0  3  0  0  0  0  0  0
  183.2130  178.1020  138.1740 C   0  0  0  0  0  2  0  0  0  0  0  0
  183.3750  180.8490  138.9630 S   0  0  0  0  0  0  0  0  0  0  0  0
  180.9090  178.6250  138.9450 C   0  0  2  0  0  3  0  0  0  0  0  0
  183.4900  179.0470  139.3240 C   0  0  2  0  0  0  0  0  0  0  0  0
  178.9590  182.6630  137.2270 O   0  0  0  0  0  0  0  0  0  0  0  0
  179.0230  184.9480  137.3880 O   0  0  0  0  0  0  0  0  0  0  0  0
  179.1560  183.9280  136.6660 C   0  0  0  0  0  0  0  0  0  0  0  0
  180.8500  184.5830  135.1540 O   0  0  0  0  0  1  0  0  0  0  0  0
  179.5450  184.0970  135.2330 C   0  0  0  0  0  2  0  0  0  0  0  0
  190.4020  178.4140  143.9380 C   0  0  2  0  0  3  0  0  0  0  0  0
  190.9030  179.6680  144.2910 O   0  0  0  0  0  1  0  0  0  0  0  0
  191.1700  177.3400  144.6440 C   0  0  2  0  0  3  0  0  0  0  0  0
  191.4080  176.8710  142.3990 N   0  0  0  0  0  2  0  0  0  0  0  0
  191.3830  176.2730  143.6750 N   0  0  0  0  0  2  0  0  0  0  0  0
  190.6970  178.1450  142.4890 C   0  0  1  0  0  3  0  0  0  0  0  0
  190.4230  176.8420  145.8850 C   0  0  2  0  0  3  0  0  0  0  0  0
  189.0970  177.5670  146.0530 C   0  0  0  0  0  1  0  0  0  0  0  0
  192.1440  175.8070  147.2280 O   0  0  0  0  0  1  0  0  0  0  0  0
  191.2460  176.8730  147.1770 C   0  0  0  0  0  2  0  0  0  0  0  0
  1  6  1  0  0  0  0
  3  2  1  0  0  0  0
  3 39  1  0  0  0  0
  4 12  1  0  0  0  0
  5 11  1  0  0  0  0
  6  5  2  0  0  0  0
  6  9  1  0  0  0  0
  7  4  2  0  0  0  0
  7 15  1  0  0  0  0
  8  7  1  0  0  0  0
  9 13  2  0  0  0  0
 10 16  1  0  0  0  0
 11 10  2  0  0  0  0
 12  9  1  0  0  0  0
 12  2  2  0  0  0  0
 13 10  1  0  0  0  0
 14  1  1  0  0  0  0
 14  4  1  0  0  0  0
 15  3  2  0  0  0  0
 18 23  1  0  0  0  0
 19 25  1  6  0  0  0
 20 29  1  6  0  0  0
 20 23  1  0  0  0  0
 22 24  1  0  0  0  0
 22 20  1  0  0  0  0
 23 21  1  0  0  0  0
 24 26  1  0  0  0  0
 24 21  1  0  0  0  0
 25 28  1  0  0  0  0
 26 28  1  0  0  0  0
 27 21  1  0  0  0  0
 27 19  1  0  0  0  0
 27 17  1  0  0  0  0
 28 19  1  0  0  0  0
 28  1  1  0  0  0  0
 31 29  1  0  0  0  0
 31 30  2  0  0  0  0
 32 33  1  0  0  0  0
 33 31  1  0  0  0  0
 34 35  1  0  0  0  0
 34 36  1  0  0  0  0
 36 40  1  0  0  0  0
 37 39  1  0  0  0  0
 37 38  1  0  0  0  0
 38 36  1  0  0  0  0
 39 34  1  0  0  0  0
 40 41  1  0  0  0  0
 40 43  1  0  0  0  0
 43 42  1  0  0  0  0
M  END
>  <MODEL>
1

>  <REMARK>
 VINA RESULT:      -8.3      0.000      0.000
  Name = 
  7 active torsions:
  status: ('A' for Active; 'I' for Inactive)
    1  A    between atoms: N_1  and  C_41
    2  A    between atoms: C_5  and  C_17
    3  A    between atoms: C_5  and  C_35
    4  A    between atoms: C_6  and  C_42
    5  A    between atoms: C_13  and  O_27
    6  A    between atoms: C_26  and  O_27
    7  A    between atoms: C_26  and  C_34
                            x       y       z     vdW  Elec       q    Type
                         _______ _______ _______ _____ _____    ______ ____

>  <TORSDO>
F 7

$$$$
=
 OpenBabel11062416073D

 43 49  0  0  1  0  0  0  0  0999 V2000
  184.5020  178.6420  142.0200 N   0  0  0  0  0  0  0  0  0  0  0  0
  181.9930  177.3300  138.8820 C   0  0  0  0  0  3  0  0  0  0  0  0
  182.5310  176.9950  137.6410 C   0  0  0  0  0  0  0  0  0  0  0  0
  184.1540  178.1670  139.6150 C   0  0  0  0  0  0  0  0  0  0  0  0
  182.5370  178.8650  143.5220 C   0  0  0  0  0  3  0  0  0  0  0  0
  183.0780  178.5910  142.2540 C   0  0  0  0  0  0  0  0  0  0  0  0
  184.6900  177.8590  138.3490 C   0  0  0  0  0  0  0  0  0  0  0  0
  186.1180  178.1410  138.0180 C   0  0  0  0  0  1  0  0  0  0  0  0
  182.2150  178.2500  141.1950 C   0  0  0  0  0  0  0  0  0  0  0  0
  180.3040  178.5050  142.6730 C   0  0  0  0  0  0  0  0  0  0  0  0
  181.1590  178.8250  143.7300 C   0  0  0  0  0  3  0  0  0  0  0  0
  182.7890  177.9190  139.8750 C   0  0  0  0  0  0  0  0  0  0  0  0
  180.8290  178.2140  141.4120 C   0  0  0  0  0  3  0  0  0  0  0  0
  185.0110  178.8390  140.6600 C   0  0  0  0  0  2  0  0  0  0  0  0
  183.8780  177.2790  137.3710 C   0  0  0  0  0  3  0  0  0  0  0  0
  178.9310  178.4810  142.8740 O   0  0  0  0  0  1  0  0  0  0  0  0
  184.6720  178.2750  146.8450 C   0  0  0  0  0  1  0  0  0  0  0  0
  187.8130  178.5550  147.5250 O   0  0  0  0  0  1  0  0  0  0  0  0
  184.8050  179.0180  144.4920 C   0  0  2  0  0  3  0  0  0  0  0  0
  188.8910  176.8620  146.1870 C   0  0  2  0  0  3  0  0  0  0  0  0
  186.7380  177.7080  145.5470 C   0  0  2  0  0  3  0  0  0  0  0  0
  188.9980  177.4320  144.7790 C   0  0  0  0  0  2  0  0  0  0  0  0
  187.5810  177.3930  146.7760 C   0  0  2  0  0  3  0  0  0  0  0  0
  187.7290  178.2300  144.5460 C   0  0  1  0  0  3  0  0  0  0  0  0
  185.4650  180.1670  143.7320 C   0  0  0  0  0  2  0  0  0  0  0  0
  187.0910  177.9730  142.8750 S   0  0  0  0  0  0  0  0  0  0  0  0
  185.6280  178.7360  145.7560 C   0  0  2  0  0  3  0  0  0  0  0  0
  185.4560  178.7830  143.1200 C   0  0  2  0  0  0  0  0  0  0  0  0
  190.0320  177.2400  146.9500 O   0  0  0  0  0  0  0  0  0  0  0  0
  192.0280  177.1430  145.8290 O   0  0  0  0  0  0  0  0  0  0  0  0
  191.3010  176.6890  146.7480 C   0  0  0  0  0  0  0  0  0  0  0  0
  193.0420  175.9760  148.1790 O   0  0  0  0  0  1  0  0  0  0  0  0
  191.8250  175.5910  147.6150 C   0  0  0  0  0  2  0  0  0  0  0  0
  181.5570  174.9100  136.7530 C   0  0  2  0  0  3  0  0  0  0  0  0
  182.1740  174.2970  135.6620 O   0  0  0  0  0  1  0  0  0  0  0  0
  180.0830  174.6440  136.7250 C   0  0  2  0  0  3  0  0  0  0  0  0
  180.2770  176.9410  136.6990 N   0  0  0  0  0  2  0  0  0  0  0  0
  179.4250  175.8890  137.0940 N   0  0  0  0  0  2  0  0  0  0  0  0
  181.6330  176.4040  136.6010 C   0  0  1  0  0  3  0  0  0  0  0  0
  179.7050  173.4970  137.6690 C   0  0  2  0  0  3  0  0  0  0  0  0
  179.5970  173.9840  139.1050 C   0  0  0  0  0  1  0  0  0  0  0  0
  180.3030  171.5150  136.4250 O   0  0  0  0  0  1  0  0  0  0  0  0
  180.6060  172.2630  137.5620 C   0  0  0  0  0  2  0  0  0  0  0  0
  1  6  1  0  0  0  0
  1 28  1  0  0  0  0
  2 12  1  0  0  0  0
  3  2  2  0  0  0  0
  4 12  2  0  0  0  0
  4 14  1  0  0  0  0
  5 11  1  0  0  0  0
  6  5  2  0  0  0  0
  7  4  1  0  0  0  0
  8  7  1  0  0  0  0
  9 13  2  0  0  0  0
  9  6  1  0  0  0  0
 10 16  1  0  0  0  0
 10 11  2  0  0  0  0
 12  9  1  0  0  0  0
 13 10  1  0  0  0  0
 14  1  1  0  0  0  0
 15  3  1  0  0  0  0
 15  7  2  0  0  0  0
 19 25  1  6  0  0  0
 19 27  1  0  0  0  0
 20 23  1  0  0  0  0
 20 29  1  1  0  0  0
 21 27  1  0  0  0  0
 21 23  1  0  0  0  0
 22 20  1  0  0  0  0
 23 18  1  0  0  0  0
 24 22  1  0  0  0  0
 24 21  1  0  0  0  0
 26 28  1  0  0  0  0
 26 24  1  0  0  0  0
 27 17  1  0  0  0  0
 28 25  1  0  0  0  0
 28 19  1  0  0  0  0
 30 31  2  0  0  0  0
 31 29  1  0  0  0  0
 31 33  1  0  0  0  0
 33 32  1  0  0  0  0
 35 34  1  0  0  0  0
 36 34  1  0  0  0  0
 36 38  1  0  0  0  0
 36 40  1  0  0  0  0
 37 38  1  0  0  0  0
 39 37  1  0  0  0  0
 39 34  1  0  0  0  0
 39  3  1  0  0  0  0
 40 41  1  0  0  0  0
 42 43  1  0  0  0  0
 43 40  1  0  0  0  0
M  END
>  <MODEL>
2

>  <REMARK>
 VINA RESULT:      -7.9      4.109     10.600
  Name = 
  7 active torsions:
  status: ('A' for Active; 'I' for Inactive)
    1  A    between atoms: N_1  and  C_41
    2  A    between atoms: C_5  and  C_17
    3  A    between atoms: C_5  and  C_35
    4  A    between atoms: C_6  and  C_42
    5  A    between atoms: C_13  and  O_27
    6  A    between atoms: C_26  and  O_27
    7  A    between atoms: C_26  and  C_34
                            x       y       z     vdW  Elec       q    Type
                         _______ _______ _______ _____ _____    ______ ____

>  <TORSDO>
F 7

$$$$
=
 OpenBabel11062416073D

 43 49  0  0  1  0  0  0  0  0999 V2000
  185.3490  178.3680  141.4060 N   0  0  0  0  0  0  0  0  0  0  0  0
  187.3980  177.8530  145.0670 C   0  0  0  0  0  3  0  0  0  0  0  0
  186.7100  177.9210  146.2770 C   0  0  0  0  0  0  0  0  0  0  0  0
  185.4100  178.5790  143.8720 C   0  0  0  0  0  0  0  0  0  0  0  0
  187.4660  178.0290  140.1530 C   0  0  0  0  0  3  0  0  0  0  0  0
  186.7780  178.1630  141.3720 C   0  0  0  0  0  0  0  0  0  0  0  0
  184.7240  178.6800  145.0990 C   0  0  0  0  0  0  0  0  0  0  0  0
  183.3020  179.1320  145.1620 C   0  0  0  0  0  1  0  0  0  0  0  0
  187.4950  178.0860  142.5800 C   0  0  0  0  0  0  0  0  0  0  0  0
  189.5590  177.7890  141.3360 C   0  0  0  0  0  0  0  0  0  0  0  0
  188.8490  177.8460  140.1350 C   0  0  0  0  0  3  0  0  0  0  0  0
  186.7640  178.1820  143.8610 C   0  0  0  0  0  0  0  0  0  0  0  0
  188.8870  177.9030  142.5530 C   0  0  0  0  0  3  0  0  0  0  0  0
  184.7280  178.9770  142.5860 C   0  0  0  0  0  2  0  0  0  0  0  0
  185.3750  178.3530  146.2910 C   0  0  0  0  0  3  0  0  0  0  0  0
  190.9380  177.6230  141.3190 O   0  0  0  0  0  1  0  0  0  0  0  0
  185.8350  177.5840  136.6530 C   0  0  0  0  0  1  0  0  0  0  0  0
  182.7990  177.2470  135.6170 O   0  0  0  0  0  1  0  0  0  0  0  0
  185.2930  178.4800  138.8910 C   0  0  2  0  0  3  0  0  0  0  0  0
  181.8610  175.5060  136.9980 C   0  0  2  0  0  3  0  0  0  0  0  0
  183.7490  176.7680  137.7740 C   0  0  2  0  0  3  0  0  0  0  0  0
  181.4890  176.1610  138.3210 C   0  0  0  0  0  2  0  0  0  0  0  0
  183.1270  176.2090  136.5010 C   0  0  2  0  0  3  0  0  0  0  0  0
  182.5700  177.1870  138.6050 C   0  0  1  0  0  3  0  0  0  0  0  0
  184.3630  179.5540  139.4560 C   0  0  0  0  0  2  0  0  0  0  0  0
  183.0320  177.1840  140.3530 S   0  0  0  0  0  0  0  0  0  0  0  0
  184.6900  177.9560  137.5810 C   0  0  2  0  0  3  0  0  0  0  0  0
  184.5280  178.2470  140.2020 C   0  0  2  0  0  0  0  0  0  0  0  0
  180.7760  175.6120  136.0830 O   0  0  0  0  0  0  0  0  0  0  0  0
  179.0980  174.6780  134.8310 O   0  0  0  0  0  0  0  0  0  0  0  0
  179.9880  174.5200  135.7040 C   0  0  0  0  0  0  0  0  0  0  0  0
  179.4590  173.0450  137.4730 O   0  0  0  0  0  1  0  0  0  0  0  0
  180.1960  173.1630  136.2940 C   0  0  0  0  0  2  0  0  0  0  0  0
  188.5870  176.6660  147.2680 C   0  0  2  0  0  3  0  0  0  0  0  0
  188.3280  175.4220  147.8450 O   0  0  0  0  0  1  0  0  0  0  0  0
  189.7330  177.3270  147.9700 C   0  0  2  0  0  3  0  0  0  0  0  0
  187.9730  178.8030  148.1730 N   0  0  0  0  0  2  0  0  0  0  0  0
  189.3800  178.7330  148.1150 N   0  0  0  0  0  2  0  0  0  0  0  0
  187.4390  177.5970  147.5420 C   0  0  1  0  0  3  0  0  0  0  0  0
  191.0430  177.1450  147.1950 C   0  0  2  0  0  3  0  0  0  0  0  0
  190.7980  177.1620  145.6950 C   0  0  0  0  0  1  0  0  0  0  0  0
  192.8580  176.2700  148.5280 O   0  0  0  0  0  1  0  0  0  0  0  0
  191.8640  175.9210  147.6160 C   0  0  0  0  0  2  0  0  0  0  0  0
  1 14  1  0  0  0  0
  2  3  1  0  0  0  0
  3 15  2  0  0  0  0
  3 39  1  0  0  0  0
  4  7  2  0  0  0  0
  5  6  1  0  0  0  0
  6  1  1  0  0  0  0
  6  9  2  0  0  0  0
  7  8  1  0  0  0  0
  7 15  1  0  0  0  0
  9 12  1  0  0  0  0
 10 13  2  0  0  0  0
 11  5  2  0  0  0  0
 11 10  1  0  0  0  0
 12  4  1  0  0  0  0
 12  2  2  0  0  0  0
 13  9  1  0  0  0  0
 14  4  1  0  0  0  0
 16 10  1  0  0  0  0
 17 27  1  0  0  0  0
 18 23  1  0  0  0  0
 19 25  1  6  0  0  0
 19 28  1  0  0  0  0
 20 29  1  6  0  0  0
 20 22  1  0  0  0  0
 21 24  1  0  0  0  0
 22 24  1  0  0  0  0
 23 20  1  0  0  0  0
 23 21  1  0  0  0  0
 24 26  1  0  0  0  0
 25 28  1  0  0  0  0
 27 21  1  0  0  0  0
 27 19  1  0  0  0  0
 28 26  1  0  0  0  0
 28  1  1  0  0  0  0
 30 31  2  0  0  0  0
 31 29  1  0  0  0  0
 31 33  1  0  0  0  0
 33 32  1  0  0  0  0
 34 39  1  0  0  0  0
 34 35  1  0  0  0  0
 34 36  1  0  0  0  0
 36 38  1  0  0  0  0
 38 37  1  0  0  0  0
 39 37  1  0  0  0  0
 40 43  1  0  0  0  0
 40 36  1  0  0  0  0
 41 40  1  0  0  0  0
 43 42  1  0  0  0  0
M  END
>  <MODEL>
3

>  <REMARK>
 VINA RESULT:      -7.4      3.710      5.759
  Name = 
  7 active torsions:
  status: ('A' for Active; 'I' for Inactive)
    1  A    between atoms: N_1  and  C_41
    2  A    between atoms: C_5  and  C_17
    3  A    between atoms: C_5  and  C_35
    4  A    between atoms: C_6  and  C_42
    5  A    between atoms: C_13  and  O_27
    6  A    between atoms: C_26  and  O_27
    7  A    between atoms: C_26  and  C_34
                            x       y       z     vdW  Elec       q    Type
                         _______ _______ _______ _____ _____    ______ ____

>  <TORSDO>
F 7

$$$$
=
 OpenBabel11062416073D

 43 49  0  0  1  0  0  0  0  0999 V2000
  184.7950  178.4820  141.4640 N   0  0  0  0  0  0  0  0  0  0  0  0
  187.0450  177.9150  144.9970 C   0  0  0  0  0  3  0  0  0  0  0  0
  186.4220  177.9440  146.2440 C   0  0  0  0  0  0  0  0  0  0  0  0
  184.9850  178.6370  143.9280 C   0  0  0  0  0  0  0  0  0  0  0  0
  186.8470  178.2050  140.0920 C   0  0  0  0  0  3  0  0  0  0  0  0
  186.2230  178.3000  141.3490 C   0  0  0  0  0  0  0  0  0  0  0  0
  184.3650  178.6990  145.1910 C   0  0  0  0  0  0  0  0  0  0  0  0
  182.9430  179.1280  145.3400 C   0  0  0  0  0  1  0  0  0  0  0  0
  187.0050  178.2060  142.5150 C   0  0  0  0  0  0  0  0  0  0  0  0
  189.0030  177.9690  141.1550 C   0  0  0  0  0  0  0  0  0  0  0  0
  188.2290  178.0430  139.9960 C   0  0  0  0  0  3  0  0  0  0  0  0
  186.3420  178.2620  143.8340 C   0  0  0  0  0  0  0  0  0  0  0  0
  188.3950  178.0460  142.4090 C   0  0  0  0  0  3  0  0  0  0  0  0
  184.2300  179.0540  142.6890 C   0  0  0  0  0  2  0  0  0  0  0  0
  185.0840  178.3550  146.3380 C   0  0  0  0  0  3  0  0  0  0  0  0
  190.3810  177.8250  141.0610 O   0  0  0  0  0  1  0  0  0  0  0  0
  180.6050  176.4310  140.1710 C   0  0  0  0  0  1  0  0  0  0  0  0
  180.0160  177.6640  137.2480 O   0  0  0  0  0  1  0  0  0  0  0  0
  182.9530  177.1770  140.3470 C   0  0  2  0  0  3  0  0  0  0  0  0
  180.1010  180.0550  137.5550 C   0  0  2  0  0  3  0  0  0  0  0  0
  181.2310  178.6060  139.0980 C   0  0  2  0  0  3  0  0  0  0  0  0
  181.5760  180.4330  137.5760 C   0  0  0  0  0  2  0  0  0  0  0  0
  179.9920  178.6780  138.2160 C   0  0  2  0  0  3  0  0  0  0  0  0
  182.2920  179.3090  138.2990 C   0  0  1  0  0  3  0  0  0  0  0  0
  184.1890  177.1580  139.4480 C   0  0  0  0  0  2  0  0  0  0  0  0
  183.5610  179.9500  139.4150 S   0  0  0  0  0  0  0  0  0  0  0  0
  181.7050  177.1980  139.4550 C   0  0  2  0  0  3  0  0  0  0  0  0
  183.9120  178.3760  140.3030 C   0  0  2  0  0  0  0  0  0  0  0  0
  179.6180  180.0630  136.2160 O   0  0  0  0  0  0  0  0  0  0  0  0
  181.2370  179.8440  134.6090 O   0  0  0  0  0  0  0  0  0  0  0  0
  180.3570  180.5670  135.1420 C   0  0  0  0  0  0  0  0  0  0  0  0
  181.0950  182.8100  135.0510 O   0  0  0  0  0  1  0  0  0  0  0  0
  180.1100  181.9350  134.5940 C   0  0  0  0  0  2  0  0  0  0  0  0
  188.4080  176.7540  147.0920 C   0  0  2  0  0  3  0  0  0  0  0  0
  188.2440  175.4710  147.6160 O   0  0  0  0  0  1  0  0  0  0  0  0
  189.5440  177.4460  147.7790 C   0  0  2  0  0  3  0  0  0  0  0  0
  187.7150  178.8050  148.1290 N   0  0  0  0  0  2  0  0  0  0  0  0
  189.1200  178.8200  148.0090 N   0  0  0  0  0  2  0  0  0  0  0  0
  187.2230  177.6030  147.4590 C   0  0  1  0  0  3  0  0  0  0  0  0
  190.8270  177.3780  146.9440 C   0  0  2  0  0  3  0  0  0  0  0  0
  190.5110  177.1890  145.4690 C   0  0  0  0  0  1  0  0  0  0  0  0
  192.0000  175.3100  146.5140 O   0  0  0  0  0  1  0  0  0  0  0  0
  191.8500  176.3470  147.4340 C   0  0  0  0  0  2  0  0  0  0  0  0
  1 14  1  0  0  0  0
  2  3  1  0  0  0  0
  3 15  2  0  0  0  0
  3 39  1  0  0  0  0
  4  7  2  0  0  0  0
  5  6  1  0  0  0  0
  6  1  1  0  0  0  0
  6  9  2  0  0  0  0
  7  8  1  0  0  0  0
  7 15  1  0  0  0  0
  9 12  1  0  0  0  0
 10 13  2  0  0  0  0
 11  5  2  0  0  0  0
 11 10  1  0  0  0  0
 12  4  1  0  0  0  0
 12  2  2  0  0  0  0
 13  9  1  0  0  0  0
 14  4  1  0  0  0  0
 16 10  1  0  0  0  0
 18 23  1  0  0  0  0
 19 25  1  6  0  0  0
 20 29  1  6  0  0  0
 20 22  1  0  0  0  0
 20 23  1  0  0  0  0
 21 27  1  0  0  0  0
 22 24  1  0  0  0  0
 23 21  1  0  0  0  0
 24 21  1  0  0  0  0
 24 26  1  0  0  0  0
 25 28  1  0  0  0  0
 26 28  1  0  0  0  0
 27 17  1  0  0  0  0
 27 19  1  0  0  0  0
 28 19  1  0  0  0  0
 28  1  1  0  0  0  0
 30 31  2  0  0  0  0
 31 29  1  0  0  0  0
 33 32  1  0  0  0  0
 33 31  1  0  0  0  0
 34 39  1  0  0  0  0
 34 35  1  0  0  0  0
 34 36  1  0  0  0  0
 36 38  1  0  0  0  0
 38 37  1  0  0  0  0
 39 37  1  0  0  0  0
 40 43  1  0  0  0  0
 40 36  1  0  0  0  0
 41 40  1  0  0  0  0
 42 43  1  0  0  0  0
M  END
>  <MODEL>
4

>  <REMARK>
 VINA RESULT:      -6.8      2.204      4.099
  Name = 
  7 active torsions:
  status: ('A' for Active; 'I' for Inactive)
    1  A    between atoms: N_1  and  C_41
    2  A    between atoms: C_5  and  C_17
    3  A    between atoms: C_5  and  C_35
    4  A    between atoms: C_6  and  C_42
    5  A    between atoms: C_13  and  O_27
    6  A    between atoms: C_26  and  O_27
    7  A    between atoms: C_26  and  C_34
                            x       y       z     vdW  Elec       q    Type
                         _______ _______ _______ _____ _____    ______ ____

>  <TORSDO>
F 7

$$$$
=
 OpenBabel11062416073D

 43 49  0  0  1  0  0  0  0  0999 V2000
  184.9380  178.7180  142.1670 N   0  0  0  0  0  0  0  0  0  0  0  0
  182.3620  179.5060  138.9100 C   0  0  0  0  0  3  0  0  0  0  0  0
  181.0220  179.8250  139.1290 C   0  0  0  0  0  0  0  0  0  0  0  0
  182.6470  178.9910  141.2680 C   0  0  0  0  0  0  0  0  0  0  0  0
  186.8310  178.3520  140.6020 C   0  0  0  0  0  3  0  0  0  0  0  0
  185.4680  178.6080  140.8280 C   0  0  0  0  0  0  0  0  0  0  0  0
  181.2850  179.2810  141.4840 C   0  0  0  0  0  0  0  0  0  0  0  0
  180.6680  179.1570  142.8370 C   0  0  0  0  0  1  0  0  0  0  0  0
  184.6060  178.7710  139.7270 C   0  0  0  0  0  0  0  0  0  0  0  0
  186.4650  178.3780  138.2150 C   0  0  0  0  0  0  0  0  0  0  0  0
  187.3270  178.2340  139.3040 C   0  0  0  0  0  3  0  0  0  0  0  0
  183.1820  179.0850  139.9660 C   0  0  0  0  0  0  0  0  0  0  0  0
  185.1120  178.6500  138.4230 C   0  0  0  0  0  3  0  0  0  0  0  0
  183.5090  178.4980  142.4050 C   0  0  0  0  0  2  0  0  0  0  0  0
  180.4830  179.6930  140.4180 C   0  0  0  0  0  3  0  0  0  0  0  0
  186.9540  178.2450  136.9220 O   0  0  0  0  0  1  0  0  0  0  0  0
  184.7300  178.1840  146.9740 C   0  0  0  0  0  1  0  0  0  0  0  0
  187.8230  178.2580  147.8890 O   0  0  0  0  0  1  0  0  0  0  0  0
  185.0780  178.9940  144.6660 C   0  0  2  0  0  3  0  0  0  0  0  0
  188.9020  176.5510  146.5690 C   0  0  2  0  0  3  0  0  0  0  0  0
  186.8520  177.5410  145.8090 C   0  0  2  0  0  3  0  0  0  0  0  0
  189.1440  177.1600  145.1950 C   0  0  0  0  0  2  0  0  0  0  0  0
  187.5830  177.1370  147.0820 C   0  0  2  0  0  3  0  0  0  0  0  0
  187.9410  178.0370  144.9010 C   0  0  1  0  0  3  0  0  0  0  0  0
  185.8550  180.1280  143.9980 C   0  0  0  0  0  2  0  0  0  0  0  0
  187.4150  177.8720  143.1800 S   0  0  0  0  0  0  0  0  0  0  0  0
  185.7880  178.6240  145.9750 C   0  0  2  0  0  3  0  0  0  0  0  0
  185.8140  178.7670  143.3370 C   0  0  2  0  0  0  0  0  0  0  0  0
  190.0020  176.8370  147.4270 O   0  0  0  0  0  0  0  0  0  0  0  0
  191.7860  177.3020  146.0650 O   0  0  0  0  0  0  0  0  0  0  0  0
  191.3340  176.6550  147.0430 C   0  0  0  0  0  0  0  0  0  0  0  0
  193.0550  176.4590  148.6510 O   0  0  0  0  0  1  0  0  0  0  0  0
  192.2420  175.7280  147.7840 C   0  0  0  0  0  2  0  0  0  0  0  0
  180.1950  181.7260  137.7940 C   0  0  2  0  0  3  0  0  0  0  0  0
  178.9330  182.2450  138.0830 O   0  0  0  0  0  1  0  0  0  0  0  0
  180.4980  181.8950  136.3370 C   0  0  2  0  0  3  0  0  0  0  0  0
  180.6520  179.6270  136.7230 N   0  0  0  0  0  2  0  0  0  0  0  0
  181.1360  180.6620  135.8970 N   0  0  0  0  0  2  0  0  0  0  0  0
  180.1770  180.2330  137.9650 C   0  0  1  0  0  3  0  0  0  0  0  0
  181.3870  183.1180  136.0890 C   0  0  2  0  0  3  0  0  0  0  0  0
  181.9320  183.6720  137.3960 C   0  0  0  0  0  1  0  0  0  0  0  0
  180.1550  185.1950  136.0480 O   0  0  0  0  0  1  0  0  0  0  0  0
  180.7350  184.2160  135.2430 C   0  0  0  0  0  2  0  0  0  0  0  0
  1 14  1  0  0  0  0
  1 28  1  0  0  0  0
  2  3  2  0  0  0  0
  2 12  1  0  0  0  0
  3 15  1  0  0  0  0
  4  7  1  0  0  0  0
  4 14  1  0  0  0  0
  5  6  1  0  0  0  0
  6  1  1  0  0  0  0
  7  8  1  0  0  0  0
  9 12  1  0  0  0  0
  9  6  2  0  0  0  0
 10 13  2  0  0  0  0
 10 11  1  0  0  0  0
 11  5  2  0  0  0  0
 12  4  2  0  0  0  0
 13  9  1  0  0  0  0
 15  7  2  0  0  0  0
 16 10  1  0  0  0  0
 19 25  1  1  0  0  0
 19 27  1  0  0  0  0
 20 23  1  0  0  0  0
 20 29  1  1  0  0  0
 21 27  1  0  0  0  0
 21 23  1  0  0  0  0
 22 20  1  0  0  0  0
 23 18  1  0  0  0  0
 24 22  1  0  0  0  0
 24 21  1  0  0  0  0
 26 28  1  0  0  0  0
 26 24  1  0  0  0  0
 27 17  1  0  0  0  0
 28 25  1  0  0  0  0
 28 19  1  0  0  0  0
 30 31  2  0  0  0  0
 31 29  1  0  0  0  0
 31 33  1  0  0  0  0
 33 32  1  0  0  0  0
 34 39  1  0  0  0  0
 34 35  1  0  0  0  0
 36 34  1  0  0  0  0
 37 39  1  0  0  0  0
 38 36  1  0  0  0  0
 38 37  1  0  0  0  0
 39  3  1  0  0  0  0
 40 36  1  0  0  0  0
 40 41  1  0  0  0  0
 43 42  1  0  0  0  0
 43 40  1  0  0  0  0
M  END
>  <MODEL>
5

>  <REMARK>
 VINA RESULT:      -6.7      2.562     11.289
  Name = 
  7 active torsions:
  status: ('A' for Active; 'I' for Inactive)
    1  A    between atoms: N_1  and  C_41
    2  A    between atoms: C_5  and  C_17
    3  A    between atoms: C_5  and  C_35
    4  A    between atoms: C_6  and  C_42
    5  A    between atoms: C_13  and  O_27
    6  A    between atoms: C_26  and  O_27
    7  A    between atoms: C_26  and  C_34
                            x       y       z     vdW  Elec       q    Type
                         _______ _______ _______ _____ _____    ______ ____

>  <TORSDO>
F 7

$$$$
=
 OpenBabel11062416073D

 43 49  0  0  1  0  0  0  0  0999 V2000
  184.8910  178.5620  141.9290 N   0  0  0  0  0  0  0  0  0  0  0  0
  182.2810  179.1080  138.6500 C   0  0  0  0  0  3  0  0  0  0  0  0
  180.9190  179.3220  138.8590 C   0  0  0  0  0  0  0  0  0  0  0  0
  182.5920  178.6430  141.0150 C   0  0  0  0  0  0  0  0  0  0  0  0
  186.8170  178.3290  140.3790 C   0  0  0  0  0  3  0  0  0  0  0  0
  185.4360  178.4790  140.5940 C   0  0  0  0  0  0  0  0  0  0  0  0
  181.2100  178.8270  141.2210 C   0  0  0  0  0  0  0  0  0  0  0  0
  180.5960  178.6700  142.5730 C   0  0  0  0  0  1  0  0  0  0  0  0
  184.5710  178.5620  139.4870 C   0  0  0  0  0  0  0  0  0  0  0  0
  186.4640  178.3000  137.9890 C   0  0  0  0  0  0  0  0  0  0  0  0
  187.3280  178.2360  139.0840 C   0  0  0  0  0  3  0  0  0  0  0  0
  183.1250  178.7650  139.7150 C   0  0  0  0  0  0  0  0  0  0  0  0
  185.0930  178.4660  138.1880 C   0  0  0  0  0  3  0  0  0  0  0  0
  183.4830  178.2320  142.1620 C   0  0  0  0  0  2  0  0  0  0  0  0
  180.3840  179.1630  140.1460 C   0  0  0  0  0  3  0  0  0  0  0  0
  186.9700  178.1910  136.7000 O   0  0  0  0  0  1  0  0  0  0  0  0
  184.6630  178.2000  146.7510 C   0  0  0  0  0  1  0  0  0  0  0  0
  187.7420  178.4430  147.6850 O   0  0  0  0  0  1  0  0  0  0  0  0
  184.9970  178.9370  144.4170 C   0  0  2  0  0  3  0  0  0  0  0  0
  188.9050  176.7360  146.4400 C   0  0  2  0  0  3  0  0  0  0  0  0
  186.8220  177.6060  145.6270 C   0  0  2  0  0  3  0  0  0  0  0  0
  189.1330  177.3030  145.0450 C   0  0  0  0  0  2  0  0  0  0  0  0
  187.5580  177.2830  146.9200 C   0  0  2  0  0  3  0  0  0  0  0  0
  187.8970  178.1150  144.7090 C   0  0  1  0  0  3  0  0  0  0  0  0
  185.7300  180.0780  143.7120 C   0  0  0  0  0  2  0  0  0  0  0  0
  187.3930  177.8630  142.9920 S   0  0  0  0  0  0  0  0  0  0  0  0
  185.7100  178.6480  145.7440 C   0  0  2  0  0  3  0  0  0  0  0  0
  185.7540  178.6930  143.1030 C   0  0  2  0  0  0  0  0  0  0  0  0
  189.9840  177.1010  147.2940 O   0  0  0  0  0  0  0  0  0  0  0  0
  192.0130  177.4800  146.2960 O   0  0  0  0  0  0  0  0  0  0  0  0
  191.3120  176.7460  147.0380 C   0  0  0  0  0  0  0  0  0  0  0  0
  193.0230  175.8960  148.4300 O   0  0  0  0  0  1  0  0  0  0  0  0
  191.9280  175.5290  147.6470 C   0  0  0  0  0  2  0  0  0  0  0  0
  180.8420  179.5920  136.4090 C   0  0  2  0  0  3  0  0  0  0  0  0
  180.9600  180.8750  135.8750 O   0  0  0  0  0  1  0  0  0  0  0  0
  179.9850  178.7440  135.5200 C   0  0  2  0  0  3  0  0  0  0  0  0
  178.9340  178.7130  137.5720 N   0  0  0  0  0  2  0  0  0  0  0  0
  179.1210  177.9620  136.3930 N   0  0  0  0  0  2  0  0  0  0  0  0
  180.0510  179.6490  137.6870 C   0  0  1  0  0  3  0  0  0  0  0  0
  180.8360  177.8500  134.6110 C   0  0  2  0  0  3  0  0  0  0  0  0
  180.3060  176.4260  134.5940 C   0  0  0  0  0  1  0  0  0  0  0  0
  182.6710  176.9870  135.9250 O   0  0  0  0  0  1  0  0  0  0  0  0
  182.3380  177.8860  134.9120 C   0  0  0  0  0  2  0  0  0  0  0  0
  1 14  1  0  0  0  0
  1 28  1  0  0  0  0
  2  3  2  0  0  0  0
  2 12  1  0  0  0  0
  3 15  1  0  0  0  0
  4  7  1  0  0  0  0
  4 14  1  0  0  0  0
  5  6  1  0  0  0  0
  6  1  1  0  0  0  0
  7  8  1  0  0  0  0
  9 12  1  0  0  0  0
  9  6  2  0  0  0  0
 10 13  2  0  0  0  0
 10 11  1  0  0  0  0
 11  5  2  0  0  0  0
 12  4  2  0  0  0  0
 13  9  1  0  0  0  0
 15  7  2  0  0  0  0
 16 10  1  0  0  0  0
 19 25  1  1  0  0  0
 19 27  1  0  0  0  0
 20 23  1  0  0  0  0
 20 29  1  1  0  0  0
 21 27  1  0  0  0  0
 21 23  1  0  0  0  0
 22 20  1  0  0  0  0
 23 18  1  0  0  0  0
 24 22  1  0  0  0  0
 24 21  1  0  0  0  0
 26 28  1  0  0  0  0
 26 24  1  0  0  0  0
 27 17  1  0  0  0  0
 28 25  1  0  0  0  0
 28 19  1  0  0  0  0
 30 31  2  0  0  0  0
 31 29  1  0  0  0  0
 31 33  1  0  0  0  0
 33 32  1  0  0  0  0
 34 39  1  0  0  0  0
 35 34  1  0  0  0  0
 36 38  1  0  0  0  0
 36 34  1  0  0  0  0
 37 39  1  0  0  0  0
 38 37  1  0  0  0  0
 39  3  1  0  0  0  0
 40 43  1  0  0  0  0
 40 36  1  0  0  0  0
 41 40  1  0  0  0  0
 43 42  1  0  0  0  0
M  END
>  <MODEL>
6

>  <REMARK>
 VINA RESULT:      -6.7      3.014     11.118
  Name = 
  7 active torsions:
  status: ('A' for Active; 'I' for Inactive)
    1  A    between atoms: N_1  and  C_41
    2  A    between atoms: C_5  and  C_17
    3  A    between atoms: C_5  and  C_35
    4  A    between atoms: C_6  and  C_42
    5  A    between atoms: C_13  and  O_27
    6  A    between atoms: C_26  and  O_27
    7  A    between atoms: C_26  and  C_34
                            x       y       z     vdW  Elec       q    Type
                         _______ _______ _______ _____ _____    ______ ____

>  <TORSDO>
F 7

$$$$
=
 OpenBabel11062416073D

 43 49  0  0  1  0  0  0  0  0999 V2000
  188.2170  177.2930  138.6430 N   0  0  0  0  0  0  0  0  0  0  0  0
  192.3270  176.3940  138.2310 C   0  0  0  0  0  3  0  0  0  0  0  0
  192.8390  175.9770  137.0030 C   0  0  0  0  0  0  0  0  0  0  0  0
  190.0640  176.2640  137.3540 C   0  0  0  0  0  0  0  0  0  0  0  0
  188.5660  177.8700  141.0330 C   0  0  0  0  0  3  0  0  0  0  0  0
  189.0630  177.3880  139.8100 C   0  0  0  0  0  0  0  0  0  0  0  0
  190.5790  175.8100  136.1230 C   0  0  0  0  0  0  0  0  0  0  0  0
  189.6810  175.4720  134.9800 C   0  0  0  0  0  1  0  0  0  0  0  0
  190.4130  177.0010  139.7190 C   0  0  0  0  0  0  0  0  0  0  0  0
  190.7240  177.5400  142.0670 C   0  0  0  0  0  0  0  0  0  0  0  0
  189.3900  177.9430  142.1560 C   0  0  0  0  0  3  0  0  0  0  0  0
  190.9450  176.5370  138.4210 C   0  0  0  0  0  0  0  0  0  0  0  0
  191.2360  177.0760  140.8540 C   0  0  0  0  0  3  0  0  0  0  0  0
  188.5720  176.3730  137.5590 C   0  0  0  0  0  2  0  0  0  0  0  0
  191.9580  175.6680  135.9550 C   0  0  0  0  0  3  0  0  0  0  0  0
  191.5420  177.5970  143.1880 O   0  0  0  0  0  1  0  0  0  0  0  0
  183.8040  176.3440  136.8930 C   0  0  0  0  0  1  0  0  0  0  0  0
  181.9450  178.6200  138.2250 O   0  0  0  0  0  1  0  0  0  0  0  0
  185.9820  177.3490  137.4840 C   0  0  2  0  0  3  0  0  0  0  0  0
  182.3280  178.4250  140.5980 C   0  0  2  0  0  3  0  0  0  0  0  0
  183.9690  177.6140  139.0470 C   0  0  2  0  0  3  0  0  0  0  0  0
  183.6460  179.1320  140.8800 C   0  0  0  0  0  2  0  0  0  0  0  0
  182.4650  177.7780  139.2170 C   0  0  2  0  0  3  0  0  0  0  0  0
  184.5480  178.8380  139.6970 C   0  0  1  0  0  3  0  0  0  0  0  0
  186.6170  178.7380  137.4050 C   0  0  0  0  0  2  0  0  0  0  0  0
  186.2400  178.4950  140.2320 S   0  0  0  0  0  0  0  0  0  0  0  0
  184.4620  177.5160  137.6040 C   0  0  2  0  0  3  0  0  0  0  0  0
  186.8750  177.8720  138.6200 C   0  0  2  0  0  0  0  0  0  0  0  0
  181.2530  179.3550  140.6660 O   0  0  0  0  0  0  0  0  0  0  0  0
  180.4040  180.4350  142.5020 O   0  0  0  0  0  0  0  0  0  0  0  0
  180.3740  179.4270  141.7510 C   0  0  0  0  0  0  0  0  0  0  0  0
  179.6890  177.7210  143.2370 O   0  0  0  0  0  1  0  0  0  0  0  0
  179.3810  178.3450  142.0270 C   0  0  0  0  0  2  0  0  0  0  0  0
  194.7690  174.5380  137.5360 C   0  0  2  0  0  3  0  0  0  0  0  0
  195.5540  174.8560  138.6450 O   0  0  0  0  0  1  0  0  0  0  0  0
  195.6100  173.8760  136.4880 C   0  0  2  0  0  3  0  0  0  0  0  0
  194.7110  175.7310  135.4530 N   0  0  0  0  0  2  0  0  0  0  0  0
  195.1930  174.4290  135.2070 N   0  0  0  0  0  2  0  0  0  0  0  0
  194.3170  175.8020  136.8590 C   0  0  1  0  0  3  0  0  0  0  0  0
  195.4570  172.3520  136.5280 C   0  0  2  0  0  3  0  0  0  0  0  0
  193.9970  171.9450  136.4180 C   0  0  0  0  0  1  0  0  0  0  0  0
  195.2790  170.7750  138.3500 O   0  0  0  0  0  1  0  0  0  0  0  0
  196.1380  171.6770  137.7240 C   0  0  0  0  0  2  0  0  0  0  0  0
  1  6  1  0  0  0  0
  2 12  1  0  0  0  0
  3  2  2  0  0  0  0
  4 14  1  0  0  0  0
  4 12  2  0  0  0  0
  5 11  1  0  0  0  0
  6  5  2  0  0  0  0
  7  4  1  0  0  0  0
  8  7  1  0  0  0  0
  9  6  1  0  0  0  0
  9 13  2  0  0  0  0
 10 11  2  0  0  0  0
 10 16  1  0  0  0  0
 12  9  1  0  0  0  0
 13 10  1  0  0  0  0
 14  1  1  0  0  0  0
 15  7  2  0  0  0  0
 15  3  1  0  0  0  0
 17 27  1  0  0  0  0
 18 23  1  0  0  0  0
 19 25  1  6  0  0  0
 19 27  1  0  0  0  0
 19 28  1  0  0  0  0
 20 29  1  6  0  0  0
 20 22  1  0  0  0  0
 21 23  1  0  0  0  0
 21 24  1  0  0  0  0
 23 20  1  0  0  0  0
 24 26  1  0  0  0  0
 24 22  1  0  0  0  0
 25 28  1  0  0  0  0
 27 21  1  0  0  0  0
 28  1  1  0  0  0  0
 28 26  1  0  0  0  0
 29 31  1  0  0  0  0
 31 33  1  0  0  0  0
 31 30  2  0  0  0  0
 33 32  1  0  0  0  0
 34 35  1  0  0  0  0
 36 40  1  0  0  0  0
 36 34  1  0  0  0  0
 37 39  1  0  0  0  0
 38 37  1  0  0  0  0
 38 36  1  0  0  0  0
 39  3  1  0  0  0  0
 39 34  1  0  0  0  0
 40 43  1  0  0  0  0
 41 40  1  0  0  0  0
 43 42  1  0  0  0  0
M  END
>  <MODEL>
7

>  <REMARK>
 VINA RESULT:      -6.1      4.792      6.841
  Name = 
  7 active torsions:
  status: ('A' for Active; 'I' for Inactive)
    1  A    between atoms: N_1  and  C_41
    2  A    between atoms: C_5  and  C_17
    3  A    between atoms: C_5  and  C_35
    4  A    between atoms: C_6  and  C_42
    5  A    between atoms: C_13  and  O_27
    6  A    between atoms: C_26  and  O_27
    7  A    between atoms: C_26  and  C_34
                            x       y       z     vdW  Elec       q    Type
                         _______ _______ _______ _____ _____    ______ ____

>  <TORSDO>
F 7

$$$$
=
 OpenBabel11062416073D

 43 49  0  0  1  0  0  0  0  0999 V2000
  186.6900  177.8500  138.2280 N   0  0  0  0  0  0  0  0  0  0  0  0
  182.5930  177.6980  139.2560 C   0  0  0  0  0  3  0  0  0  0  0  0
  181.6430  177.3040  138.3160 C   0  0  0  0  0  0  0  0  0  0  0  0
  184.3150  177.7100  137.5420 C   0  0  0  0  0  0  0  0  0  0  0  0
  187.2570  178.5920  140.5290 C   0  0  0  0  0  3  0  0  0  0  0  0
  186.2980  178.2560  139.5580 C   0  0  0  0  0  0  0  0  0  0  0  0
  183.3490  177.3440  136.5840 C   0  0  0  0  0  0  0  0  0  0  0  0
  183.7060  177.1610  135.1460 C   0  0  0  0  0  1  0  0  0  0  0  0
  184.9320  178.3060  139.8920 C   0  0  0  0  0  0  0  0  0  0  0  0
  185.5070  179.0620  142.1270 C   0  0  0  0  0  0  0  0  0  0  0  0
  186.8650  178.9960  141.8050 C   0  0  0  0  0  3  0  0  0  0  0  0
  183.9280  177.9090  138.8830 C   0  0  0  0  0  0  0  0  0  0  0  0
  184.5450  178.7150  141.1780 C   0  0  0  0  0  3  0  0  0  0  0  0
  185.7400  177.9750  137.1190 C   0  0  0  0  0  2  0  0  0  0  0  0
  182.0220  177.1450  136.9740 C   0  0  0  0  0  3  0  0  0  0  0  0
  185.1140  179.4790  143.3920 O   0  0  0  0  0  1  0  0  0  0  0  0
  191.0210  177.5030  140.3630 C   0  0  0  0  0  1  0  0  0  0  0  0
  192.9470  176.4080  138.0180 O   0  0  0  0  0  1  0  0  0  0  0  0
  189.0980  178.0870  138.9270 C   0  0  2  0  0  3  0  0  0  0  0  0
  191.8740  174.4010  137.2190 C   0  0  2  0  0  3  0  0  0  0  0  0
  190.5860  176.0850  138.3450 C   0  0  2  0  0  3  0  0  0  0  0  0
  190.7560  174.8530  136.2890 C   0  0  0  0  0  2  0  0  0  0  0  0
  191.9710  175.4510  138.3290 C   0  0  2  0  0  3  0  0  0  0  0  0
  190.1810  176.1170  136.8980 C   0  0  1  0  0  3  0  0  0  0  0  0
  188.8890  178.8310  137.6080 C   0  0  0  0  0  2  0  0  0  0  0  0
  188.3780  176.1410  136.7770 S   0  0  0  0  0  0  0  0  0  0  0  0
  190.5130  177.4940  138.9310 C   0  0  2  0  0  3  0  0  0  0  0  0
  188.0860  177.5790  137.8890 C   0  0  2  0  0  0  0  0  0  0  0  0
  193.0860  174.2590  136.4880 O   0  0  0  0  0  0  0  0  0  0  0  0
  193.9690  172.1440  136.4150 O   0  0  0  0  0  0  0  0  0  0  0  0
  194.0750  173.3290  136.8240 C   0  0  0  0  0  0  0  0  0  0  0  0
  195.3100  172.9490  138.8030 O   0  0  0  0  0  1  0  0  0  0  0  0
  195.2680  173.7140  137.6360 C   0  0  0  0  0  2  0  0  0  0  0  0
  180.1270  177.1280  140.2530 C   0  0  2  0  0  3  0  0  0  0  0  0
  179.7560  175.8580  140.6970 O   0  0  0  0  0  1  0  0  0  0  0  0
  179.0250  178.1060  140.5210 C   0  0  2  0  0  3  0  0  0  0  0  0
  179.3720  178.2010  138.2430 N   0  0  0  0  0  2  0  0  0  0  0  0
  178.9310  178.9620  139.3460 N   0  0  0  0  0  2  0  0  0  0  0  0
  180.2230  177.1280  138.7530 C   0  0  1  0  0  3  0  0  0  0  0  0
  179.2930  178.9150  141.7940 C   0  0  2  0  0  3  0  0  0  0  0  0
  179.6780  180.3470  141.4620 C   0  0  0  0  0  1  0  0  0  0  0  0
  179.6790  177.8640  143.9350 O   0  0  0  0  0  1  0  0  0  0  0  0
  180.2990  178.2720  142.7550 C   0  0  0  0  0  2  0  0  0  0  0  0
  1  6  1  0  0  0  0
  3 39  1  0  0  0  0
  3  2  2  0  0  0  0
  4 12  2  0  0  0  0
  5 11  1  0  0  0  0
  6  9  1  0  0  0  0
  6  5  2  0  0  0  0
  7 15  2  0  0  0  0
  7  4  1  0  0  0  0
  8  7  1  0  0  0  0
  9 13  2  0  0  0  0
 10 16  1  0  0  0  0
 11 10  2  0  0  0  0
 12  2  1  0  0  0  0
 12  9  1  0  0  0  0
 13 10  1  0  0  0  0
 14  4  1  0  0  0  0
 14  1  1  0  0  0  0
 15  3  1  0  0  0  0
 18 23  1  0  0  0  0
 19 25  1  6  0  0  0
 19 27  1  0  0  0  0
 20 29  1  6  0  0  0
 20 23  1  0  0  0  0
 21 27  1  0  0  0  0
 22 24  1  0  0  0  0
 22 20  1  0  0  0  0
 23 21  1  0  0  0  0
 24 21  1  0  0  0  0
 25 28  1  0  0  0  0
 26 24  1  0  0  0  0
 26 28  1  0  0  0  0
 27 17  1  0  0  0  0
 28  1  1  0  0  0  0
 28 19  1  0  0  0  0
 29 31  1  0  0  0  0
 30 31  2  0  0  0  0
 31 33  1  0  0  0  0
 33 32  1  0  0  0  0
 34 36  1  0  0  0  0
 34 35  1  0  0  0  0
 36 40  1  0  0  0  0
 37 39  1  0  0  0  0
 37 38  1  0  0  0  0
 38 36  1  0  0  0  0
 39 34  1  0  0  0  0
 40 43  1  0  0  0  0
 41 40  1  0  0  0  0
 43 42  1  0  0  0  0
M  END
>  <MODEL>
8

>  <REMARK>
 VINA RESULT:      -5.9      4.548     10.666
  Name = 
  7 active torsions:
  status: ('A' for Active; 'I' for Inactive)
    1  A    between atoms: N_1  and  C_41
    2  A    between atoms: C_5  and  C_17
    3  A    between atoms: C_5  and  C_35
    4  A    between atoms: C_6  and  C_42
    5  A    between atoms: C_13  and  O_27
    6  A    between atoms: C_26  and  O_27
    7  A    between atoms: C_26  and  C_34
                            x       y       z     vdW  Elec       q    Type
                         _______ _______ _______ _____ _____    ______ ____

>  <TORSDO>
F 7

$$$$
=
 OpenBabel11062416073D

 43 49  0  0  1  0  0  0  0  0999 V2000
  186.8540  177.8200  142.9550 N   0  0  0  0  0  0  0  0  0  0  0  0
  183.5910  179.0130  140.5490 C   0  0  0  0  0  3  0  0  0  0  0  0
  183.7080  179.0340  139.1590 C   0  0  0  0  0  0  0  0  0  0  0  0
  185.9670  178.5510  140.7620 C   0  0  0  0  0  0  0  0  0  0  0  0
  185.4920  178.1630  145.0030 C   0  0  0  0  0  3  0  0  0  0  0  0
  185.6370  178.2430  143.6070 C   0  0  0  0  0  0  0  0  0  0  0  0
  186.0920  178.6040  139.3590 C   0  0  0  0  0  0  0  0  0  0  0  0
  187.4100  178.4090  138.6860 C   0  0  0  0  0  1  0  0  0  0  0  0
  184.5720  178.7360  142.8300 C   0  0  0  0  0  0  0  0  0  0  0  0
  183.2680  179.0940  144.8480 C   0  0  0  0  0  0  0  0  0  0  0  0
  184.3160  178.5880  145.6200 C   0  0  0  0  0  3  0  0  0  0  0  0
  184.7100  178.7780  141.3600 C   0  0  0  0  0  0  0  0  0  0  0  0
  183.3920  179.1640  143.4590 C   0  0  0  0  0  3  0  0  0  0  0  0
  187.1870  178.3390  141.6250 C   0  0  0  0  0  2  0  0  0  0  0  0
  184.9660  178.8470  138.5680 C   0  0  0  0  0  3  0  0  0  0  0  0
  182.1030  179.5340  145.4620 O   0  0  0  0  0  1  0  0  0  0  0  0
  191.6670  177.2960  142.9290 C   0  0  0  0  0  1  0  0  0  0  0  0
  192.2680  175.5940  145.6030 O   0  0  0  0  0  1  0  0  0  0  0  0
  189.2200  176.9580  142.8990 C   0  0  2  0  0  3  0  0  0  0  0  0
  191.2390  176.8530  147.3850 C   0  0  2  0  0  3  0  0  0  0  0  0
  190.4760  177.1260  145.1260 C   0  0  2  0  0  3  0  0  0  0  0  0
  189.7520  176.5280  147.3380 C   0  0  0  0  0  2  0  0  0  0  0  0
  191.7350  176.8480  145.9360 C   0  0  2  0  0  3  0  0  0  0  0  0
  189.3920  176.3990  145.8710 C   0  0  1  0  0  3  0  0  0  0  0  0
  188.2660  175.7760  143.0630 C   0  0  0  0  0  2  0  0  0  0  0  0
  187.7960  177.1700  145.5180 S   0  0  0  0  0  0  0  0  0  0  0  0
  190.5090  176.6530  143.6740 C   0  0  2  0  0  3  0  0  0  0  0  0
  187.9060  177.1100  143.6810 C   0  0  2  0  0  0  0  0  0  0  0  0
  191.9180  175.9070  148.2040 O   0  0  0  0  0  0  0  0  0  0  0  0
  194.2050  175.8030  148.0930 O   0  0  0  0  0  0  0  0  0  0  0  0
  193.1850  176.1390  148.7470 C   0  0  0  0  0  0  0  0  0  0  0  0
  194.2890  177.8340  149.9700 O   0  0  0  0  0  1  0  0  0  0  0  0
  193.3580  176.7990  150.0760 C   0  0  0  0  0  2  0  0  0  0  0  0
  181.3160  178.5320  138.8290 C   0  0  2  0  0  3  0  0  0  0  0  0
  180.9590  177.5830  137.8700 O   0  0  0  0  0  1  0  0  0  0  0  0
  180.2390  179.5660  138.9510 C   0  0  2  0  0  3  0  0  0  0  0  0
  182.1410  180.7440  138.3920 N   0  0  0  0  0  2  0  0  0  0  0  0
  180.9080  180.8550  139.0670 N   0  0  0  0  0  2  0  0  0  0  0  0
  182.4940  179.3270  138.3370 C   0  0  1  0  0  3  0  0  0  0  0  0
  179.3290  179.2860  140.1520 C   0  0  2  0  0  3  0  0  0  0  0  0
  179.8290  180.0010  141.3960 C   0  0  0  0  0  1  0  0  0  0  0  0
  179.8150  177.3540  141.5190 O   0  0  0  0  0  1  0  0  0  0  0  0
  179.0760  177.7990  140.4230 C   0  0  0  0  0  2  0  0  0  0  0  0
  1  6  1  0  0  0  0
  1 28  1  0  0  0  0
  2 12  1  0  0  0  0
  3  2  2  0  0  0  0
  4 12  2  0  0  0  0
  4 14  1  0  0  0  0
  5 11  1  0  0  0  0
  6  5  2  0  0  0  0
  7  4  1  0  0  0  0
  8  7  1  0  0  0  0
  9 13  2  0  0  0  0
  9  6  1  0  0  0  0
 10 16  1  0  0  0  0
 10 11  2  0  0  0  0
 12  9  1  0  0  0  0
 13 10  1  0  0  0  0
 14  1  1  0  0  0  0
 15  3  1  0  0  0  0
 15  7  2  0  0  0  0
 17 27  1  0  0  0  0
 18 23  1  0  0  0  0
 19 25  1  6  0  0  0
 19 27  1  0  0  0  0
 19 28  1  0  0  0  0
 20 29  1  1  0  0  0
 21 24  1  0  0  0  0
 21 23  1  0  0  0  0
 22 20  1  0  0  0  0
 23 20  1  0  0  0  0
 24 22  1  0  0  0  0
 25 28  1  0  0  0  0
 26 24  1  0  0  0  0
 27 21  1  0  0  0  0
 28 26  1  0  0  0  0
 29 31  1  0  0  0  0
 30 31  2  0  0  0  0
 31 33  1  0  0  0  0
 32 33  1  0  0  0  0
 34 36  1  0  0  0  0
 35 34  1  0  0  0  0
 36 38  1  0  0  0  0
 36 40  1  0  0  0  0
 37 38  1  0  0  0  0
 39 37  1  0  0  0  0
 39 34  1  0  0  0  0
 39  3  1  0  0  0  0
 40 43  1  0  0  0  0
 40 41  1  0  0  0  0
 43 42  1  0  0  0  0
M  END
>  <MODEL>
9

>  <REMARK>
 VINA RESULT:      -5.7      3.179     11.165
  Name = 
  7 active torsions:
  status: ('A' for Active; 'I' for Inactive)
    1  A    between atoms: N_1  and  C_41
    2  A    between atoms: C_5  and  C_17
    3  A    between atoms: C_5  and  C_35
    4  A    between atoms: C_6  and  C_42
    5  A    between atoms: C_13  and  O_27
    6  A    between atoms: C_26  and  O_27
    7  A    between atoms: C_26  and  C_34
                            x       y       z     vdW  Elec       q    Type
                         _______ _______ _______ _____ _____    ______ ____

>  <TORSDO>
F 7

$$$$
