=
 OpenBabel11062414123D

 32 37  0  0  1  0  0  0  0  0999 V2000
  183.6610  178.3220  142.0610 C   0  0  1  0  0  3  0  0  0  0  0  0
  184.9890  178.3080  144.1260 C   0  0  0  0  0  0  0  0  0  0  0  0
  183.8720  178.8280  144.8410 C   0  0  0  0  0  0  0  0  0  0  0  0
  184.1290  179.0320  146.0900 N   0  0  0  0  0  0  0  0  0  0  0  0
  182.6490  179.1490  144.1830 N   0  0  0  0  0  0  0  0  0  0  0  0
  185.4960  178.6260  146.2810 C   0  0  0  0  0  3  0  0  0  0  0  0
  184.9540  178.0790  142.8200 C   0  0  0  0  0  3  0  0  0  0  0  0
  186.0290  178.1950  145.1320 C   0  0  0  0  0  0  0  0  0  0  0  0
  182.5370  178.9320  142.9010 C   0  0  0  0  0  3  0  0  0  0  0  0
  190.2360  176.3920  147.1200 C   0  0  0  0  0  2  0  0  0  0  0  0
  191.6020  176.7220  146.6200 C   0  0  0  0  0  0  0  0  0  0  0  0
  191.6120  177.3940  145.2840 C   0  0  0  0  0  2  0  0  0  0  0  0
  188.1060  178.0540  143.7140 C   0  0  0  0  0  2  0  0  0  0  0  0
  192.6190  176.4630  147.2430 O   0  0  0  0  0  0  0  0  0  0  0  0
  189.4000  177.1810  146.1400 C   0  0  2  0  0  3  0  0  0  0  0  0
  189.5990  178.3320  143.9820 C   0  0  0  0  0  2  0  0  0  0  0  0
  190.0650  175.9880  144.1590 O   0  0  0  0  0  1  0  0  0  0  0  0
  187.3770  177.7350  144.9540 N   0  0  0  0  0  0  0  0  0  0  0  0
  187.9550  176.7820  145.9120 C   0  0  0  0  0  2  0  0  0  0  0  0
  190.1740  177.2100  144.8370 C   0  0  1  0  0  0  0  0  0  0  0  0
  183.9110  179.1300  140.9500 O   0  0  0  0  0  0  0  0  0  0  0  0
  183.7200  179.0240  138.5430 C   0  0  0  0  0  2  0  0  0  0  0  0
  182.8750  177.1550  140.0430 C   0  0  0  0  0  2  0  0  0  0  0  0
  181.7920  177.3070  139.1660 O   0  0  0  0  0  0  0  0  0  0  0  0
  181.5290  179.6340  137.5950 C   0  0  0  0  0  2  0  0  0  0  0  0
  183.9200  178.2590  139.8550 C   0  0  2  0  0  3  0  0  0  0  0  0
  180.9980  178.3150  139.7300 C   0  0  1  0  0  3  0  0  0  0  0  0
  181.1920  179.6940  139.0690 C   0  0  1  0  0  3  0  0  0  0  0  0
  182.6020  180.0760  138.5800 C   0  0  1  0  0  3  0  0  0  0  0  0
  179.5310  177.9220  139.6680 C   0  0  0  0  0  2  0  0  0  0  0  0
  179.2570  176.8180  140.5920 C   0  0  0  0  0  0  0  0  0  0  0  0
  179.0400  175.9460  141.3200 N   0  0  0  0  0  0  0  0  0  0  0  0
  1 21  1  6  0  0  0
  1  7  1  0  0  0  0
  1  9  1  0  0  0  0
  2  3  1  0  0  0  0
  2  8  1  0  0  0  0
  3  4  2  0  0  0  0
  4  6  1  0  0  0  0
  5  3  1  0  0  0  0
  7  2  2  0  0  0  0
  8  6  2  0  0  0  0
  9  5  2  0  0  0  0
 11 10  1  0  0  0  0
 11 14  2  0  0  0  0
 12 11  1  0  0  0  0
 13 16  1  0  0  0  0
 13 18  1  0  0  0  0
 15 19  1  6  0  0  0
 15 10  1  0  0  0  0
 16 20  1  0  0  0  0
 18  8  1  0  0  0  0
 18 19  1  0  0  0  0
 20 17  1  6  0  0  0
 20 12  1  0  0  0  0
 20 15  1  0  0  0  0
 22 29  1  0  0  0  0
 22 26  1  0  0  0  0
 24 27  1  0  0  0  0
 24 23  1  0  0  0  0
 26 23  1  0  0  0  0
 26 21  1  1  0  0  0
 27 30  1  6  0  0  0
 28 25  1  6  0  0  0
 28 27  1  0  0  0  0
 29 25  1  6  0  0  0
 29 28  1  0  0  0  0
 30 31  1  0  0  0  0
 31 32  3  0  0  0  0
M  END
>  <MODEL>
1

>  <REMARK>
 VINA RESULT:      -8.4      0.000      0.000
  Name = 
  5 active torsions:
  status: ('A' for Active; 'I' for Inactive)
    1  A    between atoms: C_3  and  O_26
    2  A    between atoms: C_11  and  C_14
    3  A    between atoms: C_14  and  C_19
    4  A    between atoms: C_17  and  O_26
    5  A    between atoms: N_27  and  C_28
                            x       y       z     vdW  Elec       q    Type
                         _______ _______ _______ _____ _____    ______ ____

>  <TORSDO>
F 5

$$$$
=
 OpenBabel11062414123D

 32 37  0  0  1  0  0  0  0  0999 V2000
  190.0480  176.0230  137.2390 C   0  0  1  0  0  3  0  0  0  0  0  0
  189.1960  177.1030  139.2720 C   0  0  0  0  0  0  0  0  0  0  0  0
  188.2000  177.7620  138.4960 C   0  0  0  0  0  0  0  0  0  0  0  0
  187.4520  178.5420  139.2040 N   0  0  0  0  0  0  0  0  0  0  0  0
  188.1330  177.6080  137.0820 N   0  0  0  0  0  0  0  0  0  0  0  0
  187.9280  178.4250  140.5560 C   0  0  0  0  0  3  0  0  0  0  0  0
  190.1030  176.2990  138.7320 C   0  0  0  0  0  3  0  0  0  0  0  0
  188.9630  177.5790  140.6230 C   0  0  0  0  0  0  0  0  0  0  0  0
  188.9830  176.8180  136.4840 C   0  0  0  0  0  3  0  0  0  0  0  0
  189.0200  176.8900  145.5660 C   0  0  0  0  0  2  0  0  0  0  0  0
  190.1830  177.2190  146.4390 C   0  0  0  0  0  0  0  0  0  0  0  0
  191.4480  177.4870  145.6880 C   0  0  0  0  0  2  0  0  0  0  0  0
  191.1670  177.2810  141.8060 C   0  0  0  0  0  2  0  0  0  0  0  0
  190.1100  177.2610  147.6570 O   0  0  0  0  0  0  0  0  0  0  0  0
  189.5860  177.2740  144.2190 C   0  0  2  0  0  3  0  0  0  0  0  0
  191.7330  177.7890  143.1470 C   0  0  0  0  0  2  0  0  0  0  0  0
  191.3670  175.6570  144.1780 O   0  0  0  0  0  1  0  0  0  0  0  0
  189.6940  177.2420  141.8120 N   0  0  0  0  0  0  0  0  0  0  0  0
  188.9870  176.6670  142.9640 C   0  0  0  0  0  2  0  0  0  0  0  0
  191.0790  177.0240  144.2910 C   0  0  1  0  0  0  0  0  0  0  0  0
  191.3030  176.2560  136.6700 O   0  0  0  0  0  0  0  0  0  0  0  0
  192.1860  174.0090  136.5500 C   0  0  0  0  0  2  0  0  0  0  0  0
  192.3420  175.6220  134.5940 C   0  0  0  0  0  2  0  0  0  0  0  0
  193.6460  175.1100  134.6240 O   0  0  0  0  0  0  0  0  0  0  0  0
  194.6120  173.7710  136.9110 C   0  0  0  0  0  2  0  0  0  0  0  0
  191.5240  175.1750  135.8090 C   0  0  2  0  0  3  0  0  0  0  0  0
  194.3410  175.9190  135.5330 C   0  0  1  0  0  3  0  0  0  0  0  0
  194.5010  175.2810  136.9280 C   0  0  1  0  0  3  0  0  0  0  0  0
  193.3490  174.4120  137.4690 C   0  0  1  0  0  3  0  0  0  0  0  0
  195.7090  176.2760  134.9770 C   0  0  0  0  0  2  0  0  0  0  0  0
  195.9270  177.7240  135.0450 C   0  0  0  0  0  0  0  0  0  0  0  0
  196.0980  178.8670  135.0990 N   0  0  0  0  0  0  0  0  0  0  0  0
  1 21  1  6  0  0  0
  1  7  1  0  0  0  0
  2  8  1  0  0  0  0
  3  4  2  0  0  0  0
  3  2  1  0  0  0  0
  4  6  1  0  0  0  0
  5  3  1  0  0  0  0
  6  8  2  0  0  0  0
  7  2  2  0  0  0  0
  8 18  1  0  0  0  0
  9  5  2  0  0  0  0
  9  1  1  0  0  0  0
 10 11  1  0  0  0  0
 11 14  2  0  0  0  0
 12 11  1  0  0  0  0
 13 18  1  0  0  0  0
 13 16  1  0  0  0  0
 15 19  1  6  0  0  0
 15 20  1  0  0  0  0
 15 10  1  0  0  0  0
 16 20  1  0  0  0  0
 18 19  1  0  0  0  0
 20 17  1  6  0  0  0
 20 12  1  0  0  0  0
 23 24  1  0  0  0  0
 23 26  1  0  0  0  0
 24 27  1  0  0  0  0
 25 29  1  0  0  0  0
 26 22  1  0  0  0  0
 26 21  1  1  0  0  0
 27 30  1  6  0  0  0
 27 28  1  0  0  0  0
 28 25  1  6  0  0  0
 28 29  1  0  0  0  0
 29 22  1  6  0  0  0
 30 31  1  0  0  0  0
 31 32  3  0  0  0  0
M  END
>  <MODEL>
2

>  <REMARK>
 VINA RESULT:      -8.3      6.869      9.396
  Name = 
  5 active torsions:
  status: ('A' for Active; 'I' for Inactive)
    1  A    between atoms: C_3  and  O_26
    2  A    between atoms: C_11  and  C_14
    3  A    between atoms: C_14  and  C_19
    4  A    between atoms: C_17  and  O_26
    5  A    between atoms: N_27  and  C_28
                            x       y       z     vdW  Elec       q    Type
                         _______ _______ _______ _____ _____    ______ ____

>  <TORSDO>
F 5

$$$$
=
 OpenBabel11062414123D

 32 37  0  0  1  0  0  0  0  0999 V2000
  189.3820  177.8930  139.8180 C   0  0  1  0  0  3  0  0  0  0  0  0
  189.9940  177.4990  142.1630 C   0  0  0  0  0  0  0  0  0  0  0  0
  191.3480  177.2990  141.7700 C   0  0  0  0  0  0  0  0  0  0  0  0
  192.1190  177.0100  142.7650 N   0  0  0  0  0  0  0  0  0  0  0  0
  191.7420  177.3440  140.4010 N   0  0  0  0  0  0  0  0  0  0  0  0
  191.2760  177.0140  143.9300 C   0  0  0  0  0  3  0  0  0  0  0  0
  189.0280  177.7520  141.2890 C   0  0  0  0  0  3  0  0  0  0  0  0
  190.0110  177.2990  143.6010 C   0  0  0  0  0  0  0  0  0  0  0  0
  190.8480  177.6060  139.4870 C   0  0  0  0  0  3  0  0  0  0  0  0
  185.1580  178.1640  144.3790 C   0  0  0  0  0  2  0  0  0  0  0  0
  184.6110  178.7850  145.6200 C   0  0  0  0  0  0  0  0  0  0  0  0
  185.5920  178.8510  146.7470 C   0  0  0  0  0  2  0  0  0  0  0  0
  189.1450  177.4540  145.9610 C   0  0  0  0  0  2  0  0  0  0  0  0
  183.4660  179.1960  145.7100 O   0  0  0  0  0  0  0  0  0  0  0  0
  186.6280  178.1350  144.7260 C   0  0  2  0  0  3  0  0  0  0  0  0
  188.1200  178.3680  146.6610 C   0  0  0  0  0  2  0  0  0  0  0  0
  186.4550  176.6440  146.6070 O   0  0  0  0  0  1  0  0  0  0  0  0
  188.9030  177.3680  144.5100 N   0  0  0  0  0  0  0  0  0  0  0  0
  187.5370  177.1520  144.0130 C   0  0  0  0  0  2  0  0  0  0  0  0
  186.7140  177.9700  146.2300 C   0  0  1  0  0  0  0  0  0  0  0  0
  188.5560  177.0660  139.0530 O   0  0  0  0  0  0  0  0  0  0  0  0
  188.5190  178.0640  136.8520 C   0  0  0  0  0  2  0  0  0  0  0  0
  189.0670  175.6080  137.2070 C   0  0  0  0  0  2  0  0  0  0  0  0
  188.1590  175.5300  136.1420 O   0  0  0  0  0  0  0  0  0  0  0  0
  186.4730  177.7050  135.5260 C   0  0  0  0  0  2  0  0  0  0  0  0
  189.1470  177.0250  137.7850 C   0  0  2  0  0  3  0  0  0  0  0  0
  186.8930  175.4820  136.7380 C   0  0  1  0  0  3  0  0  0  0  0  0
  186.1540  176.8360  136.7240 C   0  0  1  0  0  3  0  0  0  0  0  0
  186.9850  178.1220  136.8980 C   0  0  1  0  0  3  0  0  0  0  0  0
  186.0340  174.4270  136.0600 C   0  0  0  0  0  2  0  0  0  0  0  0
  185.4750  173.5060  137.0530 C   0  0  0  0  0  0  0  0  0  0  0  0
  185.0340  172.7780  137.8370 N   0  0  0  0  0  0  0  0  0  0  0  0
  1 21  1  6  0  0  0
  1  7  1  0  0  0  0
  2  8  1  0  0  0  0
  3  2  1  0  0  0  0
  3  4  2  0  0  0  0
  4  6  1  0  0  0  0
  5  3  1  0  0  0  0
  7  2  2  0  0  0  0
  8  6  2  0  0  0  0
  8 18  1  0  0  0  0
  9  1  1  0  0  0  0
  9  5  2  0  0  0  0
 10 15  1  0  0  0  0
 10 11  1  0  0  0  0
 11 14  2  0  0  0  0
 11 12  1  0  0  0  0
 13 16  1  0  0  0  0
 15 19  1  6  0  0  0
 15 20  1  0  0  0  0
 18 13  1  0  0  0  0
 19 18  1  0  0  0  0
 20 17  1  1  0  0  0
 20 16  1  0  0  0  0
 20 12  1  0  0  0  0
 22 29  1  0  0  0  0
 22 26  1  0  0  0  0
 23 26  1  0  0  0  0
 24 27  1  0  0  0  0
 24 23  1  0  0  0  0
 26 21  1  1  0  0  0
 27 30  1  6  0  0  0
 28 25  1  6  0  0  0
 28 27  1  0  0  0  0
 28 29  1  0  0  0  0
 29 25  1  6  0  0  0
 30 31  1  0  0  0  0
 31 32  3  0  0  0  0
M  END
>  <MODEL>
3

>  <REMARK>
 VINA RESULT:      -8.2      4.286      6.362
  Name = 
  5 active torsions:
  status: ('A' for Active; 'I' for Inactive)
    1  A    between atoms: C_3  and  O_26
    2  A    between atoms: C_11  and  C_14
    3  A    between atoms: C_14  and  C_19
    4  A    between atoms: C_17  and  O_26
    5  A    between atoms: N_27  and  C_28
                            x       y       z     vdW  Elec       q    Type
                         _______ _______ _______ _____ _____    ______ ____

>  <TORSDO>
F 5

$$$$
=
 OpenBabel11062414123D

 32 37  0  0  1  0  0  0  0  0999 V2000
  187.0750  178.2250  138.2460 C   0  0  1  0  0  3  0  0  0  0  0  0
  189.2490  177.5040  139.1300 C   0  0  0  0  0  0  0  0  0  0  0  0
  189.7230  177.3250  137.7990 C   0  0  0  0  0  0  0  0  0  0  0  0
  190.9360  176.8840  137.7570 N   0  0  0  0  0  0  0  0  0  0  0  0
  188.8810  177.5430  136.6700 N   0  0  0  0  0  0  0  0  0  0  0  0
  191.3560  176.7540  139.1260 C   0  0  0  0  0  3  0  0  0  0  0  0
  188.0100  177.8970  139.3970 C   0  0  0  0  0  3  0  0  0  0  0  0
  190.3730  177.1130  139.9600 C   0  0  0  0  0  0  0  0  0  0  0  0
  187.6540  177.9490  136.8570 C   0  0  0  0  0  3  0  0  0  0  0  0
  188.0200  176.7840  144.3490 C   0  0  0  0  0  2  0  0  0  0  0  0
  188.4530  177.5030  145.5820 C   0  0  0  0  0  0  0  0  0  0  0  0
  189.8250  178.0920  145.4900 C   0  0  0  0  0  2  0  0  0  0  0  0
  191.6480  177.5680  142.0840 C   0  0  0  0  0  2  0  0  0  0  0  0
  187.7540  177.5970  146.5780 O   0  0  0  0  0  0  0  0  0  0  0  0
  189.0970  177.2360  143.3900 C   0  0  2  0  0  3  0  0  0  0  0  0
  191.3050  178.3070  143.3940 C   0  0  0  0  0  2  0  0  0  0  0  0
  190.9560  176.2320  144.5420 O   0  0  0  0  0  1  0  0  0  0  0  0
  190.4380  177.0870  141.3940 N   0  0  0  0  0  0  0  0  0  0  0  0
  189.3900  176.3990  142.1600 C   0  0  0  0  0  2  0  0  0  0  0  0
  190.3480  177.4530  144.2170 C   0  0  1  0  0  0  0  0  0  0  0  0
  185.8730  177.5310  138.4020 O   0  0  0  0  0  0  0  0  0  0  0  0
  184.4730  179.3770  139.0930 C   0  0  0  0  0  2  0  0  0  0  0  0
  183.6780  177.6380  137.4200 C   0  0  0  0  0  2  0  0  0  0  0  0
  182.5660  177.7230  138.2690 O   0  0  0  0  0  0  0  0  0  0  0  0
  182.7960  178.8810  140.8290 C   0  0  0  0  0  2  0  0  0  0  0  0
  184.8770  178.4150  137.9710 C   0  0  2  0  0  3  0  0  0  0  0  0
  182.8220  176.8170  139.3060 C   0  0  1  0  0  3  0  0  0  0  0  0
  183.3370  177.4870  140.5960 C   0  0  1  0  0  3  0  0  0  0  0  0
  184.2630  178.7110  140.4620 C   0  0  1  0  0  3  0  0  0  0  0  0
  181.5730  176.0090  139.6160 C   0  0  0  0  0  2  0  0  0  0  0  0
  181.1700  175.2210  138.4480 C   0  0  0  0  0  0  0  0  0  0  0  0
  180.8510  174.5980  137.5260 N   0  0  0  0  0  0  0  0  0  0  0  0
  1 21  1  1  0  0  0
  1  7  1  0  0  0  0
  2  7  2  0  0  0  0
  2  8  1  0  0  0  0
  3  2  1  0  0  0  0
  4  3  2  0  0  0  0
  4  6  1  0  0  0  0
  5  9  2  0  0  0  0
  5  3  1  0  0  0  0
  6  8  2  0  0  0  0
  8 18  1  0  0  0  0
  9  1  1  0  0  0  0
 10 11  1  0  0  0  0
 11 14  2  0  0  0  0
 12 11  1  0  0  0  0
 13 16  1  0  0  0  0
 15 19  1  6  0  0  0
 15 20  1  0  0  0  0
 15 10  1  0  0  0  0
 16 20  1  0  0  0  0
 18 13  1  0  0  0  0
 18 19  1  0  0  0  0
 20 17  1  1  0  0  0
 20 12  1  0  0  0  0
 23 26  1  0  0  0  0
 23 24  1  0  0  0  0
 24 27  1  0  0  0  0
 26 21  1  1  0  0  0
 26 22  1  0  0  0  0
 27 30  1  1  0  0  0
 27 28  1  0  0  0  0
 28 25  1  1  0  0  0
 29 22  1  6  0  0  0
 29 28  1  0  0  0  0
 29 25  1  0  0  0  0
 31 30  1  0  0  0  0
 32 31  3  0  0  0  0
M  END
>  <MODEL>
4

>  <REMARK>
 VINA RESULT:      -8.1      3.588      5.060
  Name = 
  5 active torsions:
  status: ('A' for Active; 'I' for Inactive)
    1  A    between atoms: C_3  and  O_26
    2  A    between atoms: C_11  and  C_14
    3  A    between atoms: C_14  and  C_19
    4  A    between atoms: C_17  and  O_26
    5  A    between atoms: N_27  and  C_28
                            x       y       z     vdW  Elec       q    Type
                         _______ _______ _______ _____ _____    ______ ____

>  <TORSDO>
F 5

$$$$
=
 OpenBabel11062414123D

 32 37  0  0  1  0  0  0  0  0999 V2000
  183.0230  177.9510  141.0140 C   0  0  1  0  0  3  0  0  0  0  0  0
  184.3710  178.3050  143.0350 C   0  0  0  0  0  0  0  0  0  0  0  0
  183.2630  178.9520  143.6530 C   0  0  0  0  0  0  0  0  0  0  0  0
  183.5330  179.3770  144.8430 N   0  0  0  0  0  0  0  0  0  0  0  0
  182.0350  179.1550  142.9600 N   0  0  0  0  0  0  0  0  0  0  0  0
  184.9000  179.0060  145.0920 C   0  0  0  0  0  3  0  0  0  0  0  0
  184.3220  177.8430  141.7920 C   0  0  0  0  0  3  0  0  0  0  0  0
  185.4200  178.3710  144.0350 C   0  0  0  0  0  0  0  0  0  0  0  0
  181.9090  178.7100  141.7390 C   0  0  0  0  0  3  0  0  0  0  0  0
  189.6710  177.0190  146.2740 C   0  0  0  0  0  2  0  0  0  0  0  0
  191.0250  177.2310  145.6870 C   0  0  0  0  0  0  0  0  0  0  0  0
  191.0060  177.6010  144.2380 C   0  0  0  0  0  2  0  0  0  0  0  0
  187.4670  177.9220  142.6370 C   0  0  0  0  0  2  0  0  0  0  0  0
  192.0560  177.1080  146.3290 O   0  0  0  0  0  0  0  0  0  0  0  0
  188.8130  177.5840  145.1660 C   0  0  2  0  0  3  0  0  0  0  0  0
  188.9650  178.2460  142.8080 C   0  0  0  0  0  2  0  0  0  0  0  0
  189.4380  175.9920  143.4730 O   0  0  0  0  0  1  0  0  0  0  0  0
  186.7650  177.8780  143.9310 N   0  0  0  0  0  0  0  0  0  0  0  0
  187.3640  177.1510  145.0590 C   0  0  0  0  0  2  0  0  0  0  0  0
  189.5590  177.3310  143.8710 C   0  0  1  0  0  0  0  0  0  0  0  0
  183.2640  178.5430  139.7720 O   0  0  0  0  0  0  0  0  0  0  0  0
  183.2420  177.8800  137.4480 C   0  0  0  0  0  2  0  0  0  0  0  0
  182.7230  176.2420  139.3200 C   0  0  0  0  0  2  0  0  0  0  0  0
  181.6850  175.9610  138.4200 O   0  0  0  0  0  0  0  0  0  0  0  0
  181.0310  177.7770  136.3650 C   0  0  0  0  0  2  0  0  0  0  0  0
  183.5220  177.4800  138.9000 C   0  0  2  0  0  3  0  0  0  0  0  0
  180.6650  176.8680  138.7370 C   0  0  1  0  0  3  0  0  0  0  0  0
  180.6030  178.0800  137.7850 C   0  0  1  0  0  3  0  0  0  0  0  0
  181.9270  178.6460  137.2370 C   0  0  1  0  0  3  0  0  0  0  0  0
  179.3200  176.1610  138.7480 C   0  0  0  0  0  2  0  0  0  0  0  0
  179.2940  175.1280  139.7880 C   0  0  0  0  0  0  0  0  0  0  0  0
  179.2730  174.3140  140.6100 N   0  0  0  0  0  0  0  0  0  0  0  0
  1 21  1  6  0  0  0
  1  9  1  0  0  0  0
  1  7  1  0  0  0  0
  2  3  1  0  0  0  0
  2  8  1  0  0  0  0
  3  4  2  0  0  0  0
  4  6  1  0  0  0  0
  5  3  1  0  0  0  0
  7  2  2  0  0  0  0
  8  6  2  0  0  0  0
  9  5  2  0  0  0  0
 11 10  1  0  0  0  0
 11 14  2  0  0  0  0
 12 11  1  0  0  0  0
 13 16  1  0  0  0  0
 13 18  1  0  0  0  0
 15 19  1  6  0  0  0
 15 10  1  0  0  0  0
 16 20  1  0  0  0  0
 18  8  1  0  0  0  0
 18 19  1  0  0  0  0
 20 17  1  6  0  0  0
 20 12  1  0  0  0  0
 20 15  1  0  0  0  0
 22 26  1  0  0  0  0
 24 27  1  0  0  0  0
 24 23  1  0  0  0  0
 26 23  1  0  0  0  0
 26 21  1  1  0  0  0
 27 30  1  6  0  0  0
 28 25  1  6  0  0  0
 28 27  1  0  0  0  0
 29 25  1  6  0  0  0
 29 22  1  0  0  0  0
 29 28  1  0  0  0  0
 30 31  1  0  0  0  0
 31 32  3  0  0  0  0
M  END
>  <MODEL>
5

>  <REMARK>
 VINA RESULT:      -8.0      1.330      1.476
  Name = 
  5 active torsions:
  status: ('A' for Active; 'I' for Inactive)
    1  A    between atoms: C_3  and  O_26
    2  A    between atoms: C_11  and  C_14
    3  A    between atoms: C_14  and  C_19
    4  A    between atoms: C_17  and  O_26
    5  A    between atoms: N_27  and  C_28
                            x       y       z     vdW  Elec       q    Type
                         _______ _______ _______ _____ _____    ______ ____

>  <TORSDO>
F 5

$$$$
=
 OpenBabel11062414123D

 32 37  0  0  1  0  0  0  0  0999 V2000
  182.7600  178.0970  141.2420 C   0  0  1  0  0  3  0  0  0  0  0  0
  184.1990  178.3630  143.2130 C   0  0  0  0  0  0  0  0  0  0  0  0
  183.1260  178.9990  143.9020 C   0  0  0  0  0  0  0  0  0  0  0  0
  183.4530  179.3780  145.0930 N   0  0  0  0  0  0  0  0  0  0  0  0
  181.8720  179.2400  143.2710 N   0  0  0  0  0  0  0  0  0  0  0  0
  184.8250  178.9830  145.2690 C   0  0  0  0  0  3  0  0  0  0  0  0
  184.0910  177.9460  141.9580 C   0  0  0  0  0  3  0  0  0  0  0  0
  185.2910  178.3810  144.1690 C   0  0  0  0  0  0  0  0  0  0  0  0
  181.6880  178.8400  142.0410 C   0  0  0  0  0  3  0  0  0  0  0  0
  189.6720  177.0520  146.1560 C   0  0  0  0  0  2  0  0  0  0  0  0
  190.9860  177.2420  145.4780 C   0  0  0  0  0  0  0  0  0  0  0  0
  190.8750  177.5820  144.0260 C   0  0  0  0  0  2  0  0  0  0  0  0
  187.2400  177.8890  142.6500 C   0  0  0  0  0  2  0  0  0  0  0  0
  192.0560  177.1270  146.0540 O   0  0  0  0  0  0  0  0  0  0  0  0
  188.7470  177.5980  145.0940 C   0  0  2  0  0  3  0  0  0  0  0  0
  188.7480  178.2080  142.7170 C   0  0  0  0  0  2  0  0  0  0  0  0
  189.2520  175.9660  143.3990 O   0  0  0  0  0  1  0  0  0  0  0  0
  186.6240  177.8780  143.9890 N   0  0  0  0  0  0  0  0  0  0  0  0
  187.2910  177.1710  145.0900 C   0  0  0  0  0  2  0  0  0  0  0  0
  189.4060  177.3120  143.7590 C   0  0  1  0  0  0  0  0  0  0  0  0
  182.9550  178.7310  140.0130 O   0  0  0  0  0  0  0  0  0  0  0  0
  181.4760  176.9410  139.3400 C   0  0  0  0  0  2  0  0  0  0  0  0
  181.9960  178.9030  137.8120 C   0  0  0  0  0  2  0  0  0  0  0  0
  182.1460  177.8260  136.9270 O   0  0  0  0  0  0  0  0  0  0  0  0
  182.4580  175.1980  137.9010 C   0  0  0  0  0  2  0  0  0  0  0  0
  181.8150  178.4330  139.2580 C   0  0  2  0  0  3  0  0  0  0  0  0
  183.4740  177.4060  137.0780 C   0  0  1  0  0  3  0  0  0  0  0  0
  183.6280  176.1570  137.9700 C   0  0  1  0  0  3  0  0  0  0  0  0
  182.6810  176.0010  139.1750 C   0  0  1  0  0  3  0  0  0  0  0  0
  184.0960  177.1400  135.7170 C   0  0  0  0  0  2  0  0  0  0  0  0
  185.5580  177.1280  135.8170 C   0  0  0  0  0  0  0  0  0  0  0  0
  186.7130  177.1190  135.8950 N   0  0  0  0  0  0  0  0  0  0  0  0
  1 21  1  6  0  0  0
  1  7  1  0  0  0  0
  1  9  1  0  0  0  0
  2  3  1  0  0  0  0
  2  8  1  0  0  0  0
  3  4  2  0  0  0  0
  4  6  1  0  0  0  0
  5  3  1  0  0  0  0
  7  2  2  0  0  0  0
  8  6  2  0  0  0  0
  9  5  2  0  0  0  0
 11 14  2  0  0  0  0
 11 10  1  0  0  0  0
 12 11  1  0  0  0  0
 13 16  1  0  0  0  0
 13 18  1  0  0  0  0
 15 19  1  6  0  0  0
 15 10  1  0  0  0  0
 16 20  1  0  0  0  0
 18  8  1  0  0  0  0
 18 19  1  0  0  0  0
 20 17  1  6  0  0  0
 20 12  1  0  0  0  0
 20 15  1  0  0  0  0
 23 26  1  0  0  0  0
 24 27  1  0  0  0  0
 24 23  1  0  0  0  0
 26 22  1  0  0  0  0
 26 21  1  1  0  0  0
 27 30  1  6  0  0  0
 27 28  1  0  0  0  0
 28 25  1  6  0  0  0
 28 29  1  0  0  0  0
 29 25  1  6  0  0  0
 29 22  1  0  0  0  0
 30 31  1  0  0  0  0
 31 32  3  0  0  0  0
M  END
>  <MODEL>
6

>  <REMARK>
 VINA RESULT:      -7.9      2.275      3.186
  Name = 
  5 active torsions:
  status: ('A' for Active; 'I' for Inactive)
    1  A    between atoms: C_3  and  O_26
    2  A    between atoms: C_11  and  C_14
    3  A    between atoms: C_14  and  C_19
    4  A    between atoms: C_17  and  O_26
    5  A    between atoms: N_27  and  C_28
                            x       y       z     vdW  Elec       q    Type
                         _______ _______ _______ _____ _____    ______ ____

>  <TORSDO>
F 5

$$$$
=
 OpenBabel11062414123D

 32 37  0  0  1  0  0  0  0  0999 V2000
  186.3090  178.6230  138.6480 C   0  0  1  0  0  3  0  0  0  0  0  0
  188.5010  177.8720  139.4580 C   0  0  0  0  0  0  0  0  0  0  0  0
  188.9480  177.7440  138.1110 C   0  0  0  0  0  0  0  0  0  0  0  0
  190.1600  177.3080  138.0270 N   0  0  0  0  0  0  0  0  0  0  0  0
  188.0820  178.0030  137.0100 N   0  0  0  0  0  0  0  0  0  0  0  0
  190.6090  177.1260  139.3810 C   0  0  0  0  0  3  0  0  0  0  0  0
  187.2680  178.2530  139.7650 C   0  0  0  0  0  3  0  0  0  0  0  0
  189.6430  177.4520  140.2490 C   0  0  0  0  0  0  0  0  0  0  0  0
  186.8590  178.4000  137.2380 C   0  0  0  0  0  3  0  0  0  0  0  0
  187.3760  177.0600  144.6770 C   0  0  0  0  0  2  0  0  0  0  0  0
  187.8640  177.7160  145.9240 C   0  0  0  0  0  0  0  0  0  0  0  0
  189.2560  178.2530  145.8210 C   0  0  0  0  0  2  0  0  0  0  0  0
  190.9820  177.7790  142.3570 C   0  0  0  0  0  2  0  0  0  0  0  0
  187.1910  177.8020  146.9390 O   0  0  0  0  0  0  0  0  0  0  0  0
  188.4480  177.5020  143.7100 C   0  0  2  0  0  3  0  0  0  0  0  0
  190.6980  178.4830  143.7000 C   0  0  0  0  0  2  0  0  0  0  0  0
  190.2900  176.3850  144.7830 O   0  0  0  0  0  1  0  0  0  0  0  0
  189.7390  177.3720  141.6790 N   0  0  0  0  0  0  0  0  0  0  0  0
  188.6800  176.6990  142.4440 C   0  0  0  0  0  2  0  0  0  0  0  0
  189.7250  177.6400  144.5140 C   0  0  1  0  0  0  0  0  0  0  0  0
  185.1110  177.9210  138.8020 O   0  0  0  0  0  0  0  0  0  0  0  0
  183.4640  177.7120  140.5600 C   0  0  0  0  0  2  0  0  0  0  0  0
  183.6090  179.7800  139.0900 C   0  0  0  0  0  2  0  0  0  0  0  0
  182.2280  179.5360  139.0760 O   0  0  0  0  0  0  0  0  0  0  0  0
  181.2030  177.0290  139.8590 C   0  0  0  0  0  2  0  0  0  0  0  0
  184.3830  178.6390  139.7580 C   0  0  2  0  0  3  0  0  0  0  0  0
  182.0230  178.6290  138.0280 C   0  0  1  0  0  3  0  0  0  0  0  0
  181.8560  177.1710  138.5000 C   0  0  1  0  0  3  0  0  0  0  0  0
  182.6820  176.6970  139.7120 C   0  0  1  0  0  3  0  0  0  0  0  0
  180.8110  179.0410  137.2100 C   0  0  0  0  0  2  0  0  0  0  0  0
  180.8090  180.4900  136.9900 C   0  0  0  0  0  0  0  0  0  0  0  0
  180.8080  181.6340  136.8160 N   0  0  0  0  0  0  0  0  0  0  0  0
  1 21  1  1  0  0  0
  1  7  1  0  0  0  0
  2  7  2  0  0  0  0
  2  8  1  0  0  0  0
  3  2  1  0  0  0  0
  4  3  2  0  0  0  0
  4  6  1  0  0  0  0
  5  9  2  0  0  0  0
  5  3  1  0  0  0  0
  6  8  2  0  0  0  0
  8 18  1  0  0  0  0
  9  1  1  0  0  0  0
 10 11  1  0  0  0  0
 11 14  2  0  0  0  0
 12 11  1  0  0  0  0
 13 16  1  0  0  0  0
 15 19  1  6  0  0  0
 15 20  1  0  0  0  0
 15 10  1  0  0  0  0
 16 20  1  0  0  0  0
 18 13  1  0  0  0  0
 18 19  1  0  0  0  0
 20 17  1  1  0  0  0
 20 12  1  0  0  0  0
 23 26  1  0  0  0  0
 24 23  1  0  0  0  0
 26 21  1  6  0  0  0
 26 22  1  0  0  0  0
 27 30  1  1  0  0  0
 27 28  1  0  0  0  0
 27 24  1  0  0  0  0
 28 29  1  0  0  0  0
 28 25  1  1  0  0  0
 29 25  1  1  0  0  0
 29 22  1  0  0  0  0
 31 30  1  0  0  0  0
 32 31  3  0  0  0  0
M  END
>  <MODEL>
7

>  <REMARK>
 VINA RESULT:      -7.9      3.383      4.887
  Name = 
  5 active torsions:
  status: ('A' for Active; 'I' for Inactive)
    1  A    between atoms: C_3  and  O_26
    2  A    between atoms: C_11  and  C_14
    3  A    between atoms: C_14  and  C_19
    4  A    between atoms: C_17  and  O_26
    5  A    between atoms: N_27  and  C_28
                            x       y       z     vdW  Elec       q    Type
                         _______ _______ _______ _____ _____    ______ ____

>  <TORSDO>
F 5

$$$$
=
 OpenBabel11062414123D

 32 37  0  0  1  0  0  0  0  0999 V2000
  189.1240  175.7200  143.2190 C   0  0  1  0  0  3  0  0  0  0  0  0
  188.8500  177.1830  141.2660 C   0  0  0  0  0  0  0  0  0  0  0  0
  190.2590  177.1550  141.0560 C   0  0  0  0  0  0  0  0  0  0  0  0
  190.6270  177.8780  140.0510 N   0  0  0  0  0  0  0  0  0  0  0  0
  191.1320  176.4560  141.9380 N   0  0  0  0  0  0  0  0  0  0  0  0
  189.4210  178.4420  139.5080 C   0  0  0  0  0  3  0  0  0  0  0  0
  188.2690  176.5520  142.2790 C   0  0  0  0  0  3  0  0  0  0  0  0
  188.3530  178.0470  140.2120 C   0  0  0  0  0  0  0  0  0  0  0  0
  190.6280  175.7970  142.9470 C   0  0  0  0  0  3  0  0  0  0  0  0
  183.7360  178.8300  141.9370 C   0  0  0  0  0  2  0  0  0  0  0  0
  182.4970  178.5630  141.1510 C   0  0  0  0  0  0  0  0  0  0  0  0
  182.7420  178.3310  139.6940 C   0  0  0  0  0  2  0  0  0  0  0  0
  186.4760  178.4530  138.5820 C   0  0  0  0  0  2  0  0  0  0  0  0
  181.3840  178.5400  141.6510 O   0  0  0  0  0  0  0  0  0  0  0  0
  184.7820  178.4430  140.9180 C   0  0  2  0  0  3  0  0  0  0  0  0
  185.0060  177.9920  138.5160 C   0  0  0  0  0  2  0  0  0  0  0  0
  184.2390  180.1280  139.2870 O   0  0  0  0  0  1  0  0  0  0  0  0
  186.9940  178.4350  139.9610 N   0  0  0  0  0  0  0  0  0  0  0  0
  186.1860  179.0030  141.0490 C   0  0  0  0  0  2  0  0  0  0  0  0
  184.1930  178.7530  139.5560 C   0  0  1  0  0  0  0  0  0  0  0  0
  188.8650  176.0870  144.5410 O   0  0  0  0  0  0  0  0  0  0  0  0
  189.8410  177.8960  145.8140 C   0  0  0  0  0  2  0  0  0  0  0  0
  187.6790  178.1810  144.5090 C   0  0  0  0  0  2  0  0  0  0  0  0
  187.3370  178.7780  145.7300 O   0  0  0  0  0  0  0  0  0  0  0  0
  188.8760  178.3030  148.0450 C   0  0  0  0  0  2  0  0  0  0  0  0
  189.0370  177.4750  144.5800 C   0  0  2  0  0  3  0  0  0  0  0  0
  186.8790  177.7300  146.5390 C   0  0  1  0  0  3  0  0  0  0  0  0
  187.9290  177.2300  147.5520 C   0  0  1  0  0  3  0  0  0  0  0  0
  189.4080  177.2150  147.1220 C   0  0  1  0  0  3  0  0  0  0  0  0
  185.6190  178.1500  147.2770 C   0  0  0  0  0  2  0  0  0  0  0  0
  184.6060  178.6260  146.3320 C   0  0  0  0  0  0  0  0  0  0  0  0
  183.8060  179.0030  145.5850 N   0  0  0  0  0  0  0  0  0  0  0  0
  1 21  1  1  0  0  0
  2  7  2  0  0  0  0
  3  2  1  0  0  0  0
  3  5  1  0  0  0  0
  4  3  2  0  0  0  0
  5  9  2  0  0  0  0
  6  4  1  0  0  0  0
  6  8  2  0  0  0  0
  7  1  1  0  0  0  0
  8  2  1  0  0  0  0
  9  1  1  0  0  0  0
 11 14  2  0  0  0  0
 11 10  1  0  0  0  0
 12 11  1  0  0  0  0
 13 18  1  0  0  0  0
 15 19  1  1  0  0  0
 15 10  1  0  0  0  0
 16 13  1  0  0  0  0
 16 20  1  0  0  0  0
 18  8  1  0  0  0  0
 18 19  1  0  0  0  0
 20 17  1  6  0  0  0
 20 12  1  0  0  0  0
 20 15  1  0  0  0  0
 23 26  1  0  0  0  0
 23 24  1  0  0  0  0
 24 27  1  0  0  0  0
 26 21  1  1  0  0  0
 26 22  1  0  0  0  0
 27 30  1  1  0  0  0
 27 28  1  0  0  0  0
 28 25  1  1  0  0  0
 29 22  1  6  0  0  0
 29 28  1  0  0  0  0
 29 25  1  0  0  0  0
 31 30  1  0  0  0  0
 32 31  3  0  0  0  0
M  END
>  <MODEL>
8

>  <REMARK>
 VINA RESULT:      -7.8      2.624      8.425
  Name = 
  5 active torsions:
  status: ('A' for Active; 'I' for Inactive)
    1  A    between atoms: C_3  and  O_26
    2  A    between atoms: C_11  and  C_14
    3  A    between atoms: C_14  and  C_19
    4  A    between atoms: C_17  and  O_26
    5  A    between atoms: N_27  and  C_28
                            x       y       z     vdW  Elec       q    Type
                         _______ _______ _______ _____ _____    ______ ____

>  <TORSDO>
F 5

$$$$
=
 OpenBabel11062414123D

 32 37  0  0  1  0  0  0  0  0999 V2000
  187.5400  176.5490  144.3740 C   0  0  1  0  0  3  0  0  0  0  0  0
  189.4160  177.3390  143.0020 C   0  0  0  0  0  0  0  0  0  0  0  0
  190.0740  177.8000  144.1790 C   0  0  0  0  0  0  0  0  0  0  0  0
  191.2050  178.3710  143.9270 N   0  0  0  0  0  0  0  0  0  0  0  0
  189.4680  177.6910  145.4640 N   0  0  0  0  0  0  0  0  0  0  0  0
  191.3700  178.3050  142.5000 C   0  0  0  0  0  3  0  0  0  0  0  0
  188.2170  176.7710  143.0330 C   0  0  0  0  0  3  0  0  0  0  0  0
  190.3230  177.6990  141.9280 C   0  0  0  0  0  0  0  0  0  0  0  0
  188.2960  177.1270  145.5720 C   0  0  0  0  0  3  0  0  0  0  0  0
  187.2900  177.5160  137.9690 C   0  0  0  0  0  2  0  0  0  0  0  0
  187.4600  176.5650  136.8330 C   0  0  0  0  0  0  0  0  0  0  0  0
  188.7850  175.8720  136.8160 C   0  0  0  0  0  2  0  0  0  0  0  0
  191.1880  176.7790  139.7480 C   0  0  0  0  0  2  0  0  0  0  0  0
  186.5980  176.3730  135.9900 O   0  0  0  0  0  0  0  0  0  0  0  0
  188.4800  177.1300  138.8150 C   0  0  2  0  0  3  0  0  0  0  0  0
  190.5800  175.8700  138.6610 C   0  0  0  0  0  2  0  0  0  0  0  0
  190.1800  177.7480  137.2280 O   0  0  0  0  0  1  0  0  0  0  0  0
  190.1470  177.4800  140.5200 N   0  0  0  0  0  0  0  0  0  0  0  0
  189.0320  178.1280  139.8150 C   0  0  0  0  0  2  0  0  0  0  0  0
  189.5570  176.6610  137.8570 C   0  0  1  0  0  0  0  0  0  0  0  0
  186.2440  177.0690  144.3400 O   0  0  0  0  0  0  0  0  0  0  0  0
  185.3920  179.2560  144.9200 C   0  0  0  0  0  2  0  0  0  0  0  0
  186.3100  178.7390  142.6080 C   0  0  0  0  0  2  0  0  0  0  0  0
  185.1270  179.4170  142.2820 O   0  0  0  0  0  0  0  0  0  0  0  0
  183.0880  179.7530  144.2010 C   0  0  0  0  0  2  0  0  0  0  0  0
  186.4020  178.4400  144.1070 C   0  0  2  0  0  3  0  0  0  0  0  0
  184.1300  178.4320  142.2640 C   0  0  1  0  0  3  0  0  0  0  0  0
  183.2710  178.4020  143.5440 C   0  0  1  0  0  3  0  0  0  0  0  0
  183.9560  178.7090  144.8900 C   0  0  1  0  0  3  0  0  0  0  0  0
  183.2320  178.6190  141.0530 C   0  0  0  0  0  2  0  0  0  0  0  0
  183.9720  179.2570  139.9600 C   0  0  0  0  0  0  0  0  0  0  0  0
  184.5550  179.7600  139.0970 N   0  0  0  0  0  0  0  0  0  0  0  0
  1 21  1  6  0  0  0
  1  9  1  0  0  0  0
  2  7  2  0  0  0  0
  2  3  1  0  0  0  0
  3  5  1  0  0  0  0
  4  3  2  0  0  0  0
  5  9  2  0  0  0  0
  6  4  1  0  0  0  0
  7  1  1  0  0  0  0
  8  6  2  0  0  0  0
  8  2  1  0  0  0  0
 11 10  1  0  0  0  0
 12 11  1  0  0  0  0
 12 20  1  0  0  0  0
 13 18  1  0  0  0  0
 14 11  2  0  0  0  0
 15 10  1  6  0  0  0
 15 19  1  0  0  0  0
 16 13  1  0  0  0  0
 18  8  1  0  0  0  0
 19 18  1  0  0  0  0
 20 17  1  6  0  0  0
 20 16  1  0  0  0  0
 20 15  1  0  0  0  0
 23 26  1  0  0  0  0
 24 23  1  0  0  0  0
 26 21  1  6  0  0  0
 26 22  1  0  0  0  0
 27 30  1  6  0  0  0
 27 24  1  0  0  0  0
 27 28  1  0  0  0  0
 28 25  1  6  0  0  0
 28 29  1  0  0  0  0
 29 25  1  6  0  0  0
 29 22  1  0  0  0  0
 31 30  1  0  0  0  0
 32 31  3  0  0  0  0
M  END
>  <MODEL>
9

>  <REMARK>
 VINA RESULT:      -7.7      3.640      6.667
  Name = 
  5 active torsions:
  status: ('A' for Active; 'I' for Inactive)
    1  A    between atoms: C_3  and  O_26
    2  A    between atoms: C_11  and  C_14
    3  A    between atoms: C_14  and  C_19
    4  A    between atoms: C_17  and  O_26
    5  A    between atoms: N_27  and  C_28
                            x       y       z     vdW  Elec       q    Type
                         _______ _______ _______ _____ _____    ______ ____

>  <TORSDO>
F 5

$$$$
