=
 OpenBabel11062416533D

 34 37  0  0  1  0  0  0  0  0999 V2000
  189.9730  177.0650  145.0120 N   0  0  0  0  0  0  0  0  0  0  0  0
  190.8060  176.4300  147.1080 O   0  0  0  0  0  0  0  0  0  0  0  0
  191.8830  176.2390  146.2250 C   0  0  0  0  0  2  0  0  0  0  0  0
  190.9380  177.3690  146.0650 C   0  0  1  0  0  3  0  0  0  0  0  0
  188.6560  176.7730  145.5960 C   0  0  0  0  0  2  0  0  0  0  0  0
  184.5060  178.2410  147.2120 O   0  0  0  0  0  0  0  0  0  0  0  0
  188.0170  178.5560  147.2660 C   0  0  0  0  0  3  0  0  0  0  0  0
  185.7360  178.2460  146.9460 C   0  0  0  0  0  0  0  0  0  0  0  0
  186.6970  178.7820  147.8270 N   0  0  0  0  0  0  0  0  0  0  0  0
  186.3190  177.6700  145.7140 C   0  0  2  0  0  3  0  0  0  0  0  0
  187.8010  178.0190  145.8430 C   0  0  2  0  0  3  0  0  0  0  0  0
  183.4770  179.1170  143.9020 C   0  0  0  0  0  3  0  0  0  0  0  0
  183.3750  178.8560  142.6000 C   0  0  0  0  0  3  0  0  0  0  0  0
  185.7370  178.2760  144.4730 C   0  0  0  0  0  0  0  0  0  0  0  0
  186.2100  177.8590  143.2960 C   0  0  0  0  0  3  0  0  0  0  0  0
  185.7430  178.3080  141.9690 C   0  0  0  0  0  3  0  0  0  0  0  0
  184.5110  178.7390  141.6660 C   0  0  0  0  0  3  0  0  0  0  0  0
  184.7750  179.4210  144.5710 C   0  0  0  0  0  2  0  0  0  0  0  0
  189.8660  178.2280  144.1340 C   0  0  0  0  0  2  0  0  0  0  0  0
  189.6110  177.3350  140.4640 C   0  0  0  0  0  3  0  0  0  0  0  0
  190.9600  177.1750  140.1090 C   0  0  0  0  0  0  0  0  0  0  0  0
  190.2460  177.8580  142.7420 C   0  0  0  0  0  0  0  0  0  0  0  0
  191.5940  177.7190  142.3950 C   0  0  0  0  0  3  0  0  0  0  0  0
  191.9470  177.3810  141.0850 C   0  0  0  0  0  3  0  0  0  0  0  0
  189.2550  177.6730  141.7730 C   0  0  0  0  0  3  0  0  0  0  0  0
  190.5030  177.1630  137.7910 O   0  0  0  0  0  0  0  0  0  0  0  0
  191.3100  176.8450  138.7050 C   0  0  0  0  0  0  0  0  0  0  0  0
  192.5000  176.2030  138.3340 O   0  0  0  0  0  0  0  0  0  0  0  0
  192.6180  175.3120  137.2330 C   0  0  0  0  0  2  0  0  0  0  0  0
  193.6980  174.2880  137.5170 C   0  0  0  0  0  2  0  0  0  0  0  0
  194.8910  174.9470  137.9130 O   0  0  0  0  0  0  0  0  0  0  0  0
  195.8400  175.3640  140.1010 O   0  0  0  0  0  1  0  0  0  0  0  0
  195.6290  174.5190  139.0150 C   0  0  0  0  0  0  0  0  0  0  0  0
  196.1040  173.3540  139.0300 O   0  0  0  0  0  0  0  0  0  0  0  0
  1  5  1  0  0  0  0
  3  2  1  0  0  0  0
  4  1  1  6  0  0  0
  4  3  1  0  0  0  0
  4  2  1  0  0  0  0
  7  9  2  0  0  0  0
  8  6  2  0  0  0  0
  8  9  1  0  0  0  0
 10 14  1  6  0  0  0
 10 11  1  0  0  0  0
 10  8  1  0  0  0  0
 11  5  1  1  0  0  0
 11  7  1  0  0  0  0
 12 18  1  0  0  0  0
 13 12  2  0  0  0  0
 14 18  1  0  0  0  0
 15 14  2  0  0  0  0
 16 15  1  0  0  0  0
 17 16  2  0  0  0  0
 17 13  1  0  0  0  0
 19  1  1  0  0  0  0
 20 25  1  0  0  0  0
 21 20  2  0  0  0  0
 21 24  1  0  0  0  0
 22 19  1  0  0  0  0
 23 22  1  0  0  0  0
 24 23  2  0  0  0  0
 25 22  2  0  0  0  0
 26 27  2  0  0  0  0
 27 21  1  0  0  0  0
 28 27  1  0  0  0  0
 29 30  1  0  0  0  0
 29 28  1  0  0  0  0
 30 31  1  0  0  0  0
 31 33  1  0  0  0  0
 33 34  2  0  0  0  0
 33 32  1  0  0  0  0
M  END
>  <MODEL>
1

>  <REMARK>
 VINA RESULT:      -8.1      0.000      0.000
  Name = 
  12 active torsions:
  status: ('A' for Active; 'I' for Inactive)
    1  A    between atoms: C_6  and  C_32
    2  A    between atoms: O_8  and  C_11
    3  A    between atoms: O_8  and  C_15
    4  A    between atoms: C_10  and  C_15
    5  A    between atoms: C_11  and  C_18
    6  A    between atoms: C_13  and  C_33
    7  A    between atoms: C_17  and  N_27
    8  A    between atoms: C_17  and  C_34
    9  A    between atoms: C_18  and  O_23
   10  A    between atoms: C_21  and  N_27
   11  A    between atoms: O_23  and  C_28
   12  A    between atoms: N_27  and  C_33
                            x       y       z     vdW  Elec       q    Type
                         _______ _______ _______ _____ _____    ______ ____

>  <TORSDO>
F 12

$$$$
=
 OpenBabel11062416533D

 34 37  0  0  1  0  0  0  0  0999 V2000
  188.1030  177.5670  140.8740 N   0  0  0  0  0  0  0  0  0  0  0  0
  189.7500  177.1670  139.2550 O   0  0  0  0  0  0  0  0  0  0  0  0
  188.6050  177.5170  138.5190 C   0  0  0  0  0  2  0  0  0  0  0  0
  188.9190  178.1570  139.8170 C   0  0  1  0  0  3  0  0  0  0  0  0
  188.9370  176.7420  141.7600 C   0  0  0  0  0  2  0  0  0  0  0  0
  191.5150  176.3420  145.6570 O   0  0  0  0  0  0  0  0  0  0  0  0
  191.1430  177.7580  142.4500 C   0  0  0  0  0  3  0  0  0  0  0  0
  191.0850  176.8110  144.5710 C   0  0  0  0  0  0  0  0  0  0  0  0
  191.9340  177.3990  143.6120 N   0  0  0  0  0  0  0  0  0  0  0  0
  189.6640  176.7730  144.1580 C   0  0  2  0  0  3  0  0  0  0  0  0
  189.6730  177.5430  142.8370 C   0  0  2  0  0  3  0  0  0  0  0  0
  188.9800  177.9090  147.5780 C   0  0  0  0  0  3  0  0  0  0  0  0
  187.7240  177.8360  148.0160 C   0  0  0  0  0  3  0  0  0  0  0  0
  188.7650  177.4400  145.1540 C   0  0  0  0  0  0  0  0  0  0  0  0
  187.4460  177.3080  144.9890 C   0  0  0  0  0  3  0  0  0  0  0  0
  186.4050  177.8580  145.8790 C   0  0  0  0  0  3  0  0  0  0  0  0
  186.5240  178.0850  147.1940 C   0  0  0  0  0  3  0  0  0  0  0  0
  189.3370  178.3500  146.1990 C   0  0  0  0  0  2  0  0  0  0  0  0
  187.4980  178.6490  141.6480 C   0  0  0  0  0  2  0  0  0  0  0  0
  183.7530  178.6360  142.2030 C   0  0  0  0  0  3  0  0  0  0  0  0
  183.2660  178.8380  140.9020 C   0  0  0  0  0  0  0  0  0  0  0  0
  186.0320  178.7090  141.3870 C   0  0  0  0  0  0  0  0  0  0  0  0
  185.5590  178.9290  140.0900 C   0  0  0  0  0  3  0  0  0  0  0  0
  184.1820  178.9940  139.8510 C   0  0  0  0  0  3  0  0  0  0  0  0
  185.1280  178.5700  142.4450 C   0  0  0  0  0  3  0  0  0  0  0  0
  181.0250  178.5510  141.5930 O   0  0  0  0  0  0  0  0  0  0  0  0
  181.8010  178.9340  140.6780 C   0  0  0  0  0  0  0  0  0  0  0  0
  181.2290  179.4370  139.5020 O   0  0  0  0  0  0  0  0  0  0  0  0
  180.6820  180.7420  139.3730 C   0  0  0  0  0  2  0  0  0  0  0  0
  181.5450  181.5700  138.4420 C   0  0  0  0  0  2  0  0  0  0  0  0
  180.8770  182.7800  138.1200 O   0  0  0  0  0  0  0  0  0  0  0  0
  180.9660  183.6840  135.8760 O   0  0  0  0  0  0  0  0  0  0  0  0
  181.4050  183.6810  137.1970 C   0  0  0  0  0  0  0  0  0  0  0  0
  182.2820  184.5050  137.5650 O   0  0  0  0  0  1  0  0  0  0  0  0
  1 19  1  0  0  0  0
  1  5  1  0  0  0  0
  2  4  1  0  0  0  0
  3  2  1  0  0  0  0
  3  4  1  0  0  0  0
  4  1  1  1  0  0  0
  7 11  1  0  0  0  0
  7  9  2  0  0  0  0
  8  6  2  0  0  0  0
  9  8  1  0  0  0  0
 10  8  1  0  0  0  0
 10 14  1  1  0  0  0
 11  5  1  6  0  0  0
 11 10  1  0  0  0  0
 12 13  2  0  0  0  0
 14 18  1  0  0  0  0
 15 14  2  0  0  0  0
 15 16  1  0  0  0  0
 16 17  2  0  0  0  0
 17 13  1  0  0  0  0
 18 12  1  0  0  0  0
 20 25  1  0  0  0  0
 21 20  2  0  0  0  0
 22 19  1  0  0  0  0
 22 25  2  0  0  0  0
 23 22  1  0  0  0  0
 24 23  2  0  0  0  0
 24 21  1  0  0  0  0
 27 21  1  0  0  0  0
 27 26  2  0  0  0  0
 28 27  1  0  0  0  0
 29 28  1  0  0  0  0
 30 29  1  0  0  0  0
 31 30  1  0  0  0  0
 32 33  2  0  0  0  0
 33 34  1  0  0  0  0
 33 31  1  0  0  0  0
M  END
>  <MODEL>
2

>  <REMARK>
 VINA RESULT:      -7.9      4.426      9.000
  Name = 
  12 active torsions:
  status: ('A' for Active; 'I' for Inactive)
    1  A    between atoms: C_6  and  C_32
    2  A    between atoms: O_8  and  C_11
    3  A    between atoms: O_8  and  C_15
    4  A    between atoms: C_10  and  C_15
    5  A    between atoms: C_11  and  C_18
    6  A    between atoms: C_13  and  C_33
    7  A    between atoms: C_17  and  N_27
    8  A    between atoms: C_17  and  C_34
    9  A    between atoms: C_18  and  O_23
   10  A    between atoms: C_21  and  N_27
   11  A    between atoms: O_23  and  C_28
   12  A    between atoms: N_27  and  C_33
                            x       y       z     vdW  Elec       q    Type
                         _______ _______ _______ _____ _____    ______ ____

>  <TORSDO>
F 12

$$$$
=
 OpenBabel11062416533D

 34 37  0  0  1  0  0  0  0  0999 V2000
  188.1190  177.8360  140.3080 N   0  0  0  0  0  0  0  0  0  0  0  0
  189.6310  177.6880  138.5240 O   0  0  0  0  0  0  0  0  0  0  0  0
  188.4880  178.2900  137.9710 C   0  0  0  0  0  2  0  0  0  0  0  0
  188.9310  178.5860  139.3530 C   0  0  1  0  0  3  0  0  0  0  0  0
  188.9500  176.8560  141.0230 C   0  0  0  0  0  2  0  0  0  0  0  0
  191.6840  175.8110  144.6860 O   0  0  0  0  0  0  0  0  0  0  0  0
  191.2650  177.6130  141.6850 C   0  0  0  0  0  2  0  0  0  0  0  0
  191.2390  176.4350  143.6880 C   0  0  0  0  0  0  0  0  0  0  0  0
  192.0830  177.0630  142.7510 N   0  0  0  0  0  2  0  0  0  0  0  0
  189.8000  176.5540  143.3600 C   0  0  2  0  0  3  0  0  0  0  0  0
  189.8050  177.4680  142.1360 C   0  0  2  0  0  3  0  0  0  0  0  0
  189.5190  177.6000  146.8650 C   0  0  0  0  0  3  0  0  0  0  0  0
  188.3330  177.4730  147.4570 C   0  0  0  0  0  3  0  0  0  0  0  0
  189.0130  177.1680  144.4780 C   0  0  0  0  0  0  0  0  0  0  0  0
  187.6900  176.9900  144.4780 C   0  0  0  0  0  3  0  0  0  0  0  0
  186.7510  177.4840  145.5060 C   0  0  0  0  0  3  0  0  0  0  0  0
  187.0300  177.6910  146.8000 C   0  0  0  0  0  3  0  0  0  0  0  0
  189.6820  178.0800  145.4620 C   0  0  0  0  0  2  0  0  0  0  0  0
  187.5460  178.7780  141.2670 C   0  0  0  0  0  2  0  0  0  0  0  0
  184.0080  178.8210  139.9230 C   0  0  0  0  0  3  0  0  0  0  0  0
  183.2510  178.6280  141.0900 C   0  0  0  0  0  0  0  0  0  0  0  0
  186.0590  178.7310  141.2080 C   0  0  0  0  0  0  0  0  0  0  0  0
  185.3160  178.5200  142.3740 C   0  0  0  0  0  3  0  0  0  0  0  0
  183.9200  178.4680  142.3130 C   0  0  0  0  0  3  0  0  0  0  0  0
  185.4030  178.8740  139.9810 C   0  0  0  0  0  3  0  0  0  0  0  0
  181.0940  179.5790  141.2400 O   0  0  0  0  0  0  0  0  0  0  0  0
  181.7720  178.5460  140.9950 C   0  0  0  0  0  0  0  0  0  0  0  0
  181.0820  177.3780  140.6400 O   0  0  0  0  0  0  0  0  0  0  0  0
  180.9380  176.9090  139.3060 C   0  0  0  0  0  2  0  0  0  0  0  0
  181.4300  175.4780  139.2110 C   0  0  0  0  0  2  0  0  0  0  0  0
  182.8400  175.4660  139.0500 O   0  0  0  0  0  0  0  0  0  0  0  0
  184.5200  174.3490  137.7120 O   0  0  0  0  0  1  0  0  0  0  0  0
  183.4310  175.2100  137.8140 C   0  0  0  0  0  0  0  0  0  0  0  0
  182.9700  175.7580  136.7800 O   0  0  0  0  0  0  0  0  0  0  0  0
  1  5  1  0  0  0  0
  1 19  1  0  0  0  0
  2  4  1  0  0  0  0
  3  2  1  0  0  0  0
  3  4  1  0  0  0  0
  4  1  1  1  0  0  0
  7 11  1  0  0  0  0
  7  9  1  0  0  0  0
  8  6  2  0  0  0  0
  9  8  1  0  0  0  0
 10  8  1  0  0  0  0
 10 14  1  1  0  0  0
 11  5  1  6  0  0  0
 11 10  1  0  0  0  0
 12 13  2  0  0  0  0
 14 15  2  0  0  0  0
 14 18  1  0  0  0  0
 15 16  1  0  0  0  0
 16 17  2  0  0  0  0
 17 13  1  0  0  0  0
 18 12  1  0  0  0  0
 20 25  2  0  0  0  0
 20 21  1  0  0  0  0
 21 24  2  0  0  0  0
 22 19  1  0  0  0  0
 22 23  2  0  0  0  0
 24 23  1  0  0  0  0
 25 22  1  0  0  0  0
 27 21  1  0  0  0  0
 27 26  2  0  0  0  0
 28 27  1  0  0  0  0
 29 28  1  0  0  0  0
 30 29  1  0  0  0  0
 31 30  1  0  0  0  0
 32 33  1  0  0  0  0
 33 31  1  0  0  0  0
 34 33  2  0  0  0  0
M  END
>  <MODEL>
3

>  <REMARK>
 VINA RESULT:      -7.8      3.604      8.055
  Name = 
  12 active torsions:
  status: ('A' for Active; 'I' for Inactive)
    1  A    between atoms: C_6  and  C_32
    2  A    between atoms: O_8  and  C_11
    3  A    between atoms: O_8  and  C_15
    4  A    between atoms: C_10  and  C_15
    5  A    between atoms: C_11  and  C_18
    6  A    between atoms: C_13  and  C_33
    7  A    between atoms: C_17  and  N_27
    8  A    between atoms: C_17  and  C_34
    9  A    between atoms: C_18  and  O_23
   10  A    between atoms: C_21  and  N_27
   11  A    between atoms: O_23  and  C_28
   12  A    between atoms: N_27  and  C_33
                            x       y       z     vdW  Elec       q    Type
                         _______ _______ _______ _____ _____    ______ ____

>  <TORSDO>
F 12

$$$$
=
 OpenBabel11062416533D

 34 37  0  0  1  0  0  0  0  0999 V2000
  188.7340  177.2690  141.0880 N   0  0  0  0  0  0  0  0  0  0  0  0
  190.4460  176.3020  139.8140 O   0  0  0  0  0  0  0  0  0  0  0  0
  189.4600  176.6520  138.8760 C   0  0  0  0  0  2  0  0  0  0  0  0
  189.7440  177.4980  140.0580 C   0  0  1  0  0  3  0  0  0  0  0  0
  189.3480  176.6570  142.2750 C   0  0  0  0  0  2  0  0  0  0  0  0
  191.5190  177.1390  146.4030 O   0  0  0  0  0  0  0  0  0  0  0  0
  190.9990  178.3610  143.1370 C   0  0  0  0  0  3  0  0  0  0  0  0
  191.0620  177.4400  145.2700 C   0  0  0  0  0  0  0  0  0  0  0  0
  191.7490  178.2870  144.3780 N   0  0  0  0  0  0  0  0  0  0  0  0
  189.7860  176.9220  144.7280 C   0  0  2  0  0  3  0  0  0  0  0  0
  189.6600  177.6550  143.3930 C   0  0  2  0  0  3  0  0  0  0  0  0
  186.3560  178.1410  145.1840 C   0  0  0  0  0  3  0  0  0  0  0  0
  186.0850  178.8300  146.2910 C   0  0  0  0  0  3  0  0  0  0  0  0
  188.6220  177.2360  145.6180 C   0  0  0  0  0  0  0  0  0  0  0  0
  188.8820  177.6580  146.8580 C   0  0  0  0  0  3  0  0  0  0  0  0
  187.8770  178.0480  147.8670 C   0  0  0  0  0  3  0  0  0  0  0  0
  186.6640  178.5590  147.6210 C   0  0  0  0  0  3  0  0  0  0  0  0
  187.2240  176.9280  145.1720 C   0  0  0  0  0  2  0  0  0  0  0  0
  188.1490  178.5570  141.4550 C   0  0  0  0  0  2  0  0  0  0  0  0
  185.0220  178.6050  139.3220 C   0  0  0  0  0  3  0  0  0  0  0  0
  184.0100  178.6760  140.2920 C   0  0  0  0  0  0  0  0  0  0  0  0
  186.7150  178.6040  141.0540 C   0  0  0  0  0  0  0  0  0  0  0  0
  185.7150  178.6560  142.0290 C   0  0  0  0  0  3  0  0  0  0  0  0
  184.3690  178.6910  141.6490 C   0  0  0  0  0  3  0  0  0  0  0  0
  186.3670  178.5710  139.7000 C   0  0  0  0  0  3  0  0  0  0  0  0
  182.2800  178.0990  138.7910 O   0  0  0  0  0  0  0  0  0  0  0  0
  182.5880  178.6810  139.8650 C   0  0  0  0  0  0  0  0  0  0  0  0
  181.5610  179.2940  140.5950 O   0  0  0  0  0  0  0  0  0  0  0  0
  180.3580  178.6450  140.9830 C   0  0  0  0  0  2  0  0  0  0  0  0
  179.4770  179.6130  141.7480 C   0  0  0  0  0  2  0  0  0  0  0  0
  180.0250  179.8430  143.0370 O   0  0  0  0  0  0  0  0  0  0  0  0
  181.7970  178.6200  144.1440 O   0  0  0  0  0  0  0  0  0  0  0  0
  180.4480  178.7910  143.8480 C   0  0  0  0  0  0  0  0  0  0  0  0
  179.5990  177.9930  144.3220 O   0  0  0  0  0  1  0  0  0  0  0  0
  1 19  1  0  0  0  0
  1  5  1  0  0  0  0
  2  4  1  0  0  0  0
  3  2  1  0  0  0  0
  3  4  1  0  0  0  0
  4  1  1  1  0  0  0
  7 11  1  0  0  0  0
  7  9  2  0  0  0  0
  8  6  2  0  0  0  0
  9  8  1  0  0  0  0
 10  8  1  0  0  0  0
 10 14  1  1  0  0  0
 11  5  1  6  0  0  0
 11 10  1  0  0  0  0
 12 13  2  0  0  0  0
 13 17  1  0  0  0  0
 14 15  2  0  0  0  0
 15 16  1  0  0  0  0
 17 16  2  0  0  0  0
 18 12  1  0  0  0  0
 18 14  1  0  0  0  0
 20 25  2  0  0  0  0
 20 21  1  0  0  0  0
 21 24  2  0  0  0  0
 22 19  1  0  0  0  0
 22 23  2  0  0  0  0
 24 23  1  0  0  0  0
 25 22  1  0  0  0  0
 26 27  2  0  0  0  0
 27 21  1  0  0  0  0
 27 28  1  0  0  0  0
 28 29  1  0  0  0  0
 29 30  1  0  0  0  0
 30 31  1  0  0  0  0
 31 33  1  0  0  0  0
 33 32  2  0  0  0  0
 33 34  1  0  0  0  0
M  END
>  <MODEL>
4

>  <REMARK>
 VINA RESULT:      -7.8      3.063      8.593
  Name = 
  12 active torsions:
  status: ('A' for Active; 'I' for Inactive)
    1  A    between atoms: C_6  and  C_32
    2  A    between atoms: O_8  and  C_11
    3  A    between atoms: O_8  and  C_15
    4  A    between atoms: C_10  and  C_15
    5  A    between atoms: C_11  and  C_18
    6  A    between atoms: C_13  and  C_33
    7  A    between atoms: C_17  and  N_27
    8  A    between atoms: C_17  and  C_34
    9  A    between atoms: C_18  and  O_23
   10  A    between atoms: C_21  and  N_27
   11  A    between atoms: O_23  and  C_28
   12  A    between atoms: N_27  and  C_33
                            x       y       z     vdW  Elec       q    Type
                         _______ _______ _______ _____ _____    ______ ____

>  <TORSDO>
F 12

$$$$
=
 OpenBabel11062416533D

 34 37  0  0  1  0  0  0  0  0999 V2000
  189.7300  177.0920  144.3130 N   0  0  0  0  0  0  0  0  0  0  0  0
  190.9260  176.6260  146.2730 O   0  0  0  0  0  0  0  0  0  0  0  0
  191.8160  176.3120  145.2310 C   0  0  0  0  0  2  0  0  0  0  0  0
  190.8810  177.4560  145.1360 C   0  0  1  0  0  3  0  0  0  0  0  0
  188.5730  176.7800  145.1650 C   0  0  0  0  0  2  0  0  0  0  0  0
  184.5850  178.1280  147.2290 O   0  0  0  0  0  0  0  0  0  0  0  0
  188.0760  178.5150  146.9300 C   0  0  0  0  0  3  0  0  0  0  0  0
  185.7810  178.1650  146.8390 C   0  0  0  0  0  0  0  0  0  0  0  0
  186.8180  178.7020  147.6280 N   0  0  0  0  0  0  0  0  0  0  0  0
  186.2450  177.6260  145.5410 C   0  0  2  0  0  3  0  0  0  0  0  0
  187.7260  178.0030  145.5260 C   0  0  2  0  0  3  0  0  0  0  0  0
  183.2750  179.2460  144.1230 C   0  0  0  0  0  3  0  0  0  0  0  0
  182.9570  178.9630  142.8610 C   0  0  0  0  0  3  0  0  0  0  0  0
  185.5270  178.2450  144.3800 C   0  0  0  0  0  0  0  0  0  0  0  0
  185.7840  177.7640  143.1610 C   0  0  0  0  0  3  0  0  0  0  0  0
  185.1560  178.2170  141.9040 C   0  0  0  0  0  3  0  0  0  0  0  0
  183.9280  178.7350  141.7730 C   0  0  0  0  0  3  0  0  0  0  0  0
  184.6780  179.4650  144.5800 C   0  0  0  0  0  2  0  0  0  0  0  0
  189.4040  178.2250  143.4490 C   0  0  0  0  0  2  0  0  0  0  0  0
  188.8880  177.9430  139.7090 C   0  0  0  0  0  3  0  0  0  0  0  0
  189.9980  177.1770  139.3190 C   0  0  0  0  0  0  0  0  0  0  0  0
  189.6090  177.8570  142.0200 C   0  0  0  0  0  0  0  0  0  0  0  0
  190.7270  177.1090  141.6400 C   0  0  0  0  0  3  0  0  0  0  0  0
  190.9200  176.7730  140.2960 C   0  0  0  0  0  3  0  0  0  0  0  0
  188.6930  178.2800  141.0510 C   0  0  0  0  0  3  0  0  0  0  0  0
  191.3730  176.7350  137.4500 O   0  0  0  0  0  0  0  0  0  0  0  0
  190.1970  176.8590  137.8820 C   0  0  0  0  0  0  0  0  0  0  0  0
  189.1430  176.6810  136.9760 O   0  0  0  0  0  0  0  0  0  0  0  0
  188.9120  177.5110  135.8460 C   0  0  0  0  0  2  0  0  0  0  0  0
  187.4230  177.7310  135.6670 C   0  0  0  0  0  2  0  0  0  0  0  0
  186.9330  178.5580  136.7120 O   0  0  0  0  0  0  0  0  0  0  0  0
  185.3060  176.8970  137.3860 O   0  0  0  0  0  0  0  0  0  0  0  0
  185.9480  178.1150  137.5920 C   0  0  0  0  0  0  0  0  0  0  0  0
  185.6420  178.8210  138.5880 O   0  0  0  0  0  1  0  0  0  0  0  0
  1  5  1  0  0  0  0
  3  2  1  0  0  0  0
  4  1  1  6  0  0  0
  4  3  1  0  0  0  0
  4  2  1  0  0  0  0
  7  9  2  0  0  0  0
  8  6  2  0  0  0  0
  8  9  1  0  0  0  0
 10 14  1  6  0  0  0
 10  8  1  0  0  0  0
 11  5  1  1  0  0  0
 11 10  1  0  0  0  0
 11  7  1  0  0  0  0
 12 18  1  0  0  0  0
 13 12  2  0  0  0  0
 14 18  1  0  0  0  0
 15 14  2  0  0  0  0
 16 15  1  0  0  0  0
 17 16  2  0  0  0  0
 17 13  1  0  0  0  0
 19  1  1  0  0  0  0
 20 25  1  0  0  0  0
 21 20  2  0  0  0  0
 21 24  1  0  0  0  0
 22 19  1  0  0  0  0
 23 22  1  0  0  0  0
 24 23  2  0  0  0  0
 25 22  2  0  0  0  0
 26 27  2  0  0  0  0
 27 21  1  0  0  0  0
 28 27  1  0  0  0  0
 29 28  1  0  0  0  0
 30 29  1  0  0  0  0
 30 31  1  0  0  0  0
 31 33  1  0  0  0  0
 32 33  2  0  0  0  0
 33 34  1  0  0  0  0
M  END
>  <MODEL>
5

>  <REMARK>
 VINA RESULT:      -7.8      2.135      4.032
  Name = 
  12 active torsions:
  status: ('A' for Active; 'I' for Inactive)
    1  A    between atoms: C_6  and  C_32
    2  A    between atoms: O_8  and  C_11
    3  A    between atoms: O_8  and  C_15
    4  A    between atoms: C_10  and  C_15
    5  A    between atoms: C_11  and  C_18
    6  A    between atoms: C_13  and  C_33
    7  A    between atoms: C_17  and  N_27
    8  A    between atoms: C_17  and  C_34
    9  A    between atoms: C_18  and  O_23
   10  A    between atoms: C_21  and  N_27
   11  A    between atoms: O_23  and  C_28
   12  A    between atoms: N_27  and  C_33
                            x       y       z     vdW  Elec       q    Type
                         _______ _______ _______ _____ _____    ______ ____

>  <TORSDO>
F 12

$$$$
=
 OpenBabel11062416533D

 34 37  0  0  1  0  0  0  0  0999 V2000
  189.4430  177.1080  139.0550 N   0  0  0  0  0  0  0  0  0  0  0  0
  188.9570  179.3760  138.7250 O   0  0  0  0  0  0  0  0  0  0  0  0
  189.2570  178.8870  137.4420 C   0  0  0  0  0  2  0  0  0  0  0  0
  188.5300  178.0650  138.4370 C   0  0  1  0  0  3  0  0  0  0  0  0
  188.9780  176.7600  140.4060 C   0  0  0  0  0  2  0  0  0  0  0  0
  191.6620  175.9020  144.1530 O   0  0  0  0  0  0  0  0  0  0  0  0
  191.2430  177.6270  141.1070 C   0  0  0  0  0  3  0  0  0  0  0  0
  191.2160  176.4870  143.1320 C   0  0  0  0  0  0  0  0  0  0  0  0
  192.0560  177.1310  142.2020 N   0  0  0  0  0  0  0  0  0  0  0  0
  189.7820  176.5390  142.7680 C   0  0  2  0  0  3  0  0  0  0  0  0
  189.7790  177.4290  141.5260 C   0  0  2  0  0  3  0  0  0  0  0  0
  189.3830  177.6730  146.2340 C   0  0  0  0  0  3  0  0  0  0  0  0
  188.1960  177.4960  146.8110 C   0  0  0  0  0  3  0  0  0  0  0  0
  188.9430  177.1400  143.8540 C   0  0  0  0  0  0  0  0  0  0  0  0
  187.6320  176.8870  143.8400 C   0  0  0  0  0  3  0  0  0  0  0  0
  186.6500  177.3580  144.8380 C   0  0  0  0  0  3  0  0  0  0  0  0
  186.8950  177.6200  146.1280 C   0  0  0  0  0  3  0  0  0  0  0  0
  189.5430  178.1180  144.8200 C   0  0  0  0  0  2  0  0  0  0  0  0
  189.4780  175.9030  138.2290 C   0  0  0  0  0  2  0  0  0  0  0  0
  192.4680  174.2130  136.6390 C   0  0  0  0  0  3  0  0  0  0  0  0
  193.4790  175.1690  136.8310 C   0  0  0  0  0  0  0  0  0  0  0  0
  190.8650  175.6480  137.7500 C   0  0  0  0  0  0  0  0  0  0  0  0
  191.8590  176.6150  137.9300 C   0  0  0  0  0  3  0  0  0  0  0  0
  193.1580  176.3760  137.4700 C   0  0  0  0  0  3  0  0  0  0  0  0
  191.1700  174.4490  137.0980 C   0  0  0  0  0  3  0  0  0  0  0  0
  194.9600  174.3630  135.1750 O   0  0  0  0  0  0  0  0  0  0  0  0
  194.8430  174.9040  136.3070 C   0  0  0  0  0  0  0  0  0  0  0  0
  196.0160  175.2300  137.0010 O   0  0  0  0  0  0  0  0  0  0  0  0
  196.8240  174.2880  137.6920 C   0  0  0  0  0  2  0  0  0  0  0  0
  196.2550  174.0400  139.0750 C   0  0  0  0  0  2  0  0  0  0  0  0
  196.1460  175.2700  139.7750 O   0  0  0  0  0  0  0  0  0  0  0  0
  198.2230  174.8790  140.9570 O   0  0  0  0  0  0  0  0  0  0  0  0
  197.1380  175.6980  140.6550 C   0  0  0  0  0  0  0  0  0  0  0  0
  197.0560  176.8400  141.1760 O   0  0  0  0  0  1  0  0  0  0  0  0
  1  5  1  0  0  0  0
  3  4  1  0  0  0  0
  3  2  1  0  0  0  0
  4  2  1  0  0  0  0
  4  1  1  1  0  0  0
  7 11  1  0  0  0  0
  7  9  2  0  0  0  0
  8  6  2  0  0  0  0
  9  8  1  0  0  0  0
 10  8  1  0  0  0  0
 10 14  1  1  0  0  0
 11  5  1  6  0  0  0
 11 10  1  0  0  0  0
 12 13  2  0  0  0  0
 14 18  1  0  0  0  0
 15 14  2  0  0  0  0
 15 16  1  0  0  0  0
 16 17  2  0  0  0  0
 17 13  1  0  0  0  0
 18 12  1  0  0  0  0
 19  1  1  0  0  0  0
 20 21  2  0  0  0  0
 20 25  1  0  0  0  0
 21 24  1  0  0  0  0
 22 23  1  0  0  0  0
 22 19  1  0  0  0  0
 24 23  2  0  0  0  0
 25 22  2  0  0  0  0
 26 27  2  0  0  0  0
 27 21  1  0  0  0  0
 27 28  1  0  0  0  0
 28 29  1  0  0  0  0
 29 30  1  0  0  0  0
 30 31  1  0  0  0  0
 31 33  1  0  0  0  0
 33 32  2  0  0  0  0
 33 34  1  0  0  0  0
M  END
>  <MODEL>
6

>  <REMARK>
 VINA RESULT:      -7.7      2.870      5.598
  Name = 
  12 active torsions:
  status: ('A' for Active; 'I' for Inactive)
    1  A    between atoms: C_6  and  C_32
    2  A    between atoms: O_8  and  C_11
    3  A    between atoms: O_8  and  C_15
    4  A    between atoms: C_10  and  C_15
    5  A    between atoms: C_11  and  C_18
    6  A    between atoms: C_13  and  C_33
    7  A    between atoms: C_17  and  N_27
    8  A    between atoms: C_17  and  C_34
    9  A    between atoms: C_18  and  O_23
   10  A    between atoms: C_21  and  N_27
   11  A    between atoms: O_23  and  C_28
   12  A    between atoms: N_27  and  C_33
                            x       y       z     vdW  Elec       q    Type
                         _______ _______ _______ _____ _____    ______ ____

>  <TORSDO>
F 12

$$$$
=
 OpenBabel11062416533D

 34 37  0  0  1  0  0  0  0  0999 V2000
  184.7600  179.0400  142.7330 N   0  0  0  0  0  0  0  0  0  0  0  0
  183.1270  179.6620  144.2950 O   0  0  0  0  0  0  0  0  0  0  0  0
  183.9970  178.8170  145.0070 C   0  0  0  0  0  2  0  0  0  0  0  0
  184.4970  179.7580  143.9780 C   0  0  1  0  0  3  0  0  0  0  0  0
  185.5380  177.8220  143.0030 C   0  0  0  0  0  2  0  0  0  0  0  0
  189.6880  175.6510  143.2290 O   0  0  0  0  0  0  0  0  0  0  0  0
  187.6640  178.0780  141.6660 C   0  0  0  0  0  3  0  0  0  0  0  0
  188.8300  176.5270  142.9450 C   0  0  0  0  0  0  0  0  0  0  0  0
  188.8220  177.2050  141.7090 N   0  0  0  0  0  0  0  0  0  0  0  0
  187.7200  176.9210  143.8410 C   0  0  2  0  0  3  0  0  0  0  0  0
  187.0490  178.0580  143.0730 C   0  0  2  0  0  3  0  0  0  0  0  0
  190.3580  177.1300  146.3820 C   0  0  0  0  0  3  0  0  0  0  0  0
  189.9890  177.1130  147.6620 C   0  0  0  0  0  3  0  0  0  0  0  0
  188.2100  177.3970  145.1750 C   0  0  0  0  0  0  0  0  0  0  0  0
  187.3200  177.5020  146.1640 C   0  0  0  0  0  3  0  0  0  0  0  0
  187.6130  177.9190  147.5500 C   0  0  0  0  0  3  0  0  0  0  0  0
  188.7710  177.7480  148.2010 C   0  0  0  0  0  3  0  0  0  0  0  0
  189.6180  177.8880  145.3320 C   0  0  0  0  0  2  0  0  0  0  0  0
  183.4790  178.6740  142.1330 C   0  0  0  0  0  2  0  0  0  0  0  0
  184.7530  178.6060  138.5690 C   0  0  0  0  0  3  0  0  0  0  0  0
  184.0560  177.5110  138.0320 C   0  0  0  0  0  0  0  0  0  0  0  0
  183.6740  178.2730  140.7110 C   0  0  0  0  0  0  0  0  0  0  0  0
  182.9890  177.1710  140.1930 C   0  0  0  0  0  3  0  0  0  0  0  0
  183.1810  176.7920  138.8600 C   0  0  0  0  0  3  0  0  0  0  0  0
  184.5620  178.9860  139.8990 C   0  0  0  0  0  3  0  0  0  0  0  0
  183.3220  177.0640  135.8310 O   0  0  0  0  0  0  0  0  0  0  0  0
  184.3010  177.1110  136.6230 C   0  0  0  0  0  0  0  0  0  0  0  0
  185.5670  176.7860  136.1190 O   0  0  0  0  0  0  0  0  0  0  0  0
  186.3140  177.6140  135.2390 C   0  0  0  0  0  2  0  0  0  0  0  0
  187.7860  177.5420  135.5930 C   0  0  0  0  0  2  0  0  0  0  0  0
  188.1020  178.5550  136.5360 O   0  0  0  0  0  0  0  0  0  0  0  0
  189.0550  179.1700  138.6740 O   0  0  0  0  0  1  0  0  0  0  0  0
  188.4000  178.2490  137.8620 C   0  0  0  0  0  0  0  0  0  0  0  0
  188.0640  177.1310  138.3320 O   0  0  0  0  0  0  0  0  0  0  0  0
  1  5  1  0  0  0  0
  2  3  1  0  0  0  0
  4  1  1  6  0  0  0
  4  2  1  0  0  0  0
  4  3  1  0  0  0  0
  7  9  2  0  0  0  0
  7 11  1  0  0  0  0
  8  6  2  0  0  0  0
  8 10  1  0  0  0  0
  9  8  1  0  0  0  0
 10 14  1  1  0  0  0
 11  5  1  6  0  0  0
 11 10  1  0  0  0  0
 12 13  2  0  0  0  0
 13 17  1  0  0  0  0
 14 18  1  0  0  0  0
 14 15  2  0  0  0  0
 15 16  1  0  0  0  0
 16 17  2  0  0  0  0
 18 12  1  0  0  0  0
 19  1  1  0  0  0  0
 20 25  1  0  0  0  0
 21 20  2  0  0  0  0
 21 24  1  0  0  0  0
 22 19  1  0  0  0  0
 23 22  1  0  0  0  0
 24 23  2  0  0  0  0
 25 22  2  0  0  0  0
 26 27  2  0  0  0  0
 27 21  1  0  0  0  0
 28 27  1  0  0  0  0
 29 30  1  0  0  0  0
 29 28  1  0  0  0  0
 30 31  1  0  0  0  0
 31 33  1  0  0  0  0
 33 34  2  0  0  0  0
 33 32  1  0  0  0  0
M  END
>  <MODEL>
7

>  <REMARK>
 VINA RESULT:      -7.5      3.747      6.826
  Name = 
  12 active torsions:
  status: ('A' for Active; 'I' for Inactive)
    1  A    between atoms: C_6  and  C_32
    2  A    between atoms: O_8  and  C_11
    3  A    between atoms: O_8  and  C_15
    4  A    between atoms: C_10  and  C_15
    5  A    between atoms: C_11  and  C_18
    6  A    between atoms: C_13  and  C_33
    7  A    between atoms: C_17  and  N_27
    8  A    between atoms: C_17  and  C_34
    9  A    between atoms: C_18  and  O_23
   10  A    between atoms: C_21  and  N_27
   11  A    between atoms: O_23  and  C_28
   12  A    between atoms: N_27  and  C_33
                            x       y       z     vdW  Elec       q    Type
                         _______ _______ _______ _____ _____    ______ ____

>  <TORSDO>
F 12

$$$$
=
 OpenBabel11062416533D

 34 37  0  0  1  0  0  0  0  0999 V2000
  186.3770  178.3740  145.3900 N   0  0  0  0  0  0  0  0  0  0  0  0
  184.9390  178.9990  147.1310 O   0  0  0  0  0  0  0  0  0  0  0  0
  184.0890  178.7520  146.0390 C   0  0  0  0  0  2  0  0  0  0  0  0
  185.3030  177.9380  146.2780 C   0  0  1  0  0  3  0  0  0  0  0  0
  187.6280  178.5380  146.1460 C   0  0  0  0  0  2  0  0  0  0  0  0
  191.9530  176.9820  147.0710 O   0  0  0  0  0  0  0  0  0  0  0  0
  188.4780  176.6100  147.5370 C   0  0  0  0  0  3  0  0  0  0  0  0
  190.7000  176.9830  146.9630 C   0  0  0  0  0  0  0  0  0  0  0  0
  189.8590  176.3500  147.9010 N   0  0  0  0  0  0  0  0  0  0  0  0
  189.9620  177.6690  145.8780 C   0  0  2  0  0  3  0  0  0  0  0  0
  188.5090  177.2870  146.1590 C   0  0  2  0  0  3  0  0  0  0  0  0
  191.6100  178.2770  142.6580 C   0  0  0  0  0  3  0  0  0  0  0  0
  191.0820  177.7100  141.5740 C   0  0  0  0  0  3  0  0  0  0  0  0
  190.3830  177.1960  144.5200 C   0  0  0  0  0  0  0  0  0  0  0  0
  189.5920  176.3220  143.8920 C   0  0  0  0  0  3  0  0  0  0  0  0
  189.8170  175.7680  142.5420 C   0  0  0  0  0  3  0  0  0  0  0  0
  190.4620  176.3720  141.5350 C   0  0  0  0  0  3  0  0  0  0  0  0
  191.7250  177.5760  143.9690 C   0  0  0  0  0  2  0  0  0  0  0  0
  186.5650  177.3560  144.3590 C   0  0  0  0  0  2  0  0  0  0  0  0
  186.7270  178.7420  140.8400 C   0  0  0  0  0  3  0  0  0  0  0  0
  185.3670  178.8740  140.5170 C   0  0  0  0  0  0  0  0  0  0  0  0
  186.1480  177.8860  143.0310 C   0  0  0  0  0  0  0  0  0  0  0  0
  184.7910  177.9960  142.7130 C   0  0  0  0  0  3  0  0  0  0  0  0
  184.4040  178.4870  141.4620 C   0  0  0  0  0  3  0  0  0  0  0  0
  187.1160  178.2530  142.0900 C   0  0  0  0  0  3  0  0  0  0  0  0
  184.1450  180.3070  139.0900 O   0  0  0  0  0  0  0  0  0  0  0  0
  184.9810  179.3680  139.1710 C   0  0  0  0  0  0  0  0  0  0  0  0
  185.5030  178.8510  137.9780 O   0  0  0  0  0  0  0  0  0  0  0  0
  185.4400  177.4820  137.6040 C   0  0  0  0  0  2  0  0  0  0  0  0
  186.8410  176.9370  137.4130 C   0  0  0  0  0  2  0  0  0  0  0  0
  187.7760  178.0050  137.4250 O   0  0  0  0  0  0  0  0  0  0  0  0
  189.8290  176.9510  136.6950 O   0  0  0  0  0  0  0  0  0  0  0  0
  189.1420  177.7780  137.5800 C   0  0  0  0  0  0  0  0  0  0  0  0
  189.7610  178.3320  138.5240 O   0  0  0  0  0  1  0  0  0  0  0  0
  1  5  1  0  0  0  0
  3  4  1  0  0  0  0
  3  2  1  0  0  0  0
  4  1  1  6  0  0  0
  4  2  1  0  0  0  0
  7  9  2  0  0  0  0
  8  6  2  0  0  0  0
  8  9  1  0  0  0  0
 10 14  1  6  0  0  0
 10 11  1  0  0  0  0
 10  8  1  0  0  0  0
 11  5  1  1  0  0  0
 11  7  1  0  0  0  0
 12 18  1  0  0  0  0
 13 12  2  0  0  0  0
 15 14  2  0  0  0  0
 16 15  1  0  0  0  0
 17 13  1  0  0  0  0
 17 16  2  0  0  0  0
 18 14  1  0  0  0  0
 19  1  1  0  0  0  0
 20 25  1  0  0  0  0
 21 20  2  0  0  0  0
 21 24  1  0  0  0  0
 22 19  1  0  0  0  0
 23 22  1  0  0  0  0
 24 23  2  0  0  0  0
 25 22  2  0  0  0  0
 26 27  2  0  0  0  0
 27 21  1  0  0  0  0
 28 27  1  0  0  0  0
 29 28  1  0  0  0  0
 30 31  1  0  0  0  0
 30 29  1  0  0  0  0
 31 33  1  0  0  0  0
 32 33  2  0  0  0  0
 33 34  1  0  0  0  0
M  END
>  <MODEL>
8

>  <REMARK>
 VINA RESULT:      -7.5      2.940      6.038
  Name = 
  12 active torsions:
  status: ('A' for Active; 'I' for Inactive)
    1  A    between atoms: C_6  and  C_32
    2  A    between atoms: O_8  and  C_11
    3  A    between atoms: O_8  and  C_15
    4  A    between atoms: C_10  and  C_15
    5  A    between atoms: C_11  and  C_18
    6  A    between atoms: C_13  and  C_33
    7  A    between atoms: C_17  and  N_27
    8  A    between atoms: C_17  and  C_34
    9  A    between atoms: C_18  and  O_23
   10  A    between atoms: C_21  and  N_27
   11  A    between atoms: O_23  and  C_28
   12  A    between atoms: N_27  and  C_33
                            x       y       z     vdW  Elec       q    Type
                         _______ _______ _______ _____ _____    ______ ____

>  <TORSDO>
F 12

$$$$
=
 OpenBabel11062416533D

 34 37  0  0  1  0  0  0  0  0999 V2000
  188.6100  177.3580  141.0950 N   0  0  0  0  0  0  0  0  0  0  0  0
  190.2510  176.4350  139.7000 O   0  0  0  0  0  0  0  0  0  0  0  0
  189.2520  176.8900  138.8210 C   0  0  0  0  0  2  0  0  0  0  0  0
  189.5990  177.6320  140.0560 C   0  0  1  0  0  3  0  0  0  0  0  0
  189.2440  176.6780  142.2340 C   0  0  0  0  0  2  0  0  0  0  0  0
  191.7020  176.8640  146.2230 O   0  0  0  0  0  0  0  0  0  0  0  0
  191.2950  177.9890  142.9070 C   0  0  0  0  0  3  0  0  0  0  0  0
  191.2630  177.2000  145.0930 C   0  0  0  0  0  0  0  0  0  0  0  0
  192.0770  177.8090  144.1160 N   0  0  0  0  0  0  0  0  0  0  0  0
  189.8720  176.9690  144.6420 C   0  0  2  0  0  3  0  0  0  0  0  0
  189.8450  177.6350  143.2670 C   0  0  2  0  0  3  0  0  0  0  0  0
  188.7920  177.9340  148.0120 C   0  0  0  0  0  3  0  0  0  0  0  0
  187.4910  177.8630  148.2900 C   0  0  0  0  0  3  0  0  0  0  0  0
  188.8670  177.5990  145.5580 C   0  0  0  0  0  0  0  0  0  0  0  0
  187.5770  177.5020  145.2270 C   0  0  0  0  0  3  0  0  0  0  0  0
  186.4420  178.0250  146.0140 C   0  0  0  0  0  3  0  0  0  0  0  0
  186.4040  178.1790  147.3440 C   0  0  0  0  0  3  0  0  0  0  0  0
  189.3210  178.4410  146.7130 C   0  0  0  0  0  2  0  0  0  0  0  0
  188.0470  178.6300  141.5420 C   0  0  0  0  0  2  0  0  0  0  0  0
  184.6140  178.6300  139.9460 C   0  0  0  0  0  3  0  0  0  0  0  0
  183.7710  178.5910  141.0690 C   0  0  0  0  0  0  0  0  0  0  0  0
  186.5660  178.6220  141.3800 C   0  0  0  0  0  0  0  0  0  0  0  0
  185.7370  178.5640  142.5040 C   0  0  0  0  0  3  0  0  0  0  0  0
  184.3470  178.5470  142.3480 C   0  0  0  0  0  3  0  0  0  0  0  0
  186.0030  178.6480  140.1010 C   0  0  0  0  0  3  0  0  0  0  0  0
  181.8420  178.6480  139.7070 O   0  0  0  0  0  0  0  0  0  0  0  0
  182.3000  178.5430  140.8760 C   0  0  0  0  0  0  0  0  0  0  0  0
  181.3860  178.3800  141.9250 O   0  0  0  0  0  0  0  0  0  0  0  0
  180.0230  178.7780  141.8680 C   0  0  0  0  0  2  0  0  0  0  0  0
  179.8970  180.2340  142.2670 C   0  0  0  0  0  2  0  0  0  0  0  0
  179.1890  180.9460  141.2640 O   0  0  0  0  0  0  0  0  0  0  0  0
  178.9390  180.0290  139.0370 O   0  0  0  0  0  0  0  0  0  0  0  0
  179.5720  180.8940  139.9250 C   0  0  0  0  0  0  0  0  0  0  0  0
  180.4950  181.6440  139.5140 O   0  0  0  0  0  1  0  0  0  0  0  0
  1 19  1  0  0  0  0
  1  5  1  0  0  0  0
  2  4  1  0  0  0  0
  3  2  1  0  0  0  0
  3  4  1  0  0  0  0
  4  1  1  1  0  0  0
  7 11  1  0  0  0  0
  7  9  2  0  0  0  0
  8  6  2  0  0  0  0
  9  8  1  0  0  0  0
 10  8  1  0  0  0  0
 10 14  1  1  0  0  0
 11  5  1  6  0  0  0
 11 10  1  0  0  0  0
 12 13  2  0  0  0  0
 14 18  1  0  0  0  0
 15 14  2  0  0  0  0
 15 16  1  0  0  0  0
 16 17  2  0  0  0  0
 17 13  1  0  0  0  0
 18 12  1  0  0  0  0
 20 25  2  0  0  0  0
 20 21  1  0  0  0  0
 21 24  2  0  0  0  0
 22 19  1  0  0  0  0
 22 23  2  0  0  0  0
 24 23  1  0  0  0  0
 25 22  1  0  0  0  0
 26 27  2  0  0  0  0
 27 21  1  0  0  0  0
 27 28  1  0  0  0  0
 29 28  1  0  0  0  0
 29 30  1  0  0  0  0
 31 30  1  0  0  0  0
 32 33  2  0  0  0  0
 33 31  1  0  0  0  0
 34 33  1  0  0  0  0
M  END
>  <MODEL>
9

>  <REMARK>
 VINA RESULT:      -7.4      3.730      8.993
  Name = 
  12 active torsions:
  status: ('A' for Active; 'I' for Inactive)
    1  A    between atoms: C_6  and  C_32
    2  A    between atoms: O_8  and  C_11
    3  A    between atoms: O_8  and  C_15
    4  A    between atoms: C_10  and  C_15
    5  A    between atoms: C_11  and  C_18
    6  A    between atoms: C_13  and  C_33
    7  A    between atoms: C_17  and  N_27
    8  A    between atoms: C_17  and  C_34
    9  A    between atoms: C_18  and  O_23
   10  A    between atoms: C_21  and  N_27
   11  A    between atoms: O_23  and  C_28
   12  A    between atoms: N_27  and  C_33
                            x       y       z     vdW  Elec       q    Type
                         _______ _______ _______ _____ _____    ______ ____

>  <TORSDO>
F 12

$$$$
