=
 OpenBabel11062416333D

 29 32  0  0  1  0  0  0  0  0999 V2000
  191.5530  176.1780  145.6190 C   0  0  0  0  0  2  0  0  0  0  0  0
  188.3080  178.2190  145.7660 C   0  0  2  0  0  3  0  0  0  0  0  0
  191.0890  176.5280  147.0350 C   0  0  0  0  0  2  0  0  0  0  0  0
  190.7180  175.8710  138.1790 C   0  0  0  0  0  1  0  0  0  0  0  0
  189.5160  176.0780  142.7900 N   0  0  0  0  0  0  0  0  0  0  0  0
  189.3900  178.1510  146.6770 O   0  0  0  0  0  0  0  0  0  0  0  0
  190.0790  176.0690  140.4940 N   0  0  0  0  0  0  0  0  0  0  0  0
  189.5980  176.8310  147.1110 C   0  0  0  0  0  2  0  0  0  0  0  0
  192.0530  177.2790  139.8450 C   0  0  0  0  0  3  0  0  0  0  0  0
  191.9680  177.2530  143.3990 C   0  0  0  0  0  2  0  0  0  0  0  0
  190.9790  177.1110  144.5620 C   0  0  1  0  0  3  0  0  0  0  0  0
  190.9010  176.4110  139.5510 C   0  0  0  0  0  0  0  0  0  0  0  0
  187.1710  177.0430  144.0810 N   0  0  0  0  0  0  0  0  0  0  0  0
  187.0080  177.6270  146.2180 C   0  0  0  0  0  2  0  0  0  0  0  0
  192.2060  177.8060  141.0250 N   0  0  0  0  0  0  0  0  0  0  0  0
  189.5730  176.5930  144.1660 C   0  0  1  0  0  3  0  0  0  0  0  0
  190.2310  176.5700  141.8250 C   0  0  0  0  0  0  0  0  0  0  0  0
  191.2440  177.6420  142.1200 C   0  0  1  0  0  3  0  0  0  0  0  0
  188.4740  177.6500  144.3740 C   0  0  2  0  0  3  0  0  0  0  0  0
  186.2680  177.4110  145.0460 O   0  0  0  0  0  0  0  0  0  0  0  0
  186.7060  177.5180  142.7720 C   0  0  1  0  0  3  0  0  0  0  0  0
  185.3210  177.6990  142.7890 O   0  0  0  0  0  0  0  0  0  0  0  0
  185.1430  179.0820  142.8560 C   0  0  0  0  0  1  0  0  0  0  0  0
  187.4040  178.8040  142.3260 C   0  0  0  0  0  2  0  0  0  0  0  0
  187.9410  178.6470  140.9120 C   0  0  0  0  0  2  0  0  0  0  0  0
  186.8800  178.5470  140.0090 O   0  0  0  0  0  0  0  0  0  0  0  0
  187.4730  178.1890  138.7990 C   0  0  0  0  0  2  0  0  0  0  0  0
  188.9520  179.3500  137.2570 N   0  0  0  0  0  1  0  0  0  0  0  0
  188.7920  178.9210  138.6360 C   0  0  0  0  0  2  0  0  0  0  0  0
  1  3  1  0  0  0  0
  2 14  1  1  0  0  0
  2  6  1  0  0  0  0
  3  8  1  0  0  0  0
  4 12  1  0  0  0  0
  6  8  1  0  0  0  0
  7 17  1  0  0  0  0
  9 15  2  0  0  0  0
 11 10  1  6  0  0  0
 11  1  1  0  0  0  0
 12  9  1  0  0  0  0
 12  7  2  0  0  0  0
 13 20  1  0  0  0  0
 15 18  1  0  0  0  0
 16  5  1  6  0  0  0
 16 19  1  0  0  0  0
 16 11  1  0  0  0  0
 17 18  1  0  0  0  0
 17  5  2  0  0  0  0
 18 10  1  1  0  0  0
 19 13  1  1  0  0  0
 19  2  1  0  0  0  0
 20 14  1  0  0  0  0
 21 24  1  1  0  0  0
 21 22  1  0  0  0  0
 21 13  1  0  0  0  0
 22 23  1  0  0  0  0
 25 24  1  0  0  0  0
 26 25  1  0  0  0  0
 27 26  1  0  0  0  0
 28 29  1  0  0  0  0
 29 27  1  0  0  0  0
M  END
>  <MODEL>
1

>  <REMARK>
 VINA RESULT:      -7.1      0.000      0.000
  Name = 
  7 active torsions:
  status: ('A' for Active; 'I' for Inactive)
    1  A    between atoms: C_2  and  O_14
    2  A    between atoms: C_2  and  C_17
    3  A    between atoms: O_6  and  C_9
    4  A    between atoms: C_9  and  C_13
    5  A    between atoms: C_9  and  N_21
    6  A    between atoms: C_13  and  C_16
    7  A    between atoms: O_14  and  C_16
                            x       y       z     vdW  Elec       q    Type
                         _______ _______ _______ _____ _____    ______ ____

>  <TORSDO>
F 7

$$$$
=
 OpenBabel11062416333D

 29 32  0  0  1  0  0  0  0  0999 V2000
  186.8220  178.4860  144.6550 C   0  0  0  0  0  2  0  0  0  0  0  0
  189.0960  176.4550  142.3250 C   0  0  2  0  0  3  0  0  0  0  0  0
  188.0190  177.8330  145.3500 C   0  0  0  0  0  2  0  0  0  0  0  0
  182.8100  180.4190  138.6280 C   0  0  0  0  0  1  0  0  0  0  0  0
  186.6060  179.2010  141.2480 N   0  0  0  0  0  0  0  0  0  0  0  0
  188.8560  176.3250  143.7140 O   0  0  0  0  0  0  0  0  0  0  0  0
  184.7290  179.7160  139.9050 N   0  0  0  0  0  0  0  0  0  0  0  0
  189.1610  177.5170  144.3910 C   0  0  0  0  0  2  0  0  0  0  0  0
  182.6410  178.6820  140.4980 C   0  0  0  0  0  3  0  0  0  0  0  0
  184.9510  177.9260  143.0920 C   0  0  0  0  0  2  0  0  0  0  0  0
  186.4590  177.8070  143.3410 C   0  0  1  0  0  3  0  0  0  0  0  0
  183.4580  179.5900  139.6780 C   0  0  0  0  0  0  0  0  0  0  0  0
  189.0690  177.9700  140.5310 N   0  0  0  0  0  0  0  0  0  0  0  0
  190.4580  176.9310  141.9190 C   0  0  0  0  0  2  0  0  0  0  0  0
  183.1920  177.9090  141.3870 N   0  0  0  0  0  0  0  0  0  0  0  0
  187.3560  178.3960  142.2230 C   0  0  1  0  0  3  0  0  0  0  0  0
  185.3810  178.9340  140.9110 C   0  0  0  0  0  0  0  0  0  0  0  0
  184.6400  177.8260  141.6070 C   0  0  1  0  0  3  0  0  0  0  0  0
  188.1740  177.3170  141.4910 C   0  0  2  0  0  3  0  0  0  0  0  0
  190.3140  177.3970  140.6030 O   0  0  0  0  0  0  0  0  0  0  0  0
  188.5300  177.7930  139.1770 C   0  0  1  0  0  3  0  0  0  0  0  0
  188.2400  179.0360  138.6080 O   0  0  0  0  0  0  0  0  0  0  0  0
  189.0780  179.1220  137.4950 C   0  0  0  0  0  1  0  0  0  0  0  0
  189.4650  176.9980  138.2660 C   0  0  0  0  0  2  0  0  0  0  0  0
  188.7950  175.7060  137.8240 C   0  0  0  0  0  2  0  0  0  0  0  0
  188.2730  175.8590  136.5370 O   0  0  0  0  0  0  0  0  0  0  0  0
  186.8920  175.7330  136.6950 C   0  0  0  0  0  2  0  0  0  0  0  0
  185.2240  177.4090  137.2620 N   0  0  0  0  0  1  0  0  0  0  0  0
  186.2060  177.0160  136.2660 C   0  0  0  0  0  2  0  0  0  0  0  0
  1  3  1  0  0  0  0
  2 14  1  1  0  0  0
  2  6  1  0  0  0  0
  4 12  1  0  0  0  0
  6  8  1  0  0  0  0
  7 17  1  0  0  0  0
  8  3  1  0  0  0  0
  9 15  2  0  0  0  0
 11 10  1  6  0  0  0
 11  1  1  0  0  0  0
 12  7  2  0  0  0  0
 12  9  1  0  0  0  0
 13 20  1  0  0  0  0
 15 18  1  0  0  0  0
 16  5  1  6  0  0  0
 16 11  1  0  0  0  0
 17  5  2  0  0  0  0
 17 18  1  0  0  0  0
 18 10  1  1  0  0  0
 19 13  1  6  0  0  0
 19 16  1  0  0  0  0
 19  2  1  0  0  0  0
 20 14  1  0  0  0  0
 21 24  1  6  0  0  0
 21 13  1  0  0  0  0
 22 21  1  0  0  0  0
 23 22  1  0  0  0  0
 25 24  1  0  0  0  0
 26 27  1  0  0  0  0
 26 25  1  0  0  0  0
 29 27  1  0  0  0  0
 29 28  1  0  0  0  0
M  END
>  <MODEL>
2

>  <REMARK>
 VINA RESULT:      -7.0      2.815      5.602
  Name = 
  7 active torsions:
  status: ('A' for Active; 'I' for Inactive)
    1  A    between atoms: C_2  and  O_14
    2  A    between atoms: C_2  and  C_17
    3  A    between atoms: O_6  and  C_9
    4  A    between atoms: C_9  and  C_13
    5  A    between atoms: C_9  and  N_21
    6  A    between atoms: C_13  and  C_16
    7  A    between atoms: O_14  and  C_16
                            x       y       z     vdW  Elec       q    Type
                         _______ _______ _______ _____ _____    ______ ____

>  <TORSDO>
F 7

$$$$
=
 OpenBabel11062416333D

 29 32  0  0  1  0  0  0  0  0999 V2000
  186.2740  178.5240  144.6120 C   0  0  0  0  0  2  0  0  0  0  0  0
  188.7950  176.6900  142.3760 C   0  0  2  0  0  3  0  0  0  0  0  0
  187.4470  177.8920  145.3660 C   0  0  0  0  0  2  0  0  0  0  0  0
  182.6180  180.5440  138.3910 C   0  0  0  0  0  1  0  0  0  0  0  0
  186.2690  179.3730  141.2300 N   0  0  0  0  0  0  0  0  0  0  0  0
  188.4630  176.4910  143.7370 O   0  0  0  0  0  0  0  0  0  0  0  0
  184.4710  179.8670  139.7750 N   0  0  0  0  0  0  0  0  0  0  0  0
  188.6660  177.6640  144.4810 C   0  0  0  0  0  2  0  0  0  0  0  0
  182.3940  178.7240  140.1740 C   0  0  0  0  0  3  0  0  0  0  0  0
  184.5450  177.9540  142.8970 C   0  0  0  0  0  2  0  0  0  0  0  0
  186.0360  177.8870  143.2500 C   0  0  1  0  0  3  0  0  0  0  0  0
  183.2260  179.6990  139.4510 C   0  0  0  0  0  0  0  0  0  0  0  0
  188.8280  178.2780  140.6460 N   0  0  0  0  0  0  0  0  0  0  0  0
  190.1600  177.2390  142.0890 C   0  0  0  0  0  2  0  0  0  0  0  0
  182.9140  177.9370  141.0690 N   0  0  0  0  0  0  0  0  0  0  0  0
  186.9830  178.5600  142.2240 C   0  0  1  0  0  3  0  0  0  0  0  0
  185.0840  179.0720  140.7940 C   0  0  0  0  0  0  0  0  0  0  0  0
  184.3450  177.9050  141.3900 C   0  0  1  0  0  3  0  0  0  0  0  0
  187.8970  177.5480  141.5120 C   0  0  2  0  0  3  0  0  0  0  0  0
  190.0890  177.7540  140.7860 O   0  0  0  0  0  0  0  0  0  0  0  0
  188.3950  178.1370  139.2510 C   0  0  1  0  0  3  0  0  0  0  0  0
  189.0400  179.0800  138.4470 O   0  0  0  0  0  0  0  0  0  0  0  0
  188.2880  179.1220  137.2730 C   0  0  0  0  0  1  0  0  0  0  0  0
  188.6200  176.7280  138.6990 C   0  0  0  0  0  2  0  0  0  0  0  0
  190.0200  176.6090  138.1170 C   0  0  0  0  0  2  0  0  0  0  0  0
  190.5830  175.3840  138.4810 O   0  0  0  0  0  0  0  0  0  0  0  0
  191.7970  175.3310  137.7960 C   0  0  0  0  0  2  0  0  0  0  0  0
  193.8000  176.6300  137.3320 N   0  0  0  0  0  1  0  0  0  0  0  0
  192.7030  176.4520  138.2680 C   0  0  0  0  0  2  0  0  0  0  0  0
  1  3  1  0  0  0  0
  2 14  1  1  0  0  0
  2  6  1  0  0  0  0
  4 12  1  0  0  0  0
  6  8  1  0  0  0  0
  7 17  1  0  0  0  0
  8  3  1  0  0  0  0
  9 15  2  0  0  0  0
 11 10  1  6  0  0  0
 11  1  1  0  0  0  0
 12  7  2  0  0  0  0
 12  9  1  0  0  0  0
 13 20  1  0  0  0  0
 15 18  1  0  0  0  0
 16  5  1  6  0  0  0
 16 11  1  0  0  0  0
 17  5  2  0  0  0  0
 17 18  1  0  0  0  0
 18 10  1  1  0  0  0
 19 13  1  6  0  0  0
 19 16  1  0  0  0  0
 19  2  1  0  0  0  0
 20 14  1  0  0  0  0
 21 24  1  6  0  0  0
 21 13  1  0  0  0  0
 22 21  1  0  0  0  0
 23 22  1  0  0  0  0
 25 26  1  0  0  0  0
 25 24  1  0  0  0  0
 27 29  1  0  0  0  0
 27 26  1  0  0  0  0
 28 29  1  0  0  0  0
M  END
>  <MODEL>
3

>  <REMARK>
 VINA RESULT:      -7.0      2.864      5.851
  Name = 
  7 active torsions:
  status: ('A' for Active; 'I' for Inactive)
    1  A    between atoms: C_2  and  O_14
    2  A    between atoms: C_2  and  C_17
    3  A    between atoms: O_6  and  C_9
    4  A    between atoms: C_9  and  C_13
    5  A    between atoms: C_9  and  N_21
    6  A    between atoms: C_13  and  C_16
    7  A    between atoms: O_14  and  C_16
                            x       y       z     vdW  Elec       q    Type
                         _______ _______ _______ _____ _____    ______ ____

>  <TORSDO>
F 7

$$$$
=
 OpenBabel11062416333D

 29 32  0  0  1  0  0  0  0  0999 V2000
  186.4850  178.6120  144.6430 C   0  0  0  0  0  2  0  0  0  0  0  0
  188.7770  176.5170  142.3900 C   0  0  2  0  0  3  0  0  0  0  0  0
  187.6610  177.9570  145.3710 C   0  0  0  0  0  2  0  0  0  0  0  0
  182.6070  180.4910  138.5120 C   0  0  0  0  0  1  0  0  0  0  0  0
  186.3400  179.2730  141.2210 N   0  0  0  0  0  0  0  0  0  0  0  0
  188.5100  176.4120  143.7750 O   0  0  0  0  0  0  0  0  0  0  0  0
  184.4940  179.7870  139.8360 N   0  0  0  0  0  0  0  0  0  0  0  0
  188.8160  177.6120  144.4390 C   0  0  0  0  0  2  0  0  0  0  0  0
  182.3830  178.7870  140.4070 C   0  0  0  0  0  3  0  0  0  0  0  0
  184.6360  178.0480  143.0550 C   0  0  0  0  0  2  0  0  0  0  0  0
  186.1380  177.9160  143.3340 C   0  0  1  0  0  3  0  0  0  0  0  0
  183.2260  179.6720  139.5870 C   0  0  0  0  0  0  0  0  0  0  0  0
  188.8010  178.0030  140.5710 N   0  0  0  0  0  0  0  0  0  0  0  0
  190.1520  176.9710  142.0010 C   0  0  0  0  0  2  0  0  0  0  0  0
  182.9090  178.0230  141.3180 N   0  0  0  0  0  0  0  0  0  0  0  0
  187.0620  178.4760  142.2230 C   0  0  1  0  0  3  0  0  0  0  0  0
  185.1180  179.0150  140.8660 C   0  0  0  0  0  0  0  0  0  0  0  0
  184.3520  177.9270  141.5660 C   0  0  1  0  0  3  0  0  0  0  0  0
  187.8800  177.3760  141.5250 C   0  0  2  0  0  3  0  0  0  0  0  0
  190.0370  177.4170  140.6750 O   0  0  0  0  0  0  0  0  0  0  0  0
  188.2850  177.8100  139.2100 C   0  0  1  0  0  3  0  0  0  0  0  0
  188.2180  179.0340  138.5410 O   0  0  0  0  0  0  0  0  0  0  0  0
  189.2400  178.9790  137.5930 C   0  0  0  0  0  1  0  0  0  0  0  0
  189.1080  176.8070  138.4000 C   0  0  0  0  0  2  0  0  0  0  0  0
  188.1960  175.9660  137.5220 C   0  0  0  0  0  2  0  0  0  0  0  0
  188.9460  175.3310  136.5300 O   0  0  0  0  0  0  0  0  0  0  0  0
  189.3910  174.1480  137.1200 C   0  0  0  0  0  2  0  0  0  0  0  0
  191.7330  174.3040  137.7560 N   0  0  0  0  0  1  0  0  0  0  0  0
  190.8250  173.8740  136.7070 C   0  0  0  0  0  2  0  0  0  0  0  0
  1  3  1  0  0  0  0
  2 14  1  1  0  0  0
  2  6  1  0  0  0  0
  4 12  1  0  0  0  0
  6  8  1  0  0  0  0
  7 17  1  0  0  0  0
  8  3  1  0  0  0  0
  9 15  2  0  0  0  0
 11 10  1  6  0  0  0
 11  1  1  0  0  0  0
 12  7  2  0  0  0  0
 12  9  1  0  0  0  0
 13 20  1  0  0  0  0
 15 18  1  0  0  0  0
 16  5  1  6  0  0  0
 16 11  1  0  0  0  0
 17  5  2  0  0  0  0
 17 18  1  0  0  0  0
 18 10  1  1  0  0  0
 19 13  1  6  0  0  0
 19 16  1  0  0  0  0
 19  2  1  0  0  0  0
 20 14  1  0  0  0  0
 21 24  1  6  0  0  0
 21 13  1  0  0  0  0
 22 21  1  0  0  0  0
 23 22  1  0  0  0  0
 25 24  1  0  0  0  0
 26 27  1  0  0  0  0
 26 25  1  0  0  0  0
 29 27  1  0  0  0  0
 29 28  1  0  0  0  0
M  END
>  <MODEL>
4

>  <REMARK>
 VINA RESULT:      -6.9      2.851      5.865
  Name = 
  7 active torsions:
  status: ('A' for Active; 'I' for Inactive)
    1  A    between atoms: C_2  and  O_14
    2  A    between atoms: C_2  and  C_17
    3  A    between atoms: O_6  and  C_9
    4  A    between atoms: C_9  and  C_13
    5  A    between atoms: C_9  and  N_21
    6  A    between atoms: C_13  and  C_16
    7  A    between atoms: O_14  and  C_16
                            x       y       z     vdW  Elec       q    Type
                         _______ _______ _______ _____ _____    ______ ____

>  <TORSDO>
F 7

$$$$
=
 OpenBabel11062416333D

 29 32  0  0  1  0  0  0  0  0999 V2000
  183.6670  178.3100  142.5730 C   0  0  0  0  0  2  0  0  0  0  0  0
  186.9620  178.9550  140.7160 C   0  0  2  0  0  3  0  0  0  0  0  0
  183.5080  178.5700  141.0730 C   0  0  0  0  0  2  0  0  0  0  0  0
  187.6990  177.0960  148.7720 C   0  0  0  0  0  1  0  0  0  0  0  0
  186.5830  177.2040  144.1350 N   0  0  0  0  0  0  0  0  0  0  0  0
  185.6450  179.3810  140.4210 O   0  0  0  0  0  0  0  0  0  0  0  0
  187.2020  177.2230  146.4170 N   0  0  0  0  0  0  0  0  0  0  0  0
  184.7800  178.2830  140.2850 C   0  0  0  0  0  2  0  0  0  0  0  0
  186.3800  179.0400  147.7600 C   0  0  0  0  0  3  0  0  0  0  0  0
  184.7770  179.2750  144.5960 C   0  0  0  0  0  2  0  0  0  0  0  0
  184.9710  178.8610  143.1330 C   0  0  1  0  0  3  0  0  0  0  0  0
  187.1140  177.7760  147.5870 C   0  0  0  0  0  0  0  0  0  0  0  0
  188.2180  177.2990  141.8090 N   0  0  0  0  0  0  0  0  0  0  0  0
  187.5680  177.9490  139.7860 C   0  0  0  0  0  2  0  0  0  0  0  0
  185.9040  179.6800  146.7330 N   0  0  0  0  0  0  0  0  0  0  0  0
  186.0880  177.8130  142.8920 C   0  0  1  0  0  3  0  0  0  0  0  0
  186.6460  177.8520  145.2580 C   0  0  0  0  0  0  0  0  0  0  0  0
  186.1010  179.2510  145.3440 C   0  0  1  0  0  3  0  0  0  0  0  0
  187.2660  178.3800  142.0820 C   0  0  2  0  0  3  0  0  0  0  0  0
  188.6280  177.3700  140.5020 O   0  0  0  0  0  0  0  0  0  0  0  0
  189.3800  177.4500  142.6920 C   0  0  1  0  0  3  0  0  0  0  0  0
  190.4950  176.8190  142.1350 O   0  0  0  0  0  0  0  0  0  0  0  0
  190.6160  175.6210  142.8390 C   0  0  0  0  0  1  0  0  0  0  0  0
  189.7000  178.9120  143.0070 C   0  0  0  0  0  2  0  0  0  0  0  0
  190.6870  178.9980  144.1610 C   0  0  0  0  0  2  0  0  0  0  0  0
  190.2060  178.2720  145.2520 O   0  0  0  0  0  0  0  0  0  0  0  0
  191.3010  177.5340  145.7010 C   0  0  0  0  0  2  0  0  0  0  0  0
  192.1110  176.2150  147.5770 N   0  0  0  0  0  1  0  0  0  0  0  0
  190.9180  176.7480  146.9410 C   0  0  0  0  0  2  0  0  0  0  0  0
  2 14  1  6  0  0  0
  2 19  1  0  0  0  0
  3  1  1  0  0  0  0
  5 17  2  0  0  0  0
  6  2  1  0  0  0  0
  7 12  2  0  0  0  0
  8  6  1  0  0  0  0
  8  3  1  0  0  0  0
 11  1  1  1  0  0  0
 11 10  1  0  0  0  0
 12  9  1  0  0  0  0
 12  4  1  0  0  0  0
 13 21  1  0  0  0  0
 14 20  1  0  0  0  0
 15  9  2  0  0  0  0
 16 11  1  0  0  0  0
 16  5  1  1  0  0  0
 17 18  1  0  0  0  0
 17  7  1  0  0  0  0
 18 10  1  6  0  0  0
 18 15  1  0  0  0  0
 19 13  1  6  0  0  0
 19 16  1  0  0  0  0
 20 13  1  0  0  0  0
 21 24  1  6  0  0  0
 22 21  1  0  0  0  0
 22 23  1  0  0  0  0
 24 25  1  0  0  0  0
 25 26  1  0  0  0  0
 26 27  1  0  0  0  0
 27 29  1  0  0  0  0
 29 28  1  0  0  0  0
M  END
>  <MODEL>
5

>  <REMARK>
 VINA RESULT:      -6.9      2.344      7.020
  Name = 
  7 active torsions:
  status: ('A' for Active; 'I' for Inactive)
    1  A    between atoms: C_2  and  O_14
    2  A    between atoms: C_2  and  C_17
    3  A    between atoms: O_6  and  C_9
    4  A    between atoms: C_9  and  C_13
    5  A    between atoms: C_9  and  N_21
    6  A    between atoms: C_13  and  C_16
    7  A    between atoms: O_14  and  C_16
                            x       y       z     vdW  Elec       q    Type
                         _______ _______ _______ _____ _____    ______ ____

>  <TORSDO>
F 7

$$$$
=
 OpenBabel11062416333D

 29 32  0  0  1  0  0  0  0  0999 V2000
  191.9710  175.4510  145.3380 C   0  0  0  0  0  2  0  0  0  0  0  0
  189.5120  177.9230  146.9390 C   0  0  2  0  0  3  0  0  0  0  0  0
  192.0810  175.5570  146.8610 C   0  0  0  0  0  2  0  0  0  0  0  0
  188.7390  176.9120  138.7370 C   0  0  0  0  0  1  0  0  0  0  0  0
  189.1670  176.3090  143.4500 N   0  0  0  0  0  0  0  0  0  0  0  0
  190.7810  177.4790  147.3790 O   0  0  0  0  0  0  0  0  0  0  0  0
  188.9430  176.7050  141.1290 N   0  0  0  0  0  0  0  0  0  0  0  0
  190.8060  176.0810  147.5120 C   0  0  0  0  0  2  0  0  0  0  0  0
  190.8270  177.6810  139.9980 C   0  0  0  0  0  3  0  0  0  0  0  0
  191.8860  176.8980  143.2990 C   0  0  0  0  0  2  0  0  0  0  0  0
  191.3190  176.6730  144.7060 C   0  0  1  0  0  3  0  0  0  0  0  0
  189.4730  177.1030  140.0140 C   0  0  0  0  0  0  0  0  0  0  0  0
  187.6530  177.3470  145.6230 N   0  0  0  0  0  0  0  0  0  0  0  0
  188.3260  177.4710  147.7370 C   0  0  0  0  0  2  0  0  0  0  0  0
  191.4690  177.9060  141.1060 N   0  0  0  0  0  0  0  0  0  0  0  0
  189.7810  176.4960  144.7720 C   0  0  1  0  0  3  0  0  0  0  0  0
  189.6270  176.8730  142.3750 C   0  0  0  0  0  0  0  0  0  0  0  0
  190.9000  177.6710  142.4380 C   0  0  1  0  0  3  0  0  0  0  0  0
  189.0840  177.6500  145.5130 C   0  0  2  0  0  3  0  0  0  0  0  0
  187.2190  177.6420  146.8910 O   0  0  0  0  0  0  0  0  0  0  0  0
  186.9150  178.1660  144.6540 C   0  0  1  0  0  3  0  0  0  0  0  0
  186.3230  177.3510  143.6860 O   0  0  0  0  0  0  0  0  0  0  0  0
  186.1980  178.1670  142.5610 C   0  0  0  0  0  1  0  0  0  0  0  0
  185.8630  179.0600  145.3120 C   0  0  0  0  0  2  0  0  0  0  0  0
  184.5680  178.2880  145.5100 C   0  0  0  0  0  2  0  0  0  0  0  0
  183.4830  179.1670  145.4830 O   0  0  0  0  0  0  0  0  0  0  0  0
  183.4820  179.6960  144.1920 C   0  0  0  0  0  2  0  0  0  0  0  0
  181.2830  178.6680  144.0510 N   0  0  0  0  0  1  0  0  0  0  0  0
  182.5120  178.9210  143.3200 C   0  0  0  0  0  2  0  0  0  0  0  0
  1  3  1  0  0  0  0
  2  6  1  0  0  0  0
  2 14  1  1  0  0  0
  3  8  1  0  0  0  0
  4 12  1  0  0  0  0
  6  8  1  0  0  0  0
  7 17  1  0  0  0  0
  9 12  1  0  0  0  0
  9 15  2  0  0  0  0
 11 10  1  6  0  0  0
 11 16  1  0  0  0  0
 11  1  1  0  0  0  0
 12  7  2  0  0  0  0
 13 20  1  0  0  0  0
 15 18  1  0  0  0  0
 16  5  1  6  0  0  0
 16 19  1  0  0  0  0
 17 18  1  0  0  0  0
 17  5  2  0  0  0  0
 18 10  1  1  0  0  0
 19 13  1  1  0  0  0
 19  2  1  0  0  0  0
 20 14  1  0  0  0  0
 21 24  1  1  0  0  0
 21 13  1  0  0  0  0
 22 21  1  0  0  0  0
 23 22  1  0  0  0  0
 24 25  1  0  0  0  0
 26 25  1  0  0  0  0
 27 26  1  0  0  0  0
 29 28  1  0  0  0  0
 29 27  1  0  0  0  0
M  END
>  <MODEL>
6

>  <REMARK>
 VINA RESULT:      -6.9      1.925      3.456
  Name = 
  7 active torsions:
  status: ('A' for Active; 'I' for Inactive)
    1  A    between atoms: C_2  and  O_14
    2  A    between atoms: C_2  and  C_17
    3  A    between atoms: O_6  and  C_9
    4  A    between atoms: C_9  and  C_13
    5  A    between atoms: C_9  and  N_21
    6  A    between atoms: C_13  and  C_16
    7  A    between atoms: O_14  and  C_16
                            x       y       z     vdW  Elec       q    Type
                         _______ _______ _______ _____ _____    ______ ____

>  <TORSDO>
F 7

$$$$
=
 OpenBabel11062416333D

 29 32  0  0  1  0  0  0  0  0999 V2000
  191.9910  177.5180  140.8200 C   0  0  0  0  0  2  0  0  0  0  0  0
  190.2740  175.9090  137.7890 C   0  0  2  0  0  3  0  0  0  0  0  0
  192.9530  176.9820  139.7580 C   0  0  0  0  0  2  0  0  0  0  0  0
  185.1840  179.2560  143.4280 C   0  0  0  0  0  1  0  0  0  0  0  0
  188.6550  178.3790  140.2760 N   0  0  0  0  0  0  0  0  0  0  0  0
  191.5530  175.6770  138.3480 O   0  0  0  0  0  0  0  0  0  0  0  0
  186.8910  178.7280  141.8110 N   0  0  0  0  0  0  0  0  0  0  0  0
  192.3090  176.8600  138.3820 C   0  0  0  0  0  2  0  0  0  0  0  0
  186.9150  177.4150  143.8250 C   0  0  0  0  0  3  0  0  0  0  0  0
  189.9940  176.8140  142.1520 C   0  0  0  0  0  2  0  0  0  0  0  0
  190.6150  176.8690  140.7510 C   0  0  1  0  0  3  0  0  0  0  0  0
  186.3470  178.4590  142.9570 C   0  0  0  0  0  0  0  0  0  0  0  0
  188.5610  177.5020  137.5710 N   0  0  0  0  0  0  0  0  0  0  0  0
  190.2350  176.5710  136.4450 C   0  0  0  0  0  2  0  0  0  0  0  0
  187.9000  176.6700  143.4140 N   0  0  0  0  0  0  0  0  0  0  0  0
  189.7720  177.6230  139.6910 C   0  0  1  0  0  3  0  0  0  0  0  0
  188.0130  177.9820  141.3320 C   0  0  0  0  0  0  0  0  0  0  0  0
  188.4770  176.7550  142.0680 C   0  0  1  0  0  3  0  0  0  0  0  0
  189.2500  176.6940  138.5820 C   0  0  2  0  0  3  0  0  0  0  0  0
  188.9350  177.0840  136.3180 O   0  0  0  0  0  0  0  0  0  0  0  0
  187.1120  177.3320  137.7280 C   0  0  1  0  0  3  0  0  0  0  0  0
  186.4860  178.5780  137.8140 O   0  0  0  0  0  0  0  0  0  0  0  0
  185.3130  178.3390  138.5300 C   0  0  0  0  0  1  0  0  0  0  0  0
  186.4870  176.5010  136.6060 C   0  0  0  0  0  2  0  0  0  0  0  0
  185.9750  175.1780  137.1540 C   0  0  0  0  0  2  0  0  0  0  0  0
  187.0200  174.2540  137.2160 O   0  0  0  0  0  0  0  0  0  0  0  0
  186.4050  173.0090  137.0840 C   0  0  0  0  0  2  0  0  0  0  0  0
  184.1490  172.1080  137.1980 N   0  0  0  0  0  1  0  0  0  0  0  0
  185.0940  172.9990  137.8480 C   0  0  0  0  0  2  0  0  0  0  0  0
  2 14  1  6  0  0  0
  2  6  1  0  0  0  0
  2 19  1  0  0  0  0
  3  1  1  0  0  0  0
  5 17  2  0  0  0  0
  6  8  1  0  0  0  0
  7 12  2  0  0  0  0
  8  3  1  0  0  0  0
 11  1  1  1  0  0  0
 11 10  1  0  0  0  0
 12  4  1  0  0  0  0
 12  9  1  0  0  0  0
 13 21  1  0  0  0  0
 15  9  2  0  0  0  0
 16  5  1  1  0  0  0
 16 11  1  0  0  0  0
 17  7  1  0  0  0  0
 17 18  1  0  0  0  0
 18 10  1  1  0  0  0
 18 15  1  0  0  0  0
 19 13  1  6  0  0  0
 19 16  1  0  0  0  0
 20 14  1  0  0  0  0
 20 13  1  0  0  0  0
 21 24  1  6  0  0  0
 21 22  1  0  0  0  0
 22 23  1  0  0  0  0
 24 25  1  0  0  0  0
 25 26  1  0  0  0  0
 27 26  1  0  0  0  0
 27 29  1  0  0  0  0
 28 29  1  0  0  0  0
M  END
>  <MODEL>
7

>  <REMARK>
 VINA RESULT:      -6.7      3.215      6.361
  Name = 
  7 active torsions:
  status: ('A' for Active; 'I' for Inactive)
    1  A    between atoms: C_2  and  O_14
    2  A    between atoms: C_2  and  C_17
    3  A    between atoms: O_6  and  C_9
    4  A    between atoms: C_9  and  C_13
    5  A    between atoms: C_9  and  N_21
    6  A    between atoms: C_13  and  C_16
    7  A    between atoms: O_14  and  C_16
                            x       y       z     vdW  Elec       q    Type
                         _______ _______ _______ _____ _____    ______ ____

>  <TORSDO>
F 7

$$$$
=
 OpenBabel11062416333D

 29 32  0  0  1  0  0  0  0  0999 V2000
  188.5380  177.1160  146.7770 C   0  0  0  0  0  2  0  0  0  0  0  0
  185.5850  179.2190  145.5230 C   0  0  2  0  0  3  0  0  0  0  0  0
  187.5970  177.6070  147.8800 C   0  0  0  0  0  2  0  0  0  0  0  0
  190.5280  176.1130  139.6230 C   0  0  0  0  0  1  0  0  0  0  0  0
  187.7020  176.7820  143.4080 N   0  0  0  0  0  0  0  0  0  0  0  0
  186.2420  179.2190  146.7760 O   0  0  0  0  0  0  0  0  0  0  0  0
  189.0820  176.5430  141.5020 N   0  0  0  0  0  0  0  0  0  0  0  0
  186.2030  177.9430  147.3630 C   0  0  0  0  0  2  0  0  0  0  0  0
  191.2160  177.6500  141.5480 C   0  0  0  0  0  3  0  0  0  0  0  0
  189.8080  177.9660  144.7970 C   0  0  0  0  0  2  0  0  0  0  0  0
  188.4500  177.9530  145.5090 C   0  0  1  0  0  3  0  0  0  0  0  0
  190.2130  176.7790  140.9130 C   0  0  0  0  0  0  0  0  0  0  0  0
  185.1000  177.9080  143.6360 N   0  0  0  0  0  0  0  0  0  0  0  0
  184.1810  178.6960  145.4980 C   0  0  0  0  0  2  0  0  0  0  0  0
  190.9440  178.2840  142.6510 N   0  0  0  0  0  0  0  0  0  0  0  0
  187.2680  177.4250  144.6560 C   0  0  1  0  0  3  0  0  0  0  0  0
  188.7510  177.1670  142.7460 C   0  0  0  0  0  0  0  0  0  0  0  0
  189.6350  178.2440  143.3120 C   0  0  1  0  0  3  0  0  0  0  0  0
  186.2280  178.5160  144.3480 C   0  0  2  0  0  3  0  0  0  0  0  0
  183.9220  178.3830  144.1550 O   0  0  0  0  0  0  0  0  0  0  0  0
  185.1830  178.2640  142.2140 C   0  0  1  0  0  3  0  0  0  0  0  0
  183.9200  178.6160  141.7300 O   0  0  0  0  0  0  0  0  0  0  0  0
  183.5800  177.5910  140.8460 C   0  0  0  0  0  1  0  0  0  0  0  0
  186.1860  179.3860  141.9410 C   0  0  0  0  0  2  0  0  0  0  0  0
  187.1200  178.9910  140.8080 C   0  0  0  0  0  2  0  0  0  0  0  0
  186.3760  178.6490  139.6770 O   0  0  0  0  0  0  0  0  0  0  0  0
  187.2810  178.0020  138.8350 C   0  0  0  0  0  2  0  0  0  0  0  0
  188.5700  179.1510  137.1230 N   0  0  0  0  0  1  0  0  0  0  0  0
  187.2520  178.6420  137.4600 C   0  0  0  0  0  2  0  0  0  0  0  0
  1  3  1  0  0  0  0
  2 14  1  1  0  0  0
  2  6  1  0  0  0  0
  4 12  1  0  0  0  0
  6  8  1  0  0  0  0
  7 17  1  0  0  0  0
  8  3  1  0  0  0  0
  9 15  2  0  0  0  0
 11 10  1  6  0  0  0
 11  1  1  0  0  0  0
 12  7  2  0  0  0  0
 12  9  1  0  0  0  0
 13 20  1  0  0  0  0
 15 18  1  0  0  0  0
 16  5  1  6  0  0  0
 16 11  1  0  0  0  0
 17 18  1  0  0  0  0
 17  5  2  0  0  0  0
 18 10  1  1  0  0  0
 19 13  1  1  0  0  0
 19 16  1  0  0  0  0
 19  2  1  0  0  0  0
 20 14  1  0  0  0  0
 21 24  1  1  0  0  0
 21 13  1  0  0  0  0
 22 21  1  0  0  0  0
 23 22  1  0  0  0  0
 25 24  1  0  0  0  0
 26 25  1  0  0  0  0
 27 26  1  0  0  0  0
 28 29  1  0  0  0  0
 29 27  1  0  0  0  0
M  END
>  <MODEL>
8

>  <REMARK>
 VINA RESULT:      -6.6      1.625      2.328
  Name = 
  7 active torsions:
  status: ('A' for Active; 'I' for Inactive)
    1  A    between atoms: C_2  and  O_14
    2  A    between atoms: C_2  and  C_17
    3  A    between atoms: O_6  and  C_9
    4  A    between atoms: C_9  and  C_13
    5  A    between atoms: C_9  and  N_21
    6  A    between atoms: C_13  and  C_16
    7  A    between atoms: O_14  and  C_16
                            x       y       z     vdW  Elec       q    Type
                         _______ _______ _______ _____ _____    ______ ____

>  <TORSDO>
F 7

$$$$
=
 OpenBabel11062416333D

 29 32  0  0  1  0  0  0  0  0999 V2000
  189.2220  176.6080  147.1850 C   0  0  0  0  0  2  0  0  0  0  0  0
  186.3300  179.0520  146.5650 C   0  0  2  0  0  3  0  0  0  0  0  0
  188.4150  176.9650  148.4360 C   0  0  0  0  0  2  0  0  0  0  0  0
  190.5220  176.6780  139.8060 C   0  0  0  0  0  1  0  0  0  0  0  0
  188.0820  176.8780  143.9000 N   0  0  0  0  0  0  0  0  0  0  0  0
  187.0900  178.8090  147.7340 O   0  0  0  0  0  0  0  0  0  0  0  0
  189.2740  176.8760  141.8580 N   0  0  0  0  0  0  0  0  0  0  0  0
  187.0100  177.4590  148.1140 C   0  0  0  0  0  2  0  0  0  0  0  0
  191.4780  177.8380  141.8750 C   0  0  0  0  0  3  0  0  0  0  0  0
  190.3760  177.6970  145.2520 C   0  0  0  0  0  2  0  0  0  0  0  0
  189.0860  177.6450  146.0790 C   0  0  1  0  0  3  0  0  0  0  0  0
  190.3660  177.1410  141.2090 C   0  0  0  0  0  0  0  0  0  0  0  0
  185.5950  178.0960  144.5490 N   0  0  0  0  0  0  0  0  0  0  0  0
  184.8950  178.6200  146.5920 C   0  0  0  0  0  2  0  0  0  0  0  0
  191.3470  178.2980  143.0850 N   0  0  0  0  0  0  0  0  0  0  0  0
  187.8020  177.3320  145.2700 C   0  0  1  0  0  3  0  0  0  0  0  0
  189.0950  177.3050  143.2110 C   0  0  0  0  0  0  0  0  0  0  0  0
  190.0990  178.2240  143.8520 C   0  0  1  0  0  3  0  0  0  0  0  0
  186.8200  178.5150  145.2380 C   0  0  2  0  0  3  0  0  0  0  0  0
  184.5020  178.5450  145.2470 O   0  0  0  0  0  0  0  0  0  0  0  0
  185.5820  178.6750  143.2010 C   0  0  1  0  0  3  0  0  0  0  0  0
  185.8610  177.6890  142.2500 O   0  0  0  0  0  0  0  0  0  0  0  0
  186.3460  178.3880  141.1440 C   0  0  0  0  0  1  0  0  0  0  0  0
  184.2630  179.3740  142.8670 C   0  0  0  0  0  2  0  0  0  0  0  0
  183.3440  178.4300  142.1100 C   0  0  0  0  0  2  0  0  0  0  0  0
  182.0800  179.0080  141.9700 O   0  0  0  0  0  0  0  0  0  0  0  0
  181.5260  178.9680  143.2500 C   0  0  0  0  0  2  0  0  0  0  0  0
  179.4460  178.3230  144.3320 N   0  0  0  0  0  1  0  0  0  0  0  0
  180.0120  178.9580  143.1540 C   0  0  0  0  0  2  0  0  0  0  0  0
  1  3  1  0  0  0  0
  2 14  1  1  0  0  0
  2  6  1  0  0  0  0
  4 12  1  0  0  0  0
  6  8  1  0  0  0  0
  7 17  1  0  0  0  0
  8  3  1  0  0  0  0
  9 15  2  0  0  0  0
 11 10  1  6  0  0  0
 11  1  1  0  0  0  0
 12  7  2  0  0  0  0
 12  9  1  0  0  0  0
 13 20  1  0  0  0  0
 15 18  1  0  0  0  0
 16  5  1  6  0  0  0
 16 11  1  0  0  0  0
 17 18  1  0  0  0  0
 17  5  2  0  0  0  0
 18 10  1  1  0  0  0
 19 13  1  6  0  0  0
 19 16  1  0  0  0  0
 19  2  1  0  0  0  0
 20 14  1  0  0  0  0
 21 24  1  6  0  0  0
 21 13  1  0  0  0  0
 22 21  1  0  0  0  0
 23 22  1  0  0  0  0
 25 24  1  0  0  0  0
 26 25  1  0  0  0  0
 26 27  1  0  0  0  0
 29 27  1  0  0  0  0
 29 28  1  0  0  0  0
M  END
>  <MODEL>
9

>  <REMARK>
 VINA RESULT:      -6.5      2.431      4.019
  Name = 
  7 active torsions:
  status: ('A' for Active; 'I' for Inactive)
    1  A    between atoms: C_2  and  O_14
    2  A    between atoms: C_2  and  C_17
    3  A    between atoms: O_6  and  C_9
    4  A    between atoms: C_9  and  C_13
    5  A    between atoms: C_9  and  N_21
    6  A    between atoms: C_13  and  C_16
    7  A    between atoms: O_14  and  C_16
                            x       y       z     vdW  Elec       q    Type
                         _______ _______ _______ _____ _____    ______ ____

>  <TORSDO>
F 7

$$$$
