=
 OpenBabel11062415163D

 41 47  0  0  1  0  0  0  0  0999 V2000
  189.1200  176.9630  136.8770 C   0  0  2  0  0  3  0  0  0  0  0  0
  191.7760  176.2730  137.5480 C   0  0  0  0  0  2  0  0  0  0  0  0
  190.9550  177.0800  138.5270 C   0  0  0  0  0  0  0  0  0  0  0  0
  190.2230  176.7720  140.8830 C   0  0  0  0  0  2  0  0  0  0  0  0
  190.9100  175.3190  136.8540 N   0  0  0  0  0  0  0  0  0  0  0  0
  189.6720  175.5910  136.5540 C   0  0  0  0  0  0  0  0  0  0  0  0
  188.8770  177.4750  140.5470 C   0  0  2  0  0  3  0  0  0  0  0  0
  188.8130  174.5260  136.1200 N   0  0  0  0  0  2  0  0  0  0  0  0
  189.4250  177.8330  135.8520 F   0  0  0  0  0  0  0  0  0  0  0  0
  188.8640  178.1840  139.1720 C   0  0  0  0  0  2  0  0  0  0  0  0
  189.7070  177.4450  138.1770 C   0  0  0  0  0  0  0  0  0  0  0  0
  191.3820  177.2100  139.9690 C   0  0  0  0  0  2  0  0  0  0  0  0
  186.8830  177.2390  143.3560 C   0  0  0  0  0  2  0  0  0  0  0  0
  188.4950  178.4260  141.6930 C   0  0  1  0  0  3  0  0  0  0  0  0
  189.8360  177.5440  143.6770 C   0  0  0  0  0  0  0  0  0  0  0  0
  187.0570  178.2480  142.2270 C   0  0  0  0  0  2  0  0  0  0  0  0
  187.8370  176.0730  143.2040 C   0  0  0  0  0  2  0  0  0  0  0  0
  189.0760  176.3700  143.8520 O   0  0  0  0  0  0  0  0  0  0  0  0
  189.5590  178.4860  142.7560 C   0  0  0  0  0  3  0  0  0  0  0  0
  190.9620  177.7510  144.4870 O   0  0  0  0  0  0  0  0  0  0  0  0
  191.6910  176.9290  146.5470 N   0  0  0  0  0  1  0  0  0  0  0  0
  191.6810  176.6860  145.1150 C   0  0  0  0  0  2  0  0  0  0  0  0
  187.4720  174.3300  136.6200 C   0  0  0  0  0  0  0  0  0  0  0  0
  184.9160  173.9670  137.7260 C   0  0  0  0  0  3  0  0  0  0  0  0
  187.1100  173.0940  137.1810 C   0  0  0  0  0  0  0  0  0  0  0  0
  186.5350  175.3760  136.6140 C   0  0  0  0  0  3  0  0  0  0  0  0
  185.2630  175.2000  137.1640 C   0  0  0  0  0  0  0  0  0  0  0  0
  188.0330  172.0510  137.2300 O   0  0  0  0  0  1  0  0  0  0  0  0
  185.8370  172.9170  137.7340 C   0  0  0  0  0  3  0  0  0  0  0  0
  184.5030  177.4640  135.9890 O   0  0  0  0  0  0  0  0  0  0  0  0
  184.0810  176.5080  137.0660 S   0  0  0  0  0  0  0  0  0  0  0  0
  182.7470  175.9330  136.6850 O   0  0  0  0  0  0  0  0  0  0  0  0
  181.7580  178.9570  138.5230 C   0  0  0  0  0  2  0  0  0  0  0  0
  182.6780  179.1500  139.7030 C   0  0  1  0  0  0  0  0  0  0  0  0
  184.3410  179.5240  138.5700 C   0  0  2  0  0  3  0  0  0  0  0  0
  183.2080  178.6080  138.3250 C   0  0  2  0  0  0  0  0  0  0  0  0
  183.9060  177.3580  138.5830 N   0  0  0  0  0  0  0  0  0  0  0  0
  185.1010  178.1960  138.8060 C   0  0  0  0  0  2  0  0  0  0  0  0
  183.7780  180.0350  139.7530 O   0  0  0  0  0  0  0  0  0  0  0  0
  183.3430  178.5840  141.9660 O   0  0  0  0  0  1  0  0  0  0  0  0
  182.6370  178.1300  140.8550 C   0  0  0  0  0  2  0  0  0  0  0  0
  1  9  1  6  0  0  0
  1 11  1  0  0  0  0
  2  3  1  0  0  0  0
  3 12  1  0  0  0  0
  5  2  1  0  0  0  0
  6  5  2  0  0  0  0
  6  1  1  0  0  0  0
  7 10  1  6  0  0  0
  7  4  1  0  0  0  0
  7 14  1  0  0  0  0
  8  6  1  0  0  0  0
  8 23  1  0  0  0  0
 11  3  2  0  0  0  0
 11 10  1  0  0  0  0
 12  4  1  0  0  0  0
 14 16  1  1  0  0  0
 14 19  1  0  0  0  0
 15 18  1  0  0  0  0
 15 20  1  0  0  0  0
 16 13  1  0  0  0  0
 17 13  1  0  0  0  0
 17 18  1  0  0  0  0
 19 15  2  0  0  0  0
 20 22  1  0  0  0  0
 22 21  1  0  0  0  0
 23 25  1  0  0  0  0
 24 29  1  0  0  0  0
 25 28  1  0  0  0  0
 25 29  2  0  0  0  0
 26 23  2  0  0  0  0
 26 27  1  0  0  0  0
 27 24  2  0  0  0  0
 30 31  2  0  0  0  0
 31 27  1  0  0  0  0
 31 37  1  0  0  0  0
 32 31  2  0  0  0  0
 33 34  1  0  0  0  0
 34 39  1  0  0  0  0
 34 41  1  1  0  0  0
 35 38  1  1  0  0  0
 35 39  1  0  0  0  0
 36 33  1  6  0  0  0
 36 35  1  0  0  0  0
 36 37  1  0  0  0  0
 36 34  1  0  0  0  0
 37 38  1  0  0  0  0
 41 40  1  0  0  0  0
M  END
>  <MODEL>
1

>  <REMARK>
 VINA RESULT:      -7.8      0.000      0.000
  Name = 
  7 active torsions:
  status: ('A' for Active; 'I' for Inactive)
    1  A    between atoms: C_2  and  C_11
    2  A    between atoms: C_4  and  C_35
    3  A    between atoms: O_14  and  C_17
    4  A    between atoms: O_14  and  C_41
    5  A    between atoms: S_16  and  N_19
    6  A    between atoms: S_16  and  C_33
    7  A    between atoms: C_20  and  N_22
                            x       y       z     vdW  Elec       q    Type
                         _______ _______ _______ _____ _____    ______ ____

>  <TORSDO>
F 7

$$$$
=
 OpenBabel11062415163D

 41 47  0  0  1  0  0  0  0  0999 V2000
  186.0600  174.7290  137.0230 C   0  0  2  0  0  3  0  0  0  0  0  0
  184.5940  174.3930  134.6310 C   0  0  0  0  0  2  0  0  0  0  0  0
  183.9210  175.0300  135.8240 C   0  0  0  0  0  0  0  0  0  0  0  0
  182.8110  177.2110  136.2610 C   0  0  0  0  0  2  0  0  0  0  0  0
  186.0010  174.7920  134.5940 N   0  0  0  0  0  0  0  0  0  0  0  0
  186.7010  174.9840  135.6760 C   0  0  0  0  0  0  0  0  0  0  0  0
  183.3720  177.1960  137.7110 C   0  0  2  0  0  3  0  0  0  0  0  0
  187.9810  175.6260  135.5700 N   0  0  0  0  0  2  0  0  0  0  0  0
  186.1760  173.3920  137.3390 F   0  0  0  0  0  0  0  0  0  0  0  0
  183.9740  175.8360  138.1390 C   0  0  0  0  0  2  0  0  0  0  0  0
  184.6130  175.1410  136.9740 C   0  0  0  0  0  0  0  0  0  0  0  0
  182.6350  175.8050  135.6620 C   0  0  0  0  0  2  0  0  0  0  0  0
  183.3400  178.2940  140.9850 C   0  0  0  0  0  2  0  0  0  0  0  0
  182.2860  177.6800  138.6860 C   0  0  1  0  0  3  0  0  0  0  0  0
  182.6570  180.2030  138.7920 C   0  0  0  0  0  0  0  0  0  0  0  0
  182.5280  177.3000  140.1630 C   0  0  0  0  0  2  0  0  0  0  0  0
  184.4010  178.9680  140.1410 C   0  0  0  0  0  2  0  0  0  0  0  0
  183.8600  180.1390  139.5240 O   0  0  0  0  0  0  0  0  0  0  0  0
  181.9250  179.1240  138.4570 C   0  0  0  0  0  3  0  0  0  0  0  0
  182.1890  181.4530  138.3630 O   0  0  0  0  0  0  0  0  0  0  0  0
  180.8790  182.7720  136.9500 N   0  0  0  0  0  1  0  0  0  0  0  0
  180.8540  181.6740  137.9020 C   0  0  0  0  0  2  0  0  0  0  0  0
  188.4140  176.6890  136.4480 C   0  0  0  0  0  0  0  0  0  0  0  0
  189.1310  178.7440  138.2220 C   0  0  0  0  0  3  0  0  0  0  0  0
  187.9340  177.9940  136.2520 C   0  0  0  0  0  0  0  0  0  0  0  0
  189.2630  176.4300  137.5360 C   0  0  0  0  0  3  0  0  0  0  0  0
  189.6200  177.4490  138.4220 C   0  0  0  0  0  0  0  0  0  0  0  0
  187.0640  178.2700  135.1980 O   0  0  0  0  0  1  0  0  0  0  0  0
  188.2910  179.0150  137.1390 C   0  0  0  0  0  3  0  0  0  0  0  0
  190.9950  175.6290  139.7940 O   0  0  0  0  0  0  0  0  0  0  0  0
  190.7530  177.1090  139.7320 S   0  0  0  0  0  0  0  0  0  0  0  0
  192.0610  177.7840  139.4340 O   0  0  0  0  0  0  0  0  0  0  0  0
  191.4330  176.4310  143.2820 C   0  0  0  0  0  2  0  0  0  0  0  0
  190.2400  177.2640  143.6850 C   0  0  1  0  0  0  0  0  0  0  0  0
  188.9240  176.2910  142.4550 C   0  0  2  0  0  3  0  0  0  0  0  0
  190.3510  176.6200  142.2530 C   0  0  2  0  0  0  0  0  0  0  0  0
  190.1720  177.6830  141.2770 N   0  0  0  0  0  0  0  0  0  0  0  0
  188.7280  177.3940  141.3860 C   0  0  0  0  0  2  0  0  0  0  0  0
  188.9060  176.8060  143.7630 O   0  0  0  0  0  0  0  0  0  0  0  0
  191.6920  179.1730  144.0500 O   0  0  0  0  0  1  0  0  0  0  0  0
  190.3860  178.7950  143.7440 C   0  0  0  0  0  2  0  0  0  0  0  0
  1  9  1  6  0  0  0
  2  3  1  0  0  0  0
  3 11  2  0  0  0  0
  5  2  1  0  0  0  0
  5  6  2  0  0  0  0
  6  1  1  0  0  0  0
  7  4  1  6  0  0  0
  7 10  1  0  0  0  0
  7 14  1  0  0  0  0
  8  6  1  0  0  0  0
  8 23  1  0  0  0  0
 11  1  1  0  0  0  0
 11 10  1  0  0  0  0
 12  3  1  0  0  0  0
 12  4  1  0  0  0  0
 14 19  1  1  0  0  0
 14 16  1  0  0  0  0
 15 18  1  0  0  0  0
 16 13  1  0  0  0  0
 17 13  1  0  0  0  0
 18 17  1  0  0  0  0
 19 15  2  0  0  0  0
 20 15  1  0  0  0  0
 21 22  1  0  0  0  0
 22 20  1  0  0  0  0
 23 26  1  0  0  0  0
 24 27  1  0  0  0  0
 25 23  2  0  0  0  0
 25 29  1  0  0  0  0
 26 27  2  0  0  0  0
 27 31  1  0  0  0  0
 28 25  1  0  0  0  0
 29 24  2  0  0  0  0
 31 30  2  0  0  0  0
 31 37  1  0  0  0  0
 32 31  2  0  0  0  0
 33 34  1  0  0  0  0
 34 41  1  1  0  0  0
 34 39  1  0  0  0  0
 35 38  1  6  0  0  0
 35 39  1  0  0  0  0
 36 35  1  0  0  0  0
 36 33  1  6  0  0  0
 36 34  1  0  0  0  0
 37 38  1  0  0  0  0
 37 36  1  0  0  0  0
 41 40  1  0  0  0  0
M  END
>  <MODEL>
2

>  <REMARK>
 VINA RESULT:      -7.7      2.709      7.620
  Name = 
  7 active torsions:
  status: ('A' for Active; 'I' for Inactive)
    1  A    between atoms: C_2  and  C_11
    2  A    between atoms: C_4  and  C_35
    3  A    between atoms: O_14  and  C_17
    4  A    between atoms: O_14  and  C_41
    5  A    between atoms: S_16  and  N_19
    6  A    between atoms: S_16  and  C_33
    7  A    between atoms: C_20  and  N_22
                            x       y       z     vdW  Elec       q    Type
                         _______ _______ _______ _____ _____    ______ ____

>  <TORSDO>
F 7

$$$$
=
 OpenBabel11062415163D

 41 47  0  0  1  0  0  0  0  0999 V2000
  186.6990  176.4640  137.7760 C   0  0  2  0  0  3  0  0  0  0  0  0
  186.7450  177.8010  135.2880 C   0  0  0  0  0  2  0  0  0  0  0  0
  185.5130  177.0210  135.6820 C   0  0  0  0  0  0  0  0  0  0  0  0
  183.1080  177.5680  135.9930 C   0  0  0  0  0  2  0  0  0  0  0  0
  187.3330  178.4180  136.4770 N   0  0  0  0  0  0  0  0  0  0  0  0
  187.3060  177.8450  137.6460 C   0  0  0  0  0  0  0  0  0  0  0  0
  183.0370  176.5520  137.1670 C   0  0  2  0  0  3  0  0  0  0  0  0
  187.6580  178.6150  138.8060 N   0  0  0  0  0  2  0  0  0  0  0  0
  187.6530  175.5140  137.4750 F   0  0  0  0  0  0  0  0  0  0  0  0
  184.2750  175.6290  137.2760 C   0  0  0  0  0  2  0  0  0  0  0  0
  185.5190  176.3470  136.8480 C   0  0  0  0  0  0  0  0  0  0  0  0
  184.2020  177.2330  134.9630 C   0  0  0  0  0  2  0  0  0  0  0  0
  180.8150  175.2340  139.4590 C   0  0  0  0  0  2  0  0  0  0  0  0
  181.7260  175.7540  137.0770 C   0  0  1  0  0  3  0  0  0  0  0  0
  179.9360  177.4690  137.6820 C   0  0  0  0  0  0  0  0  0  0  0  0
  181.5190  174.7220  138.2080 C   0  0  0  0  0  2  0  0  0  0  0  0
  181.1740  176.6780  139.7390 C   0  0  0  0  0  2  0  0  0  0  0  0
  180.2710  177.5470  139.0500 O   0  0  0  0  0  0  0  0  0  0  0  0
  180.5410  176.6420  136.8090 C   0  0  0  0  0  3  0  0  0  0  0  0
  178.9310  178.3070  137.1810 O   0  0  0  0  0  0  0  0  0  0  0  0
  180.2390  180.1750  136.6820 N   0  0  0  0  0  1  0  0  0  0  0  0
  179.1700  179.3180  136.1980 C   0  0  0  0  0  2  0  0  0  0  0  0
  186.8920  178.6080  140.0300 C   0  0  0  0  0  0  0  0  0  0  0  0
  185.3450  178.4700  142.3690 C   0  0  0  0  0  3  0  0  0  0  0  0
  185.5330  178.9650  140.0050 C   0  0  0  0  0  0  0  0  0  0  0  0
  187.4640  178.1900  141.2420 C   0  0  0  0  0  3  0  0  0  0  0  0
  186.6980  178.1190  142.4080 C   0  0  0  0  0  0  0  0  0  0  0  0
  184.9330  179.3510  138.8070 O   0  0  0  0  0  1  0  0  0  0  0  0
  184.7650  178.8930  141.1710 C   0  0  0  0  0  3  0  0  0  0  0  0
  186.8930  178.5080  145.0340 O   0  0  0  0  0  0  0  0  0  0  0  0
  187.4670  177.6680  143.9320 S   0  0  0  0  0  0  0  0  0  0  0  0
  187.1550  176.2290  144.2290 O   0  0  0  0  0  0  0  0  0  0  0  0
  190.3780  175.5810  143.1000 C   0  0  0  0  0  2  0  0  0  0  0  0
  191.3100  176.6440  143.6290 C   0  0  1  0  0  0  0  0  0  0  0  0
  190.3700  176.8160  145.4390 C   0  0  2  0  0  3  0  0  0  0  0  0
  189.8100  176.5550  144.0960 C   0  0  2  0  0  0  0  0  0  0  0  0
  189.2030  177.8590  143.8790 N   0  0  0  0  0  0  0  0  0  0  0  0
  189.6910  178.1920  145.2330 C   0  0  0  0  0  2  0  0  0  0  0  0
  191.6990  176.8000  144.9780 O   0  0  0  0  0  0  0  0  0  0  0  0
  191.6280  177.4960  141.3800 O   0  0  0  0  0  1  0  0  0  0  0  0
  191.6620  177.8420  142.7290 C   0  0  0  0  0  2  0  0  0  0  0  0
  1  9  1  6  0  0  0
  2  3  1  0  0  0  0
  2  5  1  0  0  0  0
  3 11  2  0  0  0  0
  5  6  2  0  0  0  0
  6  1  1  0  0  0  0
  6  8  1  0  0  0  0
  7  4  1  6  0  0  0
  7 10  1  0  0  0  0
  8 23  1  0  0  0  0
 11 10  1  0  0  0  0
 11  1  1  0  0  0  0
 12  3  1  0  0  0  0
 12  4  1  0  0  0  0
 13 17  1  0  0  0  0
 14 19  1  1  0  0  0
 14  7  1  0  0  0  0
 14 16  1  0  0  0  0
 15 18  1  0  0  0  0
 16 13  1  0  0  0  0
 18 17  1  0  0  0  0
 19 15  2  0  0  0  0
 20 15  1  0  0  0  0
 22 21  1  0  0  0  0
 22 20  1  0  0  0  0
 23 26  1  0  0  0  0
 24 27  1  0  0  0  0
 25 23  2  0  0  0  0
 25 29  1  0  0  0  0
 26 27  2  0  0  0  0
 27 31  1  0  0  0  0
 28 25  1  0  0  0  0
 29 24  2  0  0  0  0
 31 32  2  0  0  0  0
 31 30  2  0  0  0  0
 33 34  1  0  0  0  0
 34 41  1  6  0  0  0
 34 36  1  0  0  0  0
 34 39  1  0  0  0  0
 35 38  1  6  0  0  0
 36 33  1  6  0  0  0
 36 35  1  0  0  0  0
 37 31  1  0  0  0  0
 37 36  1  0  0  0  0
 37 38  1  0  0  0  0
 39 35  1  0  0  0  0
 40 41  1  0  0  0  0
M  END
>  <MODEL>
3

>  <REMARK>
 VINA RESULT:      -7.7      3.162      8.489
  Name = 
  7 active torsions:
  status: ('A' for Active; 'I' for Inactive)
    1  A    between atoms: C_2  and  C_11
    2  A    between atoms: C_4  and  C_35
    3  A    between atoms: O_14  and  C_17
    4  A    between atoms: O_14  and  C_41
    5  A    between atoms: S_16  and  N_19
    6  A    between atoms: S_16  and  C_33
    7  A    between atoms: C_20  and  N_22
                            x       y       z     vdW  Elec       q    Type
                         _______ _______ _______ _____ _____    ______ ____

>  <TORSDO>
F 7

$$$$
=
 OpenBabel11062415163D

 41 47  0  0  1  0  0  0  0  0999 V2000
  189.0160  175.9970  137.9320 C   0  0  2  0  0  3  0  0  0  0  0  0
  189.1750  177.8940  135.8450 C   0  0  0  0  0  2  0  0  0  0  0  0
  187.9110  177.0840  136.0080 C   0  0  0  0  0  0  0  0  0  0  0  0
  185.5130  177.6220  136.3870 C   0  0  0  0  0  2  0  0  0  0  0  0
  189.7440  178.1840  137.1610 N   0  0  0  0  0  0  0  0  0  0  0  0
  189.6650  177.3460  138.1550 C   0  0  0  0  0  0  0  0  0  0  0  0
  185.3790  176.3540  137.2770 C   0  0  2  0  0  3  0  0  0  0  0  0
  190.0020  177.8000  139.4750 N   0  0  0  0  0  2  0  0  0  0  0  0
  189.9520  175.1160  137.4310 F   0  0  0  0  0  0  0  0  0  0  0  0
  186.5870  175.3910  137.1880 C   0  0  0  0  0  2  0  0  0  0  0  0
  187.8630  176.1480  136.9750 C   0  0  0  0  0  0  0  0  0  0  0  0
  186.6290  177.5090  135.3330 C   0  0  0  0  0  2  0  0  0  0  0  0
  182.4840  175.7000  139.0440 C   0  0  0  0  0  2  0  0  0  0  0  0
  184.0490  175.6470  136.9650 C   0  0  1  0  0  3  0  0  0  0  0  0
  182.3900  177.5700  136.7170 C   0  0  0  0  0  0  0  0  0  0  0  0
  183.4250  174.8910  138.1580 C   0  0  0  0  0  2  0  0  0  0  0  0
  182.9320  177.1430  139.1480 C   0  0  0  0  0  2  0  0  0  0  0  0
  182.3590  177.9080  138.0860 O   0  0  0  0  0  0  0  0  0  0  0  0
  183.0970  176.5390  136.2160 C   0  0  0  0  0  3  0  0  0  0  0  0
  181.6640  178.3530  135.8080 O   0  0  0  0  0  0  0  0  0  0  0  0
  180.8370  180.4820  136.2910 N   0  0  0  0  0  1  0  0  0  0  0  0
  180.4850  179.0780  136.1660 C   0  0  0  0  0  2  0  0  0  0  0  0
  189.1980  177.5230  140.6430 C   0  0  0  0  0  0  0  0  0  0  0  0
  187.7190  177.0750  142.9870 C   0  0  0  0  0  3  0  0  0  0  0  0
  189.6770  176.6420  141.6260 C   0  0  0  0  0  0  0  0  0  0  0  0
  187.9670  178.1680  140.8460 C   0  0  0  0  0  3  0  0  0  0  0  0
  187.2290  177.9490  142.0120 C   0  0  0  0  0  0  0  0  0  0  0  0
  190.9110  176.0150  141.4640 O   0  0  0  0  0  1  0  0  0  0  0  0
  188.9390  176.4230  142.7950 C   0  0  0  0  0  3  0  0  0  0  0  0
  185.5390  179.8510  141.2290 O   0  0  0  0  0  0  0  0  0  0  0  0
  185.6480  178.7120  142.1990 S   0  0  0  0  0  0  0  0  0  0  0  0
  184.5800  177.7100  141.8650 O   0  0  0  0  0  0  0  0  0  0  0  0
  185.5330  177.2650  145.5780 C   0  0  0  0  0  2  0  0  0  0  0  0
  185.0020  178.5650  146.1320 C   0  0  1  0  0  0  0  0  0  0  0  0
  183.4700  178.7180  144.7840 C   0  0  2  0  0  3  0  0  0  0  0  0
  184.8390  178.1890  144.6130 C   0  0  2  0  0  0  0  0  0  0  0  0
  185.3790  179.2870  143.8270 N   0  0  0  0  0  0  0  0  0  0  0  0
  184.0250  179.8710  143.9130 C   0  0  0  0  0  2  0  0  0  0  0  0
  183.6450  178.9550  146.1590 O   0  0  0  0  0  0  0  0  0  0  0  0
  185.9720  180.0500  147.7880 O   0  0  0  0  0  1  0  0  0  0  0  0
  185.9920  179.7040  146.4380 C   0  0  0  0  0  2  0  0  0  0  0  0
  1  9  1  6  0  0  0
  1  6  1  0  0  0  0
  2  3  1  0  0  0  0
  2  5  1  0  0  0  0
  3 11  2  0  0  0  0
  5  6  2  0  0  0  0
  6  8  1  0  0  0  0
  7  4  1  6  0  0  0
  8 23  1  0  0  0  0
 10  7  1  0  0  0  0
 11 10  1  0  0  0  0
 11  1  1  0  0  0  0
 12  3  1  0  0  0  0
 12  4  1  0  0  0  0
 13 17  1  0  0  0  0
 14 19  1  1  0  0  0
 14  7  1  0  0  0  0
 14 16  1  0  0  0  0
 15 18  1  0  0  0  0
 16 13  1  0  0  0  0
 18 17  1  0  0  0  0
 19 15  2  0  0  0  0
 20 22  1  0  0  0  0
 20 15  1  0  0  0  0
 22 21  1  0  0  0  0
 23 26  2  0  0  0  0
 23 25  1  0  0  0  0
 25 29  2  0  0  0  0
 26 27  1  0  0  0  0
 27 31  1  0  0  0  0
 27 24  2  0  0  0  0
 28 25  1  0  0  0  0
 29 24  1  0  0  0  0
 30 31  2  0  0  0  0
 31 37  1  0  0  0  0
 32 31  2  0  0  0  0
 33 34  1  0  0  0  0
 34 39  1  0  0  0  0
 34 41  1  1  0  0  0
 35 38  1  6  0  0  0
 35 39  1  0  0  0  0
 36 35  1  0  0  0  0
 36 33  1  6  0  0  0
 36 34  1  0  0  0  0
 37 38  1  0  0  0  0
 37 36  1  0  0  0  0
 41 40  1  0  0  0  0
M  END
>  <MODEL>
4

>  <REMARK>
 VINA RESULT:      -7.6      2.915      7.028
  Name = 
  7 active torsions:
  status: ('A' for Active; 'I' for Inactive)
    1  A    between atoms: C_2  and  C_11
    2  A    between atoms: C_4  and  C_35
    3  A    between atoms: O_14  and  C_17
    4  A    between atoms: O_14  and  C_41
    5  A    between atoms: S_16  and  N_19
    6  A    between atoms: S_16  and  C_33
    7  A    between atoms: C_20  and  N_22
                            x       y       z     vdW  Elec       q    Type
                         _______ _______ _______ _____ _____    ______ ____

>  <TORSDO>
F 7

$$$$
=
 OpenBabel11062415163D

 41 47  0  0  1  0  0  0  0  0999 V2000
  184.1020  179.2130  139.4030 C   0  0  2  0  0  3  0  0  0  0  0  0
  181.8360  178.2650  140.7980 C   0  0  0  0  0  2  0  0  0  0  0  0
  182.1980  177.6390  139.4720 C   0  0  0  0  0  0  0  0  0  0  0  0
  182.7540  175.3410  138.7040 C   0  0  0  0  0  2  0  0  0  0  0  0
  183.0560  178.6280  141.5170 N   0  0  0  0  0  0  0  0  0  0  0  0
  184.1300  179.0410  140.9060 C   0  0  0  0  0  0  0  0  0  0  0  0
  183.7710  175.9360  137.6890 C   0  0  2  0  0  3  0  0  0  0  0  0
  185.3600  179.1210  141.6410 N   0  0  0  0  0  2  0  0  0  0  0  0
  183.6000  180.4600  139.0940 F   0  0  0  0  0  0  0  0  0  0  0  0
  183.6580  177.4690  137.5100 C   0  0  0  0  0  2  0  0  0  0  0  0
  183.2510  178.1310  138.7910 C   0  0  0  0  0  0  0  0  0  0  0  0
  181.6120  176.3100  139.0590 C   0  0  0  0  0  2  0  0  0  0  0  0
  186.0180  174.4850  135.5040 C   0  0  0  0  0  2  0  0  0  0  0  0
  183.6590  175.1860  136.3510 C   0  0  1  0  0  3  0  0  0  0  0  0
  184.0900  172.7530  136.9880 C   0  0  0  0  0  0  0  0  0  0  0  0
  184.8300  175.4310  135.3740 C   0  0  0  0  0  2  0  0  0  0  0  0
  186.2420  174.0780  136.9460 C   0  0  0  0  0  2  0  0  0  0  0  0
  185.4660  172.9160  137.2490 O   0  0  0  0  0  0  0  0  0  0  0  0
  183.2900  173.7400  136.5430 C   0  0  0  0  0  3  0  0  0  0  0  0
  183.5000  171.5030  137.2190 O   0  0  0  0  0  0  0  0  0  0  0  0
  184.2770  170.2410  135.4140 N   0  0  0  0  0  1  0  0  0  0  0  0
  183.0940  170.6220  136.1680 C   0  0  0  0  0  2  0  0  0  0  0  0
  186.6220  178.6280  141.1400 C   0  0  0  0  0  0  0  0  0  0  0  0
  189.0250  177.5350  140.1830 C   0  0  0  0  0  3  0  0  0  0  0  0
  187.5880  178.1430  142.0370 C   0  0  0  0  0  0  0  0  0  0  0  0
  186.8800  178.5660  139.7610 C   0  0  0  0  0  3  0  0  0  0  0  0
  188.0740  178.0210  139.2810 C   0  0  0  0  0  0  0  0  0  0  0  0
  187.3410  178.1630  143.4090 O   0  0  0  0  0  1  0  0  0  0  0  0
  188.7830  177.5960  141.5570 C   0  0  0  0  0  3  0  0  0  0  0  0
  187.1430  178.3910  136.8150 O   0  0  0  0  0  0  0  0  0  0  0  0
  188.4020  178.0330  137.5460 S   0  0  0  0  0  0  0  0  0  0  0  0
  189.4300  179.0870  137.2520 O   0  0  0  0  0  0  0  0  0  0  0  0
  191.5290  176.1130  137.7940 C   0  0  0  0  0  2  0  0  0  0  0  0
  191.0220  175.1280  136.7690 C   0  0  1  0  0  0  0  0  0  0  0  0
  190.5360  176.5530  135.3820 C   0  0  2  0  0  3  0  0  0  0  0  0
  190.4530  176.5920  136.8570 C   0  0  2  0  0  0  0  0  0  0  0  0
  189.0060  176.4950  136.9760 N   0  0  0  0  0  0  0  0  0  0  0  0
  188.9930  176.4920  135.4990 C   0  0  0  0  0  2  0  0  0  0  0  0
  191.1220  175.2750  135.3670 O   0  0  0  0  0  0  0  0  0  0  0  0
  189.8220  173.1010  136.1900 O   0  0  0  0  0  1  0  0  0  0  0  0
  190.0670  174.0080  137.2180 C   0  0  0  0  0  2  0  0  0  0  0  0
  1  9  1  1  0  0  0
  1  6  1  0  0  0  0
  2  5  1  0  0  0  0
  3  2  1  0  0  0  0
  4 12  1  0  0  0  0
  6  5  2  0  0  0  0
  6  8  1  0  0  0  0
  7 10  1  6  0  0  0
  7  4  1  0  0  0  0
 10 11  1  0  0  0  0
 11  1  1  0  0  0  0
 11  3  2  0  0  0  0
 12  3  1  0  0  0  0
 13 17  1  0  0  0  0
 14 16  1  1  0  0  0
 14 19  1  0  0  0  0
 14  7  1  0  0  0  0
 15 20  1  0  0  0  0
 15 18  1  0  0  0  0
 16 13  1  0  0  0  0
 17 18  1  0  0  0  0
 19 15  2  0  0  0  0
 21 22  1  0  0  0  0
 22 20  1  0  0  0  0
 23  8  1  0  0  0  0
 23 25  1  0  0  0  0
 24 29  1  0  0  0  0
 25 28  1  0  0  0  0
 26 23  2  0  0  0  0
 27 26  1  0  0  0  0
 27 24  2  0  0  0  0
 29 25  2  0  0  0  0
 30 31  2  0  0  0  0
 31 27  1  0  0  0  0
 32 31  2  0  0  0  0
 34 36  1  0  0  0  0
 34 41  1  1  0  0  0
 34 33  1  0  0  0  0
 35 38  1  6  0  0  0
 35 36  1  0  0  0  0
 36 37  1  0  0  0  0
 36 33  1  1  0  0  0
 37 31  1  0  0  0  0
 38 37  1  0  0  0  0
 39 35  1  0  0  0  0
 39 34  1  0  0  0  0
 40 41  1  0  0  0  0
M  END
>  <MODEL>
5

>  <REMARK>
 VINA RESULT:      -7.3      2.854      8.363
  Name = 
  7 active torsions:
  status: ('A' for Active; 'I' for Inactive)
    1  A    between atoms: C_2  and  C_11
    2  A    between atoms: C_4  and  C_35
    3  A    between atoms: O_14  and  C_17
    4  A    between atoms: O_14  and  C_41
    5  A    between atoms: S_16  and  N_19
    6  A    between atoms: S_16  and  C_33
    7  A    between atoms: C_20  and  N_22
                            x       y       z     vdW  Elec       q    Type
                         _______ _______ _______ _____ _____    ______ ____

>  <TORSDO>
F 7

$$$$
=
 OpenBabel11062415163D

 41 47  0  0  1  0  0  0  0  0999 V2000
  184.7000  174.0110  136.9030 C   0  0  2  0  0  3  0  0  0  0  0  0
  182.5570  173.9880  135.0620 C   0  0  0  0  0  2  0  0  0  0  0  0
  182.4240  174.7880  136.3370 C   0  0  0  0  0  0  0  0  0  0  0  0
  182.0030  177.1770  136.8790 C   0  0  0  0  0  2  0  0  0  0  0  0
  183.9410  174.0420  134.5940 N   0  0  0  0  0  0  0  0  0  0  0  0
  184.9540  174.0820  135.4120 C   0  0  0  0  0  0  0  0  0  0  0  0
  182.9490  177.0560  138.1070 C   0  0  2  0  0  3  0  0  0  0  0  0
  186.2540  174.4020  134.8940 N   0  0  0  0  0  2  0  0  0  0  0  0
  184.6050  172.6900  137.2880 F   0  0  0  0  0  0  0  0  0  0  0  0
  183.3350  175.6000  138.4630 C   0  0  0  0  0  2  0  0  0  0  0  0
  183.4310  174.7530  137.2300 C   0  0  0  0  0  0  0  0  0  0  0  0
  181.3520  175.8420  136.4790 C   0  0  0  0  0  2  0  0  0  0  0  0
  184.2010  178.5840  140.9400 C   0  0  0  0  0  2  0  0  0  0  0  0
  182.3350  177.8010  139.3040 C   0  0  1  0  0  3  0  0  0  0  0  0
  182.8890  180.2480  138.8350 C   0  0  0  0  0  0  0  0  0  0  0  0
  183.0780  177.5970  140.6420 C   0  0  0  0  0  2  0  0  0  0  0  0
  184.9200  178.9980  139.6730 C   0  0  0  0  0  2  0  0  0  0  0  0
  184.2710  180.1320  139.0940 O   0  0  0  0  0  0  0  0  0  0  0  0
  182.0140  179.2340  138.9720 C   0  0  0  0  0  3  0  0  0  0  0  0
  182.3830  181.4770  138.3900 O   0  0  0  0  0  0  0  0  0  0  0  0
  180.8420  182.9910  137.5060 N   0  0  0  0  0  1  0  0  0  0  0  0
  180.9870  181.7330  138.2180 C   0  0  0  0  0  2  0  0  0  0  0  0
  187.1510  175.3470  135.5170 C   0  0  0  0  0  0  0  0  0  0  0  0
  188.8030  177.1920  136.8400 C   0  0  0  0  0  3  0  0  0  0  0  0
  186.8480  176.7190  135.4890 C   0  0  0  0  0  0  0  0  0  0  0  0
  188.2940  174.9150  136.2080 C   0  0  0  0  0  3  0  0  0  0  0  0
  189.1190  175.8300  136.8690 C   0  0  0  0  0  0  0  0  0  0  0  0
  185.7000  177.1690  134.8380 O   0  0  0  0  0  1  0  0  0  0  0  0
  187.6720  177.6350  136.1520 C   0  0  0  0  0  3  0  0  0  0  0  0
  190.5600  175.6730  139.1010 O   0  0  0  0  0  0  0  0  0  0  0  0
  190.5920  175.2640  137.6580 S   0  0  0  0  0  0  0  0  0  0  0  0
  190.6320  173.7630  137.5980 O   0  0  0  0  0  0  0  0  0  0  0  0
  193.4110  173.9090  135.7240 C   0  0  0  0  0  2  0  0  0  0  0  0
  194.1280  175.2340  135.8120 C   0  0  1  0  0  0  0  0  0  0  0  0
  193.9650  175.3870  137.8460 C   0  0  2  0  0  3  0  0  0  0  0  0
  193.0250  174.8220  136.8560 C   0  0  2  0  0  0  0  0  0  0  0  0
  192.0350  175.8870  136.8940 N   0  0  0  0  0  0  0  0  0  0  0  0
  192.8960  176.5040  137.9230 C   0  0  0  0  0  2  0  0  0  0  0  0
  194.9510  175.6550  136.8800 O   0  0  0  0  0  0  0  0  0  0  0  0
  194.6610  177.4010  134.8620 O   0  0  0  0  0  1  0  0  0  0  0  0
  193.7390  176.3570  134.8340 C   0  0  0  0  0  2  0  0  0  0  0  0
  1 11  1  0  0  0  0
  1  9  1  6  0  0  0
  2  3  1  0  0  0  0
  3 12  1  0  0  0  0
  3 11  2  0  0  0  0
  5  2  1  0  0  0  0
  5  6  2  0  0  0  0
  6  1  1  0  0  0  0
  7  4  1  6  0  0  0
  7 10  1  0  0  0  0
  7 14  1  0  0  0  0
  8  6  1  0  0  0  0
  8 23  1  0  0  0  0
 11 10  1  0  0  0  0
 12  4  1  0  0  0  0
 14 19  1  6  0  0  0
 14 16  1  0  0  0  0
 15 19  2  0  0  0  0
 15 18  1  0  0  0  0
 16 13  1  0  0  0  0
 17 13  1  0  0  0  0
 18 17  1  0  0  0  0
 20 15  1  0  0  0  0
 21 22  1  0  0  0  0
 22 20  1  0  0  0  0
 23 26  1  0  0  0  0
 24 27  1  0  0  0  0
 25 23  2  0  0  0  0
 25 29  1  0  0  0  0
 26 27  2  0  0  0  0
 27 31  1  0  0  0  0
 28 25  1  0  0  0  0
 29 24  2  0  0  0  0
 31 30  2  0  0  0  0
 32 31  2  0  0  0  0
 33 34  1  0  0  0  0
 34 41  1  6  0  0  0
 34 36  1  0  0  0  0
 34 39  1  0  0  0  0
 35 38  1  6  0  0  0
 36 33  1  1  0  0  0
 36 37  1  0  0  0  0
 36 35  1  0  0  0  0
 37 31  1  0  0  0  0
 37 38  1  0  0  0  0
 39 35  1  0  0  0  0
 41 40  1  0  0  0  0
M  END
>  <MODEL>
6

>  <REMARK>
 VINA RESULT:      -7.2      3.792      8.575
  Name = 
  7 active torsions:
  status: ('A' for Active; 'I' for Inactive)
    1  A    between atoms: C_2  and  C_11
    2  A    between atoms: C_4  and  C_35
    3  A    between atoms: O_14  and  C_17
    4  A    between atoms: O_14  and  C_41
    5  A    between atoms: S_16  and  N_19
    6  A    between atoms: S_16  and  C_33
    7  A    between atoms: C_20  and  N_22
                            x       y       z     vdW  Elec       q    Type
                         _______ _______ _______ _____ _____    ______ ____

>  <TORSDO>
F 7

$$$$
=
 OpenBabel11062415163D

 41 47  0  0  1  0  0  0  0  0999 V2000
  188.4380  176.9770  139.0350 C   0  0  2  0  0  3  0  0  0  0  0  0
  189.4220  178.7290  137.0490 C   0  0  0  0  0  2  0  0  0  0  0  0
  188.5030  177.6000  136.6450 C   0  0  0  0  0  0  0  0  0  0  0  0
  186.3030  177.4470  135.4980 C   0  0  0  0  0  2  0  0  0  0  0  0
  189.0240  179.2380  138.3610 N   0  0  0  0  0  0  0  0  0  0  0  0
  188.5400  178.4650  139.2920 C   0  0  0  0  0  0  0  0  0  0  0  0
  185.9240  176.2420  136.4040 C   0  0  2  0  0  3  0  0  0  0  0  0
  187.9260  179.0650  140.4430 N   0  0  0  0  0  2  0  0  0  0  0  0
  189.6420  176.3770  139.3420 F   0  0  0  0  0  0  0  0  0  0  0  0
  187.1110  175.6620  137.2100 C   0  0  0  0  0  2  0  0  0  0  0  0
  188.0790  176.7410  137.5920 C   0  0  0  0  0  0  0  0  0  0  0  0
  187.8210  177.6040  135.2980 C   0  0  0  0  0  2  0  0  0  0  0  0
  184.2620  173.2940  137.0950 C   0  0  0  0  0  2  0  0  0  0  0  0
  185.2160  175.1680  135.5610 C   0  0  1  0  0  3  0  0  0  0  0  0
  182.7380  175.6100  135.9830 C   0  0  0  0  0  0  0  0  0  0  0  0
  185.3410  173.7300  136.1110 C   0  0  0  0  0  2  0  0  0  0  0  0
  183.8060  174.4510  137.9590 C   0  0  0  0  0  2  0  0  0  0  0  0
  182.7360  175.1470  137.3150 O   0  0  0  0  0  0  0  0  0  0  0  0
  183.8190  175.5790  135.1800 C   0  0  0  0  0  3  0  0  0  0  0  0
  181.5610  176.1550  135.4520 O   0  0  0  0  0  0  0  0  0  0  0  0
  181.2710  178.4650  135.6290 N   0  0  0  0  0  1  0  0  0  0  0  0
  180.8040  177.1760  136.1090 C   0  0  0  0  0  2  0  0  0  0  0  0
  186.6620  178.6300  140.9900 C   0  0  0  0  0  0  0  0  0  0  0  0
  184.1900  177.9150  142.1140 C   0  0  0  0  0  3  0  0  0  0  0  0
  186.5780  178.2560  142.3420 C   0  0  0  0  0  0  0  0  0  0  0  0
  185.4950  178.6330  140.2100 C   0  0  0  0  0  3  0  0  0  0  0  0
  184.2620  178.2790  140.7650 C   0  0  0  0  0  0  0  0  0  0  0  0
  187.7170  178.2770  143.1460 O   0  0  0  0  0  1  0  0  0  0  0  0
  185.3440  177.9030  142.8990 C   0  0  0  0  0  3  0  0  0  0  0  0
  183.2420  178.4320  138.3120 O   0  0  0  0  0  0  0  0  0  0  0  0
  182.8290  178.2140  139.7370 S   0  0  0  0  0  0  0  0  0  0  0  0
  182.2150  176.8470  139.8420 O   0  0  0  0  0  0  0  0  0  0  0  0
  179.2500  178.2260  140.5800 C   0  0  0  0  0  2  0  0  0  0  0  0
  179.2330  179.7360  140.5540 C   0  0  1  0  0  0  0  0  0  0  0  0
  180.0820  179.8880  138.6970 C   0  0  2  0  0  3  0  0  0  0  0  0
  180.3250  178.9090  139.7770 C   0  0  2  0  0  0  0  0  0  0  0  0
  181.6290  179.3980  140.1980 N   0  0  0  0  0  0  0  0  0  0  0  0
  181.4880  180.3880  139.1110 C   0  0  0  0  0  2  0  0  0  0  0  0
  179.0540  180.5370  139.4040 O   0  0  0  0  0  0  0  0  0  0  0  0
  179.3190  179.8980  142.9720 O   0  0  0  0  0  1  0  0  0  0  0  0
  179.7300  180.5070  141.7890 C   0  0  0  0  0  2  0  0  0  0  0  0
  1  6  1  0  0  0  0
  1  9  1  6  0  0  0
  2  5  1  0  0  0  0
  3  2  1  0  0  0  0
  3 11  2  0  0  0  0
  5  6  2  0  0  0  0
  6  8  1  0  0  0  0
  7  4  1  6  0  0  0
  7 10  1  0  0  0  0
  8 23  1  0  0  0  0
 10 11  1  0  0  0  0
 11  1  1  0  0  0  0
 12  4  1  0  0  0  0
 12  3  1  0  0  0  0
 13 17  1  0  0  0  0
 14 19  1  1  0  0  0
 14 16  1  0  0  0  0
 14  7  1  0  0  0  0
 15 18  1  0  0  0  0
 16 13  1  0  0  0  0
 18 17  1  0  0  0  0
 19 15  2  0  0  0  0
 20 15  1  0  0  0  0
 20 22  1  0  0  0  0
 21 22  1  0  0  0  0
 23 25  1  0  0  0  0
 24 29  1  0  0  0  0
 25 29  2  0  0  0  0
 25 28  1  0  0  0  0
 26 27  1  0  0  0  0
 26 23  2  0  0  0  0
 27 24  2  0  0  0  0
 30 31  2  0  0  0  0
 31 32  2  0  0  0  0
 31 37  1  0  0  0  0
 31 27  1  0  0  0  0
 34 33  1  0  0  0  0
 34 41  1  1  0  0  0
 35 38  1  1  0  0  0
 35 39  1  0  0  0  0
 35 36  1  0  0  0  0
 36 37  1  0  0  0  0
 36 34  1  0  0  0  0
 36 33  1  6  0  0  0
 38 37  1  0  0  0  0
 39 34  1  0  0  0  0
 41 40  1  0  0  0  0
M  END
>  <MODEL>
7

>  <REMARK>
 VINA RESULT:      -7.1      3.025      6.700
  Name = 
  7 active torsions:
  status: ('A' for Active; 'I' for Inactive)
    1  A    between atoms: C_2  and  C_11
    2  A    between atoms: C_4  and  C_35
    3  A    between atoms: O_14  and  C_17
    4  A    between atoms: O_14  and  C_41
    5  A    between atoms: S_16  and  N_19
    6  A    between atoms: S_16  and  C_33
    7  A    between atoms: C_20  and  N_22
                            x       y       z     vdW  Elec       q    Type
                         _______ _______ _______ _____ _____    ______ ____

>  <TORSDO>
F 7

$$$$
=
 OpenBabel11062415163D

 41 47  0  0  1  0  0  0  0  0999 V2000
  183.7360  179.1850  139.4290 C   0  0  2  0  0  3  0  0  0  0  0  0
  182.6970  177.0270  137.9310 C   0  0  0  0  0  2  0  0  0  0  0  0
  184.0790  177.5450  137.6130 C   0  0  0  0  0  0  0  0  0  0  0  0
  186.3600  176.5570  137.5570 C   0  0  0  0  0  2  0  0  0  0  0  0
  182.4610  177.1170  139.3720 N   0  0  0  0  0  0  0  0  0  0  0  0
  182.9470  178.0820  140.1000 C   0  0  0  0  0  0  0  0  0  0  0  0
  186.9450  177.9010  138.0750 C   0  0  2  0  0  3  0  0  0  0  0  0
  182.9020  177.9630  141.5300 N   0  0  0  0  0  2  0  0  0  0  0  0
  182.8670  180.1490  138.9610 F   0  0  0  0  0  0  0  0  0  0  0  0
  185.9430  179.0800  138.0370 C   0  0  0  0  0  2  0  0  0  0  0  0
  184.5460  178.6060  138.2990 C   0  0  0  0  0  0  0  0  0  0  0  0
  185.0400  176.7260  136.7840 C   0  0  0  0  0  2  0  0  0  0  0  0
  190.3160  177.6560  138.7860 C   0  0  0  0  0  2  0  0  0  0  0  0
  188.2440  178.2210  137.3160 C   0  0  1  0  0  3  0  0  0  0  0  0
  189.1370  175.9220  136.6590 C   0  0  0  0  0  0  0  0  0  0  0  0
  189.4020  178.7280  138.2030 C   0  0  0  0  0  2  0  0  0  0  0  0
  189.5460  176.3930  139.1080 C   0  0  0  0  0  2  0  0  0  0  0  0
  189.5120  175.5380  137.9630 O   0  0  0  0  0  0  0  0  0  0  0  0
  188.6200  177.1270  136.3520 C   0  0  0  0  0  3  0  0  0  0  0  0
  189.2860  175.0030  135.6110 O   0  0  0  0  0  0  0  0  0  0  0  0
  188.4670  172.9640  136.4030 N   0  0  0  0  0  1  0  0  0  0  0  0
  188.3470  173.9560  135.3480 C   0  0  0  0  0  2  0  0  0  0  0  0
  184.0250  178.2580  142.3900 C   0  0  0  0  0  0  0  0  0  0  0  0
  186.1780  178.7120  144.1340 C   0  0  0  0  0  3  0  0  0  0  0  0
  183.8020  178.8000  143.6670 C   0  0  0  0  0  0  0  0  0  0  0  0
  185.3390  177.9560  141.9970 C   0  0  0  0  0  3  0  0  0  0  0  0
  186.4130  178.1790  142.8620 C   0  0  0  0  0  0  0  0  0  0  0  0
  182.5040  179.0770  144.0930 O   0  0  0  0  0  1  0  0  0  0  0  0
  184.8770  179.0220  144.5340 C   0  0  0  0  0  3  0  0  0  0  0  0
  188.0160  176.8470  141.2070 O   0  0  0  0  0  0  0  0  0  0  0  0
  188.0590  177.8650  142.3080 S   0  0  0  0  0  0  0  0  0  0  0  0
  188.6360  179.1340  141.7480 O   0  0  0  0  0  0  0  0  0  0  0  0
  191.1110  179.0270  143.9970 C   0  0  0  0  0  2  0  0  0  0  0  0
  191.2340  177.7060  144.7160 C   0  0  1  0  0  0  0  0  0  0  0  0
  191.1000  176.5700  143.0190 C   0  0  2  0  0  3  0  0  0  0  0  0
  190.4310  177.8410  143.3690 C   0  0  2  0  0  0  0  0  0  0  0  0
  189.0980  177.3060  143.5970 N   0  0  0  0  0  0  0  0  0  0  0  0
  189.6740  176.0000  143.2180 C   0  0  0  0  0  2  0  0  0  0  0  0
  191.8560  176.5450  144.2040 O   0  0  0  0  0  0  0  0  0  0  0  0
  190.9750  176.5120  146.8120 O   0  0  0  0  0  1  0  0  0  0  0  0
  190.3890  177.4630  145.9790 C   0  0  0  0  0  2  0  0  0  0  0  0
  1  9  1  6  0  0  0
  1  6  1  0  0  0  0
  2  5  1  0  0  0  0
  3  2  1  0  0  0  0
  3 11  2  0  0  0  0
  5  6  2  0  0  0  0
  6  8  1  0  0  0  0
  7  4  1  6  0  0  0
  8 23  1  0  0  0  0
 10  7  1  0  0  0  0
 10 11  1  0  0  0  0
 11  1  1  0  0  0  0
 12  4  1  0  0  0  0
 12  3  1  0  0  0  0
 13 17  1  0  0  0  0
 14 19  1  1  0  0  0
 14  7  1  0  0  0  0
 14 16  1  0  0  0  0
 15 18  1  0  0  0  0
 16 13  1  0  0  0  0
 18 17  1  0  0  0  0
 19 15  2  0  0  0  0
 20 15  1  0  0  0  0
 22 20  1  0  0  0  0
 22 21  1  0  0  0  0
 23 25  1  0  0  0  0
 24 29  1  0  0  0  0
 25 28  1  0  0  0  0
 25 29  2  0  0  0  0
 26 23  2  0  0  0  0
 26 27  1  0  0  0  0
 27 24  2  0  0  0  0
 30 31  2  0  0  0  0
 31 27  1  0  0  0  0
 31 37  1  0  0  0  0
 32 31  2  0  0  0  0
 33 34  1  0  0  0  0
 34 41  1  1  0  0  0
 35 38  1  1  0  0  0
 35 36  1  0  0  0  0
 35 39  1  0  0  0  0
 36 37  1  0  0  0  0
 36 33  1  6  0  0  0
 36 34  1  0  0  0  0
 38 37  1  0  0  0  0
 39 34  1  0  0  0  0
 41 40  1  0  0  0  0
M  END
>  <MODEL>
8

>  <REMARK>
 VINA RESULT:      -6.9      2.875      7.855
  Name = 
  7 active torsions:
  status: ('A' for Active; 'I' for Inactive)
    1  A    between atoms: C_2  and  C_11
    2  A    between atoms: C_4  and  C_35
    3  A    between atoms: O_14  and  C_17
    4  A    between atoms: O_14  and  C_41
    5  A    between atoms: S_16  and  N_19
    6  A    between atoms: S_16  and  C_33
    7  A    between atoms: C_20  and  N_22
                            x       y       z     vdW  Elec       q    Type
                         _______ _______ _______ _____ _____    ______ ____

>  <TORSDO>
F 7

$$$$
=
 OpenBabel11062415163D

 41 47  0  0  1  0  0  0  0  0999 V2000
  187.9280  178.1180  137.1360 C   0  0  2  0  0  3  0  0  0  0  0  0
  190.3560  176.6900  136.9350 C   0  0  0  0  0  2  0  0  0  0  0  0
  190.0400  177.4270  138.2150 C   0  0  0  0  0  0  0  0  0  0  0  0
  189.7950  176.7800  140.6030 C   0  0  0  0  0  2  0  0  0  0  0  0
  189.1230  176.1480  136.3650 N   0  0  0  0  0  0  0  0  0  0  0  0
  187.9790  176.7640  136.4630 C   0  0  0  0  0  0  0  0  0  0  0  0
  188.6660  177.8370  140.7640 C   0  0  2  0  0  3  0  0  0  0  0  0
  186.7780  176.0560  136.1210 N   0  0  0  0  0  2  0  0  0  0  0  0
  188.2320  179.0990  136.2160 F   0  0  0  0  0  0  0  0  0  0  0  0
  188.5490  178.8200  139.5740 C   0  0  0  0  0  2  0  0  0  0  0  0
  188.9030  178.1450  138.2840 C   0  0  0  0  0  0  0  0  0  0  0  0
  190.7970  177.1260  139.4870 C   0  0  0  0  0  2  0  0  0  0  0  0
  187.1120  177.6890  143.8450 C   0  0  0  0  0  2  0  0  0  0  0  0
  188.8360  178.5700  142.1060 C   0  0  1  0  0  3  0  0  0  0  0  0
  189.9630  176.8340  143.5990 C   0  0  0  0  0  0  0  0  0  0  0  0
  187.5240  178.8000  142.8860 C   0  0  0  0  0  2  0  0  0  0  0  0
  187.5030  176.3280  143.3090 C   0  0  0  0  0  2  0  0  0  0  0  0
  188.8300  176.0030  143.7300 O   0  0  0  0  0  0  0  0  0  0  0  0
  189.9640  177.9980  142.9220 C   0  0  0  0  0  3  0  0  0  0  0  0
  191.1710  176.4300  144.1830 O   0  0  0  0  0  0  0  0  0  0  0  0
  192.0530  175.8440  146.2640 N   0  0  0  0  0  1  0  0  0  0  0  0
  191.6580  176.9580  145.4200 C   0  0  0  0  0  2  0  0  0  0  0  0
  185.5830  176.0750  136.9340 C   0  0  0  0  0  0  0  0  0  0  0  0
  183.3390  176.0580  138.6210 C   0  0  0  0  0  3  0  0  0  0  0  0
  184.8800  174.8820  137.1660 C   0  0  0  0  0  0  0  0  0  0  0  0
  185.1440  177.2570  137.5500 C   0  0  0  0  0  3  0  0  0  0  0  0
  184.0280  177.2530  138.3910 C   0  0  0  0  0  0  0  0  0  0  0  0
  185.3160  173.6880  136.5920 O   0  0  0  0  0  1  0  0  0  0  0  0
  183.7630  174.8760  138.0100 C   0  0  0  0  0  3  0  0  0  0  0  0
  183.1190  178.5500  140.5300 O   0  0  0  0  0  0  0  0  0  0  0  0
  183.4530  178.7710  139.0850 S   0  0  0  0  0  0  0  0  0  0  0  0
  184.5550  179.7900  139.0100 O   0  0  0  0  0  0  0  0  0  0  0  0
  182.0230  182.0760  138.3430 C   0  0  0  0  0  2  0  0  0  0  0  0
  180.7650  181.4300  137.8160 C   0  0  1  0  0  0  0  0  0  0  0  0
  180.4520  180.2760  139.4780 C   0  0  2  0  0  3  0  0  0  0  0  0
  181.7140  180.6850  138.8270 C   0  0  2  0  0  0  0  0  0  0  0  0
  182.0590  179.4000  138.2390 N   0  0  0  0  0  0  0  0  0  0  0  0
  180.8340  178.8950  138.8910 C   0  0  0  0  0  2  0  0  0  0  0  0
  179.6570  181.0300  138.5960 O   0  0  0  0  0  0  0  0  0  0  0  0
  180.8040  181.9110  135.4390 O   0  0  0  0  0  1  0  0  0  0  0  0
  180.7540  180.8830  136.3780 C   0  0  0  0  0  2  0  0  0  0  0  0
  1  9  1  6  0  0  0
  1 11  1  0  0  0  0
  2  3  1  0  0  0  0
  3 11  2  0  0  0  0
  3 12  1  0  0  0  0
  4  7  1  0  0  0  0
  5  6  2  0  0  0  0
  5  2  1  0  0  0  0
  6  1  1  0  0  0  0
  7 10  1  6  0  0  0
  7 14  1  0  0  0  0
  8  6  1  0  0  0  0
  8 23  1  0  0  0  0
 11 10  1  0  0  0  0
 12  4  1  0  0  0  0
 14 16  1  1  0  0  0
 14 19  1  0  0  0  0
 15 18  1  0  0  0  0
 15 20  1  0  0  0  0
 16 13  1  0  0  0  0
 17 18  1  0  0  0  0
 17 13  1  0  0  0  0
 19 15  2  0  0  0  0
 20 22  1  0  0  0  0
 22 21  1  0  0  0  0
 23 25  2  0  0  0  0
 23 26  1  0  0  0  0
 25 29  1  0  0  0  0
 26 27  2  0  0  0  0
 27 24  1  0  0  0  0
 27 31  1  0  0  0  0
 28 25  1  0  0  0  0
 29 24  2  0  0  0  0
 31 30  2  0  0  0  0
 32 31  2  0  0  0  0
 34 41  1  6  0  0  0
 34 33  1  0  0  0  0
 34 39  1  0  0  0  0
 34 36  1  0  0  0  0
 35 38  1  6  0  0  0
 36 33  1  1  0  0  0
 36 35  1  0  0  0  0
 37 36  1  0  0  0  0
 37 38  1  0  0  0  0
 37 31  1  0  0  0  0
 39 35  1  0  0  0  0
 40 41  1  0  0  0  0
M  END
>  <MODEL>
9

>  <REMARK>
 VINA RESULT:      -6.9      1.968      2.829
  Name = 
  7 active torsions:
  status: ('A' for Active; 'I' for Inactive)
    1  A    between atoms: C_2  and  C_11
    2  A    between atoms: C_4  and  C_35
    3  A    between atoms: O_14  and  C_17
    4  A    between atoms: O_14  and  C_41
    5  A    between atoms: S_16  and  N_19
    6  A    between atoms: S_16  and  C_33
    7  A    between atoms: C_20  and  N_22
                            x       y       z     vdW  Elec       q    Type
                         _______ _______ _______ _____ _____    ______ ____

>  <TORSDO>
F 7

$$$$
