=
 OpenBabel11062418073D

 63 69  0  0  1  0  0  0  0  0999 V2000
  182.2130  177.4840  142.1780 O   0  0  0  0  0  0  0  0  0  0  0  0
  182.3150  178.1230  141.0920 C   0  0  0  0  0  0  0  0  0  0  0  0
  185.9660  179.3840  140.9700 C   0  0  0  0  0  2  0  0  0  0  0  0
  184.6570  178.4110  142.6910 O   0  0  0  0  0  0  0  0  0  0  0  0
  183.8910  178.2350  139.1400 C   0  0  2  0  0  3  0  0  0  0  0  0
  185.2950  178.9360  137.2980 O   0  0  0  0  0  1  0  0  0  0  0  0
  184.5200  180.5030  138.7250 O   0  0  0  0  0  1  0  0  0  0  0  0
  186.2780  179.0760  139.4990 C   0  0  2  0  0  3  0  0  0  0  0  0
  184.7390  178.6800  141.4630 C   0  0  0  0  0  0  0  0  0  0  0  0
  181.1180  178.5880  140.4260 N   0  0  0  0  0  0  0  0  0  0  0  0
  184.9990  179.1930  138.6380 C   0  0  0  0  0  0  0  0  0  0  0  0
  183.6310  178.4150  140.5740 N   0  0  0  0  0  0  0  0  0  0  0  0
  190.4520  176.6050  140.2500 C   0  0  0  0  0  0  0  0  0  0  0  0
  190.7160  176.8370  141.4210 O   0  0  0  0  0  0  0  0  0  0  0  0
  189.7470  178.9180  138.5390 C   0  0  0  0  0  1  0  0  0  0  0  0
  189.8680  176.7320  137.4030 C   0  0  0  0  0  0  0  0  0  0  0  0
  191.5170  176.1330  139.2880 C   0  0  0  0  0  2  0  0  0  0  0  0
  189.0890  177.5390  138.4140 C   0  0  1  0  0  0  0  0  0  0  0  0
  189.6230  176.8720  136.2170 O   0  0  0  0  0  0  0  0  0  0  0  0
  189.0770  176.7750  139.7050 C   0  0  2  0  0  3  0  0  0  0  0  0
  190.9750  175.7720  137.8690 C   0  0  1  0  0  0  0  0  0  0  0  0
  187.0250  177.7380  139.3230 C   0  0  2  0  0  3  0  0  0  0  0  0
  187.9980  177.4450  140.4720 C   0  0  0  0  0  2  0  0  0  0  0  0
  190.3810  174.3680  137.9650 C   0  0  0  0  0  1  0  0  0  0  0  0
  187.7320  177.7090  138.0840 O   0  0  0  0  0  0  0  0  0  0  0  0
  193.2770  174.5990  135.1080 C   0  0  0  0  0  3  0  0  0  0  0  0
  193.0210  176.7830  136.8830 C   0  0  0  0  0  3  0  0  0  0  0  0
  192.1380  175.7770  136.8870 C   0  0  0  0  0  0  0  0  0  0  0  0
  194.1910  175.7640  134.8300 C   0  0  1  0  0  3  0  0  0  0  0  0
  194.9880  177.7150  135.9820 O   0  0  0  0  0  0  0  0  0  0  0  0
  192.3510  174.6450  136.0220 N   0  0  0  0  0  0  0  0  0  0  0  0
  194.1360  176.7900  135.9310 C   0  0  0  0  0  0  0  0  0  0  0  0
  195.6140  175.2710  134.5980 C   0  0  0  0  0  2  0  0  0  0  0  0
  196.0630  174.4210  135.7360 C   0  0  0  0  0  0  0  0  0  0  0  0
  196.4200  175.0370  136.9730 N   0  0  0  0  0  2  0  0  0  0  0  0
  196.1550  173.1730  135.5850 O   0  0  0  0  0  0  0  0  0  0  0  0
  197.2540  175.1510  139.6630 O   0  0  0  0  0  1  0  0  0  0  0  0
  197.0780  174.1320  138.3240 P   0  0  0  0  0  0  0  0  0  0  0  0
  196.0320  172.8630  138.7150 O   0  0  0  0  0  1  0  0  0  0  0  0
  198.4280  173.5710  137.9400 O   0  0  0  0  0  0  0  0  0  0  0  0
  179.2420  177.1260  140.8290 C   0  0  0  0  0  2  0  0  0  0  0  0
  179.0230  179.4010  141.6380 C   0  0  0  0  0  1  0  0  0  0  0  0
  179.8190  178.3130  140.9960 C   0  0  0  0  0  0  0  0  0  0  0  0
  181.2360  179.5400  139.3130 C   0  0  0  0  0  2  0  0  0  0  0  0
  179.2130  181.2550  135.0980 N   0  0  0  0  0  0  0  0  0  0  0  0
  181.2790  179.0230  136.8530 C   0  0  0  0  0  2  0  0  0  0  0  0
  179.6630  182.4040  135.4700 C   0  0  0  0  0  3  0  0  0  0  0  0
  180.4040  179.1100  138.0980 C   0  0  2  0  0  3  0  0  0  0  0  0
  180.3210  180.1820  137.0170 C   0  0  2  0  0  0  0  0  0  0  0  0
  179.1730  180.1220  136.0040 C   0  0  0  0  0  2  0  0  0  0  0  0
  180.1880  182.5800  136.8640 C   0  0  0  0  0  2  0  0  0  0  0  0
  181.0480  181.4480  137.2080 N   0  0  0  0  0  2  0  0  0  0  0  0
  184.1580  176.7580  138.8420 C   0  0  0  0  0  2  0  0  0  0  0  0
  182.8530  176.0000  138.6690 C   0  0  0  0  0  2  0  0  0  0  0  0
  182.8180  175.2790  137.3330 C   0  0  0  0  0  2  0  0  0  0  0  0
  183.5670  173.9570  137.4290 C   0  0  0  0  0  2  0  0  0  0  0  0
  187.5960  171.7930  136.1070 C   0  0  0  0  0  1  0  0  0  0  0  0
  187.3500  174.1520  135.5060 N   0  0  0  0  0  0  0  0  0  0  0  0
  187.1790  173.1710  136.5830 C   0  0  1  0  0  3  0  0  0  0  0  0
  185.2530  175.0800  135.9370 O   0  0  0  0  0  0  0  0  0  0  0  0
  184.9310  174.0500  136.8250 C   0  0  0  0  0  0  0  0  0  0  0  0
  186.4610  175.0580  135.2420 C   0  0  0  0  0  3  0  0  0  0  0  0
  185.8050  173.1320  137.0960 N   0  0  0  0  0  0  0  0  0  0  0  0
  2  1  2  0  0  0  0
  3  9  1  0  0  0  0
  5 53  1  1  0  0  0
  5 12  1  0  0  0  0
  6 11  1  0  0  0  0
  8  3  1  1  0  0  0
  9  4  2  0  0  0  0
 10 43  1  0  0  0  0
 10  2  1  0  0  0  0
 11  7  1  0  0  0  0
 11  5  1  0  0  0  0
 11  8  1  0  0  0  0
 12  2  1  0  0  0  0
 12  9  1  0  0  0  0
 13 14  2  0  0  0  0
 16 21  1  0  0  0  0
 16 18  1  0  0  0  0
 17 13  1  0  0  0  0
 18 15  1  1  0  0  0
 18 20  1  0  0  0  0
 19 16  2  0  0  0  0
 20 13  1  0  0  0  0
 20 23  1  1  0  0  0
 21 24  1  1  0  0  0
 21 17  1  0  0  0  0
 22  8  1  0  0  0  0
 22 23  1  1  0  0  0
 25 18  1  0  0  0  0
 25 22  1  0  0  0  0
 26 31  2  0  0  0  0
 27 28  2  0  0  0  0
 28 21  1  0  0  0  0
 29 33  1  1  0  0  0
 29 26  1  0  0  0  0
 29 32  1  0  0  0  0
 31 28  1  0  0  0  0
 32 30  2  0  0  0  0
 32 27  1  0  0  0  0
 33 34  1  0  0  0  0
 34 35  1  0  0  0  0
 35 38  1  0  0  0  0
 36 34  2  0  0  0  0
 38 39  1  0  0  0  0
 38 37  1  0  0  0  0
 40 38  2  0  0  0  0
 41 43  2  0  0  0  0
 43 42  1  0  0  0  0
 44 10  1  0  0  0  0
 45 47  2  0  0  0  0
 45 50  1  0  0  0  0
 46 49  1  0  0  0  0
 46 48  1  0  0  0  0
 47 51  1  0  0  0  0
 48 44  1  1  0  0  0
 49 50  1  6  0  0  0
 49 52  1  0  0  0  0
 49 48  1  0  0  0  0
 51 52  1  0  0  0  0
 54 53  1  0  0  0  0
 55 56  1  0  0  0  0
 55 54  1  0  0  0  0
 58 59  1  0  0  0  0
 59 57  1  6  0  0  0
 59 63  1  0  0  0  0
 60 61  1  0  0  0  0
 61 63  2  0  0  0  0
 61 56  1  0  0  0  0
 62 58  2  0  0  0  0
 62 60  1  0  0  0  0
M  END
>  <MODEL>
1

>  <REMARK>
 VINA RESULT:      -3.8      0.000      0.000
  Name = 
  13 active torsions:
  status: ('A' for Active; 'I' for Inactive)
    1  A    between atoms: C_3  and  C_4
    2  A    between atoms: C_3  and  C_31
    3  A    between atoms: N_13  and  P_22
    4  A    between atoms: C_19  and  C_37
    5  A    between atoms: C_19  and  C_39
    6  A    between atoms: C_21  and  C_40
    7  A    between atoms: C_27  and  C_39
    8  A    between atoms: C_27  and  C_55
    9  A    between atoms: C_28  and  C_55
   10  A    between atoms: C_34  and  C_36
   11  A    between atoms: C_36  and  N_54
   12  A    between atoms: C_44  and  C_52
   13  A    between atoms: C_51  and  N_54
                            x       y       z     vdW  Elec       q    Type
                         _______ _______ _______ _____ _____    ______ ____

>  <TORSDO>
F 13

$$$$
=
 OpenBabel11062418073D

 63 69  0  0  1  0  0  0  0  0999 V2000
  182.3200  177.5430  141.8520 O   0  0  0  0  0  0  0  0  0  0  0  0
  182.4550  178.2240  140.7950 C   0  0  0  0  0  0  0  0  0  0  0  0
  186.1720  179.2800  140.7090 C   0  0  0  0  0  2  0  0  0  0  0  0
  184.8150  178.3060  142.3920 O   0  0  0  0  0  0  0  0  0  0  0  0
  184.0290  178.3350  138.8410 C   0  0  2  0  0  3  0  0  0  0  0  0
  185.4650  179.0370  137.0250 O   0  0  0  0  0  1  0  0  0  0  0  0
  184.7850  180.5800  138.5250 O   0  0  0  0  0  1  0  0  0  0  0  0
  186.4610  179.0220  139.2240 C   0  0  2  0  0  3  0  0  0  0  0  0
  184.9080  178.6250  141.1770 C   0  0  0  0  0  0  0  0  0  0  0  0
  181.2850  178.7860  140.1570 N   0  0  0  0  0  0  0  0  0  0  0  0
  185.1890  179.2500  138.3760 C   0  0  0  0  0  0  0  0  0  0  0  0
  183.7840  178.4640  140.2830 N   0  0  0  0  0  0  0  0  0  0  0  0
  190.4280  176.2310  139.9800 C   0  0  0  0  0  0  0  0  0  0  0  0
  190.6470  176.3610  141.1770 O   0  0  0  0  0  0  0  0  0  0  0  0
  189.9570  178.7010  138.4150 C   0  0  0  0  0  1  0  0  0  0  0  0
  189.9970  176.5980  137.1270 C   0  0  0  0  0  0  0  0  0  0  0  0
  191.5080  175.7580  139.0360 C   0  0  0  0  0  2  0  0  0  0  0  0
  189.2210  177.3810  138.1590 C   0  0  1  0  0  0  0  0  0  0  0  0
  189.8220  176.8380  135.9440 O   0  0  0  0  0  0  0  0  0  0  0  0
  189.0950  176.5310  139.3870 C   0  0  2  0  0  3  0  0  0  0  0  0
  191.0170  175.5360  137.5700 C   0  0  1  0  0  0  0  0  0  0  0  0
  187.1300  177.6530  138.9840 C   0  0  2  0  0  3  0  0  0  0  0  0
  188.0240  177.2150  140.1520 C   0  0  0  0  0  2  0  0  0  0  0  0
  190.3310  174.1710  137.5350 C   0  0  0  0  0  1  0  0  0  0  0  0
  187.8960  177.6650  137.7800 O   0  0  0  0  0  0  0  0  0  0  0  0
  193.6050  174.2390  135.1390 C   0  0  0  0  0  3  0  0  0  0  0  0
  192.9750  176.6330  136.5020 C   0  0  0  0  0  3  0  0  0  0  0  0
  192.2250  175.5330  136.6470 C   0  0  0  0  0  0  0  0  0  0  0  0
  194.3820  175.4530  134.6990 C   0  0  1  0  0  3  0  0  0  0  0  0
  194.8600  177.6560  135.5280 O   0  0  0  0  0  0  0  0  0  0  0  0
  192.6280  174.3120  135.9960 N   0  0  0  0  0  0  0  0  0  0  0  0
  194.1350  176.6300  135.6050 C   0  0  0  0  0  0  0  0  0  0  0  0
  195.8660  175.1220  134.6080 C   0  0  0  0  0  2  0  0  0  0  0  0
  196.2430  174.1240  135.6480 C   0  0  0  0  0  0  0  0  0  0  0  0
  196.4040  172.7550  135.2790 N   0  0  0  0  0  2  0  0  0  0  0  0
  196.3810  174.4910  136.8450 O   0  0  0  0  0  0  0  0  0  0  0  0
  198.1730  170.7100  136.0750 O   0  0  0  0  0  0  0  0  0  0  0  0
  196.7210  171.4910  136.4530 P   0  0  0  0  0  0  0  0  0  0  0  0
  196.8300  172.1690  137.9970 O   0  0  0  0  0  1  0  0  0  0  0  0
  195.5900  170.4870  136.4240 O   0  0  0  0  0  1  0  0  0  0  0  0
  179.4200  179.4570  141.5320 C   0  0  0  0  0  2  0  0  0  0  0  0
  179.2840  177.2470  140.5430 C   0  0  0  0  0  1  0  0  0  0  0  0
  179.9740  178.5600  140.7210 C   0  0  0  0  0  0  0  0  0  0  0  0
  181.4540  179.7800  139.0880 C   0  0  0  0  0  2  0  0  0  0  0  0
  179.1040  181.6870  135.1320 N   0  0  0  0  0  0  0  0  0  0  0  0
  181.5610  179.6370  136.5790 C   0  0  0  0  0  2  0  0  0  0  0  0
  179.3420  182.8330  135.6710 C   0  0  0  0  0  3  0  0  0  0  0  0
  180.6990  179.3850  137.8120 C   0  0  2  0  0  3  0  0  0  0  0  0
  180.4100  180.5670  136.8940 C   0  0  2  0  0  0  0  0  0  0  0  0
  179.2800  180.4470  135.8660 C   0  0  0  0  0  2  0  0  0  0  0  0
  179.8430  182.8990  137.0840 C   0  0  0  0  0  2  0  0  0  0  0  0
  180.8980  181.9040  137.2740 N   0  0  0  0  0  2  0  0  0  0  0  0
  184.2100  176.8600  138.4750 C   0  0  0  0  0  2  0  0  0  0  0  0
  184.2050  176.6770  136.9670 C   0  0  0  0  0  2  0  0  0  0  0  0
  184.7440  175.3080  136.5870 C   0  0  0  0  0  2  0  0  0  0  0  0
  184.1560  174.2400  137.4990 C   0  0  0  0  0  2  0  0  0  0  0  0
  181.1030  171.5350  135.0420 C   0  0  0  0  0  1  0  0  0  0  0  0
  180.1460  173.1490  136.6140 N   0  0  0  0  0  0  0  0  0  0  0  0
  181.1550  172.9570  135.5660 C   0  0  1  0  0  3  0  0  0  0  0  0
  181.6860  174.2480  137.9800 O   0  0  0  0  0  0  0  0  0  0  0  0
  182.7440  173.9150  137.1290 C   0  0  0  0  0  0  0  0  0  0  0  0
  180.3990  173.7830  137.7150 C   0  0  0  0  0  3  0  0  0  0  0  0
  182.5120  173.2750  136.0270 N   0  0  0  0  0  0  0  0  0  0  0  0
  2  1  2  0  0  0  0
  3  9  1  0  0  0  0
  5 53  1  1  0  0  0
  5 12  1  0  0  0  0
  6 11  1  0  0  0  0
  8  3  1  1  0  0  0
  9  4  2  0  0  0  0
 10 43  1  0  0  0  0
 10  2  1  0  0  0  0
 11  7  1  0  0  0  0
 11  5  1  0  0  0  0
 11  8  1  0  0  0  0
 12  2  1  0  0  0  0
 12  9  1  0  0  0  0
 13 14  2  0  0  0  0
 16 21  1  0  0  0  0
 16 18  1  0  0  0  0
 17 13  1  0  0  0  0
 18 15  1  1  0  0  0
 18 20  1  0  0  0  0
 19 16  2  0  0  0  0
 20 13  1  0  0  0  0
 20 23  1  1  0  0  0
 21 24  1  6  0  0  0
 21 17  1  0  0  0  0
 22  8  1  0  0  0  0
 22 23  1  1  0  0  0
 25 18  1  0  0  0  0
 25 22  1  0  0  0  0
 26 31  2  0  0  0  0
 27 28  2  0  0  0  0
 28 21  1  0  0  0  0
 29 33  1  1  0  0  0
 29 26  1  0  0  0  0
 29 32  1  0  0  0  0
 30 32  2  0  0  0  0
 31 28  1  0  0  0  0
 32 27  1  0  0  0  0
 33 34  1  0  0  0  0
 34 36  2  0  0  0  0
 35 34  1  0  0  0  0
 35 38  1  0  0  0  0
 37 38  2  0  0  0  0
 38 39  1  0  0  0  0
 40 38  1  0  0  0  0
 42 43  1  0  0  0  0
 43 41  2  0  0  0  0
 44 10  1  0  0  0  0
 45 47  2  0  0  0  0
 45 50  1  0  0  0  0
 46 49  1  0  0  0  0
 46 48  1  0  0  0  0
 47 51  1  0  0  0  0
 48 44  1  1  0  0  0
 49 50  1  6  0  0  0
 49 52  1  0  0  0  0
 49 48  1  0  0  0  0
 51 52  1  0  0  0  0
 54 53  1  0  0  0  0
 55 54  1  0  0  0  0
 55 56  1  0  0  0  0
 58 62  2  0  0  0  0
 59 57  1  1  0  0  0
 59 63  1  0  0  0  0
 59 58  1  0  0  0  0
 61 56  1  0  0  0  0
 61 60  1  0  0  0  0
 62 60  1  0  0  0  0
 63 61  2  0  0  0  0
M  END
>  <MODEL>
2

>  <REMARK>
 VINA RESULT:      -1.5      1.566      2.254
  Name = 
  13 active torsions:
  status: ('A' for Active; 'I' for Inactive)
    1  A    between atoms: C_3  and  C_4
    2  A    between atoms: C_3  and  C_31
    3  A    between atoms: N_13  and  P_22
    4  A    between atoms: C_19  and  C_37
    5  A    between atoms: C_19  and  C_39
    6  A    between atoms: C_21  and  C_40
    7  A    between atoms: C_27  and  C_39
    8  A    between atoms: C_27  and  C_55
    9  A    between atoms: C_28  and  C_55
   10  A    between atoms: C_34  and  C_36
   11  A    between atoms: C_36  and  N_54
   12  A    between atoms: C_44  and  C_52
   13  A    between atoms: C_51  and  N_54
                            x       y       z     vdW  Elec       q    Type
                         _______ _______ _______ _____ _____    ______ ____

>  <TORSDO>
F 13

$$$$
