=
 OpenBabel11062415173D

 41 44  0  0  1  0  0  0  0  0999 V2000
  186.4160  177.4940  144.3770 C   0  0  1  0  0  3  0  0  0  0  0  0
  188.1580  177.1240  148.0520 N   0  0  0  0  0  2  0  0  0  0  0  0
  187.2950  178.3020  147.9530 C   0  0  0  0  0  2  0  0  0  0  0  0
  189.1560  177.1690  146.9820 C   0  0  0  0  0  2  0  0  0  0  0  0
  187.0300  177.3010  145.6990 N   0  0  0  0  0  0  0  0  0  0  0  0
  188.4920  177.2100  145.5980 C   0  0  0  0  0  2  0  0  0  0  0  0
  186.6580  178.4260  146.5610 C   0  0  0  0  0  2  0  0  0  0  0  0
  185.8240  178.9030  144.1460 C   0  0  0  0  0  2  0  0  0  0  0  0
  181.9900  178.8150  142.4540 C   0  0  0  0  0  0  0  0  0  0  0  0
  184.3490  178.7800  142.2390 N   0  0  0  0  0  0  0  0  0  0  0  0
  184.4820  178.8750  143.5620 N   0  0  0  0  0  0  0  0  0  0  0  0
  182.1420  178.9200  143.7950 N   0  0  0  0  0  2  0  0  0  0  0  0
  183.0770  178.6030  140.2090 N   0  0  0  0  0  2  0  0  0  0  0  0
  183.4870  179.0400  145.6090 O   0  0  0  0  0  0  0  0  0  0  0  0
  183.1330  178.7430  141.6380 C   0  0  0  0  0  0  0  0  0  0  0  0
  180.8280  178.7710  141.9690 O   0  0  0  0  0  0  0  0  0  0  0  0
  183.3760  178.9480  144.3580 C   0  0  0  0  0  0  0  0  0  0  0  0
  181.7770  179.8290  138.5600 C   0  0  0  0  0  1  0  0  0  0  0  0
  181.8620  178.5710  139.4050 C   0  0  1  0  0  3  0  0  0  0  0  0
  181.5480  175.8160  139.4930 S   0  0  0  0  0  0  0  0  0  0  0  0
  180.3550  176.1020  137.0690 O   0  0  0  0  0  1  0  0  0  0  0  0
  181.8770  177.3500  138.4940 C   0  0  1  0  0  3  0  0  0  0  0  0
  180.5500  176.7570  138.2840 C   0  0  2  0  0  0  0  0  0  0  0  0
  179.3840  177.4160  138.8510 N   0  0  0  0  0  1  0  0  0  0  0  0
  187.3150  176.9890  143.2530 C   0  0  0  0  0  2  0  0  0  0  0  0
  187.5590  178.0920  142.2370 C   0  0  0  0  0  2  0  0  0  0  0  0
  188.9870  178.2380  141.9960 N   0  0  0  0  0  2  0  0  0  0  0  0
  189.4590  177.0130  141.3630 C   0  0  2  0  0  3  0  0  0  0  0  0
  190.2470  176.2320  142.3060 N   0  0  0  0  0  2  0  0  0  0  0  0
  191.4390  176.8570  142.4510 O   0  0  0  0  0  0  0  0  0  0  0  0
  191.7100  178.2460  144.2940 N   0  0  0  0  0  1  0  0  0  0  0  0
  191.6650  176.8710  143.8280 C   0  0  0  0  0  2  0  0  0  0  0  0
  190.4450  177.3910  139.8680 S   0  0  0  0  0  0  0  0  0  0  0  0
  189.1660  178.3860  139.0210 C   0  0  0  0  0  2  0  0  0  0  0  0
  186.7350  176.7620  136.1220 C   0  0  1  0  0  3  0  0  0  0  0  0
  187.8580  178.7470  136.9010 C   0  0  0  0  0  2  0  0  0  0  0  0
  188.8820  176.4790  137.4300 C   0  0  0  0  0  2  0  0  0  0  0  0
  185.2730  177.0120  136.4370 C   0  0  0  0  0  1  0  0  0  0  0  0
  187.3900  178.0160  135.7240 N   0  0  0  0  0  2  0  0  0  0  0  0
  187.4170  176.0670  137.3140 C   0  0  0  0  0  2  0  0  0  0  0  0
  189.0270  178.0020  137.5560 C   0  0  2  0  0  3  0  0  0  0  0  0
  1 25  1  6  0  0  0
  1  5  1  0  0  0  0
  3  2  1  0  0  0  0
  4  2  1  0  0  0  0
  5  7  1  0  0  0  0
  6  5  1  0  0  0  0
  6  4  1  0  0  0  0
  7  3  1  0  0  0  0
  8  1  1  0  0  0  0
  9 12  1  0  0  0  0
 10 11  1  0  0  0  0
 11  8  1  0  0  0  0
 11 17  1  0  0  0  0
 12 17  1  0  0  0  0
 13 15  1  0  0  0  0
 15 10  2  0  0  0  0
 15  9  1  0  0  0  0
 16  9  2  0  0  0  0
 17 14  2  0  0  0  0
 19 18  1  6  0  0  0
 19 13  1  0  0  0  0
 22 19  1  1  0  0  0
 22 20  1  0  0  0  0
 23 21  1  6  0  0  0
 23 22  1  0  0  0  0
 23 24  1  0  0  0  0
 23 20  1  0  0  0  0
 26 25  1  0  0  0  0
 27 26  1  0  0  0  0
 28 33  1  6  0  0  0
 28 27  1  0  0  0  0
 28 29  1  0  0  0  0
 29 30  1  0  0  0  0
 30 32  1  0  0  0  0
 32 31  1  0  0  0  0
 34 33  1  0  0  0  0
 35 38  1  1  0  0  0
 35 40  1  0  0  0  0
 36 41  1  0  0  0  0
 37 41  1  0  0  0  0
 39 35  1  0  0  0  0
 39 36  1  0  0  0  0
 40 37  1  0  0  0  0
 41 34  1  1  0  0  0
M  END
>  <MODEL>
1

>  <REMARK>
 VINA RESULT:      -7.0      0.000      0.000
  Name = 
  15 active torsions:
  status: ('A' for Active; 'I' for Inactive)
    1  A    between atoms: N_3  and  C_16
    2  A    between atoms: N_3  and  O_23
    3  A    between atoms: S_11  and  C_16
    4  A    between atoms: S_11  and  C_34
    5  A    between atoms: C_15  and  O_23
    6  A    between atoms: C_16  and  N_31
    7  A    between atoms: N_17  and  C_21
    8  A    between atoms: C_19  and  C_27
    9  A    between atoms: C_20  and  C_21
   10  A    between atoms: C_20  and  N_35
   11  A    between atoms: C_20  and  C_37
   12  A    between atoms: C_27  and  N_30
   13  A    between atoms: C_28  and  C_34
   14  A    between atoms: N_31  and  C_40
   15  A    between atoms: C_37  and  C_40
                            x       y       z     vdW  Elec       q    Type
                         _______ _______ _______ _____ _____    ______ ____

>  <TORSDO>
F 15

$$$$
=
 OpenBabel11062415173D

 41 44  0  0  1  0  0  0  0  0999 V2000
  187.9110  177.4520  144.2330 C   0  0  1  0  0  3  0  0  0  0  0  0
  191.1510  176.2940  146.4300 N   0  0  0  0  0  2  0  0  0  0  0  0
  190.0580  176.8000  147.2610 C   0  0  0  0  0  2  0  0  0  0  0  0
  191.5070  177.3050  145.4340 C   0  0  0  0  0  2  0  0  0  0  0  0
  189.0820  176.9840  144.9880 N   0  0  0  0  0  0  0  0  0  0  0  0
  190.3060  177.6660  144.5480 C   0  0  0  0  0  2  0  0  0  0  0  0
  188.8540  177.2370  146.4140 C   0  0  0  0  0  2  0  0  0  0  0  0
  186.7740  178.0310  145.1060 C   0  0  0  0  0  2  0  0  0  0  0  0
  183.2730  178.7890  142.9290 C   0  0  0  0  0  0  0  0  0  0  0  0
  185.5620  178.1840  143.0240 N   0  0  0  0  0  0  0  0  0  0  0  0
  185.5490  178.2990  144.3520 N   0  0  0  0  0  0  0  0  0  0  0  0
  183.2790  178.9100  144.2780 N   0  0  0  0  0  2  0  0  0  0  0  0
  184.5460  178.2310  140.8470 N   0  0  0  0  0  2  0  0  0  0  0  0
  184.3770  178.7810  146.2500 O   0  0  0  0  0  0  0  0  0  0  0  0
  184.4570  178.4130  142.2700 C   0  0  0  0  0  0  0  0  0  0  0  0
  182.2040  179.0020  142.2980 O   0  0  0  0  0  0  0  0  0  0  0  0
  184.4030  178.6670  144.9960 C   0  0  0  0  0  0  0  0  0  0  0  0
  183.7150  179.7530  139.1430 C   0  0  0  0  0  1  0  0  0  0  0  0
  183.4680  178.4560  139.8920 C   0  0  1  0  0  3  0  0  0  0  0  0
  182.3170  175.9540  139.5680 S   0  0  0  0  0  0  0  0  0  0  0  0
  182.1360  176.6270  136.9420 O   0  0  0  0  0  1  0  0  0  0  0  0
  183.4090  177.3020  138.8990 C   0  0  1  0  0  3  0  0  0  0  0  0
  182.1120  177.1760  138.2240 C   0  0  2  0  0  0  0  0  0  0  0  0
  181.0840  178.1750  138.4720 N   0  0  0  0  0  1  0  0  0  0  0  0
  188.3100  178.3230  143.0460 C   0  0  0  0  0  2  0  0  0  0  0  0
  188.5000  177.4690  141.8040 C   0  0  0  0  0  2  0  0  0  0  0  0
  188.0040  178.1780  140.6340 N   0  0  0  0  0  2  0  0  0  0  0  0
  189.0780  178.2160  139.6480 C   0  0  2  0  0  3  0  0  0  0  0  0
  188.5360  178.0240  138.3090 N   0  0  0  0  0  2  0  0  0  0  0  0
  187.2070  177.8060  138.4390 O   0  0  0  0  0  0  0  0  0  0  0  0
  187.4350  179.3610  136.7270 N   0  0  0  0  0  1  0  0  0  0  0  0
  186.6590  178.2410  137.2320 C   0  0  0  0  0  2  0  0  0  0  0  0
  190.3430  176.9450  140.0130 S   0  0  0  0  0  0  0  0  0  0  0  0
  190.6830  176.4860  138.2760 C   0  0  0  0  0  2  0  0  0  0  0  0
  194.0530  175.5200  136.1180 C   0  0  1  0  0  3  0  0  0  0  0  0
  193.1970  176.3680  138.2050 C   0  0  0  0  0  2  0  0  0  0  0  0
  191.7770  174.7240  136.8810 C   0  0  0  0  0  2  0  0  0  0  0  0
  194.6230  176.7410  135.4230 C   0  0  0  0  0  1  0  0  0  0  0  0
  194.2740  175.6110  137.5680 N   0  0  0  0  0  2  0  0  0  0  0  0
  192.5740  175.3400  135.7340 C   0  0  0  0  0  2  0  0  0  0  0  0
  191.8900  175.5680  138.1580 C   0  0  2  0  0  3  0  0  0  0  0  0
  1 25  1  6  0  0  0
  1  5  1  0  0  0  0
  1  8  1  0  0  0  0
  2  3  1  0  0  0  0
  4  2  1  0  0  0  0
  5  7  1  0  0  0  0
  6  5  1  0  0  0  0
  6  4  1  0  0  0  0
  7  3  1  0  0  0  0
  9 12  1  0  0  0  0
 10 11  1  0  0  0  0
 11 17  1  0  0  0  0
 11  8  1  0  0  0  0
 12 17  1  0  0  0  0
 13 15  1  0  0  0  0
 15  9  1  0  0  0  0
 15 10  2  0  0  0  0
 16  9  2  0  0  0  0
 17 14  2  0  0  0  0
 19 18  1  6  0  0  0
 19 13  1  0  0  0  0
 22 20  1  0  0  0  0
 22 19  1  1  0  0  0
 23 21  1  6  0  0  0
 23 24  1  0  0  0  0
 23 22  1  0  0  0  0
 23 20  1  0  0  0  0
 26 25  1  0  0  0  0
 27 26  1  0  0  0  0
 28 29  1  6  0  0  0
 28 33  1  0  0  0  0
 28 27  1  0  0  0  0
 29 30  1  0  0  0  0
 31 32  1  0  0  0  0
 32 30  1  0  0  0  0
 34 33  1  0  0  0  0
 35 38  1  6  0  0  0
 35 39  1  0  0  0  0
 37 41  1  0  0  0  0
 39 36  1  0  0  0  0
 40 35  1  0  0  0  0
 40 37  1  0  0  0  0
 41 36  1  0  0  0  0
 41 34  1  6  0  0  0
M  END
>  <MODEL>
2

>  <REMARK>
 VINA RESULT:      -6.6      2.611      3.835
  Name = 
  15 active torsions:
  status: ('A' for Active; 'I' for Inactive)
    1  A    between atoms: N_3  and  C_16
    2  A    between atoms: N_3  and  O_23
    3  A    between atoms: S_11  and  C_16
    4  A    between atoms: S_11  and  C_34
    5  A    between atoms: C_15  and  O_23
    6  A    between atoms: C_16  and  N_31
    7  A    between atoms: N_17  and  C_21
    8  A    between atoms: C_19  and  C_27
    9  A    between atoms: C_20  and  C_21
   10  A    between atoms: C_20  and  N_35
   11  A    between atoms: C_20  and  C_37
   12  A    between atoms: C_27  and  N_30
   13  A    between atoms: C_28  and  C_34
   14  A    between atoms: N_31  and  C_40
   15  A    between atoms: C_37  and  C_40
                            x       y       z     vdW  Elec       q    Type
                         _______ _______ _______ _____ _____    ______ ____

>  <TORSDO>
F 15

$$$$
=
 OpenBabel11062415173D

 41 44  0  0  1  0  0  0  0  0999 V2000
  191.1860  174.7150  136.7590 C   0  0  1  0  0  3  0  0  0  0  0  0
  194.8160  172.9740  136.0750 N   0  0  0  0  0  2  0  0  0  0  0  0
  193.6980  172.0600  135.8340 C   0  0  0  0  0  2  0  0  0  0  0  0
  194.7180  173.5050  137.4350 C   0  0  0  0  0  2  0  0  0  0  0  0
  192.5110  174.1400  136.4830 N   0  0  0  0  0  0  0  0  0  0  0  0
  193.3900  174.2430  137.6550 C   0  0  0  0  0  2  0  0  0  0  0  0
  192.3440  172.7330  136.1060 C   0  0  0  0  0  2  0  0  0  0  0  0
  191.1300  176.2580  136.6830 C   0  0  0  0  0  2  0  0  0  0  0  0
  189.1390  177.9860  139.9420 C   0  0  0  0  0  0  0  0  0  0  0  0
  190.6550  176.4010  139.0460 N   0  0  0  0  0  0  0  0  0  0  0  0
  190.4300  176.8650  137.8160 N   0  0  0  0  0  0  0  0  0  0  0  0
  188.9160  178.4400  138.6860 N   0  0  0  0  0  2  0  0  0  0  0  0
  190.3660  176.3910  141.4310 N   0  0  0  0  0  2  0  0  0  0  0  0
  189.3310  178.3400  136.4660 O   0  0  0  0  0  0  0  0  0  0  0  0
  190.0410  176.9240  140.1370 C   0  0  0  0  0  0  0  0  0  0  0  0
  188.5450  178.5340  140.9090 O   0  0  0  0  0  0  0  0  0  0  0  0
  189.5540  177.8920  137.6220 C   0  0  0  0  0  0  0  0  0  0  0  0
  188.6830  175.8560  143.1020 C   0  0  0  0  0  1  0  0  0  0  0  0
  189.7850  176.8180  142.6970 C   0  0  1  0  0  3  0  0  0  0  0  0
  191.5850  178.5480  143.9070 S   0  0  0  0  0  0  0  0  0  0  0  0
  191.0440  177.1600  146.1790 O   0  0  0  0  0  1  0  0  0  0  0  0
  190.8600  176.8400  143.7770 C   0  0  1  0  0  3  0  0  0  0  0  0
  190.4660  177.5810  144.9820 C   0  0  2  0  0  0  0  0  0  0  0  0
  189.1150  178.1110  145.0760 N   0  0  0  0  0  1  0  0  0  0  0  0
  190.0830  173.9990  135.9870 C   0  0  0  0  0  2  0  0  0  0  0  0
  188.7710  174.0730  136.7500 C   0  0  0  0  0  2  0  0  0  0  0  0
  187.7950  174.8370  135.9880 N   0  0  0  0  0  2  0  0  0  0  0  0
  186.6680  175.1240  136.8680 C   0  0  2  0  0  3  0  0  0  0  0  0
  185.5910  174.1740  136.6290 N   0  0  0  0  0  2  0  0  0  0  0  0
  185.5270  173.3570  137.7060 O   0  0  0  0  0  0  0  0  0  0  0  0
  183.5070  173.2510  136.5630 N   0  0  0  0  0  1  0  0  0  0  0  0
  184.3990  172.5670  137.4830 C   0  0  0  0  0  2  0  0  0  0  0  0
  186.0730  176.8380  136.6250 S   0  0  0  0  0  0  0  0  0  0  0  0
  184.5020  176.6440  137.5400 C   0  0  0  0  0  2  0  0  0  0  0  0
  184.1160  178.8180  141.0150 C   0  0  1  0  0  3  0  0  0  0  0  0
  185.2130  178.6570  138.8750 C   0  0  0  0  0  2  0  0  0  0  0  0
  182.8740  177.6870  139.1230 C   0  0  0  0  0  2  0  0  0  0  0  0
  185.1910  178.4390  142.0150 C   0  0  0  0  0  1  0  0  0  0  0  0
  184.7050  179.5700  139.8980 N   0  0  0  0  0  2  0  0  0  0  0  0
  183.3480  177.5610  140.5690 C   0  0  0  0  0  2  0  0  0  0  0  0
  184.0480  177.9520  138.1700 C   0  0  2  0  0  3  0  0  0  0  0  0
  1 25  1  6  0  0  0
  2  4  1  0  0  0  0
  3  2  1  0  0  0  0
  3  7  1  0  0  0  0
  4  6  1  0  0  0  0
  5  1  1  0  0  0  0
  5  6  1  0  0  0  0
  7  5  1  0  0  0  0
  8  1  1  0  0  0  0
  8 11  1  0  0  0  0
  9 15  1  0  0  0  0
  9 16  2  0  0  0  0
 10 15  2  0  0  0  0
 11 10  1  0  0  0  0
 12  9  1  0  0  0  0
 13 19  1  0  0  0  0
 14 17  2  0  0  0  0
 15 13  1  0  0  0  0
 17 11  1  0  0  0  0
 17 12  1  0  0  0  0
 19 18  1  1  0  0  0
 20 23  1  0  0  0  0
 22 19  1  6  0  0  0
 22 20  1  0  0  0  0
 22 23  1  0  0  0  0
 23 24  1  1  0  0  0
 23 21  1  0  0  0  0
 25 26  1  0  0  0  0
 27 26  1  0  0  0  0
 28 27  1  6  0  0  0
 29 28  1  0  0  0  0
 29 30  1  0  0  0  0
 31 32  1  0  0  0  0
 32 30  1  0  0  0  0
 33 28  1  0  0  0  0
 33 34  1  0  0  0  0
 35 38  1  1  0  0  0
 36 39  1  0  0  0  0
 37 40  1  0  0  0  0
 39 35  1  0  0  0  0
 40 35  1  0  0  0  0
 41 34  1  1  0  0  0
 41 36  1  0  0  0  0
 41 37  1  0  0  0  0
M  END
>  <MODEL>
3

>  <REMARK>
 VINA RESULT:      -6.6      3.865      9.236
  Name = 
  15 active torsions:
  status: ('A' for Active; 'I' for Inactive)
    1  A    between atoms: N_3  and  C_16
    2  A    between atoms: N_3  and  O_23
    3  A    between atoms: S_11  and  C_16
    4  A    between atoms: S_11  and  C_34
    5  A    between atoms: C_15  and  O_23
    6  A    between atoms: C_16  and  N_31
    7  A    between atoms: N_17  and  C_21
    8  A    between atoms: C_19  and  C_27
    9  A    between atoms: C_20  and  C_21
   10  A    between atoms: C_20  and  N_35
   11  A    between atoms: C_20  and  C_37
   12  A    between atoms: C_27  and  N_30
   13  A    between atoms: C_28  and  C_34
   14  A    between atoms: N_31  and  C_40
   15  A    between atoms: C_37  and  C_40
                            x       y       z     vdW  Elec       q    Type
                         _______ _______ _______ _____ _____    ______ ____

>  <TORSDO>
F 15

$$$$
=
 OpenBabel11062415173D

 41 44  0  0  1  0  0  0  0  0999 V2000
  183.0980  178.0930  139.0530 C   0  0  1  0  0  3  0  0  0  0  0  0
  179.2080  178.1520  140.2940 N   0  0  0  0  0  2  0  0  0  0  0  0
  180.0120  179.2100  140.9080 C   0  0  0  0  0  2  0  0  0  0  0  0
  179.8380  176.8570  140.5530 C   0  0  0  0  0  2  0  0  0  0  0  0
  181.6800  178.1050  139.4410 N   0  0  0  0  0  0  0  0  0  0  0  0
  181.2690  176.8090  139.9970 C   0  0  0  0  0  2  0  0  0  0  0  0
  181.4720  179.1630  140.4340 C   0  0  0  0  0  2  0  0  0  0  0  0
  183.3530  177.7390  137.5700 C   0  0  0  0  0  2  0  0  0  0  0  0
  186.4370  174.9480  137.0510 C   0  0  0  0  0  0  0  0  0  0  0  0
  185.6570  177.1850  137.1130 N   0  0  0  0  0  0  0  0  0  0  0  0
  184.4240  176.7590  137.3880 N   0  0  0  0  0  0  0  0  0  0  0  0
  185.1770  174.5320  137.3230 N   0  0  0  0  0  2  0  0  0  0  0  0
  188.0000  176.8690  136.6810 N   0  0  0  0  0  2  0  0  0  0  0  0
  183.0090  175.0060  137.7540 O   0  0  0  0  0  0  0  0  0  0  0  0
  186.6940  176.3260  136.9390 C   0  0  0  0  0  0  0  0  0  0  0  0
  187.3520  174.0930  136.9190 O   0  0  0  0  0  0  0  0  0  0  0  0
  184.1700  175.4230  137.4950 C   0  0  0  0  0  0  0  0  0  0  0  0
  189.4760  176.0000  134.9550 C   0  0  0  0  0  1  0  0  0  0  0  0
  189.2110  176.0940  136.4470 C   0  0  1  0  0  3  0  0  0  0  0  0
  190.1730  176.7070  138.9760 S   0  0  0  0  0  0  0  0  0  0  0  0
  192.6240  176.2060  137.9170 O   0  0  0  0  0  1  0  0  0  0  0  0
  190.3950  176.7670  137.1300 C   0  0  1  0  0  3  0  0  0  0  0  0
  191.2860  175.8270  137.8220 C   0  0  2  0  0  0  0  0  0  0  0  0
  191.0310  174.4000  137.7120 N   0  0  0  0  0  1  0  0  0  0  0  0
  183.8330  179.3350  139.5460 C   0  0  0  0  0  2  0  0  0  0  0  0
  185.2380  178.9710  139.9980 C   0  0  0  0  0  2  0  0  0  0  0  0
  185.4280  179.3580  141.3880 N   0  0  0  0  0  2  0  0  0  0  0  0
  185.2560  178.1670  142.2100 C   0  0  2  0  0  3  0  0  0  0  0  0
  184.0250  178.2640  142.9830 N   0  0  0  0  0  2  0  0  0  0  0  0
  184.1200  179.3710  143.7570 O   0  0  0  0  0  0  0  0  0  0  0  0
  184.2070  178.9120  146.0330 N   0  0  0  0  0  1  0  0  0  0  0  0
  183.3420  179.0850  144.8790 C   0  0  0  0  0  2  0  0  0  0  0  0
  186.6900  177.9300  143.3220 S   0  0  0  0  0  0  0  0  0  0  0  0
  187.9810  178.1440  142.0460 C   0  0  0  0  0  2  0  0  0  0  0  0
  190.5460  177.2320  145.1340 C   0  0  1  0  0  3  0  0  0  0  0  0
  189.0550  176.3560  143.4550 C   0  0  0  0  0  2  0  0  0  0  0  0
  190.2570  178.5500  142.9940 C   0  0  0  0  0  2  0  0  0  0  0  0
  189.7880  177.0550  146.4360 C   0  0  0  0  0  1  0  0  0  0  0  0
  190.2700  176.1070  144.2290 N   0  0  0  0  0  2  0  0  0  0  0  0
  190.2210  178.6050  144.5190 C   0  0  0  0  0  2  0  0  0  0  0  0
  189.2920  177.4880  142.4490 C   0  0  2  0  0  3  0  0  0  0  0  0
  1  8  1  6  0  0  0
  1  5  1  0  0  0  0
  1 25  1  0  0  0  0
  2  4  1  0  0  0  0
  2  3  1  0  0  0  0
  5  6  1  0  0  0  0
  5  7  1  0  0  0  0
  6  4  1  0  0  0  0
  7  3  1  0  0  0  0
  9 12  1  0  0  0  0
 10 11  1  0  0  0  0
 11 17  1  0  0  0  0
 11  8  1  0  0  0  0
 12 17  1  0  0  0  0
 13 15  1  0  0  0  0
 15  9  1  0  0  0  0
 15 10  2  0  0  0  0
 16  9  2  0  0  0  0
 17 14  2  0  0  0  0
 19 18  1  6  0  0  0
 19 13  1  0  0  0  0
 22 19  1  6  0  0  0
 22 23  1  0  0  0  0
 22 20  1  0  0  0  0
 23 24  1  6  0  0  0
 23 21  1  0  0  0  0
 23 20  1  0  0  0  0
 25 26  1  0  0  0  0
 26 27  1  0  0  0  0
 28 27  1  1  0  0  0
 28 29  1  0  0  0  0
 28 33  1  0  0  0  0
 29 30  1  0  0  0  0
 30 32  1  0  0  0  0
 32 31  1  0  0  0  0
 34 33  1  0  0  0  0
 35 38  1  1  0  0  0
 36 39  1  0  0  0  0
 37 40  1  0  0  0  0
 39 35  1  0  0  0  0
 40 35  1  0  0  0  0
 41 34  1  1  0  0  0
 41 37  1  0  0  0  0
 41 36  1  0  0  0  0
M  END
>  <MODEL>
4

>  <REMARK>
 VINA RESULT:      -6.6      2.626      8.187
  Name = 
  15 active torsions:
  status: ('A' for Active; 'I' for Inactive)
    1  A    between atoms: N_3  and  C_16
    2  A    between atoms: N_3  and  O_23
    3  A    between atoms: S_11  and  C_16
    4  A    between atoms: S_11  and  C_34
    5  A    between atoms: C_15  and  O_23
    6  A    between atoms: C_16  and  N_31
    7  A    between atoms: N_17  and  C_21
    8  A    between atoms: C_19  and  C_27
    9  A    between atoms: C_20  and  C_21
   10  A    between atoms: C_20  and  N_35
   11  A    between atoms: C_20  and  C_37
   12  A    between atoms: C_27  and  N_30
   13  A    between atoms: C_28  and  C_34
   14  A    between atoms: N_31  and  C_40
   15  A    between atoms: C_37  and  C_40
                            x       y       z     vdW  Elec       q    Type
                         _______ _______ _______ _____ _____    ______ ____

>  <TORSDO>
F 15

$$$$
=
 OpenBabel11062415173D

 41 44  0  0  1  0  0  0  0  0999 V2000
  189.7080  177.8680  138.6720 C   0  0  1  0  0  3  0  0  0  0  0  0
  192.0580  175.1450  136.7390 N   0  0  0  0  0  2  0  0  0  0  0  0
  190.7790  174.5800  137.1700 C   0  0  0  0  0  2  0  0  0  0  0  0
  192.7420  175.7250  137.8950 C   0  0  0  0  0  2  0  0  0  0  0  0
  190.5670  176.9310  137.9330 N   0  0  0  0  0  0  0  0  0  0  0  0
  191.8910  176.8170  138.5600 C   0  0  0  0  0  2  0  0  0  0  0  0
  189.9150  175.6180  137.9020 C   0  0  0  0  0  2  0  0  0  0  0  0
  188.9050  178.8400  137.7780 C   0  0  0  0  0  2  0  0  0  0  0  0
  185.0730  177.4290  136.8280 C   0  0  0  0  0  0  0  0  0  0  0  0
  186.5760  178.5010  138.3150 N   0  0  0  0  0  0  0  0  0  0  0  0
  187.5700  178.3430  137.4400 N   0  0  0  0  0  0  0  0  0  0  0  0
  186.0960  177.2700  135.9550 N   0  0  0  0  0  2  0  0  0  0  0  0
  184.2930  178.3080  139.0380 N   0  0  0  0  0  2  0  0  0  0  0  0
  188.2710  177.5660  135.4130 O   0  0  0  0  0  0  0  0  0  0  0  0
  185.3160  178.0670  138.0580 C   0  0  0  0  0  0  0  0  0  0  0  0
  183.9260  177.0150  136.5130 O   0  0  0  0  0  0  0  0  0  0  0  0
  187.3410  177.7220  136.2470 C   0  0  0  0  0  0  0  0  0  0  0  0
  182.6980  176.5970  139.7030 C   0  0  0  0  0  1  0  0  0  0  0  0
  182.9010  177.8910  138.9340 C   0  0  1  0  0  3  0  0  0  0  0  0
  181.8750  180.3950  138.3230 S   0  0  0  0  0  0  0  0  0  0  0  0
  179.6310  179.5360  139.5910 O   0  0  0  0  0  1  0  0  0  0  0  0
  181.9940  178.9700  139.5120 C   0  0  1  0  0  3  0  0  0  0  0  0
  180.7030  179.0830  138.8220 C   0  0  2  0  0  0  0  0  0  0  0  0
  180.3790  178.1350  137.7680 N   0  0  0  0  0  1  0  0  0  0  0  0
  188.8840  177.1610  139.7440 C   0  0  0  0  0  2  0  0  0  0  0  0
  189.4280  177.4840  141.1250 C   0  0  0  0  0  2  0  0  0  0  0  0
  188.5890  178.4860  141.7660 N   0  0  0  0  0  2  0  0  0  0  0  0
  187.3400  177.8410  142.1520 C   0  0  2  0  0  3  0  0  0  0  0  0
  186.2060  178.6630  141.7520 N   0  0  0  0  0  2  0  0  0  0  0  0
  185.0900  178.0830  142.2520 O   0  0  0  0  0  0  0  0  0  0  0  0
  182.9700  178.6600  143.0090 N   0  0  0  0  0  1  0  0  0  0  0  0
  184.2950  179.1510  142.6700 C   0  0  0  0  0  2  0  0  0  0  0  0
  187.2980  177.5300  143.9550 S   0  0  0  0  0  0  0  0  0  0  0  0
  188.9150  176.6840  144.0580 C   0  0  0  0  0  2  0  0  0  0  0  0
  191.3590  176.7060  147.3710 C   0  0  1  0  0  3  0  0  0  0  0  0
  191.2630  176.7440  144.9640 C   0  0  0  0  0  2  0  0  0  0  0  0
  189.3330  177.7550  146.2770 C   0  0  0  0  0  2  0  0  0  0  0  0
  191.8370  175.3060  147.7040 C   0  0  0  0  0  1  0  0  0  0  0  0
  192.0080  177.1850  146.1420 N   0  0  0  0  0  2  0  0  0  0  0  0
  189.8220  176.7350  147.3020 C   0  0  0  0  0  2  0  0  0  0  0  0
  189.9170  177.4740  144.8860 C   0  0  2  0  0  3  0  0  0  0  0  0
  1  8  1  6  0  0  0
  1 25  1  0  0  0  0
  2  3  1  0  0  0  0
  2  4  1  0  0  0  0
  3  7  1  0  0  0  0
  4  6  1  0  0  0  0
  5  6  1  0  0  0  0
  5  1  1  0  0  0  0
  7  5  1  0  0  0  0
  9 15  1  0  0  0  0
 11  8  1  0  0  0  0
 11 10  1  0  0  0  0
 12 17  1  0  0  0  0
 12  9  1  0  0  0  0
 14 17  2  0  0  0  0
 15 10  2  0  0  0  0
 15 13  1  0  0  0  0
 16  9  2  0  0  0  0
 17 11  1  0  0  0  0
 19 13  1  0  0  0  0
 19 18  1  1  0  0  0
 20 23  1  0  0  0  0
 20 22  1  0  0  0  0
 22 19  1  6  0  0  0
 23 24  1  6  0  0  0
 23 22  1  0  0  0  0
 23 21  1  0  0  0  0
 25 26  1  0  0  0  0
 26 27  1  0  0  0  0
 27 28  1  0  0  0  0
 28 29  1  1  0  0  0
 28 33  1  0  0  0  0
 29 30  1  0  0  0  0
 30 32  1  0  0  0  0
 32 31  1  0  0  0  0
 33 34  1  0  0  0  0
 35 38  1  6  0  0  0
 36 39  1  0  0  0  0
 37 40  1  0  0  0  0
 39 35  1  0  0  0  0
 40 35  1  0  0  0  0
 41 34  1  6  0  0  0
 41 36  1  0  0  0  0
 41 37  1  0  0  0  0
M  END
>  <MODEL>
5

>  <REMARK>
 VINA RESULT:      -6.6      2.702      7.488
  Name = 
  15 active torsions:
  status: ('A' for Active; 'I' for Inactive)
    1  A    between atoms: N_3  and  C_16
    2  A    between atoms: N_3  and  O_23
    3  A    between atoms: S_11  and  C_16
    4  A    between atoms: S_11  and  C_34
    5  A    between atoms: C_15  and  O_23
    6  A    between atoms: C_16  and  N_31
    7  A    between atoms: N_17  and  C_21
    8  A    between atoms: C_19  and  C_27
    9  A    between atoms: C_20  and  C_21
   10  A    between atoms: C_20  and  N_35
   11  A    between atoms: C_20  and  C_37
   12  A    between atoms: C_27  and  N_30
   13  A    between atoms: C_28  and  C_34
   14  A    between atoms: N_31  and  C_40
   15  A    between atoms: C_37  and  C_40
                            x       y       z     vdW  Elec       q    Type
                         _______ _______ _______ _____ _____    ______ ____

>  <TORSDO>
F 15

$$$$
=
 OpenBabel11062415173D

 41 44  0  0  1  0  0  0  0  0999 V2000
  189.8650  177.7860  138.6820 C   0  0  1  0  0  3  0  0  0  0  0  0
  191.9110  175.0930  136.3950 N   0  0  0  0  0  2  0  0  0  0  0  0
  190.6930  174.5280  136.9770 C   0  0  0  0  0  2  0  0  0  0  0  0
  192.7460  175.6390  137.4640 C   0  0  0  0  0  2  0  0  0  0  0  0
  190.6090  176.8610  137.8160 N   0  0  0  0  0  0  0  0  0  0  0  0
  192.0020  176.7210  138.2600 C   0  0  0  0  0  2  0  0  0  0  0  0
  189.9440  175.5550  137.8390 C   0  0  0  0  0  2  0  0  0  0  0  0
  189.0370  178.8480  137.9220 C   0  0  0  0  0  2  0  0  0  0  0  0
  185.1760  177.5450  136.9390 C   0  0  0  0  0  0  0  0  0  0  0  0
  186.6970  178.5640  138.4430 N   0  0  0  0  0  0  0  0  0  0  0  0
  187.6930  178.3890  137.5730 N   0  0  0  0  0  0  0  0  0  0  0  0
  186.2000  177.3680  136.0700 N   0  0  0  0  0  2  0  0  0  0  0  0
  184.4060  178.4240  139.1530 N   0  0  0  0  0  2  0  0  0  0  0  0
  188.3850  177.6120  135.5420 O   0  0  0  0  0  0  0  0  0  0  0  0
  185.4280  178.1650  138.1760 C   0  0  0  0  0  0  0  0  0  0  0  0
  184.0210  177.1640  136.6140 O   0  0  0  0  0  0  0  0  0  0  0  0
  187.4540  177.7850  136.3730 C   0  0  0  0  0  0  0  0  0  0  0  0
  182.7620  176.7540  139.8000 C   0  0  0  0  0  1  0  0  0  0  0  0
  183.0040  178.0440  139.0370 C   0  0  1  0  0  3  0  0  0  0  0  0
  181.8900  180.4890  138.3480 S   0  0  0  0  0  0  0  0  0  0  0  0
  179.7610  179.6800  139.8300 O   0  0  0  0  0  1  0  0  0  0  0  0
  182.1220  179.1440  139.6120 C   0  0  1  0  0  3  0  0  0  0  0  0
  180.7820  179.1950  139.0130 C   0  0  2  0  0  0  0  0  0  0  0  0
  180.4000  178.1770  138.0480 N   0  0  0  0  0  1  0  0  0  0  0  0
  189.1020  177.0500  139.7790 C   0  0  0  0  0  2  0  0  0  0  0  0
  189.6630  177.4110  141.1440 C   0  0  0  0  0  2  0  0  0  0  0  0
  188.5980  177.4060  142.1350 N   0  0  0  0  0  2  0  0  0  0  0  0
  189.1590  177.8760  143.3960 C   0  0  2  0  0  3  0  0  0  0  0  0
  190.5730  177.5330  143.4740 N   0  0  0  0  0  2  0  0  0  0  0  0
  190.9670  177.7350  144.7530 O   0  0  0  0  0  0  0  0  0  0  0  0
  192.0270  176.6240  146.4970 N   0  0  0  0  0  1  0  0  0  0  0  0
  191.6930  176.5910  145.0830 C   0  0  0  0  0  2  0  0  0  0  0  0
  188.2510  177.1670  144.8180 S   0  0  0  0  0  0  0  0  0  0  0  0
  186.5930  177.2120  144.0490 C   0  0  0  0  0  2  0  0  0  0  0  0
  183.0930  179.3750  143.9100 C   0  0  1  0  0  3  0  0  0  0  0  0
  184.9080  178.6060  145.2960 C   0  0  0  0  0  2  0  0  0  0  0  0
  185.3440  178.9950  142.8200 C   0  0  0  0  0  2  0  0  0  0  0  0
  181.9110  178.5260  144.3350 C   0  0  0  0  0  1  0  0  0  0  0  0
  183.9420  179.6800  145.0700 N   0  0  0  0  0  2  0  0  0  0  0  0
  183.8510  178.6850  142.7620 C   0  0  0  0  0  2  0  0  0  0  0  0
  185.9480  178.5840  144.1700 C   0  0  2  0  0  3  0  0  0  0  0  0
  1  8  1  6  0  0  0
  1 25  1  0  0  0  0
  2  3  1  0  0  0  0
  2  4  1  0  0  0  0
  3  7  1  0  0  0  0
  4  6  1  0  0  0  0
  5  7  1  0  0  0  0
  5  6  1  0  0  0  0
  5  1  1  0  0  0  0
  9 15  1  0  0  0  0
 11  8  1  0  0  0  0
 11 10  1  0  0  0  0
 12 17  1  0  0  0  0
 12  9  1  0  0  0  0
 14 17  2  0  0  0  0
 15 10  2  0  0  0  0
 15 13  1  0  0  0  0
 16  9  2  0  0  0  0
 17 11  1  0  0  0  0
 19 13  1  0  0  0  0
 19 18  1  1  0  0  0
 20 23  1  0  0  0  0
 20 22  1  0  0  0  0
 22 19  1  6  0  0  0
 23 24  1  6  0  0  0
 23 22  1  0  0  0  0
 23 21  1  0  0  0  0
 25 26  1  0  0  0  0
 26 27  1  0  0  0  0
 28 27  1  6  0  0  0
 28 29  1  0  0  0  0
 28 33  1  0  0  0  0
 29 30  1  0  0  0  0
 30 32  1  0  0  0  0
 32 31  1  0  0  0  0
 34 33  1  0  0  0  0
 35 38  1  1  0  0  0
 35 39  1  0  0  0  0
 37 41  1  0  0  0  0
 39 36  1  0  0  0  0
 40 37  1  0  0  0  0
 40 35  1  0  0  0  0
 41 34  1  6  0  0  0
 41 36  1  0  0  0  0
M  END
>  <MODEL>
6

>  <REMARK>
 VINA RESULT:      -6.5      2.632      6.740
  Name = 
  15 active torsions:
  status: ('A' for Active; 'I' for Inactive)
    1  A    between atoms: N_3  and  C_16
    2  A    between atoms: N_3  and  O_23
    3  A    between atoms: S_11  and  C_16
    4  A    between atoms: S_11  and  C_34
    5  A    between atoms: C_15  and  O_23
    6  A    between atoms: C_16  and  N_31
    7  A    between atoms: N_17  and  C_21
    8  A    between atoms: C_19  and  C_27
    9  A    between atoms: C_20  and  C_21
   10  A    between atoms: C_20  and  N_35
   11  A    between atoms: C_20  and  C_37
   12  A    between atoms: C_27  and  N_30
   13  A    between atoms: C_28  and  C_34
   14  A    between atoms: N_31  and  C_40
   15  A    between atoms: C_37  and  C_40
                            x       y       z     vdW  Elec       q    Type
                         _______ _______ _______ _____ _____    ______ ____

>  <TORSDO>
F 15

$$$$
=
 OpenBabel11062415173D

 41 44  0  0  1  0  0  0  0  0999 V2000
  184.9740  178.3470  142.1820 C   0  0  1  0  0  3  0  0  0  0  0  0
  184.2460  178.4020  146.1990 N   0  0  0  0  0  2  0  0  0  0  0  0
  183.1620  179.0030  145.4210 C   0  0  0  0  0  2  0  0  0  0  0  0
  185.5040  179.0720  145.8680 C   0  0  0  0  0  2  0  0  0  0  0  0
  184.7320  178.3090  143.6310 N   0  0  0  0  0  0  0  0  0  0  0  0
  185.8200  178.9640  144.3700 C   0  0  0  0  0  2  0  0  0  0  0  0
  183.4610  178.9800  143.9150 C   0  0  0  0  0  2  0  0  0  0  0  0
  183.7380  178.7290  141.3360 C   0  0  0  0  0  2  0  0  0  0  0  0
  183.8160  177.1080  137.4710 C   0  0  0  0  0  0  0  0  0  0  0  0
  183.3940  176.9040  139.7940 N   0  0  0  0  0  0  0  0  0  0  0  0
  183.7700  178.1690  139.9840 N   0  0  0  0  0  0  0  0  0  0  0  0
  184.2020  178.3890  137.6830 N   0  0  0  0  0  2  0  0  0  0  0  0
  182.9410  174.9720  138.4390 N   0  0  0  0  0  2  0  0  0  0  0  0
  184.5400  180.1240  139.0930 O   0  0  0  0  0  0  0  0  0  0  0  0
  183.3960  176.3300  138.5640 C   0  0  0  0  0  0  0  0  0  0  0  0
  183.8290  176.6480  136.2980 O   0  0  0  0  0  0  0  0  0  0  0  0
  184.1810  178.9280  138.9270 C   0  0  0  0  0  0  0  0  0  0  0  0
  184.0140  173.1660  137.2140 C   0  0  0  0  0  1  0  0  0  0  0  0
  182.9010  174.1990  137.2050 C   0  0  1  0  0  3  0  0  0  0  0  0
  180.1900  174.7530  137.0080 S   0  0  0  0  0  0  0  0  0  0  0  0
  180.1020  172.6030  135.3500 O   0  0  0  0  0  1  0  0  0  0  0  0
  181.5560  173.4930  137.0810 C   0  0  1  0  0  3  0  0  0  0  0  0
  180.9340  173.6440  135.7600 C   0  0  2  0  0  0  0  0  0  0  0  0
  181.6660  174.3300  134.7070 N   0  0  0  0  0  1  0  0  0  0  0  0
  186.2440  179.1190  141.8370 C   0  0  0  0  0  2  0  0  0  0  0  0
  187.3690  178.1570  141.4940 C   0  0  0  0  0  2  0  0  0  0  0  0
  187.7800  178.3470  140.1110 N   0  0  0  0  0  2  0  0  0  0  0  0
  189.1230  177.7980  139.9660 C   0  0  2  0  0  3  0  0  0  0  0  0
  189.2000  176.9660  138.7730 N   0  0  0  0  0  2  0  0  0  0  0  0
  190.0420  177.5780  137.9070 O   0  0  0  0  0  0  0  0  0  0  0  0
  192.0740  176.4860  138.1850 N   0  0  0  0  0  1  0  0  0  0  0  0
  190.8450  176.5510  137.4130 C   0  0  0  0  0  2  0  0  0  0  0  0
  189.5960  176.8330  141.4480 S   0  0  0  0  0  0  0  0  0  0  0  0
  191.2890  177.5040  141.6020 C   0  0  0  0  0  2  0  0  0  0  0  0
  190.2730  177.6460  145.5890 C   0  0  1  0  0  3  0  0  0  0  0  0
  191.1550  176.2890  143.8040 C   0  0  0  0  0  2  0  0  0  0  0  0
  191.5280  178.8050  143.7230 C   0  0  0  0  0  2  0  0  0  0  0  0
  188.8740  177.1050  145.8140 C   0  0  0  0  0  1  0  0  0  0  0  0
  191.1910  176.5510  145.2420 N   0  0  0  0  0  2  0  0  0  0  0  0
  190.2390  178.7720  144.5410 C   0  0  0  0  0  2  0  0  0  0  0  0
  191.7890  177.4560  143.0380 C   0  0  2  0  0  3  0  0  0  0  0  0
  1  8  1  6  0  0  0
  1  5  1  0  0  0  0
  3  2  1  0  0  0  0
  4  2  1  0  0  0  0
  5  7  1  0  0  0  0
  5  6  1  0  0  0  0
  6  4  1  0  0  0  0
  7  3  1  0  0  0  0
  9 12  1  0  0  0  0
  9 15  1  0  0  0  0
 10 11  1  0  0  0  0
 11  8  1  0  0  0  0
 12 17  1  0  0  0  0
 13 15  1  0  0  0  0
 15 10  2  0  0  0  0
 16  9  2  0  0  0  0
 17 14  2  0  0  0  0
 17 11  1  0  0  0  0
 19 18  1  1  0  0  0
 19 13  1  0  0  0  0
 20 22  1  0  0  0  0
 21 23  1  0  0  0  0
 22 19  1  6  0  0  0
 23 24  1  6  0  0  0
 23 20  1  0  0  0  0
 23 22  1  0  0  0  0
 25  1  1  0  0  0  0
 26 25  1  0  0  0  0
 27 26  1  0  0  0  0
 28 29  1  6  0  0  0
 28 27  1  0  0  0  0
 28 33  1  0  0  0  0
 30 29  1  0  0  0  0
 32 30  1  0  0  0  0
 32 31  1  0  0  0  0
 33 34  1  0  0  0  0
 35 38  1  6  0  0  0
 36 39  1  0  0  0  0
 37 40  1  0  0  0  0
 39 35  1  0  0  0  0
 40 35  1  0  0  0  0
 41 34  1  6  0  0  0
 41 37  1  0  0  0  0
 41 36  1  0  0  0  0
M  END
>  <MODEL>
7

>  <REMARK>
 VINA RESULT:      -6.5      2.724      5.459
  Name = 
  15 active torsions:
  status: ('A' for Active; 'I' for Inactive)
    1  A    between atoms: N_3  and  C_16
    2  A    between atoms: N_3  and  O_23
    3  A    between atoms: S_11  and  C_16
    4  A    between atoms: S_11  and  C_34
    5  A    between atoms: C_15  and  O_23
    6  A    between atoms: C_16  and  N_31
    7  A    between atoms: N_17  and  C_21
    8  A    between atoms: C_19  and  C_27
    9  A    between atoms: C_20  and  C_21
   10  A    between atoms: C_20  and  N_35
   11  A    between atoms: C_20  and  C_37
   12  A    between atoms: C_27  and  N_30
   13  A    between atoms: C_28  and  C_34
   14  A    between atoms: N_31  and  C_40
   15  A    between atoms: C_37  and  C_40
                            x       y       z     vdW  Elec       q    Type
                         _______ _______ _______ _____ _____    ______ ____

>  <TORSDO>
F 15

$$$$
=
 OpenBabel11062415173D

 41 44  0  0  1  0  0  0  0  0999 V2000
  182.5280  178.2360  140.0210 C   0  0  1  0  0  3  0  0  0  0  0  0
  180.1230  181.0740  138.3380 N   0  0  0  0  0  2  0  0  0  0  0  0
  181.5440  181.3250  138.0970 C   0  0  0  0  0  2  0  0  0  0  0  0
  179.8930  180.9550  139.7780 C   0  0  0  0  0  2  0  0  0  0  0  0
  181.6250  179.2130  139.3950 N   0  0  0  0  0  0  0  0  0  0  0  0
  180.7300  179.8210  140.3880 C   0  0  0  0  0  2  0  0  0  0  0  0
  182.4300  180.2510  138.7460 C   0  0  0  0  0  2  0  0  0  0  0  0
  182.7390  176.9420  139.2020 C   0  0  0  0  0  2  0  0  0  0  0  0
  185.5560  177.3800  136.1290 C   0  0  0  0  0  0  0  0  0  0  0  0
  184.9870  177.3600  138.4290 N   0  0  0  0  0  0  0  0  0  0  0  0
  183.7160  177.0950  138.1240 N   0  0  0  0  0  0  0  0  0  0  0  0
  184.2590  177.1200  135.8360 N   0  0  0  0  0  2  0  0  0  0  0  0
  187.2950  177.7550  137.8900 N   0  0  0  0  0  2  0  0  0  0  0  0
  182.1390  176.7260  136.5160 O   0  0  0  0  0  0  0  0  0  0  0  0
  185.9410  177.5070  137.4750 C   0  0  0  0  0  0  0  0  0  0  0  0
  186.3880  177.4880  135.1900 O   0  0  0  0  0  0  0  0  0  0  0  0
  183.3370  176.9740  136.8190 C   0  0  0  0  0  0  0  0  0  0  0  0
  189.0120  179.3450  137.2310 C   0  0  0  0  0  1  0  0  0  0  0  0
  188.4320  177.9610  137.0010 C   0  0  1  0  0  3  0  0  0  0  0  0
  188.9270  175.2530  136.6620 S   0  0  0  0  0  0  0  0  0  0  0  0
  191.5020  176.0090  136.2370 O   0  0  0  0  0  1  0  0  0  0  0  0
  189.5000  176.9110  137.2790 C   0  0  1  0  0  3  0  0  0  0  0  0
  190.1860  176.4390  136.0690 C   0  0  2  0  0  0  0  0  0  0  0  0
  189.8730  177.0580  134.7910 N   0  0  0  0  0  1  0  0  0  0  0  0
  183.8130  178.8890  140.5220 C   0  0  0  0  0  2  0  0  0  0  0  0
  184.1140  178.4390  141.9420 C   0  0  0  0  0  2  0  0  0  0  0  0
  185.4260  178.9200  142.3470 N   0  0  0  0  0  2  0  0  0  0  0  0
  186.1460  177.8000  142.9430 C   0  0  2  0  0  3  0  0  0  0  0  0
  185.9630  177.7990  144.3880 N   0  0  0  0  0  2  0  0  0  0  0  0
  185.8020  179.0860  144.7760 O   0  0  0  0  0  0  0  0  0  0  0  0
  184.0230  178.6670  146.2100 N   0  0  0  0  0  1  0  0  0  0  0  0
  185.4330  179.0060  146.1180 C   0  0  0  0  0  2  0  0  0  0  0  0
  187.9260  177.8740  142.5250 S   0  0  0  0  0  0  0  0  0  0  0  0
  188.5180  176.9150  143.9650 C   0  0  0  0  0  2  0  0  0  0  0  0
  191.1480  176.8410  147.1310 C   0  0  1  0  0  3  0  0  0  0  0  0
  190.9060  177.0760  144.7450 C   0  0  0  0  0  2  0  0  0  0  0  0
  188.9910  177.8230  146.2450 C   0  0  0  0  0  2  0  0  0  0  0  0
  191.7420  175.4580  147.3130 C   0  0  0  0  0  1  0  0  0  0  0  0
  191.6870  177.4700  145.9170 N   0  0  0  0  0  2  0  0  0  0  0  0
  189.6110  176.7590  147.1470 C   0  0  0  0  0  2  0  0  0  0  0  0
  189.5090  177.7060  144.8050 C   0  0  2  0  0  3  0  0  0  0  0  0
  1  8  1  6  0  0  0
  1 25  1  0  0  0  0
  2  4  1  0  0  0  0
  3  2  1  0  0  0  0
  3  7  1  0  0  0  0
  4  6  1  0  0  0  0
  5  1  1  0  0  0  0
  5  6  1  0  0  0  0
  7  5  1  0  0  0  0
  9 15  1  0  0  0  0
 11 10  1  0  0  0  0
 11  8  1  0  0  0  0
 12  9  1  0  0  0  0
 12 17  1  0  0  0  0
 14 17  2  0  0  0  0
 15 13  1  0  0  0  0
 15 10  2  0  0  0  0
 16  9  2  0  0  0  0
 17 11  1  0  0  0  0
 19 18  1  1  0  0  0
 19 13  1  0  0  0  0
 20 22  1  0  0  0  0
 22 19  1  6  0  0  0
 23 24  1  6  0  0  0
 23 21  1  0  0  0  0
 23 20  1  0  0  0  0
 23 22  1  0  0  0  0
 25 26  1  0  0  0  0
 26 27  1  0  0  0  0
 28 27  1  6  0  0  0
 28 29  1  0  0  0  0
 29 30  1  0  0  0  0
 30 32  1  0  0  0  0
 32 31  1  0  0  0  0
 33 28  1  0  0  0  0
 33 34  1  0  0  0  0
 35 40  1  0  0  0  0
 35 38  1  6  0  0  0
 36 41  1  0  0  0  0
 36 39  1  0  0  0  0
 37 40  1  0  0  0  0
 39 35  1  0  0  0  0
 41 34  1  6  0  0  0
 41 37  1  0  0  0  0
M  END
>  <MODEL>
8

>  <REMARK>
 VINA RESULT:      -6.4      2.682      8.316
  Name = 
  15 active torsions:
  status: ('A' for Active; 'I' for Inactive)
    1  A    between atoms: N_3  and  C_16
    2  A    between atoms: N_3  and  O_23
    3  A    between atoms: S_11  and  C_16
    4  A    between atoms: S_11  and  C_34
    5  A    between atoms: C_15  and  O_23
    6  A    between atoms: C_16  and  N_31
    7  A    between atoms: N_17  and  C_21
    8  A    between atoms: C_19  and  C_27
    9  A    between atoms: C_20  and  C_21
   10  A    between atoms: C_20  and  N_35
   11  A    between atoms: C_20  and  C_37
   12  A    between atoms: C_27  and  N_30
   13  A    between atoms: C_28  and  C_34
   14  A    between atoms: N_31  and  C_40
   15  A    between atoms: C_37  and  C_40
                            x       y       z     vdW  Elec       q    Type
                         _______ _______ _______ _____ _____    ______ ____

>  <TORSDO>
F 15

$$$$
=
 OpenBabel11062415173D

 41 44  0  0  1  0  0  0  0  0999 V2000
  189.1830  178.0500  141.1060 C   0  0  1  0  0  3  0  0  0  0  0  0
  191.7710  176.5490  143.8850 N   0  0  0  0  0  2  0  0  0  0  0  0
  190.6640  175.6370  143.5960 C   0  0  0  0  0  2  0  0  0  0  0  0
  191.2310  177.8460  144.2940 C   0  0  0  0  0  2  0  0  0  0  0  0
  190.1620  177.5290  142.0720 N   0  0  0  0  0  0  0  0  0  0  0  0
  190.3350  178.4500  143.2030 C   0  0  0  0  0  2  0  0  0  0  0  0
  189.6990  176.2250  142.5560 C   0  0  0  0  0  2  0  0  0  0  0  0
  188.6320  176.9940  140.1210 C   0  0  0  0  0  2  0  0  0  0  0  0
  191.0280  176.4970  136.7170 C   0  0  0  0  0  0  0  0  0  0  0  0
  190.4490  175.9270  138.9430 N   0  0  0  0  0  0  0  0  0  0  0  0
  189.4650  176.8280  138.9300 N   0  0  0  0  0  0  0  0  0  0  0  0
  190.0300  177.4130  136.7230 N   0  0  0  0  0  2  0  0  0  0  0  0
  192.2660  174.7060  137.9530 N   0  0  0  0  0  2  0  0  0  0  0  0
  188.3220  178.4400  137.7900 O   0  0  0  0  0  0  0  0  0  0  0  0
  191.2520  175.7210  137.8690 C   0  0  0  0  0  0  0  0  0  0  0  0
  191.7220  176.3510  135.6770 O   0  0  0  0  0  0  0  0  0  0  0  0
  189.2460  177.5850  137.8160 C   0  0  0  0  0  0  0  0  0  0  0  0
  194.5980  174.8920  137.2920 C   0  0  0  0  0  1  0  0  0  0  0  0
  193.2240  174.3730  136.9070 C   0  0  1  0  0  3  0  0  0  0  0  0
  192.1310  172.3430  135.3650 S   0  0  0  0  0  0  0  0  0  0  0  0
  194.5950  171.2090  135.5160 O   0  0  0  0  0  1  0  0  0  0  0  0
  193.2870  172.8610  136.7260 C   0  0  1  0  0  3  0  0  0  0  0  0
  193.9520  172.4460  135.4850 C   0  0  2  0  0  0  0  0  0  0  0  0
  194.5550  173.4590  134.6320 N   0  0  0  0  0  1  0  0  0  0  0  0
  188.1190  178.9070  141.7820 C   0  0  0  0  0  2  0  0  0  0  0  0
  186.7620  178.6680  141.1400 C   0  0  0  0  0  2  0  0  0  0  0  0
  185.7340  179.4000  141.8650 N   0  0  0  0  0  2  0  0  0  0  0  0
  184.8090  178.4250  142.4310 C   0  0  2  0  0  3  0  0  0  0  0  0
  183.8700  177.9740  141.4130 N   0  0  0  0  0  2  0  0  0  0  0  0
  182.6600  178.4990  141.7190 O   0  0  0  0  0  0  0  0  0  0  0  0
  180.4910  178.3260  140.9040 N   0  0  0  0  0  1  0  0  0  0  0  0
  181.9020  178.3360  140.5590 C   0  0  0  0  0  2  0  0  0  0  0  0
  183.9100  179.1340  143.8590 S   0  0  0  0  0  0  0  0  0  0  0  0
  185.3720  179.3620  144.9330 C   0  0  0  0  0  2  0  0  0  0  0  0
  188.0860  177.3340  147.2720 C   0  0  1  0  0  3  0  0  0  0  0  0
  186.0180  178.5710  147.2340 C   0  0  0  0  0  2  0  0  0  0  0  0
  186.6870  177.2500  145.1650 C   0  0  0  0  0  2  0  0  0  0  0  0
  189.0810  178.2890  147.9020 C   0  0  0  0  0  1  0  0  0  0  0  0
  186.7630  177.4980  147.8910 N   0  0  0  0  0  2  0  0  0  0  0  0
  188.0740  177.5210  145.7440 C   0  0  0  0  0  2  0  0  0  0  0  0
  185.6250  178.1490  145.8130 C   0  0  2  0  0  3  0  0  0  0  0  0
  1  8  1  1  0  0  0
  1 25  1  0  0  0  0
  1  5  1  0  0  0  0
  2  4  1  0  0  0  0
  3  2  1  0  0  0  0
  5  7  1  0  0  0  0
  5  6  1  0  0  0  0
  6  4  1  0  0  0  0
  7  3  1  0  0  0  0
  9 12  1  0  0  0  0
  9 15  1  0  0  0  0
 11 10  1  0  0  0  0
 11  8  1  0  0  0  0
 12 17  1  0  0  0  0
 14 17  2  0  0  0  0
 15 13  1  0  0  0  0
 15 10  2  0  0  0  0
 16  9  2  0  0  0  0
 17 11  1  0  0  0  0
 19 18  1  1  0  0  0
 19 13  1  0  0  0  0
 20 23  1  0  0  0  0
 20 22  1  0  0  0  0
 22 19  1  6  0  0  0
 23 24  1  6  0  0  0
 23 21  1  0  0  0  0
 23 22  1  0  0  0  0
 26 25  1  0  0  0  0
 26 27  1  0  0  0  0
 27 28  1  0  0  0  0
 28 29  1  6  0  0  0
 28 33  1  0  0  0  0
 29 30  1  0  0  0  0
 32 31  1  0  0  0  0
 32 30  1  0  0  0  0
 33 34  1  0  0  0  0
 35 39  1  0  0  0  0
 35 38  1  1  0  0  0
 36 39  1  0  0  0  0
 37 40  1  0  0  0  0
 37 41  1  0  0  0  0
 40 35  1  0  0  0  0
 41 34  1  6  0  0  0
 41 36  1  0  0  0  0
M  END
>  <MODEL>
9

>  <REMARK>
 VINA RESULT:      -6.4      3.777      9.460
  Name = 
  15 active torsions:
  status: ('A' for Active; 'I' for Inactive)
    1  A    between atoms: N_3  and  C_16
    2  A    between atoms: N_3  and  O_23
    3  A    between atoms: S_11  and  C_16
    4  A    between atoms: S_11  and  C_34
    5  A    between atoms: C_15  and  O_23
    6  A    between atoms: C_16  and  N_31
    7  A    between atoms: N_17  and  C_21
    8  A    between atoms: C_19  and  C_27
    9  A    between atoms: C_20  and  C_21
   10  A    between atoms: C_20  and  N_35
   11  A    between atoms: C_20  and  C_37
   12  A    between atoms: C_27  and  N_30
   13  A    between atoms: C_28  and  C_34
   14  A    between atoms: N_31  and  C_40
   15  A    between atoms: C_37  and  C_40
                            x       y       z     vdW  Elec       q    Type
                         _______ _______ _______ _____ _____    ______ ____

>  <TORSDO>
F 15

$$$$
