=
 OpenBabel11062412323D

 33 37  0  0  1  0  0  0  0  0999 V2000
  180.9910  178.9900  140.8240 C   0  0  1  0  0  3  0  0  0  0  0  0
  185.5220  178.4290  144.4210 C   0  0  0  0  0  3  0  0  0  0  0  0
  179.4870  176.5370  140.5950 Cl  0  0  0  0  0  0  0  0  0  0  0  0
  180.2750  181.7930  137.7410 O   0  0  0  0  0  0  0  0  0  0  0  0
  185.8380  178.2800  143.0560 C   0  0  0  0  0  3  0  0  0  0  0  0
  183.5260  178.6530  142.5360 C   0  0  0  0  0  3  0  0  0  0  0  0
  186.1020  178.2160  139.9480 N   0  0  0  0  0  0  0  0  0  0  0  0
  180.8900  179.1930  142.9980 N   0  0  1  0  0  0  0  0  0  0  0  0
  183.3540  178.6970  137.5140 C   0  0  0  0  0  2  0  0  0  0  0  0
  179.5180  180.8410  139.9290 C   0  0  0  0  0  2  0  0  0  0  0  0
  183.9210  178.8780  146.1430 F   0  0  0  0  0  0  0  0  0  0  0  0
  185.6600  178.3000  138.6690 C   0  0  0  0  0  0  0  0  0  0  0  0
  181.8960  178.6000  137.9990 C   0  0  0  0  0  2  0  0  0  0  0  0
  183.1830  178.8220  143.8630 C   0  0  0  0  0  0  0  0  0  0  0  0
  181.7630  179.2310  144.1860 C   0  0  0  0  0  2  0  0  0  0  0  0
  178.9310  183.0460  139.1520 N   0  0  0  0  0  2  0  0  0  0  0  0
  184.1980  178.7060  144.8270 C   0  0  0  0  0  0  0  0  0  0  0  0
  180.3740  179.6080  139.5510 C   0  0  1  0  0  3  0  0  0  0  0  0
  184.2930  178.5010  138.6600 C   0  0  0  0  0  0  0  0  0  0  0  0
  180.7890  180.5250  137.3780 C   0  0  0  0  0  2  0  0  0  0  0  0
  181.1880  179.9260  141.8810 O   0  0  0  0  0  0  0  0  0  0  0  0
  183.9060  178.5240  139.8950 O   0  0  0  0  0  0  0  0  0  0  0  0
  179.5500  181.9400  138.9150 C   0  0  0  0  0  0  0  0  0  0  0  0
  184.9590  178.3590  140.6560 C   0  0  0  0  0  0  0  0  0  0  0  0
  180.1760  178.0330  142.7050 N   0  0  0  0  0  2  0  0  0  0  0  0
  181.4180  179.8820  138.5310 N   0  0  2  0  0  0  0  0  0  0  0  0
  184.8120  178.3940  142.1100 C   0  0  0  0  0  0  0  0  0  0  0  0
  180.1540  177.9250  141.4320 C   0  0  1  0  0  3  0  0  0  0  0  0
  186.5530  178.2770  137.4770 C   0  0  0  0  0  2  0  0  0  0  0  0
  187.7070  179.0140  137.7430 O   0  0  0  0  0  0  0  0  0  0  0  0
  188.7080  178.3860  137.0000 C   0  0  0  0  0  2  0  0  0  0  0  0
  189.4850  178.1530  139.2420 O   0  0  0  0  0  1  0  0  0  0  0  0
  189.7000  177.7190  137.9340 C   0  0  0  0  0  2  0  0  0  0  0  0
  1 28  1  0  0  0  0
  1 21  1  1  0  0  0
  2 17  1  0  0  0  0
  4 23  1  0  0  0  0
  5  2  2  0  0  0  0
  6 14  1  0  0  0  0
  7 24  2  0  0  0  0
  8 15  1  6  0  0  0
  9 13  1  0  0  0  0
  9 19  1  0  0  0  0
 12  7  1  0  0  0  0
 13 26  1  0  0  0  0
 14 15  1  0  0  0  0
 14 17  2  0  0  0  0
 17 11  1  0  0  0  0
 18 10  1  1  0  0  0
 18  1  1  0  0  0  0
 19 12  2  0  0  0  0
 19 22  1  0  0  0  0
 20  4  1  0  0  0  0
 21  8  1  0  0  0  0
 22 24  1  0  0  0  0
 23 16  2  0  0  0  0
 23 10  1  0  0  0  0
 24 27  1  0  0  0  0
 25  8  1  0  0  0  0
 26 20  1  6  0  0  0
 26 18  1  0  0  0  0
 27  6  2  0  0  0  0
 27  5  1  0  0  0  0
 28  3  1  1  0  0  0
 28 25  1  0  0  0  0
 29 30  1  0  0  0  0
 29 12  1  0  0  0  0
 31 30  1  0  0  0  0
 31 33  1  0  0  0  0
 33 32  1  0  0  0  0
M  END
>  <MODEL>
1

>  <REMARK>
 VINA RESULT:      -7.0      0.000      0.000
  Name = 
  4 active torsions:
  status: ('A' for Active; 'I' for Inactive)
    1  A    between atoms: C_8  and  C_17
    2  A    between atoms: C_8  and  O_19
    3  A    between atoms: C_14  and  C_33
    4  A    between atoms: O_19  and  C_33
                            x       y       z     vdW  Elec       q    Type
                         _______ _______ _______ _____ _____    ______ ____

>  <TORSDO>
F 4

$$$$
=
 OpenBabel11062412323D

 33 37  0  0  1  0  0  0  0  0999 V2000
  187.2400  177.4720  137.8400 C   0  0  1  0  0  3  0  0  0  0  0  0
  190.7320  177.7900  142.4760 C   0  0  0  0  0  3  0  0  0  0  0  0
  187.4530  179.8160  136.1690 Cl  0  0  0  0  0  0  0  0  0  0  0  0
  183.7750  175.1420  137.1790 O   0  0  0  0  0  0  0  0  0  0  0  0
  189.3980  178.1730  142.7220 C   0  0  0  0  0  3  0  0  0  0  0  0
  188.9010  177.7200  140.4190 C   0  0  0  0  0  3  0  0  0  0  0  0
  186.3330  178.7410  142.8460 N   0  0  0  0  0  0  0  0  0  0  0  0
  189.3560  176.9250  137.8470 N   0  0  1  0  0  0  0  0  0  0  0  0
  183.9430  178.4500  140.0330 C   0  0  0  0  0  2  0  0  0  0  0  0
  186.1100  175.6820  136.4550 C   0  0  0  0  0  2  0  0  0  0  0  0
  192.4120  176.9630  140.9840 F   0  0  0  0  0  0  0  0  0  0  0  0
  185.0720  178.8270  142.3550 C   0  0  0  0  0  0  0  0  0  0  0  0
  184.4850  178.3640  138.5940 C   0  0  0  0  0  2  0  0  0  0  0  0
  190.1940  177.3210  140.1460 C   0  0  0  0  0  0  0  0  0  0  0  0
  190.4940  176.7650  138.7720 C   0  0  0  0  0  2  0  0  0  0  0  0
  185.0110  173.5900  135.9820 N   0  0  0  0  0  2  0  0  0  0  0  0
  191.1310  177.3570  141.1920 C   0  0  0  0  0  0  0  0  0  0  0  0
  185.9050  177.0180  137.2110 C   0  0  1  0  0  3  0  0  0  0  0  0
  185.0750  178.5320  141.0060 C   0  0  0  0  0  0  0  0  0  0  0  0
  183.6020  176.4850  137.5910 C   0  0  0  0  0  2  0  0  0  0  0  0
  188.1270  176.4000  138.1440 O   0  0  0  0  0  0  0  0  0  0  0  0
  186.3030  178.2880  140.6750 O   0  0  0  0  0  0  0  0  0  0  0  0
  184.9330  174.7620  136.5160 C   0  0  0  0  0  0  0  0  0  0  0  0
  187.0450  178.4080  141.7470 C   0  0  0  0  0  0  0  0  0  0  0  0
  189.2740  178.0620  137.0460 N   0  0  0  0  0  2  0  0  0  0  0  0
  184.8210  176.9840  138.2250 N   0  0  2  0  0  0  0  0  0  0  0  0
  188.4800  178.1350  141.6660 C   0  0  0  0  0  0  0  0  0  0  0  0
  188.0360  178.3650  136.9610 C   0  0  1  0  0  3  0  0  0  0  0  0
  183.8700  179.1010  143.1920 C   0  0  0  0  0  2  0  0  0  0  0  0
  184.2550  179.7590  144.3610 O   0  0  0  0  0  0  0  0  0  0  0  0
  183.8530  178.9100  145.3940 C   0  0  0  0  0  2  0  0  0  0  0  0
  185.5080  179.4230  147.0310 O   0  0  0  0  0  1  0  0  0  0  0  0
  185.0670  178.4250  146.1620 C   0  0  0  0  0  2  0  0  0  0  0  0
  1 21  1  6  0  0  0
  2  5  1  0  0  0  0
  4 20  1  0  0  0  0
  6 27  1  0  0  0  0
  8 21  1  0  0  0  0
  8 15  1  1  0  0  0
  9 19  1  0  0  0  0
 10 23  1  0  0  0  0
 11 17  1  0  0  0  0
 12  7  1  0  0  0  0
 12 29  1  0  0  0  0
 13  9  1  0  0  0  0
 14  6  2  0  0  0  0
 14 17  1  0  0  0  0
 15 14  1  0  0  0  0
 16 23  2  0  0  0  0
 17  2  2  0  0  0  0
 18 10  1  1  0  0  0
 18  1  1  0  0  0  0
 18 26  1  0  0  0  0
 19 12  2  0  0  0  0
 22 19  1  0  0  0  0
 22 24  1  0  0  0  0
 23  4  1  0  0  0  0
 24  7  2  0  0  0  0
 25  8  1  0  0  0  0
 26 20  1  6  0  0  0
 26 13  1  0  0  0  0
 27 24  1  0  0  0  0
 27  5  2  0  0  0  0
 28  3  1  1  0  0  0
 28 25  1  0  0  0  0
 28  1  1  0  0  0  0
 29 30  1  0  0  0  0
 30 31  1  0  0  0  0
 31 33  1  0  0  0  0
 33 32  1  0  0  0  0
M  END
>  <MODEL>
2

>  <REMARK>
 VINA RESULT:      -7.0      4.269      7.418
  Name = 
  4 active torsions:
  status: ('A' for Active; 'I' for Inactive)
    1  A    between atoms: C_8  and  C_17
    2  A    between atoms: C_8  and  O_19
    3  A    between atoms: C_14  and  C_33
    4  A    between atoms: O_19  and  C_33
                            x       y       z     vdW  Elec       q    Type
                         _______ _______ _______ _____ _____    ______ ____

>  <TORSDO>
F 4

$$$$
=
 OpenBabel11062412323D

 33 37  0  0  1  0  0  0  0  0999 V2000
  188.0430  177.5240  138.7110 C   0  0  1  0  0  3  0  0  0  0  0  0
  189.1140  177.3100  144.4200 C   0  0  0  0  0  3  0  0  0  0  0  0
  189.0130  179.9700  137.5240 Cl  0  0  0  0  0  0  0  0  0  0  0  0
  185.1980  175.4390  136.3800 O   0  0  0  0  0  0  0  0  0  0  0  0
  187.8160  177.7450  144.0840 C   0  0  0  0  0  3  0  0  0  0  0  0
  188.3880  177.4910  141.7690 C   0  0  0  0  0  3  0  0  0  0  0  0
  185.0240  178.4670  142.8930 N   0  0  0  0  0  0  0  0  0  0  0  0
  189.9260  176.8650  139.6030 N   0  0  1  0  0  0  0  0  0  0  0  0
  184.1310  178.5140  139.3000 C   0  0  0  0  0  2  0  0  0  0  0  0
  187.6190  175.9050  136.8140 C   0  0  0  0  0  2  0  0  0  0  0  0
  191.2690  176.5060  143.7560 F   0  0  0  0  0  0  0  0  0  0  0  0
  184.1150  178.6570  141.9060 C   0  0  0  0  0  0  0  0  0  0  0  0
  185.2540  178.5050  138.2480 C   0  0  0  0  0  2  0  0  0  0  0  0
  189.6610  177.0450  142.0600 C   0  0  0  0  0  0  0  0  0  0  0  0
  190.5320  176.5760  140.9160 C   0  0  0  0  0  2  0  0  0  0  0  0
  186.8130  173.9160  135.7180 N   0  0  0  0  0  2  0  0  0  0  0  0
  190.0350  176.9530  143.4110 C   0  0  0  0  0  0  0  0  0  0  0  0
  187.1200  177.1910  137.5190 C   0  0  1  0  0  3  0  0  0  0  0  0
  184.7130  178.4620  140.6760 C   0  0  0  0  0  0  0  0  0  0  0  0
  184.8800  176.7560  136.7930 C   0  0  0  0  0  2  0  0  0  0  0  0
  188.6860  176.3860  139.2780 O   0  0  0  0  0  0  0  0  0  0  0  0
  185.9560  178.1780  140.9010 O   0  0  0  0  0  0  0  0  0  0  0  0
  186.5240  175.0470  136.2660 C   0  0  0  0  0  0  0  0  0  0  0  0
  186.1460  178.1780  142.1970 C   0  0  0  0  0  0  0  0  0  0  0  0
  190.2270  178.0610  138.9530 N   0  0  0  0  0  2  0  0  0  0  0  0
  185.6980  177.1400  137.9420 N   0  0  2  0  0  0  0  0  0  0  0  0
  187.4630  177.8350  142.7330 C   0  0  0  0  0  0  0  0  0  0  0  0
  189.1610  178.4360  138.3590 C   0  0  1  0  0  3  0  0  0  0  0  0
  182.6710  178.9330  142.1470 C   0  0  0  0  0  2  0  0  0  0  0  0
  182.4150  178.9200  143.5180 O   0  0  0  0  0  0  0  0  0  0  0  0
  181.0230  178.9010  143.6190 C   0  0  0  0  0  2  0  0  0  0  0  0
  179.8940  180.8250  142.7750 O   0  0  0  0  0  1  0  0  0  0  0  0
  180.4110  179.5820  142.4090 C   0  0  0  0  0  2  0  0  0  0  0  0
  1 21  1  6  0  0  0
  4 20  1  0  0  0  0
  5  2  1  0  0  0  0
  6 14  2  0  0  0  0
  6 27  1  0  0  0  0
  8 15  1  1  0  0  0
  9 19  1  0  0  0  0
 12 29  1  0  0  0  0
 12  7  1  0  0  0  0
 13  9  1  0  0  0  0
 14 17  1  0  0  0  0
 15 14  1  0  0  0  0
 16 23  2  0  0  0  0
 17 11  1  0  0  0  0
 17  2  2  0  0  0  0
 18 10  1  1  0  0  0
 18 26  1  0  0  0  0
 18  1  1  0  0  0  0
 19 22  1  0  0  0  0
 19 12  2  0  0  0  0
 21  8  1  0  0  0  0
 22 24  1  0  0  0  0
 23  4  1  0  0  0  0
 23 10  1  0  0  0  0
 24 27  1  0  0  0  0
 24  7  2  0  0  0  0
 25  8  1  0  0  0  0
 26 20  1  6  0  0  0
 26 13  1  0  0  0  0
 27  5  2  0  0  0  0
 28  3  1  1  0  0  0
 28  1  1  0  0  0  0
 28 25  1  0  0  0  0
 29 30  1  0  0  0  0
 30 31  1  0  0  0  0
 33 32  1  0  0  0  0
 33 31  1  0  0  0  0
M  END
>  <MODEL>
3

>  <REMARK>
 VINA RESULT:      -7.0      3.769      7.513
  Name = 
  4 active torsions:
  status: ('A' for Active; 'I' for Inactive)
    1  A    between atoms: C_8  and  C_17
    2  A    between atoms: C_8  and  O_19
    3  A    between atoms: C_14  and  C_33
    4  A    between atoms: O_19  and  C_33
                            x       y       z     vdW  Elec       q    Type
                         _______ _______ _______ _____ _____    ______ ____

>  <TORSDO>
F 4

$$$$
=
 OpenBabel11062412323D

 33 37  0  0  1  0  0  0  0  0999 V2000
  182.2110  178.6520  139.7190 C   0  0  1  0  0  3  0  0  0  0  0  0
  188.0060  178.2580  139.9280 C   0  0  0  0  0  3  0  0  0  0  0  0
  181.3390  181.2920  138.9420 Cl  0  0  0  0  0  0  0  0  0  0  0  0
  179.2390  176.2860  141.5730 O   0  0  0  0  0  0  0  0  0  0  0  0
  187.3920  178.4980  141.1730 C   0  0  0  0  0  3  0  0  0  0  0  0
  185.2650  178.4850  140.0640 C   0  0  0  0  0  3  0  0  0  0  0  0
  185.6070  178.8350  143.7100 N   0  0  0  0  0  0  0  0  0  0  0  0
  183.4970  178.2500  137.9980 N   0  0  1  0  0  0  0  0  0  0  0  0
  181.9070  178.9600  143.7740 C   0  0  0  0  0  2  0  0  0  0  0  0
  180.2300  177.1080  139.4260 C   0  0  0  0  0  2  0  0  0  0  0  0
  187.8380  177.8550  137.5740 F   0  0  0  0  0  0  0  0  0  0  0  0
  184.4420  178.9360  144.3950 C   0  0  0  0  0  0  0  0  0  0  0  0
  181.1420  179.1980  142.4600 C   0  0  0  0  0  2  0  0  0  0  0  0
  185.8310  178.2320  138.8310 C   0  0  0  0  0  0  0  0  0  0  0  0
  184.9070  177.9820  137.6600 C   0  0  0  0  0  2  0  0  0  0  0  0
  178.9310  175.0860  139.6150 N   0  0  0  0  0  2  0  0  0  0  0  0
  187.2290  178.1170  138.7580 C   0  0  0  0  0  0  0  0  0  0  0  0
  180.8310  178.2500  140.2820 C   0  0  1  0  0  3  0  0  0  0  0  0
  183.3790  178.9170  143.5130 C   0  0  0  0  0  0  0  0  0  0  0  0
  179.5990  177.5060  142.1950 C   0  0  0  0  0  2  0  0  0  0  0  0
  182.8840  177.6000  139.0340 O   0  0  0  0  0  0  0  0  0  0  0  0
  183.8770  178.8230  142.3220 O   0  0  0  0  0  0  0  0  0  0  0  0
  179.4240  176.1200  140.2080 C   0  0  0  0  0  0  0  0  0  0  0  0
  185.1810  178.7730  142.4290 C   0  0  0  0  0  0  0  0  0  0  0  0
  182.9630  179.5180  137.7690 N   0  0  0  0  0  2  0  0  0  0  0  0
  180.9150  177.9440  141.7320 N   0  0  2  0  0  0  0  0  0  0  0  0
  185.9980  178.6140  141.2260 C   0  0  0  0  0  0  0  0  0  0  0  0
  182.1480  179.7520  138.7240 C   0  0  1  0  0  3  0  0  0  0  0  0
  184.3510  178.9600  145.8820 C   0  0  0  0  0  2  0  0  0  0  0  0
  185.5800  179.3400  146.4200 O   0  0  0  0  0  0  0  0  0  0  0  0
  186.0660  178.1890  147.0430 C   0  0  0  0  0  2  0  0  0  0  0  0
  187.7000  177.0820  145.7050 O   0  0  0  0  0  1  0  0  0  0  0  0
  187.5390  178.0170  146.7280 C   0  0  0  0  0  2  0  0  0  0  0  0
  1 21  1  6  0  0  0
  1 18  1  0  0  0  0
  2  5  1  0  0  0  0
  4 20  1  0  0  0  0
  5 27  2  0  0  0  0
  6 27  1  0  0  0  0
  7 12  1  0  0  0  0
  8 15  1  1  0  0  0
  8 21  1  0  0  0  0
 10 23  1  0  0  0  0
 11 17  1  0  0  0  0
 12 29  1  0  0  0  0
 13  9  1  0  0  0  0
 14  6  2  0  0  0  0
 15 14  1  0  0  0  0
 16 23  2  0  0  0  0
 17 14  1  0  0  0  0
 17  2  2  0  0  0  0
 18 10  1  6  0  0  0
 18 26  1  0  0  0  0
 19  9  1  0  0  0  0
 19 12  2  0  0  0  0
 22 24  1  0  0  0  0
 22 19  1  0  0  0  0
 23  4  1  0  0  0  0
 24  7  2  0  0  0  0
 25  8  1  0  0  0  0
 25 28  1  0  0  0  0
 26 20  1  1  0  0  0
 26 13  1  0  0  0  0
 27 24  1  0  0  0  0
 28  3  1  1  0  0  0
 28  1  1  0  0  0  0
 29 30  1  0  0  0  0
 30 31  1  0  0  0  0
 32 33  1  0  0  0  0
 33 31  1  0  0  0  0
M  END
>  <MODEL>
4

>  <REMARK>
 VINA RESULT:      -6.9      3.184      5.889
  Name = 
  4 active torsions:
  status: ('A' for Active; 'I' for Inactive)
    1  A    between atoms: C_8  and  C_17
    2  A    between atoms: C_8  and  O_19
    3  A    between atoms: C_14  and  C_33
    4  A    between atoms: O_19  and  C_33
                            x       y       z     vdW  Elec       q    Type
                         _______ _______ _______ _____ _____    ______ ____

>  <TORSDO>
F 4

$$$$
=
 OpenBabel11062412323D

 33 37  0  0  1  0  0  0  0  0999 V2000
  181.9540  177.6090  137.7890 C   0  0  1  0  0  3  0  0  0  0  0  0
  187.7130  177.8300  137.0410 C   0  0  0  0  0  3  0  0  0  0  0  0
  180.6370  179.9360  136.7020 Cl  0  0  0  0  0  0  0  0  0  0  0  0
  179.6350  175.3960  140.5460 O   0  0  0  0  0  0  0  0  0  0  0  0
  187.2720  178.2590  138.3090 C   0  0  0  0  0  3  0  0  0  0  0  0
  185.0200  177.8130  137.6150 C   0  0  0  0  0  3  0  0  0  0  0  0
  185.8710  178.9340  141.0130 N   0  0  0  0  0  0  0  0  0  0  0  0
  183.0000  176.9900  135.9730 N   0  0  1  0  0  0  0  0  0  0  0  0
  182.2400  178.7100  141.7060 C   0  0  0  0  0  2  0  0  0  0  0  0
  180.1680  175.8530  138.1430 C   0  0  0  0  0  2  0  0  0  0  0  0
  187.2380  176.9380  134.8710 F   0  0  0  0  0  0  0  0  0  0  0  0
  184.8220  179.0600  141.8630 C   0  0  0  0  0  0  0  0  0  0  0  0
  181.2570  178.5990  140.5260 C   0  0  0  0  0  2  0  0  0  0  0  0
  185.4170  177.3690  136.3700 C   0  0  0  0  0  0  0  0  0  0  0  0
  184.3650  176.7960  135.4480 C   0  0  0  0  0  2  0  0  0  0  0  0
  179.1870  173.7970  138.9310 N   0  0  0  0  0  2  0  0  0  0  0  0
  186.7900  177.3780  136.0730 C   0  0  0  0  0  0  0  0  0  0  0  0
  180.7410  177.1990  138.6520 C   0  0  1  0  0  3  0  0  0  0  0  0
  183.6470  178.7580  141.2010 C   0  0  0  0  0  0  0  0  0  0  0  0
  179.9250  176.7470  140.8570 C   0  0  0  0  0  2  0  0  0  0  0  0
  182.6430  176.5090  137.2040 O   0  0  0  0  0  0  0  0  0  0  0  0
  183.9640  178.4710  139.9800 O   0  0  0  0  0  0  0  0  0  0  0  0
  179.6270  174.9730  139.2250 C   0  0  0  0  0  0  0  0  0  0  0  0
  185.2640  178.5700  139.8610 C   0  0  0  0  0  0  0  0  0  0  0  0
  182.2780  178.1260  135.6110 N   0  0  0  0  0  2  0  0  0  0  0  0
  181.0860  177.2060  140.0960 N   0  0  2  0  0  0  0  0  0  0  0  0
  185.9000  178.2480  138.5840 C   0  0  0  0  0  0  0  0  0  0  0  0
  181.5950  178.4710  136.6340 C   0  0  1  0  0  3  0  0  0  0  0  0
  184.9580  179.3790  143.3120 C   0  0  0  0  0  2  0  0  0  0  0  0
  184.9290  178.1990  144.0550 O   0  0  0  0  0  0  0  0  0  0  0  0
  186.0860  178.2420  144.8340 C   0  0  0  0  0  2  0  0  0  0  0  0
  184.4980  178.6260  146.5700 O   0  0  0  0  0  1  0  0  0  0  0  0
  185.7930  178.9330  146.1520 C   0  0  0  0  0  2  0  0  0  0  0  0
  1 21  1  6  0  0  0
  1 18  1  0  0  0  0
  2  5  1  0  0  0  0
  4 20  1  0  0  0  0
  5 27  2  0  0  0  0
  6 27  1  0  0  0  0
  7 12  1  0  0  0  0
  8 15  1  1  0  0  0
  8 21  1  0  0  0  0
 10 23  1  0  0  0  0
 11 17  1  0  0  0  0
 12 29  1  0  0  0  0
 13  9  1  0  0  0  0
 14  6  2  0  0  0  0
 15 14  1  0  0  0  0
 16 23  2  0  0  0  0
 17 14  1  0  0  0  0
 17  2  2  0  0  0  0
 18 10  1  6  0  0  0
 18 26  1  0  0  0  0
 19  9  1  0  0  0  0
 19 12  2  0  0  0  0
 22 19  1  0  0  0  0
 23  4  1  0  0  0  0
 24 22  1  0  0  0  0
 24  7  2  0  0  0  0
 25  8  1  0  0  0  0
 25 28  1  0  0  0  0
 26 13  1  1  0  0  0
 26 20  1  0  0  0  0
 27 24  1  0  0  0  0
 28  3  1  1  0  0  0
 28  1  1  0  0  0  0
 29 30  1  0  0  0  0
 30 31  1  0  0  0  0
 31 33  1  0  0  0  0
 33 32  1  0  0  0  0
M  END
>  <MODEL>
5

>  <REMARK>
 VINA RESULT:      -6.5      3.497      6.368
  Name = 
  4 active torsions:
  status: ('A' for Active; 'I' for Inactive)
    1  A    between atoms: C_8  and  C_17
    2  A    between atoms: C_8  and  O_19
    3  A    between atoms: C_14  and  C_33
    4  A    between atoms: O_19  and  C_33
                            x       y       z     vdW  Elec       q    Type
                         _______ _______ _______ _____ _____    ______ ____

>  <TORSDO>
F 4

$$$$
=
 OpenBabel11062412323D

 33 37  0  0  1  0  0  0  0  0999 V2000
  188.0370  177.4340  138.7630 C   0  0  1  0  0  3  0  0  0  0  0  0
  187.9250  177.7890  144.5630 C   0  0  0  0  0  3  0  0  0  0  0  0
  189.1200  179.8230  137.5580 Cl  0  0  0  0  0  0  0  0  0  0  0  0
  185.8230  174.9770  136.1280 O   0  0  0  0  0  0  0  0  0  0  0  0
  186.7060  178.1100  143.9350 C   0  0  0  0  0  3  0  0  0  0  0  0
  187.7500  177.6910  141.8160 C   0  0  0  0  0  3  0  0  0  0  0  0
  184.1880  178.5470  142.1450 N   0  0  0  0  0  0  0  0  0  0  0  0
  189.7250  176.9750  140.0730 N   0  0  1  0  0  0  0  0  0  0  0  0
  184.0470  178.2210  138.4590 C   0  0  0  0  0  2  0  0  0  0  0  0
  188.0820  175.6320  136.9890 C   0  0  0  0  0  2  0  0  0  0  0  0
  190.2040  177.0680  144.4250 F   0  0  0  0  0  0  0  0  0  0  0  0
  183.4920  178.5910  140.9830 C   0  0  0  0  0  0  0  0  0  0  0  0
  185.3610  178.1920  137.6580 C   0  0  0  0  0  2  0  0  0  0  0  0
  188.9550  177.3530  142.3980 C   0  0  0  0  0  0  0  0  0  0  0  0
  190.0610  176.8420  141.5030 C   0  0  0  0  0  2  0  0  0  0  0  0
  187.6060  173.5060  135.9550 N   0  0  0  0  0  2  0  0  0  0  0  0
  189.0490  177.4030  143.7990 C   0  0  0  0  0  0  0  0  0  0  0  0
  187.3930  176.9400  137.4490 C   0  0  1  0  0  3  0  0  0  0  0  0
  184.3370  178.3280  139.9220 C   0  0  0  0  0  0  0  0  0  0  0  0
  185.3700  176.3020  136.3380 C   0  0  0  0  0  2  0  0  0  0  0  0
  188.5990  176.3930  139.5560 O   0  0  0  0  0  0  0  0  0  0  0  0
  185.5190  178.1430  140.4170 O   0  0  0  0  0  0  0  0  0  0  0  0
  187.1610  174.6610  136.3200 C   0  0  0  0  0  0  0  0  0  0  0  0
  185.4400  178.2690  141.7180 C   0  0  0  0  0  0  0  0  0  0  0  0
  190.0990  178.1270  139.3820 N   0  0  0  0  0  2  0  0  0  0  0  0
  185.9180  176.8360  137.5840 N   0  0  2  0  0  0  0  0  0  0  0  0
  186.6330  178.0580  142.5380 C   0  0  0  0  0  0  0  0  0  0  0  0
  189.1610  178.3800  138.5520 C   0  0  1  0  0  3  0  0  0  0  0  0
  182.0180  178.7950  140.9020 C   0  0  0  0  0  2  0  0  0  0  0  0
  181.7360  179.8190  139.9990 O   0  0  0  0  0  0  0  0  0  0  0  0
  180.3740  180.0740  140.1660 C   0  0  0  0  0  2  0  0  0  0  0  0
  179.5670  181.1320  142.1440 O   0  0  0  0  0  1  0  0  0  0  0  0
  179.9950  179.9100  141.6260 C   0  0  0  0  0  2  0  0  0  0  0  0
  1 21  1  6  0  0  0
  4 23  1  0  0  0  0
  4 20  1  0  0  0  0
  5  2  1  0  0  0  0
  6 14  2  0  0  0  0
  6 27  1  0  0  0  0
  8 15  1  1  0  0  0
  9 19  1  0  0  0  0
 12  7  1  0  0  0  0
 13  9  1  0  0  0  0
 14 17  1  0  0  0  0
 15 14  1  0  0  0  0
 16 23  2  0  0  0  0
 17 11  1  0  0  0  0
 17  2  2  0  0  0  0
 18 10  1  1  0  0  0
 18 26  1  0  0  0  0
 18  1  1  0  0  0  0
 19 22  1  0  0  0  0
 19 12  2  0  0  0  0
 21  8  1  0  0  0  0
 22 24  1  0  0  0  0
 23 10  1  0  0  0  0
 24  7  2  0  0  0  0
 24 27  1  0  0  0  0
 25  8  1  0  0  0  0
 26 20  1  6  0  0  0
 26 13  1  0  0  0  0
 27  5  2  0  0  0  0
 28  3  1  1  0  0  0
 28  1  1  0  0  0  0
 28 25  1  0  0  0  0
 29 12  1  0  0  0  0
 30 31  1  0  0  0  0
 30 29  1  0  0  0  0
 31 33  1  0  0  0  0
 33 32  1  0  0  0  0
M  END
>  <MODEL>
6

>  <REMARK>
 VINA RESULT:      -6.3      3.392      7.369
  Name = 
  4 active torsions:
  status: ('A' for Active; 'I' for Inactive)
    1  A    between atoms: C_8  and  C_17
    2  A    between atoms: C_8  and  O_19
    3  A    between atoms: C_14  and  C_33
    4  A    between atoms: O_19  and  C_33
                            x       y       z     vdW  Elec       q    Type
                         _______ _______ _______ _____ _____    ______ ____

>  <TORSDO>
F 4

$$$$
=
 OpenBabel11062412323D

 33 37  0  0  1  0  0  0  0  0999 V2000
  188.3660  176.2530  136.8250 C   0  0  1  0  0  3  0  0  0  0  0  0
  189.8010  178.2810  142.0800 C   0  0  0  0  0  3  0  0  0  0  0  0
  189.3640  177.9430  134.7090 Cl  0  0  0  0  0  0  0  0  0  0  0  0
  185.2810  173.6060  135.6620 O   0  0  0  0  0  0  0  0  0  0  0  0
  188.5040  178.6310  141.6520 C   0  0  0  0  0  3  0  0  0  0  0  0
  188.9100  177.4290  139.6160 C   0  0  0  0  0  3  0  0  0  0  0  0
  185.6750  179.0010  140.3890 N   0  0  0  0  0  0  0  0  0  0  0  0
  190.2720  175.8820  137.8270 N   0  0  1  0  0  0  0  0  0  0  0  0
  184.5490  177.6590  137.1280 C   0  0  0  0  0  2  0  0  0  0  0  0
  187.7450  174.0410  135.7670 C   0  0  0  0  0  2  0  0  0  0  0  0
  191.8680  177.1330  141.7090 F   0  0  0  0  0  0  0  0  0  0  0  0
  184.7120  178.8390  139.4500 C   0  0  0  0  0  0  0  0  0  0  0  0
  185.5990  177.1520  136.1230 C   0  0  0  0  0  2  0  0  0  0  0  0
  190.1780  177.0520  140.0100 C   0  0  0  0  0  0  0  0  0  0  0  0
  190.9490  176.1060  139.1180 C   0  0  0  0  0  2  0  0  0  0  0  0
  186.7790  171.8380  135.6070 N   0  0  0  0  0  2  0  0  0  0  0  0
  190.6360  177.4860  141.2650 C   0  0  0  0  0  0  0  0  0  0  0  0
  187.3520  175.5320  135.9110 C   0  0  1  0  0  3  0  0  0  0  0  0
  185.2190  178.1260  138.3800 C   0  0  0  0  0  0  0  0  0  0  0  0
  185.0520  174.9950  135.5190 C   0  0  0  0  0  2  0  0  0  0  0  0
  188.9920  175.3980  137.7770 O   0  0  0  0  0  0  0  0  0  0  0  0
  186.4590  177.8720  138.6490 O   0  0  0  0  0  0  0  0  0  0  0  0
  186.5780  173.1110  135.6600 C   0  0  0  0  0  0  0  0  0  0  0  0
  186.7350  178.3800  139.8240 C   0  0  0  0  0  0  0  0  0  0  0  0
  190.5830  176.6930  136.7370 N   0  0  0  0  0  2  0  0  0  0  0  0
  185.9600  175.7530  136.3780 N   0  0  2  0  0  0  0  0  0  0  0  0
  188.0670  178.1940  140.3970 C   0  0  0  0  0  0  0  0  0  0  0  0
  189.4970  176.8680  136.0870 C   0  0  1  0  0  3  0  0  0  0  0  0
  183.3010  179.2860  139.6190 C   0  0  0  0  0  2  0  0  0  0  0  0
  182.8600  178.9650  140.9030 O   0  0  0  0  0  0  0  0  0  0  0  0
  181.4930  178.7210  140.7580 C   0  0  0  0  0  2  0  0  0  0  0  0
  180.1900  180.5070  141.6500 O   0  0  0  0  0  1  0  0  0  0  0  0
  180.7440  179.2650  141.9600 C   0  0  0  0  0  2  0  0  0  0  0  0
  1 21  1  1  0  0  0
  5  2  1  0  0  0  0
  6 14  2  0  0  0  0
  6 27  1  0  0  0  0
  8 15  1  1  0  0  0
  9 19  1  0  0  0  0
 12 29  1  0  0  0  0
 12  7  1  0  0  0  0
 13 26  1  0  0  0  0
 13  9  1  0  0  0  0
 14 17  1  0  0  0  0
 15 14  1  0  0  0  0
 16 23  2  0  0  0  0
 17 11  1  0  0  0  0
 17  2  2  0  0  0  0
 18 10  1  1  0  0  0
 18 26  1  0  0  0  0
 18  1  1  0  0  0  0
 19 22  1  0  0  0  0
 19 12  2  0  0  0  0
 20  4  1  0  0  0  0
 21  8  1  0  0  0  0
 22 24  1  0  0  0  0
 23  4  1  0  0  0  0
 23 10  1  0  0  0  0
 24  7  2  0  0  0  0
 24 27  1  0  0  0  0
 25  8  1  0  0  0  0
 26 20  1  6  0  0  0
 27  5  2  0  0  0  0
 28  3  1  1  0  0  0
 28 25  1  0  0  0  0
 28  1  1  0  0  0  0
 29 30  1  0  0  0  0
 31 30  1  0  0  0  0
 31 33  1  0  0  0  0
 32 33  1  0  0  0  0
M  END
>  <MODEL>
7

>  <REMARK>
 VINA RESULT:      -6.0      4.190      8.168
  Name = 
  4 active torsions:
  status: ('A' for Active; 'I' for Inactive)
    1  A    between atoms: C_8  and  C_17
    2  A    between atoms: C_8  and  O_19
    3  A    between atoms: C_14  and  C_33
    4  A    between atoms: O_19  and  C_33
                            x       y       z     vdW  Elec       q    Type
                         _______ _______ _______ _____ _____    ______ ____

>  <TORSDO>
F 4

$$$$
=
 OpenBabel11062412323D

 33 37  0  0  1  0  0  0  0  0999 V2000
  181.9240  177.7490  139.5170 C   0  0  1  0  0  3  0  0  0  0  0  0
  181.3820  172.6360  136.8060 C   0  0  0  0  0  3  0  0  0  0  0  0
  180.6430  179.8840  138.0560 Cl  0  0  0  0  0  0  0  0  0  0  0  0
  184.7260  179.0280  142.4140 O   0  0  0  0  0  0  0  0  0  0  0  0
  182.6020  173.2990  136.5660 C   0  0  0  0  0  3  0  0  0  0  0  0
  181.8530  175.0790  137.9880 C   0  0  0  0  0  3  0  0  0  0  0  0
  185.2040  175.0180  136.4720 N   0  0  0  0  0  0  0  0  0  0  0  0
  180.1920  176.4270  139.6830 N   0  0  1  0  0  0  0  0  0  0  0  0
  185.7710  178.2170  138.2470 C   0  0  0  0  0  2  0  0  0  0  0  0
  182.3200  178.6010  141.8650 C   0  0  0  0  0  2  0  0  0  0  0  0
  179.2560  172.5370  137.9020 F   0  0  0  0  0  0  0  0  0  0  0  0
  186.0030  176.0660  136.7870 C   0  0  0  0  0  0  0  0  0  0  0  0
  184.5650  178.9770  138.8280 C   0  0  0  0  0  2  0  0  0  0  0  0
  180.6550  174.4520  138.2610 C   0  0  0  0  0  0  0  0  0  0  0  0
  179.7310  175.0870  139.2750 C   0  0  0  0  0  2  0  0  0  0  0  0
  183.1990  178.6270  144.1100 N   0  0  0  0  0  2  0  0  0  0  0  0
  180.4100  173.2060  137.6580 C   0  0  0  0  0  0  0  0  0  0  0  0
  182.7650  178.7100  140.3860 C   0  0  1  0  0  3  0  0  0  0  0  0
  185.3180  176.9460  137.6030 C   0  0  0  0  0  0  0  0  0  0  0  0
  184.9610  179.3790  141.0630 C   0  0  0  0  0  2  0  0  0  0  0  0
  181.4360  176.6120  140.2220 O   0  0  0  0  0  0  0  0  0  0  0  0
  184.1300  176.4600  137.7690 O   0  0  0  0  0  0  0  0  0  0  0  0
  183.4340  178.7670  142.8490 C   0  0  0  0  0  0  0  0  0  0  0  0
  184.0550  175.3310  137.1110 C   0  0  0  0  0  0  0  0  0  0  0  0
  179.7310  177.5510  138.9980 N   0  0  0  0  0  2  0  0  0  0  0  0
  184.2170  178.4930  140.1690 N   0  0  2  0  0  0  0  0  0  0  0  0
  182.8260  174.5410  137.1700 C   0  0  0  0  0  0  0  0  0  0  0  0
  180.7040  178.3770  138.9490 C   0  0  1  0  0  3  0  0  0  0  0  0
  187.4330  176.1730  136.3830 C   0  0  0  0  0  2  0  0  0  0  0  0
  188.2490  175.9900  137.4990 O   0  0  0  0  0  0  0  0  0  0  0  0
  189.1970  177.0110  137.4170 C   0  0  0  0  0  2  0  0  0  0  0  0
  189.0560  179.0040  138.7190 O   0  0  0  0  0  1  0  0  0  0  0  0
  189.3840  177.6490  138.7800 C   0  0  0  0  0  2  0  0  0  0  0  0
  1 21  1  1  0  0  0
  1 18  1  0  0  0  0
  2 17  1  0  0  0  0
  4 23  1  0  0  0  0
  5  2  2  0  0  0  0
  5 27  1  0  0  0  0
  6 14  1  0  0  0  0
  7 12  1  0  0  0  0
  7 24  2  0  0  0  0
  8 15  1  6  0  0  0
  8 21  1  0  0  0  0
  9 13  1  0  0  0  0
 10 23  1  0  0  0  0
 12 19  2  0  0  0  0
 14 15  1  0  0  0  0
 17 11  1  0  0  0  0
 17 14  2  0  0  0  0
 18 10  1  1  0  0  0
 19 22  1  0  0  0  0
 19  9  1  0  0  0  0
 20  4  1  0  0  0  0
 23 16  2  0  0  0  0
 24 27  1  0  0  0  0
 24 22  1  0  0  0  0
 25  8  1  0  0  0  0
 26 13  1  6  0  0  0
 26 18  1  0  0  0  0
 26 20  1  0  0  0  0
 27  6  2  0  0  0  0
 28  3  1  6  0  0  0
 28 25  1  0  0  0  0
 28  1  1  0  0  0  0
 29 12  1  0  0  0  0
 29 30  1  0  0  0  0
 31 30  1  0  0  0  0
 31 33  1  0  0  0  0
 32 33  1  0  0  0  0
M  END
>  <MODEL>
8

>  <REMARK>
 VINA RESULT:      -5.9      3.657      5.488
  Name = 
  4 active torsions:
  status: ('A' for Active; 'I' for Inactive)
    1  A    between atoms: C_8  and  C_17
    2  A    between atoms: C_8  and  O_19
    3  A    between atoms: C_14  and  C_33
    4  A    between atoms: O_19  and  C_33
                            x       y       z     vdW  Elec       q    Type
                         _______ _______ _______ _____ _____    ______ ____

>  <TORSDO>
F 4

$$$$
=
 OpenBabel11062412323D

 33 37  0  0  1  0  0  0  0  0999 V2000
  189.1290  176.8850  138.3110 C   0  0  1  0  0  3  0  0  0  0  0  0
  188.5730  172.3110  134.7680 C   0  0  0  0  0  3  0  0  0  0  0  0
  189.1440  179.3780  136.8570 Cl  0  0  0  0  0  0  0  0  0  0  0  0
  190.6540  177.1280  142.2470 O   0  0  0  0  0  0  0  0  0  0  0  0
  189.9000  172.6020  135.1430 C   0  0  0  0  0  3  0  0  0  0  0  0
  189.0720  174.4410  136.4420 C   0  0  0  0  0  3  0  0  0  0  0  0
  192.6250  173.4930  136.3730 N   0  0  0  0  0  0  0  0  0  0  0  0
  187.2270  176.1170  137.5550 N   0  0  1  0  0  0  0  0  0  0  0  0
  193.1380  176.2840  138.7500 C   0  0  0  0  0  2  0  0  0  0  0  0
  188.6840  177.4510  140.7360 C   0  0  0  0  0  2  0  0  0  0  0  0
  186.2280  172.7730  134.9090 F   0  0  0  0  0  0  0  0  0  0  0  0
  193.4420  174.2440  137.1510 C   0  0  0  0  0  0  0  0  0  0  0  0
  192.0220  177.3280  138.9340 C   0  0  0  0  0  2  0  0  0  0  0  0
  187.7590  174.1750  136.1110 C   0  0  0  0  0  0  0  0  0  0  0  0
  186.6750  174.9930  136.7760 C   0  0  0  0  0  2  0  0  0  0  0  0
  188.5040  177.0950  143.1130 N   0  0  0  0  0  2  0  0  0  0  0  0
  187.5010  173.0900  135.2560 C   0  0  0  0  0  0  0  0  0  0  0  0
  189.7250  177.5090  139.5910 C   0  0  1  0  0  3  0  0  0  0  0  0
  192.7100  175.2380  137.7720 C   0  0  0  0  0  0  0  0  0  0  0  0
  191.5170  177.4710  141.1790 C   0  0  0  0  0  2  0  0  0  0  0  0
  188.1290  175.9010  138.5620 O   0  0  0  0  0  0  0  0  0  0  0  0
  191.4850  175.1100  137.3740 O   0  0  0  0  0  0  0  0  0  0  0  0
  189.2780  177.2310  142.0900 C   0  0  0  0  0  0  0  0  0  0  0  0
  191.4270  174.0900  136.5550 C   0  0  0  0  0  0  0  0  0  0  0  0
  187.3870  177.3620  136.9500 N   0  0  0  0  0  2  0  0  0  0  0  0
  191.0330  176.8920  139.9270 N   0  0  2  0  0  0  0  0  0  0  0  0
  190.1380  173.6890  135.9910 C   0  0  0  0  0  0  0  0  0  0  0  0
  188.4560  177.8710  137.4290 C   0  0  1  0  0  3  0  0  0  0  0  0
  194.8870  173.9530  137.3650 C   0  0  0  0  0  2  0  0  0  0  0  0
  195.0760  173.4390  138.6470 O   0  0  0  0  0  0  0  0  0  0  0  0
  196.1280  174.1880  139.1780 C   0  0  0  0  0  2  0  0  0  0  0  0
  198.0450  175.4250  138.4860 O   0  0  0  0  0  1  0  0  0  0  0  0
  197.2130  174.3630  138.1320 C   0  0  0  0  0  2  0  0  0  0  0  0
  1 21  1  1  0  0  0
  1 18  1  0  0  0  0
  2  5  2  0  0  0  0
  2 17  1  0  0  0  0
  5 27  1  0  0  0  0
  7 24  2  0  0  0  0
  7 12  1  0  0  0  0
  8 15  1  6  0  0  0
  8 21  1  0  0  0  0
  9 13  1  0  0  0  0
 10 23  1  0  0  0  0
 11 17  1  0  0  0  0
 12 29  1  0  0  0  0
 12 19  2  0  0  0  0
 14  6  1  0  0  0  0
 14 15  1  0  0  0  0
 17 14  2  0  0  0  0
 18 26  1  0  0  0  0
 18 10  1  1  0  0  0
 19  9  1  0  0  0  0
 20  4  1  0  0  0  0
 22 19  1  0  0  0  0
 23  4  1  0  0  0  0
 23 16  2  0  0  0  0
 24 22  1  0  0  0  0
 25 28  1  0  0  0  0
 25  8  1  0  0  0  0
 26 13  1  6  0  0  0
 26 20  1  0  0  0  0
 27  6  2  0  0  0  0
 27 24  1  0  0  0  0
 28  3  1  6  0  0  0
 28  1  1  0  0  0  0
 29 30  1  0  0  0  0
 30 31  1  0  0  0  0
 33 32  1  0  0  0  0
 33 31  1  0  0  0  0
M  END
>  <MODEL>
9

>  <REMARK>
 VINA RESULT:      -5.8      6.954      9.992
  Name = 
  4 active torsions:
  status: ('A' for Active; 'I' for Inactive)
    1  A    between atoms: C_8  and  C_17
    2  A    between atoms: C_8  and  O_19
    3  A    between atoms: C_14  and  C_33
    4  A    between atoms: O_19  and  C_33
                            x       y       z     vdW  Elec       q    Type
                         _______ _______ _______ _____ _____    ______ ____

>  <TORSDO>
F 4

$$$$
