=
 OpenBabel11062415543D

 41 44  0  0  1  0  0  0  0  0999 V2000
  188.0140  177.8290  145.1900 C   0  0  1  0  0  3  0  0  0  0  0  0
  190.7280  177.2910  140.6850 C   0  0  0  0  0  2  0  0  0  0  0  0
  186.7950  178.3040  139.4680 C   0  0  0  0  0  2  0  0  0  0  0  0
  189.3270  177.1880  145.5170 C   0  0  0  0  0  3  0  0  0  0  0  0
  189.8820  177.0840  143.1120 C   0  0  0  0  0  0  0  0  0  0  0  0
  188.3410  177.7360  141.3080 C   0  0  0  0  0  0  0  0  0  0  0  0
  188.6070  177.2690  142.6930 C   0  0  0  0  0  0  0  0  0  0  0  0
  187.8550  177.7750  138.5160 C   0  0  2  0  0  3  0  0  0  0  0  0
  187.0870  177.8070  140.8470 C   0  0  0  0  0  3  0  0  0  0  0  0
  192.1970  177.1570  142.5540 O   0  0  0  0  0  0  0  0  0  0  0  0
  191.0040  177.1850  142.1520 C   0  0  0  0  0  0  0  0  0  0  0  0
  187.2260  176.9400  143.8160 S   0  0  0  0  0  0  0  0  0  0  0  0
  190.1880  176.8670  144.5460 C   0  0  0  0  0  3  0  0  0  0  0  0
  189.2360  178.2910  138.9350 C   0  0  0  0  0  2  0  0  0  0  0  0
  189.5150  178.1760  140.4450 C   0  0  2  0  0  3  0  0  0  0  0  0
  187.1360  177.8850  146.3580 N   0  0  0  0  0  0  0  0  0  0  0  0
  185.8500  178.5200  146.2520 C   0  0  0  0  0  0  0  0  0  0  0  0
  185.0770  178.5590  147.2460 O   0  0  0  0  0  0  0  0  0  0  0  0
  187.6480  177.1760  147.9030 S   0  0  0  0  0  0  0  0  0  0  0  0
  188.5460  178.6710  148.4070 C   0  0  0  0  0  1  0  0  0  0  0  0
  185.3940  179.1150  144.9600 C   0  0  0  0  0  2  0  0  0  0  0  0
  183.8760  179.1150  144.9040 C   0  0  0  0  0  2  0  0  0  0  0  0
  183.3850  178.6770  143.5360 C   0  0  2  0  0  3  0  0  0  0  0  0
  184.3340  179.0440  142.5800 O   0  0  0  0  0  1  0  0  0  0  0  0
  182.0480  179.3490  143.2150 C   0  0  1  0  0  3  0  0  0  0  0  0
  180.4440  178.2960  142.5140 C   0  0  0  0  0  2  0  0  0  0  0  0
  181.5750  178.9700  141.8880 N   0  0  0  0  0  2  0  0  0  0  0  0
  180.9040  178.6430  143.9070 C   0  0  0  0  0  2  0  0  0  0  0  0
  186.1230  177.8320  136.4630 O   0  0  0  0  0  0  0  0  0  0  0  0
  187.4990  178.2950  136.8500 S   0  0  0  0  0  0  0  0  0  0  0  0
  187.5580  179.7930  136.7810 O   0  0  0  0  0  0  0  0  0  0  0  0
  188.6670  177.6130  135.7620 N   0  0  0  0  0  2  0  0  0  0  0  0
  188.8380  176.2040  136.1010 C   0  0  2  0  0  3  0  0  0  0  0  0
  190.9990  175.8470  135.1320 O   0  0  0  0  0  0  0  0  0  0  0  0
  190.2870  175.8350  136.1720 C   0  0  0  0  0  0  0  0  0  0  0  0
  190.8480  175.4580  137.4290 N   0  0  0  0  0  2  0  0  0  0  0  0
  192.2640  175.1800  137.6050 C   0  0  0  0  0  2  0  0  0  0  0  0
  193.0130  176.4550  137.9510 C   0  0  0  0  0  2  0  0  0  0  0  0
  194.0010  176.7010  136.9960 O   0  0  0  0  0  1  0  0  0  0  0  0
  187.2010  174.2880  135.8510 C   0  0  0  0  0  1  0  0  0  0  0  0
  188.0640  175.3110  135.1340 C   0  0  0  0  0  2  0  0  0  0  0  0
  1  4  1  0  0  0  0
  1 16  1  1  0  0  0
  2 11  1  0  0  0  0
  3  9  1  0  0  0  0
  5 13  1  0  0  0  0
  6  7  1  0  0  0  0
  7  5  2  0  0  0  0
  7 12  1  0  0  0  0
  8 30  1  6  0  0  0
  8 14  1  0  0  0  0
  8  3  1  0  0  0  0
  9  6  2  0  0  0  0
 11 10  2  0  0  0  0
 11  5  1  0  0  0  0
 12  1  1  0  0  0  0
 13  4  2  0  0  0  0
 15 14  1  6  0  0  0
 15  2  1  0  0  0  0
 15  6  1  0  0  0  0
 16 19  1  0  0  0  0
 17 16  1  0  0  0  0
 17 18  2  0  0  0  0
 19 20  1  0  0  0  0
 21 17  1  0  0  0  0
 22 21  1  0  0  0  0
 23 24  1  6  0  0  0
 23 22  1  0  0  0  0
 25 23  1  1  0  0  0
 25 28  1  0  0  0  0
 26 28  1  0  0  0  0
 27 26  1  0  0  0  0
 27 25  1  0  0  0  0
 29 30  2  0  0  0  0
 31 30  2  0  0  0  0
 32 33  1  0  0  0  0
 32 30  1  0  0  0  0
 33 41  1  6  0  0  0
 33 35  1  0  0  0  0
 34 35  2  0  0  0  0
 35 36  1  0  0  0  0
 36 37  1  0  0  0  0
 37 38  1  0  0  0  0
 39 38  1  0  0  0  0
 41 40  1  0  0  0  0
M  END
>  <MODEL>
1

>  <REMARK>
 VINA RESULT:      -7.5      0.000      0.000
  Name = 
  13 active torsions:
  status: ('A' for Active; 'I' for Inactive)
    1  A    between atoms: C_1  and  C_14
    2  A    between atoms: C_2  and  N_5
    3  A    between atoms: N_5  and  S_6
    4  A    between atoms: C_10  and  C_19
    5  A    between atoms: C_13  and  C_35
    6  A    between atoms: C_14  and  C_28
    7  A    between atoms: C_16  and  C_35
    8  A    between atoms: N_18  and  S_26
    9  A    between atoms: N_18  and  C_35
   10  A    between atoms: C_19  and  N_33
   11  A    between atoms: C_21  and  S_26
   12  A    between atoms: C_28  and  C_32
   13  A    between atoms: C_32  and  C_36
                            x       y       z     vdW  Elec       q    Type
                         _______ _______ _______ _____ _____    ______ ____

>  <TORSDO>
F 13

$$$$
=
 OpenBabel11062415543D

 41 44  0  0  1  0  0  0  0  0999 V2000
  182.7570  178.2170  138.2080 C   0  0  1  0  0  3  0  0  0  0  0  0
  181.3830  179.3010  143.1960 C   0  0  0  0  0  2  0  0  0  0  0  0
  185.4290  178.0540  143.4300 C   0  0  0  0  0  2  0  0  0  0  0  0
  181.2690  178.3790  138.2510 C   0  0  0  0  0  3  0  0  0  0  0  0
  181.3610  178.6300  140.7070 C   0  0  0  0  0  0  0  0  0  0  0  0
  183.4110  178.3790  142.0460 C   0  0  0  0  0  0  0  0  0  0  0  0
  182.6040  178.1060  140.8280 C   0  0  0  0  0  0  0  0  0  0  0  0
  184.5250  178.1960  144.6450 C   0  0  2  0  0  3  0  0  0  0  0  0
  184.5880  177.7700  142.2280 C   0  0  0  0  0  3  0  0  0  0  0  0
  179.6460  179.9500  141.7030 O   0  0  0  0  0  0  0  0  0  0  0  0
  180.7360  179.3370  141.8470 C   0  0  0  0  0  0  0  0  0  0  0  0
  183.2840  177.0660  139.5100 S   0  0  0  0  0  0  0  0  0  0  0  0
  180.6410  178.5890  139.4120 C   0  0  0  0  0  3  0  0  0  0  0  0
  183.5590  179.3680  144.4410 C   0  0  0  0  0  2  0  0  0  0  0  0
  182.8940  179.3960  143.0530 C   0  0  2  0  0  3  0  0  0  0  0  0
  183.2120  177.7710  136.8910 N   0  0  0  0  0  0  0  0  0  0  0  0
  184.6200  177.6320  136.6350 C   0  0  0  0  0  0  0  0  0  0  0  0
  185.0240  177.2320  135.5100 O   0  0  0  0  0  0  0  0  0  0  0  0
  182.0390  177.4040  135.6100 S   0  0  0  0  0  0  0  0  0  0  0  0
  182.0070  175.6320  136.0070 C   0  0  0  0  0  1  0  0  0  0  0  0
  185.6250  177.9260  137.7000 C   0  0  0  0  0  2  0  0  0  0  0  0
  186.9090  178.4350  137.0660 C   0  0  0  0  0  2  0  0  0  0  0  0
  188.1110  178.0800  137.9220 C   0  0  2  0  0  3  0  0  0  0  0  0
  188.7710  179.2560  138.2800 O   0  0  0  0  0  1  0  0  0  0  0  0
  189.0660  177.1740  137.1390 C   0  0  1  0  0  3  0  0  0  0  0  0
  190.2090  175.7510  138.0570 C   0  0  0  0  0  2  0  0  0  0  0  0
  190.3930  177.1630  137.7450 N   0  0  0  0  0  2  0  0  0  0  0  0
  188.8230  175.7170  137.4640 C   0  0  0  0  0  2  0  0  0  0  0  0
  186.1100  179.8420  146.0590 O   0  0  0  0  0  0  0  0  0  0  0  0
  185.5020  178.4690  146.1090 S   0  0  0  0  0  0  0  0  0  0  0  0
  184.6160  178.3590  147.3160 O   0  0  0  0  0  0  0  0  0  0  0  0
  186.7630  177.2800  146.2000 N   0  0  0  0  0  2  0  0  0  0  0  0
  188.0440  177.9780  146.2670 C   0  0  2  0  0  3  0  0  0  0  0  0
  189.9310  178.3570  144.8420 O   0  0  0  0  0  0  0  0  0  0  0  0
  188.8770  177.7000  145.0550 C   0  0  0  0  0  0  0  0  0  0  0  0
  188.4570  176.6900  144.1390 N   0  0  0  0  0  2  0  0  0  0  0  0
  189.2540  176.2900  142.9910 C   0  0  0  0  0  2  0  0  0  0  0  0
  188.7700  177.0010  141.7390 C   0  0  0  0  0  2  0  0  0  0  0  0
  189.7570  177.8710  141.2740 O   0  0  0  0  0  1  0  0  0  0  0  0
  188.0820  178.1970  148.7890 C   0  0  0  0  0  1  0  0  0  0  0  0
  188.7820  177.6430  147.5610 C   0  0  0  0  0  2  0  0  0  0  0  0
  1 16  1  6  0  0  0
  1  4  1  0  0  0  0
  1 12  1  0  0  0  0
  3  8  1  0  0  0  0
  4 13  2  0  0  0  0
  5  7  2  0  0  0  0
  5 11  1  0  0  0  0
  6  9  2  0  0  0  0
  6 15  1  0  0  0  0
  7  6  1  0  0  0  0
  8 30  1  1  0  0  0
  9  3  1  0  0  0  0
 10 11  2  0  0  0  0
 11  2  1  0  0  0  0
 12  7  1  0  0  0  0
 13  5  1  0  0  0  0
 14  8  1  0  0  0  0
 15  2  1  1  0  0  0
 15 14  1  0  0  0  0
 17 16  1  0  0  0  0
 17 21  1  0  0  0  0
 18 17  2  0  0  0  0
 19 20  1  0  0  0  0
 19 16  1  0  0  0  0
 22 21  1  0  0  0  0
 22 23  1  0  0  0  0
 23 24  1  6  0  0  0
 25 28  1  0  0  0  0
 25 27  1  0  0  0  0
 25 23  1  1  0  0  0
 27 26  1  0  0  0  0
 28 26  1  0  0  0  0
 29 30  2  0  0  0  0
 30 32  1  0  0  0  0
 30 31  2  0  0  0  0
 32 33  1  0  0  0  0
 33 41  1  1  0  0  0
 34 35  2  0  0  0  0
 35 33  1  0  0  0  0
 36 35  1  0  0  0  0
 37 36  1  0  0  0  0
 38 37  1  0  0  0  0
 39 38  1  0  0  0  0
 41 40  1  0  0  0  0
M  END
>  <MODEL>
2

>  <REMARK>
 VINA RESULT:      -7.3      2.707      9.434
  Name = 
  13 active torsions:
  status: ('A' for Active; 'I' for Inactive)
    1  A    between atoms: C_1  and  C_14
    2  A    between atoms: C_2  and  N_5
    3  A    between atoms: N_5  and  S_6
    4  A    between atoms: C_10  and  C_19
    5  A    between atoms: C_13  and  C_35
    6  A    between atoms: C_14  and  C_28
    7  A    between atoms: C_16  and  C_35
    8  A    between atoms: N_18  and  S_26
    9  A    between atoms: N_18  and  C_35
   10  A    between atoms: C_19  and  N_33
   11  A    between atoms: C_21  and  S_26
   12  A    between atoms: C_28  and  C_32
   13  A    between atoms: C_32  and  C_36
                            x       y       z     vdW  Elec       q    Type
                         _______ _______ _______ _____ _____    ______ ____

>  <TORSDO>
F 13

$$$$
=
 OpenBabel11062415543D

 41 44  0  0  1  0  0  0  0  0999 V2000
  188.0280  177.8410  145.1650 C   0  0  1  0  0  3  0  0  0  0  0  0
  190.7750  177.2430  140.6880 C   0  0  0  0  0  2  0  0  0  0  0  0
  186.8720  178.3240  139.4310 C   0  0  0  0  0  2  0  0  0  0  0  0
  189.3260  177.1760  145.5060 C   0  0  0  0  0  3  0  0  0  0  0  0
  189.9020  177.0570  143.1060 C   0  0  0  0  0  0  0  0  0  0  0  0
  188.3900  177.7330  141.2860 C   0  0  0  0  0  0  0  0  0  0  0  0
  188.6350  177.2640  142.6750 C   0  0  0  0  0  0  0  0  0  0  0  0
  187.9320  177.7740  138.4900 C   0  0  2  0  0  3  0  0  0  0  0  0
  187.1420  177.8250  140.8140 C   0  0  0  0  0  3  0  0  0  0  0  0
  192.2230  177.0870  142.5710 O   0  0  0  0  0  0  0  0  0  0  0  0
  191.0350  177.1360  142.1580 C   0  0  0  0  0  0  0  0  0  0  0  0
  187.2370  176.9630  143.7860 S   0  0  0  0  0  0  0  0  0  0  0  0
  190.1900  176.8380  144.5440 C   0  0  0  0  0  3  0  0  0  0  0  0
  189.3180  178.2660  138.9210 C   0  0  0  0  0  2  0  0  0  0  0  0
  189.5800  178.1490  140.4340 C   0  0  2  0  0  3  0  0  0  0  0  0
  187.1410  177.9150  146.3250 N   0  0  0  0  0  0  0  0  0  0  0  0
  185.8500  178.5350  146.1940 C   0  0  0  0  0  0  0  0  0  0  0  0
  185.0690  178.5900  147.1810 O   0  0  0  0  0  0  0  0  0  0  0  0
  187.6460  177.2480  147.8900 S   0  0  0  0  0  0  0  0  0  0  0  0
  188.6780  178.6890  148.2860 C   0  0  0  0  0  1  0  0  0  0  0  0
  185.3980  179.0950  144.8840 C   0  0  0  0  0  2  0  0  0  0  0  0
  183.8800  179.1240  144.8360 C   0  0  0  0  0  2  0  0  0  0  0  0
  183.3750  178.6980  143.4700 C   0  0  2  0  0  3  0  0  0  0  0  0
  184.3020  179.0940  142.5040 O   0  0  0  0  0  1  0  0  0  0  0  0
  182.0220  179.3530  143.1800 C   0  0  1  0  0  3  0  0  0  0  0  0
  180.4030  178.2720  142.5570 C   0  0  0  0  0  2  0  0  0  0  0  0
  181.5070  178.9400  141.8790 N   0  0  0  0  0  2  0  0  0  0  0  0
  180.9080  178.6530  143.9260 C   0  0  0  0  0  2  0  0  0  0  0  0
  187.4010  179.7850  136.7890 O   0  0  0  0  0  0  0  0  0  0  0  0
  187.6010  178.2960  136.8200 S   0  0  0  0  0  0  0  0  0  0  0  0
  188.7700  177.9310  135.9520 O   0  0  0  0  0  0  0  0  0  0  0  0
  186.1700  177.5070  136.2330 N   0  0  0  0  0  2  0  0  0  0  0  0
  186.0220  176.2420  136.9470 C   0  0  2  0  0  3  0  0  0  0  0  0
  186.6030  175.0310  134.9630 O   0  0  0  0  0  0  0  0  0  0  0  0
  186.7010  175.1250  136.2170 C   0  0  0  0  0  0  0  0  0  0  0  0
  187.4520  174.1640  136.9580 N   0  0  0  0  0  2  0  0  0  0  0  0
  188.2200  173.1080  136.3210 C   0  0  0  0  0  2  0  0  0  0  0  0
  189.6830  173.5030  136.2270 C   0  0  0  0  0  2  0  0  0  0  0  0
  190.2200  173.6520  137.5060 O   0  0  0  0  0  1  0  0  0  0  0  0
  183.6170  176.8980  136.5060 C   0  0  0  0  0  1  0  0  0  0  0  0
  184.5520  175.9380  137.2210 C   0  0  0  0  0  2  0  0  0  0  0  0
  1  4  1  0  0  0  0
  1 16  1  1  0  0  0
  2 11  1  0  0  0  0
  3  9  1  0  0  0  0
  5 13  1  0  0  0  0
  6  7  1  0  0  0  0
  7  5  2  0  0  0  0
  7 12  1  0  0  0  0
  8 30  1  6  0  0  0
  8 14  1  0  0  0  0
  8  3  1  0  0  0  0
  9  6  2  0  0  0  0
 11 10  2  0  0  0  0
 11  5  1  0  0  0  0
 12  1  1  0  0  0  0
 13  4  2  0  0  0  0
 15 14  1  6  0  0  0
 15  2  1  0  0  0  0
 15  6  1  0  0  0  0
 16 19  1  0  0  0  0
 17 16  1  0  0  0  0
 17 18  2  0  0  0  0
 19 20  1  0  0  0  0
 21 17  1  0  0  0  0
 22 21  1  0  0  0  0
 23 24  1  6  0  0  0
 23 22  1  0  0  0  0
 25 23  1  1  0  0  0
 25 28  1  0  0  0  0
 26 28  1  0  0  0  0
 27 26  1  0  0  0  0
 27 25  1  0  0  0  0
 29 30  2  0  0  0  0
 31 30  2  0  0  0  0
 32 30  1  0  0  0  0
 32 33  1  0  0  0  0
 33 41  1  6  0  0  0
 34 35  2  0  0  0  0
 35 33  1  0  0  0  0
 35 36  1  0  0  0  0
 37 36  1  0  0  0  0
 38 37  1  0  0  0  0
 38 39  1  0  0  0  0
 40 41  1  0  0  0  0
M  END
>  <MODEL>
3

>  <REMARK>
 VINA RESULT:      -7.2      1.559      2.091
  Name = 
  13 active torsions:
  status: ('A' for Active; 'I' for Inactive)
    1  A    between atoms: C_1  and  C_14
    2  A    between atoms: C_2  and  N_5
    3  A    between atoms: N_5  and  S_6
    4  A    between atoms: C_10  and  C_19
    5  A    between atoms: C_13  and  C_35
    6  A    between atoms: C_14  and  C_28
    7  A    between atoms: C_16  and  C_35
    8  A    between atoms: N_18  and  S_26
    9  A    between atoms: N_18  and  C_35
   10  A    between atoms: C_19  and  N_33
   11  A    between atoms: C_21  and  S_26
   12  A    between atoms: C_28  and  C_32
   13  A    between atoms: C_32  and  C_36
                            x       y       z     vdW  Elec       q    Type
                         _______ _______ _______ _____ _____    ______ ____

>  <TORSDO>
F 13

$$$$
=
 OpenBabel11062415543D

 41 44  0  0  1  0  0  0  0  0999 V2000
  188.0920  176.9600  143.2000 C   0  0  1  0  0  3  0  0  0  0  0  0
  183.7160  179.0690  145.2850 C   0  0  0  0  0  2  0  0  0  0  0  0
  182.8330  178.5870  141.1660 C   0  0  0  0  0  2  0  0  0  0  0  0
  188.4220  177.4330  144.5820 C   0  0  0  0  0  3  0  0  0  0  0  0
  186.1560  178.3940  144.8000 C   0  0  0  0  0  0  0  0  0  0  0  0
  184.4950  178.4440  142.9850 C   0  0  0  0  0  0  0  0  0  0  0  0
  185.8980  178.3800  143.4710 C   0  0  0  0  0  0  0  0  0  0  0  0
  181.9800  179.4170  142.1120 C   0  0  2  0  0  3  0  0  0  0  0  0
  184.2370  178.5520  141.6770 C   0  0  0  0  0  3  0  0  0  0  0  0
  185.2630  178.5120  147.0060 O   0  0  0  0  0  0  0  0  0  0  0  0
  185.0650  178.6380  145.7690 C   0  0  0  0  0  0  0  0  0  0  0  0
  187.2610  178.2900  142.2820 S   0  0  0  0  0  0  0  0  0  0  0  0
  187.5090  178.0770  145.3160 C   0  0  0  0  0  3  0  0  0  0  0  0
  181.9740  178.7760  143.5040 C   0  0  0  0  0  2  0  0  0  0  0  0
  183.3650  178.3380  143.9980 C   0  0  2  0  0  3  0  0  0  0  0  0
  189.2840  176.4930  142.4920 N   0  0  0  0  0  0  0  0  0  0  0  0
  189.4280  176.7630  141.0870 C   0  0  0  0  0  0  0  0  0  0  0  0
  190.4580  176.3810  140.4700 O   0  0  0  0  0  0  0  0  0  0  0  0
  190.5490  175.5950  143.3540 S   0  0  0  0  0  0  0  0  0  0  0  0
  191.6570  177.0310  143.4330 C   0  0  0  0  0  1  0  0  0  0  0  0
  188.3810  177.5250  140.3420 C   0  0  0  0  0  2  0  0  0  0  0  0
  189.0000  178.1850  139.1210 C   0  0  0  0  0  2  0  0  0  0  0  0
  188.1160  178.0000  137.9010 C   0  0  2  0  0  3  0  0  0  0  0  0
  186.8850  178.6130  138.1400 O   0  0  0  0  0  1  0  0  0  0  0  0
  187.9020  176.5100  137.6270 C   0  0  1  0  0  3  0  0  0  0  0  0
  187.6350  175.7800  135.7370 C   0  0  0  0  0  2  0  0  0  0  0  0
  186.7430  176.2960  136.7680 N   0  0  0  0  0  2  0  0  0  0  0  0
  188.8670  176.0050  136.5770 C   0  0  0  0  0  2  0  0  0  0  0  0
  179.5410  178.3120  141.9020 O   0  0  0  0  0  0  0  0  0  0  0  0
  180.3140  179.5350  141.4960 S   0  0  0  0  0  0  0  0  0  0  0  0
  179.6610  180.7540  142.0790 O   0  0  0  0  0  0  0  0  0  0  0  0
  180.3380  179.6570  139.7640 N   0  0  0  0  0  2  0  0  0  0  0  0
  181.1550  180.8110  139.4000 C   0  0  2  0  0  3  0  0  0  0  0  0
  179.2100  182.2050  139.3020 O   0  0  0  0  0  0  0  0  0  0  0  0
  180.3210  181.8950  138.7930 C   0  0  0  0  0  0  0  0  0  0  0  0
  180.7930  182.5650  137.6250 N   0  0  0  0  0  2  0  0  0  0  0  0
  180.0940  183.6910  137.0290 C   0  0  0  0  0  2  0  0  0  0  0  0
  181.0690  184.8160  136.7250 C   0  0  0  0  0  2  0  0  0  0  0  0
  182.2140  184.6790  137.5100 O   0  0  0  0  0  1  0  0  0  0  0  0
  182.0180  179.1230  137.7230 C   0  0  0  0  0  1  0  0  0  0  0  0
  182.3110  180.3980  138.4930 C   0  0  0  0  0  2  0  0  0  0  0  0
  1 16  1  6  0  0  0
  1  4  1  0  0  0  0
  2 11  1  0  0  0  0
  3  9  1  0  0  0  0
  3  8  1  0  0  0  0
  4 13  2  0  0  0  0
  5 13  1  0  0  0  0
  5 11  1  0  0  0  0
  6  7  1  0  0  0  0
  6 15  1  0  0  0  0
  7  5  2  0  0  0  0
  8 30  1  6  0  0  0
  8 14  1  0  0  0  0
  9  6  2  0  0  0  0
 11 10  2  0  0  0  0
 12  1  1  0  0  0  0
 12  7  1  0  0  0  0
 15 14  1  6  0  0  0
 15  2  1  0  0  0  0
 16 19  1  0  0  0  0
 17 16  1  0  0  0  0
 18 17  2  0  0  0  0
 19 20  1  0  0  0  0
 21 17  1  0  0  0  0
 22 21  1  0  0  0  0
 23 24  1  1  0  0  0
 23 22  1  0  0  0  0
 25 23  1  6  0  0  0
 26 28  1  0  0  0  0
 26 27  1  0  0  0  0
 27 25  1  0  0  0  0
 28 25  1  0  0  0  0
 30 29  2  0  0  0  0
 30 31  2  0  0  0  0
 32 30  1  0  0  0  0
 33 41  1  6  0  0  0
 33 32  1  0  0  0  0
 35 34  2  0  0  0  0
 35 33  1  0  0  0  0
 36 35  1  0  0  0  0
 37 36  1  0  0  0  0
 38 37  1  0  0  0  0
 38 39  1  0  0  0  0
 40 41  1  0  0  0  0
M  END
>  <MODEL>
4

>  <REMARK>
 VINA RESULT:      -7.0      3.690      8.386
  Name = 
  13 active torsions:
  status: ('A' for Active; 'I' for Inactive)
    1  A    between atoms: C_1  and  C_14
    2  A    between atoms: C_2  and  N_5
    3  A    between atoms: N_5  and  S_6
    4  A    between atoms: C_10  and  C_19
    5  A    between atoms: C_13  and  C_35
    6  A    between atoms: C_14  and  C_28
    7  A    between atoms: C_16  and  C_35
    8  A    between atoms: N_18  and  S_26
    9  A    between atoms: N_18  and  C_35
   10  A    between atoms: C_19  and  N_33
   11  A    between atoms: C_21  and  S_26
   12  A    between atoms: C_28  and  C_32
   13  A    between atoms: C_32  and  C_36
                            x       y       z     vdW  Elec       q    Type
                         _______ _______ _______ _____ _____    ______ ____

>  <TORSDO>
F 13

$$$$
=
 OpenBabel11062415543D

 41 44  0  0  1  0  0  0  0  0999 V2000
  185.6710  176.9630  136.6540 C   0  0  1  0  0  3  0  0  0  0  0  0
  190.7010  176.7140  138.2640 C   0  0  0  0  0  2  0  0  0  0  0  0
  188.5150  177.8770  141.7060 C   0  0  0  0  0  2  0  0  0  0  0  0
  186.5390  176.8490  135.4390 C   0  0  0  0  0  3  0  0  0  0  0  0
  188.5560  176.9850  136.8590 C   0  0  0  0  0  0  0  0  0  0  0  0
  188.5140  177.3900  139.2860 C   0  0  0  0  0  0  0  0  0  0  0  0
  187.9050  177.4890  137.9340 C   0  0  0  0  0  0  0  0  0  0  0  0
  190.0310  177.9510  141.6130 C   0  0  2  0  0  3  0  0  0  0  0  0
  187.9360  177.9900  140.3330 C   0  0  0  0  0  3  0  0  0  0  0  0
  190.5040  175.8840  136.0410 O   0  0  0  0  0  0  0  0  0  0  0  0
  189.9420  176.4830  136.9950 C   0  0  0  0  0  0  0  0  0  0  0  0
  186.2950  178.2910  137.7260 S   0  0  0  0  0  0  0  0  0  0  0  0
  187.8710  176.8400  135.5530 C   0  0  0  0  0  3  0  0  0  0  0  0
  190.5580  176.7870  140.7670 C   0  0  0  0  0  2  0  0  0  0  0  0
  189.7760  176.5580  139.4610 C   0  0  2  0  0  3  0  0  0  0  0  0
  184.2710  177.1840  136.2970 N   0  0  0  0  0  0  0  0  0  0  0  0
  183.2900  177.3550  137.3350 C   0  0  0  0  0  0  0  0  0  0  0  0
  182.0830  177.5640  137.0390 O   0  0  0  0  0  0  0  0  0  0  0  0
  183.7750  177.2400  134.5940 S   0  0  0  0  0  0  0  0  0  0  0  0
  182.9890  175.6050  134.6630 C   0  0  0  0  0  1  0  0  0  0  0  0
  183.6860  177.3210  138.7750 C   0  0  0  0  0  2  0  0  0  0  0  0
  182.7930  178.2570  139.5730 C   0  0  0  0  0  2  0  0  0  0  0  0
  183.6080  179.3670  140.2120 C   0  0  2  0  0  3  0  0  0  0  0  0
  184.2000  180.1270  139.2020 O   0  0  0  0  0  1  0  0  0  0  0  0
  184.6940  178.7730  141.1110 C   0  0  1  0  0  3  0  0  0  0  0  0
  184.9490  179.3710  143.0480 C   0  0  0  0  0  2  0  0  0  0  0  0
  185.4680  179.8230  141.7630 N   0  0  0  0  0  2  0  0  0  0  0  0
  184.1120  178.2850  142.4190 C   0  0  0  0  0  2  0  0  0  0  0  0
  192.1430  177.3270  143.1520 O   0  0  0  0  0  0  0  0  0  0  0  0
  190.7510  177.8870  143.2410 S   0  0  0  0  0  0  0  0  0  0  0  0
  190.8070  179.2760  143.8060 O   0  0  0  0  0  0  0  0  0  0  0  0
  189.7840  176.8760  144.2680 N   0  0  0  0  0  2  0  0  0  0  0  0
  189.5300  177.5990  145.5100 C   0  0  2  0  0  3  0  0  0  0  0  0
  189.3280  176.7200  147.7290 O   0  0  0  0  0  0  0  0  0  0  0  0
  190.0390  176.8390  146.6940 C   0  0  0  0  0  0  0  0  0  0  0  0
  191.3420  176.2600  146.6420 N   0  0  0  0  0  2  0  0  0  0  0  0
  191.8750  175.4260  147.7060 C   0  0  0  0  0  2  0  0  0  0  0  0
  193.2640  175.8960  148.1000 C   0  0  0  0  0  2  0  0  0  0  0  0
  193.1980  176.6430  149.2770 O   0  0  0  0  0  1  0  0  0  0  0  0
  187.1490  176.9480  144.9440 C   0  0  0  0  0  1  0  0  0  0  0  0
  188.0500  177.9490  145.6460 C   0  0  0  0  0  2  0  0  0  0  0  0
  1 16  1  6  0  0  0
  1 12  1  0  0  0  0
  4 13  2  0  0  0  0
  4  1  1  0  0  0  0
  5 11  1  0  0  0  0
  5  7  2  0  0  0  0
  6 15  1  0  0  0  0
  6  9  2  0  0  0  0
  7  6  1  0  0  0  0
  8  3  1  0  0  0  0
  8 30  1  1  0  0  0
  9  3  1  0  0  0  0
 10 11  2  0  0  0  0
 11  2  1  0  0  0  0
 12  7  1  0  0  0  0
 13  5  1  0  0  0  0
 14  8  1  0  0  0  0
 15  2  1  6  0  0  0
 15 14  1  0  0  0  0
 16 17  1  0  0  0  0
 17 21  1  0  0  0  0
 18 17  2  0  0  0  0
 19 20  1  0  0  0  0
 19 16  1  0  0  0  0
 21 22  1  0  0  0  0
 22 23  1  0  0  0  0
 23 24  1  6  0  0  0
 25 23  1  6  0  0  0
 25 27  1  0  0  0  0
 25 28  1  0  0  0  0
 27 26  1  0  0  0  0
 28 26  1  0  0  0  0
 29 30  2  0  0  0  0
 30 31  2  0  0  0  0
 30 32  1  0  0  0  0
 32 33  1  0  0  0  0
 33 41  1  1  0  0  0
 33 35  1  0  0  0  0
 35 34  2  0  0  0  0
 36 35  1  0  0  0  0
 36 37  1  0  0  0  0
 37 38  1  0  0  0  0
 38 39  1  0  0  0  0
 40 41  1  0  0  0  0
M  END
>  <MODEL>
5

>  <REMARK>
 VINA RESULT:      -6.9      3.007      8.077
  Name = 
  13 active torsions:
  status: ('A' for Active; 'I' for Inactive)
    1  A    between atoms: C_1  and  C_14
    2  A    between atoms: C_2  and  N_5
    3  A    between atoms: N_5  and  S_6
    4  A    between atoms: C_10  and  C_19
    5  A    between atoms: C_13  and  C_35
    6  A    between atoms: C_14  and  C_28
    7  A    between atoms: C_16  and  C_35
    8  A    between atoms: N_18  and  S_26
    9  A    between atoms: N_18  and  C_35
   10  A    between atoms: C_19  and  N_33
   11  A    between atoms: C_21  and  S_26
   12  A    between atoms: C_28  and  C_32
   13  A    between atoms: C_32  and  C_36
                            x       y       z     vdW  Elec       q    Type
                         _______ _______ _______ _____ _____    ______ ____

>  <TORSDO>
F 13

$$$$
=
 OpenBabel11062415543D

 41 44  0  0  1  0  0  0  0  0999 V2000
  182.3000  177.8620  138.9320 C   0  0  1  0  0  3  0  0  0  0  0  0
  186.8010  178.7670  141.5520 C   0  0  0  0  0  2  0  0  0  0  0  0
  183.8470  178.3790  144.5690 C   0  0  0  0  0  2  0  0  0  0  0  0
  183.3310  178.3020  137.9390 C   0  0  0  0  0  3  0  0  0  0  0  0
  184.9360  178.7020  139.7730 C   0  0  0  0  0  0  0  0  0  0  0  0
  184.3840  178.4960  142.1620 C   0  0  0  0  0  0  0  0  0  0  0  0
  183.9940  178.7200  140.7460 C   0  0  0  0  0  0  0  0  0  0  0  0
  185.2420  178.9250  144.8300 C   0  0  2  0  0  3  0  0  0  0  0  0
  183.4830  178.6310  143.1420 C   0  0  0  0  0  3  0  0  0  0  0  0
  187.2440  178.4610  139.2340 O   0  0  0  0  0  0  0  0  0  0  0  0
  186.3710  178.6230  140.1260 C   0  0  0  0  0  0  0  0  0  0  0  0
  182.2600  179.0260  140.3260 S   0  0  0  0  0  0  0  0  0  0  0  0
  184.5520  178.6680  138.3420 C   0  0  0  0  0  3  0  0  0  0  0  0
  186.2580  178.2060  143.9360 C   0  0  0  0  0  2  0  0  0  0  0  0
  185.8110  178.0640  142.4690 C   0  0  2  0  0  3  0  0  0  0  0  0
  180.9810  177.7290  138.3150 N   0  0  0  0  0  0  0  0  0  0  0  0
  180.3750  176.4290  138.2030 C   0  0  0  0  0  0  0  0  0  0  0  0
  179.2320  176.3040  137.6890 O   0  0  0  0  0  0  0  0  0  0  0  0
  180.1250  179.1590  137.7020 S   0  0  0  0  0  0  0  0  0  0  0  0
  178.9630  179.1860  139.0970 C   0  0  0  0  0  1  0  0  0  0  0  0
  181.0730  175.2130  138.7190 C   0  0  0  0  0  2  0  0  0  0  0  0
  181.3230  174.2430  137.5770 C   0  0  0  0  0  2  0  0  0  0  0  0
  182.5980  174.6010  136.8350 C   0  0  2  0  0  3  0  0  0  0  0  0
  182.7320  173.7520  135.7350 O   0  0  0  0  0  1  0  0  0  0  0  0
  183.8090  174.4380  137.7580 C   0  0  1  0  0  3  0  0  0  0  0  0
  185.6160  173.7750  137.0730 C   0  0  0  0  0  2  0  0  0  0  0  0
  184.4200  173.1240  137.5950 N   0  0  0  0  0  2  0  0  0  0  0  0
  185.0190  175.1530  137.2000 C   0  0  0  0  0  2  0  0  0  0  0  0
  186.1700  180.0030  147.1090 O   0  0  0  0  0  0  0  0  0  0  0  0
  185.6800  178.7010  146.5410 S   0  0  0  0  0  0  0  0  0  0  0  0
  184.4670  178.2510  147.3020 O   0  0  0  0  0  0  0  0  0  0  0  0
  186.9300  177.5040  146.6720 N   0  0  0  0  0  2  0  0  0  0  0  0
  188.1900  178.1890  146.9450 C   0  0  2  0  0  3  0  0  0  0  0  0
  190.1510  176.8140  146.9350 O   0  0  0  0  0  0  0  0  0  0  0  0
  189.3360  177.5060  146.2670 C   0  0  0  0  0  0  0  0  0  0  0  0
  189.5000  177.6560  144.8570 N   0  0  0  0  0  2  0  0  0  0  0  0
  190.5260  176.9510  144.1070 C   0  0  0  0  0  2  0  0  0  0  0  0
  191.4460  177.9400  143.4130 C   0  0  0  0  0  2  0  0  0  0  0  0
  191.7280  177.5010  142.1190 O   0  0  0  0  0  1  0  0  0  0  0  0
  187.5610  177.3840  149.2620 C   0  0  0  0  0  1  0  0  0  0  0  0
  188.4170  178.3380  148.4470 C   0  0  0  0  0  2  0  0  0  0  0  0
  1 16  1  6  0  0  0
  1 12  1  0  0  0  0
  3  8  1  0  0  0  0
  4 13  2  0  0  0  0
  4  1  1  0  0  0  0
  5 11  1  0  0  0  0
  5  7  2  0  0  0  0
  6 15  1  0  0  0  0
  6  9  2  0  0  0  0
  7  6  1  0  0  0  0
  8 30  1  1  0  0  0
  9  3  1  0  0  0  0
 10 11  2  0  0  0  0
 11  2  1  0  0  0  0
 12  7  1  0  0  0  0
 13  5  1  0  0  0  0
 14  8  1  0  0  0  0
 15  2  1  6  0  0  0
 15 14  1  0  0  0  0
 17 16  1  0  0  0  0
 17 21  1  0  0  0  0
 18 17  2  0  0  0  0
 19 16  1  0  0  0  0
 19 20  1  0  0  0  0
 22 21  1  0  0  0  0
 23 24  1  6  0  0  0
 23 22  1  0  0  0  0
 25 23  1  6  0  0  0
 26 28  1  0  0  0  0
 26 27  1  0  0  0  0
 27 25  1  0  0  0  0
 28 25  1  0  0  0  0
 30 32  1  0  0  0  0
 30 29  2  0  0  0  0
 30 31  2  0  0  0  0
 32 33  1  0  0  0  0
 33 41  1  1  0  0  0
 35 34  2  0  0  0  0
 35 33  1  0  0  0  0
 36 35  1  0  0  0  0
 37 36  1  0  0  0  0
 38 37  1  0  0  0  0
 39 38  1  0  0  0  0
 41 40  1  0  0  0  0
M  END
>  <MODEL>
6

>  <REMARK>
 VINA RESULT:      -6.9      3.503      8.865
  Name = 
  13 active torsions:
  status: ('A' for Active; 'I' for Inactive)
    1  A    between atoms: C_1  and  C_14
    2  A    between atoms: C_2  and  N_5
    3  A    between atoms: N_5  and  S_6
    4  A    between atoms: C_10  and  C_19
    5  A    between atoms: C_13  and  C_35
    6  A    between atoms: C_14  and  C_28
    7  A    between atoms: C_16  and  C_35
    8  A    between atoms: N_18  and  S_26
    9  A    between atoms: N_18  and  C_35
   10  A    between atoms: C_19  and  N_33
   11  A    between atoms: C_21  and  S_26
   12  A    between atoms: C_28  and  C_32
   13  A    between atoms: C_32  and  C_36
                            x       y       z     vdW  Elec       q    Type
                         _______ _______ _______ _____ _____    ______ ____

>  <TORSDO>
F 13

$$$$
=
 OpenBabel11062415543D

 41 44  0  0  1  0  0  0  0  0999 V2000
  181.8830  177.9190  138.9350 C   0  0  1  0  0  3  0  0  0  0  0  0
  186.4700  178.7630  141.4260 C   0  0  0  0  0  2  0  0  0  0  0  0
  183.6070  178.3640  144.5280 C   0  0  0  0  0  2  0  0  0  0  0  0
  182.8870  178.3620  137.9160 C   0  0  0  0  0  3  0  0  0  0  0  0
  184.5510  178.7300  139.7040 C   0  0  0  0  0  0  0  0  0  0  0  0
  184.0710  178.5030  142.1070 C   0  0  0  0  0  0  0  0  0  0  0  0
  183.6390  178.7450  140.7060 C   0  0  0  0  0  0  0  0  0  0  0  0
  185.0130  178.8980  144.7510 C   0  0  2  0  0  3  0  0  0  0  0  0
  183.2010  178.6340  143.1150 C   0  0  0  0  0  3  0  0  0  0  0  0
  186.8390  178.4790  139.0910 O   0  0  0  0  0  0  0  0  0  0  0  0
  185.9950  178.6370  140.0120 C   0  0  0  0  0  0  0  0  0  0  0  0
  181.8950  179.0680  140.3420 S   0  0  0  0  0  0  0  0  0  0  0  0
  184.1220  178.7150  138.2850 C   0  0  0  0  0  3  0  0  0  0  0  0
  185.9960  178.1810  143.8190 C   0  0  0  0  0  2  0  0  0  0  0  0
  185.5030  178.0580  142.3650 C   0  0  2  0  0  3  0  0  0  0  0  0
  180.5450  177.8020  138.3580 N   0  0  0  0  0  0  0  0  0  0  0  0
  180.0970  178.7750  137.3980 C   0  0  0  0  0  0  0  0  0  0  0  0
  178.9530  178.6760  136.8800 O   0  0  0  0  0  0  0  0  0  0  0  0
  179.4710  176.4720  138.8350 S   0  0  0  0  0  0  0  0  0  0  0  0
  180.0180  175.4060  137.4710 C   0  0  0  0  0  1  0  0  0  0  0  0
  180.9870  179.8980  136.9740 C   0  0  0  0  0  2  0  0  0  0  0  0
  180.1980  181.1970  136.9580 C   0  0  0  0  0  2  0  0  0  0  0  0
  181.0850  182.3710  137.3330 C   0  0  2  0  0  3  0  0  0  0  0  0
  181.3950  182.2840  138.6910 O   0  0  0  0  0  1  0  0  0  0  0  0
  180.3590  183.6900  137.0570 C   0  0  1  0  0  3  0  0  0  0  0  0
  180.8380  184.8810  135.4670 C   0  0  0  0  0  2  0  0  0  0  0  0
  181.3080  184.7770  136.8430 N   0  0  0  0  0  2  0  0  0  0  0  0
  179.8580  183.7470  135.6300 C   0  0  0  0  0  2  0  0  0  0  0  0
  186.0930  179.9230  146.9870 O   0  0  0  0  0  0  0  0  0  0  0  0
  185.5020  178.6520  146.4460 S   0  0  0  0  0  0  0  0  0  0  0  0
  184.2940  178.2800  147.2540 O   0  0  0  0  0  0  0  0  0  0  0  0
  186.6800  177.3810  146.5360 N   0  0  0  0  0  2  0  0  0  0  0  0
  187.9530  177.9670  146.9450 C   0  0  2  0  0  3  0  0  0  0  0  0
  189.9790  176.7410  146.5900 O   0  0  0  0  0  0  0  0  0  0  0  0
  189.0780  177.4690  146.0930 C   0  0  0  0  0  0  0  0  0  0  0  0
  189.1240  177.8380  144.7150 N   0  0  0  0  0  2  0  0  0  0  0  0
  190.1250  177.3210  143.7970 C   0  0  0  0  0  2  0  0  0  0  0  0
  189.4610  176.7880  142.5390 C   0  0  0  0  0  2  0  0  0  0  0  0
  188.3740  175.9810  142.8790 O   0  0  0  0  0  1  0  0  0  0  0  0
  189.3100  178.6240  148.9790 C   0  0  0  0  0  1  0  0  0  0  0  0
  188.2100  177.7320  148.4310 C   0  0  0  0  0  2  0  0  0  0  0  0
  1 16  1  6  0  0  0
  1 12  1  0  0  0  0
  3  8  1  0  0  0  0
  4 13  2  0  0  0  0
  4  1  1  0  0  0  0
  5 11  1  0  0  0  0
  5  7  2  0  0  0  0
  6 15  1  0  0  0  0
  6  9  2  0  0  0  0
  7  6  1  0  0  0  0
  8 30  1  1  0  0  0
  9  3  1  0  0  0  0
 10 11  2  0  0  0  0
 11  2  1  0  0  0  0
 12  7  1  0  0  0  0
 13  5  1  0  0  0  0
 14  8  1  0  0  0  0
 15  2  1  6  0  0  0
 15 14  1  0  0  0  0
 16 19  1  0  0  0  0
 17 16  1  0  0  0  0
 18 17  2  0  0  0  0
 20 19  1  0  0  0  0
 21 17  1  0  0  0  0
 22 21  1  0  0  0  0
 22 23  1  0  0  0  0
 23 24  1  1  0  0  0
 25 23  1  6  0  0  0
 26 28  1  0  0  0  0
 26 27  1  0  0  0  0
 27 25  1  0  0  0  0
 28 25  1  0  0  0  0
 30 32  1  0  0  0  0
 30 29  2  0  0  0  0
 30 31  2  0  0  0  0
 32 33  1  0  0  0  0
 33 41  1  1  0  0  0
 35 34  2  0  0  0  0
 35 33  1  0  0  0  0
 36 35  1  0  0  0  0
 37 36  1  0  0  0  0
 38 39  1  0  0  0  0
 38 37  1  0  0  0  0
 41 40  1  0  0  0  0
M  END
>  <MODEL>
7

>  <REMARK>
 VINA RESULT:      -6.9      4.478      9.011
  Name = 
  13 active torsions:
  status: ('A' for Active; 'I' for Inactive)
    1  A    between atoms: C_1  and  C_14
    2  A    between atoms: C_2  and  N_5
    3  A    between atoms: N_5  and  S_6
    4  A    between atoms: C_10  and  C_19
    5  A    between atoms: C_13  and  C_35
    6  A    between atoms: C_14  and  C_28
    7  A    between atoms: C_16  and  C_35
    8  A    between atoms: N_18  and  S_26
    9  A    between atoms: N_18  and  C_35
   10  A    between atoms: C_19  and  N_33
   11  A    between atoms: C_21  and  S_26
   12  A    between atoms: C_28  and  C_32
   13  A    between atoms: C_32  and  C_36
                            x       y       z     vdW  Elec       q    Type
                         _______ _______ _______ _____ _____    ______ ____

>  <TORSDO>
F 13

$$$$
=
 OpenBabel11062415543D

 41 44  0  0  1  0  0  0  0  0999 V2000
  181.2980  179.0520  138.7240 C   0  0  1  0  0  3  0  0  0  0  0  0
  181.1150  178.5100  143.9790 C   0  0  0  0  0  2  0  0  0  0  0  0
  185.2470  178.4860  143.0270 C   0  0  0  0  0  2  0  0  0  0  0  0
  179.8810  178.7550  139.1070 C   0  0  0  0  0  3  0  0  0  0  0  0
  180.5750  178.4530  141.4590 C   0  0  0  0  0  0  0  0  0  0  0  0
  182.9110  178.5130  142.2300 C   0  0  0  0  0  0  0  0  0  0  0  0
  181.8900  178.3030  141.1710 C   0  0  0  0  0  0  0  0  0  0  0  0
  184.6990  178.0740  144.3850 C   0  0  2  0  0  3  0  0  0  0  0  0
  184.2010  178.2510  141.9870 C   0  0  0  0  0  3  0  0  0  0  0  0
  178.9390  178.9450  143.1190 O   0  0  0  0  0  0  0  0  0  0  0  0
  180.1370  178.6630  142.8570 C   0  0  0  0  0  0  0  0  0  0  0  0
  182.4060  177.8390  139.4990 S   0  0  0  0  0  0  0  0  0  0  0  0
  179.5600  178.5000  140.3800 C   0  0  0  0  0  3  0  0  0  0  0  0
  183.4720  178.9250  144.7300 C   0  0  0  0  0  2  0  0  0  0  0  0
  182.4680  179.0750  143.5730 C   0  0  2  0  0  3  0  0  0  0  0  0
  181.4690  179.0730  137.2710 N   0  0  0  0  0  0  0  0  0  0  0  0
  180.9720  180.1890  136.5130 C   0  0  0  0  0  0  0  0  0  0  0  0
  181.1280  180.2280  135.2640 O   0  0  0  0  0  0  0  0  0  0  0  0
  182.2810  177.7320  136.4410 S   0  0  0  0  0  0  0  0  0  0  0  0
  180.7340  176.8150  136.1900 C   0  0  0  0  0  1  0  0  0  0  0  0
  180.2930  181.3350  137.1920 C   0  0  0  0  0  2  0  0  0  0  0  0
  181.2840  182.4670  137.3990 C   0  0  0  0  0  2  0  0  0  0  0  0
  180.8810  183.6910  136.5970 C   0  0  2  0  0  3  0  0  0  0  0  0
  181.7730  184.7270  136.8790 O   0  0  0  0  0  1  0  0  0  0  0  0
  179.4600  184.1210  136.9690 C   0  0  1  0  0  3  0  0  0  0  0  0
  179.0370  186.0020  137.6460 C   0  0  0  0  0  2  0  0  0  0  0  0
  179.4300  184.7510  138.2840 N   0  0  0  0  0  2  0  0  0  0  0  0
  179.0780  185.4030  136.2630 C   0  0  0  0  0  2  0  0  0  0  0  0
  186.3530  179.7220  145.7130 O   0  0  0  0  0  0  0  0  0  0  0  0
  185.9460  178.2780  145.6390 S   0  0  0  0  0  0  0  0  0  0  0  0
  185.3830  177.8500  146.9630 O   0  0  0  0  0  0  0  0  0  0  0  0
  187.3300  177.3050  145.2510 N   0  0  0  0  0  2  0  0  0  0  0  0
  188.5070  177.9250  145.8530 C   0  0  2  0  0  3  0  0  0  0  0  0
  190.7260  178.5490  145.2030 O   0  0  0  0  0  0  0  0  0  0  0  0
  189.6100  178.0780  144.8530 C   0  0  0  0  0  0  0  0  0  0  0  0
  189.3800  177.6940  143.4980 N   0  0  0  0  0  2  0  0  0  0  0  0
  190.4240  177.7180  142.4870 C   0  0  0  0  0  2  0  0  0  0  0  0
  189.8140  177.6510  141.0980 C   0  0  0  0  0  2  0  0  0  0  0  0
  188.4500  177.3710  141.1900 O   0  0  0  0  0  1  0  0  0  0  0  0
  188.3690  177.7230  148.3730 C   0  0  0  0  0  1  0  0  0  0  0  0
  188.9570  177.1560  147.0920 C   0  0  0  0  0  2  0  0  0  0  0  0
  1 16  1  6  0  0  0
  1  4  1  0  0  0  0
  1 12  1  0  0  0  0
  3  8  1  0  0  0  0
  4 13  2  0  0  0  0
  5 11  1  0  0  0  0
  6 15  1  0  0  0  0
  7  5  2  0  0  0  0
  7  6  1  0  0  0  0
  8 14  1  0  0  0  0
  8 30  1  1  0  0  0
  9  6  2  0  0  0  0
  9  3  1  0  0  0  0
 11 10  2  0  0  0  0
 11  2  1  0  0  0  0
 12  7  1  0  0  0  0
 13  5  1  0  0  0  0
 15  2  1  1  0  0  0
 15 14  1  0  0  0  0
 17 21  1  0  0  0  0
 17 16  1  0  0  0  0
 18 17  2  0  0  0  0
 19 16  1  0  0  0  0
 20 19  1  0  0  0  0
 21 22  1  0  0  0  0
 23 24  1  1  0  0  0
 23 22  1  0  0  0  0
 25 23  1  6  0  0  0
 25 27  1  0  0  0  0
 26 27  1  0  0  0  0
 28 25  1  0  0  0  0
 28 26  1  0  0  0  0
 30 29  2  0  0  0  0
 30 31  2  0  0  0  0
 32 30  1  0  0  0  0
 32 33  1  0  0  0  0
 33 41  1  1  0  0  0
 35 34  2  0  0  0  0
 35 33  1  0  0  0  0
 36 35  1  0  0  0  0
 37 36  1  0  0  0  0
 38 39  1  0  0  0  0
 38 37  1  0  0  0  0
 41 40  1  0  0  0  0
M  END
>  <MODEL>
8

>  <REMARK>
 VINA RESULT:      -6.9      4.509      9.496
  Name = 
  13 active torsions:
  status: ('A' for Active; 'I' for Inactive)
    1  A    between atoms: C_1  and  C_14
    2  A    between atoms: C_2  and  N_5
    3  A    between atoms: N_5  and  S_6
    4  A    between atoms: C_10  and  C_19
    5  A    between atoms: C_13  and  C_35
    6  A    between atoms: C_14  and  C_28
    7  A    between atoms: C_16  and  C_35
    8  A    between atoms: N_18  and  S_26
    9  A    between atoms: N_18  and  C_35
   10  A    between atoms: C_19  and  N_33
   11  A    between atoms: C_21  and  S_26
   12  A    between atoms: C_28  and  C_32
   13  A    between atoms: C_32  and  C_36
                            x       y       z     vdW  Elec       q    Type
                         _______ _______ _______ _____ _____    ______ ____

>  <TORSDO>
F 13

$$$$
=
 OpenBabel11062415543D

 41 44  0  0  1  0  0  0  0  0999 V2000
  188.1550  177.3270  143.2540 C   0  0  1  0  0  3  0  0  0  0  0  0
  183.1880  178.9950  143.9590 C   0  0  0  0  0  2  0  0  0  0  0  0
  183.6520  178.7100  139.7540 C   0  0  0  0  0  2  0  0  0  0  0  0
  188.0050  177.7340  144.6870 C   0  0  0  0  0  3  0  0  0  0  0  0
  185.7080  178.5200  144.2300 C   0  0  0  0  0  0  0  0  0  0  0  0
  184.6840  178.5690  141.9920 C   0  0  0  0  0  0  0  0  0  0  0  0
  185.8710  178.5720  142.8860 C   0  0  0  0  0  0  0  0  0  0  0  0
  182.4840  179.4190  140.4210 C   0  0  2  0  0  3  0  0  0  0  0  0
  184.8300  178.7400  140.6740 C   0  0  0  0  0  3  0  0  0  0  0  0
  184.1770  178.4390  146.0520 O   0  0  0  0  0  0  0  0  0  0  0  0
  184.3560  178.6280  144.8210 C   0  0  0  0  0  0  0  0  0  0  0  0
  187.5350  178.6500  142.1750 S   0  0  0  0  0  0  0  0  0  0  0  0
  186.8600  178.2660  145.1270 C   0  0  0  0  0  3  0  0  0  0  0  0
  182.1060  178.6930  141.7170 C   0  0  0  0  0  2  0  0  0  0  0  0
  183.3110  178.3220  142.6000 C   0  0  2  0  0  3  0  0  0  0  0  0
  189.5410  176.9880  142.9340 N   0  0  0  0  0  0  0  0  0  0  0  0
  189.9550  176.9100  141.5580 C   0  0  0  0  0  0  0  0  0  0  0  0
  191.1500  176.6360  141.2690 O   0  0  0  0  0  0  0  0  0  0  0  0
  190.7130  176.6710  144.2280 S   0  0  0  0  0  0  0  0  0  0  0  0
  191.4700  178.3150  144.0860 C   0  0  0  0  0  1  0  0  0  0  0  0
  188.9880  177.1820  140.4520 C   0  0  0  0  0  2  0  0  0  0  0  0
  189.7350  177.2710  139.1310 C   0  0  0  0  0  2  0  0  0  0  0  0
  188.9070  178.0050  138.0920 C   0  0  2  0  0  3  0  0  0  0  0  0
  189.0550  179.3790  138.2870 O   0  0  0  0  0  1  0  0  0  0  0  0
  187.4300  177.6240  138.2290 C   0  0  1  0  0  3  0  0  0  0  0  0
  186.1540  177.6320  136.6330 C   0  0  0  0  0  2  0  0  0  0  0  0
  186.5700  178.6280  137.6120 N   0  0  0  0  0  2  0  0  0  0  0  0
  187.0460  176.5660  137.2190 C   0  0  0  0  0  2  0  0  0  0  0  0
  180.3920  178.1250  139.3400 O   0  0  0  0  0  0  0  0  0  0  0  0
  181.0820  179.4590  139.3230 S   0  0  0  0  0  0  0  0  0  0  0  0
  180.1270  180.5200  139.7880 O   0  0  0  0  0  0  0  0  0  0  0  0
  181.6130  179.8170  137.7100 N   0  0  0  0  0  2  0  0  0  0  0  0
  180.7950  179.0450  136.7790 C   0  0  2  0  0  3  0  0  0  0  0  0
  181.9090  178.2500  134.8130 O   0  0  0  0  0  0  0  0  0  0  0  0
  181.6230  178.0520  136.0250 C   0  0  0  0  0  0  0  0  0  0  0  0
  182.0750  176.8740  136.6910 N   0  0  0  0  0  2  0  0  0  0  0  0
  182.9620  175.9080  136.0640 C   0  0  0  0  0  2  0  0  0  0  0  0
  183.3560  174.8300  137.0580 C   0  0  0  0  0  2  0  0  0  0  0  0
  183.4290  175.3710  138.3430 O   0  0  0  0  0  1  0  0  0  0  0  0
  180.3330  181.4320  136.0740 C   0  0  0  0  0  1  0  0  0  0  0  0
  180.0120  179.9650  135.8470 C   0  0  0  0  0  2  0  0  0  0  0  0
  1 16  1  6  0  0  0
  1  4  1  0  0  0  0
  2 11  1  0  0  0  0
  3  8  1  0  0  0  0
  3  9  1  0  0  0  0
  4 13  2  0  0  0  0
  5 11  1  0  0  0  0
  5 13  1  0  0  0  0
  6 15  1  0  0  0  0
  6  7  1  0  0  0  0
  7  5  2  0  0  0  0
  8 30  1  6  0  0  0
  8 14  1  0  0  0  0
  9  6  2  0  0  0  0
 11 10  2  0  0  0  0
 12  7  1  0  0  0  0
 12  1  1  0  0  0  0
 15 14  1  6  0  0  0
 15  2  1  0  0  0  0
 16 19  1  0  0  0  0
 17 16  1  0  0  0  0
 18 17  2  0  0  0  0
 20 19  1  0  0  0  0
 21 17  1  0  0  0  0
 22 21  1  0  0  0  0
 23 24  1  1  0  0  0
 23 22  1  0  0  0  0
 25 23  1  6  0  0  0
 26 28  1  0  0  0  0
 26 27  1  0  0  0  0
 27 25  1  0  0  0  0
 28 25  1  0  0  0  0
 30 29  2  0  0  0  0
 30 31  2  0  0  0  0
 32 30  1  0  0  0  0
 33 41  1  6  0  0  0
 33 32  1  0  0  0  0
 34 35  2  0  0  0  0
 35 36  1  0  0  0  0
 35 33  1  0  0  0  0
 37 36  1  0  0  0  0
 37 38  1  0  0  0  0
 38 39  1  0  0  0  0
 41 40  1  0  0  0  0
M  END
>  <MODEL>
9

>  <REMARK>
 VINA RESULT:      -6.8      3.540      7.152
  Name = 
  13 active torsions:
  status: ('A' for Active; 'I' for Inactive)
    1  A    between atoms: C_1  and  C_14
    2  A    between atoms: C_2  and  N_5
    3  A    between atoms: N_5  and  S_6
    4  A    between atoms: C_10  and  C_19
    5  A    between atoms: C_13  and  C_35
    6  A    between atoms: C_14  and  C_28
    7  A    between atoms: C_16  and  C_35
    8  A    between atoms: N_18  and  S_26
    9  A    between atoms: N_18  and  C_35
   10  A    between atoms: C_19  and  N_33
   11  A    between atoms: C_21  and  S_26
   12  A    between atoms: C_28  and  C_32
   13  A    between atoms: C_32  and  C_36
                            x       y       z     vdW  Elec       q    Type
                         _______ _______ _______ _____ _____    ______ ____

>  <TORSDO>
F 13

$$$$
