=
 OpenBabel11062413173D

 42 46  0  0  1  0  0  0  0  0999 V2000
  188.0900  176.9530  145.7950 N   0  0  0  0  0  0  0  0  0  0  0  0
  185.8800  178.5670  145.8170 C   0  0  0  0  0  0  0  0  0  0  0  0
  187.6490  177.4920  146.9580 C   0  0  0  0  0  3  0  0  0  0  0  0
  186.5520  178.2880  146.9630 N   0  0  0  0  0  0  0  0  0  0  0  0
  184.7220  179.3950  145.8830 N   0  0  0  0  0  1  0  0  0  0  0  0
  186.3110  178.0180  144.5930 C   0  0  0  0  0  0  0  0  0  0  0  0
  187.4470  177.1790  144.6180 C   0  0  0  0  0  0  0  0  0  0  0  0
  183.5900  178.8330  142.0240 C   0  0  0  0  0  0  0  0  0  0  0  0
  185.5620  178.8730  140.8330 C   0  0  0  0  0  3  0  0  0  0  0  0
  181.6020  178.6490  143.9250 C   0  0  0  0  0  1  0  0  0  0  0  0
  184.1340  179.0320  140.7920 C   0  0  0  0  0  0  0  0  0  0  0  0
  186.2790  178.5480  142.0630 C   0  0  0  0  0  3  0  0  0  0  0  0
  185.6130  178.3530  143.3280 C   0  0  0  0  0  0  0  0  0  0  0  0
  182.8630  178.6610  143.2130 N   0  0  0  0  0  0  0  0  0  0  0  0
  184.2620  178.5230  143.1840 C   0  0  0  0  0  0  0  0  0  0  0  0
  183.3470  179.3240  139.6330 N   0  0  0  0  0  2  0  0  0  0  0  0
  181.4220  177.7920  136.9200 C   0  0  1  0  0  3  0  0  0  0  0  0
  182.6350  175.6890  136.3290 C   0  0  0  0  0  3  0  0  0  0  0  0
  182.8610  176.6010  138.9040 S   0  0  0  0  0  0  0  0  0  0  0  0
  182.2130  176.5670  137.2490 C   0  0  0  0  0  0  0  0  0  0  0  0
  182.3150  175.8500  134.8620 C   0  0  0  0  0  2  0  0  0  0  0  0
  182.6830  178.3910  138.7710 C   0  0  0  0  0  0  0  0  0  0  0  0
  181.2670  176.9330  134.5940 C   0  0  0  0  0  2  0  0  0  0  0  0
  181.9760  178.8260  137.7770 N   0  0  0  0  0  0  0  0  0  0  0  0
  180.5410  179.2520  135.0990 C   0  0  0  0  0  1  0  0  0  0  0  0
  181.5470  178.1710  135.4430 C   0  0  1  0  0  3  0  0  0  0  0  0
  188.0130  176.5830  143.3590 C   0  0  0  0  0  2  0  0  0  0  0  0
  189.4990  176.8960  143.1270 C   0  0  1  0  0  3  0  0  0  0  0  0
  189.9170  176.6550  141.7450 N   0  0  0  0  0  2  0  0  0  0  0  0
  189.6400  177.5730  140.6850 C   0  0  0  0  0  0  0  0  0  0  0  0
  189.0540  178.6620  140.9210 O   0  0  0  0  0  0  0  0  0  0  0  0
  190.0070  177.2290  139.2770 C   0  0  1  0  0  3  0  0  0  0  0  0
  190.5630  175.8880  139.1960 N   0  0  0  0  0  1  0  0  0  0  0  0
  188.8280  177.3960  138.3180 C   0  0  0  0  0  2  0  0  0  0  0  0
  189.1440  178.3310  137.1610 C   0  0  0  0  0  2  0  0  0  0  0  0
  188.9570  179.6500  137.5670 O   0  0  0  0  0  1  0  0  0  0  0  0
  189.9100  178.1550  143.6310 O   0  0  0  0  0  0  0  0  0  0  0  0
  191.2470  178.0840  144.0490 C   0  0  0  0  0  2  0  0  0  0  0  0
  191.4920  176.7720  144.7660 C   0  0  0  0  0  2  0  0  0  0  0  0
  191.3860  176.9570  146.2690 C   0  0  0  0  0  2  0  0  0  0  0  0
  192.1470  175.8720  147.0130 C   0  0  0  0  0  2  0  0  0  0  0  0
  192.4780  174.8340  146.1420 O   0  0  0  0  0  1  0  0  0  0  0  0
  1  3  1  0  0  0  0
  2  5  1  0  0  0  0
  2  4  1  0  0  0  0
  3  4  2  0  0  0  0
  6  7  1  0  0  0  0
  6  2  2  0  0  0  0
  7  1  2  0  0  0  0
  8 15  1  0  0  0  0
  8 14  1  0  0  0  0
  9 12  2  0  0  0  0
 11  9  1  0  0  0  0
 11  8  2  0  0  0  0
 12 13  1  0  0  0  0
 13  6  1  0  0  0  0
 14 10  1  0  0  0  0
 15 14  1  0  0  0  0
 15 13  2  0  0  0  0
 16 11  1  0  0  0  0
 17 20  1  6  0  0  0
 17 24  1  0  0  0  0
 18 20  2  0  0  0  0
 20 19  1  0  0  0  0
 21 18  1  0  0  0  0
 22 19  1  0  0  0  0
 22 16  1  0  0  0  0
 23 21  1  0  0  0  0
 23 26  1  0  0  0  0
 24 22  2  0  0  0  0
 26 25  1  6  0  0  0
 26 17  1  0  0  0  0
 27  7  1  0  0  0  0
 28 27  1  6  0  0  0
 28 37  1  0  0  0  0
 29 28  1  0  0  0  0
 30 31  2  0  0  0  0
 30 29  1  0  0  0  0
 32 33  1  1  0  0  0
 32 30  1  0  0  0  0
 34 32  1  0  0  0  0
 35 36  1  0  0  0  0
 35 34  1  0  0  0  0
 37 38  1  0  0  0  0
 38 39  1  0  0  0  0
 39 40  1  0  0  0  0
 40 41  1  0  0  0  0
 42 41  1  0  0  0  0
M  END
>  <MODEL>
1

>  <REMARK>
 VINA RESULT:      -8.3      0.000      0.000
  Name = 
  13 active torsions:
  status: ('A' for Active; 'I' for Inactive)
    1  A    between atoms: N_1  and  C_8
    2  A    between atoms: C_3  and  C_41
    3  A    between atoms: C_9  and  N_24
    4  A    between atoms: C_9  and  C_27
    5  A    between atoms: C_9  and  O_32
    6  A    between atoms: C_14  and  C_28
    7  A    between atoms: C_14  and  C_41
    8  A    between atoms: C_15  and  C_33
    9  A    between atoms: C_20  and  C_22
   10  A    between atoms: C_20  and  O_32
   11  A    between atoms: C_22  and  C_33
   12  A    between atoms: C_23  and  C_34
   13  A    between atoms: C_27  and  C_40
                            x       y       z     vdW  Elec       q    Type
                         _______ _______ _______ _____ _____    ______ ____

>  <TORSDO>
F 13

$$$$
=
 OpenBabel11062413173D

 42 46  0  0  1  0  0  0  0  0999 V2000
  185.2690  178.3970  146.3450 N   0  0  0  0  0  0  0  0  0  0  0  0
  187.9460  178.0070  146.7610 C   0  0  0  0  0  0  0  0  0  0  0  0
  185.7950  178.5370  147.5860 C   0  0  0  0  0  3  0  0  0  0  0  0
  187.1220  178.3460  147.7860 N   0  0  0  0  0  0  0  0  0  0  0  0
  189.3360  177.8360  147.0240 N   0  0  0  0  0  1  0  0  0  0  0  0
  187.4290  177.8580  145.4580 C   0  0  0  0  0  0  0  0  0  0  0  0
  186.0460  178.0800  145.2750 C   0  0  0  0  0  0  0  0  0  0  0  0
  190.3400  177.6600  142.9770 C   0  0  0  0  0  0  0  0  0  0  0  0
  188.9060  175.9700  142.3470 C   0  0  0  0  0  3  0  0  0  0  0  0
  191.6310  179.7840  144.1700 C   0  0  0  0  0  1  0  0  0  0  0  0
  190.1450  176.6510  142.0850 C   0  0  0  0  0  0  0  0  0  0  0  0
  188.0190  176.3520  143.4420 C   0  0  0  0  0  3  0  0  0  0  0  0
  188.3100  177.4430  144.3400 C   0  0  0  0  0  0  0  0  0  0  0  0
  190.7010  178.7350  143.8050 N   0  0  0  0  0  0  0  0  0  0  0  0
  189.5040  178.0250  144.0080 C   0  0  0  0  0  0  0  0  0  0  0  0
  191.0620  176.3640  141.0230 N   0  0  0  0  0  2  0  0  0  0  0  0
  191.6230  176.7750  137.4280 C   0  0  1  0  0  3  0  0  0  0  0  0
  189.3700  176.5970  136.3630 C   0  0  0  0  0  3  0  0  0  0  0  0
  189.4840  177.5260  138.9400 S   0  0  0  0  0  0  0  0  0  0  0  0
  190.1480  177.0070  137.3740 C   0  0  0  0  0  0  0  0  0  0  0  0
  189.9330  175.8800  135.1600 C   0  0  0  0  0  2  0  0  0  0  0  0
  190.9440  176.7360  139.6450 C   0  0  0  0  0  0  0  0  0  0  0  0
  191.4630  175.9200  135.1010 C   0  0  0  0  0  2  0  0  0  0  0  0
  191.8880  176.4270  138.8130 N   0  0  0  0  0  0  0  0  0  0  0  0
  193.5710  175.6230  136.3770 C   0  0  0  0  0  1  0  0  0  0  0  0
  192.0580  175.6540  136.4810 C   0  0  1  0  0  3  0  0  0  0  0  0
  185.3910  177.9000  143.9340 C   0  0  0  0  0  2  0  0  0  0  0  0
  184.7730  179.1820  143.3570 C   0  0  1  0  0  3  0  0  0  0  0  0
  184.3290  179.0220  141.9720 N   0  0  0  0  0  2  0  0  0  0  0  0
  185.2370  178.9990  140.8690 C   0  0  0  0  0  0  0  0  0  0  0  0
  186.4790  179.0710  141.0640 O   0  0  0  0  0  0  0  0  0  0  0  0
  184.7190  178.9300  139.4680 C   0  0  1  0  0  3  0  0  0  0  0  0
  184.3330  180.2480  138.9900 N   0  0  0  0  0  1  0  0  0  0  0  0
  185.7190  178.2710  138.5170 C   0  0  0  0  0  2  0  0  0  0  0  0
  185.0380  177.4360  137.4440 C   0  0  0  0  0  2  0  0  0  0  0  0
  185.9140  176.4510  136.9970 O   0  0  0  0  0  1  0  0  0  0  0  0
  183.8000  179.7820  144.1960 O   0  0  0  0  0  0  0  0  0  0  0  0
  182.5270  179.6360  143.6260 C   0  0  0  0  0  2  0  0  0  0  0  0
  181.7570  178.5570  144.3600 C   0  0  0  0  0  2  0  0  0  0  0  0
  180.3620  178.4080  143.7780 C   0  0  0  0  0  2  0  0  0  0  0  0
  180.2870  178.9820  142.3730 C   0  0  0  0  0  2  0  0  0  0  0  0
  180.2470  177.9500  141.4340 O   0  0  0  0  0  1  0  0  0  0  0  0
  1  3  1  0  0  0  0
  2  5  1  0  0  0  0
  2  4  1  0  0  0  0
  3  4  2  0  0  0  0
  6  2  2  0  0  0  0
  7  6  1  0  0  0  0
  7  1  2  0  0  0  0
  8 14  1  0  0  0  0
  8 15  1  0  0  0  0
  9 12  2  0  0  0  0
 11  9  1  0  0  0  0
 11  8  2  0  0  0  0
 12 13  1  0  0  0  0
 13  6  1  0  0  0  0
 14 15  1  0  0  0  0
 14 10  1  0  0  0  0
 15 13  2  0  0  0  0
 16 11  1  0  0  0  0
 17 20  1  1  0  0  0
 17 24  1  0  0  0  0
 18 20  2  0  0  0  0
 19 22  1  0  0  0  0
 20 19  1  0  0  0  0
 21 18  1  0  0  0  0
 22 16  1  0  0  0  0
 23 21  1  0  0  0  0
 23 26  1  0  0  0  0
 24 22  2  0  0  0  0
 26 25  1  6  0  0  0
 26 17  1  0  0  0  0
 27  7  1  0  0  0  0
 28 27  1  1  0  0  0
 28 37  1  0  0  0  0
 29 28  1  0  0  0  0
 30 31  2  0  0  0  0
 30 29  1  0  0  0  0
 32 33  1  6  0  0  0
 32 30  1  0  0  0  0
 34 32  1  0  0  0  0
 35 34  1  0  0  0  0
 36 35  1  0  0  0  0
 38 37  1  0  0  0  0
 38 39  1  0  0  0  0
 40 39  1  0  0  0  0
 41 40  1  0  0  0  0
 42 41  1  0  0  0  0
M  END
>  <MODEL>
2

>  <REMARK>
 VINA RESULT:      -8.2      2.998      7.380
  Name = 
  13 active torsions:
  status: ('A' for Active; 'I' for Inactive)
    1  A    between atoms: N_1  and  C_8
    2  A    between atoms: C_3  and  C_41
    3  A    between atoms: C_9  and  N_24
    4  A    between atoms: C_9  and  C_27
    5  A    between atoms: C_9  and  O_32
    6  A    between atoms: C_14  and  C_28
    7  A    between atoms: C_14  and  C_41
    8  A    between atoms: C_15  and  C_33
    9  A    between atoms: C_20  and  C_22
   10  A    between atoms: C_20  and  O_32
   11  A    between atoms: C_22  and  C_33
   12  A    between atoms: C_23  and  C_34
   13  A    between atoms: C_27  and  C_40
                            x       y       z     vdW  Elec       q    Type
                         _______ _______ _______ _____ _____    ______ ____

>  <TORSDO>
F 13

$$$$
=
 OpenBabel11062413173D

 42 46  0  0  1  0  0  0  0  0999 V2000
  187.9600  177.4480  146.0420 N   0  0  0  0  0  0  0  0  0  0  0  0
  185.4200  178.4680  146.0740 C   0  0  0  0  0  0  0  0  0  0  0  0
  187.3730  177.7840  147.2160 C   0  0  0  0  0  3  0  0  0  0  0  0
  186.1140  178.2850  147.2270 N   0  0  0  0  0  0  0  0  0  0  0  0
  184.0930  178.9820  146.1450 N   0  0  0  0  0  1  0  0  0  0  0  0
  186.0020  178.1240  144.8370 C   0  0  0  0  0  0  0  0  0  0  0  0
  187.3080  177.5880  144.8560 C   0  0  0  0  0  0  0  0  0  0  0  0
  185.1930  178.7210  141.1410 C   0  0  0  0  0  0  0  0  0  0  0  0
  183.1490  178.7220  142.2040 C   0  0  0  0  0  3  0  0  0  0  0  0
  187.8570  178.6200  140.4400 C   0  0  0  0  0  1  0  0  0  0  0  0
  183.8500  178.8490  140.9560 C   0  0  0  0  0  0  0  0  0  0  0  0
  183.8380  178.4830  143.4690 C   0  0  0  0  0  3  0  0  0  0  0  0
  185.2720  178.3630  143.5680 C   0  0  0  0  0  0  0  0  0  0  0  0
  186.5930  178.6160  141.1470 N   0  0  0  0  0  0  0  0  0  0  0  0
  185.8460  178.4990  142.3330 C   0  0  0  0  0  0  0  0  0  0  0  0
  183.2630  179.1070  139.6760 N   0  0  0  0  0  2  0  0  0  0  0  0
  181.5650  177.5250  136.8450 C   0  0  1  0  0  3  0  0  0  0  0  0
  182.6070  175.2670  136.6020 C   0  0  0  0  0  3  0  0  0  0  0  0
  182.5830  176.3900  139.1030 S   0  0  0  0  0  0  0  0  0  0  0  0
  182.1640  176.2650  137.3790 C   0  0  0  0  0  0  0  0  0  0  0  0
  182.5080  175.3210  135.0960 C   0  0  0  0  0  2  0  0  0  0  0  0
  182.6230  178.1670  138.8040 C   0  0  0  0  0  0  0  0  0  0  0  0
  181.6310  176.4720  134.5950 C   0  0  0  0  0  2  0  0  0  0  0  0
  182.1080  178.5750  137.6880 N   0  0  0  0  0  0  0  0  0  0  0  0
  181.1040  178.8880  134.8060 C   0  0  0  0  0  1  0  0  0  0  0  0
  181.9290  177.7500  135.3750 C   0  0  1  0  0  3  0  0  0  0  0  0
  188.0330  177.2350  143.5870 C   0  0  0  0  0  2  0  0  0  0  0  0
  189.5400  177.5270  143.6190 C   0  0  1  0  0  3  0  0  0  0  0  0
  190.0790  177.8660  142.3020 N   0  0  0  0  0  2  0  0  0  0  0  0
  190.6160  176.8840  141.4130 C   0  0  0  0  0  0  0  0  0  0  0  0
  190.6000  175.6650  141.7240 O   0  0  0  0  0  0  0  0  0  0  0  0
  191.2410  177.3010  140.1200 C   0  0  1  0  0  3  0  0  0  0  0  0
  192.6790  177.4590  140.2630 N   0  0  0  0  0  1  0  0  0  0  0  0
  190.9030  176.3390  138.9810 C   0  0  0  0  0  2  0  0  0  0  0  0
  190.4420  177.0610  137.7240 C   0  0  0  0  0  2  0  0  0  0  0  0
  189.2810  176.4610  137.2440 O   0  0  0  0  0  1  0  0  0  0  0  0
  189.9330  178.4300  144.6390 O   0  0  0  0  0  0  0  0  0  0  0  0
  191.2970  178.2640  144.9210 C   0  0  0  0  0  2  0  0  0  0  0  0
  191.5510  176.8520  145.4090 C   0  0  0  0  0  2  0  0  0  0  0  0
  191.1920  176.7230  146.8780 C   0  0  0  0  0  2  0  0  0  0  0  0
  191.9630  175.5910  147.5370 C   0  0  0  0  0  2  0  0  0  0  0  0
  193.0180  176.1050  148.2930 O   0  0  0  0  0  1  0  0  0  0  0  0
  1  3  1  0  0  0  0
  2  5  1  0  0  0  0
  2  4  1  0  0  0  0
  3  4  2  0  0  0  0
  6  7  1  0  0  0  0
  6  2  2  0  0  0  0
  7  1  2  0  0  0  0
  8 14  1  0  0  0  0
  8 15  1  0  0  0  0
  9 12  2  0  0  0  0
 10 14  1  0  0  0  0
 11  8  2  0  0  0  0
 11  9  1  0  0  0  0
 12 13  1  0  0  0  0
 13  6  1  0  0  0  0
 14 15  1  0  0  0  0
 15 13  2  0  0  0  0
 16 11  1  0  0  0  0
 17 20  1  1  0  0  0
 17 24  1  0  0  0  0
 18 20  2  0  0  0  0
 20 19  1  0  0  0  0
 21 18  1  0  0  0  0
 22 19  1  0  0  0  0
 22 16  1  0  0  0  0
 23 21  1  0  0  0  0
 23 26  1  0  0  0  0
 24 22  2  0  0  0  0
 26 25  1  6  0  0  0
 26 17  1  0  0  0  0
 27  7  1  0  0  0  0
 28 27  1  6  0  0  0
 28 37  1  0  0  0  0
 29 28  1  0  0  0  0
 30 31  2  0  0  0  0
 30 29  1  0  0  0  0
 32 33  1  1  0  0  0
 32 30  1  0  0  0  0
 34 32  1  0  0  0  0
 35 34  1  0  0  0  0
 36 35  1  0  0  0  0
 37 38  1  0  0  0  0
 38 39  1  0  0  0  0
 39 40  1  0  0  0  0
 40 41  1  0  0  0  0
 41 42  1  0  0  0  0
M  END
>  <MODEL>
3

>  <REMARK>
 VINA RESULT:      -7.6      1.334      1.911
  Name = 
  13 active torsions:
  status: ('A' for Active; 'I' for Inactive)
    1  A    between atoms: N_1  and  C_8
    2  A    between atoms: C_3  and  C_41
    3  A    between atoms: C_9  and  N_24
    4  A    between atoms: C_9  and  C_27
    5  A    between atoms: C_9  and  O_32
    6  A    between atoms: C_14  and  C_28
    7  A    between atoms: C_14  and  C_41
    8  A    between atoms: C_15  and  C_33
    9  A    between atoms: C_20  and  C_22
   10  A    between atoms: C_20  and  O_32
   11  A    between atoms: C_22  and  C_33
   12  A    between atoms: C_23  and  C_34
   13  A    between atoms: C_27  and  C_40
                            x       y       z     vdW  Elec       q    Type
                         _______ _______ _______ _____ _____    ______ ____

>  <TORSDO>
F 13

$$$$
=
 OpenBabel11062413173D

 42 46  0  0  1  0  0  0  0  0999 V2000
  185.9260  177.8400  145.6960 N   0  0  0  0  0  0  0  0  0  0  0  0
  188.6470  177.7570  145.9810 C   0  0  0  0  0  0  0  0  0  0  0  0
  186.4850  177.8740  146.9300 C   0  0  0  0  0  3  0  0  0  0  0  0
  187.8330  177.8360  147.0650 N   0  0  0  0  0  0  0  0  0  0  0  0
  190.0580  177.7380  146.1810 N   0  0  0  0  0  1  0  0  0  0  0  0
  188.0960  177.7250  144.6850 C   0  0  0  0  0  0  0  0  0  0  0  0
  186.6890  177.7830  144.5710 C   0  0  0  0  0  0  0  0  0  0  0  0
  190.9160  176.6590  142.3220 C   0  0  0  0  0  0  0  0  0  0  0  0
  189.6450  178.1430  141.1000 C   0  0  0  0  0  3  0  0  0  0  0  0
  192.0180  174.9990  144.2270 C   0  0  0  0  0  1  0  0  0  0  0  0
  190.7930  177.2780  141.1160 C   0  0  0  0  0  0  0  0  0  0  0  0
  188.7610  178.2920  142.2520 C   0  0  0  0  0  3  0  0  0  0  0  0
  188.9720  177.5920  143.4960 C   0  0  0  0  0  0  0  0  0  0  0  0
  191.1940  175.9390  143.4950 N   0  0  0  0  0  0  0  0  0  0  0  0
  190.0850  176.8000  143.4110 C   0  0  0  0  0  0  0  0  0  0  0  0
  191.7270  177.0880  140.0470 N   0  0  0  0  0  2  0  0  0  0  0  0
  192.0470  175.9120  136.5940 C   0  0  1  0  0  3  0  0  0  0  0  0
  190.4640  173.9910  136.3800 C   0  0  0  0  0  3  0  0  0  0  0  0
  189.8580  175.9350  138.2160 S   0  0  0  0  0  0  0  0  0  0  0  0
  190.7630  175.2010  136.8730 C   0  0  0  0  0  0  0  0  0  0  0  0
  191.4040  173.2460  135.4620 C   0  0  0  0  0  2  0  0  0  0  0  0
  191.4570  176.5900  138.7310 C   0  0  0  0  0  0  0  0  0  0  0  0
  192.5620  174.1130  134.9590 C   0  0  0  0  0  2  0  0  0  0  0  0
  192.4150  176.5140  137.8640 N   0  0  0  0  0  0  0  0  0  0  0  0
  194.3250  175.7420  135.5890 C   0  0  0  0  0  1  0  0  0  0  0  0
  193.1330  174.9550  136.0980 C   0  0  1  0  0  3  0  0  0  0  0  0
  186.0030  177.7070  143.2360 C   0  0  0  0  0  2  0  0  0  0  0  0
  184.8400  178.6950  143.0670 C   0  0  1  0  0  3  0  0  0  0  0  0
  184.8270  179.3330  141.7500 N   0  0  0  0  0  2  0  0  0  0  0  0
  184.2410  178.7170  140.6010 C   0  0  0  0  0  0  0  0  0  0  0  0
  183.6650  177.6020  140.6990 O   0  0  0  0  0  0  0  0  0  0  0  0
  184.3430  179.3730  139.2610 C   0  0  1  0  0  3  0  0  0  0  0  0
  185.4900  178.8720  138.5210 N   0  0  0  0  0  1  0  0  0  0  0  0
  183.0560  179.2240  138.4490 C   0  0  0  0  0  2  0  0  0  0  0  0
  181.9470  180.1420  138.9410 C   0  0  0  0  0  2  0  0  0  0  0  0
  180.7120  179.5440  138.7050 O   0  0  0  0  0  1  0  0  0  0  0  0
  183.5800  178.1760  143.4560 O   0  0  0  0  0  0  0  0  0  0  0  0
  182.8520  179.1610  144.1400 C   0  0  0  0  0  2  0  0  0  0  0  0
  181.3690  178.9680  143.8920 C   0  0  0  0  0  2  0  0  0  0  0  0
  181.0370  179.2080  142.4300 C   0  0  0  0  0  2  0  0  0  0  0  0
  180.1840  178.0840  141.8670 C   0  0  0  0  0  2  0  0  0  0  0  0
  178.9330  178.0740  142.4850 O   0  0  0  0  0  1  0  0  0  0  0  0
  1  3  1  0  0  0  0
  2  5  1  0  0  0  0
  2  4  1  0  0  0  0
  3  4  2  0  0  0  0
  6  2  2  0  0  0  0
  7  6  1  0  0  0  0
  7  1  2  0  0  0  0
  8 15  1  0  0  0  0
  8 14  1  0  0  0  0
  9 11  1  0  0  0  0
  9 12  2  0  0  0  0
 11  8  2  0  0  0  0
 12 13  1  0  0  0  0
 13  6  1  0  0  0  0
 14 10  1  0  0  0  0
 15 14  1  0  0  0  0
 15 13  2  0  0  0  0
 16 11  1  0  0  0  0
 17 20  1  1  0  0  0
 17 24  1  0  0  0  0
 18 20  2  0  0  0  0
 19 22  1  0  0  0  0
 20 19  1  0  0  0  0
 21 18  1  0  0  0  0
 22 16  1  0  0  0  0
 23 21  1  0  0  0  0
 23 26  1  0  0  0  0
 24 22  2  0  0  0  0
 26 25  1  6  0  0  0
 26 17  1  0  0  0  0
 27  7  1  0  0  0  0
 28 27  1  6  0  0  0
 28 37  1  0  0  0  0
 29 28  1  0  0  0  0
 30 31  2  0  0  0  0
 30 29  1  0  0  0  0
 32 33  1  6  0  0  0
 32 30  1  0  0  0  0
 34 35  1  0  0  0  0
 34 32  1  0  0  0  0
 36 35  1  0  0  0  0
 37 38  1  0  0  0  0
 39 38  1  0  0  0  0
 40 39  1  0  0  0  0
 41 40  1  0  0  0  0
 41 42  1  0  0  0  0
M  END
>  <MODEL>
4

>  <REMARK>
 VINA RESULT:      -7.6      3.566      7.969
  Name = 
  13 active torsions:
  status: ('A' for Active; 'I' for Inactive)
    1  A    between atoms: N_1  and  C_8
    2  A    between atoms: C_3  and  C_41
    3  A    between atoms: C_9  and  N_24
    4  A    between atoms: C_9  and  C_27
    5  A    between atoms: C_9  and  O_32
    6  A    between atoms: C_14  and  C_28
    7  A    between atoms: C_14  and  C_41
    8  A    between atoms: C_15  and  C_33
    9  A    between atoms: C_20  and  C_22
   10  A    between atoms: C_20  and  O_32
   11  A    between atoms: C_22  and  C_33
   12  A    between atoms: C_23  and  C_34
   13  A    between atoms: C_27  and  C_40
                            x       y       z     vdW  Elec       q    Type
                         _______ _______ _______ _____ _____    ______ ____

>  <TORSDO>
F 13

$$$$
=
 OpenBabel11062413173D

 42 46  0  0  1  0  0  0  0  0999 V2000
  191.3000  177.3920  140.5040 N   0  0  0  0  0  0  0  0  0  0  0  0
  190.9870  176.7000  137.8740 C   0  0  0  0  0  0  0  0  0  0  0  0
  192.3730  177.0240  139.7610 C   0  0  0  0  0  3  0  0  0  0  0  0
  192.2130  176.6860  138.4590 N   0  0  0  0  0  0  0  0  0  0  0  0
  190.8800  176.3520  136.4960 N   0  0  0  0  0  1  0  0  0  0  0  0
  189.8530  177.0820  138.6180 C   0  0  0  0  0  0  0  0  0  0  0  0
  190.0510  177.4460  139.9690 C   0  0  0  0  0  0  0  0  0  0  0  0
  186.6120  175.8880  136.9630 C   0  0  0  0  0  0  0  0  0  0  0  0
  186.3540  178.1660  137.2020 C   0  0  0  0  0  3  0  0  0  0  0  0
  187.4700  173.2680  136.9440 C   0  0  0  0  0  1  0  0  0  0  0  0
  185.7690  176.9350  136.7460 C   0  0  0  0  0  0  0  0  0  0  0  0
  187.6780  178.2230  137.8150 C   0  0  0  0  0  3  0  0  0  0  0  0
  188.5040  177.0560  138.0040 C   0  0  0  0  0  0  0  0  0  0  0  0
  187.3500  174.7020  137.1100 N   0  0  0  0  0  0  0  0  0  0  0  0
  187.8620  175.9400  137.5380 C   0  0  0  0  0  0  0  0  0  0  0  0
  184.4930  176.7850  136.1130 N   0  0  0  0  0  2  0  0  0  0  0  0
  180.9160  176.3530  136.7690 C   0  0  1  0  0  3  0  0  0  0  0  0
  180.7670  174.9150  138.8070 C   0  0  0  0  0  3  0  0  0  0  0  0
  182.9910  176.4940  138.5290 S   0  0  0  0  0  0  0  0  0  0  0  0
  181.3690  175.8930  138.1160 C   0  0  0  0  0  0  0  0  0  0  0  0
  179.5420  174.2030  138.2840 C   0  0  0  0  0  2  0  0  0  0  0  0
  183.2140  176.6580  136.7480 C   0  0  0  0  0  0  0  0  0  0  0  0
  178.9310  174.8870  137.0570 C   0  0  0  0  0  2  0  0  0  0  0  0
  182.1450  176.5670  136.0240 N   0  0  0  0  0  0  0  0  0  0  0  0
  179.3870  175.9170  134.8460 C   0  0  0  0  0  1  0  0  0  0  0  0
  180.0250  175.3140  136.0830 C   0  0  1  0  0  3  0  0  0  0  0  0
  188.8990  177.8220  140.8590 C   0  0  0  0  0  2  0  0  0  0  0  0
  188.8190  177.0130  142.1620 C   0  0  1  0  0  3  0  0  0  0  0  0
  189.7930  177.4530  143.1610 N   0  0  0  0  0  2  0  0  0  0  0  0
  190.7740  176.5760  143.7200 C   0  0  0  0  0  0  0  0  0  0  0  0
  190.8610  175.3830  143.3260 O   0  0  0  0  0  0  0  0  0  0  0  0
  191.6810  177.0560  144.8080 C   0  0  1  0  0  3  0  0  0  0  0  0
  191.8110  178.5040  144.7760 N   0  0  0  0  0  1  0  0  0  0  0  0
  191.2310  176.5720  146.1870 C   0  0  0  0  0  2  0  0  0  0  0  0
  190.0600  177.3750  146.7330 C   0  0  0  0  0  2  0  0  0  0  0  0
  189.1500  176.5140  147.3390 O   0  0  0  0  0  1  0  0  0  0  0  0
  187.5050  176.8760  142.6770 O   0  0  0  0  0  0  0  0  0  0  0  0
  187.5130  177.1020  144.0610 C   0  0  0  0  0  2  0  0  0  0  0  0
  186.3330  177.9730  144.4450 C   0  0  0  0  0  2  0  0  0  0  0  0
  186.4200  178.3750  145.9070 C   0  0  0  0  0  2  0  0  0  0  0  0
  185.0600  178.2970  146.5810 C   0  0  0  0  0  2  0  0  0  0  0  0
  184.1090  178.9830  145.8250 O   0  0  0  0  0  1  0  0  0  0  0  0
  2  4  2  0  0  0  0
  2  6  1  0  0  0  0
  3  1  2  0  0  0  0
  4  3  1  0  0  0  0
  5  2  1  0  0  0  0
  6  7  2  0  0  0  0
  7  1  1  0  0  0  0
  7 27  1  0  0  0  0
  8 14  1  0  0  0  0
  8 15  1  0  0  0  0
  9 12  2  0  0  0  0
 10 14  1  0  0  0  0
 11  8  2  0  0  0  0
 11  9  1  0  0  0  0
 12 13  1  0  0  0  0
 13  6  1  0  0  0  0
 14 15  1  0  0  0  0
 15 13  2  0  0  0  0
 16 11  1  0  0  0  0
 16 22  1  0  0  0  0
 17 24  1  6  0  0  0
 17 20  1  0  0  0  0
 20 19  1  0  0  0  0
 20 18  2  0  0  0  0
 21 18  1  0  0  0  0
 22 19  1  0  0  0  0
 23 21  1  0  0  0  0
 24 22  2  0  0  0  0
 26 25  1  6  0  0  0
 26 17  1  0  0  0  0
 26 23  1  0  0  0  0
 28 27  1  6  0  0  0
 28 37  1  0  0  0  0
 28 29  1  0  0  0  0
 29 30  1  0  0  0  0
 30 32  1  0  0  0  0
 31 30  2  0  0  0  0
 32 33  1  1  0  0  0
 32 34  1  0  0  0  0
 34 35  1  0  0  0  0
 35 36  1  0  0  0  0
 37 38  1  0  0  0  0
 38 39  1  0  0  0  0
 39 40  1  0  0  0  0
 40 41  1  0  0  0  0
 42 41  1  0  0  0  0
M  END
>  <MODEL>
5

>  <REMARK>
 VINA RESULT:      -7.4      2.898      6.209
  Name = 
  13 active torsions:
  status: ('A' for Active; 'I' for Inactive)
    1  A    between atoms: N_1  and  C_8
    2  A    between atoms: C_3  and  C_41
    3  A    between atoms: C_9  and  N_24
    4  A    between atoms: C_9  and  C_27
    5  A    between atoms: C_9  and  O_32
    6  A    between atoms: C_14  and  C_28
    7  A    between atoms: C_14  and  C_41
    8  A    between atoms: C_15  and  C_33
    9  A    between atoms: C_20  and  C_22
   10  A    between atoms: C_20  and  O_32
   11  A    between atoms: C_22  and  C_33
   12  A    between atoms: C_23  and  C_34
   13  A    between atoms: C_27  and  C_40
                            x       y       z     vdW  Elec       q    Type
                         _______ _______ _______ _____ _____    ______ ____

>  <TORSDO>
F 13

$$$$
=
 OpenBabel11062413173D

 42 46  0  0  1  0  0  0  0  0999 V2000
  187.2210  177.6540  145.2970 N   0  0  0  0  0  0  0  0  0  0  0  0
  184.8670  179.0400  145.1300 C   0  0  0  0  0  0  0  0  0  0  0  0
  186.7250  178.2920  146.3850 C   0  0  0  0  0  3  0  0  0  0  0  0
  185.5570  178.9730  146.2980 N   0  0  0  0  0  0  0  0  0  0  0  0
  183.6350  179.7560  145.0990 N   0  0  0  0  0  1  0  0  0  0  0  0
  185.3550  178.3840  143.9820 C   0  0  0  0  0  0  0  0  0  0  0  0
  186.5660  177.6670  144.1050 C   0  0  0  0  0  0  0  0  0  0  0  0
  182.5830  178.6450  141.3520 C   0  0  0  0  0  0  0  0  0  0  0  0
  184.5470  178.6390  140.1470 C   0  0  0  0  0  3  0  0  0  0  0  0
  180.6140  178.6100  143.2820 C   0  0  0  0  0  1  0  0  0  0  0  0
  183.1110  178.6990  140.0990 C   0  0  0  0  0  0  0  0  0  0  0  0
  185.2850  178.5410  141.4030 C   0  0  0  0  0  3  0  0  0  0  0  0
  184.6350  178.4880  142.6900 C   0  0  0  0  0  0  0  0  0  0  0  0
  181.8710  178.6000  142.5620 N   0  0  0  0  0  0  0  0  0  0  0  0
  183.2760  178.5490  142.5380 C   0  0  0  0  0  0  0  0  0  0  0  0
  182.3050  178.7700  138.9180 N   0  0  0  0  0  2  0  0  0  0  0  0
  180.8370  181.0900  136.4940 C   0  0  1  0  0  3  0  0  0  0  0  0
  180.2090  183.1270  137.7960 C   0  0  0  0  0  3  0  0  0  0  0  0
  182.3040  181.6240  138.7270 S   0  0  0  0  0  0  0  0  0  0  0  0
  181.0510  182.1110  137.5640 C   0  0  0  0  0  0  0  0  0  0  0  0
  178.9690  183.3460  136.9630 C   0  0  0  0  0  2  0  0  0  0  0  0
  181.9370  179.9440  138.1830 C   0  0  0  0  0  0  0  0  0  0  0  0
  178.9320  182.4750  135.7040 C   0  0  0  0  0  2  0  0  0  0  0  0
  181.2250  179.8310  137.1070 N   0  0  0  0  0  0  0  0  0  0  0  0
  179.2600  180.1950  134.7790 C   0  0  0  0  0  1  0  0  0  0  0  0
  179.3810  181.0520  136.0250 C   0  0  1  0  0  3  0  0  0  0  0  0
  187.1930  176.9730  142.9290 C   0  0  0  0  0  2  0  0  0  0  0  0
  188.6410  177.3980  142.6440 C   0  0  1  0  0  3  0  0  0  0  0  0
  188.8560  177.7760  141.2470 N   0  0  0  0  0  2  0  0  0  0  0  0
  189.8150  177.1260  140.4110 C   0  0  0  0  0  0  0  0  0  0  0  0
  190.4870  176.1550  140.8470 O   0  0  0  0  0  0  0  0  0  0  0  0
  190.0590  177.6180  139.0210 C   0  0  1  0  0  3  0  0  0  0  0  0
  190.0920  176.5140  138.0750 N   0  0  0  0  0  1  0  0  0  0  0  0
  189.0380  178.6750  138.5970 C   0  0  0  0  0  2  0  0  0  0  0  0
  188.1480  178.2030  137.4580 C   0  0  0  0  0  2  0  0  0  0  0  0
  187.0580  177.5100  137.9780 O   0  0  0  0  0  1  0  0  0  0  0  0
  189.1600  178.3390  143.5700 O   0  0  0  0  0  0  0  0  0  0  0  0
  190.5380  178.1340  143.7310 C   0  0  0  0  0  2  0  0  0  0  0  0
  190.8680  178.0070  145.2050 C   0  0  0  0  0  2  0  0  0  0  0  0
  190.7590  176.5600  145.6530 C   0  0  0  0  0  2  0  0  0  0  0  0
  191.9960  176.1260  146.4220 C   0  0  0  0  0  2  0  0  0  0  0  0
  192.0270  176.7460  147.6710 O   0  0  0  0  0  1  0  0  0  0  0  0
  1  3  1  0  0  0  0
  2  4  1  0  0  0  0
  4  3  2  0  0  0  0
  5  2  1  0  0  0  0
  6  7  1  0  0  0  0
  6  2  2  0  0  0  0
  7  1  2  0  0  0  0
  8 15  1  0  0  0  0
  8 14  1  0  0  0  0
  9 12  2  0  0  0  0
 11  9  1  0  0  0  0
 11  8  2  0  0  0  0
 12 13  1  0  0  0  0
 13  6  1  0  0  0  0
 14 10  1  0  0  0  0
 15 14  1  0  0  0  0
 15 13  2  0  0  0  0
 16 11  1  0  0  0  0
 17 24  1  1  0  0  0
 17 20  1  0  0  0  0
 20 18  2  0  0  0  0
 20 19  1  0  0  0  0
 21 18  1  0  0  0  0
 22 19  1  0  0  0  0
 22 16  1  0  0  0  0
 23 26  1  0  0  0  0
 23 21  1  0  0  0  0
 24 22  2  0  0  0  0
 26 25  1  6  0  0  0
 26 17  1  0  0  0  0
 27  7  1  0  0  0  0
 28 27  1  6  0  0  0
 28 37  1  0  0  0  0
 29 28  1  0  0  0  0
 30 31  2  0  0  0  0
 30 29  1  0  0  0  0
 32 33  1  6  0  0  0
 32 30  1  0  0  0  0
 34 32  1  0  0  0  0
 35 36  1  0  0  0  0
 35 34  1  0  0  0  0
 37 38  1  0  0  0  0
 38 39  1  0  0  0  0
 39 40  1  0  0  0  0
 40 41  1  0  0  0  0
 41 42  1  0  0  0  0
M  END
>  <MODEL>
6

>  <REMARK>
 VINA RESULT:      -7.3      2.061      2.786
  Name = 
  13 active torsions:
  status: ('A' for Active; 'I' for Inactive)
    1  A    between atoms: N_1  and  C_8
    2  A    between atoms: C_3  and  C_41
    3  A    between atoms: C_9  and  N_24
    4  A    between atoms: C_9  and  C_27
    5  A    between atoms: C_9  and  O_32
    6  A    between atoms: C_14  and  C_28
    7  A    between atoms: C_14  and  C_41
    8  A    between atoms: C_15  and  C_33
    9  A    between atoms: C_20  and  C_22
   10  A    between atoms: C_20  and  O_32
   11  A    between atoms: C_22  and  C_33
   12  A    between atoms: C_23  and  C_34
   13  A    between atoms: C_27  and  C_40
                            x       y       z     vdW  Elec       q    Type
                         _______ _______ _______ _____ _____    ______ ____

>  <TORSDO>
F 13

$$$$
=
 OpenBabel11062413173D

 42 46  0  0  1  0  0  0  0  0999 V2000
  187.2470  177.7010  145.1320 N   0  0  0  0  0  0  0  0  0  0  0  0
  184.8110  178.9460  145.0650 C   0  0  0  0  0  0  0  0  0  0  0  0
  186.7270  178.2460  146.2580 C   0  0  0  0  0  3  0  0  0  0  0  0
  185.5190  178.8590  146.2200 N   0  0  0  0  0  0  0  0  0  0  0  0
  183.5370  179.5850  145.0860 N   0  0  0  0  0  1  0  0  0  0  0  0
  185.3220  178.3850  143.8780 C   0  0  0  0  0  0  0  0  0  0  0  0
  186.5760  177.7380  143.9490 C   0  0  0  0  0  0  0  0  0  0  0  0
  182.5050  178.7040  141.3030 C   0  0  0  0  0  0  0  0  0  0  0  0
  184.4470  178.7100  140.0620 C   0  0  0  0  0  3  0  0  0  0  0  0
  180.5710  178.6450  143.2660 C   0  0  0  0  0  1  0  0  0  0  0  0
  183.0120  178.7770  140.0410 C   0  0  0  0  0  0  0  0  0  0  0  0
  185.2070  178.5870  141.3040 C   0  0  0  0  0  3  0  0  0  0  0  0
  184.5800  178.5140  142.6000 C   0  0  0  0  0  0  0  0  0  0  0  0
  181.8150  178.6410  142.5240 N   0  0  0  0  0  0  0  0  0  0  0  0
  183.2190  178.5840  142.4740 C   0  0  0  0  0  0  0  0  0  0  0  0
  182.1840  178.8720  138.8760 N   0  0  0  0  0  2  0  0  0  0  0  0
  180.7820  181.2290  136.4500 C   0  0  1  0  0  3  0  0  0  0  0  0
  180.2830  183.3130  137.7350 C   0  0  0  0  0  3  0  0  0  0  0  0
  182.3200  181.7200  138.6440 S   0  0  0  0  0  0  0  0  0  0  0  0
  181.0680  182.2530  137.5000 C   0  0  0  0  0  0  0  0  0  0  0  0
  179.0370  183.5820  136.9250 C   0  0  0  0  0  2  0  0  0  0  0  0
  181.8590  180.0530  138.1330 C   0  0  0  0  0  0  0  0  0  0  0  0
  178.9310  182.6970  135.6800 C   0  0  0  0  0  2  0  0  0  0  0  0
  181.1200  179.9610  137.0730 N   0  0  0  0  0  0  0  0  0  0  0  0
  179.1260  180.3920  134.7810 C   0  0  0  0  0  1  0  0  0  0  0  0
  179.3150  181.2580  136.0120 C   0  0  1  0  0  3  0  0  0  0  0  0
  187.2290  177.1490  142.7290 C   0  0  0  0  0  2  0  0  0  0  0  0
  188.4050  177.9720  142.1840 C   0  0  1  0  0  3  0  0  0  0  0  0
  189.5210  178.0560  143.1270 N   0  0  0  0  0  2  0  0  0  0  0  0
  190.3740  176.9450  143.4120 C   0  0  0  0  0  0  0  0  0  0  0  0
  190.2160  175.8490  142.8130 O   0  0  0  0  0  0  0  0  0  0  0  0
  191.4380  177.0610  144.4560 C   0  0  1  0  0  3  0  0  0  0  0  0
  192.0130  178.3970  144.4670 N   0  0  0  0  0  1  0  0  0  0  0  0
  190.9290  176.6690  145.8430 C   0  0  0  0  0  2  0  0  0  0  0  0
  192.0350  176.1360  146.7410 C   0  0  0  0  0  2  0  0  0  0  0  0
  191.9900  176.7900  147.9700 O   0  0  0  0  0  1  0  0  0  0  0  0
  188.8000  177.6150  140.8710 O   0  0  0  0  0  0  0  0  0  0  0  0
  188.2900  178.5460  139.9530 C   0  0  0  0  0  2  0  0  0  0  0  0
  189.0120  178.4070  138.6270 C   0  0  0  0  0  2  0  0  0  0  0  0
  189.6760  177.0460  138.5220 C   0  0  0  0  0  2  0  0  0  0  0  0
  189.2920  176.3450  137.2290 C   0  0  0  0  0  2  0  0  0  0  0  0
  189.1570  177.2760  136.1990 O   0  0  0  0  0  1  0  0  0  0  0  0
  1  3  1  0  0  0  0
  2  5  1  0  0  0  0
  2  4  1  0  0  0  0
  4  3  2  0  0  0  0
  6  7  1  0  0  0  0
  6  2  2  0  0  0  0
  7  1  2  0  0  0  0
  8 15  1  0  0  0  0
  8 14  1  0  0  0  0
  9 12  2  0  0  0  0
 11  9  1  0  0  0  0
 11  8  2  0  0  0  0
 12 13  1  0  0  0  0
 13  6  1  0  0  0  0
 14 10  1  0  0  0  0
 15 14  1  0  0  0  0
 15 13  2  0  0  0  0
 16 11  1  0  0  0  0
 17 24  1  1  0  0  0
 17 20  1  0  0  0  0
 20 18  2  0  0  0  0
 20 19  1  0  0  0  0
 21 18  1  0  0  0  0
 22 19  1  0  0  0  0
 22 16  1  0  0  0  0
 23 26  1  0  0  0  0
 23 21  1  0  0  0  0
 24 22  2  0  0  0  0
 26 25  1  6  0  0  0
 26 17  1  0  0  0  0
 27  7  1  0  0  0  0
 28 27  1  1  0  0  0
 28 29  1  0  0  0  0
 29 30  1  0  0  0  0
 30 32  1  0  0  0  0
 31 30  2  0  0  0  0
 32 33  1  1  0  0  0
 32 34  1  0  0  0  0
 34 35  1  0  0  0  0
 35 36  1  0  0  0  0
 37 28  1  0  0  0  0
 38 37  1  0  0  0  0
 39 38  1  0  0  0  0
 40 39  1  0  0  0  0
 41 40  1  0  0  0  0
 42 41  1  0  0  0  0
M  END
>  <MODEL>
7

>  <REMARK>
 VINA RESULT:      -7.3      2.234      5.017
  Name = 
  13 active torsions:
  status: ('A' for Active; 'I' for Inactive)
    1  A    between atoms: N_1  and  C_8
    2  A    between atoms: C_3  and  C_41
    3  A    between atoms: C_9  and  N_24
    4  A    between atoms: C_9  and  C_27
    5  A    between atoms: C_9  and  O_32
    6  A    between atoms: C_14  and  C_28
    7  A    between atoms: C_14  and  C_41
    8  A    between atoms: C_15  and  C_33
    9  A    between atoms: C_20  and  C_22
   10  A    between atoms: C_20  and  O_32
   11  A    between atoms: C_22  and  C_33
   12  A    between atoms: C_23  and  C_34
   13  A    between atoms: C_27  and  C_40
                            x       y       z     vdW  Elec       q    Type
                         _______ _______ _______ _____ _____    ______ ____

>  <TORSDO>
F 13

$$$$
=
 OpenBabel11062413173D

 42 46  0  0  1  0  0  0  0  0999 V2000
  187.4560  177.4840  145.9680 N   0  0  0  0  0  0  0  0  0  0  0  0
  185.0460  178.7480  145.6740 C   0  0  0  0  0  0  0  0  0  0  0  0
  186.7920  177.9500  147.0530 C   0  0  0  0  0  3  0  0  0  0  0  0
  185.5970  178.5720  146.9020 N   0  0  0  0  0  0  0  0  0  0  0  0
  183.7800  179.3940  145.5750 N   0  0  0  0  0  1  0  0  0  0  0  0
  185.7100  178.2700  144.5260 C   0  0  0  0  0  0  0  0  0  0  0  0
  186.9450  177.6110  144.7130 C   0  0  0  0  0  0  0  0  0  0  0  0
  183.2540  178.8000  141.6350 C   0  0  0  0  0  0  0  0  0  0  0  0
  185.3410  178.8720  140.6620 C   0  0  0  0  0  3  0  0  0  0  0  0
  181.0800  178.6230  143.3210 C   0  0  0  0  0  1  0  0  0  0  0  0
  183.9210  178.9560  140.4590 C   0  0  0  0  0  0  0  0  0  0  0  0
  185.9320  178.6540  141.9800 C   0  0  0  0  0  3  0  0  0  0  0  0
  185.1410  178.4970  143.1750 C   0  0  0  0  0  0  0  0  0  0  0  0
  182.4100  178.6590  142.7490 N   0  0  0  0  0  0  0  0  0  0  0  0
  183.8080  178.5900  142.8780 C   0  0  0  0  0  0  0  0  0  0  0  0
  183.2530  179.1420  139.2060 N   0  0  0  0  0  2  0  0  0  0  0  0
  181.0910  177.4950  136.7520 C   0  0  1  0  0  3  0  0  0  0  0  0
  181.7920  175.0970  136.7280 C   0  0  0  0  0  3  0  0  0  0  0  0
  182.1610  176.5030  139.0530 S   0  0  0  0  0  0  0  0  0  0  0  0
  181.5650  176.2340  137.3990 C   0  0  0  0  0  0  0  0  0  0  0  0
  181.5560  174.9840  135.2410 C   0  0  0  0  0  2  0  0  0  0  0  0
  182.4110  178.2070  138.5200 C   0  0  0  0  0  0  0  0  0  0  0  0
  180.7980  176.1820  134.6630 C   0  0  0  0  0  2  0  0  0  0  0  0
  181.8500  178.5480  137.4040 N   0  0  0  0  0  0  0  0  0  0  0  0
  180.6230  178.6560  134.5940 C   0  0  0  0  0  1  0  0  0  0  0  0
  181.3390  177.4870  135.2410 C   0  0  1  0  0  3  0  0  0  0  0  0
  187.7530  177.1070  143.5500 C   0  0  0  0  0  2  0  0  0  0  0  0
  189.1090  177.8070  143.3740 C   0  0  1  0  0  3  0  0  0  0  0  0
  189.8890  177.8480  144.6110 N   0  0  0  0  0  2  0  0  0  0  0  0
  190.7660  176.7900  145.0050 C   0  0  0  0  0  0  0  0  0  0  0  0
  190.9330  175.7890  144.2600 O   0  0  0  0  0  0  0  0  0  0  0  0
  191.4640  176.8430  146.3260 C   0  0  1  0  0  3  0  0  0  0  0  0
  190.5100  176.9970  147.4130 N   0  0  0  0  0  1  0  0  0  0  0  0
  192.3640  175.6280  146.5510 C   0  0  0  0  0  2  0  0  0  0  0  0
  192.4320  175.2160  148.0140 C   0  0  0  0  0  2  0  0  0  0  0  0
  193.4640  175.9090  148.6420 O   0  0  0  0  0  1  0  0  0  0  0  0
  189.8500  177.3560  142.2530 O   0  0  0  0  0  0  0  0  0  0  0  0
  188.9820  177.1080  141.1800 C   0  0  0  0  0  2  0  0  0  0  0  0
  189.6500  177.5030  139.8780 C   0  0  0  0  0  2  0  0  0  0  0  0
  189.0170  176.7670  138.7090 C   0  0  0  0  0  2  0  0  0  0  0  0
  188.2990  177.7280  137.7770 C   0  0  0  0  0  2  0  0  0  0  0  0
  188.8110  179.0180  137.9280 O   0  0  0  0  0  1  0  0  0  0  0  0
  1  3  1  0  0  0  0
  2  4  1  0  0  0  0
  4  3  2  0  0  0  0
  5  2  1  0  0  0  0
  6  7  1  0  0  0  0
  6  2  2  0  0  0  0
  7  1  2  0  0  0  0
  8 14  1  0  0  0  0
  8 15  1  0  0  0  0
  9 12  2  0  0  0  0
 11  9  1  0  0  0  0
 11  8  2  0  0  0  0
 12 13  1  0  0  0  0
 13  6  1  0  0  0  0
 14 15  1  0  0  0  0
 14 10  1  0  0  0  0
 15 13  2  0  0  0  0
 16 11  1  0  0  0  0
 17 20  1  1  0  0  0
 17 24  1  0  0  0  0
 18 20  2  0  0  0  0
 20 19  1  0  0  0  0
 21 18  1  0  0  0  0
 22 19  1  0  0  0  0
 22 16  1  0  0  0  0
 23 26  1  0  0  0  0
 23 21  1  0  0  0  0
 24 22  2  0  0  0  0
 26 25  1  6  0  0  0
 26 17  1  0  0  0  0
 27  7  1  0  0  0  0
 28 27  1  1  0  0  0
 28 29  1  0  0  0  0
 29 30  1  0  0  0  0
 30 32  1  0  0  0  0
 31 30  2  0  0  0  0
 32 34  1  0  0  0  0
 32 33  1  1  0  0  0
 34 35  1  0  0  0  0
 35 36  1  0  0  0  0
 37 28  1  0  0  0  0
 38 37  1  0  0  0  0
 39 38  1  0  0  0  0
 40 39  1  0  0  0  0
 41 42  1  0  0  0  0
 41 40  1  0  0  0  0
M  END
>  <MODEL>
8

>  <REMARK>
 VINA RESULT:      -7.2      1.378      4.571
  Name = 
  13 active torsions:
  status: ('A' for Active; 'I' for Inactive)
    1  A    between atoms: N_1  and  C_8
    2  A    between atoms: C_3  and  C_41
    3  A    between atoms: C_9  and  N_24
    4  A    between atoms: C_9  and  C_27
    5  A    between atoms: C_9  and  O_32
    6  A    between atoms: C_14  and  C_28
    7  A    between atoms: C_14  and  C_41
    8  A    between atoms: C_15  and  C_33
    9  A    between atoms: C_20  and  C_22
   10  A    between atoms: C_20  and  O_32
   11  A    between atoms: C_22  and  C_33
   12  A    between atoms: C_23  and  C_34
   13  A    between atoms: C_27  and  C_40
                            x       y       z     vdW  Elec       q    Type
                         _______ _______ _______ _____ _____    ______ ____

>  <TORSDO>
F 13

$$$$
=
 OpenBabel11062413173D

 42 46  0  0  1  0  0  0  0  0999 V2000
  191.4910  176.9210  140.0400 N   0  0  0  0  0  0  0  0  0  0  0  0
  190.9480  176.7480  137.3630 C   0  0  0  0  0  0  0  0  0  0  0  0
  192.5020  176.8290  139.1420 C   0  0  0  0  0  3  0  0  0  0  0  0
  192.2280  176.7470  137.8170 N   0  0  0  0  0  0  0  0  0  0  0  0
  190.7180  176.6780  135.9580 N   0  0  0  0  0  1  0  0  0  0  0  0
  189.8750  176.8480  138.2720 C   0  0  0  0  0  0  0  0  0  0  0  0
  190.1900  176.9490  139.6450 C   0  0  0  0  0  0  0  0  0  0  0  0
  186.5320  175.6260  136.8590 C   0  0  0  0  0  0  0  0  0  0  0  0
  186.2130  177.8670  137.2850 C   0  0  0  0  0  3  0  0  0  0  0  0
  187.4820  173.0540  136.5680 C   0  0  0  0  0  1  0  0  0  0  0  0
  185.6320  176.6450  136.8000 C   0  0  0  0  0  0  0  0  0  0  0  0
  187.5890  177.9420  137.7680 C   0  0  0  0  0  3  0  0  0  0  0  0
  188.4730  176.8030  137.7910 C   0  0  0  0  0  0  0  0  0  0  0  0
  187.3250  174.4670  136.8470 N   0  0  0  0  0  0  0  0  0  0  0  0
  187.8300  175.6940  137.3110 C   0  0  0  0  0  0  0  0  0  0  0  0
  184.3060  176.4830  136.2850 N   0  0  0  0  0  2  0  0  0  0  0  0
  181.3630  174.3050  136.3720 C   0  0  1  0  0  3  0  0  0  0  0  0
  182.2460  171.9740  136.5520 C   0  0  0  0  0  3  0  0  0  0  0  0
  183.7780  173.9950  137.5950 S   0  0  0  0  0  0  0  0  0  0  0  0
  182.3230  173.2740  136.8700 C   0  0  0  0  0  0  0  0  0  0  0  0
  181.1470  171.4290  135.6730 C   0  0  0  0  0  2  0  0  0  0  0  0
  183.3740  175.4380  136.5910 C   0  0  0  0  0  0  0  0  0  0  0  0
  180.0230  172.4390  135.4240 C   0  0  0  0  0  2  0  0  0  0  0  0
  182.1920  175.4570  136.0630 N   0  0  0  0  0  0  0  0  0  0  0  0
  179.4700  174.7810  134.8180 C   0  0  0  0  0  1  0  0  0  0  0  0
  180.6010  173.8220  135.1350 C   0  0  1  0  0  3  0  0  0  0  0  0
  189.1170  177.0110  140.6960 C   0  0  0  0  0  2  0  0  0  0  0  0
  189.0350  178.3550  141.4340 C   0  0  1  0  0  3  0  0  0  0  0  0
  187.7220  178.9890  141.3100 N   0  0  0  0  0  2  0  0  0  0  0  0
  186.5860  178.5640  142.0650 C   0  0  0  0  0  0  0  0  0  0  0  0
  186.6930  177.6410  142.9140 O   0  0  0  0  0  0  0  0  0  0  0  0
  185.2470  179.1850  141.8250 C   0  0  1  0  0  3  0  0  0  0  0  0
  185.0080  179.3760  140.4040 N   0  0  0  0  0  1  0  0  0  0  0  0
  184.1160  178.3830  142.4710 C   0  0  0  0  0  2  0  0  0  0  0  0
  183.5210  179.0860  143.6820 C   0  0  0  0  0  2  0  0  0  0  0  0
  184.3010  178.8170  144.8040 O   0  0  0  0  0  1  0  0  0  0  0  0
  189.5170  178.3130  142.7660 O   0  0  0  0  0  0  0  0  0  0  0  0
  189.8420  176.9920  143.1110 C   0  0  0  0  0  2  0  0  0  0  0  0
  190.2410  176.9270  144.5720 C   0  0  0  0  0  2  0  0  0  0  0  0
  189.2660  177.7160  145.4270 C   0  0  0  0  0  2  0  0  0  0  0  0
  189.0470  177.0460  146.7730 C   0  0  0  0  0  2  0  0  0  0  0  0
  189.4150  177.9100  147.8060 O   0  0  0  0  0  1  0  0  0  0  0  0
  2  4  2  0  0  0  0
  2  6  1  0  0  0  0
  3  1  2  0  0  0  0
  4  3  1  0  0  0  0
  5  2  1  0  0  0  0
  6  7  2  0  0  0  0
  7  1  1  0  0  0  0
  7 27  1  0  0  0  0
  8 15  1  0  0  0  0
  9 12  2  0  0  0  0
 10 14  1  0  0  0  0
 11  8  2  0  0  0  0
 11  9  1  0  0  0  0
 12 13  1  0  0  0  0
 13  6  1  0  0  0  0
 14  8  1  0  0  0  0
 14 15  1  0  0  0  0
 15 13  2  0  0  0  0
 16 22  1  0  0  0  0
 16 11  1  0  0  0  0
 17 24  1  6  0  0  0
 17 20  1  0  0  0  0
 18 20  2  0  0  0  0
 20 19  1  0  0  0  0
 21 18  1  0  0  0  0
 22 19  1  0  0  0  0
 23 21  1  0  0  0  0
 24 22  2  0  0  0  0
 26 25  1  1  0  0  0
 26 23  1  0  0  0  0
 26 17  1  0  0  0  0
 28 27  1  1  0  0  0
 28 37  1  0  0  0  0
 29 28  1  0  0  0  0
 29 30  1  0  0  0  0
 30 31  2  0  0  0  0
 32 33  1  6  0  0  0
 32 30  1  0  0  0  0
 32 34  1  0  0  0  0
 34 35  1  0  0  0  0
 35 36  1  0  0  0  0
 37 38  1  0  0  0  0
 38 39  1  0  0  0  0
 39 40  1  0  0  0  0
 40 41  1  0  0  0  0
 41 42  1  0  0  0  0
M  END
>  <MODEL>
9

>  <REMARK>
 VINA RESULT:      -7.1      2.785      6.006
  Name = 
  13 active torsions:
  status: ('A' for Active; 'I' for Inactive)
    1  A    between atoms: N_1  and  C_8
    2  A    between atoms: C_3  and  C_41
    3  A    between atoms: C_9  and  N_24
    4  A    between atoms: C_9  and  C_27
    5  A    between atoms: C_9  and  O_32
    6  A    between atoms: C_14  and  C_28
    7  A    between atoms: C_14  and  C_41
    8  A    between atoms: C_15  and  C_33
    9  A    between atoms: C_20  and  C_22
   10  A    between atoms: C_20  and  O_32
   11  A    between atoms: C_22  and  C_33
   12  A    between atoms: C_23  and  C_34
   13  A    between atoms: C_27  and  C_40
                            x       y       z     vdW  Elec       q    Type
                         _______ _______ _______ _____ _____    ______ ____

>  <TORSDO>
F 13

$$$$
