=
 OpenBabel11062412233D

 43 47  0  0  1  0  0  0  0  0999 V2000
  189.9440  177.9280  139.6580 C   0  0  0  0  0  1  0  0  0  0  0  0
  186.4280  178.6780  139.8930 C   0  0  2  0  0  3  0  0  0  0  0  0
  188.5370  177.4180  139.9270 C   0  0  1  0  0  3  0  0  0  0  0  0
  188.0800  177.7900  141.3040 C   0  0  0  0  0  0  0  0  0  0  0  0
  187.5580  178.1480  139.0050 C   0  0  1  0  0  3  0  0  0  0  0  0
  186.9300  178.4580  141.2840 C   0  0  0  0  0  0  0  0  0  0  0  0
  187.1980  178.3150  136.5020 C   0  0  0  0  0  0  0  0  0  0  0  0
  186.7910  176.3010  135.0840 C   0  0  0  0  0  2  0  0  0  0  0  0
  187.0590  177.7250  135.2090 N   0  0  0  0  0  2  0  0  0  0  0  0
  187.3790  179.5560  136.6090 O   0  0  0  0  0  0  0  0  0  0  0  0
  187.1310  177.4230  137.7150 C   0  0  1  0  0  3  0  0  0  0  0  0
  187.9920  174.4090  135.8170 O   0  0  0  0  0  0  0  0  0  0  0  0
  187.5810  175.5210  136.1000 C   0  0  0  0  0  0  0  0  0  0  0  0
  187.8590  176.0880  137.4680 C   0  0  0  0  0  2  0  0  0  0  0  0
  188.7880  177.3630  142.5320 C   0  0  0  0  0  0  0  0  0  0  0  0
  190.3530  177.8540  144.4460 C   0  0  0  0  0  1  0  0  0  0  0  0
  188.6350  176.1820  142.9480 O   0  0  0  0  0  0  0  0  0  0  0  0
  189.6010  178.2830  143.2710 N   0  0  0  0  0  2  0  0  0  0  0  0
  184.0220  178.6520  139.2960 C   0  0  0  0  0  0  0  0  0  0  0  0
  183.9330  180.1290  139.0230 C   0  0  0  0  0  1  0  0  0  0  0  0
  185.1270  178.0640  139.6310 N   0  0  0  0  0  0  0  0  0  0  0  0
  182.8090  177.7890  139.1070 C   0  0  2  0  0  3  0  0  0  0  0  0
  182.8200  176.7420  140.0300 O   0  0  0  0  0  1  0  0  0  0  0  0
  181.9010  178.1280  136.8090 C   0  0  1  0  0  3  0  0  0  0  0  0
  182.7550  177.2310  137.6910 C   0  0  2  0  0  3  0  0  0  0  0  0
  181.2620  175.8680  136.1970 N   0  0  0  0  0  0  0  0  0  0  0  0
  182.2110  177.8960  135.3470 C   0  0  0  0  0  2  0  0  0  0  0  0
  181.3250  176.8230  137.3220 C   0  0  2  0  0  3  0  0  0  0  0  0
  182.0750  176.4100  135.1110 C   0  0  0  0  0  2  0  0  0  0  0  0
  181.7760  174.5420  136.6090 C   0  0  1  0  0  3  0  0  0  0  0  0
  180.9300  173.4150  136.0250 C   0  0  0  0  0  1  0  0  0  0  0  0
  184.1690  172.0580  136.2080 C   0  0  1  0  0  3  0  0  0  0  0  0
  185.0820  172.8490  137.5680 S   0  0  0  0  0  0  0  0  0  0  0  0
  184.2940  174.4440  137.2650 C   0  0  0  0  0  2  0  0  0  0  0  0
  183.2360  174.2790  136.1870 C   0  0  1  0  0  3  0  0  0  0  0  0
  183.2940  170.9340  136.7280 C   0  0  0  0  0  1  0  0  0  0  0  0
  183.3710  173.0230  135.4530 N   0  0  0  0  0  2  0  0  0  0  0  0
  186.2710  178.9000  142.4380 O   0  0  0  0  0  0  0  0  0  0  0  0
  185.3580  178.0780  143.1500 C   0  0  0  0  0  2  0  0  0  0  0  0
  185.6970  178.1090  144.6300 C   0  0  0  0  0  2  0  0  0  0  0  0
  184.7310  179.0180  145.3860 C   0  0  2  0  0  3  0  0  0  0  0  0
  184.6870  178.6730  146.7450 O   0  0  0  0  0  1  0  0  0  0  0  0
  183.3440  178.8930  144.7890 C   0  0  0  0  0  1  0  0  0  0  0  0
  2 21  1  1  0  0  0
  2  6  1  0  0  0  0
  3  1  1  6  0  0  0
  3  4  1  0  0  0  0
  4 15  1  0  0  0  0
  5 11  1  6  0  0  0
  5  2  1  0  0  0  0
  5  3  1  0  0  0  0
  6  4  2  0  0  0  0
  6 38  1  0  0  0  0
  7 10  2  0  0  0  0
  7 11  1  0  0  0  0
  8  9  1  0  0  0  0
  8 13  1  0  0  0  0
  9  7  1  0  0  0  0
 11 14  1  6  0  0  0
 12 13  2  0  0  0  0
 13 14  1  0  0  0  0
 15 17  2  0  0  0  0
 15 18  1  0  0  0  0
 18 16  1  0  0  0  0
 19 21  2  0  0  0  0
 20 19  1  0  0  0  0
 22 19  1  0  0  0  0
 22 23  1  1  0  0  0
 24 27  1  6  0  0  0
 24 28  1  0  0  0  0
 24 25  1  0  0  0  0
 25 22  1  1  0  0  0
 26 30  1  0  0  0  0
 28 26  1  6  0  0  0
 28 25  1  0  0  0  0
 29 27  1  0  0  0  0
 29 26  1  0  0  0  0
 30 31  1  6  0  0  0
 32 36  1  1  0  0  0
 32 33  1  0  0  0  0
 34 33  1  0  0  0  0
 35 30  1  1  0  0  0
 35 34  1  0  0  0  0
 37 35  1  0  0  0  0
 37 32  1  0  0  0  0
 38 39  1  0  0  0  0
 39 40  1  0  0  0  0
 40 41  1  0  0  0  0
 41 43  1  6  0  0  0
 41 42  1  0  0  0  0
M  END
>  <MODEL>
1

>  <REMARK>
 VINA RESULT:      -6.8      0.000      0.000
  Name = 
  11 active torsions:
  status: ('A' for Active; 'I' for Inactive)
    1  A    between atoms: C_7  and  N_23
    2  A    between atoms: C_8  and  C_37
    3  A    between atoms: C_9  and  C_32
    4  A    between atoms: C_11  and  C_18
    5  A    between atoms: C_11  and  N_26
    6  A    between atoms: C_16  and  C_30
    7  A    between atoms: C_19  and  C_35
    8  A    between atoms: C_24  and  C_30
    9  A    between atoms: C_28  and  C_37
   10  A    between atoms: C_28  and  O_42
   11  A    between atoms: C_39  and  O_42
                            x       y       z     vdW  Elec       q    Type
                         _______ _______ _______ _____ _____    ______ ____

>  <TORSDO>
F 11

$$$$
=
 OpenBabel11062412233D

 43 47  0  0  1  0  0  0  0  0999 V2000
  191.6680  177.1660  142.1180 C   0  0  0  0  0  1  0  0  0  0  0  0
  189.4000  178.1850  139.5100 C   0  0  2  0  0  3  0  0  0  0  0  0
  190.5470  176.7790  141.1670 C   0  0  1  0  0  3  0  0  0  0  0  0
  189.2210  177.2670  141.6630 C   0  0  0  0  0  0  0  0  0  0  0  0
  190.7390  177.5200  139.8420 C   0  0  1  0  0  3  0  0  0  0  0  0
  188.5950  178.0160  140.7590 C   0  0  0  0  0  0  0  0  0  0  0  0
  192.9250  176.7440  138.8190 C   0  0  0  0  0  0  0  0  0  0  0  0
  193.0010  175.0760  136.9630 C   0  0  0  0  0  2  0  0  0  0  0  0
  193.6790  175.8800  137.9690 N   0  0  0  0  0  2  0  0  0  0  0  0
  193.5180  177.4770  139.6530 O   0  0  0  0  0  0  0  0  0  0  0  0
  191.4220  176.7500  138.6970 C   0  0  1  0  0  3  0  0  0  0  0  0
  191.3190  173.4340  137.1410 O   0  0  0  0  0  0  0  0  0  0  0  0
  191.7070  174.5300  137.5040 C   0  0  0  0  0  0  0  0  0  0  0  0
  190.8760  175.3270  138.4750 C   0  0  0  0  0  2  0  0  0  0  0  0
  188.6500  176.8660  142.9680 C   0  0  0  0  0  0  0  0  0  0  0  0
  188.0850  177.3880  145.3690 C   0  0  0  0  0  1  0  0  0  0  0  0
  188.1790  175.7030  143.1010 O   0  0  0  0  0  0  0  0  0  0  0  0
  188.5870  177.7930  144.0600 N   0  0  0  0  0  2  0  0  0  0  0  0
  188.4830  178.2770  137.2080 C   0  0  0  0  0  0  0  0  0  0  0  0
  188.9070  179.6980  136.9490 C   0  0  0  0  0  1  0  0  0  0  0  0
  188.7520  177.6540  138.3130 N   0  0  0  0  0  0  0  0  0  0  0  0
  187.7830  177.5040  136.1300 C   0  0  2  0  0  3  0  0  0  0  0  0
  186.8340  178.3130  135.5030 O   0  0  0  0  0  1  0  0  0  0  0  0
  187.8830  175.0170  136.2960 C   0  0  1  0  0  3  0  0  0  0  0  0
  187.1110  176.2630  136.7030 C   0  0  2  0  0  3  0  0  0  0  0  0
  185.5470  174.4150  136.0240 N   0  0  0  0  0  0  0  0  0  0  0  0
  187.5520  173.8590  137.2110 C   0  0  0  0  0  2  0  0  0  0  0  0
  186.5920  175.3600  135.5790 C   0  0  2  0  0  3  0  0  0  0  0  0
  186.0470  173.7340  137.2160 C   0  0  0  0  0  2  0  0  0  0  0  0
  184.2910  175.1350  136.3330 C   0  0  1  0  0  3  0  0  0  0  0  0
  183.3350  175.1140  135.1440 C   0  0  0  0  0  1  0  0  0  0  0  0
  181.1280  174.3060  137.5030 C   0  0  1  0  0  3  0  0  0  0  0  0
  181.3320  175.6420  138.7220 S   0  0  0  0  0  0  0  0  0  0  0  0
  183.1320  175.5510  138.6270 C   0  0  0  0  0  2  0  0  0  0  0  0
  183.5240  174.5620  137.5420 C   0  0  1  0  0  3  0  0  0  0  0  0
  180.3890  174.8040  136.2760 C   0  0  0  0  0  1  0  0  0  0  0  0
  182.4100  173.7130  137.1250 N   0  0  0  0  0  2  0  0  0  0  0  0
  187.3280  178.5760  140.9600 O   0  0  0  0  0  0  0  0  0  0  0  0
  186.2210  178.2660  140.1250 C   0  0  0  0  0  2  0  0  0  0  0  0
  184.9810  178.9700  140.6450 C   0  0  0  0  0  2  0  0  0  0  0  0
  184.0020  179.2500  139.5090 C   0  0  2  0  0  3  0  0  0  0  0  0
  184.1660  180.5570  139.0240 O   0  0  0  0  0  1  0  0  0  0  0  0
  182.5830  179.0710  140.0060 C   0  0  0  0  0  1  0  0  0  0  0  0
  2 21  1  6  0  0  0
  2  5  1  0  0  0  0
  2  6  1  0  0  0  0
  3  4  1  0  0  0  0
  3  1  1  1  0  0  0
  4 15  1  0  0  0  0
  5 11  1  6  0  0  0
  5  3  1  0  0  0  0
  6 38  1  0  0  0  0
  6  4  2  0  0  0  0
  7 10  2  0  0  0  0
  8 13  1  0  0  0  0
  8  9  1  0  0  0  0
  9  7  1  0  0  0  0
 11 14  1  1  0  0  0
 11  7  1  0  0  0  0
 12 13  2  0  0  0  0
 13 14  1  0  0  0  0
 15 17  2  0  0  0  0
 15 18  1  0  0  0  0
 18 16  1  0  0  0  0
 19 21  2  0  0  0  0
 20 19  1  0  0  0  0
 22 23  1  1  0  0  0
 22 19  1  0  0  0  0
 24 25  1  0  0  0  0
 24 27  1  1  0  0  0
 25 22  1  6  0  0  0
 26 30  1  0  0  0  0
 26 29  1  0  0  0  0
 27 29  1  0  0  0  0
 28 26  1  1  0  0  0
 28 24  1  0  0  0  0
 28 25  1  0  0  0  0
 30 31  1  6  0  0  0
 32 36  1  6  0  0  0
 32 33  1  0  0  0  0
 34 33  1  0  0  0  0
 35 30  1  6  0  0  0
 35 34  1  0  0  0  0
 37 32  1  0  0  0  0
 37 35  1  0  0  0  0
 39 40  1  0  0  0  0
 39 38  1  0  0  0  0
 41 43  1  1  0  0  0
 41 40  1  0  0  0  0
 42 41  1  0  0  0  0
M  END
>  <MODEL>
2

>  <REMARK>
 VINA RESULT:      -6.4      2.626      4.534
  Name = 
  11 active torsions:
  status: ('A' for Active; 'I' for Inactive)
    1  A    between atoms: C_7  and  N_23
    2  A    between atoms: C_8  and  C_37
    3  A    between atoms: C_9  and  C_32
    4  A    between atoms: C_11  and  C_18
    5  A    between atoms: C_11  and  N_26
    6  A    between atoms: C_16  and  C_30
    7  A    between atoms: C_19  and  C_35
    8  A    between atoms: C_24  and  C_30
    9  A    between atoms: C_28  and  C_37
   10  A    between atoms: C_28  and  O_42
   11  A    between atoms: C_39  and  O_42
                            x       y       z     vdW  Elec       q    Type
                         _______ _______ _______ _____ _____    ______ ____

>  <TORSDO>
F 11

$$$$
=
 OpenBabel11062412233D

 43 47  0  0  1  0  0  0  0  0999 V2000
  191.7070  177.4140  142.0740 C   0  0  0  0  0  1  0  0  0  0  0  0
  189.2270  177.9490  139.5160 C   0  0  2  0  0  3  0  0  0  0  0  0
  190.6280  176.8150  141.1850 C   0  0  1  0  0  3  0  0  0  0  0  0
  189.2600  177.1210  141.7120 C   0  0  0  0  0  0  0  0  0  0  0  0
  190.6620  177.5110  139.8240 C   0  0  1  0  0  3  0  0  0  0  0  0
  188.4980  177.7210  140.8010 C   0  0  0  0  0  0  0  0  0  0  0  0
  192.9140  176.8840  138.8440 C   0  0  0  0  0  0  0  0  0  0  0  0
  193.1360  175.2460  136.9720 C   0  0  0  0  0  2  0  0  0  0  0  0
  193.7390  176.0770  138.0020 N   0  0  0  0  0  2  0  0  0  0  0  0
  193.4410  177.6400  139.7000 O   0  0  0  0  0  0  0  0  0  0  0  0
  191.4170  176.7980  138.6860 C   0  0  1  0  0  3  0  0  0  0  0  0
  191.5540  173.5020  137.0930 O   0  0  0  0  0  0  0  0  0  0  0  0
  191.8650  174.6150  137.4760 C   0  0  0  0  0  0  0  0  0  0  0  0
  190.9640  175.3480  138.4360 C   0  0  0  0  0  2  0  0  0  0  0  0
  188.8000  176.7020  143.0550 C   0  0  0  0  0  0  0  0  0  0  0  0
  188.6290  177.1000  145.5380 C   0  0  0  0  0  1  0  0  0  0  0  0
  188.1710  175.6160  143.1770 O   0  0  0  0  0  0  0  0  0  0  0  0
  189.0210  177.5340  144.2010 N   0  0  0  0  0  2  0  0  0  0  0  0
  188.4010  177.7480  137.1870 C   0  0  0  0  0  0  0  0  0  0  0  0
  188.8280  179.1300  136.7710 C   0  0  0  0  0  1  0  0  0  0  0  0
  188.6290  177.2680  138.3690 N   0  0  0  0  0  0  0  0  0  0  0  0
  187.7480  176.8420  136.1850 C   0  0  2  0  0  3  0  0  0  0  0  0
  187.4850  177.5430  135.0080 O   0  0  0  0  0  1  0  0  0  0  0  0
  186.3640  174.7790  136.4120 C   0  0  1  0  0  3  0  0  0  0  0  0
  186.4560  176.2600  136.7440 C   0  0  2  0  0  3  0  0  0  0  0  0
  184.1300  175.6430  136.0130 N   0  0  0  0  0  0  0  0  0  0  0  0
  185.3840  174.0830  137.3300 C   0  0  0  0  0  2  0  0  0  0  0  0
  185.5460  175.7730  135.6110 C   0  0  2  0  0  3  0  0  0  0  0  0
  184.0930  174.8630  137.2470 C   0  0  0  0  0  2  0  0  0  0  0  0
  183.5250  176.9770  136.2300 C   0  0  1  0  0  3  0  0  0  0  0  0
  182.3230  177.1930  135.3170 C   0  0  0  0  0  1  0  0  0  0  0  0
  181.5000  178.9860  138.2100 C   0  0  1  0  0  3  0  0  0  0  0  0
  183.0270  179.5880  138.9960 S   0  0  0  0  0  0  0  0  0  0  0  0
  183.9330  178.0930  138.5470 C   0  0  0  0  0  2  0  0  0  0  0  0
  183.0470  177.2170  137.6760 C   0  0  1  0  0  3  0  0  0  0  0  0
  181.0740  179.9090  137.0840 C   0  0  0  0  0  1  0  0  0  0  0  0
  181.6420  177.6150  137.7240 N   0  0  0  0  0  2  0  0  0  0  0  0
  187.1670  178.0920  141.0290 O   0  0  0  0  0  0  0  0  0  0  0  0
  186.8210  179.2410  141.7900 C   0  0  0  0  0  2  0  0  0  0  0  0
  185.3290  179.2290  142.0720 C   0  0  0  0  0  2  0  0  0  0  0  0
  185.0650  179.0840  143.5680 C   0  0  2  0  0  3  0  0  0  0  0  0
  185.5610  177.8600  144.0430 O   0  0  0  0  0  1  0  0  0  0  0  0
  183.5750  179.1590  143.8300 C   0  0  0  0  0  1  0  0  0  0  0  0
  2 21  1  6  0  0  0
  2  5  1  0  0  0  0
  2  6  1  0  0  0  0
  3  4  1  0  0  0  0
  3  1  1  1  0  0  0
  4 15  1  0  0  0  0
  5 11  1  6  0  0  0
  5  3  1  0  0  0  0
  6 38  1  0  0  0  0
  6  4  2  0  0  0  0
  7 10  2  0  0  0  0
  8 13  1  0  0  0  0
  8  9  1  0  0  0  0
  9  7  1  0  0  0  0
 11 14  1  1  0  0  0
 11  7  1  0  0  0  0
 12 13  2  0  0  0  0
 13 14  1  0  0  0  0
 15 17  2  0  0  0  0
 15 18  1  0  0  0  0
 18 16  1  0  0  0  0
 19 21  2  0  0  0  0
 20 19  1  0  0  0  0
 22 23  1  6  0  0  0
 22 19  1  0  0  0  0
 24 25  1  0  0  0  0
 24 27  1  1  0  0  0
 25 22  1  6  0  0  0
 26 30  1  0  0  0  0
 26 29  1  0  0  0  0
 28 26  1  1  0  0  0
 28 24  1  0  0  0  0
 28 25  1  0  0  0  0
 29 27  1  0  0  0  0
 30 31  1  6  0  0  0
 32 36  1  6  0  0  0
 32 33  1  0  0  0  0
 34 33  1  0  0  0  0
 35 30  1  6  0  0  0
 35 37  1  0  0  0  0
 35 34  1  0  0  0  0
 37 32  1  0  0  0  0
 38 39  1  0  0  0  0
 39 40  1  0  0  0  0
 40 41  1  0  0  0  0
 41 43  1  6  0  0  0
 41 42  1  0  0  0  0
M  END
>  <MODEL>
3

>  <REMARK>
 VINA RESULT:      -6.3      2.700      4.522
  Name = 
  11 active torsions:
  status: ('A' for Active; 'I' for Inactive)
    1  A    between atoms: C_7  and  N_23
    2  A    between atoms: C_8  and  C_37
    3  A    between atoms: C_9  and  C_32
    4  A    between atoms: C_11  and  C_18
    5  A    between atoms: C_11  and  N_26
    6  A    between atoms: C_16  and  C_30
    7  A    between atoms: C_19  and  C_35
    8  A    between atoms: C_24  and  C_30
    9  A    between atoms: C_28  and  C_37
   10  A    between atoms: C_28  and  O_42
   11  A    between atoms: C_39  and  O_42
                            x       y       z     vdW  Elec       q    Type
                         _______ _______ _______ _____ _____    ______ ____

>  <TORSDO>
F 11

$$$$
=
 OpenBabel11062412233D

 43 47  0  0  1  0  0  0  0  0999 V2000
  178.9310  176.8110  138.1580 C   0  0  0  0  0  1  0  0  0  0  0  0
  181.9520  178.7550  137.8870 C   0  0  2  0  0  3  0  0  0  0  0  0
  180.3960  176.9670  138.5340 C   0  0  1  0  0  3  0  0  0  0  0  0
  181.2930  176.5550  137.4070 C   0  0  0  0  0  0  0  0  0  0  0  0
  180.7050  178.4530  138.7240 C   0  0  1  0  0  3  0  0  0  0  0  0
  182.1440  177.5190  137.0690 C   0  0  0  0  0  0  0  0  0  0  0  0
  180.0060  180.3260  140.2820 C   0  0  0  0  0  0  0  0  0  0  0  0
  180.1570  180.1120  142.7650 C   0  0  0  0  0  2  0  0  0  0  0  0
  179.7190  180.8390  141.5830 N   0  0  0  0  0  2  0  0  0  0  0  0
  179.6710  180.9830  139.2620 O   0  0  0  0  0  0  0  0  0  0  0  0
  180.7030  178.9950  140.1660 C   0  0  1  0  0  3  0  0  0  0  0  0
  179.6940  177.9290  143.5230 O   0  0  0  0  0  0  0  0  0  0  0  0
  179.9840  178.6300  142.5700 C   0  0  0  0  0  0  0  0  0  0  0  0
  180.1790  177.9980  141.2170 C   0  0  0  0  0  2  0  0  0  0  0  0
  181.2820  175.1940  136.8250 C   0  0  0  0  0  0  0  0  0  0  0  0
  182.1260  172.8190  136.7820 C   0  0  0  0  0  1  0  0  0  0  0  0
  180.5260  174.9520  135.8450 O   0  0  0  0  0  0  0  0  0  0  0  0
  182.0810  174.1450  137.3880 N   0  0  0  0  0  2  0  0  0  0  0  0
  183.7650  178.4070  139.5420 C   0  0  0  0  0  0  0  0  0  0  0  0
  183.4330  176.9630  139.8070 C   0  0  0  0  0  1  0  0  0  0  0  0
  183.1240  179.1290  138.6770 N   0  0  0  0  0  0  0  0  0  0  0  0
  184.9310  179.0390  140.2430 C   0  0  2  0  0  3  0  0  0  0  0  0
  186.0670  178.9740  139.4340 O   0  0  0  0  0  1  0  0  0  0  0  0
  184.8800  179.2920  142.7240 C   0  0  1  0  0  3  0  0  0  0  0  0
  185.2010  178.3500  141.5750 C   0  0  2  0  0  3  0  0  0  0  0  0
  186.9580  178.2140  143.3690 N   0  0  0  0  0  0  0  0  0  0  0  0
  184.6690  178.5190  144.0080 C   0  0  0  0  0  2  0  0  0  0  0  0
  186.3260  179.0600  142.3350 C   0  0  2  0  0  3  0  0  0  0  0  0
  185.8890  177.6460  144.1860 C   0  0  0  0  0  2  0  0  0  0  0  0
  187.7540  177.1340  142.7440 C   0  0  1  0  0  3  0  0  0  0  0  0
  188.5210  177.6460  141.5280 C   0  0  0  0  0  1  0  0  0  0  0  0
  190.7130  177.7080  144.4680 C   0  0  1  0  0  3  0  0  0  0  0  0
  191.4800  176.4710  143.3760 S   0  0  0  0  0  0  0  0  0  0  0  0
  189.8930  175.6780  143.0400 C   0  0  0  0  0  2  0  0  0  0  0  0
  188.7850  176.4890  143.6920 C   0  0  1  0  0  3  0  0  0  0  0  0
  190.9230  179.1080  143.9260 C   0  0  0  0  0  1  0  0  0  0  0  0
  189.2900  177.4440  144.6750 N   0  0  0  0  0  2  0  0  0  0  0  0
  183.1080  177.3820  136.0620 O   0  0  0  0  0  0  0  0  0  0  0  0
  184.5010  177.3690  136.3440 C   0  0  0  0  0  2  0  0  0  0  0  0
  185.1010  176.0600  135.8640 C   0  0  0  0  0  2  0  0  0  0  0  0
  186.0430  175.4800  136.9170 C   0  0  2  0  0  3  0  0  0  0  0  0
  187.3770  175.5780  136.4950 O   0  0  0  0  0  1  0  0  0  0  0  0
  185.6960  174.0260  137.1620 C   0  0  0  0  0  1  0  0  0  0  0  0
  2 21  1  1  0  0  0
  2  5  1  0  0  0  0
  3  1  1  6  0  0  0
  3  5  1  0  0  0  0
  4  3  1  0  0  0  0
  5 11  1  1  0  0  0
  6  4  2  0  0  0  0
  6  2  1  0  0  0  0
  7  9  1  0  0  0  0
  9  8  1  0  0  0  0
 10  7  2  0  0  0  0
 11  7  1  0  0  0  0
 11 14  1  1  0  0  0
 13  8  1  0  0  0  0
 13 12  2  0  0  0  0
 14 13  1  0  0  0  0
 15 18  1  0  0  0  0
 15  4  1  0  0  0  0
 16 18  1  0  0  0  0
 17 15  2  0  0  0  0
 19 20  1  0  0  0  0
 19 22  1  0  0  0  0
 21 19  2  0  0  0  0
 22 23  1  6  0  0  0
 24 27  1  1  0  0  0
 25 22  1  6  0  0  0
 25 28  1  0  0  0  0
 25 24  1  0  0  0  0
 26 29  1  0  0  0  0
 27 29  1  0  0  0  0
 28 24  1  0  0  0  0
 28 26  1  1  0  0  0
 30 31  1  6  0  0  0
 30 26  1  0  0  0  0
 32 36  1  6  0  0  0
 32 37  1  0  0  0  0
 33 32  1  0  0  0  0
 34 33  1  0  0  0  0
 34 35  1  0  0  0  0
 35 30  1  6  0  0  0
 35 37  1  0  0  0  0
 38 39  1  0  0  0  0
 38  6  1  0  0  0  0
 40 39  1  0  0  0  0
 40 41  1  0  0  0  0
 41 43  1  6  0  0  0
 42 41  1  0  0  0  0
M  END
>  <MODEL>
4

>  <REMARK>
 VINA RESULT:      -5.9      2.955      8.863
  Name = 
  11 active torsions:
  status: ('A' for Active; 'I' for Inactive)
    1  A    between atoms: C_7  and  N_23
    2  A    between atoms: C_8  and  C_37
    3  A    between atoms: C_9  and  C_32
    4  A    between atoms: C_11  and  C_18
    5  A    between atoms: C_11  and  N_26
    6  A    between atoms: C_16  and  C_30
    7  A    between atoms: C_19  and  C_35
    8  A    between atoms: C_24  and  C_30
    9  A    between atoms: C_28  and  C_37
   10  A    between atoms: C_28  and  O_42
   11  A    between atoms: C_39  and  O_42
                            x       y       z     vdW  Elec       q    Type
                         _______ _______ _______ _____ _____    ______ ____

>  <TORSDO>
F 11

$$$$
=
 OpenBabel11062412233D

 43 47  0  0  1  0  0  0  0  0999 V2000
  180.4380  177.3560  137.8300 C   0  0  0  0  0  1  0  0  0  0  0  0
  183.2630  179.4010  138.7380 C   0  0  2  0  0  3  0  0  0  0  0  0
  181.6890  177.5140  138.6790 C   0  0  1  0  0  3  0  0  0  0  0  0
  182.9260  177.2430  137.8790 C   0  0  0  0  0  0  0  0  0  0  0  0
  181.8320  178.9810  139.0890 C   0  0  1  0  0  3  0  0  0  0  0  0
  183.7830  178.2590  137.9250 C   0  0  0  0  0  0  0  0  0  0  0  0
  180.4080  180.5660  140.4620 C   0  0  0  0  0  0  0  0  0  0  0  0
  179.8880  180.1370  142.8660 C   0  0  0  0  0  2  0  0  0  0  0  0
  179.6820  180.9000  141.6450 N   0  0  0  0  0  2  0  0  0  0  0  0
  180.2660  181.2600  139.4220 O   0  0  0  0  0  0  0  0  0  0  0  0
  181.3290  179.3730  140.4910 C   0  0  1  0  0  3  0  0  0  0  0  0
  179.6150  177.8450  143.3460 O   0  0  0  0  0  0  0  0  0  0  0  0
  180.0360  178.6710  142.5560 C   0  0  0  0  0  0  0  0  0  0  0  0
  180.7110  178.2110  141.2910 C   0  0  0  0  0  2  0  0  0  0  0  0
  183.1860  175.9480  137.2090 C   0  0  0  0  0  0  0  0  0  0  0  0
  183.9240  173.5390  137.3010 C   0  0  0  0  0  1  0  0  0  0  0  0
  182.9960  175.8520  135.9660 O   0  0  0  0  0  0  0  0  0  0  0  0
  183.6040  174.8010  137.9600 N   0  0  0  0  0  2  0  0  0  0  0  0
  184.4790  178.9300  140.8470 C   0  0  0  0  0  0  0  0  0  0  0  0
  184.1950  177.4520  140.8410 C   0  0  0  0  0  1  0  0  0  0  0  0
  184.0900  179.7240  139.8990 N   0  0  0  0  0  0  0  0  0  0  0  0
  185.3080  179.5210  141.9480 C   0  0  2  0  0  3  0  0  0  0  0  0
  186.6630  179.3030  141.6940 O   0  0  0  0  0  1  0  0  0  0  0  0
  183.4710  179.2160  143.6080 C   0  0  1  0  0  3  0  0  0  0  0  0
  184.9290  178.9170  143.2950 C   0  0  2  0  0  3  0  0  0  0  0  0
  184.6420  179.5750  145.7050 N   0  0  0  0  0  0  0  0  0  0  0  0
  182.9400  178.2580  144.6510 C   0  0  0  0  0  2  0  0  0  0  0  0
  184.5590  180.0160  144.2960 C   0  0  2  0  0  3  0  0  0  0  0  0
  183.8960  178.3240  145.8190 C   0  0  0  0  0  2  0  0  0  0  0  0
  186.0520  179.3710  146.1050 C   0  0  1  0  0  3  0  0  0  0  0  0
  186.2730  179.7520  147.5650 C   0  0  0  0  0  1  0  0  0  0  0  0
  188.4560  177.0920  147.1480 C   0  0  1  0  0  3  0  0  0  0  0  0
  189.0940  177.1290  145.4440 S   0  0  0  0  0  0  0  0  0  0  0  0
  187.5010  177.6590  144.7820 C   0  0  0  0  0  2  0  0  0  0  0  0
  186.5450  177.9200  145.9350 C   0  0  1  0  0  3  0  0  0  0  0  0
  189.2080  178.0730  148.0260 C   0  0  0  0  0  1  0  0  0  0  0  0
  187.0190  177.3560  147.1960 N   0  0  0  0  0  2  0  0  0  0  0  0
  185.0280  178.2520  137.2830 O   0  0  0  0  0  0  0  0  0  0  0  0
  186.1480  177.5560  137.8110 C   0  0  0  0  0  2  0  0  0  0  0  0
  187.3710  177.8490  136.9610 C   0  0  0  0  0  2  0  0  0  0  0  0
  188.5330  178.3200  137.8320 C   0  0  2  0  0  3  0  0  0  0  0  0
  188.8230  179.6700  137.5840 O   0  0  0  0  0  1  0  0  0  0  0  0
  189.7590  177.4790  137.5410 C   0  0  0  0  0  1  0  0  0  0  0  0
  2  5  1  0  0  0  0
  2 21  1  1  0  0  0
  3  1  1  6  0  0  0
  3  5  1  0  0  0  0
  4  6  2  0  0  0  0
  4  3  1  0  0  0  0
  5 11  1  1  0  0  0
  6  2  1  0  0  0  0
  7 11  1  0  0  0  0
  7  9  1  0  0  0  0
  9  8  1  0  0  0  0
 10  7  2  0  0  0  0
 11 14  1  6  0  0  0
 13  8  1  0  0  0  0
 13 12  2  0  0  0  0
 14 13  1  0  0  0  0
 15  4  1  0  0  0  0
 15 18  1  0  0  0  0
 16 18  1  0  0  0  0
 17 15  2  0  0  0  0
 19 22  1  0  0  0  0
 20 19  1  0  0  0  0
 21 19  2  0  0  0  0
 22 23  1  6  0  0  0
 24 28  1  0  0  0  0
 24 27  1  1  0  0  0
 25 22  1  6  0  0  0
 25 24  1  0  0  0  0
 25 28  1  0  0  0  0
 26 29  1  0  0  0  0
 26 30  1  0  0  0  0
 27 29  1  0  0  0  0
 28 26  1  1  0  0  0
 30 31  1  1  0  0  0
 32 37  1  0  0  0  0
 32 36  1  1  0  0  0
 33 32  1  0  0  0  0
 34 33  1  0  0  0  0
 34 35  1  0  0  0  0
 35 30  1  1  0  0  0
 35 37  1  0  0  0  0
 38 39  1  0  0  0  0
 38  6  1  0  0  0  0
 40 39  1  0  0  0  0
 40 41  1  0  0  0  0
 41 43  1  6  0  0  0
 42 41  1  0  0  0  0
M  END
>  <MODEL>
5

>  <REMARK>
 VINA RESULT:      -5.8      3.153      8.893
  Name = 
  11 active torsions:
  status: ('A' for Active; 'I' for Inactive)
    1  A    between atoms: C_7  and  N_23
    2  A    between atoms: C_8  and  C_37
    3  A    between atoms: C_9  and  C_32
    4  A    between atoms: C_11  and  C_18
    5  A    between atoms: C_11  and  N_26
    6  A    between atoms: C_16  and  C_30
    7  A    between atoms: C_19  and  C_35
    8  A    between atoms: C_24  and  C_30
    9  A    between atoms: C_28  and  C_37
   10  A    between atoms: C_28  and  O_42
   11  A    between atoms: C_39  and  O_42
                            x       y       z     vdW  Elec       q    Type
                         _______ _______ _______ _____ _____    ______ ____

>  <TORSDO>
F 11

$$$$
=
 OpenBabel11062412233D

 43 47  0  0  1  0  0  0  0  0999 V2000
  191.0830  177.0810  139.8410 C   0  0  0  0  0  1  0  0  0  0  0  0
  187.9260  178.5560  140.7580 C   0  0  2  0  0  3  0  0  0  0  0  0
  189.6280  176.8650  140.2270 C   0  0  1  0  0  3  0  0  0  0  0  0
  189.4290  177.0220  141.7040 C   0  0  0  0  0  0  0  0  0  0  0  0
  188.7810  177.9850  139.6220 C   0  0  1  0  0  3  0  0  0  0  0  0
  188.4970  177.9260  141.9880 C   0  0  0  0  0  0  0  0  0  0  0  0
  188.4410  178.6190  137.1910 C   0  0  0  0  0  0  0  0  0  0  0  0
  187.1820  177.1590  135.6040 C   0  0  0  0  0  2  0  0  0  0  0  0
  188.0260  178.3170  135.8590 N   0  0  0  0  0  2  0  0  0  0  0  0
  189.1280  179.6490  137.4150 O   0  0  0  0  0  0  0  0  0  0  0  0
  188.0480  177.6790  138.3020 C   0  0  1  0  0  3  0  0  0  0  0  0
  187.5060  174.8620  136.0230 O   0  0  0  0  0  0  0  0  0  0  0  0
  187.6070  175.9950  136.4580 C   0  0  0  0  0  0  0  0  0  0  0  0
  188.1420  176.2100  137.8500 C   0  0  0  0  0  2  0  0  0  0  0  0
  190.1270  176.1840  142.7050 C   0  0  0  0  0  0  0  0  0  0  0  0
  191.9710  175.8610  144.3940 C   0  0  0  0  0  1  0  0  0  0  0  0
  189.7080  175.0150  142.9260 O   0  0  0  0  0  0  0  0  0  0  0  0
  191.2370  176.6990  143.4520 N   0  0  0  0  0  2  0  0  0  0  0  0
  185.5210  178.8290  141.2950 C   0  0  0  0  0  0  0  0  0  0  0  0
  185.7390  179.8370  142.3910 C   0  0  0  0  0  1  0  0  0  0  0  0
  186.4910  178.3330  140.5920 N   0  0  0  0  0  0  0  0  0  0  0  0
  184.1240  178.4190  140.9330 C   0  0  2  0  0  3  0  0  0  0  0  0
  183.5900  177.6070  141.9350 O   0  0  0  0  0  1  0  0  0  0  0  0
  184.0900  178.6770  138.4520 C   0  0  1  0  0  3  0  0  0  0  0  0
  184.1040  177.6810  139.6000 C   0  0  2  0  0  3  0  0  0  0  0  0
  182.4990  176.9630  137.8030 N   0  0  0  0  0  0  0  0  0  0  0  0
  184.5520  178.0230  137.1690 C   0  0  0  0  0  2  0  0  0  0  0  0
  182.8060  177.9710  138.8390 C   0  0  2  0  0  3  0  0  0  0  0  0
  183.6980  176.7900  136.9870 C   0  0  0  0  0  2  0  0  0  0  0  0
  182.1130  175.6760  138.4260 C   0  0  1  0  0  3  0  0  0  0  0  0
  181.3360  175.9000  139.7200 C   0  0  0  0  0  1  0  0  0  0  0  0
  182.2190  173.3750  135.8270 C   0  0  1  0  0  3  0  0  0  0  0  0
  181.3590  174.6190  134.8160 S   0  0  0  0  0  0  0  0  0  0  0  0
  180.6690  175.4310  136.2730 C   0  0  0  0  0  2  0  0  0  0  0  0
  181.2410  174.7810  137.5220 C   0  0  1  0  0  3  0  0  0  0  0  0
  183.7200  173.4610  135.6250 C   0  0  0  0  0  1  0  0  0  0  0  0
  181.8840  173.4990  137.2450 N   0  0  0  0  0  2  0  0  0  0  0  0
  188.1000  178.2460  143.2920 O   0  0  0  0  0  0  0  0  0  0  0  0
  187.9580  177.2590  144.3040 C   0  0  0  0  0  2  0  0  0  0  0  0
  188.6510  177.7280  145.5700 C   0  0  0  0  0  2  0  0  0  0  0  0
  187.6350  177.9700  146.6830 C   0  0  2  0  0  3  0  0  0  0  0  0
  187.7260  176.9700  147.6630 O   0  0  0  0  0  1  0  0  0  0  0  0
  186.2360  177.9780  146.1010 C   0  0  0  0  0  1  0  0  0  0  0  0
  2 21  1  6  0  0  0
  2  6  1  0  0  0  0
  3  1  1  1  0  0  0
  3  4  1  0  0  0  0
  4  6  2  0  0  0  0
  4 15  1  0  0  0  0
  5 11  1  6  0  0  0
  5  3  1  0  0  0  0
  5  2  1  0  0  0  0
  6 38  1  0  0  0  0
  7 10  2  0  0  0  0
  7 11  1  0  0  0  0
  8  9  1  0  0  0  0
  8 13  1  0  0  0  0
  9  7  1  0  0  0  0
 11 14  1  6  0  0  0
 12 13  2  0  0  0  0
 13 14  1  0  0  0  0
 15 17  2  0  0  0  0
 15 18  1  0  0  0  0
 18 16  1  0  0  0  0
 19 20  1  0  0  0  0
 21 19  2  0  0  0  0
 22 19  1  0  0  0  0
 22 23  1  1  0  0  0
 24 27  1  6  0  0  0
 24 28  1  0  0  0  0
 24 25  1  0  0  0  0
 25 22  1  1  0  0  0
 26 30  1  0  0  0  0
 28 26  1  6  0  0  0
 28 25  1  0  0  0  0
 29 27  1  0  0  0  0
 29 26  1  0  0  0  0
 30 31  1  1  0  0  0
 32 36  1  1  0  0  0
 32 37  1  0  0  0  0
 33 32  1  0  0  0  0
 33 34  1  0  0  0  0
 34 35  1  0  0  0  0
 35 30  1  6  0  0  0
 37 35  1  0  0  0  0
 38 39  1  0  0  0  0
 39 40  1  0  0  0  0
 40 41  1  0  0  0  0
 41 43  1  6  0  0  0
 41 42  1  0  0  0  0
M  END
>  <MODEL>
6

>  <REMARK>
 VINA RESULT:      -5.7      1.898      2.480
  Name = 
  11 active torsions:
  status: ('A' for Active; 'I' for Inactive)
    1  A    between atoms: C_7  and  N_23
    2  A    between atoms: C_8  and  C_37
    3  A    between atoms: C_9  and  C_32
    4  A    between atoms: C_11  and  C_18
    5  A    between atoms: C_11  and  N_26
    6  A    between atoms: C_16  and  C_30
    7  A    between atoms: C_19  and  C_35
    8  A    between atoms: C_24  and  C_30
    9  A    between atoms: C_28  and  C_37
   10  A    between atoms: C_28  and  O_42
   11  A    between atoms: C_39  and  O_42
                            x       y       z     vdW  Elec       q    Type
                         _______ _______ _______ _____ _____    ______ ____

>  <TORSDO>
F 11

$$$$
=
 OpenBabel11062412233D

 43 47  0  0  1  0  0  0  0  0999 V2000
  189.9760  178.2080  142.1070 C   0  0  0  0  0  1  0  0  0  0  0  0
  186.8640  178.6370  140.3420 C   0  0  2  0  0  3  0  0  0  0  0  0
  188.7030  177.5700  141.5750 C   0  0  1  0  0  3  0  0  0  0  0  0
  187.5330  177.8750  142.4590 C   0  0  0  0  0  0  0  0  0  0  0  0
  188.3360  178.2250  140.2420 C   0  0  1  0  0  3  0  0  0  0  0  0
  186.5330  178.4380  141.7870 C   0  0  0  0  0  0  0  0  0  0  0  0
  189.1990  178.4300  137.8680 C   0  0  0  0  0  0  0  0  0  0  0  0
  189.9760  176.4470  136.5640 C   0  0  0  0  0  2  0  0  0  0  0  0
  189.8320  177.8880  136.7080 N   0  0  0  0  0  2  0  0  0  0  0  0
  189.0300  179.6730  137.9660 O   0  0  0  0  0  0  0  0  0  0  0  0
  188.7530  177.4870  138.9560 C   0  0  1  0  0  3  0  0  0  0  0  0
  191.0570  174.8380  137.9060 O   0  0  0  0  0  0  0  0  0  0  0  0
  190.3290  175.8150  137.8830 C   0  0  0  0  0  0  0  0  0  0  0  0
  189.7830  176.3620  139.1760 C   0  0  0  0  0  2  0  0  0  0  0  0
  187.4800  177.4920  143.8880 C   0  0  0  0  0  0  0  0  0  0  0  0
  186.8470  178.0010  146.2750 C   0  0  0  0  0  1  0  0  0  0  0  0
  187.9660  176.3830  144.2440 O   0  0  0  0  0  0  0  0  0  0  0  0
  186.8480  178.3400  144.8550 N   0  0  0  0  0  2  0  0  0  0  0  0
  184.8700  178.3250  138.9020 C   0  0  0  0  0  0  0  0  0  0  0  0
  184.3450  179.7230  139.0930 C   0  0  0  0  0  1  0  0  0  0  0  0
  185.9810  177.9140  139.4300 N   0  0  0  0  0  0  0  0  0  0  0  0
  184.1330  177.3710  138.0090 C   0  0  2  0  0  3  0  0  0  0  0  0
  183.4860  176.4020  138.7780 O   0  0  0  0  0  1  0  0  0  0  0  0
  185.4620  177.6790  135.9210 C   0  0  1  0  0  3  0  0  0  0  0  0
  185.0850  176.7040  137.0260 C   0  0  2  0  0  3  0  0  0  0  0  0
  185.0770  175.5710  134.7810 N   0  0  0  0  0  0  0  0  0  0  0  0
  186.7340  177.2410  135.2310 C   0  0  0  0  0  2  0  0  0  0  0  0
  184.4430  176.5940  135.6390 C   0  0  2  0  0  3  0  0  0  0  0  0
  186.5180  175.8080  134.8040 C   0  0  0  0  0  2  0  0  0  0  0  0
  184.7730  174.2110  135.2800 C   0  0  1  0  0  3  0  0  0  0  0  0
  185.8410  173.7290  136.2560 C   0  0  0  0  0  1  0  0  0  0  0  0
  182.6010  171.9870  136.8270 C   0  0  1  0  0  3  0  0  0  0  0  0
  181.4430  172.3140  135.4620 S   0  0  0  0  0  0  0  0  0  0  0  0
  182.1900  173.9210  135.1180 C   0  0  0  0  0  2  0  0  0  0  0  0
  183.4140  174.0990  136.0010 C   0  0  1  0  0  3  0  0  0  0  0  0
  183.4350  170.7530  136.5410 C   0  0  0  0  0  1  0  0  0  0  0  0
  183.4610  173.1370  137.1000 N   0  0  0  0  0  2  0  0  0  0  0  0
  185.3140  178.8000  142.3720 O   0  0  0  0  0  0  0  0  0  0  0  0
  184.2020  177.9160  142.4140 C   0  0  0  0  0  2  0  0  0  0  0  0
  182.9320  178.7120  142.6540 C   0  0  0  0  0  2  0  0  0  0  0  0
  182.9800  179.4090  144.0110 C   0  0  2  0  0  3  0  0  0  0  0  0
  183.9460  180.4260  144.0110 O   0  0  0  0  0  1  0  0  0  0  0  0
  183.3110  178.3980  145.0890 C   0  0  0  0  0  1  0  0  0  0  0  0
  2 21  1  6  0  0  0
  2  6  1  0  0  0  0
  3  1  1  1  0  0  0
  3  4  1  0  0  0  0
  4 15  1  0  0  0  0
  5 11  1  6  0  0  0
  5  2  1  0  0  0  0
  5  3  1  0  0  0  0
  6 38  1  0  0  0  0
  6  4  2  0  0  0  0
  7 10  2  0  0  0  0
  7 11  1  0  0  0  0
  8  9  1  0  0  0  0
  8 13  1  0  0  0  0
  9  7  1  0  0  0  0
 11 14  1  1  0  0  0
 13 12  2  0  0  0  0
 13 14  1  0  0  0  0
 15 17  2  0  0  0  0
 15 18  1  0  0  0  0
 18 16  1  0  0  0  0
 19 20  1  0  0  0  0
 19 21  2  0  0  0  0
 22 23  1  1  0  0  0
 22 19  1  0  0  0  0
 24 27  1  6  0  0  0
 24 25  1  0  0  0  0
 25 22  1  1  0  0  0
 26 29  1  0  0  0  0
 26 30  1  0  0  0  0
 28 26  1  6  0  0  0
 28 24  1  0  0  0  0
 28 25  1  0  0  0  0
 29 27  1  0  0  0  0
 30 31  1  1  0  0  0
 32 36  1  6  0  0  0
 32 37  1  0  0  0  0
 33 32  1  0  0  0  0
 34 33  1  0  0  0  0
 34 35  1  0  0  0  0
 35 30  1  6  0  0  0
 35 37  1  0  0  0  0
 38 39  1  0  0  0  0
 39 40  1  0  0  0  0
 40 41  1  0  0  0  0
 41 42  1  0  0  0  0
 41 43  1  1  0  0  0
M  END
>  <MODEL>
7

>  <REMARK>
 VINA RESULT:      -5.6      1.991      2.687
  Name = 
  11 active torsions:
  status: ('A' for Active; 'I' for Inactive)
    1  A    between atoms: C_7  and  N_23
    2  A    between atoms: C_8  and  C_37
    3  A    between atoms: C_9  and  C_32
    4  A    between atoms: C_11  and  C_18
    5  A    between atoms: C_11  and  N_26
    6  A    between atoms: C_16  and  C_30
    7  A    between atoms: C_19  and  C_35
    8  A    between atoms: C_24  and  C_30
    9  A    between atoms: C_28  and  C_37
   10  A    between atoms: C_28  and  O_42
   11  A    between atoms: C_39  and  O_42
                            x       y       z     vdW  Elec       q    Type
                         _______ _______ _______ _____ _____    ______ ____

>  <TORSDO>
F 11

$$$$
=
 OpenBabel11062412233D

 43 47  0  0  1  0  0  0  0  0999 V2000
  184.8140  179.2280  143.6410 C   0  0  0  0  0  1  0  0  0  0  0  0
  187.1570  178.6380  140.9680 C   0  0  2  0  0  3  0  0  0  0  0  0
  185.4520  178.2280  142.6910 C   0  0  1  0  0  3  0  0  0  0  0  0
  184.8570  178.3260  141.3190 C   0  0  0  0  0  0  0  0  0  0  0  0
  186.9200  178.6070  142.4810 C   0  0  1  0  0  3  0  0  0  0  0  0
  185.7830  178.5320  140.3870 C   0  0  0  0  0  0  0  0  0  0  0  0
  189.3400  178.4730  143.2230 C   0  0  0  0  0  0  0  0  0  0  0  0
  190.0800  176.9580  145.0650 C   0  0  0  0  0  2  0  0  0  0  0  0
  190.3570  178.0320  144.1230 N   0  0  0  0  0  2  0  0  0  0  0  0
  189.5970  179.3660  142.3750 O   0  0  0  0  0  0  0  0  0  0  0  0
  187.9680  177.8550  143.3220 C   0  0  1  0  0  3  0  0  0  0  0  0
  188.4750  176.7540  146.7800 O   0  0  0  0  0  0  0  0  0  0  0  0
  188.6920  177.0940  145.6310 C   0  0  0  0  0  0  0  0  0  0  0  0
  187.5620  177.6310  144.7910 C   0  0  0  0  0  2  0  0  0  0  0  0
  183.4180  178.1120  141.0480 C   0  0  0  0  0  0  0  0  0  0  0  0
  181.0200  178.8780  141.1900 C   0  0  0  0  0  1  0  0  0  0  0  0
  183.0540  177.0520  140.4670 O   0  0  0  0  0  0  0  0  0  0  0  0
  182.4470  179.1070  141.3950 N   0  0  0  0  0  2  0  0  0  0  0  0
  188.8850  177.6740  139.4740 C   0  0  0  0  0  0  0  0  0  0  0  0
  189.0600  178.9190  138.6470 C   0  0  0  0  0  1  0  0  0  0  0  0
  188.0810  177.6120  140.4890 N   0  0  0  0  0  0  0  0  0  0  0  0
  189.7190  176.4630  139.1770 C   0  0  2  0  0  3  0  0  0  0  0  0
  190.7870  176.3880  140.0720 O   0  0  0  0  0  1  0  0  0  0  0  0
  189.3130  175.7230  136.8290 C   0  0  1  0  0  3  0  0  0  0  0  0
  190.2420  176.5040  137.7460 C   0  0  2  0  0  3  0  0  0  0  0  0
  191.5510  175.1050  136.1180 N   0  0  0  0  0  0  0  0  0  0  0  0
  189.5140  176.1340  135.3870 C   0  0  0  0  0  2  0  0  0  0  0  0
  190.6230  175.0990  137.2680 C   0  0  2  0  0  3  0  0  0  0  0  0
  190.9920  175.9990  135.1060 C   0  0  0  0  0  2  0  0  0  0  0  0
  192.8920  175.5740  136.5320 C   0  0  1  0  0  3  0  0  0  0  0  0
  193.2720  175.0210  137.9030 C   0  0  0  0  0  1  0  0  0  0  0  0
  194.7000  172.8890  135.2750 C   0  0  1  0  0  3  0  0  0  0  0  0
  196.1540  173.6000  136.1060 S   0  0  0  0  0  0  0  0  0  0  0  0
  195.4390  175.2580  136.0950 C   0  0  0  0  0  2  0  0  0  0  0  0
  194.0200  175.1830  135.5560 C   0  0  1  0  0  3  0  0  0  0  0  0
  194.0330  171.8470  136.1540 C   0  0  0  0  0  1  0  0  0  0  0  0
  193.7400  173.9180  134.8810 N   0  0  0  0  0  2  0  0  0  0  0  0
  185.4960  178.6360  139.0210 O   0  0  0  0  0  0  0  0  0  0  0  0
  185.4990  177.5080  138.1580 C   0  0  0  0  0  2  0  0  0  0  0  0
  186.1580  177.8790  136.8410 C   0  0  0  0  0  2  0  0  0  0  0  0
  185.8450  176.8390  135.7690 C   0  0  2  0  0  3  0  0  0  0  0  0
  184.7400  177.2360  135.0010 O   0  0  0  0  0  1  0  0  0  0  0  0
  185.5490  175.5070  136.4260 C   0  0  0  0  0  1  0  0  0  0  0  0
  2 21  1  6  0  0  0
  2  5  1  0  0  0  0
  3  1  1  1  0  0  0
  4  3  1  0  0  0  0
  5  3  1  0  0  0  0
  5 11  1  1  0  0  0
  6  2  1  0  0  0  0
  6  4  2  0  0  0  0
  7 11  1  0  0  0  0
  7  9  1  0  0  0  0
  8 13  1  0  0  0  0
  9  8  1  0  0  0  0
 10  7  2  0  0  0  0
 11 14  1  1  0  0  0
 13 12  2  0  0  0  0
 14 13  1  0  0  0  0
 15  4  1  0  0  0  0
 15 18  1  0  0  0  0
 16 18  1  0  0  0  0
 17 15  2  0  0  0  0
 19 21  2  0  0  0  0
 20 19  1  0  0  0  0
 22 19  1  0  0  0  0
 22 23  1  1  0  0  0
 24 27  1  6  0  0  0
 24 28  1  0  0  0  0
 24 25  1  0  0  0  0
 25 22  1  1  0  0  0
 26 30  1  0  0  0  0
 28 26  1  6  0  0  0
 28 25  1  0  0  0  0
 29 27  1  0  0  0  0
 29 26  1  0  0  0  0
 30 31  1  1  0  0  0
 32 33  1  0  0  0  0
 32 36  1  1  0  0  0
 34 33  1  0  0  0  0
 35 34  1  0  0  0  0
 35 30  1  1  0  0  0
 37 32  1  0  0  0  0
 37 35  1  0  0  0  0
 38  6  1  0  0  0  0
 39 38  1  0  0  0  0
 40 39  1  0  0  0  0
 41 43  1  1  0  0  0
 41 40  1  0  0  0  0
 42 41  1  0  0  0  0
M  END
>  <MODEL>
8

>  <REMARK>
 VINA RESULT:      -5.4      3.839      8.281
  Name = 
  11 active torsions:
  status: ('A' for Active; 'I' for Inactive)
    1  A    between atoms: C_7  and  N_23
    2  A    between atoms: C_8  and  C_37
    3  A    between atoms: C_9  and  C_32
    4  A    between atoms: C_11  and  C_18
    5  A    between atoms: C_11  and  N_26
    6  A    between atoms: C_16  and  C_30
    7  A    between atoms: C_19  and  C_35
    8  A    between atoms: C_24  and  C_30
    9  A    between atoms: C_28  and  C_37
   10  A    between atoms: C_28  and  O_42
   11  A    between atoms: C_39  and  O_42
                            x       y       z     vdW  Elec       q    Type
                         _______ _______ _______ _____ _____    ______ ____

>  <TORSDO>
F 11

$$$$
=
 OpenBabel11062412233D

 43 47  0  0  1  0  0  0  0  0999 V2000
  193.3820  176.6220  138.7560 C   0  0  0  0  0  1  0  0  0  0  0  0
  191.0440  174.4910  137.0320 C   0  0  2  0  0  3  0  0  0  0  0  0
  192.4480  176.4330  137.5710 C   0  0  1  0  0  3  0  0  0  0  0  0
  193.0700  175.5610  136.5240 C   0  0  0  0  0  0  0  0  0  0  0  0
  191.2200  175.6430  138.0260 C   0  0  1  0  0  3  0  0  0  0  0  0
  192.3000  174.5190  136.2230 C   0  0  0  0  0  0  0  0  0  0  0  0
  189.8500  176.7620  139.8410 C   0  0  0  0  0  0  0  0  0  0  0  0
  187.9310  178.2710  139.3150 C   0  0  0  0  0  2  0  0  0  0  0  0
  188.8600  177.6950  140.2760 N   0  0  0  0  0  2  0  0  0  0  0  0
  190.6190  176.2270  140.6820 O   0  0  0  0  0  0  0  0  0  0  0  0
  189.9530  176.4480  138.3710 C   0  0  1  0  0  3  0  0  0  0  0  0
  188.2850  179.5530  137.3680 O   0  0  0  0  0  0  0  0  0  0  0  0
  188.6340  178.5860  138.0220 C   0  0  0  0  0  0  0  0  0  0  0  0
  189.7520  177.7130  137.5150 C   0  0  0  0  0  2  0  0  0  0  0  0
  194.3420  175.8960  135.8460 C   0  0  0  0  0  0  0  0  0  0  0  0
  196.8540  175.7480  135.6960 C   0  0  0  0  0  1  0  0  0  0  0  0
  194.3150  176.6210  134.8140 O   0  0  0  0  0  0  0  0  0  0  0  0
  195.5890  175.3720  136.3190 N   0  0  0  0  0  2  0  0  0  0  0  0
  188.8250  173.7500  136.2090 C   0  0  0  0  0  0  0  0  0  0  0  0
  188.7310  172.5590  137.1260 C   0  0  0  0  0  1  0  0  0  0  0  0
  189.8240  174.5760  136.2320 N   0  0  0  0  0  0  0  0  0  0  0  0
  187.6950  174.0550  135.2720 C   0  0  2  0  0  3  0  0  0  0  0  0
  187.8170  175.3580  134.7860 O   0  0  0  0  0  1  0  0  0  0  0  0
  185.4440  172.9870  135.1440 C   0  0  1  0  0  3  0  0  0  0  0  0
  186.3510  173.8850  135.9700 C   0  0  2  0  0  3  0  0  0  0  0  0
  184.0050  174.7850  135.9100 N   0  0  0  0  0  0  0  0  0  0  0  0
  184.3350  172.4140  135.9980 C   0  0  0  0  0  2  0  0  0  0  0  0
  185.2220  174.4860  135.1270 C   0  0  2  0  0  3  0  0  0  0  0  0
  183.6670  173.5880  136.6760 C   0  0  0  0  0  2  0  0  0  0  0  0
  184.2390  175.9280  136.8210 C   0  0  1  0  0  3  0  0  0  0  0  0
  184.8660  177.1060  136.0810 C   0  0  0  0  0  1  0  0  0  0  0  0
  182.9640  178.5050  138.7690 C   0  0  1  0  0  3  0  0  0  0  0  0
  182.7320  177.2690  140.0850 S   0  0  0  0  0  0  0  0  0  0  0  0
  182.6670  175.9110  138.8970 C   0  0  0  0  0  2  0  0  0  0  0  0
  182.9610  176.4520  137.5070 C   0  0  1  0  0  3  0  0  0  0  0  0
  184.2880  179.2250  138.9340 C   0  0  0  0  0  1  0  0  0  0  0  0
  182.8650  177.9080  137.4380 N   0  0  0  0  0  2  0  0  0  0  0  0
  192.6360  173.5620  135.2570 O   0  0  0  0  0  0  0  0  0  0  0  0
  192.9760  172.2260  135.6000 C   0  0  0  0  0  2  0  0  0  0  0  0
  194.4760  172.0360  135.4700 C   0  0  0  0  0  2  0  0  0  0  0  0
  195.0210  171.2170  136.6370 C   0  0  2  0  0  3  0  0  0  0  0  0
  194.1310  170.1870  136.9770 O   0  0  0  0  0  1  0  0  0  0  0  0
  195.2290  172.1200  137.8360 C   0  0  0  0  0  1  0  0  0  0  0  0
  2 21  1  6  0  0  0
  2  5  1  0  0  0  0
  3  5  1  0  0  0  0
  3  1  1  1  0  0  0
  4  3  1  0  0  0  0
  5 11  1  6  0  0  0
  6  4  2  0  0  0  0
  6  2  1  0  0  0  0
  7  9  1  0  0  0  0
  7 10  2  0  0  0  0
  8  9  1  0  0  0  0
 11 14  1  6  0  0  0
 11  7  1  0  0  0  0
 12 13  2  0  0  0  0
 13  8  1  0  0  0  0
 14 13  1  0  0  0  0
 15 18  1  0  0  0  0
 15  4  1  0  0  0  0
 16 18  1  0  0  0  0
 17 15  2  0  0  0  0
 19 21  2  0  0  0  0
 19 20  1  0  0  0  0
 22 23  1  1  0  0  0
 22 19  1  0  0  0  0
 24 25  1  0  0  0  0
 24 27  1  1  0  0  0
 25 22  1  6  0  0  0
 26 29  1  0  0  0  0
 26 30  1  0  0  0  0
 27 29  1  0  0  0  0
 28 24  1  0  0  0  0
 28 26  1  1  0  0  0
 28 25  1  0  0  0  0
 30 31  1  6  0  0  0
 32 36  1  1  0  0  0
 32 33  1  0  0  0  0
 34 33  1  0  0  0  0
 35 30  1  1  0  0  0
 35 34  1  0  0  0  0
 37 35  1  0  0  0  0
 37 32  1  0  0  0  0
 38 39  1  0  0  0  0
 38  6  1  0  0  0  0
 40 39  1  0  0  0  0
 40 41  1  0  0  0  0
 41 42  1  0  0  0  0
 41 43  1  1  0  0  0
M  END
>  <MODEL>
9

>  <REMARK>
 VINA RESULT:      -5.4      4.289      7.880
  Name = 
  11 active torsions:
  status: ('A' for Active; 'I' for Inactive)
    1  A    between atoms: C_7  and  N_23
    2  A    between atoms: C_8  and  C_37
    3  A    between atoms: C_9  and  C_32
    4  A    between atoms: C_11  and  C_18
    5  A    between atoms: C_11  and  N_26
    6  A    between atoms: C_16  and  C_30
    7  A    between atoms: C_19  and  C_35
    8  A    between atoms: C_24  and  C_30
    9  A    between atoms: C_28  and  C_37
   10  A    between atoms: C_28  and  O_42
   11  A    between atoms: C_39  and  O_42
                            x       y       z     vdW  Elec       q    Type
                         _______ _______ _______ _____ _____    ______ ____

>  <TORSDO>
F 11

$$$$
