=
 OpenBabel11062415153D

 52 56  0  0  1  0  0  0  0  0999 V2000
  185.2450  176.0230  136.3770 C   0  0  0  0  0  2  0  0  0  0  0  0
  185.6060  179.3920  140.9980 C   0  0  0  0  0  2  0  0  0  0  0  0
  183.8990  178.0820  137.8730 C   0  0  0  0  0  3  0  0  0  0  0  0
  184.5700  178.5400  136.6150 C   0  0  0  0  0  2  0  0  0  0  0  0
  189.2170  177.3960  135.4790 N   0  0  0  0  0  2  0  0  0  0  0  0
  184.8490  177.3440  135.6770 C   0  0  1  0  0  3  0  0  0  0  0  0
  183.7050  176.5000  139.6720 O   0  0  0  0  0  0  0  0  0  0  0  0
  184.9050  178.3930  141.9240 C   0  0  2  0  0  3  0  0  0  0  0  0
  187.1290  179.2850  141.0690 C   0  0  0  0  0  2  0  0  0  0  0  0
  182.5200  177.0370  140.2710 C   0  0  1  0  0  3  0  0  0  0  0  0
  186.9320  178.0850  135.1080 C   0  0  0  0  0  2  0  0  0  0  0  0
  182.6760  178.5260  140.6650 C   0  0  2  0  0  3  0  0  0  0  0  0
  188.0440  177.1570  134.6550 C   0  0  0  0  0  2  0  0  0  0  0  0
  189.5820  178.6390  138.5460 C   0  0  0  0  0  3  0  0  0  0  0  0
  189.2980  176.9120  136.8220 C   0  0  0  0  0  0  0  0  0  0  0  0
  188.6170  178.3960  139.3950 C   0  0  0  0  0  0  0  0  0  0  0  0
  188.5100  176.0140  137.2230 O   0  0  0  0  0  0  0  0  0  0  0  0
  187.6670  178.1550  140.2540 C   0  0  0  0  0  0  0  0  0  0  0  0
  190.2680  177.5480  137.7720 C   0  0  2  0  0  3  0  0  0  0  0  0
  185.4260  176.1740  137.8920 C   0  0  0  0  0  2  0  0  0  0  0  0
  187.3800  176.7450  140.6360 C   0  0  0  0  0  1  0  0  0  0  0  0
  183.4060  178.6930  142.0050 C   0  0  1  0  0  3  0  0  0  0  0  0
  184.2990  176.9620  138.4860 C   0  0  0  0  0  0  0  0  0  0  0  0
  185.6970  177.6590  134.5940 O   0  0  0  0  0  0  0  0  0  0  0  0
  182.8010  177.9050  142.9900 O   0  0  0  0  0  1  0  0  0  0  0  0
  178.9310  175.9320  138.1590 C   0  0  0  0  0  3  0  0  0  0  0  0
  179.9750  176.5500  137.4650 C   0  0  0  0  0  0  0  0  0  0  0  0
  181.2780  176.6530  139.5110 C   0  0  0  0  0  0  0  0  0  0  0  0
  180.2320  176.0320  140.2010 C   0  0  0  0  0  3  0  0  0  0  0  0
  179.8410  176.8270  136.0120 C   0  0  0  0  0  1  0  0  0  0  0  0
  181.1450  176.9110  138.1400 C   0  0  0  0  0  3  0  0  0  0  0  0
  179.0600  175.6720  139.5270 C   0  0  0  0  0  3  0  0  0  0  0  0
  186.5290  177.6190  143.7000 N   0  0  0  0  0  0  0  0  0  0  0  0
  186.0050  179.0310  145.4050 N   0  0  0  0  0  0  0  0  0  0  0  0
  187.8720  177.3040  145.7080 C   0  0  0  0  0  1  0  0  0  0  0  0
  185.4890  178.4410  143.2610 N   0  0  0  0  0  0  0  0  0  0  0  0
  186.8080  177.9630  144.9080 C   0  0  0  0  0  0  0  0  0  0  0  0
  185.1060  179.3700  144.3080 C   0  0  0  0  0  3  0  0  0  0  0  0
  192.1600  177.1110  139.3400 C   0  0  0  0  0  0  0  0  0  0  0  0
  193.3860  176.6040  138.8610 N   0  0  0  0  0  2  0  0  0  0  0  0
  190.9690  176.5210  138.6830 C   0  0  2  0  0  3  0  0  0  0  0  0
  191.5910  175.3980  137.8450 C   0  0  0  0  0  2  0  0  0  0  0  0
  193.1050  175.6290  137.8230 C   0  0  2  0  0  3  0  0  0  0  0  0
  192.1010  177.9620  140.2660 O   0  0  0  0  0  0  0  0  0  0  0  0
  193.8310  174.3250  138.1150 C   0  0  0  0  0  2  0  0  0  0  0  0
  195.1600  174.5750  138.8140 C   0  0  0  0  0  2  0  0  0  0  0  0
  195.4080  172.2010  138.3050 N   0  0  0  0  0  1  0  0  0  0  0  0
  196.1330  173.4320  138.5710 C   0  0  0  0  0  2  0  0  0  0  0  0
  179.8380  180.9130  139.5340 C   0  0  0  0  0  1  0  0  0  0  0  0
  181.3880  179.2960  140.6840 C   0  0  0  0  0  0  0  0  0  0  0  0
  180.5850  179.1740  141.6490 O   0  0  0  0  0  0  0  0  0  0  0  0
  181.0770  180.1560  139.5870 N   0  0  0  0  0  2  0  0  0  0  0  0
  1 20  1  0  0  0  0
  2  9  1  0  0  0  0
  3 23  2  0  0  0  0
  4  3  1  0  0  0  0
  5 15  1  0  0  0  0
  6  1  1  1  0  0  0
  6  4  1  0  0  0  0
  7 10  1  0  0  0  0
  8  2  1  6  0  0  0
  8 22  1  0  0  0  0
  8 36  1  0  0  0  0
 10 28  1  6  0  0  0
 10 12  1  0  0  0  0
 12 50  1  1  0  0  0
 12 22  1  0  0  0  0
 13 11  1  0  0  0  0
 13  5  1  0  0  0  0
 14 16  2  0  0  0  0
 15 17  2  0  0  0  0
 15 19  1  0  0  0  0
 16 18  2  0  0  0  0
 18 21  1  0  0  0  0
 18  9  1  0  0  0  0
 19 14  1  1  0  0  0
 19 41  1  0  0  0  0
 20 23  1  0  0  0  0
 22 25  1  1  0  0  0
 23  7  1  0  0  0  0
 24 11  1  0  0  0  0
 24  6  1  0  0  0  0
 26 32  1  0  0  0  0
 27 31  1  0  0  0  0
 27 26  2  0  0  0  0
 28 29  1  0  0  0  0
 30 27  1  0  0  0  0
 31 28  2  0  0  0  0
 32 29  2  0  0  0  0
 33 37  2  0  0  0  0
 36 33  1  0  0  0  0
 36 38  1  0  0  0  0
 37 34  1  0  0  0  0
 37 35  1  0  0  0  0
 38 34  2  0  0  0  0
 39 44  2  0  0  0  0
 40 39  1  0  0  0  0
 41 42  1  6  0  0  0
 41 39  1  0  0  0  0
 43 42  1  0  0  0  0
 43 45  1  1  0  0  0
 43 40  1  0  0  0  0
 45 46  1  0  0  0  0
 47 48  1  0  0  0  0
 48 46  1  0  0  0  0
 49 52  1  0  0  0  0
 50 51  2  0  0  0  0
 52 50  1  0  0  0  0
M  END
>  <MODEL>
1

>  <REMARK>
 VINA RESULT:      -3.2      0.000      0.000
  Name = 
  7 active torsions:
  status: ('A' for Active; 'I' for Inactive)
    1  A    between atoms: C_10  and  C_27
    2  A    between atoms: N_18  and  C_19
    3  A    between atoms: C_23  and  C_24
    4  A    between atoms: C_37  and  C_42
    5  A    between atoms: C_39  and  C_40
    6  A    between atoms: C_39  and  C_45
    7  A    between atoms: C_41  and  C_45
                            x       y       z     vdW  Elec       q    Type
                         _______ _______ _______ _____ _____    ______ ____

>  <TORSDO>
F 7

$$$$
=
 OpenBabel11062415153D

 52 56  0  0  1  0  0  0  0  0999 V2000
  188.0150  173.4110  136.6970 C   0  0  0  0  0  2  0  0  0  0  0  0
  184.1810  177.6210  137.3290 C   0  0  0  0  0  2  0  0  0  0  0  0
  185.5210  174.4600  135.7150 C   0  0  0  0  0  3  0  0  0  0  0  0
  186.7100  174.7170  134.8440 C   0  0  0  0  0  2  0  0  0  0  0  0
  190.9430  176.5530  136.5480 N   0  0  0  0  0  2  0  0  0  0  0  0
  187.8660  173.7550  135.1970 C   0  0  1  0  0  3  0  0  0  0  0  0
  184.5890  173.9790  137.8780 O   0  0  0  0  0  0  0  0  0  0  0  0
  183.3450  176.8620  138.3650 C   0  0  2  0  0  3  0  0  0  0  0  0
  185.1920  178.5680  137.9740 C   0  0  0  0  0  2  0  0  0  0  0  0
  183.2320  173.7900  137.4640 C   0  0  1  0  0  3  0  0  0  0  0  0
  189.4630  175.3790  135.0420 C   0  0  0  0  0  2  0  0  0  0  0  0
  182.6620  175.0200  136.7170 C   0  0  2  0  0  3  0  0  0  0  0  0
  190.7780  175.3190  135.7970 C   0  0  0  0  0  2  0  0  0  0  0  0
  188.7540  178.7770  137.7070 C   0  0  0  0  0  3  0  0  0  0  0  0
  190.2120  176.8000  137.7500 C   0  0  0  0  0  0  0  0  0  0  0  0
  187.5860  178.3130  138.0730 C   0  0  0  0  0  0  0  0  0  0  0  0
  189.6490  175.8500  138.3590 O   0  0  0  0  0  0  0  0  0  0  0  0
  186.4220  177.8650  138.4480 C   0  0  0  0  0  0  0  0  0  0  0  0
  190.0450  178.2100  138.2300 C   0  0  2  0  0  3  0  0  0  0  0  0
  187.0610  174.2050  137.5960 C   0  0  0  0  0  2  0  0  0  0  0  0
  186.3500  176.8960  139.5770 C   0  0  0  0  0  1  0  0  0  0  0  0
  182.1940  176.1150  137.6850 C   0  0  1  0  0  3  0  0  0  0  0  0
  185.6770  174.2170  137.0220 C   0  0  0  0  0  0  0  0  0  0  0  0
  189.0960  174.1010  134.5950 O   0  0  0  0  0  0  0  0  0  0  0  0
  181.3250  175.5800  138.6430 O   0  0  0  0  0  1  0  0  0  0  0  0
  182.5430  169.9410  135.6550 C   0  0  0  0  0  3  0  0  0  0  0  0
  183.8250  170.4960  135.6240 C   0  0  0  0  0  0  0  0  0  0  0  0
  183.0160  172.4410  136.8320 C   0  0  0  0  0  0  0  0  0  0  0  0
  181.7350  171.8800  136.8620 C   0  0  0  0  0  3  0  0  0  0  0  0
  184.9380  169.7640  134.9670 C   0  0  0  0  0  1  0  0  0  0  0  0
  184.0600  171.7430  136.2100 C   0  0  0  0  0  3  0  0  0  0  0  0
  181.4980  170.6330  136.2750 C   0  0  0  0  0  3  0  0  0  0  0  0
  183.1390  177.7520  140.7220 N   0  0  0  0  0  0  0  0  0  0  0  0
  181.7210  179.5000  140.3970 N   0  0  0  0  0  0  0  0  0  0  0  0
  182.6220  179.0080  142.7440 C   0  0  0  0  0  1  0  0  0  0  0  0
  182.8130  177.7830  139.3640 N   0  0  0  0  0  0  0  0  0  0  0  0
  182.5160  178.7240  141.2890 C   0  0  0  0  0  0  0  0  0  0  0  0
  181.9070  178.8820  139.0900 C   0  0  0  0  0  3  0  0  0  0  0  0
  191.2680  177.4810  140.2790 C   0  0  0  0  0  0  0  0  0  0  0  0
  190.8190  176.3720  141.0260 N   0  0  0  0  0  2  0  0  0  0  0  0
  190.1750  178.3380  139.7600 C   0  0  2  0  0  3  0  0  0  0  0  0
  188.9460  177.7400  140.4530 C   0  0  0  0  0  2  0  0  0  0  0  0
  189.3680  176.3960  141.0550 C   0  0  2  0  0  3  0  0  0  0  0  0
  192.4920  177.7230  140.1080 O   0  0  0  0  0  0  0  0  0  0  0  0
  188.8680  176.2910  142.4870 C   0  0  0  0  0  2  0  0  0  0  0  0
  188.7030  177.6650  143.1200 C   0  0  0  0  0  2  0  0  0  0  0  0
  190.1770  178.6250  144.8110 N   0  0  0  0  0  1  0  0  0  0  0  0
  189.1220  177.6530  144.5820 C   0  0  0  0  0  2  0  0  0  0  0  0
  179.1050  174.6340  135.2260 C   0  0  0  0  0  1  0  0  0  0  0  0
  181.5680  174.6960  135.7430 C   0  0  0  0  0  0  0  0  0  0  0  0
  181.8460  174.2560  134.5940 O   0  0  0  0  0  0  0  0  0  0  0  0
  180.2100  174.9080  136.1280 N   0  0  0  0  0  2  0  0  0  0  0  0
  1 20  1  0  0  0  0
  2  9  1  0  0  0  0
  3 23  2  0  0  0  0
  4  3  1  0  0  0  0
  5 15  1  0  0  0  0
  6  4  1  1  0  0  0
  6  1  1  0  0  0  0
  8  2  1  6  0  0  0
  8 36  1  0  0  0  0
  9 18  1  0  0  0  0
 10 28  1  6  0  0  0
 10  7  1  0  0  0  0
 11 13  1  0  0  0  0
 12 50  1  1  0  0  0
 12 10  1  0  0  0  0
 12 22  1  0  0  0  0
 13  5  1  0  0  0  0
 14 16  2  0  0  0  0
 15 19  1  0  0  0  0
 15 17  2  0  0  0  0
 16 18  2  0  0  0  0
 18 21  1  0  0  0  0
 19 14  1  1  0  0  0
 19 41  1  0  0  0  0
 22  8  1  0  0  0  0
 22 25  1  1  0  0  0
 23 20  1  0  0  0  0
 23  7  1  0  0  0  0
 24 11  1  0  0  0  0
 24  6  1  0  0  0  0
 26 32  1  0  0  0  0
 27 26  2  0  0  0  0
 27 31  1  0  0  0  0
 28 29  1  0  0  0  0
 30 27  1  0  0  0  0
 31 28  2  0  0  0  0
 32 29  2  0  0  0  0
 33 37  2  0  0  0  0
 34 37  1  0  0  0  0
 36 33  1  0  0  0  0
 37 35  1  0  0  0  0
 38 36  1  0  0  0  0
 38 34  2  0  0  0  0
 39 40  1  0  0  0  0
 40 43  1  0  0  0  0
 41 39  1  0  0  0  0
 41 42  1  1  0  0  0
 42 43  1  0  0  0  0
 43 45  1  1  0  0  0
 44 39  2  0  0  0  0
 45 46  1  0  0  0  0
 46 48  1  0  0  0  0
 48 47  1  0  0  0  0
 49 52  1  0  0  0  0
 50 52  1  0  0  0  0
 51 50  2  0  0  0  0
M  END
>  <MODEL>
2

>  <REMARK>
 VINA RESULT:      -2.0      3.120      5.309
  Name = 
  7 active torsions:
  status: ('A' for Active; 'I' for Inactive)
    1  A    between atoms: C_10  and  C_27
    2  A    between atoms: N_18  and  C_19
    3  A    between atoms: C_23  and  C_24
    4  A    between atoms: C_37  and  C_42
    5  A    between atoms: C_39  and  C_40
    6  A    between atoms: C_39  and  C_45
    7  A    between atoms: C_41  and  C_45
                            x       y       z     vdW  Elec       q    Type
                         _______ _______ _______ _____ _____    ______ ____

>  <TORSDO>
F 7

$$$$
=
 OpenBabel11062415153D

 52 56  0  0  1  0  0  0  0  0999 V2000
  187.4180  178.2680  137.5780 C   0  0  0  0  0  2  0  0  0  0  0  0
  186.2280  176.9100  143.0160 C   0  0  0  0  0  2  0  0  0  0  0  0
  188.1560  176.5510  139.7680 C   0  0  0  0  0  3  0  0  0  0  0  0
  187.3500  175.9000  138.6880 C   0  0  0  0  0  2  0  0  0  0  0  0
  183.1980  177.8340  136.8970 N   0  0  0  0  0  2  0  0  0  0  0  0
  187.4010  176.7330  137.3880 C   0  0  1  0  0  3  0  0  0  0  0  0
  188.8430  178.5290  140.9480 O   0  0  0  0  0  0  0  0  0  0  0  0
  187.2090  177.9270  143.6060 C   0  0  2  0  0  3  0  0  0  0  0  0
  184.8020  177.4530  142.9340 C   0  0  0  0  0  2  0  0  0  0  0  0
  189.8390  177.9210  141.7780 C   0  0  1  0  0  3  0  0  0  0  0  0
  185.1790  176.4530  136.9460 C   0  0  0  0  0  2  0  0  0  0  0  0
  189.2730  176.7600  142.6310 C   0  0  2  0  0  3  0  0  0  0  0  0
  184.3680  177.4420  136.1290 C   0  0  0  0  0  2  0  0  0  0  0  0
  182.5710  177.8590  140.1660 C   0  0  0  0  0  3  0  0  0  0  0  0
  183.2930  178.7460  137.9920 C   0  0  0  0  0  0  0  0  0  0  0  0
  183.5880  178.0970  140.9550 C   0  0  0  0  0  0  0  0  0  0  0  0
  184.3160  179.4710  138.1290 O   0  0  0  0  0  0  0  0  0  0  0  0
  184.5880  178.3410  141.7530 C   0  0  0  0  0  0  0  0  0  0  0  0
  182.2070  178.7670  139.0250 C   0  0  2  0  0  3  0  0  0  0  0  0
  187.2410  178.6970  139.0390 C   0  0  0  0  0  2  0  0  0  0  0  0
  185.2780  179.6580  141.6640 C   0  0  0  0  0  1  0  0  0  0  0  0
  188.5620  177.2680  143.8930 C   0  0  1  0  0  3  0  0  0  0  0  0
  188.1100  177.8770  139.9430 C   0  0  0  0  0  0  0  0  0  0  0  0
  186.4700  176.3180  136.4120 O   0  0  0  0  0  0  0  0  0  0  0  0
  189.3920  178.1420  144.6020 O   0  0  0  0  0  1  0  0  0  0  0  0
  193.5360  177.1830  139.6930 C   0  0  0  0  0  3  0  0  0  0  0  0
  192.3220  176.9320  139.0490 C   0  0  0  0  0  0  0  0  0  0  0  0
  191.1180  177.6630  141.0270 C   0  0  0  0  0  0  0  0  0  0  0  0
  192.3370  177.9160  141.6660 C   0  0  0  0  0  3  0  0  0  0  0  0
  192.3100  176.4080  137.6590 C   0  0  0  0  0  1  0  0  0  0  0  0
  191.1160  177.1690  139.7150 C   0  0  0  0  0  3  0  0  0  0  0  0
  193.5440  177.6770  141.0010 C   0  0  0  0  0  3  0  0  0  0  0  0
  187.1300  178.1920  146.1190 N   0  0  0  0  0  0  0  0  0  0  0  0
  185.4910  179.7540  146.3340 N   0  0  0  0  0  0  0  0  0  0  0  0
  186.6690  178.8470  148.4200 C   0  0  0  0  0  1  0  0  0  0  0  0
  186.6710  178.5000  144.8360 N   0  0  0  0  0  0  0  0  0  0  0  0
  186.4560  178.9060  146.9500 C   0  0  0  0  0  0  0  0  0  0  0  0
  185.6190  179.4970  144.9050 C   0  0  0  0  0  3  0  0  0  0  0  0
  180.4930  180.2470  140.0740 C   0  0  0  0  0  0  0  0  0  0  0  0
  179.5540  180.9350  139.2770 N   0  0  0  0  0  2  0  0  0  0  0  0
  181.8540  180.1940  139.4890 C   0  0  2  0  0  3  0  0  0  0  0  0
  181.7180  181.1300  138.2820 C   0  0  0  0  0  2  0  0  0  0  0  0
  180.2230  181.3920  138.0730 C   0  0  2  0  0  3  0  0  0  0  0  0
  180.1910  179.7580  141.1940 O   0  0  0  0  0  0  0  0  0  0  0  0
  179.9820  182.8800  137.8690 C   0  0  0  0  0  2  0  0  0  0  0  0
  180.4090  183.3250  136.4780 C   0  0  0  0  0  2  0  0  0  0  0  0
  182.1960  184.6120  137.5300 N   0  0  0  0  0  1  0  0  0  0  0  0
  181.1450  184.6550  136.5280 C   0  0  0  0  0  2  0  0  0  0  0  0
  192.2840  175.0610  144.3860 C   0  0  0  0  0  1  0  0  0  0  0  0
  190.2870  175.7170  143.0000 C   0  0  0  0  0  0  0  0  0  0  0  0
  190.2470  174.5720  142.4710 O   0  0  0  0  0  0  0  0  0  0  0  0
  191.2860  176.0320  143.9700 N   0  0  0  0  0  2  0  0  0  0  0  0
  1 20  1  0  0  0  0
  3 23  2  0  0  0  0
  4  3  1  0  0  0  0
  5 15  1  0  0  0  0
  6  1  1  1  0  0  0
  6  4  1  0  0  0  0
  7 10  1  0  0  0  0
  8  2  1  1  0  0  0
  8 22  1  0  0  0  0
  8 36  1  0  0  0  0
  9  2  1  0  0  0  0
 10 28  1  6  0  0  0
 10 12  1  0  0  0  0
 12 50  1  1  0  0  0
 12 22  1  0  0  0  0
 13  5  1  0  0  0  0
 13 11  1  0  0  0  0
 14 16  2  0  0  0  0
 15 17  2  0  0  0  0
 15 19  1  0  0  0  0
 16 18  2  0  0  0  0
 18  9  1  0  0  0  0
 19 41  1  0  0  0  0
 19 14  1  1  0  0  0
 20 23  1  0  0  0  0
 21 18  1  0  0  0  0
 22 25  1  6  0  0  0
 23  7  1  0  0  0  0
 24 11  1  0  0  0  0
 24  6  1  0  0  0  0
 26 32  1  0  0  0  0
 27 26  2  0  0  0  0
 27 31  1  0  0  0  0
 28 29  1  0  0  0  0
 30 27  1  0  0  0  0
 31 28  2  0  0  0  0
 32 29  2  0  0  0  0
 33 37  2  0  0  0  0
 34 37  1  0  0  0  0
 36 38  1  0  0  0  0
 36 33  1  0  0  0  0
 37 35  1  0  0  0  0
 38 34  2  0  0  0  0
 39 44  2  0  0  0  0
 40 39  1  0  0  0  0
 41 42  1  6  0  0  0
 41 39  1  0  0  0  0
 43 45  1  1  0  0  0
 43 42  1  0  0  0  0
 43 40  1  0  0  0  0
 46 48  1  0  0  0  0
 46 45  1  0  0  0  0
 48 47  1  0  0  0  0
 50 52  1  0  0  0  0
 51 50  2  0  0  0  0
 52 49  1  0  0  0  0
M  END
>  <MODEL>
3

>  <REMARK>
 VINA RESULT:      -0.5      2.686      9.333
  Name = 
  7 active torsions:
  status: ('A' for Active; 'I' for Inactive)
    1  A    between atoms: C_10  and  C_27
    2  A    between atoms: N_18  and  C_19
    3  A    between atoms: C_23  and  C_24
    4  A    between atoms: C_37  and  C_42
    5  A    between atoms: C_39  and  C_40
    6  A    between atoms: C_39  and  C_45
    7  A    between atoms: C_41  and  C_45
                            x       y       z     vdW  Elec       q    Type
                         _______ _______ _______ _____ _____    ______ ____

>  <TORSDO>
F 7

$$$$
=
 OpenBabel11062415153D

 52 56  0  0  1  0  0  0  0  0999 V2000
  191.4070  175.8640  142.2830 C   0  0  0  0  0  2  0  0  0  0  0  0
  189.3740  178.3410  137.5320 C   0  0  0  0  0  2  0  0  0  0  0  0
  192.1470  176.9700  139.7290 C   0  0  0  0  0  3  0  0  0  0  0  0
  192.4310  177.8430  140.9110 C   0  0  0  0  0  2  0  0  0  0  0  0
  189.1030  178.8090  144.4020 N   0  0  0  0  0  2  0  0  0  0  0  0
  192.4380  177.0150  142.2150 C   0  0  1  0  0  3  0  0  0  0  0  0
  190.9050  175.1790  138.7140 O   0  0  0  0  0  0  0  0  0  0  0  0
  189.1640  177.0160  136.7920 C   0  0  2  0  0  3  0  0  0  0  0  0
  188.1020  178.8320  138.2240 C   0  0  0  0  0  2  0  0  0  0  0  0
  191.6400  175.1070  137.4880 C   0  0  1  0  0  3  0  0  0  0  0  0
  191.2900  178.5940  143.3990 C   0  0  0  0  0  2  0  0  0  0  0  0
  191.6660  176.4570  136.7300 C   0  0  2  0  0  3  0  0  0  0  0  0
  190.4340  178.2600  144.6070 C   0  0  0  0  0  2  0  0  0  0  0  0
  187.4090  179.6030  141.6480 C   0  0  0  0  0  3  0  0  0  0  0  0
  188.1700  178.1940  143.5120 C   0  0  0  0  0  0  0  0  0  0  0  0
  187.6390  178.8710  140.5880 C   0  0  0  0  0  0  0  0  0  0  0  0
  188.3470  177.0070  143.1240 O   0  0  0  0  0  0  0  0  0  0  0  0
  187.8510  178.1460  139.5270 C   0  0  0  0  0  0  0  0  0  0  0  0
  187.0280  179.0030  142.9740 C   0  0  2  0  0  3  0  0  0  0  0  0
  190.4550  175.8370  141.0820 C   0  0  0  0  0  2  0  0  0  0  0  0
  187.5170  176.6950  139.5640 C   0  0  0  0  0  1  0  0  0  0  0  0
  190.3810  176.6860  135.9220 C   0  0  1  0  0  3  0  0  0  0  0  0
  191.2100  176.0160  139.8000 C   0  0  0  0  0  0  0  0  0  0  0  0
  192.4500  177.8030  143.3870 O   0  0  0  0  0  0  0  0  0  0  0  0
  190.1140  175.5820  135.1070 O   0  0  0  0  0  1  0  0  0  0  0  0
  195.3880  173.0240  137.9100 C   0  0  0  0  0  3  0  0  0  0  0  0
  195.1070  174.1090  138.7430 C   0  0  0  0  0  0  0  0  0  0  0  0
  192.9530  174.3900  137.6580 C   0  0  0  0  0  0  0  0  0  0  0  0
  193.2380  173.3000  136.8280 C   0  0  0  0  0  3  0  0  0  0  0  0
  196.0980  174.5410  139.7620 C   0  0  0  0  0  1  0  0  0  0  0  0
  193.8940  174.7910  138.6170 C   0  0  0  0  0  3  0  0  0  0  0  0
  194.4520  172.6180  136.9520 C   0  0  0  0  0  3  0  0  0  0  0  0
  187.0550  176.0350  135.8030 N   0  0  0  0  0  0  0  0  0  0  0  0
  186.2850  177.8030  134.5980 N   0  0  0  0  0  0  0  0  0  0  0  0
  184.9560  175.6140  134.6400 C   0  0  0  0  0  1  0  0  0  0  0  0
  187.9670  177.0810  135.9590 N   0  0  0  0  0  0  0  0  0  0  0  0
  186.1140  176.4580  135.0340 C   0  0  0  0  0  0  0  0  0  0  0  0
  187.5310  178.2450  135.2110 C   0  0  0  0  0  3  0  0  0  0  0  0
  184.7350  178.8540  142.0010 C   0  0  0  0  0  0  0  0  0  0  0  0
  183.6350  179.4360  142.6660 N   0  0  0  0  0  2  0  0  0  0  0  0
  185.7110  178.2060  142.9110 C   0  0  2  0  0  3  0  0  0  0  0  0
  184.9820  178.2700  144.2580 C   0  0  0  0  0  2  0  0  0  0  0  0
  183.7990  179.2290  144.0930 C   0  0  2  0  0  3  0  0  0  0  0  0
  184.8430  178.8630  140.7470 O   0  0  0  0  0  0  0  0  0  0  0  0
  182.5430  178.6080  144.6830 C   0  0  0  0  0  2  0  0  0  0  0  0
  181.3630  178.7330  143.7300 C   0  0  0  0  0  2  0  0  0  0  0  0
  178.9950  178.7920  144.3200 N   0  0  0  0  0  1  0  0  0  0  0  0
  180.1660  177.9370  144.2300 C   0  0  0  0  0  2  0  0  0  0  0  0
  195.2900  177.2890  135.6340 C   0  0  0  0  0  1  0  0  0  0  0  0
  192.8650  176.6450  135.8490 C   0  0  0  0  0  0  0  0  0  0  0  0
  192.7980  176.3890  134.6150 O   0  0  0  0  0  0  0  0  0  0  0  0
  194.0870  177.1040  136.4280 N   0  0  0  0  0  2  0  0  0  0  0  0
  2  9  1  0  0  0  0
  3 23  2  0  0  0  0
  3  4  1  0  0  0  0
  5 13  1  0  0  0  0
  6  4  1  6  0  0  0
  6  1  1  0  0  0  0
  6 24  1  0  0  0  0
  7 23  1  0  0  0  0
  8 36  1  6  0  0  0
  8  2  1  0  0  0  0
  9 18  1  0  0  0  0
 10 28  1  1  0  0  0
 10  7  1  0  0  0  0
 11 13  1  0  0  0  0
 12 50  1  6  0  0  0
 12 10  1  0  0  0  0
 15  5  1  0  0  0  0
 16 14  2  0  0  0  0
 17 15  2  0  0  0  0
 18 21  1  0  0  0  0
 18 16  2  0  0  0  0
 19 14  1  6  0  0  0
 19 15  1  0  0  0  0
 20  1  1  0  0  0  0
 22 25  1  1  0  0  0
 22 12  1  0  0  0  0
 22  8  1  0  0  0  0
 23 20  1  0  0  0  0
 24 11  1  0  0  0  0
 26 27  1  0  0  0  0
 27 30  1  0  0  0  0
 28 31  1  0  0  0  0
 29 32  1  0  0  0  0
 29 28  2  0  0  0  0
 31 27  2  0  0  0  0
 32 26  2  0  0  0  0
 33 36  1  0  0  0  0
 34 37  1  0  0  0  0
 34 38  2  0  0  0  0
 35 37  1  0  0  0  0
 37 33  2  0  0  0  0
 38 36  1  0  0  0  0
 39 40  1  0  0  0  0
 39 41  1  0  0  0  0
 40 43  1  0  0  0  0
 41 19  1  0  0  0  0
 41 42  1  1  0  0  0
 43 42  1  0  0  0  0
 43 45  1  6  0  0  0
 44 39  2  0  0  0  0
 46 48  1  0  0  0  0
 46 45  1  0  0  0  0
 48 47  1  0  0  0  0
 49 52  1  0  0  0  0
 50 52  1  0  0  0  0
 51 50  2  0  0  0  0
M  END
>  <MODEL>
4

>  <REMARK>
 VINA RESULT:      -0.4      3.071     10.775
  Name = 
  7 active torsions:
  status: ('A' for Active; 'I' for Inactive)
    1  A    between atoms: C_10  and  C_27
    2  A    between atoms: N_18  and  C_19
    3  A    between atoms: C_23  and  C_24
    4  A    between atoms: C_37  and  C_42
    5  A    between atoms: C_39  and  C_40
    6  A    between atoms: C_39  and  C_45
    7  A    between atoms: C_41  and  C_45
                            x       y       z     vdW  Elec       q    Type
                         _______ _______ _______ _____ _____    ______ ____

>  <TORSDO>
F 7

$$$$
