=
 OpenBabel11062416043D

 36 41  0  0  1  0  0  0  0  0999 V2000
  184.4450  178.9540  142.9090 C   0  0  1  0  0  3  0  0  0  0  0  0
  185.7980  179.2680  140.8860 C   0  0  0  0  0  2  0  0  0  0  0  0
  185.8420  179.3080  142.4010 C   0  0  0  0  0  2  0  0  0  0  0  0
  184.5470  178.5380  140.5630 C   0  0  0  0  0  0  0  0  0  0  0  0
  182.3570  178.8320  141.6150 C   0  0  0  0  0  3  0  0  0  0  0  0
  183.7240  178.2570  141.7640 C   0  0  2  0  0  3  0  0  0  0  0  0
  184.2660  178.0780  139.3350 C   0  0  0  0  0  0  0  0  0  0  0  0
  181.8530  177.5320  139.6050 N   0  0  0  0  0  0  0  0  0  0  0  0
  181.5190  178.4590  140.6510 C   0  0  0  0  0  3  0  0  0  0  0  0
  183.0070  177.3510  139.0290 C   0  0  0  0  0  3  0  0  0  0  0  0
  185.9490  177.5870  144.3870 C   0  0  0  0  0  2  0  0  0  0  0  0
  184.1530  178.8360  145.4060 C   0  0  0  0  0  2  0  0  0  0  0  0
  185.4470  179.2980  146.0550 C   0  0  0  0  0  2  0  0  0  0  0  0
  184.5250  178.0570  144.1510 C   0  0  1  0  0  3  0  0  0  0  0  0
  186.5760  178.6290  145.2940 C   0  0  1  0  0  3  0  0  0  0  0  0
  187.5610  178.0360  146.1980 N   0  0  0  0  0  0  0  0  0  0  0  0
  187.3180  178.1710  147.6340 C   0  0  0  0  0  2  0  0  0  0  0  0
  188.7870  177.4350  145.7360 C   0  0  0  0  0  0  0  0  0  0  0  0
  189.5850  177.4800  148.0060 O   0  0  0  0  0  0  0  0  0  0  0  0
  189.7250  176.8380  146.7590 C   0  0  2  0  0  3  0  0  0  0  0  0
  189.0320  177.3290  144.5020 O   0  0  0  0  0  0  0  0  0  0  0  0
  188.2620  177.2680  148.4310 C   0  0  0  0  0  2  0  0  0  0  0  0
  191.1860  176.8770  146.3080 C   0  0  0  0  0  2  0  0  0  0  0  0
  192.0600  175.9490  147.1360 C   0  0  0  0  0  1  0  0  0  0  0  0
  185.2120  178.3080  138.2790 N   0  0  0  0  0  2  0  0  0  0  0  0
  186.5320  174.3980  135.9340 O   0  0  0  0  0  0  0  0  0  0  0  0
  186.2310  177.3970  137.8500 C   0  0  0  0  0  0  0  0  0  0  0  0
  188.2950  175.5700  136.9930 C   0  0  0  0  0  3  0  0  0  0  0  0
  188.0450  178.7150  138.6690 O   0  0  0  0  0  0  0  0  0  0  0  0
  185.8730  176.3420  137.1140 C   0  0  0  0  0  3  0  0  0  0  0  0
  188.6780  176.6250  137.7220 C   0  0  0  0  0  0  0  0  0  0  0  0
  186.8800  175.3800  136.6380 C   0  0  0  0  0  0  0  0  0  0  0  0
  187.6730  177.6380  138.1320 C   0  0  0  0  0  0  0  0  0  0  0  0
  190.4030  176.5240  139.4640 C   0  0  0  0  0  2  0  0  0  0  0  0
  190.1320  176.8180  138.0380 C   0  0  1  0  0  3  0  0  0  0  0  0
  190.6990  175.5960  138.4530 O   0  0  0  0  0  0  0  0  0  0  0  0
  1  3  1  6  0  0  0
  1 14  1  0  0  0  0
  2  3  1  0  0  0  0
  4  2  1  0  0  0  0
  4  6  1  0  0  0  0
  6  5  1  6  0  0  0
  6  1  1  0  0  0  0
  7  4  2  0  0  0  0
  8  9  1  0  0  0  0
  9  5  2  0  0  0  0
 10  7  1  0  0  0  0
 10  8  2  0  0  0  0
 12 13  1  0  0  0  0
 14 11  1  1  0  0  0
 14 12  1  0  0  0  0
 15 11  1  6  0  0  0
 15 13  1  0  0  0  0
 15 16  1  0  0  0  0
 16 17  1  0  0  0  0
 17 22  1  0  0  0  0
 18 16  1  0  0  0  0
 18 20  1  0  0  0  0
 19 22  1  0  0  0  0
 20 23  1  6  0  0  0
 20 19  1  0  0  0  0
 21 18  2  0  0  0  0
 23 24  1  0  0  0  0
 25  7  1  0  0  0  0
 26 32  2  0  0  0  0
 27 33  1  0  0  0  0
 27 25  1  0  0  0  0
 28 31  2  0  0  0  0
 30 27  2  0  0  0  0
 31 33  1  0  0  0  0
 32 28  1  0  0  0  0
 32 30  1  0  0  0  0
 33 29  2  0  0  0  0
 35 31  1  1  0  0  0
 35 36  1  0  0  0  0
 35 34  1  0  0  0  0
 36 34  1  0  0  0  0
M  END
>  <MODEL>
1

>  <REMARK>
 VINA RESULT:      -9.3      0.000      0.000
  Name = 
  6 active torsions:
  status: ('A' for Active; 'I' for Inactive)
    1  A    between atoms: N_1  and  C_16
    2  A    between atoms: N_1  and  C_22
    3  A    between atoms: C_5  and  C_27
    4  A    between atoms: C_7  and  C_23
    5  A    between atoms: N_12  and  C_30
    6  A    between atoms: C_20  and  C_28
                            x       y       z     vdW  Elec       q    Type
                         _______ _______ _______ _____ _____    ______ ____

>  <TORSDO>
F 6

$$$$
=
 OpenBabel11062416043D

 36 41  0  0  1  0  0  0  0  0999 V2000
  184.0800  179.0360  143.2850 C   0  0  1  0  0  3  0  0  0  0  0  0
  184.8890  179.2180  140.9750 C   0  0  0  0  0  2  0  0  0  0  0  0
  185.3310  179.2130  142.4250 C   0  0  0  0  0  2  0  0  0  0  0  0
  183.5100  178.6700  140.9980 C   0  0  0  0  0  0  0  0  0  0  0  0
  181.7310  179.2290  142.5830 C   0  0  0  0  0  3  0  0  0  0  0  0
  182.9970  178.4720  142.3750 C   0  0  2  0  0  3  0  0  0  0  0  0
  182.8580  178.2830  139.8910 C   0  0  0  0  0  0  0  0  0  0  0  0
  180.5480  178.0600  140.7880 N   0  0  0  0  0  0  0  0  0  0  0  0
  180.6280  178.9970  141.8750 C   0  0  0  0  0  3  0  0  0  0  0  0
  181.4760  177.7400  139.9320 C   0  0  0  0  0  3  0  0  0  0  0  0
  185.7890  177.5990  144.4380 C   0  0  0  0  0  2  0  0  0  0  0  0
  184.2370  178.8590  145.7900 C   0  0  0  0  0  2  0  0  0  0  0  0
  185.6380  179.2750  146.2060 C   0  0  0  0  0  2  0  0  0  0  0  0
  184.3570  178.1050  144.4720 C   0  0  1  0  0  3  0  0  0  0  0  0
  186.5950  178.6020  145.2390 C   0  0  1  0  0  3  0  0  0  0  0  0
  187.7090  177.9650  145.9390 N   0  0  0  0  0  0  0  0  0  0  0  0
  187.6010  177.8330  147.3920 C   0  0  0  0  0  2  0  0  0  0  0  0
  188.9270  177.5710  145.2760 C   0  0  0  0  0  0  0  0  0  0  0  0
  189.9430  177.3130  147.4430 O   0  0  0  0  0  0  0  0  0  0  0  0
  190.0080  176.9050  146.0950 C   0  0  2  0  0  3  0  0  0  0  0  0
  189.0550  177.6970  144.0260 O   0  0  0  0  0  0  0  0  0  0  0  0
  188.6900  176.9060  147.9350 C   0  0  0  0  0  2  0  0  0  0  0  0
  191.4090  177.1600  145.5360 C   0  0  0  0  0  2  0  0  0  0  0  0
  191.7860  176.1490  144.4650 C   0  0  0  0  0  1  0  0  0  0  0  0
  183.5190  178.4110  138.6230 N   0  0  0  0  0  2  0  0  0  0  0  0
  184.0720  174.1380  136.6320 O   0  0  0  0  0  0  0  0  0  0  0  0
  184.3530  177.4230  138.0050 C   0  0  0  0  0  0  0  0  0  0  0  0
  186.0450  175.4410  136.7630 C   0  0  0  0  0  3  0  0  0  0  0  0
  186.2780  178.8290  137.8740 O   0  0  0  0  0  0  0  0  0  0  0  0
  183.8000  176.2640  137.6350 C   0  0  0  0  0  3  0  0  0  0  0  0
  186.6180  176.5970  137.1170 C   0  0  0  0  0  0  0  0  0  0  0  0
  184.6070  175.2190  136.9880 C   0  0  0  0  0  0  0  0  0  0  0  0
  185.7850  177.6830  137.6950 C   0  0  0  0  0  0  0  0  0  0  0  0
  188.8870  176.5290  138.0480 C   0  0  0  0  0  2  0  0  0  0  0  0
  188.0770  176.8160  136.8410 C   0  0  1  0  0  3  0  0  0  0  0  0
  188.7800  175.6030  136.9960 O   0  0  0  0  0  0  0  0  0  0  0  0
  1  3  1  6  0  0  0
  1 14  1  0  0  0  0
  2  4  1  0  0  0  0
  2  3  1  0  0  0  0
  4  6  1  0  0  0  0
  6  5  1  6  0  0  0
  6  1  1  0  0  0  0
  7 10  1  0  0  0  0
  7  4  2  0  0  0  0
  8  9  1  0  0  0  0
  9  5  2  0  0  0  0
 10  8  2  0  0  0  0
 12 13  1  0  0  0  0
 14 11  1  6  0  0  0
 14 12  1  0  0  0  0
 15 11  1  1  0  0  0
 15 16  1  0  0  0  0
 15 13  1  0  0  0  0
 16 17  1  0  0  0  0
 17 22  1  0  0  0  0
 18 16  1  0  0  0  0
 18 20  1  0  0  0  0
 19 22  1  0  0  0  0
 20 23  1  6  0  0  0
 20 19  1  0  0  0  0
 21 18  2  0  0  0  0
 24 23  1  0  0  0  0
 25  7  1  0  0  0  0
 26 32  2  0  0  0  0
 27 25  1  0  0  0  0
 28 32  1  0  0  0  0
 28 31  2  0  0  0  0
 30 27  2  0  0  0  0
 31 33  1  0  0  0  0
 32 30  1  0  0  0  0
 33 29  2  0  0  0  0
 33 27  1  0  0  0  0
 35 36  1  0  0  0  0
 35 31  1  1  0  0  0
 35 34  1  0  0  0  0
 36 34  1  0  0  0  0
M  END
>  <MODEL>
2

>  <REMARK>
 VINA RESULT:      -8.9      1.203      1.525
  Name = 
  6 active torsions:
  status: ('A' for Active; 'I' for Inactive)
    1  A    between atoms: N_1  and  C_16
    2  A    between atoms: N_1  and  C_22
    3  A    between atoms: C_5  and  C_27
    4  A    between atoms: C_7  and  C_23
    5  A    between atoms: N_12  and  C_30
    6  A    between atoms: C_20  and  C_28
                            x       y       z     vdW  Elec       q    Type
                         _______ _______ _______ _____ _____    ______ ____

>  <TORSDO>
F 6

$$$$
=
 OpenBabel11062416043D

 36 41  0  0  1  0  0  0  0  0999 V2000
  191.1900  175.8270  137.7940 C   0  0  1  0  0  3  0  0  0  0  0  0
  190.6960  177.2280  139.7470 C   0  0  0  0  0  2  0  0  0  0  0  0
  191.8190  176.5590  138.9790 C   0  0  0  0  0  2  0  0  0  0  0  0
  189.5380  177.2080  138.8190 C   0  0  0  0  0  0  0  0  0  0  0  0
  188.8100  175.3420  137.4140 C   0  0  0  0  0  3  0  0  0  0  0  0
  189.8100  176.4330  137.5840 C   0  0  2  0  0  3  0  0  0  0  0  0
  188.4220  177.9220  139.0270 C   0  0  0  0  0  0  0  0  0  0  0  0
  186.9050  176.8760  137.3550 N   0  0  0  0  0  0  0  0  0  0  0  0
  187.5060  175.5730  137.2760 C   0  0  0  0  0  3  0  0  0  0  0  0
  187.2710  177.8880  138.0880 C   0  0  0  0  0  3  0  0  0  0  0  0
  193.5030  176.2610  136.9130 C   0  0  0  0  0  2  0  0  0  0  0  0
  192.1150  174.6530  135.7690 C   0  0  0  0  0  2  0  0  0  0  0  0
  193.3900  173.9360  136.1810 C   0  0  0  0  0  2  0  0  0  0  0  0
  192.0610  175.9660  136.5390 C   0  0  1  0  0  3  0  0  0  0  0  0
  194.1770  174.9090  137.0380 C   0  0  1  0  0  3  0  0  0  0  0  0
  195.5820  174.9650  136.6400 N   0  0  0  0  0  0  0  0  0  0  0  0
  195.8800  175.4780  135.3020 C   0  0  0  0  0  2  0  0  0  0  0  0
  196.6500  174.4460  137.4570 C   0  0  0  0  0  0  0  0  0  0  0  0
  198.1010  174.6060  135.5440 O   0  0  0  0  0  0  0  0  0  0  0  0
  198.0690  174.5730  136.9530 C   0  0  2  0  0  3  0  0  0  0  0  0
  196.4170  173.9760  138.6050 O   0  0  0  0  0  0  0  0  0  0  0  0
  197.3780  175.7430  135.1430 C   0  0  0  0  0  2  0  0  0  0  0  0
  198.9780  173.4590  137.4730 C   0  0  0  0  0  2  0  0  0  0  0  0
  198.8220  172.1770  136.6710 C   0  0  0  0  0  1  0  0  0  0  0  0
  188.3350  178.7370  140.2070 N   0  0  0  0  0  2  0  0  0  0  0  0
  188.4360  176.7620  144.5220 O   0  0  0  0  0  0  0  0  0  0  0  0
  187.6780  178.3800  141.4290 C   0  0  0  0  0  0  0  0  0  0  0  0
  186.3420  177.6660  143.8860 C   0  0  0  0  0  3  0  0  0  0  0  0
  185.6500  179.5320  140.9190 O   0  0  0  0  0  0  0  0  0  0  0  0
  188.3810  177.7360  142.3650 C   0  0  0  0  0  3  0  0  0  0  0  0
  185.6210  178.3170  142.9660 C   0  0  0  0  0  0  0  0  0  0  0  0
  187.7600  177.3550  143.6430 C   0  0  0  0  0  0  0  0  0  0  0  0
  186.2720  178.7740  141.7120 C   0  0  0  0  0  0  0  0  0  0  0  0
  183.9720  178.8340  144.7090 C   0  0  0  0  0  2  0  0  0  0  0  0
  184.1880  178.6580  143.2530 C   0  0  1  0  0  3  0  0  0  0  0  0
  184.1090  179.9350  143.8470 O   0  0  0  0  0  0  0  0  0  0  0  0
  1  3  1  1  0  0  0
  3  2  1  0  0  0  0
  4  7  2  0  0  0  0
  4  2  1  0  0  0  0
  6  5  1  1  0  0  0
  6  1  1  0  0  0  0
  6  4  1  0  0  0  0
  7 25  1  0  0  0  0
  8 10  2  0  0  0  0
  9  8  1  0  0  0  0
  9  5  2  0  0  0  0
 10  7  1  0  0  0  0
 11 15  1  0  0  0  0
 12 13  1  0  0  0  0
 14 12  1  1  0  0  0
 14 11  1  0  0  0  0
 14  1  1  0  0  0  0
 15 13  1  6  0  0  0
 16 15  1  0  0  0  0
 16 18  1  0  0  0  0
 17 16  1  0  0  0  0
 18 21  2  0  0  0  0
 19 20  1  0  0  0  0
 20 18  1  0  0  0  0
 20 23  1  6  0  0  0
 22 17  1  0  0  0  0
 22 19  1  0  0  0  0
 24 23  1  0  0  0  0
 25 27  1  0  0  0  0
 27 33  1  0  0  0  0
 27 30  2  0  0  0  0
 29 33  2  0  0  0  0
 30 32  1  0  0  0  0
 31 28  2  0  0  0  0
 32 28  1  0  0  0  0
 32 26  2  0  0  0  0
 33 31  1  0  0  0  0
 35 31  1  1  0  0  0
 35 36  1  0  0  0  0
 35 34  1  0  0  0  0
 36 34  1  0  0  0  0
M  END
>  <MODEL>
3

>  <REMARK>
 VINA RESULT:      -8.5      4.703      9.672
  Name = 
  6 active torsions:
  status: ('A' for Active; 'I' for Inactive)
    1  A    between atoms: N_1  and  C_16
    2  A    between atoms: N_1  and  C_22
    3  A    between atoms: C_5  and  C_27
    4  A    between atoms: C_7  and  C_23
    5  A    between atoms: N_12  and  C_30
    6  A    between atoms: C_20  and  C_28
                            x       y       z     vdW  Elec       q    Type
                         _______ _______ _______ _____ _____    ______ ____

>  <TORSDO>
F 6

$$$$
=
 OpenBabel11062416043D

 36 41  0  0  1  0  0  0  0  0999 V2000
  185.9440  178.4040  143.3640 C   0  0  1  0  0  3  0  0  0  0  0  0
  185.7630  179.0220  140.9960 C   0  0  0  0  0  2  0  0  0  0  0  0
  186.7430  178.6120  142.0770 C   0  0  0  0  0  2  0  0  0  0  0  0
  184.4280  178.6740  141.5420 C   0  0  0  0  0  0  0  0  0  0  0  0
  183.6210  179.0700  143.8190 C   0  0  0  0  0  3  0  0  0  0  0  0
  184.4890  178.2230  142.9530 C   0  0  2  0  0  3  0  0  0  0  0  0
  183.3140  178.6530  140.7950 C   0  0  0  0  0  0  0  0  0  0  0  0
  181.5820  178.5330  142.5770 N   0  0  0  0  0  0  0  0  0  0  0  0
  182.3040  179.1640  143.6480 C   0  0  0  0  0  3  0  0  0  0  0  0
  181.9850  178.3050  141.3600 C   0  0  0  0  0  3  0  0  0  0  0  0
  187.8700  176.8260  143.6990 C   0  0  0  0  0  2  0  0  0  0  0  0
  186.5860  177.5070  145.6250 C   0  0  0  0  0  2  0  0  0  0  0  0
  188.0330  177.8880  145.8900 C   0  0  0  0  0  2  0  0  0  0  0  0
  186.4640  177.1880  144.1410 C   0  0  1  0  0  3  0  0  0  0  0  0
  188.7980  177.6060  144.6100 C   0  0  1  0  0  3  0  0  0  0  0  0
  190.0380  176.8790  144.8710 N   0  0  0  0  0  0  0  0  0  0  0  0
  190.6390  176.1540  143.7500 C   0  0  0  0  0  2  0  0  0  0  0  0
  190.6180  176.7640  146.1860 C   0  0  0  0  0  0  0  0  0  0  0  0
  192.0400  175.0200  145.3330 O   0  0  0  0  0  0  0  0  0  0  0  0
  191.9130  176.0020  146.3370 C   0  0  2  0  0  3  0  0  0  0  0  0
  190.1050  177.3600  147.1740 O   0  0  0  0  0  0  0  0  0  0  0  0
  192.0560  175.6930  144.0990 C   0  0  0  0  0  2  0  0  0  0  0  0
  192.0610  175.3630  147.7190 C   0  0  0  0  0  2  0  0  0  0  0  0
  193.1810  176.0030  148.5240 C   0  0  0  0  0  1  0  0  0  0  0  0
  183.4130  178.9910  139.4030 N   0  0  0  0  0  2  0  0  0  0  0  0
  181.6620  175.8460  136.3080 O   0  0  0  0  0  0  0  0  0  0  0  0
  183.6020  178.0670  138.3240 C   0  0  0  0  0  0  0  0  0  0  0  0
  183.9970  176.2070  136.1520 C   0  0  0  0  0  3  0  0  0  0  0  0
  185.8950  178.6280  137.9690 O   0  0  0  0  0  0  0  0  0  0  0  0
  182.5380  177.4050  137.8580 C   0  0  0  0  0  3  0  0  0  0  0  0
  185.0750  176.8640  136.5960 C   0  0  0  0  0  0  0  0  0  0  0  0
  182.6730  176.4520  136.7460 C   0  0  0  0  0  0  0  0  0  0  0  0
  184.9230  177.8860  137.6630 C   0  0  0  0  0  0  0  0  0  0  0  0
  187.1820  175.6110  136.6970 C   0  0  0  0  0  2  0  0  0  0  0  0
  186.4070  176.6270  135.9470 C   0  0  1  0  0  3  0  0  0  0  0  0
  186.4960  175.2880  135.5140 O   0  0  0  0  0  0  0  0  0  0  0  0
  1  3  1  6  0  0  0
  1 14  1  0  0  0  0
  2  4  1  0  0  0  0
  2  3  1  0  0  0  0
  4  6  1  0  0  0  0
  6  1  1  0  0  0  0
  6  5  1  1  0  0  0
  7 10  1  0  0  0  0
  7  4  2  0  0  0  0
  8  9  1  0  0  0  0
  9  5  2  0  0  0  0
 10  8  2  0  0  0  0
 12 13  1  0  0  0  0
 14 11  1  6  0  0  0
 14 12  1  0  0  0  0
 15 11  1  6  0  0  0
 15 16  1  0  0  0  0
 15 13  1  0  0  0  0
 16 18  1  0  0  0  0
 17 22  1  0  0  0  0
 17 16  1  0  0  0  0
 18 20  1  0  0  0  0
 18 21  2  0  0  0  0
 19 20  1  0  0  0  0
 20 23  1  1  0  0  0
 22 19  1  0  0  0  0
 23 24  1  0  0  0  0
 25  7  1  0  0  0  0
 26 32  2  0  0  0  0
 27 25  1  0  0  0  0
 28 31  2  0  0  0  0
 28 32  1  0  0  0  0
 30 27  2  0  0  0  0
 31 33  1  0  0  0  0
 32 30  1  0  0  0  0
 33 29  2  0  0  0  0
 33 27  1  0  0  0  0
 35 31  1  1  0  0  0
 35 34  1  0  0  0  0
 36 35  1  0  0  0  0
 36 34  1  0  0  0  0
M  END
>  <MODEL>
4

>  <REMARK>
 VINA RESULT:      -8.4      1.962      3.239
  Name = 
  6 active torsions:
  status: ('A' for Active; 'I' for Inactive)
    1  A    between atoms: N_1  and  C_16
    2  A    between atoms: N_1  and  C_22
    3  A    between atoms: C_5  and  C_27
    4  A    between atoms: C_7  and  C_23
    5  A    between atoms: N_12  and  C_30
    6  A    between atoms: C_20  and  C_28
                            x       y       z     vdW  Elec       q    Type
                         _______ _______ _______ _____ _____    ______ ____

>  <TORSDO>
F 6

$$$$
=
 OpenBabel11062416043D

 36 41  0  0  1  0  0  0  0  0999 V2000
  184.3650  178.8790  143.0010 C   0  0  1  0  0  3  0  0  0  0  0  0
  185.1920  178.8990  140.6900 C   0  0  0  0  0  2  0  0  0  0  0  0
  185.6290  178.8660  142.1420 C   0  0  0  0  0  2  0  0  0  0  0  0
  183.7520  178.5430  140.7200 C   0  0  0  0  0  0  0  0  0  0  0  0
  182.0630  179.3720  142.2860 C   0  0  0  0  0  3  0  0  0  0  0  0
  183.2160  178.4460  142.0990 C   0  0  2  0  0  3  0  0  0  0  0  0
  183.0550  178.2230  139.6200 C   0  0  0  0  0  0  0  0  0  0  0  0
  180.7340  178.3340  140.5130 N   0  0  0  0  0  0  0  0  0  0  0  0
  180.9390  179.2750  141.5790 C   0  0  0  0  0  3  0  0  0  0  0  0
  181.6120  177.8730  139.6680 C   0  0  0  0  0  3  0  0  0  0  0  0
  185.9680  177.5720  144.4260 C   0  0  0  0  0  2  0  0  0  0  0  0
  184.0900  178.6500  145.4920 C   0  0  0  0  0  2  0  0  0  0  0  0
  185.3500  179.1810  146.1550 C   0  0  0  0  0  2  0  0  0  0  0  0
  184.5130  177.9460  144.2090 C   0  0  1  0  0  3  0  0  0  0  0  0
  186.5220  178.6220  145.3690 C   0  0  1  0  0  3  0  0  0  0  0  0
  187.5500  178.0700  146.2510 N   0  0  0  0  0  0  0  0  0  0  0  0
  187.3680  178.2550  147.6910 C   0  0  0  0  0  2  0  0  0  0  0  0
  188.7590  177.4610  145.7580 C   0  0  0  0  0  0  0  0  0  0  0  0
  189.6550  177.5940  147.9880 O   0  0  0  0  0  0  0  0  0  0  0  0
  189.7460  176.9080  146.7600 C   0  0  2  0  0  3  0  0  0  0  0  0
  188.9520  177.3110  144.5190 O   0  0  0  0  0  0  0  0  0  0  0  0
  188.3530  177.3890  148.4780 C   0  0  0  0  0  2  0  0  0  0  0  0
  191.1850  176.9410  146.2450 C   0  0  0  0  0  2  0  0  0  0  0  0
  192.0530  175.8890  146.9180 C   0  0  0  0  0  1  0  0  0  0  0  0
  183.7270  178.2330  138.3510 N   0  0  0  0  0  2  0  0  0  0  0  0
  187.8950  176.8000  136.5880 O   0  0  0  0  0  0  0  0  0  0  0  0
  184.5730  177.1950  137.8400 C   0  0  0  0  0  0  0  0  0  0  0  0
  186.2670  175.0960  136.8130 C   0  0  0  0  0  3  0  0  0  0  0  0
  183.0470  175.4250  138.3240 O   0  0  0  0  0  0  0  0  0  0  0  0
  185.8130  177.5150  137.4560 C   0  0  0  0  0  3  0  0  0  0  0  0
  185.0330  174.7500  137.2000 C   0  0  0  0  0  0  0  0  0  0  0  0
  186.7270  176.4880  136.9340 C   0  0  0  0  0  0  0  0  0  0  0  0
  184.1410  175.7720  137.8030 C   0  0  0  0  0  0  0  0  0  0  0  0
  183.8830  173.0690  135.8320 C   0  0  0  0  0  2  0  0  0  0  0  0
  184.6010  173.3170  137.1040 C   0  0  1  0  0  3  0  0  0  0  0  0
  185.2280  172.7010  136.0000 O   0  0  0  0  0  0  0  0  0  0  0  0
  1  3  1  6  0  0  0
  1 14  1  0  0  0  0
  2  4  1  0  0  0  0
  2  3  1  0  0  0  0
  4  6  1  0  0  0  0
  6  5  1  6  0  0  0
  6  1  1  0  0  0  0
  7 10  1  0  0  0  0
  7  4  2  0  0  0  0
  8  9  1  0  0  0  0
  9  5  2  0  0  0  0
 10  8  2  0  0  0  0
 12 13  1  0  0  0  0
 14 11  1  1  0  0  0
 14 12  1  0  0  0  0
 15 11  1  6  0  0  0
 15 13  1  0  0  0  0
 15 16  1  0  0  0  0
 16 17  1  0  0  0  0
 17 22  1  0  0  0  0
 18 16  1  0  0  0  0
 18 20  1  0  0  0  0
 19 22  1  0  0  0  0
 20 23  1  6  0  0  0
 20 19  1  0  0  0  0
 21 18  2  0  0  0  0
 23 24  1  0  0  0  0
 25  7  1  0  0  0  0
 26 32  2  0  0  0  0
 27 25  1  0  0  0  0
 28 32  1  0  0  0  0
 28 31  2  0  0  0  0
 30 27  2  0  0  0  0
 31 33  1  0  0  0  0
 32 30  1  0  0  0  0
 33 27  1  0  0  0  0
 33 29  2  0  0  0  0
 34 36  1  0  0  0  0
 34 35  1  0  0  0  0
 35 31  1  6  0  0  0
 36 35  1  0  0  0  0
M  END
>  <MODEL>
5

>  <REMARK>
 VINA RESULT:      -8.3      1.519      2.671
  Name = 
  6 active torsions:
  status: ('A' for Active; 'I' for Inactive)
    1  A    between atoms: N_1  and  C_16
    2  A    between atoms: N_1  and  C_22
    3  A    between atoms: C_5  and  C_27
    4  A    between atoms: C_7  and  C_23
    5  A    between atoms: N_12  and  C_30
    6  A    between atoms: C_20  and  C_28
                            x       y       z     vdW  Elec       q    Type
                         _______ _______ _______ _____ _____    ______ ____

>  <TORSDO>
F 6

$$$$
=
 OpenBabel11062416043D

 36 41  0  0  1  0  0  0  0  0999 V2000
  191.0000  175.8830  137.8140 C   0  0  1  0  0  3  0  0  0  0  0  0
  190.5120  177.2570  139.7880 C   0  0  0  0  0  2  0  0  0  0  0  0
  191.6280  176.5640  139.0300 C   0  0  0  0  0  2  0  0  0  0  0  0
  189.3770  177.3020  138.8340 C   0  0  0  0  0  0  0  0  0  0  0  0
  188.6120  175.4970  137.3690 C   0  0  0  0  0  3  0  0  0  0  0  0
  189.6480  176.5460  137.5880 C   0  0  2  0  0  3  0  0  0  0  0  0
  188.2830  178.0520  139.0340 C   0  0  0  0  0  0  0  0  0  0  0  0
  186.7670  177.1020  137.3040 N   0  0  0  0  0  0  0  0  0  0  0  0
  187.3220  175.7800  137.2090 C   0  0  0  0  0  3  0  0  0  0  0  0
  187.1540  178.0830  138.0690 C   0  0  0  0  0  3  0  0  0  0  0  0
  193.3380  176.3020  136.9940 C   0  0  0  0  0  2  0  0  0  0  0  0
  191.9680  174.7050  135.8120 C   0  0  0  0  0  2  0  0  0  0  0  0
  193.2260  173.9780  136.2550 C   0  0  0  0  0  2  0  0  0  0  0  0
  191.9040  176.0170  136.5820 C   0  0  1  0  0  3  0  0  0  0  0  0
  193.9980  174.9440  137.1350 C   0  0  1  0  0  3  0  0  0  0  0  0
  195.4140  174.9910  136.7730 N   0  0  0  0  0  0  0  0  0  0  0  0
  195.7550  175.5730  135.4740 C   0  0  0  0  0  2  0  0  0  0  0  0
  196.4490  174.4000  137.5830 C   0  0  0  0  0  0  0  0  0  0  0  0
  197.9510  174.6370  135.7170 O   0  0  0  0  0  0  0  0  0  0  0  0
  197.8820  174.5230  137.1200 C   0  0  2  0  0  3  0  0  0  0  0  0
  196.1780  173.8700  138.6960 O   0  0  0  0  0  0  0  0  0  0  0  0
  197.2620  175.8120  135.3660 C   0  0  0  0  0  2  0  0  0  0  0  0
  198.7540  173.3600  137.5960 C   0  0  0  0  0  2  0  0  0  0  0  0
  198.5330  172.1070  136.7640 C   0  0  0  0  0  1  0  0  0  0  0  0
  188.1990  178.8430  140.2290 N   0  0  0  0  0  2  0  0  0  0  0  0
  183.9260  179.1420  142.2740 O   0  0  0  0  0  0  0  0  0  0  0  0
  187.3300  178.5960  141.3420 C   0  0  0  0  0  0  0  0  0  0  0  0
  185.5910  178.0920  143.5890 C   0  0  0  0  0  3  0  0  0  0  0  0
  188.9160  177.2900  142.5580 O   0  0  0  0  0  0  0  0  0  0  0  0
  186.0600  179.0030  141.2600 C   0  0  0  0  0  3  0  0  0  0  0  0
  186.8560  177.6670  143.6900 C   0  0  0  0  0  0  0  0  0  0  0  0
  185.1220  178.7660  142.3680 C   0  0  0  0  0  0  0  0  0  0  0  0
  187.7790  177.8340  142.5380 C   0  0  0  0  0  0  0  0  0  0  0  0
  187.9490  177.8830  145.8760 C   0  0  0  0  0  2  0  0  0  0  0  0
  187.2990  176.9470  144.9290 C   0  0  1  0  0  3  0  0  0  0  0  0
  186.6200  177.4630  146.0520 O   0  0  0  0  0  0  0  0  0  0  0  0
  1  3  1  1  0  0  0
  3  2  1  0  0  0  0
  4  7  2  0  0  0  0
  4  2  1  0  0  0  0
  6  5  1  1  0  0  0
  6  1  1  0  0  0  0
  6  4  1  0  0  0  0
  7 25  1  0  0  0  0
  8 10  2  0  0  0  0
  9  8  1  0  0  0  0
  9  5  2  0  0  0  0
 10  7  1  0  0  0  0
 11 15  1  0  0  0  0
 12 13  1  0  0  0  0
 14 12  1  1  0  0  0
 14 11  1  0  0  0  0
 14  1  1  0  0  0  0
 15 13  1  6  0  0  0
 16 15  1  0  0  0  0
 16 18  1  0  0  0  0
 17 16  1  0  0  0  0
 18 21  2  0  0  0  0
 19 20  1  0  0  0  0
 20 18  1  0  0  0  0
 20 23  1  6  0  0  0
 22 17  1  0  0  0  0
 22 19  1  0  0  0  0
 24 23  1  0  0  0  0
 25 27  1  0  0  0  0
 26 32  2  0  0  0  0
 27 33  1  0  0  0  0
 28 31  2  0  0  0  0
 30 27  2  0  0  0  0
 30 32  1  0  0  0  0
 32 28  1  0  0  0  0
 33 29  2  0  0  0  0
 33 31  1  0  0  0  0
 34 36  1  0  0  0  0
 35 31  1  6  0  0  0
 35 34  1  0  0  0  0
 35 36  1  0  0  0  0
M  END
>  <MODEL>
6

>  <REMARK>
 VINA RESULT:      -8.3      4.568      9.434
  Name = 
  6 active torsions:
  status: ('A' for Active; 'I' for Inactive)
    1  A    between atoms: N_1  and  C_16
    2  A    between atoms: N_1  and  C_22
    3  A    between atoms: C_5  and  C_27
    4  A    between atoms: C_7  and  C_23
    5  A    between atoms: N_12  and  C_30
    6  A    between atoms: C_20  and  C_28
                            x       y       z     vdW  Elec       q    Type
                         _______ _______ _______ _____ _____    ______ ____

>  <TORSDO>
F 6

$$$$
=
 OpenBabel11062416043D

 36 41  0  0  1  0  0  0  0  0999 V2000
  191.4210  177.5540  141.1850 C   0  0  1  0  0  3  0  0  0  0  0  0
  192.8240  177.2690  139.1920 C   0  0  0  0  0  2  0  0  0  0  0  0
  192.8650  177.5420  140.6830 C   0  0  0  0  0  2  0  0  0  0  0  0
  191.4560  176.7540  138.9380 C   0  0  0  0  0  0  0  0  0  0  0  0
  189.3600  177.6360  139.8450 C   0  0  0  0  0  3  0  0  0  0  0  0
  190.5840  176.8360  140.1340 C   0  0  2  0  0  3  0  0  0  0  0  0
  191.0980  176.1660  137.7870 C   0  0  0  0  0  0  0  0  0  0  0  0
  188.6220  176.1530  138.0430 N   0  0  0  0  0  0  0  0  0  0  0  0
  188.4720  177.2840  138.9180 C   0  0  0  0  0  3  0  0  0  0  0  0
  189.7220  175.6590  137.5490 C   0  0  0  0  0  3  0  0  0  0  0  0
  190.7100  177.8150  143.5810 C   0  0  0  0  0  2  0  0  0  0  0  0
  190.3510  175.6900  142.4940 C   0  0  0  0  0  2  0  0  0  0  0  0
  188.9990  176.1780  142.9890 C   0  0  0  0  0  2  0  0  0  0  0  0
  191.3110  176.8710  142.5540 C   0  0  1  0  0  3  0  0  0  0  0  0
  189.2130  177.5830  143.5210 C   0  0  1  0  0  3  0  0  0  0  0  0
  188.5840  177.7670  144.8280 N   0  0  0  0  0  0  0  0  0  0  0  0
  189.4170  177.5420  146.0100 C   0  0  0  0  0  2  0  0  0  0  0  0
  187.1800  178.0510  144.9880 C   0  0  0  0  0  0  0  0  0  0  0  0
  187.4100  177.5230  147.3250 O   0  0  0  0  0  0  0  0  0  0  0  0
  186.6400  178.2390  146.3870 C   0  0  2  0  0  3  0  0  0  0  0  0
  186.4350  178.2260  143.9840 O   0  0  0  0  0  0  0  0  0  0  0  0
  188.7140  178.0460  147.2720 C   0  0  0  0  0  2  0  0  0  0  0  0
  185.1670  177.8450  146.5050 C   0  0  0  0  0  2  0  0  0  0  0  0
  184.2480  178.8980  145.9070 C   0  0  0  0  0  1  0  0  0  0  0  0
  192.0790  176.0340  136.7470 N   0  0  0  0  0  2  0  0  0  0  0  0
  193.1380  171.4350  136.2440 O   0  0  0  0  0  0  0  0  0  0  0  0
  193.0470  174.9840  136.6320 C   0  0  0  0  0  0  0  0  0  0  0  0
  195.0080  172.8790  136.4020 C   0  0  0  0  0  3  0  0  0  0  0  0
  194.9280  176.4480  136.5050 O   0  0  0  0  0  0  0  0  0  0  0  0
  192.6110  173.7270  136.5060 C   0  0  0  0  0  3  0  0  0  0  0  0
  195.4670  174.1300  136.5170 C   0  0  0  0  0  0  0  0  0  0  0  0
  193.5610  172.6110  136.3750 C   0  0  0  0  0  0  0  0  0  0  0  0
  194.5070  175.2620  136.5670 C   0  0  0  0  0  0  0  0  0  0  0  0
  197.5000  174.3380  137.8760 C   0  0  0  0  0  2  0  0  0  0  0  0
  196.9470  174.3800  136.5020 C   0  0  1  0  0  3  0  0  0  0  0  0
  197.6290  173.2500  136.9970 O   0  0  0  0  0  0  0  0  0  0  0  0
  1  3  1  6  0  0  0
  1 14  1  0  0  0  0
  2  3  1  0  0  0  0
  4  2  1  0  0  0  0
  4  6  1  0  0  0  0
  6  5  1  6  0  0  0
  6  1  1  0  0  0  0
  7  4  2  0  0  0  0
  8  9  1  0  0  0  0
  9  5  2  0  0  0  0
 10  7  1  0  0  0  0
 10  8  2  0  0  0  0
 12 13  1  0  0  0  0
 14 12  1  6  0  0  0
 14 11  1  0  0  0  0
 15 13  1  1  0  0  0
 15 11  1  0  0  0  0
 15 16  1  0  0  0  0
 16 18  1  0  0  0  0
 16 17  1  0  0  0  0
 17 22  1  0  0  0  0
 18 20  1  0  0  0  0
 20 23  1  6  0  0  0
 20 19  1  0  0  0  0
 21 18  2  0  0  0  0
 22 19  1  0  0  0  0
 24 23  1  0  0  0  0
 25  7  1  0  0  0  0
 26 32  2  0  0  0  0
 27 25  1  0  0  0  0
 28 31  2  0  0  0  0
 29 33  2  0  0  0  0
 30 27  2  0  0  0  0
 31 33  1  0  0  0  0
 32 28  1  0  0  0  0
 32 30  1  0  0  0  0
 33 27  1  0  0  0  0
 35 31  1  1  0  0  0
 35 36  1  0  0  0  0
 35 34  1  0  0  0  0
 36 34  1  0  0  0  0
M  END
>  <MODEL>
7

>  <REMARK>
 VINA RESULT:      -8.2      3.920      6.465
  Name = 
  6 active torsions:
  status: ('A' for Active; 'I' for Inactive)
    1  A    between atoms: N_1  and  C_16
    2  A    between atoms: N_1  and  C_22
    3  A    between atoms: C_5  and  C_27
    4  A    between atoms: C_7  and  C_23
    5  A    between atoms: N_12  and  C_30
    6  A    between atoms: C_20  and  C_28
                            x       y       z     vdW  Elec       q    Type
                         _______ _______ _______ _____ _____    ______ ____

>  <TORSDO>
F 6

$$$$
=
 OpenBabel11062416043D

 36 41  0  0  1  0  0  0  0  0999 V2000
  190.7600  177.7110  141.7630 C   0  0  1  0  0  3  0  0  0  0  0  0
  192.2240  177.3790  139.8210 C   0  0  0  0  0  2  0  0  0  0  0  0
  192.2150  177.5320  141.3290 C   0  0  0  0  0  2  0  0  0  0  0  0
  190.8150  177.0850  139.4620 C   0  0  0  0  0  0  0  0  0  0  0  0
  188.8120  178.1850  140.3390 C   0  0  0  0  0  3  0  0  0  0  0  0
  189.8940  177.2000  140.6190 C   0  0  2  0  0  3  0  0  0  0  0  0
  190.4460  176.6420  138.2510 C   0  0  0  0  0  0  0  0  0  0  0  0
  187.9820  176.9620  138.3890 N   0  0  0  0  0  0  0  0  0  0  0  0
  187.9390  178.0330  139.3450 C   0  0  0  0  0  3  0  0  0  0  0  0
  189.0290  176.3550  137.9070 C   0  0  0  0  0  3  0  0  0  0  0  0
  189.8080  177.8550  144.0840 C   0  0  0  0  0  2  0  0  0  0  0  0
  189.4840  175.8210  142.8260 C   0  0  0  0  0  2  0  0  0  0  0  0
  188.1080  176.3380  143.2090 C   0  0  0  0  0  2  0  0  0  0  0  0
  190.4780  176.9500  143.0640 C   0  0  1  0  0  3  0  0  0  0  0  0
  188.3180  177.6950  143.8530 C   0  0  1  0  0  3  0  0  0  0  0  0
  187.5610  177.8270  145.0960 N   0  0  0  0  0  0  0  0  0  0  0  0
  186.2990  178.5650  145.0380 C   0  0  0  0  0  2  0  0  0  0  0  0
  188.0550  177.3600  146.3670 C   0  0  0  0  0  0  0  0  0  0  0  0
  186.3180  178.6390  147.4360 O   0  0  0  0  0  0  0  0  0  0  0  0
  187.1790  177.5330  147.5870 C   0  0  2  0  0  3  0  0  0  0  0  0
  189.1520  176.7410  146.4490 O   0  0  0  0  0  0  0  0  0  0  0  0
  185.4970  178.3720  146.3260 C   0  0  0  0  0  2  0  0  0  0  0  0
  187.9900  177.6700  148.8760 C   0  0  0  0  0  2  0  0  0  0  0  0
  189.1680  178.6170  148.7090 C   0  0  0  0  0  1  0  0  0  0  0  0
  191.4580  176.4500  137.2500 N   0  0  0  0  0  2  0  0  0  0  0  0
  191.3780  172.0690  135.4250 O   0  0  0  0  0  0  0  0  0  0  0  0
  192.1170  175.2150  136.9470 C   0  0  0  0  0  0  0  0  0  0  0  0
  193.4580  172.7310  136.3420 C   0  0  0  0  0  3  0  0  0  0  0  0
  194.2840  175.9680  137.6070 O   0  0  0  0  0  0  0  0  0  0  0  0
  191.4160  174.2490  136.3460 C   0  0  0  0  0  3  0  0  0  0  0  0
  194.1830  173.6870  136.9350 C   0  0  0  0  0  0  0  0  0  0  0  0
  192.0450  172.9650  136.0020 C   0  0  0  0  0  0  0  0  0  0  0  0
  193.5680  175.0110  137.2060 C   0  0  0  0  0  0  0  0  0  0  0  0
  195.8530  173.3230  138.6950 C   0  0  0  0  0  2  0  0  0  0  0  0
  195.6320  173.4390  137.2350 C   0  0  1  0  0  3  0  0  0  0  0  0
  195.7830  172.1890  137.8690 O   0  0  0  0  0  0  0  0  0  0  0  0
  1  3  1  6  0  0  0
  1 14  1  0  0  0  0
  2  3  1  0  0  0  0
  4  2  1  0  0  0  0
  4  6  1  0  0  0  0
  6  5  1  6  0  0  0
  6  1  1  0  0  0  0
  7  4  2  0  0  0  0
  8  9  1  0  0  0  0
  9  5  2  0  0  0  0
 10  7  1  0  0  0  0
 10  8  2  0  0  0  0
 12 13  1  0  0  0  0
 14 12  1  6  0  0  0
 14 11  1  0  0  0  0
 15 13  1  1  0  0  0
 15 11  1  0  0  0  0
 15 16  1  0  0  0  0
 16 18  1  0  0  0  0
 17 16  1  0  0  0  0
 17 22  1  0  0  0  0
 18 21  2  0  0  0  0
 18 20  1  0  0  0  0
 19 20  1  0  0  0  0
 20 23  1  1  0  0  0
 22 19  1  0  0  0  0
 24 23  1  0  0  0  0
 25  7  1  0  0  0  0
 26 32  2  0  0  0  0
 27 33  1  0  0  0  0
 27 25  1  0  0  0  0
 28 31  2  0  0  0  0
 30 27  2  0  0  0  0
 31 33  1  0  0  0  0
 32 28  1  0  0  0  0
 32 30  1  0  0  0  0
 33 29  2  0  0  0  0
 35 31  1  1  0  0  0
 35 36  1  0  0  0  0
 35 34  1  0  0  0  0
 36 34  1  0  0  0  0
M  END
>  <MODEL>
8

>  <REMARK>
 VINA RESULT:      -8.1      3.385      5.527
  Name = 
  6 active torsions:
  status: ('A' for Active; 'I' for Inactive)
    1  A    between atoms: N_1  and  C_16
    2  A    between atoms: N_1  and  C_22
    3  A    between atoms: C_5  and  C_27
    4  A    between atoms: C_7  and  C_23
    5  A    between atoms: N_12  and  C_30
    6  A    between atoms: C_20  and  C_28
                            x       y       z     vdW  Elec       q    Type
                         _______ _______ _______ _____ _____    ______ ____

>  <TORSDO>
F 6

$$$$
=
 OpenBabel11062416043D

 36 41  0  0  1  0  0  0  0  0999 V2000
  189.5740  177.5220  140.6280 C   0  0  1  0  0  3  0  0  0  0  0  0
  191.5490  177.1260  139.2260 C   0  0  0  0  0  2  0  0  0  0  0  0
  191.0710  177.2150  140.6620 C   0  0  0  0  0  2  0  0  0  0  0  0
  190.3100  176.9920  138.4210 C   0  0  0  0  0  0  0  0  0  0  0  0
  188.2290  178.2500  138.7010 C   0  0  0  0  0  3  0  0  0  0  0  0
  189.0800  177.1500  139.2360 C   0  0  2  0  0  3  0  0  0  0  0  0
  190.3130  176.6400  137.1270 C   0  0  0  0  0  0  0  0  0  0  0  0
  187.9690  177.2020  136.5060 N   0  0  0  0  0  0  0  0  0  0  0  0
  187.7110  178.2300  137.4760 C   0  0  0  0  0  3  0  0  0  0  0  0
  189.0620  176.5130  136.3360 C   0  0  0  0  0  3  0  0  0  0  0  0
  189.6850  176.5950  142.9600 C   0  0  0  0  0  2  0  0  0  0  0  0
  187.5890  177.4950  142.1740 C   0  0  0  0  0  2  0  0  0  0  0  0
  187.9620  178.2580  143.4340 C   0  0  0  0  0  2  0  0  0  0  0  0
  188.8280  176.7380  141.7150 C   0  0  1  0  0  3  0  0  0  0  0  0
  189.3550  177.7970  143.8230 C   0  0  1  0  0  3  0  0  0  0  0  0
  189.4420  177.4820  145.2470 N   0  0  0  0  0  0  0  0  0  0  0  0
  188.2630  177.7590  146.0690 C   0  0  0  0  0  2  0  0  0  0  0  0
  190.6550  177.0190  145.8750 C   0  0  0  0  0  0  0  0  0  0  0  0
  189.6430  177.4740  148.0110 O   0  0  0  0  0  0  0  0  0  0  0  0
  190.6250  176.7070  147.3530 C   0  0  2  0  0  3  0  0  0  0  0  0
  191.6930  176.7950  145.1920 O   0  0  0  0  0  0  0  0  0  0  0  0
  188.4020  177.1200  147.4520 C   0  0  0  0  0  2  0  0  0  0  0  0
  191.9850  176.9100  148.0220 C   0  0  0  0  0  2  0  0  0  0  0  0
  192.7980  175.6250  148.0600 C   0  0  0  0  0  1  0  0  0  0  0  0
  191.5720  176.3900  136.4840 N   0  0  0  0  0  2  0  0  0  0  0  0
  191.9000  171.7550  135.5140 O   0  0  0  0  0  0  0  0  0  0  0  0
  192.3040  175.1590  136.5190 C   0  0  0  0  0  0  0  0  0  0  0  0
  193.7890  172.6850  136.5960 C   0  0  0  0  0  3  0  0  0  0  0  0
  194.3180  176.1370  137.3480 O   0  0  0  0  0  0  0  0  0  0  0  0
  191.7330  174.0640  136.0090 C   0  0  0  0  0  3  0  0  0  0  0  0
  194.3850  173.7700  137.1040 C   0  0  0  0  0  0  0  0  0  0  0  0
  192.4430  172.7750  136.0090 C   0  0  0  0  0  0  0  0  0  0  0  0
  193.7000  175.0860  137.0280 C   0  0  0  0  0  0  0  0  0  0  0  0
  195.7950  174.0280  139.0950 C   0  0  0  0  0  2  0  0  0  0  0  0
  195.7740  173.6610  137.6600 C   0  0  1  0  0  3  0  0  0  0  0  0
  195.8070  172.6870  138.6790 O   0  0  0  0  0  0  0  0  0  0  0  0
  1  3  1  6  0  0  0
  1 14  1  0  0  0  0
  2  3  1  0  0  0  0
  4  2  1  0  0  0  0
  4  6  1  0  0  0  0
  6  5  1  6  0  0  0
  6  1  1  0  0  0  0
  7  4  2  0  0  0  0
  8  9  1  0  0  0  0
  9  5  2  0  0  0  0
 10  8  2  0  0  0  0
 10  7  1  0  0  0  0
 12 13  1  0  0  0  0
 13 15  1  0  0  0  0
 14 12  1  1  0  0  0
 14 11  1  0  0  0  0
 15 11  1  6  0  0  0
 15 16  1  0  0  0  0
 16 18  1  0  0  0  0
 16 17  1  0  0  0  0
 17 22  1  0  0  0  0
 18 20  1  0  0  0  0
 20 19  1  0  0  0  0
 20 23  1  1  0  0  0
 21 18  2  0  0  0  0
 22 19  1  0  0  0  0
 23 24  1  0  0  0  0
 25 27  1  0  0  0  0
 25  7  1  0  0  0  0
 26 32  2  0  0  0  0
 27 33  1  0  0  0  0
 28 31  2  0  0  0  0
 30 32  1  0  0  0  0
 30 27  2  0  0  0  0
 32 28  1  0  0  0  0
 33 31  1  0  0  0  0
 33 29  2  0  0  0  0
 35 31  1  1  0  0  0
 35 36  1  0  0  0  0
 35 34  1  0  0  0  0
 36 34  1  0  0  0  0
M  END
>  <MODEL>
9

>  <REMARK>
 VINA RESULT:      -8.1      3.400      5.325
  Name = 
  6 active torsions:
  status: ('A' for Active; 'I' for Inactive)
    1  A    between atoms: N_1  and  C_16
    2  A    between atoms: N_1  and  C_22
    3  A    between atoms: C_5  and  C_27
    4  A    between atoms: C_7  and  C_23
    5  A    between atoms: N_12  and  C_30
    6  A    between atoms: C_20  and  C_28
                            x       y       z     vdW  Elec       q    Type
                         _______ _______ _______ _____ _____    ______ ____

>  <TORSDO>
F 6

$$$$
