=
 OpenBabel11062412433D

 32 36  0  0  1  0  0  0  0  0999 V2000
  189.0820  176.3370  138.1060 C   0  0  0  0  0  2  0  0  0  0  0  0
  186.9300  178.1810  137.3100 C   0  0  0  0  0  3  0  0  0  0  0  0
  189.0680  177.0670  136.8470 N   0  0  0  0  0  0  0  0  0  0  0  0
  188.1030  177.8510  136.4750 C   0  0  0  0  0  3  0  0  0  0  0  0
  189.1190  177.2760  139.2700 C   0  0  0  0  0  0  0  0  0  0  0  0
  188.0730  178.0740  139.5140 C   0  0  0  0  0  3  0  0  0  0  0  0
  186.8860  178.2460  138.6520 C   0  0  0  0  0  0  0  0  0  0  0  0
  192.4400  177.3340  141.0870 C   0  0  0  0  0  3  0  0  0  0  0  0
  190.1390  177.1130  141.6160 C   0  0  0  0  0  0  0  0  0  0  0  0
  189.0970  176.5750  142.2410 C   0  0  0  0  0  2  0  0  0  0  0  0
  191.6090  177.4040  139.8040 C   0  0  0  0  0  3  0  0  0  0  0  0
  191.4680  177.1960  142.2620 C   0  0  2  0  0  3  0  0  0  0  0  0
  190.2210  177.2410  140.2010 N   0  0  0  0  0  0  0  0  0  0  0  0
  191.5340  178.4330  143.1480 C   0  0  0  0  0  2  0  0  0  0  0  0
  191.0530  178.1270  144.5320 C   0  0  0  0  0  0  0  0  0  0  0  0
  190.1500  178.8400  145.0430 O   0  0  0  0  0  0  0  0  0  0  0  0
  191.0760  176.6200  146.4650 C   0  0  0  0  0  2  0  0  0  0  0  0
  191.5980  177.0050  145.3080 C   0  0  0  0  0  3  0  0  0  0  0  0
  185.6700  178.6330  139.3020 N   0  0  0  0  0  2  0  0  0  0  0  0
  185.5670  179.0070  140.7080 C   0  0  0  0  0  2  0  0  0  0  0  0
  184.2440  178.5380  141.3030 C   0  0  0  0  0  2  0  0  0  0  0  0
  185.9740  177.8390  144.6330 C   0  0  0  0  0  0  0  0  0  0  0  0
  184.7720  178.1970  145.4860 C   0  0  1  0  0  3  0  0  0  0  0  0
  184.3690  178.2770  142.7950 C   0  0  1  0  0  3  0  0  0  0  0  0
  185.8070  177.8890  143.1490 C   0  0  0  0  0  2  0  0  0  0  0  0
  186.4750  178.6630  147.3050 C   0  0  0  0  0  2  0  0  0  0  0  0
  185.0480  178.2240  146.9970 C   0  0  0  0  0  2  0  0  0  0  0  0
  187.1990  177.6670  145.1520 C   0  0  0  0  0  3  0  0  0  0  0  0
  182.8650  179.1840  144.5160 C   0  0  0  0  0  2  0  0  0  0  0  0
  187.4370  177.6920  146.6350 C   0  0  0  0  0  2  0  0  0  0  0  0
  184.2070  179.4770  145.0440 N   0  0  2  0  0  0  0  0  0  0  0  0
  183.9280  179.5290  143.5760 C   0  0  1  0  0  3  0  0  0  0  0  0
  1  5  1  0  0  0  0
  2  7  2  0  0  0  0
  3  1  1  0  0  0  0
  4  3  2  0  0  0  0
  4  2  1  0  0  0  0
  5  6  2  0  0  0  0
  5 13  1  0  0  0  0
  7 19  1  0  0  0  0
  7  6  1  0  0  0  0
  8 12  1  0  0  0  0
  9 10  2  0  0  0  0
  9 12  1  0  0  0  0
 11 13  1  0  0  0  0
 11  8  2  0  0  0  0
 12 14  1  1  0  0  0
 13  9  1  0  0  0  0
 14 15  1  0  0  0  0
 15 16  2  0  0  0  0
 15 18  1  0  0  0  0
 18 17  2  0  0  0  0
 19 20  1  0  0  0  0
 20 21  1  0  0  0  0
 22 28  2  0  0  0  0
 22 23  1  0  0  0  0
 23 27  1  1  0  0  0
 24 21  1  6  0  0  0
 24 25  1  0  0  0  0
 24 32  1  0  0  0  0
 25 22  1  0  0  0  0
 27 26  1  0  0  0  0
 28 30  1  0  0  0  0
 30 26  1  0  0  0  0
 31 29  1  1  0  0  0
 31 23  1  0  0  0  0
 32 29  1  1  0  0  0
 32 31  1  0  0  0  0
M  END
>  <MODEL>
1

>  <REMARK>
 VINA RESULT:      -8.8      0.000      0.000
  Name = 
  8 active torsions:
  status: ('A' for Active; 'I' for Inactive)
    1  A    between atoms: C_8  and  C_32
    2  A    between atoms: C_17  and  C_20
    3  A    between atoms: C_17  and  C_31
    4  A    between atoms: N_19  and  C_21
    5  A    between atoms: N_19  and  C_27
    6  A    between atoms: C_20  and  C_24
    7  A    between atoms: C_21  and  C_32
    8  A    between atoms: C_25  and  N_29
                            x       y       z     vdW  Elec       q    Type
                         _______ _______ _______ _____ _____    ______ ____

>  <TORSDO>
F 8

$$$$
=
 OpenBabel11062412433D

 32 36  0  0  1  0  0  0  0  0999 V2000
  188.9080  178.5150  138.0430 C   0  0  0  0  0  2  0  0  0  0  0  0
  190.8430  176.5300  139.0360 C   0  0  0  0  0  3  0  0  0  0  0  0
  189.3770  177.3810  137.2600 N   0  0  0  0  0  0  0  0  0  0  0  0
  190.2590  176.5260  137.6790 C   0  0  0  0  0  3  0  0  0  0  0  0
  188.1830  178.0550  139.2690 C   0  0  0  0  0  0  0  0  0  0  0  0
  188.8500  177.4090  140.2330 C   0  0  0  0  0  3  0  0  0  0  0  0
  190.2530  176.9510  140.1680 C   0  0  0  0  0  0  0  0  0  0  0  0
  184.4810  178.8160  139.0580 C   0  0  0  0  0  3  0  0  0  0  0  0
  186.1780  178.7370  140.7120 C   0  0  0  0  0  0  0  0  0  0  0  0
  186.8460  179.1870  141.7690 C   0  0  0  0  0  2  0  0  0  0  0  0
  185.8100  178.4170  138.4120 C   0  0  0  0  0  3  0  0  0  0  0  0
  184.7240  178.9710  140.5620 C   0  0  2  0  0  3  0  0  0  0  0  0
  186.8000  178.4110  139.4750 N   0  0  0  0  0  0  0  0  0  0  0  0
  183.9490  177.9110  141.3330 C   0  0  0  0  0  2  0  0  0  0  0  0
  183.3400  178.4880  142.5720 C   0  0  0  0  0  0  0  0  0  0  0  0
  182.1830  178.9810  142.5190 O   0  0  0  0  0  0  0  0  0  0  0  0
  183.5590  179.0550  144.9460 C   0  0  0  0  0  2  0  0  0  0  0  0
  184.0540  178.4830  143.8560 C   0  0  0  0  0  3  0  0  0  0  0  0
  190.9500  176.8360  141.4140 N   0  0  0  0  0  2  0  0  0  0  0  0
  190.5030  176.0220  142.5390 C   0  0  0  0  0  2  0  0  0  0  0  0
  191.4810  176.1160  143.7050 C   0  0  0  0  0  2  0  0  0  0  0  0
  188.7430  177.6820  145.8560 C   0  0  0  0  0  0  0  0  0  0  0  0
  189.6050  177.8090  147.0980 C   0  0  1  0  0  3  0  0  0  0  0  0
  190.8690  176.8580  144.8820 C   0  0  1  0  0  3  0  0  0  0  0  0
  189.3880  177.1440  144.6200 C   0  0  0  0  0  2  0  0  0  0  0  0
  187.4070  177.7730  148.3610 C   0  0  0  0  0  2  0  0  0  0  0  0
  188.8490  178.2690  148.3530 C   0  0  0  0  0  2  0  0  0  0  0  0
  187.4130  177.8540  145.8830 C   0  0  0  0  0  3  0  0  0  0  0  0
  191.7400  176.8160  147.1820 C   0  0  0  0  0  2  0  0  0  0  0  0
  186.7020  178.3110  147.1240 C   0  0  0  0  0  2  0  0  0  0  0  0
  190.3050  176.5450  147.3540 N   0  0  2  0  0  0  0  0  0  0  0  0
  191.0500  176.0260  146.1660 C   0  0  1  0  0  3  0  0  0  0  0  0
  1  5  1  0  0  0  0
  2  7  2  0  0  0  0
  3  4  2  0  0  0  0
  3  1  1  0  0  0  0
  4  2  1  0  0  0  0
  5 13  1  0  0  0  0
  5  6  2  0  0  0  0
  7  6  1  0  0  0  0
  7 19  1  0  0  0  0
  8 12  1  0  0  0  0
  9 10  2  0  0  0  0
 11  8  2  0  0  0  0
 11 13  1  0  0  0  0
 12  9  1  0  0  0  0
 12 14  1  1  0  0  0
 13  9  1  0  0  0  0
 14 15  1  0  0  0  0
 15 18  1  0  0  0  0
 16 15  2  0  0  0  0
 18 17  2  0  0  0  0
 19 20  1  0  0  0  0
 20 21  1  0  0  0  0
 22 28  2  0  0  0  0
 22 23  1  0  0  0  0
 23 31  1  0  0  0  0
 23 27  1  1  0  0  0
 24 21  1  6  0  0  0
 24 32  1  0  0  0  0
 25 24  1  0  0  0  0
 25 22  1  0  0  0  0
 27 26  1  0  0  0  0
 28 30  1  0  0  0  0
 30 26  1  0  0  0  0
 31 29  1  1  0  0  0
 32 29  1  1  0  0  0
 32 31  1  0  0  0  0
M  END
>  <MODEL>
2

>  <REMARK>
 VINA RESULT:      -8.7      2.331      5.712
  Name = 
  8 active torsions:
  status: ('A' for Active; 'I' for Inactive)
    1  A    between atoms: C_8  and  C_32
    2  A    between atoms: C_17  and  C_20
    3  A    between atoms: C_17  and  C_31
    4  A    between atoms: N_19  and  C_21
    5  A    between atoms: N_19  and  C_27
    6  A    between atoms: C_20  and  C_24
    7  A    between atoms: C_21  and  C_32
    8  A    between atoms: C_25  and  N_29
                            x       y       z     vdW  Elec       q    Type
                         _______ _______ _______ _____ _____    ______ ____

>  <TORSDO>
F 8

$$$$
=
 OpenBabel11062412433D

 32 36  0  0  1  0  0  0  0  0999 V2000
  183.4940  177.5570  141.0800 C   0  0  0  0  0  2  0  0  0  0  0  0
  182.1670  179.0860  143.2180 C   0  0  0  0  0  3  0  0  0  0  0  0
  182.3210  178.3930  140.8680 N   0  0  0  0  0  0  0  0  0  0  0  0
  181.7100  179.0370  141.8140 C   0  0  0  0  0  3  0  0  0  0  0  0
  184.6540  178.3730  141.5560 C   0  0  0  0  0  0  0  0  0  0  0  0
  184.6060  178.9580  142.7580 C   0  0  0  0  0  3  0  0  0  0  0  0
  183.4350  179.0130  143.6580 C   0  0  0  0  0  0  0  0  0  0  0  0
  188.1930  178.5020  140.2180 C   0  0  0  0  0  3  0  0  0  0  0  0
  185.9840  178.3810  139.3650 C   0  0  0  0  0  0  0  0  0  0  0  0
  184.9950  178.7140  138.5410 C   0  0  0  0  0  2  0  0  0  0  0  0
  187.1940  178.4830  141.3780 C   0  0  0  0  0  3  0  0  0  0  0  0
  187.3940  178.3830  138.9170 C   0  0  2  0  0  3  0  0  0  0  0  0
  185.8700  178.4310  140.7820 N   0  0  0  0  0  0  0  0  0  0  0  0
  187.7160  177.0680  138.2190 C   0  0  0  0  0  2  0  0  0  0  0  0
  189.1300  177.0530  137.7280 C   0  0  0  0  0  0  0  0  0  0  0  0
  189.5120  177.9410  136.9220 O   0  0  0  0  0  0  0  0  0  0  0  0
  191.2870  176.3470  138.6520 C   0  0  0  0  0  2  0  0  0  0  0  0
  190.0890  176.0340  138.1730 C   0  0  0  0  0  3  0  0  0  0  0  0
  183.7060  179.1290  145.0590 N   0  0  0  0  0  2  0  0  0  0  0  0
  185.0400  179.2600  145.6350 C   0  0  0  0  0  2  0  0  0  0  0  0
  185.2250  178.3040  146.8080 C   0  0  0  0  0  2  0  0  0  0  0  0
  188.5980  177.2060  145.3960 C   0  0  0  0  0  0  0  0  0  0  0  0
  189.2400  176.9730  146.7510 C   0  0  1  0  0  3  0  0  0  0  0  0
  186.6120  177.6840  146.8030 C   0  0  1  0  0  3  0  0  0  0  0  0
  187.1610  177.6190  145.3750 C   0  0  0  0  0  2  0  0  0  0  0  0
  191.4310  177.3610  145.5350 C   0  0  0  0  0  2  0  0  0  0  0  0
  190.7420  176.6540  146.6960 C   0  0  0  0  0  2  0  0  0  0  0  0
  189.3080  177.2370  144.2590 C   0  0  0  0  0  3  0  0  0  0  0  0
  188.1420  177.6340  148.7280 C   0  0  0  0  0  2  0  0  0  0  0  0
  190.7740  176.9130  144.2360 C   0  0  0  0  0  2  0  0  0  0  0  0
  188.9900  178.1210  147.6280 N   0  0  2  0  0  0  0  0  0  0  0  0
  187.5460  178.5010  147.7160 C   0  0  1  0  0  3  0  0  0  0  0  0
  1  5  1  0  0  0  0
  2  7  2  0  0  0  0
  3  1  1  0  0  0  0
  3  4  2  0  0  0  0
  4  2  1  0  0  0  0
  5  6  2  0  0  0  0
  6  7  1  0  0  0  0
  7 19  1  0  0  0  0
  8 11  2  0  0  0  0
  9 13  1  0  0  0  0
 10  9  2  0  0  0  0
 12 14  1  1  0  0  0
 12  9  1  0  0  0  0
 12  8  1  0  0  0  0
 13 11  1  0  0  0  0
 13  5  1  0  0  0  0
 15 18  1  0  0  0  0
 15 14  1  0  0  0  0
 16 15  2  0  0  0  0
 18 17  2  0  0  0  0
 19 20  1  0  0  0  0
 20 21  1  0  0  0  0
 22 23  1  0  0  0  0
 23 27  1  6  0  0  0
 23 31  1  0  0  0  0
 24 21  1  6  0  0  0
 24 32  1  0  0  0  0
 25 22  1  0  0  0  0
 25 24  1  0  0  0  0
 26 27  1  0  0  0  0
 28 22  2  0  0  0  0
 30 28  1  0  0  0  0
 30 26  1  0  0  0  0
 31 32  1  0  0  0  0
 31 29  1  1  0  0  0
 32 29  1  1  0  0  0
M  END
>  <MODEL>
3

>  <REMARK>
 VINA RESULT:      -8.5      2.330      5.859
  Name = 
  8 active torsions:
  status: ('A' for Active; 'I' for Inactive)
    1  A    between atoms: C_8  and  C_32
    2  A    between atoms: C_17  and  C_20
    3  A    between atoms: C_17  and  C_31
    4  A    between atoms: N_19  and  C_21
    5  A    between atoms: N_19  and  C_27
    6  A    between atoms: C_20  and  C_24
    7  A    between atoms: C_21  and  C_32
    8  A    between atoms: C_25  and  N_29
                            x       y       z     vdW  Elec       q    Type
                         _______ _______ _______ _____ _____    ______ ____

>  <TORSDO>
F 8

$$$$
=
 OpenBabel11062412433D

 32 36  0  0  1  0  0  0  0  0999 V2000
  190.0590  178.2390  145.1410 C   0  0  0  0  0  2  0  0  0  0  0  0
  188.0720  177.3620  147.1280 C   0  0  0  0  0  3  0  0  0  0  0  0
  190.3380  177.2670  146.1870 N   0  0  0  0  0  0  0  0  0  0  0  0
  189.4770  176.9060  147.0890 C   0  0  0  0  0  3  0  0  0  0  0  0
  188.9910  177.7420  144.2190 C   0  0  0  0  0  0  0  0  0  0  0  0
  187.7440  177.5770  144.6740 C   0  0  0  0  0  3  0  0  0  0  0  0
  187.3030  177.7000  146.0790 C   0  0  0  0  0  0  0  0  0  0  0  0
  189.1980  177.8270  140.4400 C   0  0  0  0  0  3  0  0  0  0  0  0
  190.2550  176.7070  142.2430 C   0  0  0  0  0  0  0  0  0  0  0  0
  190.7580  175.6490  142.8700 C   0  0  0  0  0  2  0  0  0  0  0  0
  188.5900  178.2980  141.7630 C   0  0  0  0  0  3  0  0  0  0  0  0
  190.3140  176.8310  140.7700 C   0  0  2  0  0  3  0  0  0  0  0  0
  189.2670  177.5580  142.8140 N   0  0  0  0  0  0  0  0  0  0  0  0
  191.6650  177.3970  140.3530 C   0  0  0  0  0  2  0  0  0  0  0  0
  192.1940  176.6870  139.1460 C   0  0  0  0  0  0  0  0  0  0  0  0
  193.4100  176.8070  138.8450 O   0  0  0  0  0  0  0  0  0  0  0  0
  191.8110  174.8460  137.5760 C   0  0  0  0  0  2  0  0  0  0  0  0
  191.3320  175.8420  138.3090 C   0  0  0  0  0  3  0  0  0  0  0  0
  185.9370  178.0730  146.2940 N   0  0  0  0  0  2  0  0  0  0  0  0
  185.2770  179.2010  145.6460 C   0  0  0  0  0  2  0  0  0  0  0  0
  183.7960  178.9140  145.4260 C   0  0  0  0  0  2  0  0  0  0  0  0
  181.9040  178.8660  142.1100 C   0  0  0  0  0  0  0  0  0  0  0  0
  183.0730  178.3410  141.2970 C   0  0  1  0  0  3  0  0  0  0  0  0
  183.5090  178.5620  143.9760 C   0  0  1  0  0  3  0  0  0  0  0  0
  182.1030  179.0230  143.5830 C   0  0  0  0  0  2  0  0  0  0  0  0
  181.9100  179.4330  139.3270 C   0  0  0  0  0  2  0  0  0  0  0  0
  182.8290  178.3050  139.7810 C   0  0  0  0  0  2  0  0  0  0  0  0
  180.7940  179.3550  141.5400 C   0  0  0  0  0  3  0  0  0  0  0  0
  185.2220  178.1820  142.2510 C   0  0  0  0  0  2  0  0  0  0  0  0
  180.5800  179.2990  140.0540 C   0  0  0  0  0  2  0  0  0  0  0  0
  184.2830  179.1120  141.6040 N   0  0  2  0  0  0  0  0  0  0  0  0
  184.5750  179.2050  143.0680 C   0  0  1  0  0  3  0  0  0  0  0  0
  1  3  1  0  0  0  0
  3  4  2  0  0  0  0
  4  2  1  0  0  0  0
  5  6  2  0  0  0  0
  5  1  1  0  0  0  0
  6  7  1  0  0  0  0
  7 19  1  0  0  0  0
  7  2  2  0  0  0  0
  8 12  1  0  0  0  0
  8 11  2  0  0  0  0
  9 13  1  0  0  0  0
  9 10  2  0  0  0  0
 11 13  1  0  0  0  0
 12 14  1  1  0  0  0
 12  9  1  0  0  0  0
 13  5  1  0  0  0  0
 15 14  1  0  0  0  0
 16 15  2  0  0  0  0
 17 18  2  0  0  0  0
 18 15  1  0  0  0  0
 20 19  1  0  0  0  0
 21 20  1  0  0  0  0
 22 25  1  0  0  0  0
 23 27  1  6  0  0  0
 23 31  1  0  0  0  0
 23 22  1  0  0  0  0
 24 21  1  1  0  0  0
 25 24  1  0  0  0  0
 26 27  1  0  0  0  0
 26 30  1  0  0  0  0
 28 22  2  0  0  0  0
 30 28  1  0  0  0  0
 31 29  1  6  0  0  0
 31 32  1  0  0  0  0
 32 29  1  6  0  0  0
 32 24  1  0  0  0  0
M  END
>  <MODEL>
4

>  <REMARK>
 VINA RESULT:      -8.5      2.528      6.129
  Name = 
  8 active torsions:
  status: ('A' for Active; 'I' for Inactive)
    1  A    between atoms: C_8  and  C_32
    2  A    between atoms: C_17  and  C_20
    3  A    between atoms: C_17  and  C_31
    4  A    between atoms: N_19  and  C_21
    5  A    between atoms: N_19  and  C_27
    6  A    between atoms: C_20  and  C_24
    7  A    between atoms: C_21  and  C_32
    8  A    between atoms: C_25  and  N_29
                            x       y       z     vdW  Elec       q    Type
                         _______ _______ _______ _____ _____    ______ ____

>  <TORSDO>
F 8

$$$$
=
 OpenBabel11062412433D

 32 36  0  0  1  0  0  0  0  0999 V2000
  184.8890  179.3970  144.6110 C   0  0  0  0  0  2  0  0  0  0  0  0
  182.5330  178.9140  142.9130 C   0  0  0  0  0  3  0  0  0  0  0  0
  183.5980  178.9620  145.1250 N   0  0  0  0  0  0  0  0  0  0  0  0
  182.5460  178.7860  144.3850 C   0  0  0  0  0  3  0  0  0  0  0  0
  185.4630  178.3810  143.6750 C   0  0  0  0  0  0  0  0  0  0  0  0
  184.8580  178.1350  142.5080 C   0  0  0  0  0  3  0  0  0  0  0  0
  183.5510  178.6710  142.0710 C   0  0  0  0  0  0  0  0  0  0  0  0
  188.8260  176.6430  143.6710 C   0  0  0  0  0  3  0  0  0  0  0  0
  187.3740  177.6800  145.2330 C   0  0  0  0  0  0  0  0  0  0  0  0
  186.7250  177.7760  146.3880 C   0  0  0  0  0  2  0  0  0  0  0  0
  187.5780  177.1560  142.9490 C   0  0  0  0  0  3  0  0  0  0  0  0
  188.7040  177.0360  145.1460 C   0  0  2  0  0  3  0  0  0  0  0  0
  186.7300  177.7550  143.9660 N   0  0  0  0  0  0  0  0  0  0  0  0
  189.7880  178.0390  145.5150 C   0  0  0  0  0  2  0  0  0  0  0  0
  191.1490  177.4950  145.2110 C   0  0  0  0  0  0  0  0  0  0  0  0
  191.8440  178.0400  144.3150 O   0  0  0  0  0  0  0  0  0  0  0  0
  191.6780  176.2690  147.2660 C   0  0  0  0  0  2  0  0  0  0  0  0
  191.7010  176.3460  145.9420 C   0  0  0  0  0  3  0  0  0  0  0  0
  183.3480  178.7990  140.6590 N   0  0  0  0  0  2  0  0  0  0  0  0
  184.3570  179.2750  139.7190 C   0  0  0  0  0  2  0  0  0  0  0  0
  184.5140  178.3080  138.5500 C   0  0  0  0  0  2  0  0  0  0  0  0
  188.2910  177.8790  138.9040 C   0  0  0  0  0  0  0  0  0  0  0  0
  188.5330  177.6060  137.4310 C   0  0  1  0  0  3  0  0  0  0  0  0
  185.9640  178.2040  138.1090 C   0  0  1  0  0  3  0  0  0  0  0  0
  186.8910  178.1920  139.3280 C   0  0  0  0  0  2  0  0  0  0  0  0
  190.6200  176.4040  138.2220 C   0  0  0  0  0  2  0  0  0  0  0  0
  189.9710  177.1920  137.0890 C   0  0  0  0  0  2  0  0  0  0  0  0
  189.2300  177.6700  139.8380 C   0  0  0  0  0  3  0  0  0  0  0  0
  186.7220  177.2820  135.9590 C   0  0  0  0  0  2  0  0  0  0  0  0
  190.6310  177.2720  139.4730 C   0  0  0  0  0  2  0  0  0  0  0  0
  187.5790  176.6040  136.9440 N   0  0  2  0  0  0  0  0  0  0  0  0
  186.1550  176.9340  137.2590 C   0  0  1  0  0  3  0  0  0  0  0  0
  1  3  1  0  0  0  0
  2  4  1  0  0  0  0
  4  3  2  0  0  0  0
  5 13  1  0  0  0  0
  5  1  1  0  0  0  0
  6  5  2  0  0  0  0
  7  6  1  0  0  0  0
  7  2  2  0  0  0  0
  8 12  1  0  0  0  0
  9 10  2  0  0  0  0
 11  8  2  0  0  0  0
 11 13  1  0  0  0  0
 12  9  1  0  0  0  0
 12 14  1  6  0  0  0
 13  9  1  0  0  0  0
 15 14  1  0  0  0  0
 15 18  1  0  0  0  0
 16 15  2  0  0  0  0
 18 17  2  0  0  0  0
 19  7  1  0  0  0  0
 20 19  1  0  0  0  0
 21 20  1  0  0  0  0
 22 25  1  0  0  0  0
 22 28  2  0  0  0  0
 23 27  1  1  0  0  0
 23 22  1  0  0  0  0
 24 21  1  1  0  0  0
 24 25  1  0  0  0  0
 26 30  1  0  0  0  0
 27 26  1  0  0  0  0
 30 28  1  0  0  0  0
 31 29  1  6  0  0  0
 31 32  1  0  0  0  0
 31 23  1  0  0  0  0
 32 29  1  6  0  0  0
 32 24  1  0  0  0  0
M  END
>  <MODEL>
5

>  <REMARK>
 VINA RESULT:      -8.5      1.624      6.298
  Name = 
  8 active torsions:
  status: ('A' for Active; 'I' for Inactive)
    1  A    between atoms: C_8  and  C_32
    2  A    between atoms: C_17  and  C_20
    3  A    between atoms: C_17  and  C_31
    4  A    between atoms: N_19  and  C_21
    5  A    between atoms: N_19  and  C_27
    6  A    between atoms: C_20  and  C_24
    7  A    between atoms: C_21  and  C_32
    8  A    between atoms: C_25  and  N_29
                            x       y       z     vdW  Elec       q    Type
                         _______ _______ _______ _____ _____    ______ ____

>  <TORSDO>
F 8

$$$$
=
 OpenBabel11062412433D

 32 36  0  0  1  0  0  0  0  0999 V2000
  190.6620  178.5750  144.3050 C   0  0  0  0  0  2  0  0  0  0  0  0
  188.9440  177.1320  146.2130 C   0  0  0  0  0  3  0  0  0  0  0  0
  191.1740  177.7540  145.3930 N   0  0  0  0  0  0  0  0  0  0  0  0
  190.4210  177.1480  146.2600 C   0  0  0  0  0  3  0  0  0  0  0  0
  189.8620  177.7520  143.3450 C   0  0  0  0  0  0  0  0  0  0  0  0
  188.7080  177.2030  143.7390 C   0  0  0  0  0  3  0  0  0  0  0  0
  188.1700  177.1950  145.1160 C   0  0  0  0  0  0  0  0  0  0  0  0
  191.5900  177.2420  140.0150 C   0  0  0  0  0  3  0  0  0  0  0  0
  189.4420  177.8440  140.8180 C   0  0  0  0  0  0  0  0  0  0  0  0
  188.3250  178.5630  140.8350 C   0  0  0  0  0  2  0  0  0  0  0  0
  191.5990  177.2540  141.5460 C   0  0  0  0  0  3  0  0  0  0  0  0
  190.1680  177.5770  139.5560 C   0  0  2  0  0  3  0  0  0  0  0  0
  190.2640  177.6500  141.9620 N   0  0  0  0  0  0  0  0  0  0  0  0
  189.5480  176.3810  138.8470 C   0  0  0  0  0  2  0  0  0  0  0  0
  189.0110  176.7730  137.5050 C   0  0  0  0  0  0  0  0  0  0  0  0
  188.7010  175.8760  136.6790 O   0  0  0  0  0  0  0  0  0  0  0  0
  187.6470  178.6710  136.7700 C   0  0  0  0  0  2  0  0  0  0  0  0
  188.8260  178.1810  137.1310 C   0  0  0  0  0  3  0  0  0  0  0  0
  186.7460  177.1150  145.2490 N   0  0  0  0  0  2  0  0  0  0  0  0
  185.9630  177.8780  146.2150 C   0  0  0  0  0  2  0  0  0  0  0  0
  185.3120  179.0890  145.5560 C   0  0  0  0  0  2  0  0  0  0  0  0
  182.1930  178.8950  143.3620 C   0  0  0  0  0  0  0  0  0  0  0  0
  182.9190  178.3520  142.1450 C   0  0  1  0  0  3  0  0  0  0  0  0
  184.4460  178.6780  144.3760 C   0  0  1  0  0  3  0  0  0  0  0  0
  182.9950  179.1110  144.6050 C   0  0  0  0  0  2  0  0  0  0  0  0
  181.0020  179.3560  140.8250 C   0  0  0  0  0  2  0  0  0  0  0  0
  182.0550  178.2550  140.8790 C   0  0  0  0  0  2  0  0  0  0  0  0
  180.9340  179.3520  143.3030 C   0  0  0  0  0  3  0  0  0  0  0  0
  185.2720  178.2500  142.1000 C   0  0  0  0  0  2  0  0  0  0  0  0
  180.1110  179.2370  142.0530 C   0  0  0  0  0  2  0  0  0  0  0  0
  184.1250  179.1450  141.8850 N   0  0  2  0  0  0  0  0  0  0  0  0
  185.0080  179.2970  143.0820 C   0  0  1  0  0  3  0  0  0  0  0  0
  1  3  1  0  0  0  0
  2  4  1  0  0  0  0
  3  4  2  0  0  0  0
  5  6  2  0  0  0  0
  5  1  1  0  0  0  0
  6  7  1  0  0  0  0
  7 19  1  0  0  0  0
  7  2  2  0  0  0  0
  8 11  2  0  0  0  0
  9 10  2  0  0  0  0
  9 13  1  0  0  0  0
 11 13  1  0  0  0  0
 12 14  1  1  0  0  0
 12  8  1  0  0  0  0
 12  9  1  0  0  0  0
 13  5  1  0  0  0  0
 15 14  1  0  0  0  0
 16 15  2  0  0  0  0
 17 18  2  0  0  0  0
 18 15  1  0  0  0  0
 19 20  1  0  0  0  0
 21 20  1  0  0  0  0
 22 25  1  0  0  0  0
 23 27  1  6  0  0  0
 23 22  1  0  0  0  0
 24 25  1  0  0  0  0
 24 21  1  1  0  0  0
 26 27  1  0  0  0  0
 26 30  1  0  0  0  0
 28 22  2  0  0  0  0
 30 28  1  0  0  0  0
 31 29  1  6  0  0  0
 31 23  1  0  0  0  0
 31 32  1  0  0  0  0
 32 29  1  6  0  0  0
 32 24  1  0  0  0  0
M  END
>  <MODEL>
6

>  <REMARK>
 VINA RESULT:      -8.2      2.501      6.038
  Name = 
  8 active torsions:
  status: ('A' for Active; 'I' for Inactive)
    1  A    between atoms: C_8  and  C_32
    2  A    between atoms: C_17  and  C_20
    3  A    between atoms: C_17  and  C_31
    4  A    between atoms: N_19  and  C_21
    5  A    between atoms: N_19  and  C_27
    6  A    between atoms: C_20  and  C_24
    7  A    between atoms: C_21  and  C_32
    8  A    between atoms: C_25  and  N_29
                            x       y       z     vdW  Elec       q    Type
                         _______ _______ _______ _____ _____    ______ ____

>  <TORSDO>
F 8

$$$$
=
 OpenBabel11062412433D

 32 36  0  0  1  0  0  0  0  0999 V2000
  188.8280  178.7890  138.7310 C   0  0  0  0  0  2  0  0  0  0  0  0
  190.8690  176.8840  139.6660 C   0  0  0  0  0  3  0  0  0  0  0  0
  189.4370  177.7750  137.8820 N   0  0  0  0  0  0  0  0  0  0  0  0
  190.3650  176.9590  138.2800 C   0  0  0  0  0  3  0  0  0  0  0  0
  188.0790  178.1600  139.8630 C   0  0  0  0  0  0  0  0  0  0  0  0
  188.7440  177.4830  140.8060 C   0  0  0  0  0  3  0  0  0  0  0  0
  190.1830  177.1480  140.7910 C   0  0  0  0  0  0  0  0  0  0  0  0
  184.5490  178.9620  140.9700 C   0  0  0  0  0  3  0  0  0  0  0  0
  185.6700  178.2800  138.9950 C   0  0  0  0  0  0  0  0  0  0  0  0
  185.8260  177.5540  137.8930 C   0  0  0  0  0  2  0  0  0  0  0  0
  186.0460  178.8210  141.2530 C   0  0  0  0  0  3  0  0  0  0  0  0
  184.3260  178.6580  139.4860 C   0  0  2  0  0  3  0  0  0  0  0  0
  186.6610  178.3820  140.0110 N   0  0  0  0  0  0  0  0  0  0  0  0
  183.8430  179.9060  138.7580 C   0  0  0  0  0  2  0  0  0  0  0  0
  182.3520  179.9100  138.6330 C   0  0  0  0  0  0  0  0  0  0  0  0
  181.6500  180.2220  139.6310 O   0  0  0  0  0  0  0  0  0  0  0  0
  181.8840  178.4170  136.7470 C   0  0  0  0  0  2  0  0  0  0  0  0
  181.6830  179.5710  137.3700 C   0  0  0  0  0  3  0  0  0  0  0  0
  190.8160  176.9740  142.0640 N   0  0  0  0  0  2  0  0  0  0  0  0
  190.2490  176.2150  143.1720 C   0  0  0  0  0  2  0  0  0  0  0  0
  190.6890  176.7940  144.5120 C   0  0  0  0  0  2  0  0  0  0  0  0
  187.1360  178.0810  145.0550 C   0  0  0  0  0  0  0  0  0  0  0  0
  187.3480  178.4490  146.5120 C   0  0  1  0  0  3  0  0  0  0  0  0
  189.5480  177.5260  145.2000 C   0  0  1  0  0  3  0  0  0  0  0  0
  188.3110  177.5500  144.2990 C   0  0  0  0  0  2  0  0  0  0  0  0
  184.8360  178.1730  146.7210 C   0  0  0  0  0  2  0  0  0  0  0  0
  186.0740  178.8880  147.2490 C   0  0  0  0  0  2  0  0  0  0  0  0
  185.9190  178.0420  144.4930 C   0  0  0  0  0  3  0  0  0  0  0  0
  189.3230  177.8190  147.6320 C   0  0  0  0  0  2  0  0  0  0  0  0
  184.6920  178.4840  145.2380 C   0  0  0  0  0  2  0  0  0  0  0  0
  187.9950  177.3390  147.2200 N   0  0  2  0  0  0  0  0  0  0  0  0
  189.2360  176.8460  146.5470 C   0  0  1  0  0  3  0  0  0  0  0  0
  1  5  1  0  0  0  0
  2  7  2  0  0  0  0
  3  4  2  0  0  0  0
  3  1  1  0  0  0  0
  4  2  1  0  0  0  0
  5 13  1  0  0  0  0
  5  6  2  0  0  0  0
  7  6  1  0  0  0  0
  7 19  1  0  0  0  0
  8 11  2  0  0  0  0
  9 12  1  0  0  0  0
  9 13  1  0  0  0  0
 10  9  2  0  0  0  0
 12 14  1  6  0  0  0
 12  8  1  0  0  0  0
 13 11  1  0  0  0  0
 15 14  1  0  0  0  0
 15 16  2  0  0  0  0
 17 18  2  0  0  0  0
 18 15  1  0  0  0  0
 19 20  1  0  0  0  0
 20 21  1  0  0  0  0
 22 23  1  0  0  0  0
 23 31  1  0  0  0  0
 23 27  1  1  0  0  0
 24 21  1  6  0  0  0
 24 32  1  0  0  0  0
 25 22  1  0  0  0  0
 25 24  1  0  0  0  0
 26 27  1  0  0  0  0
 28 22  2  0  0  0  0
 28 30  1  0  0  0  0
 30 26  1  0  0  0  0
 31 29  1  1  0  0  0
 32 31  1  0  0  0  0
 32 29  1  1  0  0  0
M  END
>  <MODEL>
7

>  <REMARK>
 VINA RESULT:      -8.1      2.722      6.272
  Name = 
  8 active torsions:
  status: ('A' for Active; 'I' for Inactive)
    1  A    between atoms: C_8  and  C_32
    2  A    between atoms: C_17  and  C_20
    3  A    between atoms: C_17  and  C_31
    4  A    between atoms: N_19  and  C_21
    5  A    between atoms: N_19  and  C_27
    6  A    between atoms: C_20  and  C_24
    7  A    between atoms: C_21  and  C_32
    8  A    between atoms: C_25  and  N_29
                            x       y       z     vdW  Elec       q    Type
                         _______ _______ _______ _____ _____    ______ ____

>  <TORSDO>
F 8

$$$$
=
 OpenBabel11062412433D

 32 36  0  0  1  0  0  0  0  0999 V2000
  183.4110  179.4230  139.8340 C   0  0  0  0  0  2  0  0  0  0  0  0
  185.2500  179.2000  142.1220 C   0  0  0  0  0  3  0  0  0  0  0  0
  184.8130  179.0500  139.7110 N   0  0  0  0  0  0  0  0  0  0  0  0
  185.6360  178.9890  140.7130 C   0  0  0  0  0  3  0  0  0  0  0  0
  182.6610  178.4230  140.6570 C   0  0  0  0  0  0  0  0  0  0  0  0
  182.9450  178.2860  141.9570 C   0  0  0  0  0  3  0  0  0  0  0  0
  184.0570  178.9340  142.6820 C   0  0  0  0  0  0  0  0  0  0  0  0
  179.3240  177.0820  139.4770 C   0  0  0  0  0  3  0  0  0  0  0  0
  181.6240  176.5550  139.2420 C   0  0  0  0  0  0  0  0  0  0  0  0
  182.6700  175.7370  139.2060 C   0  0  0  0  0  2  0  0  0  0  0  0
  180.1650  178.0930  140.2590 C   0  0  0  0  0  3  0  0  0  0  0  0
  180.2880  176.1180  138.7790 C   0  0  2  0  0  3  0  0  0  0  0  0
  181.5520  177.6960  140.0880 N   0  0  0  0  0  0  0  0  0  0  0  0
  180.1880  176.2770  137.2670 C   0  0  0  0  0  2  0  0  0  0  0  0
  179.8210  174.9800  136.6150 C   0  0  0  0  0  0  0  0  0  0  0  0
  179.6100  174.9520  135.3750 O   0  0  0  0  0  0  0  0  0  0  0  0
  180.6750  172.8210  137.3970 C   0  0  0  0  0  2  0  0  0  0  0  0
  179.7130  173.7340  137.3850 C   0  0  0  0  0  3  0  0  0  0  0  0
  183.8690  179.1540  144.0850 N   0  0  0  0  0  2  0  0  0  0  0  0
  184.9490  179.3810  145.0380 C   0  0  0  0  0  2  0  0  0  0  0  0
  185.5590  178.0620  145.4970 C   0  0  0  0  0  2  0  0  0  0  0  0
  189.2040  177.5140  146.4900 C   0  0  0  0  0  0  0  0  0  0  0  0
  189.7500  177.6640  145.0820 C   0  0  1  0  0  3  0  0  0  0  0  0
  187.0720  178.0720  145.3540 C   0  0  1  0  0  3  0  0  0  0  0  0
  187.7350  177.7080  146.6850 C   0  0  0  0  0  2  0  0  0  0  0  0
  191.6930  176.2680  145.9200 C   0  0  0  0  0  2  0  0  0  0  0  0
  191.2470  177.3490  144.9430 C   0  0  0  0  0  2  0  0  0  0  0  0
  189.9460  177.0400  147.5020 C   0  0  0  0  0  3  0  0  0  0  0  0
  188.2900  177.7860  143.2370 C   0  0  0  0  0  2  0  0  0  0  0  0
  191.4100  176.7480  147.3370 C   0  0  0  0  0  2  0  0  0  0  0  0
  188.9640  176.8490  144.1500 N   0  0  2  0  0  0  0  0  0  0  0  0
  187.4910  177.0910  144.2420 C   0  0  1  0  0  3  0  0  0  0  0  0
  1  5  1  0  0  0  0
  2  7  2  0  0  0  0
  3  1  1  0  0  0  0
  3  4  2  0  0  0  0
  4  2  1  0  0  0  0
  5  6  2  0  0  0  0
  6  7  1  0  0  0  0
  7 19  1  0  0  0  0
  8 11  2  0  0  0  0
  9 13  1  0  0  0  0
 10  9  2  0  0  0  0
 12 14  1  6  0  0  0
 12  9  1  0  0  0  0
 12  8  1  0  0  0  0
 13 11  1  0  0  0  0
 13  5  1  0  0  0  0
 15 14  1  0  0  0  0
 15 18  1  0  0  0  0
 16 15  2  0  0  0  0
 18 17  2  0  0  0  0
 19 20  1  0  0  0  0
 20 21  1  0  0  0  0
 22 25  1  0  0  0  0
 22 28  2  0  0  0  0
 23 27  1  1  0  0  0
 23 22  1  0  0  0  0
 24 21  1  1  0  0  0
 24 25  1  0  0  0  0
 26 30  1  0  0  0  0
 27 26  1  0  0  0  0
 30 28  1  0  0  0  0
 31 29  1  6  0  0  0
 31 32  1  0  0  0  0
 31 23  1  0  0  0  0
 32 29  1  6  0  0  0
 32 24  1  0  0  0  0
M  END
>  <MODEL>
8

>  <REMARK>
 VINA RESULT:      -7.8      4.340      8.312
  Name = 
  8 active torsions:
  status: ('A' for Active; 'I' for Inactive)
    1  A    between atoms: C_8  and  C_32
    2  A    between atoms: C_17  and  C_20
    3  A    between atoms: C_17  and  C_31
    4  A    between atoms: N_19  and  C_21
    5  A    between atoms: N_19  and  C_27
    6  A    between atoms: C_20  and  C_24
    7  A    between atoms: C_21  and  C_32
    8  A    between atoms: C_25  and  N_29
                            x       y       z     vdW  Elec       q    Type
                         _______ _______ _______ _____ _____    ______ ____

>  <TORSDO>
F 8

$$$$
=
 OpenBabel11062412433D

 32 36  0  0  1  0  0  0  0  0999 V2000
  183.0190  177.6550  140.8080 C   0  0  0  0  0  2  0  0  0  0  0  0
  182.0440  179.0030  143.2380 C   0  0  0  0  0  3  0  0  0  0  0  0
  181.8920  178.5770  140.8250 N   0  0  0  0  0  0  0  0  0  0  0  0
  181.4350  179.1430  141.9000 C   0  0  0  0  0  3  0  0  0  0  0  0
  184.2780  178.3430  141.2320 C   0  0  0  0  0  0  0  0  0  0  0  0
  184.4040  178.7870  142.4870 C   0  0  0  0  0  3  0  0  0  0  0  0
  183.3440  178.8060  143.5170 C   0  0  0  0  0  0  0  0  0  0  0  0
  187.6480  178.6040  139.5260 C   0  0  0  0  0  3  0  0  0  0  0  0
  185.3830  178.2520  138.9200 C   0  0  0  0  0  0  0  0  0  0  0  0
  184.2950  178.4390  138.1800 C   0  0  0  0  0  2  0  0  0  0  0  0
  186.7730  178.6170  140.7820 C   0  0  0  0  0  3  0  0  0  0  0  0
  186.7380  178.3150  138.3290 C   0  0  2  0  0  3  0  0  0  0  0  0
  185.4050  178.4190  140.3330 N   0  0  0  0  0  0  0  0  0  0  0  0
  187.0930  176.9690  137.7100 C   0  0  0  0  0  2  0  0  0  0  0  0
  188.4520  177.0090  137.0840 C   0  0  0  0  0  0  0  0  0  0  0  0
  188.7050  177.8820  136.2140 O   0  0  0  0  0  0  0  0  0  0  0  0
  190.4280  176.3540  138.3780 C   0  0  0  0  0  2  0  0  0  0  0  0
  189.5060  176.0610  137.4700 C   0  0  0  0  0  3  0  0  0  0  0  0
  183.7730  178.7430  144.8820 N   0  0  0  0  0  2  0  0  0  0  0  0
  185.0710  179.2050  145.3630 C   0  0  0  0  0  2  0  0  0  0  0  0
  185.7590  178.1300  146.1960 C   0  0  0  0  0  2  0  0  0  0  0  0
  189.4460  177.3250  146.7720 C   0  0  0  0  0  0  0  0  0  0  0  0
  189.8540  177.5260  145.3250 C   0  0  1  0  0  3  0  0  0  0  0  0
  187.2470  178.0640  145.8960 C   0  0  1  0  0  3  0  0  0  0  0  0
  188.0190  177.5880  147.1300 C   0  0  0  0  0  2  0  0  0  0  0  0
  191.7830  175.9790  145.8820 C   0  0  0  0  0  2  0  0  0  0  0  0
  191.3070  177.1380  145.0130 C   0  0  0  0  0  2  0  0  0  0  0  0
  190.2560  176.7540  147.6750 C   0  0  0  0  0  3  0  0  0  0  0  0
  188.2250  177.8340  143.6510 C   0  0  0  0  0  2  0  0  0  0  0  0
  191.6750  176.3910  147.3430 C   0  0  0  0  0  2  0  0  0  0  0  0
  188.9290  176.8110  144.4390 N   0  0  2  0  0  0  0  0  0  0  0  0
  187.4910  177.1280  144.6980 C   0  0  1  0  0  3  0  0  0  0  0  0
  1  3  1  0  0  0  0
  1  5  1  0  0  0  0
  2  7  2  0  0  0  0
  3  4  2  0  0  0  0
  4  2  1  0  0  0  0
  5  6  2  0  0  0  0
  6  7  1  0  0  0  0
  7 19  1  0  0  0  0
  8 11  2  0  0  0  0
  9 13  1  0  0  0  0
 10  9  2  0  0  0  0
 12 14  1  1  0  0  0
 12  9  1  0  0  0  0
 12  8  1  0  0  0  0
 13 11  1  0  0  0  0
 13  5  1  0  0  0  0
 15 18  1  0  0  0  0
 15 14  1  0  0  0  0
 16 15  2  0  0  0  0
 18 17  2  0  0  0  0
 19 20  1  0  0  0  0
 20 21  1  0  0  0  0
 22 25  1  0  0  0  0
 22 28  2  0  0  0  0
 23 27  1  1  0  0  0
 23 22  1  0  0  0  0
 24 21  1  1  0  0  0
 24 25  1  0  0  0  0
 26 30  1  0  0  0  0
 27 26  1  0  0  0  0
 30 28  1  0  0  0  0
 31 29  1  6  0  0  0
 31 32  1  0  0  0  0
 31 23  1  0  0  0  0
 32 29  1  6  0  0  0
 32 24  1  0  0  0  0
M  END
>  <MODEL>
9

>  <REMARK>
 VINA RESULT:      -7.7      2.484      6.179
  Name = 
  8 active torsions:
  status: ('A' for Active; 'I' for Inactive)
    1  A    between atoms: C_8  and  C_32
    2  A    between atoms: C_17  and  C_20
    3  A    between atoms: C_17  and  C_31
    4  A    between atoms: N_19  and  C_21
    5  A    between atoms: N_19  and  C_27
    6  A    between atoms: C_20  and  C_24
    7  A    between atoms: C_21  and  C_32
    8  A    between atoms: C_25  and  N_29
                            x       y       z     vdW  Elec       q    Type
                         _______ _______ _______ _____ _____    ______ ____

>  <TORSDO>
F 8

$$$$
