=
 OpenBabel11062416323D

 29 32  0  0  1  0  0  0  0  0999 V2000
  190.2350  175.8060  141.8520 O   0  0  0  0  0  1  0  0  0  0  0  0
  189.8210  177.1250  141.6510 C   0  0  2  0  0  3  0  0  0  0  0  0
  189.5390  177.3790  140.1990 C   0  0  0  0  0  0  0  0  0  0  0  0
  190.3800  176.8850  136.5690 C   0  0  0  0  0  1  0  0  0  0  0  0
  191.5450  176.3850  139.2820 O   0  0  0  0  0  0  0  0  0  0  0  0
  190.4510  176.9890  139.1280 C   0  0  0  0  0  0  0  0  0  0  0  0
  189.9240  177.3600  137.8660 N   0  0  0  0  0  0  0  0  0  0  0  0
  187.7660  178.2860  137.2560 C   0  0  0  0  0  2  0  0  0  0  0  0
  188.6650  177.9470  138.1740 C   0  0  0  0  0  0  0  0  0  0  0  0
  188.4560  177.9510  139.6350 C   0  0  0  0  0  0  0  0  0  0  0  0
  187.1770  178.6870  141.5850 N   0  0  0  0  0  0  0  0  0  0  0  0
  185.1300  179.2940  140.5850 N   0  0  0  0  0  0  0  0  0  0  0  0
  186.0650  178.8250  139.6540 N   0  0  0  0  0  2  0  0  0  0  0  0
  185.8470  179.2110  141.8670 C   0  0  0  0  0  3  0  0  0  0  0  0
  187.2560  178.4850  140.3220 C   0  0  0  0  0  0  0  0  0  0  0  0
  190.8420  178.1100  142.1970 C   0  0  0  0  0  2  0  0  0  0  0  0
  190.4410  178.5690  143.5870 C   0  0  0  0  0  2  0  0  0  0  0  0
  191.3550  176.9230  145.2370 C   0  0  0  0  0  2  0  0  0  0  0  0
  186.6630  178.2250  145.3710 C   0  0  0  0  0  2  0  0  0  0  0  0
  187.7920  177.6640  148.3970 C   0  0  0  0  0  2  0  0  0  0  0  0
  190.1170  177.3700  144.4600 C   0  0  1  0  0  3  0  0  0  0  0  0
  189.0980  177.7710  145.5250 C   0  0  1  0  0  3  0  0  0  0  0  0
  187.6110  176.4270  144.1410 O   0  0  0  0  0  1  0  0  0  0  0  0
  190.9690  176.9400  146.6350 N   0  0  0  0  0  0  0  0  0  0  0  0
  186.1200  178.4870  146.7740 C   0  0  0  0  0  2  0  0  0  0  0  0
  187.2120  178.9080  147.7470 C   0  0  0  0  0  2  0  0  0  0  0  0
  189.2110  177.5210  148.1030 N   0  0  0  0  0  2  0  0  0  0  0  0
  187.7150  177.1250  145.3480 C   0  0  2  0  0  3  0  0  0  0  0  0
  189.7640  177.3560  146.7920 C   0  0  0  0  0  0  0  0  0  0  0  0
  2  1  1  6  0  0  0
  2 16  1  0  0  0  0
  3  2  1  0  0  0  0
  4  7  1  0  0  0  0
  6  5  2  0  0  0  0
  6  3  1  0  0  0  0
  7  9  1  0  0  0  0
  7  6  1  0  0  0  0
  8  9  2  0  0  0  0
  9 10  1  0  0  0  0
 10  3  2  0  0  0  0
 10 15  1  0  0  0  0
 11 14  1  0  0  0  0
 12 14  2  0  0  0  0
 13 15  1  0  0  0  0
 13 12  1  0  0  0  0
 15 11  2  0  0  0  0
 16 17  1  0  0  0  0
 18 24  1  0  0  0  0
 19 25  1  0  0  0  0
 21 17  1  6  0  0  0
 21 18  1  0  0  0  0
 21 22  1  0  0  0  0
 22 29  1  1  0  0  0
 24 29  2  0  0  0  0
 25 26  1  0  0  0  0
 26 20  1  0  0  0  0
 27 20  1  0  0  0  0
 28 23  1  6  0  0  0
 28 19  1  0  0  0  0
 28 22  1  0  0  0  0
 29 27  1  0  0  0  0
M  END
>  <MODEL>
1

>  <REMARK>
 VINA RESULT:      -9.2      0.000      0.000
  Name = 
  5 active torsions:
  status: ('A' for Active; 'I' for Inactive)
    1  A    between atoms: C_1  and  C_27
    2  A    between atoms: C_8  and  C_28
    3  A    between atoms: C_21  and  C_27
    4  A    between atoms: C_21  and  C_28
    5  A    between atoms: C_25  and  C_29
                            x       y       z     vdW  Elec       q    Type
                         _______ _______ _______ _____ _____    ______ ____

>  <TORSDO>
F 5

$$$$
=
 OpenBabel11062416323D

 29 32  0  0  1  0  0  0  0  0999 V2000
  188.0020  175.8860  142.8080 O   0  0  0  0  0  1  0  0  0  0  0  0
  188.7370  176.9190  143.3940 C   0  0  2  0  0  3  0  0  0  0  0  0
  188.0730  177.3980  144.6520 C   0  0  0  0  0  0  0  0  0  0  0  0
  185.0010  178.5130  146.5080 C   0  0  0  0  0  1  0  0  0  0  0  0
  185.9100  177.9370  143.7130 O   0  0  0  0  0  0  0  0  0  0  0  0
  186.6970  177.8840  144.6950 C   0  0  0  0  0  0  0  0  0  0  0  0
  186.3460  178.2700  146.0120 N   0  0  0  0  0  0  0  0  0  0  0  0
  187.5480  178.0440  148.1070 C   0  0  0  0  0  2  0  0  0  0  0  0
  187.5080  177.9810  146.7800 C   0  0  0  0  0  0  0  0  0  0  0  0
  188.5690  177.4460  145.9040 C   0  0  0  0  0  0  0  0  0  0  0  0
  190.1520  176.3880  147.4400 N   0  0  0  0  0  0  0  0  0  0  0  0
  192.1960  176.7940  146.3400 N   0  0  0  0  0  0  0  0  0  0  0  0
  191.0980  177.3150  145.6430 N   0  0  0  0  0  2  0  0  0  0  0  0
  191.5910  176.1780  147.5290 C   0  0  0  0  0  3  0  0  0  0  0  0
  189.9190  177.0340  146.3580 C   0  0  0  0  0  0  0  0  0  0  0  0
  188.9540  178.0620  142.4150 C   0  0  0  0  0  2  0  0  0  0  0  0
  188.3600  177.7170  141.0620 C   0  0  0  0  0  2  0  0  0  0  0  0
  190.5830  176.8320  140.3220 C   0  0  0  0  0  2  0  0  0  0  0  0
  187.2900  178.3150  137.0520 C   0  0  0  0  0  2  0  0  0  0  0  0
  189.0220  175.7910  135.8820 C   0  0  0  0  0  2  0  0  0  0  0  0
  189.4330  177.7820  139.9880 C   0  0  1  0  0  3  0  0  0  0  0  0
  188.8640  177.2750  138.6640 C   0  0  1  0  0  3  0  0  0  0  0  0
  188.9700  179.6380  138.0880 O   0  0  0  0  0  1  0  0  0  0  0  0
  190.7190  175.9610  139.1710 N   0  0  0  0  0  0  0  0  0  0  0  0
  187.1460  177.3980  135.8410 C   0  0  0  0  0  2  0  0  0  0  0  0
  187.5380  175.9610  136.1540 C   0  0  0  0  0  2  0  0  0  0  0  0
  189.7450  175.4130  137.0890 N   0  0  0  0  0  2  0  0  0  0  0  0
  188.7150  178.3590  137.5860 C   0  0  2  0  0  3  0  0  0  0  0  0
  189.8340  176.2120  138.2750 C   0  0  0  0  0  0  0  0  0  0  0  0
  2  1  1  6  0  0  0
  2  3  1  0  0  0  0
  3  6  1  0  0  0  0
  3 10  2  0  0  0  0
  5  6  2  0  0  0  0
  6  7  1  0  0  0  0
  7  4  1  0  0  0  0
  7  9  1  0  0  0  0
  9  8  2  0  0  0  0
 10 15  1  0  0  0  0
 10  9  1  0  0  0  0
 11 14  1  0  0  0  0
 12 14  2  0  0  0  0
 13 12  1  0  0  0  0
 13 15  1  0  0  0  0
 15 11  2  0  0  0  0
 16  2  1  0  0  0  0
 17 16  1  0  0  0  0
 19 28  1  0  0  0  0
 20 26  1  0  0  0  0
 20 27  1  0  0  0  0
 21 18  1  0  0  0  0
 21 17  1  1  0  0  0
 22 29  1  6  0  0  0
 22 21  1  0  0  0  0
 24 18  1  0  0  0  0
 25 26  1  0  0  0  0
 25 19  1  0  0  0  0
 27 29  1  0  0  0  0
 28 23  1  1  0  0  0
 28 22  1  0  0  0  0
 29 24  2  0  0  0  0
M  END
>  <MODEL>
2

>  <REMARK>
 VINA RESULT:      -9.2      2.326      8.027
  Name = 
  5 active torsions:
  status: ('A' for Active; 'I' for Inactive)
    1  A    between atoms: C_1  and  C_27
    2  A    between atoms: C_8  and  C_28
    3  A    between atoms: C_21  and  C_27
    4  A    between atoms: C_21  and  C_28
    5  A    between atoms: C_25  and  C_29
                            x       y       z     vdW  Elec       q    Type
                         _______ _______ _______ _____ _____    ______ ____

>  <TORSDO>
F 5

$$$$
=
 OpenBabel11062416323D

 29 32  0  0  1  0  0  0  0  0999 V2000
  190.3460  179.0270  142.9640 O   0  0  0  0  0  1  0  0  0  0  0  0
  189.2500  178.2140  143.2610 C   0  0  2  0  0  3  0  0  0  0  0  0
  189.3410  177.6870  144.6620 C   0  0  0  0  0  0  0  0  0  0  0  0
  191.3830  176.4310  147.5580 C   0  0  0  0  0  1  0  0  0  0  0  0
  191.6870  177.0950  144.6530 O   0  0  0  0  0  0  0  0  0  0  0  0
  190.5720  177.1540  145.2380 C   0  0  0  0  0  0  0  0  0  0  0  0
  190.3560  176.7290  146.5720 N   0  0  0  0  0  0  0  0  0  0  0  0
  188.4180  176.9520  148.0150 C   0  0  0  0  0  2  0  0  0  0  0  0
  188.9900  177.0410  146.8190 C   0  0  0  0  0  0  0  0  0  0  0  0
  188.3830  177.6300  145.6090 C   0  0  0  0  0  0  0  0  0  0  0  0
  186.2260  177.8570  144.4780 N   0  0  0  0  0  0  0  0  0  0  0  0
  184.9940  179.0660  146.0820 N   0  0  0  0  0  0  0  0  0  0  0  0
  186.3040  178.7990  146.5000 N   0  0  0  0  0  2  0  0  0  0  0  0
  184.9240  178.4510  144.7490 C   0  0  0  0  0  3  0  0  0  0  0  0
  186.9740  178.0770  145.4950 C   0  0  0  0  0  0  0  0  0  0  0  0
  189.1170  177.0830  142.2530 C   0  0  0  0  0  2  0  0  0  0  0  0
  188.4640  177.5860  140.9790 C   0  0  0  0  0  2  0  0  0  0  0  0
  190.6380  176.6880  140.1220 C   0  0  0  0  0  2  0  0  0  0  0  0
  187.2250  178.2860  137.0350 C   0  0  0  0  0  2  0  0  0  0  0  0
  188.8670  175.7650  135.7350 C   0  0  0  0  0  2  0  0  0  0  0  0
  189.4880  177.6600  139.8600 C   0  0  1  0  0  3  0  0  0  0  0  0
  188.8550  177.1900  138.5520 C   0  0  1  0  0  3  0  0  0  0  0  0
  188.9690  179.5640  138.0230 O   0  0  0  0  0  1  0  0  0  0  0  0
  190.7110  175.8400  138.9480 N   0  0  0  0  0  0  0  0  0  0  0  0
  187.0150  177.3980  135.8120 C   0  0  0  0  0  2  0  0  0  0  0  0
  187.4000  175.9500  136.0760 C   0  0  0  0  0  2  0  0  0  0  0  0
  189.6380  175.3520  136.9000 N   0  0  0  0  0  2  0  0  0  0  0  0
  188.6730  178.2990  137.5050 C   0  0  2  0  0  3  0  0  0  0  0  0
  189.7900  176.1230  138.0970 C   0  0  0  0  0  0  0  0  0  0  0  0
  2  1  1  6  0  0  0
  2  3  1  0  0  0  0
  3  6  1  0  0  0  0
  3 10  2  0  0  0  0
  5  6  2  0  0  0  0
  6  7  1  0  0  0  0
  7  9  1  0  0  0  0
  7  4  1  0  0  0  0
  9  8  2  0  0  0  0
 10  9  1  0  0  0  0
 11 14  1  0  0  0  0
 11 15  2  0  0  0  0
 12 13  1  0  0  0  0
 14 12  2  0  0  0  0
 15 10  1  0  0  0  0
 15 13  1  0  0  0  0
 16  2  1  0  0  0  0
 17 16  1  0  0  0  0
 19 28  1  0  0  0  0
 20 26  1  0  0  0  0
 20 27  1  0  0  0  0
 21 18  1  0  0  0  0
 21 17  1  1  0  0  0
 22 29  1  6  0  0  0
 22 21  1  0  0  0  0
 24 18  1  0  0  0  0
 25 26  1  0  0  0  0
 25 19  1  0  0  0  0
 27 29  1  0  0  0  0
 28 23  1  1  0  0  0
 28 22  1  0  0  0  0
 29 24  2  0  0  0  0
M  END
>  <MODEL>
3

>  <REMARK>
 VINA RESULT:      -9.0      2.234      7.543
  Name = 
  5 active torsions:
  status: ('A' for Active; 'I' for Inactive)
    1  A    between atoms: C_1  and  C_27
    2  A    between atoms: C_8  and  C_28
    3  A    between atoms: C_21  and  C_27
    4  A    between atoms: C_21  and  C_28
    5  A    between atoms: C_25  and  C_29
                            x       y       z     vdW  Elec       q    Type
                         _______ _______ _______ _____ _____    ______ ____

>  <TORSDO>
F 5

$$$$
=
 OpenBabel11062416323D

 29 32  0  0  1  0  0  0  0  0999 V2000
  192.1800  177.8220  140.7190 O   0  0  0  0  0  1  0  0  0  0  0  0
  190.8980  177.2680  140.7020 C   0  0  2  0  0  3  0  0  0  0  0  0
  190.3080  177.3290  139.3240 C   0  0  0  0  0  0  0  0  0  0  0  0
  187.8050  178.7340  136.8980 C   0  0  0  0  0  1  0  0  0  0  0  0
  188.3870  178.7090  139.8350 O   0  0  0  0  0  0  0  0  0  0  0  0
  189.0760  178.0480  139.0130 C   0  0  0  0  0  0  0  0  0  0  0  0
  188.7620  177.9270  137.6360 N   0  0  0  0  0  0  0  0  0  0  0  0
  190.0160  176.9510  135.8020 C   0  0  0  0  0  2  0  0  0  0  0  0
  189.8340  177.1590  137.1020 C   0  0  0  0  0  0  0  0  0  0  0  0
  190.7770  176.7960  138.1790 C   0  0  0  0  0  0  0  0  0  0  0  0
  192.0380  174.7180  137.9030 N   0  0  0  0  0  0  0  0  0  0  0  0
  194.2410  175.5400  137.7330 N   0  0  0  0  0  0  0  0  0  0  0  0
  193.2970  176.5620  137.9010 N   0  0  0  0  0  2  0  0  0  0  0  0
  193.4280  174.3150  137.7310 C   0  0  0  0  0  3  0  0  0  0  0  0
  192.0120  175.9970  137.9940 C   0  0  0  0  0  0  0  0  0  0  0  0
  189.9940  177.9450  141.7210 C   0  0  0  0  0  2  0  0  0  0  0  0
  190.7050  178.0730  143.0550 C   0  0  0  0  0  2  0  0  0  0  0  0
  191.0620  176.9590  145.2680 C   0  0  0  0  0  2  0  0  0  0  0  0
  186.5640  177.5970  143.5090 C   0  0  0  0  0  2  0  0  0  0  0  0
  186.5730  177.8550  146.7770 C   0  0  0  0  0  2  0  0  0  0  0  0
  190.1590  177.0540  144.0390 C   0  0  1  0  0  3  0  0  0  0  0  0
  188.8070  177.5270  144.5700 C   0  0  1  0  0  3  0  0  0  0  0  0
  187.9870  175.7270  143.1500 O   0  0  0  0  0  1  0  0  0  0  0  0
  190.2050  177.2190  146.4080 N   0  0  0  0  0  0  0  0  0  0  0  0
  185.5450  178.0730  144.5400 C   0  0  0  0  0  2  0  0  0  0  0  0
  186.1950  178.8380  145.6840 C   0  0  0  0  0  2  0  0  0  0  0  0
  188.0100  177.8500  147.0160 N   0  0  0  0  0  2  0  0  0  0  0  0
  187.6160  176.6740  144.1100 C   0  0  2  0  0  3  0  0  0  0  0  0
  189.0010  177.4880  146.0470 C   0  0  0  0  0  0  0  0  0  0  0  0
  2  1  1  6  0  0  0
  2 16  1  0  0  0  0
  3  2  1  0  0  0  0
  4  7  1  0  0  0  0
  6  3  1  0  0  0  0
  6  5  2  0  0  0  0
  7  6  1  0  0  0  0
  8  9  2  0  0  0  0
  9  7  1  0  0  0  0
  9 10  1  0  0  0  0
 10  3  2  0  0  0  0
 11 15  2  0  0  0  0
 12 13  1  0  0  0  0
 13 15  1  0  0  0  0
 14 12  2  0  0  0  0
 14 11  1  0  0  0  0
 15 10  1  0  0  0  0
 16 17  1  0  0  0  0
 18 24  1  0  0  0  0
 19 28  1  0  0  0  0
 19 25  1  0  0  0  0
 20 27  1  0  0  0  0
 21 17  1  6  0  0  0
 21 22  1  0  0  0  0
 21 18  1  0  0  0  0
 22 29  1  1  0  0  0
 25 26  1  0  0  0  0
 26 20  1  0  0  0  0
 28 23  1  6  0  0  0
 28 22  1  0  0  0  0
 29 24  2  0  0  0  0
 29 27  1  0  0  0  0
M  END
>  <MODEL>
4

>  <REMARK>
 VINA RESULT:      -8.9      1.966      3.918
  Name = 
  5 active torsions:
  status: ('A' for Active; 'I' for Inactive)
    1  A    between atoms: C_1  and  C_27
    2  A    between atoms: C_8  and  C_28
    3  A    between atoms: C_21  and  C_27
    4  A    between atoms: C_21  and  C_28
    5  A    between atoms: C_25  and  C_29
                            x       y       z     vdW  Elec       q    Type
                         _______ _______ _______ _____ _____    ______ ____

>  <TORSDO>
F 5

$$$$
=
 OpenBabel11062416323D

 29 32  0  0  1  0  0  0  0  0999 V2000
  188.2540  175.8290  142.8070 O   0  0  0  0  0  1  0  0  0  0  0  0
  188.8550  176.9500  143.3850 C   0  0  2  0  0  3  0  0  0  0  0  0
  188.0570  177.4370  144.5590 C   0  0  0  0  0  0  0  0  0  0  0  0
  187.7970  178.2780  148.2130 C   0  0  0  0  0  1  0  0  0  0  0  0
  189.6620  176.9300  146.2960 O   0  0  0  0  0  0  0  0  0  0  0  0
  188.5390  177.3700  145.9360 C   0  0  0  0  0  0  0  0  0  0  0  0
  187.5730  177.8980  146.8270 N   0  0  0  0  0  0  0  0  0  0  0  0
  185.4680  179.0280  146.4020 C   0  0  0  0  0  2  0  0  0  0  0  0
  186.5120  178.3220  145.9790 C   0  0  0  0  0  0  0  0  0  0  0  0
  186.8400  178.0160  144.5730 C   0  0  0  0  0  0  0  0  0  0  0  0
  185.0900  177.5090  142.9420 N   0  0  0  0  0  0  0  0  0  0  0  0
  185.0720  179.4880  141.6610 N   0  0  0  0  0  0  0  0  0  0  0  0
  186.0170  179.5240  142.6940 N   0  0  0  0  0  2  0  0  0  0  0  0
  184.4490  178.1640  141.8090 C   0  0  0  0  0  3  0  0  0  0  0  0
  185.9690  178.3150  143.4110 C   0  0  0  0  0  0  0  0  0  0  0  0
  189.0580  178.0540  142.3590 C   0  0  0  0  0  2  0  0  0  0  0  0
  188.4530  177.6530  141.0260 C   0  0  0  0  0  2  0  0  0  0  0  0
  190.6530  176.7720  140.2220 C   0  0  0  0  0  2  0  0  0  0  0  0
  187.2950  178.3240  137.0520 C   0  0  0  0  0  2  0  0  0  0  0  0
  188.9890  175.8120  135.8020 C   0  0  0  0  0  2  0  0  0  0  0  0
  189.5010  177.7320  139.9310 C   0  0  1  0  0  3  0  0  0  0  0  0
  188.9000  177.2490  138.6110 C   0  0  1  0  0  3  0  0  0  0  0  0
  189.0040  179.6220  138.0730 O   0  0  0  0  0  1  0  0  0  0  0  0
  190.7600  175.9190  139.0540 N   0  0  0  0  0  0  0  0  0  0  0  0
  187.1200  177.4280  135.8300 C   0  0  0  0  0  2  0  0  0  0  0  0
  187.5120  175.9840  136.1090 C   0  0  0  0  0  2  0  0  0  0  0  0
  189.7370  175.4110  136.9850 N   0  0  0  0  0  2  0  0  0  0  0  0
  188.7320  178.3520  137.5550 C   0  0  2  0  0  3  0  0  0  0  0  0
  189.8560  176.1890  138.1820 C   0  0  0  0  0  0  0  0  0  0  0  0
  2  1  1  6  0  0  0
  2  3  1  0  0  0  0
  3 10  2  0  0  0  0
  3  6  1  0  0  0  0
  6  5  2  0  0  0  0
  6  7  1  0  0  0  0
  7  4  1  0  0  0  0
  9  8  2  0  0  0  0
  9  7  1  0  0  0  0
 10  9  1  0  0  0  0
 11 15  2  0  0  0  0
 12 14  2  0  0  0  0
 12 13  1  0  0  0  0
 13 15  1  0  0  0  0
 14 11  1  0  0  0  0
 15 10  1  0  0  0  0
 16  2  1  0  0  0  0
 17 16  1  0  0  0  0
 19 28  1  0  0  0  0
 20 26  1  0  0  0  0
 20 27  1  0  0  0  0
 21 18  1  0  0  0  0
 21 17  1  1  0  0  0
 22 29  1  6  0  0  0
 22 21  1  0  0  0  0
 24 18  1  0  0  0  0
 25 26  1  0  0  0  0
 25 19  1  0  0  0  0
 27 29  1  0  0  0  0
 28 23  1  1  0  0  0
 28 22  1  0  0  0  0
 29 24  2  0  0  0  0
M  END
>  <MODEL>
5

>  <REMARK>
 VINA RESULT:      -8.8      1.820      7.338
  Name = 
  5 active torsions:
  status: ('A' for Active; 'I' for Inactive)
    1  A    between atoms: C_1  and  C_27
    2  A    between atoms: C_8  and  C_28
    3  A    between atoms: C_21  and  C_27
    4  A    between atoms: C_21  and  C_28
    5  A    between atoms: C_25  and  C_29
                            x       y       z     vdW  Elec       q    Type
                         _______ _______ _______ _____ _____    ______ ____

>  <TORSDO>
F 5

$$$$
=
 OpenBabel11062416323D

 29 32  0  0  1  0  0  0  0  0999 V2000
  188.0930  175.6870  143.3020 O   0  0  0  0  0  1  0  0  0  0  0  0
  188.8060  176.7970  143.7590 C   0  0  2  0  0  3  0  0  0  0  0  0
  188.2300  177.3070  145.0480 C   0  0  0  0  0  0  0  0  0  0  0  0
  185.3130  178.5780  147.0490 C   0  0  0  0  0  1  0  0  0  0  0  0
  186.0560  177.9630  144.2140 O   0  0  0  0  0  0  0  0  0  0  0  0
  186.8850  177.8650  145.1570 C   0  0  0  0  0  0  0  0  0  0  0  0
  186.6180  178.2660  146.4890 N   0  0  0  0  0  0  0  0  0  0  0  0
  187.9050  177.9690  148.5240 C   0  0  0  0  0  2  0  0  0  0  0  0
  187.7980  177.9120  147.2010 C   0  0  0  0  0  0  0  0  0  0  0  0
  188.7860  177.3240  146.2750 C   0  0  0  0  0  0  0  0  0  0  0  0
  190.3470  175.9210  147.5300 N   0  0  0  0  0  0  0  0  0  0  0  0
  192.4160  176.6790  146.6950 N   0  0  0  0  0  0  0  0  0  0  0  0
  191.3270  177.3450  146.1180 N   0  0  0  0  0  2  0  0  0  0  0  0
  191.7890  175.7340  147.6310 C   0  0  0  0  0  3  0  0  0  0  0  0
  190.1330  176.8400  146.6630 C   0  0  0  0  0  0  0  0  0  0  0  0
  188.8540  177.8920  142.7050 C   0  0  0  0  0  2  0  0  0  0  0  0
  188.3890  177.3530  141.3640 C   0  0  0  0  0  2  0  0  0  0  0  0
  188.6090  178.6210  139.2170 C   0  0  0  0  0  2  0  0  0  0  0  0
  184.2620  178.0950  141.3520 C   0  0  0  0  0  2  0  0  0  0  0  0
  183.9520  178.1030  138.0890 C   0  0  0  0  0  2  0  0  0  0  0  0
  187.8190  178.4770  140.5180 C   0  0  1  0  0  3  0  0  0  0  0  0
  186.3970  178.1250  140.0860 C   0  0  1  0  0  3  0  0  0  0  0  0
  185.8270  179.8470  141.7110 O   0  0  0  0  0  1  0  0  0  0  0  0
  187.6350  178.5020  138.1500 N   0  0  0  0  0  0  0  0  0  0  0  0
  183.1240  177.7620  140.3920 C   0  0  0  0  0  2  0  0  0  0  0  0
  183.6140  177.0560  139.1360 C   0  0  0  0  0  2  0  0  0  0  0  0
  185.3570  178.0460  137.7120 N   0  0  0  0  0  2  0  0  0  0  0  0
  185.3090  179.0040  140.7230 C   0  0  2  0  0  3  0  0  0  0  0  0
  186.4550  178.2730  138.6050 C   0  0  0  0  0  0  0  0  0  0  0  0
  2  1  1  6  0  0  0
  2  3  1  0  0  0  0
  3  6  1  0  0  0  0
  3 10  2  0  0  0  0
  5  6  2  0  0  0  0
  6  7  1  0  0  0  0
  7  4  1  0  0  0  0
  7  9  1  0  0  0  0
  9  8  2  0  0  0  0
 10 15  1  0  0  0  0
 10  9  1  0  0  0  0
 11 14  1  0  0  0  0
 12 14  2  0  0  0  0
 13 15  1  0  0  0  0
 13 12  1  0  0  0  0
 15 11  2  0  0  0  0
 16  2  1  0  0  0  0
 17 16  1  0  0  0  0
 18 21  1  0  0  0  0
 20 26  1  0  0  0  0
 21 17  1  1  0  0  0
 22 29  1  6  0  0  0
 22 21  1  0  0  0  0
 22 28  1  0  0  0  0
 24 29  2  0  0  0  0
 24 18  1  0  0  0  0
 25 19  1  0  0  0  0
 26 25  1  0  0  0  0
 27 20  1  0  0  0  0
 27 29  1  0  0  0  0
 28 19  1  0  0  0  0
 28 23  1  1  0  0  0
M  END
>  <MODEL>
6

>  <REMARK>
 VINA RESULT:      -8.8      2.079      7.701
  Name = 
  5 active torsions:
  status: ('A' for Active; 'I' for Inactive)
    1  A    between atoms: C_1  and  C_27
    2  A    between atoms: C_8  and  C_28
    3  A    between atoms: C_21  and  C_27
    4  A    between atoms: C_21  and  C_28
    5  A    between atoms: C_25  and  C_29
                            x       y       z     vdW  Elec       q    Type
                         _______ _______ _______ _____ _____    ______ ____

>  <TORSDO>
F 5

$$$$
=
 OpenBabel11062416323D

 29 32  0  0  1  0  0  0  0  0999 V2000
  185.6390  179.7990  142.1330 O   0  0  0  0  0  1  0  0  0  0  0  0
  186.5740  178.7630  142.0630 C   0  0  2  0  0  3  0  0  0  0  0  0
  186.9460  178.4770  140.6380 C   0  0  0  0  0  0  0  0  0  0  0  0
  189.3900  177.1790  138.0940 C   0  0  0  0  0  1  0  0  0  0  0  0
  189.2610  177.8770  141.0030 O   0  0  0  0  0  0  0  0  0  0  0  0
  188.2850  178.0630  140.2290 C   0  0  0  0  0  0  0  0  0  0  0  0
  188.3410  177.8690  138.8270 N   0  0  0  0  0  0  0  0  0  0  0  0
  186.5890  177.9050  137.1480 C   0  0  0  0  0  2  0  0  0  0  0  0
  187.0130  178.1320  138.3870 C   0  0  0  0  0  0  0  0  0  0  0  0
  186.1700  178.5140  139.5370 C   0  0  0  0  0  0  0  0  0  0  0  0
  183.7770  178.0460  139.7240 N   0  0  0  0  0  0  0  0  0  0  0  0
  182.8540  180.1230  139.1020 N   0  0  0  0  0  0  0  0  0  0  0  0
  184.2550  180.1280  139.0760 N   0  0  0  0  0  2  0  0  0  0  0  0
  182.5200  178.7570  139.5280 C   0  0  0  0  0  3  0  0  0  0  0  0
  184.7300  178.8600  139.4580 C   0  0  0  0  0  0  0  0  0  0  0  0
  186.0620  177.5130  142.7620 C   0  0  0  0  0  2  0  0  0  0  0  0
  187.1600  176.8950  143.6070 C   0  0  0  0  0  2  0  0  0  0  0  0
  186.6980  178.2490  145.6610 C   0  0  0  0  0  2  0  0  0  0  0  0
  191.2430  176.8800  144.5630 C   0  0  0  0  0  2  0  0  0  0  0  0
  190.8060  176.9350  147.8120 C   0  0  0  0  0  2  0  0  0  0  0  0
  187.7200  177.9240  144.5720 C   0  0  1  0  0  3  0  0  0  0  0  0
  188.9200  177.3350  145.3110 C   0  0  1  0  0  3  0  0  0  0  0  0
  190.1460  178.8740  143.8770 O   0  0  0  0  0  1  0  0  0  0  0  0
  187.3690  177.9910  146.9200 N   0  0  0  0  0  0  0  0  0  0  0  0
  192.0550  176.3770  145.7530 C   0  0  0  0  0  2  0  0  0  0  0  0
  191.1740  175.8130  146.8580 C   0  0  0  0  0  2  0  0  0  0  0  0
  189.3660  177.1460  147.8590 N   0  0  0  0  0  2  0  0  0  0  0  0
  190.2650  177.9820  144.9470 C   0  0  2  0  0  3  0  0  0  0  0  0
  188.5580  177.5380  146.7430 C   0  0  0  0  0  0  0  0  0  0  0  0
  2  1  1  6  0  0  0
  2 16  1  0  0  0  0
  3  2  1  0  0  0  0
  4  7  1  0  0  0  0
  6  3  1  0  0  0  0
  6  5  2  0  0  0  0
  7  6  1  0  0  0  0
  8  9  2  0  0  0  0
  9  7  1  0  0  0  0
  9 10  1  0  0  0  0
 10  3  2  0  0  0  0
 12 14  2  0  0  0  0
 13 12  1  0  0  0  0
 13 15  1  0  0  0  0
 14 11  1  0  0  0  0
 15 10  1  0  0  0  0
 15 11  2  0  0  0  0
 16 17  1  0  0  0  0
 18 24  1  0  0  0  0
 19 28  1  0  0  0  0
 19 25  1  0  0  0  0
 20 27  1  0  0  0  0
 21 17  1  6  0  0  0
 21 22  1  0  0  0  0
 21 18  1  0  0  0  0
 22 29  1  1  0  0  0
 25 26  1  0  0  0  0
 26 20  1  0  0  0  0
 28 23  1  6  0  0  0
 28 22  1  0  0  0  0
 29 24  2  0  0  0  0
 29 27  1  0  0  0  0
M  END
>  <MODEL>
7

>  <REMARK>
 VINA RESULT:      -8.7      1.972      3.469
  Name = 
  5 active torsions:
  status: ('A' for Active; 'I' for Inactive)
    1  A    between atoms: C_1  and  C_27
    2  A    between atoms: C_8  and  C_28
    3  A    between atoms: C_21  and  C_27
    4  A    between atoms: C_21  and  C_28
    5  A    between atoms: C_25  and  C_29
                            x       y       z     vdW  Elec       q    Type
                         _______ _______ _______ _____ _____    ______ ____

>  <TORSDO>
F 5

$$$$
=
 OpenBabel11062416323D

 29 32  0  0  1  0  0  0  0  0999 V2000
  190.5430  179.3520  143.3910 O   0  0  0  0  0  1  0  0  0  0  0  0
  189.4970  178.4400  143.5490 C   0  0  2  0  0  3  0  0  0  0  0  0
  189.5820  177.7580  144.8830 C   0  0  0  0  0  0  0  0  0  0  0  0
  191.6100  176.1630  147.6170 C   0  0  0  0  0  1  0  0  0  0  0  0
  191.9220  177.1470  144.8060 O   0  0  0  0  0  0  0  0  0  0  0  0
  190.8080  177.1510  145.3940 C   0  0  0  0  0  0  0  0  0  0  0  0
  190.5870  176.5810  146.6720 N   0  0  0  0  0  0  0  0  0  0  0  0
  188.6510  176.6600  148.1320 C   0  0  0  0  0  2  0  0  0  0  0  0
  189.2240  176.8770  146.9530 C   0  0  0  0  0  0  0  0  0  0  0  0
  188.6230  177.6050  145.8180 C   0  0  0  0  0  0  0  0  0  0  0  0
  186.3770  177.7200  144.8580 N   0  0  0  0  0  0  0  0  0  0  0  0
  185.3220  179.2150  146.3440 N   0  0  0  0  0  0  0  0  0  0  0  0
  186.6590  178.9740  146.6840 N   0  0  0  0  0  2  0  0  0  0  0  0
  185.1170  178.3950  145.1410 C   0  0  0  0  0  3  0  0  0  0  0  0
  187.2190  178.0760  145.7560 C   0  0  0  0  0  0  0  0  0  0  0  0
  189.4730  177.4300  142.4130 C   0  0  0  0  0  2  0  0  0  0  0  0
  188.0540  177.2290  141.9160 C   0  0  0  0  0  2  0  0  0  0  0  0
  188.5250  178.4960  139.8090 C   0  0  0  0  0  2  0  0  0  0  0  0
  184.0060  178.2810  141.6150 C   0  0  0  0  0  2  0  0  0  0  0  0
  183.9370  178.3410  138.3390 C   0  0  0  0  0  2  0  0  0  0  0  0
  187.6330  178.4010  141.0460 C   0  0  1  0  0  3  0  0  0  0  0  0
  186.2240  178.1600  140.5080 C   0  0  1  0  0  3  0  0  0  0  0  0
  185.6670  179.9070  142.1110 O   0  0  0  0  0  1  0  0  0  0  0  0
  187.6250  178.4600  138.6720 N   0  0  0  0  0  0  0  0  0  0  0  0
  182.9190  178.0430  140.5710 C   0  0  0  0  0  2  0  0  0  0  0  0
  183.4470  177.3130  139.3440 C   0  0  0  0  0  2  0  0  0  0  0  0
  185.3580  178.1820  138.0640 N   0  0  0  0  0  2  0  0  0  0  0  0
  185.1610  179.1130  141.0770 C   0  0  2  0  0  3  0  0  0  0  0  0
  186.4010  178.3160  139.0370 C   0  0  0  0  0  0  0  0  0  0  0  0
  2  1  1  6  0  0  0
  2  3  1  0  0  0  0
  3  6  1  0  0  0  0
  3 10  2  0  0  0  0
  5  6  2  0  0  0  0
  6  7  1  0  0  0  0
  7  9  1  0  0  0  0
  7  4  1  0  0  0  0
  9  8  2  0  0  0  0
 10  9  1  0  0  0  0
 11 14  1  0  0  0  0
 11 15  2  0  0  0  0
 12 13  1  0  0  0  0
 14 12  2  0  0  0  0
 15 10  1  0  0  0  0
 15 13  1  0  0  0  0
 16  2  1  0  0  0  0
 17 16  1  0  0  0  0
 18 21  1  0  0  0  0
 20 26  1  0  0  0  0
 21 17  1  1  0  0  0
 22 29  1  6  0  0  0
 22 21  1  0  0  0  0
 22 28  1  0  0  0  0
 24 29  2  0  0  0  0
 24 18  1  0  0  0  0
 25 19  1  0  0  0  0
 26 25  1  0  0  0  0
 27 20  1  0  0  0  0
 27 29  1  0  0  0  0
 28 19  1  0  0  0  0
 28 23  1  1  0  0  0
M  END
>  <MODEL>
8

>  <REMARK>
 VINA RESULT:      -8.6      2.415      6.909
  Name = 
  5 active torsions:
  status: ('A' for Active; 'I' for Inactive)
    1  A    between atoms: C_1  and  C_27
    2  A    between atoms: C_8  and  C_28
    3  A    between atoms: C_21  and  C_27
    4  A    between atoms: C_21  and  C_28
    5  A    between atoms: C_25  and  C_29
                            x       y       z     vdW  Elec       q    Type
                         _______ _______ _______ _____ _____    ______ ____

>  <TORSDO>
F 5

$$$$
=
 OpenBabel11062416323D

 29 32  0  0  1  0  0  0  0  0999 V2000
  189.0560  179.5710  138.5390 O   0  0  0  0  0  1  0  0  0  0  0  0
  188.8810  178.2670  139.0080 C   0  0  2  0  0  3  0  0  0  0  0  0
  188.0950  177.4480  138.0270 C   0  0  0  0  0  0  0  0  0  0  0  0
  184.9880  176.8780  135.9910 C   0  0  0  0  0  1  0  0  0  0  0  0
  185.9910  178.6270  138.2040 O   0  0  0  0  0  0  0  0  0  0  0  0
  186.6910  177.7000  137.7180 C   0  0  0  0  0  0  0  0  0  0  0  0
  186.2150  176.7690  136.7620 N   0  0  0  0  0  0  0  0  0  0  0  0
  187.3830  175.0690  135.4840 C   0  0  0  0  0  2  0  0  0  0  0  0
  187.3530  175.9670  136.4630 C   0  0  0  0  0  0  0  0  0  0  0  0
  188.5060  176.4100  137.2710 C   0  0  0  0  0  0  0  0  0  0  0  0
  190.8670  176.3380  136.6390 N   0  0  0  0  0  0  0  0  0  0  0  0
  191.5330  174.2880  137.5930 N   0  0  0  0  0  0  0  0  0  0  0  0
  190.1800  174.5730  137.8200 N   0  0  0  0  0  2  0  0  0  0  0  0
  192.0040  175.4430  136.8150 C   0  0  0  0  0  3  0  0  0  0  0  0
  189.8590  175.8060  137.2240 C   0  0  0  0  0  0  0  0  0  0  0  0
  188.2270  178.2600  140.3810 C   0  0  0  0  0  2  0  0  0  0  0  0
  189.2470  178.6030  141.4520 C   0  0  0  0  0  2  0  0  0  0  0  0
  191.1780  177.1320  142.0630 C   0  0  0  0  0  2  0  0  0  0  0  0
  187.3130  177.5000  145.0050 C   0  0  0  0  0  2  0  0  0  0  0  0
  190.0590  177.1080  146.7510 C   0  0  0  0  0  2  0  0  0  0  0  0
  189.6710  177.3470  142.1920 C   0  0  1  0  0  3  0  0  0  0  0  0
  189.4160  177.5220  143.6880 C   0  0  1  0  0  3  0  0  0  0  0  0
  187.6180  175.9440  143.2350 O   0  0  0  0  0  1  0  0  0  0  0  0
  191.6810  177.0470  143.4210 N   0  0  0  0  0  0  0  0  0  0  0  0
  187.6570  177.6240  146.4860 C   0  0  0  0  0  2  0  0  0  0  0  0
  189.0350  178.2290  146.7110 C   0  0  0  0  0  2  0  0  0  0  0  0
  191.0440  177.2480  145.6880 N   0  0  0  0  0  2  0  0  0  0  0  0
  188.3020  176.6250  144.2470 C   0  0  2  0  0  3  0  0  0  0  0  0
  190.7470  177.2190  144.2860 C   0  0  0  0  0  0  0  0  0  0  0  0
  2  1  1  6  0  0  0
  2 16  1  0  0  0  0
  3  2  1  0  0  0  0
  4  7  1  0  0  0  0
  6  3  1  0  0  0  0
  6  5  2  0  0  0  0
  7  6  1  0  0  0  0
  8  9  2  0  0  0  0
  9  7  1  0  0  0  0
  9 10  1  0  0  0  0
 10  3  2  0  0  0  0
 11 14  1  0  0  0  0
 11 15  2  0  0  0  0
 12 13  1  0  0  0  0
 14 12  2  0  0  0  0
 15 10  1  0  0  0  0
 15 13  1  0  0  0  0
 16 17  1  0  0  0  0
 18 21  1  0  0  0  0
 18 24  1  0  0  0  0
 19 25  1  0  0  0  0
 21 17  1  6  0  0  0
 21 22  1  0  0  0  0
 22 28  1  0  0  0  0
 22 29  1  1  0  0  0
 24 29  2  0  0  0  0
 25 26  1  0  0  0  0
 26 20  1  0  0  0  0
 27 20  1  0  0  0  0
 28 23  1  6  0  0  0
 28 19  1  0  0  0  0
 29 27  1  0  0  0  0
M  END
>  <MODEL>
9

>  <REMARK>
 VINA RESULT:      -8.3      2.335      4.202
  Name = 
  5 active torsions:
  status: ('A' for Active; 'I' for Inactive)
    1  A    between atoms: C_1  and  C_27
    2  A    between atoms: C_8  and  C_28
    3  A    between atoms: C_21  and  C_27
    4  A    between atoms: C_21  and  C_28
    5  A    between atoms: C_25  and  C_29
                            x       y       z     vdW  Elec       q    Type
                         _______ _______ _______ _____ _____    ______ ____

>  <TORSDO>
F 5

$$$$
