=
 OpenBabel11062412333D

 33 36  0  0  1  0  0  0  0  0999 V2000
  186.9540  173.6490  136.3620 N   0  0  0  0  0  0  0  0  0  0  0  0
  190.2790  176.1850  136.9880 C   0  0  0  0  0  2  0  0  0  0  0  0
  186.6020  178.2460  136.1650 C   0  0  0  0  0  3  0  0  0  0  0  0
  181.3250  175.0850  134.5940 O   0  0  0  0  0  1  0  0  0  0  0  0
  186.2210  177.7700  139.7470 O   0  0  0  0  0  0  0  0  0  0  0  0
  181.8070  179.3200  140.7500 O   0  0  0  0  0  0  0  0  0  0  0  0
  183.1490  175.7850  137.9150 S   0  0  0  0  0  0  0  0  0  0  0  0
  182.8020  174.8840  136.5300 C   0  0  0  0  0  0  0  0  0  0  0  0
  188.2130  174.0070  135.8620 N   0  0  0  0  0  2  0  0  0  0  0  0
  181.8490  175.5710  135.7860 C   0  0  0  0  0  0  0  0  0  0  0  0
  181.8740  178.2190  138.3580 N   0  0  0  0  0  2  0  0  0  0  0  0
  184.7870  173.4050  136.5270 C   0  0  0  0  0  0  0  0  0  0  0  0
  188.1010  177.1670  137.7270 C   0  0  0  0  0  3  0  0  0  0  0  0
  182.1060  177.0590  137.5540 C   0  0  0  0  0  0  0  0  0  0  0  0
  183.2210  177.3500  140.4910 O   0  0  0  0  0  0  0  0  0  0  0  0
  180.4530  177.7010  135.7370 C   0  0  0  0  0  1  0  0  0  0  0  0
  189.4290  173.8470  136.6430 C   0  0  0  0  0  2  0  0  0  0  0  0
  185.8040  173.8220  135.6960 C   0  0  0  0  0  3  0  0  0  0  0  0
  188.6820  177.2860  135.3800 C   0  0  0  0  0  3  0  0  0  0  0  0
  187.4860  177.9620  135.1200 C   0  0  0  0  0  3  0  0  0  0  0  0
  190.4490  174.8840  136.2060 C   0  0  2  0  0  3  0  0  0  0  0  0
  181.4610  176.7920  136.3530 C   0  0  0  0  0  0  0  0  0  0  0  0
  184.9130  179.1130  138.3570 N   0  0  0  0  0  2  0  0  0  0  0  0
  185.3360  172.9980  137.7360 C   0  0  0  0  0  3  0  0  0  0  0  0
  184.1110  179.6680  139.4370 C   0  0  0  0  0  2  0  0  0  0  0  0
  183.3290  173.5200  136.2090 C   0  0  1  0  0  3  0  0  0  0  0  0
  188.9890  176.8800  136.6850 C   0  0  0  0  0  0  0  0  0  0  0  0
  186.0040  178.2150  138.5870 C   0  0  0  0  0  0  0  0  0  0  0  0
  182.7360  178.6010  139.8140 S   0  0  0  0  0  0  0  0  0  0  0  0
  182.5630  172.5090  136.9200 N   0  0  0  0  0  1  0  0  0  0  0  0
  186.9040  177.8530  137.4760 C   0  0  0  0  0  0  0  0  0  0  0  0
  191.8410  174.3410  136.4560 C   0  0  0  0  0  1  0  0  0  0  0  0
  186.7020  173.1620  137.5910 C   0  0  0  0  0  3  0  0  0  0  0  0
  1 33  1  0  0  0  0
  3 31  1  0  0  0  0
  4 10  1  0  0  0  0
  8  7  1  0  0  0  0
  9  1  1  0  0  0  0
  9 17  1  0  0  0  0
 10 22  1  0  0  0  0
 10  8  2  0  0  0  0
 11 29  1  0  0  0  0
 12 24  1  0  0  0  0
 14  7  1  0  0  0  0
 14 11  1  0  0  0  0
 16 22  1  0  0  0  0
 18  1  1  0  0  0  0
 18 12  2  0  0  0  0
 19 27  2  0  0  0  0
 20 19  1  0  0  0  0
 20  3  2  0  0  0  0
 21 32  1  1  0  0  0
 21 17  1  0  0  0  0
 21  2  1  0  0  0  0
 22 14  2  0  0  0  0
 23 28  1  0  0  0  0
 23 25  1  0  0  0  0
 25 29  1  0  0  0  0
 26 12  1  0  0  0  0
 26  8  1  0  0  0  0
 26 30  1  1  0  0  0
 27  2  1  0  0  0  0
 27 13  1  0  0  0  0
 28  5  2  0  0  0  0
 29 15  2  0  0  0  0
 29  6  2  0  0  0  0
 31 13  2  0  0  0  0
 31 28  1  0  0  0  0
 33 24  2  0  0  0  0
M  END
>  <MODEL>
1

>  <REMARK>
 VINA RESULT:      -5.2      0.000      0.000
  Name = 
  0 active torsions:
  status: ('A' for Active; 'I' for Inactive)
                            x       y       z     vdW  Elec       q    Type
                         _______ _______ _______ _____ _____    ______ ____

>  <TORSDO>
F 0

$$$$
=
 OpenBabel11062412333D

 33 36  0  0  1  0  0  0  0  0999 V2000
  185.1180  178.8040  141.9730 N   0  0  0  0  0  0  0  0  0  0  0  0
  180.9420  178.2020  141.7100 C   0  0  0  0  0  2  0  0  0  0  0  0
  182.9520  178.3900  137.9200 C   0  0  0  0  0  3  0  0  0  0  0  0
  189.1280  179.8080  137.5240 O   0  0  0  0  0  1  0  0  0  0  0  0
  183.4660  174.8750  138.6850 O   0  0  0  0  0  0  0  0  0  0  0  0
  186.3410  173.2510  135.2230 O   0  0  0  0  0  0  0  0  0  0  0  0
  187.1560  176.6240  138.4300 S   0  0  0  0  0  0  0  0  0  0  0  0
  187.9560  178.0690  138.7790 C   0  0  0  0  0  0  0  0  0  0  0  0
  183.8720  179.3790  142.2590 N   0  0  0  0  0  2  0  0  0  0  0  0
  188.4040  178.6230  137.5850 C   0  0  0  0  0  0  0  0  0  0  0  0
  186.9170  175.7560  135.7970 N   0  0  0  0  0  2  0  0  0  0  0  0
  187.0740  178.4550  141.0600 C   0  0  0  0  0  0  0  0  0  0  0  0
  182.2390  177.1320  139.8590 C   0  0  0  0  0  3  0  0  0  0  0  0
  187.3580  176.7180  136.7590 C   0  0  0  0  0  0  0  0  0  0  0  0
  186.2090  173.8940  137.5710 O   0  0  0  0  0  0  0  0  0  0  0  0
  188.4400  178.2660  135.0630 C   0  0  0  0  0  1  0  0  0  0  0  0
  182.9190  178.7490  143.1580 C   0  0  0  0  0  2  0  0  0  0  0  0
  186.0080  179.3250  141.1170 C   0  0  0  0  0  3  0  0  0  0  0  0
  181.7260  179.4920  139.6930 C   0  0  0  0  0  3  0  0  0  0  0  0
  182.3770  179.5450  138.4570 C   0  0  0  0  0  3  0  0  0  0  0  0
  181.5100  179.1530  142.7620 C   0  0  2  0  0  3  0  0  0  0  0  0
  188.0660  177.8720  136.4520 C   0  0  0  0  0  0  0  0  0  0  0  0
  183.8730  175.9490  136.6540 N   0  0  0  0  0  2  0  0  0  0  0  0
  186.8090  177.3680  141.8810 C   0  0  0  0  0  3  0  0  0  0  0  0
  184.2340  174.7330  135.9390 C   0  0  0  0  0  2  0  0  0  0  0  0
  188.2490  178.6090  140.1440 C   0  0  1  0  0  3  0  0  0  0  0  0
  181.6620  178.2860  140.4010 C   0  0  0  0  0  0  0  0  0  0  0  0
  183.4310  175.9430  138.0150 C   0  0  0  0  0  0  0  0  0  0  0  0
  185.9590  174.3570  136.1640 S   0  0  0  0  0  0  0  0  0  0  0  0
  189.4250  177.9570  140.6970 N   0  0  0  0  0  1  0  0  0  0  0  0
  182.8850  177.1740  138.6150 C   0  0  0  0  0  0  0  0  0  0  0  0
  180.6230  179.1130  143.9880 C   0  0  0  0  0  1  0  0  0  0  0  0
  185.5710  177.6270  142.4420 C   0  0  0  0  0  3  0  0  0  0  0  0
  1  9  1  0  0  0  0
  1 33  1  0  0  0  0
  2 21  1  0  0  0  0
  3 20  2  0  0  0  0
  3 31  1  0  0  0  0
  4 10  1  0  0  0  0
  6 29  2  0  0  0  0
  7  8  1  0  0  0  0
  8 26  1  0  0  0  0
  9 17  1  0  0  0  0
 10  8  2  0  0  0  0
 11 29  1  0  0  0  0
 11 14  1  0  0  0  0
 12 18  2  0  0  0  0
 12 24  1  0  0  0  0
 13 27  1  0  0  0  0
 14  7  1  0  0  0  0
 16 22  1  0  0  0  0
 18  1  1  0  0  0  0
 19 27  2  0  0  0  0
 20 19  1  0  0  0  0
 21 17  1  0  0  0  0
 21 32  1  1  0  0  0
 22 14  2  0  0  0  0
 22 10  1  0  0  0  0
 23 28  1  0  0  0  0
 24 33  2  0  0  0  0
 25 29  1  0  0  0  0
 25 23  1  0  0  0  0
 26 30  1  1  0  0  0
 26 12  1  0  0  0  0
 27  2  1  0  0  0  0
 28 31  1  0  0  0  0
 28  5  2  0  0  0  0
 29 15  2  0  0  0  0
 31 13  2  0  0  0  0
M  END
>  <MODEL>
2

>  <REMARK>
 VINA RESULT:      -4.5      3.283      7.677
  Name = 
  0 active torsions:
  status: ('A' for Active; 'I' for Inactive)
                            x       y       z     vdW  Elec       q    Type
                         _______ _______ _______ _____ _____    ______ ____

>  <TORSDO>
F 0

$$$$
=
 OpenBabel11062412333D

 33 36  0  0  1  0  0  0  0  0999 V2000
  187.5530  176.9650  137.2480 N   0  0  0  0  0  0  0  0  0  0  0  0
  188.4220  173.4640  135.0440 C   0  0  0  0  0  2  0  0  0  0  0  0
  184.9300  173.1790  137.5270 C   0  0  0  0  0  3  0  0  0  0  0  0
  183.3270  177.8490  141.5180 O   0  0  0  0  0  1  0  0  0  0  0  0
  183.4420  174.7240  134.5940 O   0  0  0  0  0  0  0  0  0  0  0  0
  178.9310  175.7030  135.8500 O   0  0  0  0  0  0  0  0  0  0  0  0
  182.9590  177.3180  137.7200 S   0  0  0  0  0  0  0  0  0  0  0  0
  183.7430  177.8660  139.1100 C   0  0  0  0  0  0  0  0  0  0  0  0
  188.5020  175.9500  137.0650 N   0  0  0  0  0  2  0  0  0  0  0  0
  182.9730  177.5200  140.2150 C   0  0  0  0  0  0  0  0  0  0  0  0
  180.5380  175.9600  137.9200 N   0  0  0  0  0  2  0  0  0  0  0  0
  186.0060  178.2090  138.1650 C   0  0  0  0  0  0  0  0  0  0  0  0
  185.9810  173.8290  135.4470 C   0  0  0  0  0  3  0  0  0  0  0  0
  181.6540  176.6190  138.5260 C   0  0  0  0  0  0  0  0  0  0  0  0
  181.1330  176.6540  135.4140 O   0  0  0  0  0  0  0  0  0  0  0  0
  180.8230  176.3420  140.9090 C   0  0  0  0  0  1  0  0  0  0  0  0
  189.1730  175.7400  135.7930 C   0  0  0  0  0  2  0  0  0  0  0  0
  186.8780  177.1660  138.3880 C   0  0  0  0  0  3  0  0  0  0  0  0
  187.3040  172.8290  137.2100 C   0  0  0  0  0  3  0  0  0  0  0  0
  186.1620  172.7330  138.0110 C   0  0  0  0  0  3  0  0  0  0  0  0
  189.5580  174.2770  135.6620 C   0  0  2  0  0  3  0  0  0  0  0  0
  181.8060  176.8160  139.8920 C   0  0  0  0  0  0  0  0  0  0  0  0
  182.3220  173.8100  136.4250 N   0  0  0  0  0  2  0  0  0  0  0  0
  186.1380  178.6280  136.8490 C   0  0  0  0  0  3  0  0  0  0  0  0
  180.9920  174.0000  135.8660 C   0  0  0  0  0  2  0  0  0  0  0  0
  184.9900  178.6940  139.1530 C   0  0  1  0  0  3  0  0  0  0  0  0
  187.2170  173.3840  135.9280 C   0  0  0  0  0  0  0  0  0  0  0  0
  183.5160  174.1340  135.7060 C   0  0  0  0  0  0  0  0  0  0  0  0
  180.3840  175.6340  136.2230 S   0  0  0  0  0  0  0  0  0  0  0  0
  184.6690  180.0930  138.9210 N   0  0  0  0  0  1  0  0  0  0  0  0
  184.8290  173.7280  136.2410 C   0  0  0  0  0  0  0  0  0  0  0  0
  190.7780  174.1670  134.7720 C   0  0  0  0  0  1  0  0  0  0  0  0
  187.1250  177.8250  136.3060 C   0  0  0  0  0  3  0  0  0  0  0  0
  1 18  1  0  0  0  0
  2 21  1  0  0  0  0
  2 27  1  0  0  0  0
  3 20  1  0  0  0  0
  5 28  2  0  0  0  0
  6 29  2  0  0  0  0
  7 14  1  0  0  0  0
  7  8  1  0  0  0  0
  8 26  1  0  0  0  0
  8 10  2  0  0  0  0
  9  1  1  0  0  0  0
 10  4  1  0  0  0  0
 11 14  1  0  0  0  0
 12 18  2  0  0  0  0
 12 26  1  0  0  0  0
 13 27  2  0  0  0  0
 13 31  1  0  0  0  0
 14 22  2  0  0  0  0
 15 29  2  0  0  0  0
 17  9  1  0  0  0  0
 19 20  2  0  0  0  0
 21 32  1  6  0  0  0
 21 17  1  0  0  0  0
 22 10  1  0  0  0  0
 22 16  1  0  0  0  0
 24 12  1  0  0  0  0
 25 29  1  0  0  0  0
 25 23  1  0  0  0  0
 26 30  1  6  0  0  0
 27 19  1  0  0  0  0
 28 31  1  0  0  0  0
 28 23  1  0  0  0  0
 29 11  1  0  0  0  0
 31  3  2  0  0  0  0
 33 24  2  0  0  0  0
 33  1  1  0  0  0  0
M  END
>  <MODEL>
3

>  <REMARK>
 VINA RESULT:      -4.2      1.817      5.003
  Name = 
  0 active torsions:
  status: ('A' for Active; 'I' for Inactive)
                            x       y       z     vdW  Elec       q    Type
                         _______ _______ _______ _____ _____    ______ ____

>  <TORSDO>
F 0

$$$$
=
 OpenBabel11062412333D

 33 36  0  0  1  0  0  0  0  0999 V2000
  180.8620  177.0970  137.3180 N   0  0  0  0  0  0  0  0  0  0  0  0
  181.3430  180.5690  139.6820 C   0  0  0  0  0  2  0  0  0  0  0  0
  184.4590  177.6510  140.1560 C   0  0  0  0  0  3  0  0  0  0  0  0
  184.1200  171.9720  137.3370 O   0  0  0  0  0  1  0  0  0  0  0  0
  185.7280  179.3980  137.2340 O   0  0  0  0  0  0  0  0  0  0  0  0
  189.5630  176.8940  135.8500 O   0  0  0  0  0  0  0  0  0  0  0  0
  185.0530  175.5140  136.1390 S   0  0  0  0  0  0  0  0  0  0  0  0
  183.9890  174.2330  136.4170 C   0  0  0  0  0  0  0  0  0  0  0  0
  180.2910  177.8480  138.3550 N   0  0  0  0  0  2  0  0  0  0  0  0
  184.6990  173.1910  137.0030 C   0  0  0  0  0  0  0  0  0  0  0  0
  187.7320  175.2910  136.8570 N   0  0  0  0  0  2  0  0  0  0  0  0
  181.8490  175.4660  136.2470 C   0  0  0  0  0  0  0  0  0  0  0  0
  183.4990  179.5240  138.9630 C   0  0  0  0  0  3  0  0  0  0  0  0
  186.4090  174.7510  136.7880 C   0  0  0  0  0  0  0  0  0  0  0  0
  187.2390  177.4310  135.3420 O   0  0  0  0  0  0  0  0  0  0  0  0
  187.0130  172.5170  137.8290 C   0  0  0  0  0  1  0  0  0  0  0  0
  179.8620  179.2240  138.1650 C   0  0  0  0  0  2  0  0  0  0  0  0
  181.3140  175.8430  137.4590 C   0  0  0  0  0  3  0  0  0  0  0  0
  182.3520  178.5970  140.8830 C   0  0  0  0  0  3  0  0  0  0  0  0
  183.3720  177.6540  141.0350 C   0  0  0  0  0  3  0  0  0  0  0  0
  179.9530  179.9660  139.4870 C   0  0  2  0  0  3  0  0  0  0  0  0
  186.0530  173.4800  137.2170 C   0  0  0  0  0  0  0  0  0  0  0  0
  186.8600  177.8300  138.5390 N   0  0  0  0  0  2  0  0  0  0  0  0
  181.7440  176.5300  135.3610 C   0  0  0  0  0  3  0  0  0  0  0  0
  188.1240  177.9670  137.8320 C   0  0  0  0  0  2  0  0  0  0  0  0
  182.5540  174.1690  135.9960 C   0  0  1  0  0  3  0  0  0  0  0  0
  182.4100  179.5310  139.8410 C   0  0  0  0  0  0  0  0  0  0  0  0
  185.7120  178.6280  138.2320 C   0  0  0  0  0  0  0  0  0  0  0  0
  188.1660  176.9070  136.4020 S   0  0  0  0  0  0  0  0  0  0  0  0
  182.4610  173.7920  134.5940 N   0  0  0  0  0  1  0  0  0  0  0  0
  184.5320  178.5880  139.1150 C   0  0  0  0  0  0  0  0  0  0  0  0
  178.9310  181.0830  139.4970 C   0  0  0  0  0  1  0  0  0  0  0  0
  181.1130  177.5360  136.0710 C   0  0  0  0  0  3  0  0  0  0  0  0
  1 18  1  0  0  0  0
  1  9  1  0  0  0  0
  2 27  1  0  0  0  0
  3 20  1  0  0  0  0
  5 28  2  0  0  0  0
  6 29  2  0  0  0  0
  7  8  1  0  0  0  0
  7 14  1  0  0  0  0
  8 10  2  0  0  0  0
 10 22  1  0  0  0  0
 10  4  1  0  0  0  0
 12 18  2  0  0  0  0
 13 31  1  0  0  0  0
 13 27  2  0  0  0  0
 14 11  1  0  0  0  0
 14 22  2  0  0  0  0
 15 29  2  0  0  0  0
 17  9  1  0  0  0  0
 17 21  1  0  0  0  0
 19 20  2  0  0  0  0
 21 32  1  6  0  0  0
 21  2  1  0  0  0  0
 22 16  1  0  0  0  0
 24 33  2  0  0  0  0
 24 12  1  0  0  0  0
 25 23  1  0  0  0  0
 26 30  1  6  0  0  0
 26 12  1  0  0  0  0
 26  8  1  0  0  0  0
 27 19  1  0  0  0  0
 28 23  1  0  0  0  0
 28 31  1  0  0  0  0
 29 11  1  0  0  0  0
 29 25  1  0  0  0  0
 31  3  2  0  0  0  0
 33  1  1  0  0  0  0
M  END
>  <MODEL>
4

>  <REMARK>
 VINA RESULT:      -3.9      2.689      6.841
  Name = 
  0 active torsions:
  status: ('A' for Active; 'I' for Inactive)
                            x       y       z     vdW  Elec       q    Type
                         _______ _______ _______ _____ _____    ______ ____

>  <TORSDO>
F 0

$$$$
=
 OpenBabel11062412333D

 33 36  0  0  1  0  0  0  0  0999 V2000
  190.0170  175.3090  136.6480 N   0  0  0  0  0  0  0  0  0  0  0  0
  188.9580  171.5310  135.0760 C   0  0  0  0  0  2  0  0  0  0  0  0
  186.0240  173.2490  137.6980 C   0  0  0  0  0  3  0  0  0  0  0  0
  187.1650  178.6430  140.8470 O   0  0  0  0  0  1  0  0  0  0  0  0
  185.0610  174.8730  134.5940 O   0  0  0  0  0  0  0  0  0  0  0  0
  181.6500  177.9950  135.8240 O   0  0  0  0  0  0  0  0  0  0  0  0
  186.1610  177.8100  137.2210 S   0  0  0  0  0  0  0  0  0  0  0  0
  187.2630  178.1240  138.4610 C   0  0  0  0  0  0  0  0  0  0  0  0
  190.3800  173.9560  136.6150 N   0  0  0  0  0  2  0  0  0  0  0  0
  186.5530  178.3330  139.6380 C   0  0  0  0  0  0  0  0  0  0  0  0
  183.4290  177.7690  137.7530 N   0  0  0  0  0  2  0  0  0  0  0  0
  189.3110  177.2430  137.3850 C   0  0  0  0  0  0  0  0  0  0  0  0
  187.0060  173.0370  135.4980 C   0  0  0  0  0  3  0  0  0  0  0  0
  184.7840  177.9160  138.1880 C   0  0  0  0  0  0  0  0  0  0  0  0
  183.9780  177.7470  135.1420 O   0  0  0  0  0  0  0  0  0  0  0  0
  184.1990  178.3950  140.6120 C   0  0  0  0  0  1  0  0  0  0  0  0
  190.7330  173.2820  135.3760 C   0  0  0  0  0  2  0  0  0  0  0  0
  189.6410  175.9590  137.7590 C   0  0  0  0  0  3  0  0  0  0  0  0
  187.9330  171.7990  137.3610 C   0  0  0  0  0  3  0  0  0  0  0  0
  186.9720  172.3570  138.2080 C   0  0  0  0  0  3  0  0  0  0  0  0
  190.4010  171.8050  135.4940 C   0  0  2  0  0  3  0  0  0  0  0  0
  185.1650  178.2120  139.4900 C   0  0  0  0  0  0  0  0  0  0  0  0
  183.8700  174.8510  136.6010 N   0  0  0  0  0  2  0  0  0  0  0  0
  189.4650  177.3630  136.0110 C   0  0  0  0  0  3  0  0  0  0  0  0
  182.7120  175.5530  136.0670 C   0  0  0  0  0  2  0  0  0  0  0  0
  188.7440  178.2780  138.3080 C   0  0  1  0  0  3  0  0  0  0  0  0
  187.9570  172.1430  136.0040 C   0  0  0  0  0  0  0  0  0  0  0  0
  184.9900  174.4800  135.7910 C   0  0  0  0  0  0  0  0  0  0  0  0
  182.9500  177.3150  136.1490 S   0  0  0  0  0  0  0  0  0  0  0  0
  189.0620  179.6180  137.8410 N   0  0  0  0  0  1  0  0  0  0  0  0
  186.0320  173.5940  136.3400 C   0  0  0  0  0  0  0  0  0  0  0  0
  191.3300  171.0170  134.5940 C   0  0  0  0  0  1  0  0  0  0  0  0
  189.9150  176.1260  135.5840 C   0  0  0  0  0  3  0  0  0  0  0  0
  1 18  1  0  0  0  0
  2 21  1  0  0  0  0
  2 27  1  0  0  0  0
  3 20  1  0  0  0  0
  5 28  2  0  0  0  0
  6 29  2  0  0  0  0
  7 14  1  0  0  0  0
  7  8  1  0  0  0  0
  8 10  2  0  0  0  0
  9  1  1  0  0  0  0
 10  4  1  0  0  0  0
 11 14  1  0  0  0  0
 12 18  2  0  0  0  0
 12 26  1  0  0  0  0
 13 27  2  0  0  0  0
 13 31  1  0  0  0  0
 14 22  2  0  0  0  0
 15 29  2  0  0  0  0
 17 21  1  0  0  0  0
 17  9  1  0  0  0  0
 19 20  2  0  0  0  0
 21 32  1  6  0  0  0
 22 10  1  0  0  0  0
 22 16  1  0  0  0  0
 24 12  1  0  0  0  0
 25 29  1  0  0  0  0
 25 23  1  0  0  0  0
 26 30  1  6  0  0  0
 26  8  1  0  0  0  0
 27 19  1  0  0  0  0
 28 31  1  0  0  0  0
 28 23  1  0  0  0  0
 29 11  1  0  0  0  0
 31  3  2  0  0  0  0
 33 24  2  0  0  0  0
 33  1  1  0  0  0  0
M  END
>  <MODEL>
5

>  <REMARK>
 VINA RESULT:      -3.8      2.232      5.368
  Name = 
  0 active torsions:
  status: ('A' for Active; 'I' for Inactive)
                            x       y       z     vdW  Elec       q    Type
                         _______ _______ _______ _____ _____    ______ ____

>  <TORSDO>
F 0

$$$$
=
 OpenBabel11062412333D

 33 36  0  0  1  0  0  0  0  0999 V2000
  183.8150  179.1450  139.4170 N   0  0  0  0  0  0  0  0  0  0  0  0
  179.8860  178.1780  138.1910 C   0  0  0  0  0  2  0  0  0  0  0  0
  182.9490  177.0250  135.4110 C   0  0  0  0  0  3  0  0  0  0  0  0
  189.0210  178.6340  136.3330 O   0  0  0  0  0  1  0  0  0  0  0  0
  183.0330  174.1350  137.6120 O   0  0  0  0  0  0  0  0  0  0  0  0
  186.7310  171.5100  136.0850 O   0  0  0  0  0  0  0  0  0  0  0  0
  186.7120  175.9170  137.7920 S   0  0  0  0  0  0  0  0  0  0  0  0
  187.4410  177.4390  137.7640 C   0  0  0  0  0  0  0  0  0  0  0  0
  182.5710  179.6910  139.0720 N   0  0  0  0  0  2  0  0  0  0  0  0
  188.2540  177.5160  136.6390 C   0  0  0  0  0  0  0  0  0  0  0  0
  187.2320  174.0770  135.7700 N   0  0  0  0  0  2  0  0  0  0  0  0
  185.9350  178.6150  139.3370 C   0  0  0  0  0  0  0  0  0  0  0  0
  181.6250  176.5720  137.3840 C   0  0  0  0  0  3  0  0  0  0  0  0
  187.4110  175.3670  136.3600 C   0  0  0  0  0  0  0  0  0  0  0  0
  185.9320  173.0050  137.8390 O   0  0  0  0  0  0  0  0  0  0  0  0
  189.0290  176.2080  134.5940 C   0  0  0  0  0  1  0  0  0  0  0  0
  181.3620  179.3920  139.8210 C   0  0  0  0  0  2  0  0  0  0  0  0
  184.9460  179.3560  138.7290 C   0  0  0  0  0  3  0  0  0  0  0  0
  181.3040  178.6350  136.1600 C   0  0  0  0  0  3  0  0  0  0  0  0
  182.2980  178.2510  135.2550 C   0  0  0  0  0  3  0  0  0  0  0  0
  180.1590  179.5030  138.9010 C   0  0  2  0  0  3  0  0  0  0  0  0
  188.2360  176.3600  135.8470 C   0  0  0  0  0  0  0  0  0  0  0  0
  184.0850  174.3600  135.5410 N   0  0  0  0  0  2  0  0  0  0  0  0
  185.3810  177.9170  140.4010 C   0  0  0  0  0  3  0  0  0  0  0  0
  184.5830  172.9920  135.5040 C   0  0  0  0  0  2  0  0  0  0  0  0
  187.3370  178.4880  138.8270 C   0  0  1  0  0  3  0  0  0  0  0  0
  180.9700  177.7990  137.2320 C   0  0  0  0  0  0  0  0  0  0  0  0
  183.2550  174.8520  136.5980 C   0  0  0  0  0  0  0  0  0  0  0  0
  186.1400  172.8640  136.3570 S   0  0  0  0  0  0  0  0  0  0  0  0
  188.2580  178.1930  139.9120 N   0  0  0  0  0  1  0  0  0  0  0  0
  182.6160  176.1740  136.4750 C   0  0  0  0  0  0  0  0  0  0  0  0
  178.9430  179.8770  139.7220 C   0  0  0  0  0  1  0  0  0  0  0  0
  184.0460  178.2810  140.4220 C   0  0  0  0  0  3  0  0  0  0  0  0
  1 33  1  0  0  0  0
  2 21  1  0  0  0  0
  3 31  1  0  0  0  0
  4 10  1  0  0  0  0
  6 29  2  0  0  0  0
  8  7  1  0  0  0  0
  8 26  1  0  0  0  0
  9  1  1  0  0  0  0
  9 17  1  0  0  0  0
 10  8  2  0  0  0  0
 11 29  1  0  0  0  0
 11 14  1  0  0  0  0
 12 24  1  0  0  0  0
 14  7  1  0  0  0  0
 16 22  1  0  0  0  0
 18 12  2  0  0  0  0
 18  1  1  0  0  0  0
 19 27  2  0  0  0  0
 20  3  2  0  0  0  0
 20 19  1  0  0  0  0
 21 32  1  1  0  0  0
 21 17  1  0  0  0  0
 22 14  2  0  0  0  0
 22 10  1  0  0  0  0
 23 28  1  0  0  0  0
 24 33  2  0  0  0  0
 25 23  1  0  0  0  0
 25 29  1  0  0  0  0
 26 12  1  0  0  0  0
 26 30  1  1  0  0  0
 27 13  1  0  0  0  0
 27  2  1  0  0  0  0
 28  5  2  0  0  0  0
 29 15  2  0  0  0  0
 31 28  1  0  0  0  0
 31 13  2  0  0  0  0
M  END
>  <MODEL>
6

>  <REMARK>
 VINA RESULT:      -3.6      2.739      7.579
  Name = 
  0 active torsions:
  status: ('A' for Active; 'I' for Inactive)
                            x       y       z     vdW  Elec       q    Type
                         _______ _______ _______ _____ _____    ______ ____

>  <TORSDO>
F 0

$$$$
=
 OpenBabel11062412333D

 33 36  0  0  1  0  0  0  0  0999 V2000
  179.2300  177.4500  137.2410 N   0  0  0  0  0  0  0  0  0  0  0  0
  181.1730  180.5880  139.3030 C   0  0  0  0  0  2  0  0  0  0  0  0
  183.1100  176.7700  139.6450 C   0  0  0  0  0  3  0  0  0  0  0  0
  180.4750  171.5070  137.2650 O   0  0  0  0  0  1  0  0  0  0  0  0
  184.5440  177.8780  136.4960 O   0  0  0  0  0  0  0  0  0  0  0  0
  187.0680  174.1440  134.8910 O   0  0  0  0  0  0  0  0  0  0  0  0
  182.4300  174.4570  135.7420 S   0  0  0  0  0  0  0  0  0  0  0  0
  181.0290  173.6420  136.2140 C   0  0  0  0  0  0  0  0  0  0  0  0
  179.0860  178.3820  138.2790 N   0  0  0  0  0  2  0  0  0  0  0  0
  181.3980  172.4320  136.7910 C   0  0  0  0  0  0  0  0  0  0  0  0
  184.9300  173.3190  136.1900 N   0  0  0  0  0  2  0  0  0  0  0  0
  179.4490  175.5480  136.1850 C   0  0  0  0  0  0  0  0  0  0  0  0
  182.7260  178.8300  138.4360 C   0  0  0  0  0  3  0  0  0  0  0  0
  183.5040  173.2810  136.2950 C   0  0  0  0  0  0  0  0  0  0  0  0
  185.0340  175.4540  134.5940 O   0  0  0  0  0  0  0  0  0  0  0  0
  183.4140  171.0050  137.4160 C   0  0  0  0  0  1  0  0  0  0  0  0
  179.1430  179.8150  138.0430 C   0  0  0  0  0  2  0  0  0  0  0  0
  179.2300  176.1220  137.4180 C   0  0  0  0  0  3  0  0  0  0  0  0
  181.5690  178.4190  140.5220 C   0  0  0  0  0  3  0  0  0  0  0  0
  182.2070  177.1800  140.6300 C   0  0  0  0  0  3  0  0  0  0  0  0
  179.6480  180.5110  139.2950 C   0  0  2  0  0  3  0  0  0  0  0  0
  182.7830  172.2290  136.8430 C   0  0  0  0  0  0  0  0  0  0  0  0
  185.2080  176.0450  137.7790 N   0  0  0  0  0  2  0  0  0  0  0  0
  179.6150  176.5570  135.2460 C   0  0  0  0  0  3  0  0  0  0  0  0
  186.3450  175.7080  136.9360 C   0  0  0  0  0  2  0  0  0  0  0  0
  179.6220  174.0790  135.9500 C   0  0  1  0  0  3  0  0  0  0  0  0
  181.8220  179.2450  139.4200 C   0  0  0  0  0  0  0  0  0  0  0  0
  184.3810  177.1890  137.5400 C   0  0  0  0  0  0  0  0  0  0  0  0
  185.8420  174.6650  135.5840 S   0  0  0  0  0  0  0  0  0  0  0  0
  179.2350  173.7230  134.5940 N   0  0  0  0  0  1  0  0  0  0  0  0
  183.3780  177.5930  138.5420 C   0  0  0  0  0  0  0  0  0  0  0  0
  179.0870  181.9170  139.3360 C   0  0  0  0  0  1  0  0  0  0  0  0
  179.4650  177.7390  135.9480 C   0  0  0  0  0  3  0  0  0  0  0  0
  1 18  1  0  0  0  0
  1  9  1  0  0  0  0
  2 27  1  0  0  0  0
  3 20  1  0  0  0  0
  5 28  2  0  0  0  0
  6 29  2  0  0  0  0
  7  8  1  0  0  0  0
  7 14  1  0  0  0  0
  8 10  2  0  0  0  0
 10 22  1  0  0  0  0
 10  4  1  0  0  0  0
 11 14  1  0  0  0  0
 12 18  2  0  0  0  0
 13 31  1  0  0  0  0
 13 27  2  0  0  0  0
 14 22  2  0  0  0  0
 15 29  2  0  0  0  0
 17  9  1  0  0  0  0
 17 21  1  0  0  0  0
 19 20  2  0  0  0  0
 21  2  1  0  0  0  0
 21 32  1  6  0  0  0
 22 16  1  0  0  0  0
 24 33  2  0  0  0  0
 24 12  1  0  0  0  0
 25 23  1  0  0  0  0
 26 30  1  6  0  0  0
 26 12  1  0  0  0  0
 26  8  1  0  0  0  0
 27 19  1  0  0  0  0
 28 23  1  0  0  0  0
 28 31  1  0  0  0  0
 29 11  1  0  0  0  0
 29 25  1  0  0  0  0
 31  3  2  0  0  0  0
 33  1  1  0  0  0  0
M  END
>  <MODEL>
7

>  <REMARK>
 VINA RESULT:      -3.5      3.133      7.273
  Name = 
  0 active torsions:
  status: ('A' for Active; 'I' for Inactive)
                            x       y       z     vdW  Elec       q    Type
                         _______ _______ _______ _____ _____    ______ ____

>  <TORSDO>
F 0

$$$$
=
 OpenBabel11062412333D

 33 36  0  0  1  0  0  0  0  0999 V2000
  186.5120  178.5400  142.1780 N   0  0  0  0  0  0  0  0  0  0  0  0
  182.3330  178.3860  142.7950 C   0  0  0  0  0  2  0  0  0  0  0  0
  183.5100  178.6770  138.6760 C   0  0  0  0  0  3  0  0  0  0  0  0
  189.5870  179.4930  137.0290 O   0  0  0  0  0  1  0  0  0  0  0  0
  183.7630  175.0780  139.1060 O   0  0  0  0  0  0  0  0  0  0  0  0
  185.6380  173.4590  135.0130 O   0  0  0  0  0  0  0  0  0  0  0  0
  187.4940  176.4610  138.1560 S   0  0  0  0  0  0  0  0  0  0  0  0
  188.5120  177.7850  138.4060 C   0  0  0  0  0  0  0  0  0  0  0  0
  185.4290  179.2120  142.7600 N   0  0  0  0  0  2  0  0  0  0  0  0
  188.7600  178.3860  137.1770 C   0  0  0  0  0  0  0  0  0  0  0  0
  186.6090  175.8380  135.5920 N   0  0  0  0  0  2  0  0  0  0  0  0
  188.1790  178.0710  140.8420 C   0  0  0  0  0  0  0  0  0  0  0  0
  183.0800  177.3440  140.6470 C   0  0  0  0  0  3  0  0  0  0  0  0
  187.3500  176.6700  136.4900 C   0  0  0  0  0  0  0  0  0  0  0  0
  186.0780  173.9190  137.3680 O   0  0  0  0  0  0  0  0  0  0  0  0
  188.2240  178.2330  134.6910 C   0  0  0  0  0  1  0  0  0  0  0  0
  184.6200  178.6100  143.8070 C   0  0  0  0  0  2  0  0  0  0  0  0
  187.2560  179.0360  141.1800 C   0  0  0  0  0  3  0  0  0  0  0  0
  182.8200  179.7490  140.7340 C   0  0  0  0  0  3  0  0  0  0  0  0
  183.1990  179.8370  139.3910 C   0  0  0  0  0  3  0  0  0  0  0  0
  183.2150  179.1860  143.7510 C   0  0  2  0  0  3  0  0  0  0  0  0
  188.1070  177.7680  136.1030 C   0  0  0  0  0  0  0  0  0  0  0  0
  183.8560  176.2670  137.1000 N   0  0  0  0  0  2  0  0  0  0  0  0
  187.9670  176.9530  141.6370 C   0  0  0  0  0  3  0  0  0  0  0  0
  183.9150  175.0830  136.2560 C   0  0  0  0  0  2  0  0  0  0  0  0
  189.1450  178.1790  139.7030 C   0  0  1  0  0  3  0  0  0  0  0  0
  182.7670  178.5020  141.3680 C   0  0  0  0  0  0  0  0  0  0  0  0
  183.7120  176.1950  138.5230 C   0  0  0  0  0  0  0  0  0  0  0  0
  185.5940  174.5180  136.0780 S   0  0  0  0  0  0  0  0  0  0  0  0
  190.3280  177.3690  139.9480 N   0  0  0  0  0  1  0  0  0  0  0  0
  183.4510  177.4220  139.2970 C   0  0  0  0  0  0  0  0  0  0  0  0
  182.6060  179.1360  145.1370 C   0  0  0  0  0  1  0  0  0  0  0  0
  186.9130  177.2880  142.4680 C   0  0  0  0  0  3  0  0  0  0  0  0
  1 33  1  0  0  0  0
  1  9  1  0  0  0  0
  2 21  1  0  0  0  0
  3 31  2  0  0  0  0
  3 20  1  0  0  0  0
  4 10  1  0  0  0  0
  6 29  2  0  0  0  0
  7  8  1  0  0  0  0
  8 26  1  0  0  0  0
  9 17  1  0  0  0  0
 10  8  2  0  0  0  0
 11 29  1  0  0  0  0
 11 14  1  0  0  0  0
 12 18  2  0  0  0  0
 12 24  1  0  0  0  0
 13 27  2  0  0  0  0
 14  7  1  0  0  0  0
 16 22  1  0  0  0  0
 18  1  1  0  0  0  0
 19 27  1  0  0  0  0
 20 19  2  0  0  0  0
 21 17  1  0  0  0  0
 21 32  1  1  0  0  0
 22 14  2  0  0  0  0
 22 10  1  0  0  0  0
 23 28  1  0  0  0  0
 24 33  2  0  0  0  0
 25 23  1  0  0  0  0
 26 30  1  1  0  0  0
 26 12  1  0  0  0  0
 27  2  1  0  0  0  0
 28  5  2  0  0  0  0
 28 31  1  0  0  0  0
 29 25  1  0  0  0  0
 29 15  2  0  0  0  0
 31 13  1  0  0  0  0
M  END
>  <MODEL>
8

>  <REMARK>
 VINA RESULT:      -3.0      3.359      7.469
  Name = 
  0 active torsions:
  status: ('A' for Active; 'I' for Inactive)
                            x       y       z     vdW  Elec       q    Type
                         _______ _______ _______ _____ _____    ______ ____

>  <TORSDO>
F 0

$$$$
=
 OpenBabel11062412333D

 33 36  0  0  1  0  0  0  0  0999 V2000
  188.9210  177.9860  139.9960 N   0  0  0  0  0  0  0  0  0  0  0  0
  184.9570  177.8170  138.5370 C   0  0  0  0  0  2  0  0  0  0  0  0
  187.9750  177.1040  135.5660 C   0  0  0  0  0  3  0  0  0  0  0  0
  194.1480  177.7320  136.9140 O   0  0  0  0  0  1  0  0  0  0  0  0
  187.6790  173.7460  136.9210 O   0  0  0  0  0  0  0  0  0  0  0  0
  191.1300  171.2230  134.7720 O   0  0  0  0  0  0  0  0  0  0  0  0
  191.5160  174.9990  137.5870 S   0  0  0  0  0  0  0  0  0  0  0  0
  192.4020  176.3840  137.9680 C   0  0  0  0  0  0  0  0  0  0  0  0
  187.7550  178.7380  139.8010 N   0  0  0  0  0  2  0  0  0  0  0  0
  193.2570  176.6640  136.9080 C   0  0  0  0  0  0  0  0  0  0  0  0
  191.9090  173.7100  135.1520 N   0  0  0  0  0  2  0  0  0  0  0  0
  190.9750  177.2640  139.7890 C   0  0  0  0  0  0  0  0  0  0  0  0
  186.5440  176.2970  137.3410 C   0  0  0  0  0  3  0  0  0  0  0  0
  192.2020  174.7720  136.0640 C   0  0  0  0  0  0  0  0  0  0  0  0
  190.4330  172.2820  136.8550 O   0  0  0  0  0  0  0  0  0  0  0  0
  193.9600  175.8640  134.5940 C   0  0  0  0  0  1  0  0  0  0  0  0
  186.4950  178.3870  140.4380 C   0  0  0  0  0  2  0  0  0  0  0  0
  190.0910  178.2440  139.3950 C   0  0  0  0  0  3  0  0  0  0  0  0
  186.4840  178.6330  136.7070 C   0  0  0  0  0  3  0  0  0  0  0  0
  187.4630  178.3930  135.7380 C   0  0  0  0  0  3  0  0  0  0  0  0
  185.3430  178.8700  139.5740 C   0  0  2  0  0  3  0  0  0  0  0  0
  193.1440  175.7670  135.8380 C   0  0  0  0  0  0  0  0  0  0  0  0
  188.8190  174.3900  134.9900 N   0  0  0  0  0  2  0  0  0  0  0  0
  190.3140  176.3760  140.6270 C   0  0  0  0  0  3  0  0  0  0  0  0
  189.1710  173.0350  134.5940 C   0  0  0  0  0  2  0  0  0  0  0  0
  192.3730  177.1210  139.2710 C   0  0  1  0  0  3  0  0  0  0  0  0
  186.0270  177.5860  137.5160 C   0  0  0  0  0  0  0  0  0  0  0  0
  188.0090  174.6750  136.1350 C   0  0  0  0  0  0  0  0  0  0  0  0
  190.6750  172.5140  135.3900 S   0  0  0  0  0  0  0  0  0  0  0  0
  193.2200  176.4510  140.2430 N   0  0  0  0  0  1  0  0  0  0  0  0
  187.5180  176.0460  136.3640 C   0  0  0  0  0  0  0  0  0  0  0  0
  184.1460  179.1470  140.4580 C   0  0  0  0  0  1  0  0  0  0  0  0
  189.0250  176.8670  140.7370 C   0  0  0  0  0  3  0  0  0  0  0  0
  1 33  1  0  0  0  0
  2 21  1  0  0  0  0
  3 20  2  0  0  0  0
  3 31  1  0  0  0  0
  6 29  2  0  0  0  0
  7  8  1  0  0  0  0
  8 26  1  0  0  0  0
  9  1  1  0  0  0  0
  9 17  1  0  0  0  0
 10  4  1  0  0  0  0
 10  8  2  0  0  0  0
 11 29  1  0  0  0  0
 11 14  1  0  0  0  0
 12 24  1  0  0  0  0
 13 27  1  0  0  0  0
 14  7  1  0  0  0  0
 16 22  1  0  0  0  0
 18 12  2  0  0  0  0
 18  1  1  0  0  0  0
 19 27  2  0  0  0  0
 20 19  1  0  0  0  0
 21 17  1  0  0  0  0
 21 32  1  1  0  0  0
 22 14  2  0  0  0  0
 22 10  1  0  0  0  0
 23 28  1  0  0  0  0
 24 33  2  0  0  0  0
 25 23  1  0  0  0  0
 25 29  1  0  0  0  0
 26 12  1  0  0  0  0
 26 30  1  1  0  0  0
 27  2  1  0  0  0  0
 28 31  1  0  0  0  0
 28  5  2  0  0  0  0
 29 15  2  0  0  0  0
 31 13  2  0  0  0  0
M  END
>  <MODEL>
9

>  <REMARK>
 VINA RESULT:      -2.6      4.403      8.525
  Name = 
  0 active torsions:
  status: ('A' for Active; 'I' for Inactive)
                            x       y       z     vdW  Elec       q    Type
                         _______ _______ _______ _____ _____    ______ ____

>  <TORSDO>
F 0

$$$$
