=
 OpenBabel11062416453D

 28 31  0  0  1  0  0  0  0  0999 V2000
  187.0330  178.3800  140.3610 C   0  0  0  0  0  0  0  0  0  0  0  0
  185.5380  178.7730  142.2020 C   0  0  0  0  0  3  0  0  0  0  0  0
  184.5960  179.1980  141.3210 N   0  0  0  0  0  0  0  0  0  0  0  0
  188.8710  177.0710  142.0360 N   0  0  0  0  0  2  0  0  0  0  0  0
  186.7780  178.3180  141.7440 C   0  0  0  0  0  0  0  0  0  0  0  0
  189.4100  177.8110  140.9010 C   0  0  0  0  0  2  0  0  0  0  0  0
  187.8720  177.9050  142.7050 C   0  0  1  0  0  3  0  0  0  0  0  0
  188.3530  177.9130  139.8040 C   0  0  2  0  0  3  0  0  0  0  0  0
  186.0530  178.7960  139.5150 N   0  0  0  0  0  0  0  0  0  0  0  0
  184.8450  179.2040  139.9860 C   0  0  0  0  0  3  0  0  0  0  0  0
  187.3040  177.1490  143.9090 C   0  0  0  0  0  2  0  0  0  0  0  0
  185.4500  178.4900  145.9040 C   0  0  0  0  0  1  0  0  0  0  0  0
  190.7050  176.9270  147.4920 N   0  0  0  0  0  1  0  0  0  0  0  0
  187.7560  177.7280  145.2540 C   0  0  2  0  0  3  0  0  0  0  0  0
  189.0390  177.0390  145.7280 C   0  0  0  0  0  2  0  0  0  0  0  0
  188.4200  177.4760  148.1050 C   0  0  0  0  0  2  0  0  0  0  0  0
  187.1680  178.2220  147.6580 C   0  0  0  0  0  2  0  0  0  0  0  0
  189.5110  177.6240  147.0530 C   0  0  1  0  0  3  0  0  0  0  0  0
  186.6550  177.6700  146.3300 C   0  0  1  0  0  3  0  0  0  0  0  0
  188.8190  178.8270  138.7710 N   0  0  0  0  0  2  0  0  0  0  0  0
  189.4650  178.0290  137.7400 C   0  0  0  0  0  2  0  0  0  0  0  0
  187.5080  178.2960  136.2160 C   0  0  0  0  0  3  0  0  0  0  0  0
  188.4400  177.4490  136.8200 C   0  0  0  0  0  0  0  0  0  0  0  0
  189.4980  174.9380  137.2990 Cl  0  0  0  0  0  0  0  0  0  0  0  0
  186.5530  177.7900  135.3910 N   0  0  0  0  0  0  0  0  0  0  0  0
  186.4710  176.4570  135.1320 C   0  0  0  0  0  3  0  0  0  0  0  0
  188.3680  176.0680  136.5700 C   0  0  0  0  0  0  0  0  0  0  0  0
  187.3770  175.5730  135.7190 C   0  0  0  0  0  3  0  0  0  0  0  0
  1  5  1  0  0  0  0
  3  2  1  0  0  0  0
  4  7  1  0  0  0  0
  5  2  2  0  0  0  0
  5  7  1  0  0  0  0
  6  4  1  0  0  0  0
  7 11  1  1  0  0  0
  8 20  1  6  0  0  0
  8  1  1  0  0  0  0
  8  6  1  0  0  0  0
  9 10  1  0  0  0  0
  9  1  2  0  0  0  0
 10  3  2  0  0  0  0
 14 11  1  6  0  0  0
 14 15  1  0  0  0  0
 14 19  1  0  0  0  0
 15 18  1  0  0  0  0
 17 16  1  0  0  0  0
 18 13  1  1  0  0  0
 18 16  1  0  0  0  0
 19 12  1  6  0  0  0
 19 17  1  0  0  0  0
 21 20  1  0  0  0  0
 22 23  1  0  0  0  0
 23 21  1  0  0  0  0
 25 22  2  0  0  0  0
 26 25  1  0  0  0  0
 26 28  2  0  0  0  0
 27 23  2  0  0  0  0
 27 24  1  0  0  0  0
 28 27  1  0  0  0  0
M  END
>  <MODEL>
1

>  <REMARK>
 VINA RESULT:      -8.9      0.000      0.000
  Name = 
  5 active torsions:
  status: ('A' for Active; 'I' for Inactive)
    1  A    between atoms: C_3  and  C_23
    2  A    between atoms: C_7  and  C_17
    3  A    between atoms: C_13  and  C_17
    4  A    between atoms: C_15  and  N_19
    5  A    between atoms: N_19  and  C_23
                            x       y       z     vdW  Elec       q    Type
                         _______ _______ _______ _____ _____    ______ ____

>  <TORSDO>
F 5

$$$$
=
 OpenBabel11062416453D

 28 31  0  0  1  0  0  0  0  0999 V2000
  184.4810  178.7140  142.4900 C   0  0  0  0  0  0  0  0  0  0  0  0
  184.3110  178.6180  144.8860 C   0  0  0  0  0  3  0  0  0  0  0  0
  182.9890  178.9110  144.7840 N   0  0  0  0  0  0  0  0  0  0  0  0
  187.0920  177.6770  142.5590 N   0  0  0  0  0  2  0  0  0  0  0  0
  185.0920  178.4770  143.7350 C   0  0  0  0  0  0  0  0  0  0  0  0
  186.7720  178.6130  141.4870 C   0  0  0  0  0  2  0  0  0  0  0  0
  186.5820  178.2200  143.8190 C   0  0  1  0  0  3  0  0  0  0  0  0
  185.2700  178.5860  141.2120 C   0  0  2  0  0  3  0  0  0  0  0  0
  183.1500  178.9870  142.4360 N   0  0  0  0  0  0  0  0  0  0  0  0
  182.4070  179.0880  143.5690 C   0  0  0  0  0  3  0  0  0  0  0  0
  186.9210  177.2570  144.9600 C   0  0  0  0  0  2  0  0  0  0  0  0
  186.9380  178.4270  147.7610 C   0  0  0  0  0  1  0  0  0  0  0  0
  191.7750  176.4560  145.4590 N   0  0  0  0  0  1  0  0  0  0  0  0
  188.1900  177.6490  145.7250 C   0  0  2  0  0  3  0  0  0  0  0  0
  189.3920  176.8530  145.2080 C   0  0  0  0  0  2  0  0  0  0  0  0
  190.4920  177.0270  147.4410 C   0  0  0  0  0  2  0  0  0  0  0  0
  189.3370  177.8750  147.9610 C   0  0  0  0  0  2  0  0  0  0  0  0
  190.6640  177.2530  145.9440 C   0  0  1  0  0  3  0  0  0  0  0  0
  188.0350  177.5110  147.2500 C   0  0  1  0  0  3  0  0  0  0  0  0
  184.9300  179.6660  140.2970 N   0  0  0  0  0  2  0  0  0  0  0  0
  184.4640  179.0600  139.0590 C   0  0  0  0  0  2  0  0  0  0  0  0
  182.4090  180.4100  138.6410 C   0  0  0  0  0  3  0  0  0  0  0  0
  182.9770  179.1740  138.9570 C   0  0  0  0  0  0  0  0  0  0  0  0
  182.7730  176.4940  139.6120 Cl  0  0  0  0  0  0  0  0  0  0  0  0
  181.0580  180.5450  138.5630 N   0  0  0  0  0  0  0  0  0  0  0  0
  180.2250  179.4940  138.7910 C   0  0  0  0  0  3  0  0  0  0  0  0
  182.1330  178.0770  139.2010 C   0  0  0  0  0  0  0  0  0  0  0  0
  180.7490  178.2420  139.1150 C   0  0  0  0  0  3  0  0  0  0  0  0
  1  5  1  0  0  0  0
  3  2  1  0  0  0  0
  4  7  1  0  0  0  0
  5  7  1  0  0  0  0
  5  2  2  0  0  0  0
  6  4  1  0  0  0  0
  7 11  1  1  0  0  0
  8 20  1  6  0  0  0
  8  6  1  0  0  0  0
  8  1  1  0  0  0  0
  9  1  2  0  0  0  0
  9 10  1  0  0  0  0
 10  3  2  0  0  0  0
 14 11  1  6  0  0  0
 14 19  1  0  0  0  0
 15 14  1  0  0  0  0
 15 18  1  0  0  0  0
 16 17  1  0  0  0  0
 18 13  1  6  0  0  0
 18 16  1  0  0  0  0
 19 12  1  1  0  0  0
 19 17  1  0  0  0  0
 21 20  1  0  0  0  0
 22 23  1  0  0  0  0
 23 21  1  0  0  0  0
 23 27  2  0  0  0  0
 25 22  2  0  0  0  0
 25 26  1  0  0  0  0
 26 28  2  0  0  0  0
 27 24  1  0  0  0  0
 28 27  1  0  0  0  0
M  END
>  <MODEL>
2

>  <REMARK>
 VINA RESULT:      -8.7      3.246      4.339
  Name = 
  5 active torsions:
  status: ('A' for Active; 'I' for Inactive)
    1  A    between atoms: C_3  and  C_23
    2  A    between atoms: C_7  and  C_17
    3  A    between atoms: C_13  and  C_17
    4  A    between atoms: C_15  and  N_19
    5  A    between atoms: N_19  and  C_23
                            x       y       z     vdW  Elec       q    Type
                         _______ _______ _______ _____ _____    ______ ____

>  <TORSDO>
F 5

$$$$
=
 OpenBabel11062416453D

 28 31  0  0  1  0  0  0  0  0999 V2000
  187.3430  178.1840  140.2720 C   0  0  0  0  0  0  0  0  0  0  0  0
  185.7460  178.8170  141.9550 C   0  0  0  0  0  3  0  0  0  0  0  0
  184.9090  179.2400  140.9730 N   0  0  0  0  0  0  0  0  0  0  0  0
  188.9420  176.8750  142.1760 N   0  0  0  0  0  2  0  0  0  0  0  0
  186.9790  178.2420  141.6300 C   0  0  0  0  0  0  0  0  0  0  0  0
  189.6210  177.4900  141.0410 C   0  0  0  0  0  2  0  0  0  0  0  0
  187.9620  177.8250  142.7030 C   0  0  1  0  0  3  0  0  0  0  0  0
  188.6610  177.5840  139.8570 C   0  0  2  0  0  3  0  0  0  0  0  0
  186.4640  178.6050  139.3230 N   0  0  0  0  0  0  0  0  0  0  0  0
  185.2580  179.1300  139.6650 C   0  0  0  0  0  3  0  0  0  0  0  0
  187.2480  177.2020  143.9060 C   0  0  0  0  0  2  0  0  0  0  0  0
  185.4340  178.5600  145.9260 C   0  0  0  0  0  1  0  0  0  0  0  0
  190.6800  176.9100  147.4530 N   0  0  0  0  0  1  0  0  0  0  0  0
  187.7220  177.7670  145.2490 C   0  0  2  0  0  3  0  0  0  0  0  0
  188.9990  177.0570  145.7060 C   0  0  0  0  0  2  0  0  0  0  0  0
  188.4100  177.4900  148.0920 C   0  0  0  0  0  2  0  0  0  0  0  0
  187.1650  178.2570  147.6620 C   0  0  0  0  0  2  0  0  0  0  0  0
  189.4940  177.6280  147.0290 C   0  0  1  0  0  3  0  0  0  0  0  0
  186.6310  177.7200  146.3350 C   0  0  1  0  0  3  0  0  0  0  0  0
  189.2720  178.3850  138.8060 N   0  0  0  0  0  2  0  0  0  0  0  0
  189.1310  177.6490  137.5580 C   0  0  0  0  0  2  0  0  0  0  0  0
  191.4380  176.7310  137.8010 C   0  0  0  0  0  3  0  0  0  0  0  0
  190.0880  176.5010  137.5250 C   0  0  0  0  0  0  0  0  0  0  0  0
  187.9930  174.8360  136.8260 Cl  0  0  0  0  0  0  0  0  0  0  0  0
  192.3310  175.7070  137.7570 N   0  0  0  0  0  0  0  0  0  0  0  0
  191.9460  174.4400  137.4430 C   0  0  0  0  0  3  0  0  0  0  0  0
  189.6710  175.2010  137.1930 C   0  0  0  0  0  0  0  0  0  0  0  0
  190.6090  174.1660  137.1550 C   0  0  0  0  0  3  0  0  0  0  0  0
  1  5  1  0  0  0  0
  3  2  1  0  0  0  0
  4  7  1  0  0  0  0
  5  2  2  0  0  0  0
  5  7  1  0  0  0  0
  6  4  1  0  0  0  0
  7 11  1  1  0  0  0
  8 20  1  6  0  0  0
  8  1  1  0  0  0  0
  8  6  1  0  0  0  0
  9 10  1  0  0  0  0
  9  1  2  0  0  0  0
 10  3  2  0  0  0  0
 14 11  1  6  0  0  0
 14 15  1  0  0  0  0
 14 19  1  0  0  0  0
 15 18  1  0  0  0  0
 17 16  1  0  0  0  0
 18 13  1  1  0  0  0
 18 16  1  0  0  0  0
 19 12  1  6  0  0  0
 19 17  1  0  0  0  0
 21 20  1  0  0  0  0
 23 21  1  0  0  0  0
 23 22  2  0  0  0  0
 24 27  1  0  0  0  0
 25 22  1  0  0  0  0
 26 25  2  0  0  0  0
 27 23  1  0  0  0  0
 28 27  2  0  0  0  0
 28 26  1  0  0  0  0
M  END
>  <MODEL>
3

>  <REMARK>
 VINA RESULT:      -8.7      1.514      2.149
  Name = 
  5 active torsions:
  status: ('A' for Active; 'I' for Inactive)
    1  A    between atoms: C_3  and  C_23
    2  A    between atoms: C_7  and  C_17
    3  A    between atoms: C_13  and  C_17
    4  A    between atoms: C_15  and  N_19
    5  A    between atoms: N_19  and  C_23
                            x       y       z     vdW  Elec       q    Type
                         _______ _______ _______ _____ _____    ______ ____

>  <TORSDO>
F 5

$$$$
=
 OpenBabel11062416453D

 28 31  0  0  1  0  0  0  0  0999 V2000
  184.4090  178.6620  142.4450 C   0  0  0  0  0  0  0  0  0  0  0  0
  184.2300  178.5770  144.8410 C   0  0  0  0  0  3  0  0  0  0  0  0
  182.9050  178.8540  144.7320 N   0  0  0  0  0  0  0  0  0  0  0  0
  187.0320  177.6560  142.5300 N   0  0  0  0  0  2  0  0  0  0  0  0
  185.0180  178.4390  143.6940 C   0  0  0  0  0  0  0  0  0  0  0  0
  186.7060  178.5820  141.4520 C   0  0  0  0  0  2  0  0  0  0  0  0
  186.5100  178.2000  143.7850 C   0  0  1  0  0  3  0  0  0  0  0  0
  185.2050  178.5360  141.1710 C   0  0  2  0  0  3  0  0  0  0  0  0
  183.0750  178.9200  142.3850 N   0  0  0  0  0  0  0  0  0  0  0  0
  182.3270  179.0170  143.5140 C   0  0  0  0  0  3  0  0  0  0  0  0
  186.8560  177.2470  144.9330 C   0  0  0  0  0  2  0  0  0  0  0  0
  186.8920  178.4050  147.7390 C   0  0  0  0  0  1  0  0  0  0  0  0
  191.7210  176.4820  145.3790 N   0  0  0  0  0  1  0  0  0  0  0  0
  188.1290  177.6460  145.6860 C   0  0  2  0  0  3  0  0  0  0  0  0
  189.3320  176.8610  145.1540 C   0  0  0  0  0  2  0  0  0  0  0  0
  190.4530  177.0340  147.3760 C   0  0  0  0  0  2  0  0  0  0  0  0
  189.2970  177.8710  147.9120 C   0  0  0  0  0  2  0  0  0  0  0  0
  190.6090  177.2680  145.8790 C   0  0  1  0  0  3  0  0  0  0  0  0
  187.9910  177.4990  147.2130 C   0  0  1  0  0  3  0  0  0  0  0  0
  184.8560  179.6070  140.2490 N   0  0  0  0  0  2  0  0  0  0  0  0
  184.6260  179.0030  138.9450 C   0  0  0  0  0  2  0  0  0  0  0  0
  183.0710  177.0540  138.9770 C   0  0  0  0  0  3  0  0  0  0  0  0
  183.2460  178.4360  138.8750 C   0  0  0  0  0  0  0  0  0  0  0  0
  182.2600  180.9980  138.5330 Cl  0  0  0  0  0  0  0  0  0  0  0  0
  181.8260  176.5120  138.8950 N   0  0  0  0  0  0  0  0  0  0  0  0
  180.7240  177.2870  138.7100 C   0  0  0  0  0  3  0  0  0  0  0  0
  182.1200  179.2530  138.6780 C   0  0  0  0  0  0  0  0  0  0  0  0
  180.8520  178.6720  138.5980 C   0  0  0  0  0  3  0  0  0  0  0  0
  1  5  1  0  0  0  0
  3  2  1  0  0  0  0
  4  7  1  0  0  0  0
  5  7  1  0  0  0  0
  5  2  2  0  0  0  0
  6  4  1  0  0  0  0
  7 11  1  1  0  0  0
  8 20  1  6  0  0  0
  8  6  1  0  0  0  0
  8  1  1  0  0  0  0
  9  1  2  0  0  0  0
  9 10  1  0  0  0  0
 10  3  2  0  0  0  0
 14 11  1  6  0  0  0
 14 19  1  0  0  0  0
 15 14  1  0  0  0  0
 15 18  1  0  0  0  0
 16 17  1  0  0  0  0
 18 13  1  6  0  0  0
 18 16  1  0  0  0  0
 19 12  1  1  0  0  0
 19 17  1  0  0  0  0
 21 20  1  0  0  0  0
 23 21  1  0  0  0  0
 23 22  2  0  0  0  0
 24 27  1  0  0  0  0
 25 22  1  0  0  0  0
 26 25  2  0  0  0  0
 27 23  1  0  0  0  0
 28 27  2  0  0  0  0
 28 26  1  0  0  0  0
M  END
>  <MODEL>
4

>  <REMARK>
 VINA RESULT:      -8.5      3.403      4.334
  Name = 
  5 active torsions:
  status: ('A' for Active; 'I' for Inactive)
    1  A    between atoms: C_3  and  C_23
    2  A    between atoms: C_7  and  C_17
    3  A    between atoms: C_13  and  C_17
    4  A    between atoms: C_15  and  N_19
    5  A    between atoms: N_19  and  C_23
                            x       y       z     vdW  Elec       q    Type
                         _______ _______ _______ _____ _____    ______ ____

>  <TORSDO>
F 5

$$$$
=
 OpenBabel11062416453D

 28 31  0  0  1  0  0  0  0  0999 V2000
  184.4400  178.7220  142.3280 C   0  0  0  0  0  0  0  0  0  0  0  0
  184.2200  178.6280  144.7210 C   0  0  0  0  0  3  0  0  0  0  0  0
  182.8990  178.9160  144.5910 N   0  0  0  0  0  0  0  0  0  0  0  0
  187.0530  177.6960  142.4530 N   0  0  0  0  0  2  0  0  0  0  0  0
  185.0260  178.4890  143.5870 C   0  0  0  0  0  0  0  0  0  0  0  0
  186.7520  178.6290  141.3730 C   0  0  0  0  0  2  0  0  0  0  0  0
  186.5140  178.2380  143.7020 C   0  0  1  0  0  3  0  0  0  0  0  0
  185.2550  178.5970  141.0680 C   0  0  2  0  0  3  0  0  0  0  0  0
  183.1090  178.9910  142.2470 N   0  0  0  0  0  0  0  0  0  0  0  0
  182.3420  179.0890  143.3640 C   0  0  0  0  0  3  0  0  0  0  0  0
  186.8330  177.2770  144.8500 C   0  0  0  0  0  2  0  0  0  0  0  0
  186.8450  178.4330  147.6570 C   0  0  0  0  0  1  0  0  0  0  0  0
  191.6800  176.4460  145.3660 N   0  0  0  0  0  1  0  0  0  0  0  0
  188.1010  177.6580  145.6220 C   0  0  2  0  0  3  0  0  0  0  0  0
  189.3010  176.8580  145.1060 C   0  0  0  0  0  2  0  0  0  0  0  0
  190.3920  177.0140  147.3440 C   0  0  0  0  0  2  0  0  0  0  0  0
  189.2400  177.8660  147.8650 C   0  0  0  0  0  2  0  0  0  0  0  0
  190.5720  177.2470  145.8500 C   0  0  1  0  0  3  0  0  0  0  0  0
  187.9390  177.5130  147.1460 C   0  0  1  0  0  3  0  0  0  0  0  0
  184.9300  179.6750  140.1450 N   0  0  0  0  0  2  0  0  0  0  0  0
  184.0140  179.1370  139.1500 C   0  0  0  0  0  2  0  0  0  0  0  0
  185.9780  178.3580  137.8250 C   0  0  0  0  0  3  0  0  0  0  0  0
  184.7000  178.0970  138.3260 C   0  0  0  0  0  0  0  0  0  0  0  0
  182.4740  176.4780  138.5980 Cl  0  0  0  0  0  0  0  0  0  0  0  0
  186.6150  177.4360  137.0540 N   0  0  0  0  0  0  0  0  0  0  0  0
  186.0350  176.2450  136.7450 C   0  0  0  0  0  3  0  0  0  0  0  0
  184.0820  176.8750  138.0130 C   0  0  0  0  0  0  0  0  0  0  0  0
  184.7570  175.9450  137.2190 C   0  0  0  0  0  3  0  0  0  0  0  0
  1  5  1  0  0  0  0
  3  2  1  0  0  0  0
  4  7  1  0  0  0  0
  5  7  1  0  0  0  0
  5  2  2  0  0  0  0
  6  4  1  0  0  0  0
  7 11  1  1  0  0  0
  8 20  1  6  0  0  0
  8  6  1  0  0  0  0
  8  1  1  0  0  0  0
  9  1  2  0  0  0  0
  9 10  1  0  0  0  0
 10  3  2  0  0  0  0
 14 11  1  6  0  0  0
 14 19  1  0  0  0  0
 15 14  1  0  0  0  0
 15 18  1  0  0  0  0
 16 17  1  0  0  0  0
 18 13  1  6  0  0  0
 18 16  1  0  0  0  0
 19 12  1  1  0  0  0
 19 17  1  0  0  0  0
 21 20  1  0  0  0  0
 22 23  1  0  0  0  0
 23 21  1  0  0  0  0
 25 22  2  0  0  0  0
 26 25  1  0  0  0  0
 26 28  2  0  0  0  0
 27 23  2  0  0  0  0
 27 24  1  0  0  0  0
 28 27  1  0  0  0  0
M  END
>  <MODEL>
5

>  <REMARK>
 VINA RESULT:      -8.3      2.278      3.206
  Name = 
  5 active torsions:
  status: ('A' for Active; 'I' for Inactive)
    1  A    between atoms: C_3  and  C_23
    2  A    between atoms: C_7  and  C_17
    3  A    between atoms: C_13  and  C_17
    4  A    between atoms: C_15  and  N_19
    5  A    between atoms: N_19  and  C_23
                            x       y       z     vdW  Elec       q    Type
                         _______ _______ _______ _____ _____    ______ ____

>  <TORSDO>
F 5

$$$$
=
 OpenBabel11062416453D

 28 31  0  0  1  0  0  0  0  0999 V2000
  187.8950  178.0980  141.3780 C   0  0  0  0  0  0  0  0  0  0  0  0
  187.3360  178.0890  139.0390 C   0  0  0  0  0  3  0  0  0  0  0  0
  186.1280  178.6270  139.3460 N   0  0  0  0  0  0  0  0  0  0  0  0
  190.5630  177.4150  140.8200 N   0  0  0  0  0  2  0  0  0  0  0  0
  188.2720  177.8380  140.0470 C   0  0  0  0  0  0  0  0  0  0  0  0
  189.9950  176.9260  142.0710 C   0  0  0  0  0  2  0  0  0  0  0  0
  189.5990  177.1750  139.7450 C   0  0  1  0  0  3  0  0  0  0  0  0
  188.8540  177.8410  142.5110 C   0  0  2  0  0  3  0  0  0  0  0  0
  186.6800  178.6530  141.6350 N   0  0  0  0  0  0  0  0  0  0  0  0
  185.8010  178.9160  140.6320 C   0  0  0  0  0  3  0  0  0  0  0  0
  190.1840  177.6700  138.4190 C   0  0  0  0  0  2  0  0  0  0  0  0
  192.9370  176.4200  138.1510 C   0  0  0  0  0  1  0  0  0  0  0  0
  188.3940  173.8440  135.8480 N   0  0  0  0  0  1  0  0  0  0  0  0
  190.5260  176.5340  137.4480 C   0  0  2  0  0  3  0  0  0  0  0  0
  189.2700  175.7280  137.1060 C   0  0  0  0  0  2  0  0  0  0  0  0
  190.6600  173.6940  136.7090 C   0  0  0  0  0  2  0  0  0  0  0  0
  191.9310  174.4900  136.9820 C   0  0  0  0  0  2  0  0  0  0  0  0
  189.5940  174.6110  136.1220 C   0  0  1  0  0  3  0  0  0  0  0  0
  191.6560  175.6260  137.9660 C   0  0  1  0  0  3  0  0  0  0  0  0
  188.1580  177.2350  143.6360 N   0  0  0  0  0  2  0  0  0  0  0  0
  189.1630  176.8570  144.6190 C   0  0  0  0  0  2  0  0  0  0  0  0
  187.4560  177.7970  146.1760 C   0  0  0  0  0  3  0  0  0  0  0  0
  188.7550  177.3230  145.9790 C   0  0  0  0  0  0  0  0  0  0  0  0
  191.3050  176.7540  146.8880 Cl  0  0  0  0  0  0  0  0  0  0  0  0
  187.0670  178.2460  147.3990 N   0  0  0  0  0  0  0  0  0  0  0  0
  187.9210  178.2530  148.4580 C   0  0  0  0  0  3  0  0  0  0  0  0
  189.6530  177.3260  147.0590 C   0  0  0  0  0  0  0  0  0  0  0  0
  189.2290  177.7930  148.3060 C   0  0  0  0  0  3  0  0  0  0  0  0
  1  9  1  0  0  0  0
  1  8  1  0  0  0  0
  2  3  2  0  0  0  0
  2  5  1  0  0  0  0
  3 10  1  0  0  0  0
  4  6  1  0  0  0  0
  5  1  2  0  0  0  0
  6  8  1  0  0  0  0
  7 11  1  6  0  0  0
  7  5  1  0  0  0  0
  7  4  1  0  0  0  0
  8 20  1  1  0  0  0
 10  9  2  0  0  0  0
 14 19  1  0  0  0  0
 14 11  1  1  0  0  0
 15 14  1  0  0  0  0
 16 17  1  0  0  0  0
 17 19  1  0  0  0  0
 18 13  1  1  0  0  0
 18 16  1  0  0  0  0
 18 15  1  0  0  0  0
 19 12  1  6  0  0  0
 20 21  1  0  0  0  0
 21 23  1  0  0  0  0
 22 25  1  0  0  0  0
 23 22  2  0  0  0  0
 23 27  1  0  0  0  0
 24 27  1  0  0  0  0
 25 26  2  0  0  0  0
 27 28  2  0  0  0  0
 28 26  1  0  0  0  0
M  END
>  <MODEL>
6

>  <REMARK>
 VINA RESULT:      -7.9      2.804      8.470
  Name = 
  5 active torsions:
  status: ('A' for Active; 'I' for Inactive)
    1  A    between atoms: C_3  and  C_23
    2  A    between atoms: C_7  and  C_17
    3  A    between atoms: C_13  and  C_17
    4  A    between atoms: C_15  and  N_19
    5  A    between atoms: N_19  and  C_23
                            x       y       z     vdW  Elec       q    Type
                         _______ _______ _______ _____ _____    ______ ____

>  <TORSDO>
F 5

$$$$
=
 OpenBabel11062416453D

 28 31  0  0  1  0  0  0  0  0999 V2000
  187.1920  178.4250  140.6250 C   0  0  0  0  0  0  0  0  0  0  0  0
  189.4110  177.5010  140.5730 C   0  0  0  0  0  3  0  0  0  0  0  0
  189.4120  177.6320  139.2210 N   0  0  0  0  0  0  0  0  0  0  0  0
  187.2580  178.6210  143.4270 N   0  0  0  0  0  2  0  0  0  0  0  0
  188.3100  177.9270  141.3210 C   0  0  0  0  0  0  0  0  0  0  0  0
  185.9640  178.3650  142.8050 C   0  0  0  0  0  2  0  0  0  0  0  0
  188.2510  177.7310  142.8210 C   0  0  1  0  0  3  0  0  0  0  0  0
  185.9700  178.8930  141.3710 C   0  0  2  0  0  3  0  0  0  0  0  0
  187.2460  178.5530  139.2720 N   0  0  0  0  0  0  0  0  0  0  0  0
  188.3420  178.1600  138.5720 C   0  0  0  0  0  3  0  0  0  0  0  0
  189.6150  177.9750  143.4720 C   0  0  0  0  0  2  0  0  0  0  0  0
  191.7300  175.8290  143.8390 C   0  0  0  0  0  1  0  0  0  0  0  0
  188.9990  177.9550  148.3780 N   0  0  0  0  0  1  0  0  0  0  0  0
  189.8190  177.1760  144.7630 C   0  0  2  0  0  3  0  0  0  0  0  0
  189.2940  177.9640  145.9670 C   0  0  0  0  0  2  0  0  0  0  0  0
  190.9390  176.8230  147.4560 C   0  0  0  0  0  2  0  0  0  0  0  0
  191.4370  175.9800  146.2870 C   0  0  0  0  0  2  0  0  0  0  0  0
  189.4690  177.1680  147.2540 C   0  0  1  0  0  3  0  0  0  0  0  0
  191.2800  176.7370  144.9700 C   0  0  1  0  0  3  0  0  0  0  0  0
  184.7610  178.4490  140.6920 N   0  0  0  0  0  2  0  0  0  0  0  0
  183.8720  177.8940  141.7020 C   0  0  0  0  0  2  0  0  0  0  0  0
  181.9490  178.8270  140.4150 C   0  0  0  0  0  3  0  0  0  0  0  0
  182.5450  178.5800  141.6550 C   0  0  0  0  0  0  0  0  0  0  0  0
  182.5850  178.7460  144.4150 Cl  0  0  0  0  0  0  0  0  0  0  0  0
  180.7530  179.4690  140.3450 N   0  0  0  0  0  0  0  0  0  0  0  0
  180.1050  179.8910  141.4650 C   0  0  0  0  0  3  0  0  0  0  0  0
  181.8950  179.0120  142.8230 C   0  0  0  0  0  0  0  0  0  0  0  0
  180.6660  179.6700  142.7230 C   0  0  0  0  0  3  0  0  0  0  0  0
  1  5  1  0  0  0  0
  1  8  1  0  0  0  0
  2  5  2  0  0  0  0
  3  2  1  0  0  0  0
  5  7  1  0  0  0  0
  6  4  1  0  0  0  0
  7  4  1  0  0  0  0
  7 11  1  1  0  0  0
  8 20  1  6  0  0  0
  8  6  1  0  0  0  0
  9  1  2  0  0  0  0
 10  3  2  0  0  0  0
 10  9  1  0  0  0  0
 14 11  1  6  0  0  0
 14 19  1  0  0  0  0
 14 15  1  0  0  0  0
 15 18  1  0  0  0  0
 17 16  1  0  0  0  0
 18 16  1  0  0  0  0
 18 13  1  1  0  0  0
 19 12  1  6  0  0  0
 19 17  1  0  0  0  0
 20 21  1  0  0  0  0
 22 23  1  0  0  0  0
 23 21  1  0  0  0  0
 23 27  2  0  0  0  0
 25 22  2  0  0  0  0
 25 26  1  0  0  0  0
 26 28  2  0  0  0  0
 27 24  1  0  0  0  0
 28 27  1  0  0  0  0
M  END
>  <MODEL>
7

>  <REMARK>
 VINA RESULT:      -7.9      3.099      5.567
  Name = 
  5 active torsions:
  status: ('A' for Active; 'I' for Inactive)
    1  A    between atoms: C_3  and  C_23
    2  A    between atoms: C_7  and  C_17
    3  A    between atoms: C_13  and  C_17
    4  A    between atoms: C_15  and  N_19
    5  A    between atoms: N_19  and  C_23
                            x       y       z     vdW  Elec       q    Type
                         _______ _______ _______ _____ _____    ______ ____

>  <TORSDO>
F 5

$$$$
=
 OpenBabel11062416453D

 28 31  0  0  1  0  0  0  0  0999 V2000
  188.3360  177.8450  139.7660 C   0  0  0  0  0  0  0  0  0  0  0  0
  188.4230  176.9660  137.5300 C   0  0  0  0  0  3  0  0  0  0  0  0
  187.2120  177.5300  137.2830 N   0  0  0  0  0  0  0  0  0  0  0  0
  191.0080  177.1150  140.2380 N   0  0  0  0  0  2  0  0  0  0  0  0
  189.0380  177.1360  138.7740 C   0  0  0  0  0  0  0  0  0  0  0  0
  190.0970  177.0900  141.3770 C   0  0  0  0  0  2  0  0  0  0  0  0
  190.3530  176.4620  139.1030 C   0  0  1  0  0  3  0  0  0  0  0  0
  188.9390  178.0560  141.1310 C   0  0  2  0  0  3  0  0  0  0  0  0
  187.1340  178.4070  139.4660 N   0  0  0  0  0  0  0  0  0  0  0  0
  186.5730  178.2520  138.2380 C   0  0  0  0  0  3  0  0  0  0  0  0
  191.3010  176.4660  137.9000 C   0  0  0  0  0  2  0  0  0  0  0  0
  190.5460  173.8270  136.6030 C   0  0  0  0  0  1  0  0  0  0  0  0
  195.9820  174.8770  137.9910 N   0  0  0  0  0  1  0  0  0  0  0  0
  192.2150  175.2370  137.8480 C   0  0  2  0  0  3  0  0  0  0  0  0
  193.6830  175.6590  137.9540 C   0  0  0  0  0  2  0  0  0  0  0  0
  194.3750  173.6500  136.6460 C   0  0  0  0  0  2  0  0  0  0  0  0
  192.9280  173.1740  136.5810 C   0  0  0  0  0  2  0  0  0  0  0  0
  194.6000  174.4430  137.9280 C   0  0  1  0  0  3  0  0  0  0  0  0
  191.9680  174.3610  136.6060 C   0  0  1  0  0  3  0  0  0  0  0  0
  187.9310  177.8710  142.1650 N   0  0  0  0  0  2  0  0  0  0  0  0
  188.3940  176.8030  143.0390 C   0  0  0  0  0  2  0  0  0  0  0  0
  186.8290  177.5010  144.8520 C   0  0  0  0  0  3  0  0  0  0  0  0
  188.1260  177.1530  144.4670 C   0  0  0  0  0  0  0  0  0  0  0  0
  190.8080  176.7580  145.0170 Cl  0  0  0  0  0  0  0  0  0  0  0  0
  186.5650  177.8440  146.1410 N   0  0  0  0  0  0  0  0  0  0  0  0
  187.5430  177.8640  147.0860 C   0  0  0  0  0  3  0  0  0  0  0  0
  189.1520  177.1740  145.4270 C   0  0  0  0  0  0  0  0  0  0  0  0
  188.8540  177.5300  146.7450 C   0  0  0  0  0  3  0  0  0  0  0  0
  1  8  1  0  0  0  0
  2  5  1  0  0  0  0
  3  2  2  0  0  0  0
  3 10  1  0  0  0  0
  4  6  1  0  0  0  0
  5  7  1  0  0  0  0
  5  1  2  0  0  0  0
  7 11  1  6  0  0  0
  7  4  1  0  0  0  0
  8  6  1  0  0  0  0
  8 20  1  1  0  0  0
  9  1  1  0  0  0  0
 10  9  2  0  0  0  0
 14 11  1  6  0  0  0
 14 15  1  0  0  0  0
 16 18  1  0  0  0  0
 17 19  1  0  0  0  0
 17 16  1  0  0  0  0
 18 15  1  0  0  0  0
 18 13  1  6  0  0  0
 19 12  1  1  0  0  0
 19 14  1  0  0  0  0
 20 21  1  0  0  0  0
 21 23  1  0  0  0  0
 22 25  1  0  0  0  0
 23 22  2  0  0  0  0
 23 27  1  0  0  0  0
 24 27  1  0  0  0  0
 25 26  2  0  0  0  0
 27 28  2  0  0  0  0
 28 26  1  0  0  0  0
M  END
>  <MODEL>
8

>  <REMARK>
 VINA RESULT:      -7.8      3.618      8.280
  Name = 
  5 active torsions:
  status: ('A' for Active; 'I' for Inactive)
    1  A    between atoms: C_3  and  C_23
    2  A    between atoms: C_7  and  C_17
    3  A    between atoms: C_13  and  C_17
    4  A    between atoms: C_15  and  N_19
    5  A    between atoms: N_19  and  C_23
                            x       y       z     vdW  Elec       q    Type
                         _______ _______ _______ _____ _____    ______ ____

>  <TORSDO>
F 5

$$$$
=
 OpenBabel11062416453D

 28 31  0  0  1  0  0  0  0  0999 V2000
  188.7260  177.5010  140.1600 C   0  0  0  0  0  0  0  0  0  0  0  0
  186.7630  178.4770  141.1470 C   0  0  0  0  0  3  0  0  0  0  0  0
  186.2510  178.6560  139.9020 N   0  0  0  0  0  0  0  0  0  0  0  0
  189.6730  176.6780  142.6750 N   0  0  0  0  0  2  0  0  0  0  0  0
  188.0060  177.8610  141.3150 C   0  0  0  0  0  0  0  0  0  0  0  0
  190.6680  177.0290  141.6680 C   0  0  0  0  0  2  0  0  0  0  0  0
  188.6340  177.7100  142.6840 C   0  0  1  0  0  3  0  0  0  0  0  0
  190.0760  176.8410  140.2720 C   0  0  2  0  0  3  0  0  0  0  0  0
  188.1650  177.6850  138.9350 N   0  0  0  0  0  0  0  0  0  0  0  0
  186.9400  178.2580  138.8020 C   0  0  0  0  0  3  0  0  0  0  0  0
  187.5870  177.3660  143.7460 C   0  0  0  0  0  2  0  0  0  0  0  0
  185.6440  178.6770  145.6740 C   0  0  0  0  0  1  0  0  0  0  0  0
  190.7150  176.8380  147.5390 N   0  0  0  0  0  1  0  0  0  0  0  0
  187.9620  177.8600  145.1480 C   0  0  2  0  0  3  0  0  0  0  0  0
  189.1840  177.1010  145.6720 C   0  0  0  0  0  2  0  0  0  0  0  0
  188.4130  177.4440  148.0210 C   0  0  0  0  0  2  0  0  0  0  0  0
  187.2220  178.2580  147.5280 C   0  0  0  0  0  2  0  0  0  0  0  0
  189.5810  177.6020  147.0550 C   0  0  1  0  0  3  0  0  0  0  0  0
  186.7860  177.7920  146.1400 C   0  0  1  0  0  3  0  0  0  0  0  0
  190.9920  177.3910  139.2840 N   0  0  0  0  0  2  0  0  0  0  0  0
  191.8130  176.2940  138.7910 C   0  0  0  0  0  2  0  0  0  0  0  0
  190.1050  175.4290  137.1930 C   0  0  0  0  0  3  0  0  0  0  0  0
  191.3950  175.9200  137.4060 C   0  0  0  0  0  0  0  0  0  0  0  0
  193.9170  176.6160  136.5080 Cl  0  0  0  0  0  0  0  0  0  0  0  0
  189.7080  175.0620  135.9450 N   0  0  0  0  0  0  0  0  0  0  0  0
  190.5450  175.1540  134.8770 C   0  0  0  0  0  3  0  0  0  0  0  0
  192.2770  176.0180  136.3170 C   0  0  0  0  0  0  0  0  0  0  0  0
  191.8450  175.6330  135.0450 C   0  0  0  0  0  3  0  0  0  0  0  0
  1  8  1  0  0  0  0
  1  5  1  0  0  0  0
  2  5  2  0  0  0  0
  3  2  1  0  0  0  0
  4  7  1  0  0  0  0
  5  7  1  0  0  0  0
  6  4  1  0  0  0  0
  7 11  1  1  0  0  0
  8 20  1  6  0  0  0
  8  6  1  0  0  0  0
  9  1  2  0  0  0  0
 10  9  1  0  0  0  0
 10  3  2  0  0  0  0
 14 11  1  6  0  0  0
 14 15  1  0  0  0  0
 14 19  1  0  0  0  0
 15 18  1  0  0  0  0
 17 16  1  0  0  0  0
 18 13  1  1  0  0  0
 18 16  1  0  0  0  0
 19 12  1  6  0  0  0
 19 17  1  0  0  0  0
 21 20  1  0  0  0  0
 22 23  1  0  0  0  0
 23 21  1  0  0  0  0
 25 22  2  0  0  0  0
 26 28  2  0  0  0  0
 26 25  1  0  0  0  0
 27 24  1  0  0  0  0
 27 23  2  0  0  0  0
 28 27  1  0  0  0  0
M  END
>  <MODEL>
9

>  <REMARK>
 VINA RESULT:      -7.7      2.074      2.495
  Name = 
  5 active torsions:
  status: ('A' for Active; 'I' for Inactive)
    1  A    between atoms: C_3  and  C_23
    2  A    between atoms: C_7  and  C_17
    3  A    between atoms: C_13  and  C_17
    4  A    between atoms: C_15  and  N_19
    5  A    between atoms: N_19  and  C_23
                            x       y       z     vdW  Elec       q    Type
                         _______ _______ _______ _____ _____    ______ ____

>  <TORSDO>
F 5

$$$$
