=
 OpenBabel11062413563D

 61 65  0  0  1  0  0  0  0  0999 V2000
  181.3050  177.0160  139.1480 C   0  0  0  0  0  0  0  0  0  0  0  0
  181.0510  177.8340  140.0810 O   0  0  0  0  0  0  0  0  0  0  0  0
  183.4540  178.2370  138.5420 C   0  0  2  0  0  3  0  0  0  0  0  0
  184.5410  176.4590  137.2940 C   0  0  1  0  0  3  0  0  0  0  0  0
  182.6120  177.0250  138.5380 N   0  0  0  0  0  0  0  0  0  0  0  0
  184.4480  177.9930  137.3750 C   0  0  0  0  0  2  0  0  0  0  0  0
  183.1780  175.9930  137.7310 C   0  0  0  0  0  2  0  0  0  0  0  0
  179.6300  174.8910  139.5130 C   0  0  0  0  0  0  0  0  0  0  0  0
  179.3990  175.2610  136.3880 C   0  0  0  0  0  2  0  0  0  0  0  0
  180.4770  172.9170  138.1210 C   0  0  0  0  0  3  0  0  0  0  0  0
  180.6630  174.4810  136.2830 N   0  0  0  0  0  2  0  0  0  0  0  0
  180.1670  176.1210  138.6720 C   0  0  1  0  0  3  0  0  0  0  0  0
  180.8400  173.1940  136.8580 C   0  0  0  0  0  0  0  0  0  0  0  0
  179.3560  176.3600  137.3810 C   0  0  1  0  0  3  0  0  0  0  0  0
  179.8100  173.6370  139.1740 C   0  0  0  0  0  3  0  0  0  0  0  0
  182.4100  171.3330  136.7790 O   0  0  0  0  0  1  0  0  0  0  0  0
  181.1990  171.8610  134.9140 O   0  0  0  0  0  0  0  0  0  0  0  0
  181.4470  172.1250  136.1100 C   0  0  0  0  0  0  0  0  0  0  0  0
  180.5900  177.8990  135.6540 C   0  0  0  0  0  0  0  0  0  0  0  0
  181.3400  177.0210  135.2410 O   0  0  0  0  0  0  0  0  0  0  0  0
  179.5950  177.6760  136.6510 N   0  0  0  0  0  2  0  0  0  0  0  0
  180.7040  179.3320  135.1140 C   0  0  0  0  0  2  0  0  0  0  0  0
  179.9520  180.4730  135.7680 N   0  0  0  0  0  0  0  0  0  0  0  0
  178.9370  180.9380  134.8130 C   0  0  0  0  0  1  0  0  0  0  0  0
  180.7380  181.6580  136.1110 C   0  0  0  0  0  2  0  0  0  0  0  0
  180.5590  182.8480  135.1460 C   0  0  0  0  0  2  0  0  0  0  0  0
  180.2780  184.2710  137.1480 C   0  0  0  0  0  0  0  0  0  0  0  0
  180.5940  185.4310  137.8760 N   0  0  0  0  0  1  0  0  0  0  0  0
  179.2680  183.4200  137.6210 N   0  0  0  0  0  1  0  0  0  0  0  0
  180.7430  184.0940  135.9200 N   0  0  0  0  0  0  0  0  0  0  0  0
  179.2610  174.2350  141.9100 C   0  0  0  0  0  1  0  0  0  0  0  0
  179.0550  175.1240  140.8110 O   0  0  0  0  0  0  0  0  0  0  0  0
  184.3570  177.1880  140.6050 F   0  0  0  0  0  0  0  0  0  0  0  0
  185.5450  178.6700  139.5150 F   0  0  0  0  0  0  0  0  0  0  0  0
  183.7600  179.3340  140.6340 F   0  0  0  0  0  0  0  0  0  0  0  0
  184.2580  178.3640  139.8370 C   0  0  0  0  0  0  0  0  0  0  0  0
  184.9420  175.8820  135.9400 C   0  0  0  0  0  2  0  0  0  0  0  0
  186.2220  176.3420  135.2720 C   0  0  1  0  0  3  0  0  0  0  0  0
  186.2230  177.6340  134.7730 O   0  0  0  0  0  1  0  0  0  0  0  0
  188.0020  173.7730  136.9640 C   0  0  0  0  0  1  0  0  0  0  0  0
  189.6660  176.5070  137.0750 C   0  0  1  0  0  3  0  0  0  0  0  0
  187.4470  176.1840  136.2340 C   0  0  2  0  0  0  0  0  0  0  0  0
  187.2850  176.4810  137.7410 C   0  0  0  0  0  3  0  0  0  0  0  0
  188.8570  176.0910  135.8490 C   0  0  2  0  0  3  0  0  0  0  0  0
  187.8140  174.3380  134.5950 O   0  0  0  0  0  1  0  0  0  0  0  0
  188.6530  176.7940  138.2740 C   0  0  0  0  0  3  0  0  0  0  0  0
  188.0050  174.8040  135.8660 C   0  0  1  0  0  0  0  0  0  0  0  0
  190.9620  175.6350  137.2530 C   0  0  1  0  0  3  0  0  0  0  0  0
  191.9930  176.2230  136.4470 C   0  0  0  0  0  3  0  0  0  0  0  0
  191.5370  176.2350  135.0190 C   0  0  0  0  0  2  0  0  0  0  0  0
  192.5360  175.1960  135.4190 C   0  0  0  0  0  2  0  0  0  0  0  0
  191.5060  175.4330  138.6940 C   0  0  0  0  0  2  0  0  0  0  0  0
  193.2930  177.2750  138.9150 O   0  0  0  0  0  1  0  0  0  0  0  0
  192.0200  176.8770  139.3180 C   0  0  2  0  0  3  0  0  0  0  0  0
  191.6120  177.5650  140.6800 C   0  0  0  0  0  2  0  0  0  0  0  0
  190.6320  176.8230  141.6130 N   0  0  0  0  0  0  0  0  0  0  0  0
  190.8120  177.1810  142.9690 C   0  0  0  0  0  3  0  0  0  0  0  0
  191.6710  178.4310  143.1220 C   0  0  0  0  0  1  0  0  0  0  0  0
  191.5070  175.9550  143.7740 C   0  0  0  0  0  1  0  0  0  0  0  0
  188.9630  178.3370  141.4050 O   0  0  0  0  0  1  0  0  0  0  0  0
  189.3030  177.0220  141.2210 N   0  0  0  0  0  2  0  0  0  0  0  0
  1  2  2  0  0  0  0
  3 36  1  1  0  0  0
  4 37  1  6  0  0  0
  4  6  1  0  0  0  0
  4  7  1  0  0  0  0
  5  3  1  0  0  0  0
  5  1  1  0  0  0  0
  6  3  1  0  0  0  0
  7  5  1  0  0  0  0
  8 32  1  0  0  0  0
  9 14  1  0  0  0  0
 10 15  1  0  0  0  0
 11  9  1  0  0  0  0
 11 13  1  0  0  0  0
 12  1  1  1  0  0  0
 12  8  1  0  0  0  0
 13 10  2  0  0  0  0
 14 21  1  6  0  0  0
 14 12  1  0  0  0  0
 15  8  2  0  0  0  0
 17 18  2  0  0  0  0
 18 16  1  0  0  0  0
 18 13  1  0  0  0  0
 19 21  1  0  0  0  0
 20 19  2  0  0  0  0
 22 19  1  0  0  0  0
 22 23  1  0  0  0  0
 23 25  1  0  0  0  0
 24 23  1  0  0  0  0
 26 30  1  0  0  0  0
 26 25  1  0  0  0  0
 27 29  1  0  0  0  0
 27 28  1  0  0  0  0
 30 27  2  0  0  0  0
 32 31  1  0  0  0  0
 34 36  1  0  0  0  0
 36 33  1  0  0  0  0
 36 35  1  0  0  0  0
 38 39  1  1  0  0  0
 38 37  1  0  0  0  0
 41 48  1  1  0  0  0
 41 46  1  0  0  0  0
 42 38  1  6  0  0  0
 42 43  1  0  0  0  0
 43 46  2  0  0  0  0
 44 47  1  0  0  0  0
 44 42  1  0  0  0  0
 44 41  1  0  0  0  0
 45 47  1  0  0  0  0
 47 42  1  0  0  0  0
 47 40  1  0  0  0  0
 48 52  1  0  0  0  0
 49 48  1  0  0  0  0
 50 51  1  0  0  0  0
 50 49  1  0  0  0  0
 51 49  1  0  0  0  0
 52 54  1  0  0  0  0
 53 54  1  0  0  0  0
 54 55  1  0  0  0  0
 55 56  1  0  0  0  0
 56 57  1  0  0  0  0
 57 58  1  0  0  0  0
 57 59  1  0  0  0  0
 61 60  1  0  0  0  0
 61 56  1  0  0  0  0
M  END
>  <MODEL>
1

>  <REMARK>
 VINA RESULT:      -4.8      0.000      0.000
  Name = 
  21 active torsions:
  status: ('A' for Active; 'I' for Inactive)
    1  A    between atoms: N_1  and  C_32
    2  A    between atoms: N_1  and  C_60
    3  A    between atoms: C_4  and  O_44
    4  A    between atoms: C_7  and  C_47
    5  A    between atoms: C_8  and  N_28
    6  A    between atoms: C_11  and  C_45
    7  A    between atoms: C_18  and  C_20
    8  A    between atoms: C_18  and  C_21
    9  A    between atoms: C_19  and  C_60
   10  A    between atoms: C_21  and  C_24
   11  A    between atoms: C_23  and  C_54
   12  A    between atoms: N_28  and  N_43
   13  A    between atoms: N_28  and  C_53
   14  A    between atoms: C_31  and  C_47
   15  A    between atoms: C_32  and  C_36
   16  A    between atoms: N_34  and  C_52
   17  A    between atoms: C_36  and  N_61
   18  A    between atoms: C_39  and  C_40
   19  A    between atoms: C_39  and  C_53
   20  A    between atoms: C_40  and  C_47
   21  A    between atoms: CA_49  and  C_50
                            x       y       z     vdW  Elec       q    Type
                         _______ _______ _______ _____ _____    ______ ____

>  <TORSDO>
F 21

$$$$
=
 OpenBabel11062413563D

 61 65  0  0  1  0  0  0  0  0999 V2000
  180.8580  178.0420  138.2260 C   0  0  0  0  0  0  0  0  0  0  0  0
  179.7530  178.6580  138.1660 O   0  0  0  0  0  0  0  0  0  0  0  0
  181.5930  179.3770  140.2630 C   0  0  2  0  0  3  0  0  0  0  0  0
  183.3410  177.8900  141.0590 C   0  0  1  0  0  3  0  0  0  0  0  0
  181.6820  178.1820  139.4010 N   0  0  0  0  0  0  0  0  0  0  0  0
  182.9460  179.3780  141.0240 C   0  0  0  0  0  2  0  0  0  0  0  0
  182.7640  177.3350  139.7840 C   0  0  0  0  0  2  0  0  0  0  0  0
  180.2640  176.7670  135.8860 C   0  0  0  0  0  0  0  0  0  0  0  0
  183.0630  175.4660  136.5430 C   0  0  0  0  0  2  0  0  0  0  0  0
  180.2170  174.2420  136.3050 C   0  0  0  0  0  3  0  0  0  0  0  0
  182.3290  174.5390  137.4470 N   0  0  0  0  0  2  0  0  0  0  0  0
  181.2860  177.2490  136.9970 C   0  0  1  0  0  3  0  0  0  0  0  0
  181.2310  173.7420  137.0280 C   0  0  0  0  0  0  0  0  0  0  0  0
  182.7500  176.9110  136.6470 C   0  0  1  0  0  3  0  0  0  0  0  0
  179.9240  175.5140  135.6970 C   0  0  0  0  0  3  0  0  0  0  0  0
  182.3550  171.6190  137.4400 O   0  0  0  0  0  0  0  0  0  0  0  0
  180.0810  171.7430  137.6380 O   0  0  0  0  0  1  0  0  0  0  0  0
  181.1440  172.3510  137.3890 C   0  0  0  0  0  0  0  0  0  0  0  0
  185.2020  177.7090  137.1220 C   0  0  0  0  0  0  0  0  0  0  0  0
  185.6500  177.3340  136.0430 O   0  0  0  0  0  0  0  0  0  0  0  0
  183.8310  177.5760  137.4900 N   0  0  0  0  0  2  0  0  0  0  0  0
  186.1310  178.3420  138.1690 C   0  0  0  0  0  2  0  0  0  0  0  0
  187.6090  178.5210  137.8910 N   0  0  0  0  0  0  0  0  0  0  0  0
  187.7390  179.0790  136.5380 C   0  0  0  0  0  1  0  0  0  0  0  0
  188.4230  177.3060  137.8940 C   0  0  0  0  0  2  0  0  0  0  0  0
  189.6710  177.3690  136.9890 C   0  0  0  0  0  2  0  0  0  0  0  0
  190.6380  175.1210  137.3430 C   0  0  0  0  0  0  0  0  0  0  0  0
  191.6890  174.2980  137.7810 N   0  0  0  0  0  1  0  0  0  0  0  0
  189.4340  174.5300  136.9300 N   0  0  0  0  0  1  0  0  0  0  0  0
  190.6760  176.4310  137.5330 N   0  0  0  0  0  0  0  0  0  0  0  0
  180.1020  178.9850  134.7170 C   0  0  0  0  0  1  0  0  0  0  0  0
  179.5250  177.7470  135.1370 O   0  0  0  0  0  0  0  0  0  0  0  0
  179.8660  177.9820  141.3780 F   0  0  0  0  0  0  0  0  0  0  0  0
  180.9880  179.4690  142.5290 F   0  0  0  0  0  0  0  0  0  0  0  0
  179.4870  180.1550  141.0610 F   0  0  0  0  0  0  0  0  0  0  0  0
  180.4660  179.2520  141.2910 C   0  0  0  0  0  0  0  0  0  0  0  0
  184.8320  177.5950  141.1950 C   0  0  0  0  0  2  0  0  0  0  0  0
  185.7560  178.6350  141.7950 C   0  0  1  0  0  3  0  0  0  0  0  0
  185.3770  179.9580  141.6380 O   0  0  0  0  0  1  0  0  0  0  0  0
  186.9390  176.0460  143.9230 C   0  0  0  0  0  1  0  0  0  0  0  0
  186.7140  178.7870  145.5630 C   0  0  1  0  0  3  0  0  0  0  0  0
  185.9880  178.3660  143.3200 C   0  0  2  0  0  0  0  0  0  0  0  0
  184.7960  177.9850  144.2250 C   0  0  0  0  0  3  0  0  0  0  0  0
  187.1660  178.7410  144.1060 C   0  0  2  0  0  3  0  0  0  0  0  0
  188.0790  177.4660  142.2950 O   0  0  0  0  0  1  0  0  0  0  0  0
  185.1830  178.3400  145.6310 C   0  0  0  0  0  3  0  0  0  0  0  0
  187.1850  177.4070  143.3290 C   0  0  1  0  0  0  0  0  0  0  0  0
  187.8050  178.2160  146.5400 C   0  0  1  0  0  3  0  0  0  0  0  0
  187.3470  178.4450  147.8810 C   0  0  0  0  0  3  0  0  0  0  0  0
  188.5390  178.5420  148.7850 C   0  0  0  0  0  2  0  0  0  0  0  0
  187.7540  177.2680  148.8070 C   0  0  0  0  0  2  0  0  0  0  0  0
  188.1970  176.7190  146.3930 C   0  0  0  0  0  2  0  0  0  0  0  0
  190.4460  176.0950  147.4820 O   0  0  0  0  0  1  0  0  0  0  0  0
  189.8440  176.5650  146.3180 C   0  0  2  0  0  3  0  0  0  0  0  0
  190.8700  177.3730  145.4300 C   0  0  0  0  0  2  0  0  0  0  0  0
  190.9580  177.0440  143.9250 N   0  0  0  0  0  0  0  0  0  0  0  0
  191.7150  178.0030  143.2130 C   0  0  0  0  0  3  0  0  0  0  0  0
  191.3140  179.4290  143.5710 C   0  0  0  0  0  1  0  0  0  0  0  0
  191.5240  177.7790  141.6170 C   0  0  0  0  0  1  0  0  0  0  0  0
  190.5090  174.9810  143.1110 O   0  0  0  0  0  1  0  0  0  0  0  0
  191.4650  175.7560  143.7130 N   0  0  0  0  0  2  0  0  0  0  0  0
  1  5  1  0  0  0  0
  2  1  2  0  0  0  0
  3  6  1  0  0  0  0
  3 36  1  1  0  0  0
  4 37  1  6  0  0  0
  5  7  1  0  0  0  0
  5  3  1  0  0  0  0
  6  4  1  0  0  0  0
  7  4  1  0  0  0  0
  8 12  1  0  0  0  0
  9 14  1  0  0  0  0
  9 11  1  0  0  0  0
 10 13  2  0  0  0  0
 12  1  1  6  0  0  0
 13 18  1  0  0  0  0
 13 11  1  0  0  0  0
 14 12  1  0  0  0  0
 14 21  1  1  0  0  0
 15  8  2  0  0  0  0
 15 10  1  0  0  0  0
 18 16  2  0  0  0  0
 18 17  1  0  0  0  0
 19 21  1  0  0  0  0
 19 22  1  0  0  0  0
 20 19  2  0  0  0  0
 23 25  1  0  0  0  0
 23 22  1  0  0  0  0
 24 23  1  0  0  0  0
 26 30  1  0  0  0  0
 26 25  1  0  0  0  0
 27 30  2  0  0  0  0
 27 28  1  0  0  0  0
 29 27  1  0  0  0  0
 31 32  1  0  0  0  0
 32  8  1  0  0  0  0
 35 36  1  0  0  0  0
 36 33  1  0  0  0  0
 36 34  1  0  0  0  0
 37 38  1  0  0  0  0
 38 39  1  1  0  0  0
 41 46  1  0  0  0  0
 41 48  1  1  0  0  0
 42 38  1  6  0  0  0
 42 47  1  0  0  0  0
 42 44  1  0  0  0  0
 42 43  1  0  0  0  0
 43 46  2  0  0  0  0
 44 41  1  0  0  0  0
 45 47  1  0  0  0  0
 47 40  1  0  0  0  0
 47 44  1  0  0  0  0
 48 49  1  0  0  0  0
 49 50  1  0  0  0  0
 49 51  1  0  0  0  0
 50 51  1  0  0  0  0
 52 48  1  0  0  0  0
 54 52  1  0  0  0  0
 54 53  1  0  0  0  0
 55 54  1  0  0  0  0
 56 55  1  0  0  0  0
 57 58  1  0  0  0  0
 57 56  1  0  0  0  0
 59 57  1  0  0  0  0
 60 61  1  0  0  0  0
 61 56  1  0  0  0  0
M  END
>  <MODEL>
2

>  <REMARK>
 VINA RESULT:      -4.5      3.217      7.225
  Name = 
  21 active torsions:
  status: ('A' for Active; 'I' for Inactive)
    1  A    between atoms: N_1  and  C_32
    2  A    between atoms: N_1  and  C_60
    3  A    between atoms: C_4  and  O_44
    4  A    between atoms: C_7  and  C_47
    5  A    between atoms: C_8  and  N_28
    6  A    between atoms: C_11  and  C_45
    7  A    between atoms: C_18  and  C_20
    8  A    between atoms: C_18  and  C_21
    9  A    between atoms: C_19  and  C_60
   10  A    between atoms: C_21  and  C_24
   11  A    between atoms: C_23  and  C_54
   12  A    between atoms: N_28  and  N_43
   13  A    between atoms: N_28  and  C_53
   14  A    between atoms: C_31  and  C_47
   15  A    between atoms: C_32  and  C_36
   16  A    between atoms: N_34  and  C_52
   17  A    between atoms: C_36  and  N_61
   18  A    between atoms: C_39  and  C_40
   19  A    between atoms: C_39  and  C_53
   20  A    between atoms: C_40  and  C_47
   21  A    between atoms: CA_49  and  C_50
                            x       y       z     vdW  Elec       q    Type
                         _______ _______ _______ _____ _____    ______ ____

>  <TORSDO>
F 21

$$$$
=
 OpenBabel11062413563D

 61 65  0  0  1  0  0  0  0  0999 V2000
  180.7770  175.7490  137.8580 C   0  0  0  0  0  0  0  0  0  0  0  0
  179.5940  175.6840  138.3050 O   0  0  0  0  0  0  0  0  0  0  0  0
  181.1390  178.0400  138.9040 C   0  0  2  0  0  3  0  0  0  0  0  0
  183.5670  178.0780  138.8620 C   0  0  1  0  0  3  0  0  0  0  0  0
  181.6620  176.7750  138.3520 N   0  0  0  0  0  0  0  0  0  0  0  0
  182.3450  179.0110  138.7930 C   0  0  0  0  0  2  0  0  0  0  0  0
  183.0830  176.8030  138.2230 C   0  0  0  0  0  2  0  0  0  0  0  0
  181.4690  173.2440  137.0220 C   0  0  0  0  0  0  0  0  0  0  0  0
  182.5250  174.9620  134.5950 C   0  0  0  0  0  2  0  0  0  0  0  0
  184.0010  173.1610  136.6540 C   0  0  0  0  0  3  0  0  0  0  0  0
  183.7410  175.2220  135.4130 N   0  0  0  0  0  2  0  0  0  0  0  0
  181.1640  174.7750  136.7520 C   0  0  1  0  0  3  0  0  0  0  0  0
  184.5370  174.1950  135.9850 C   0  0  0  0  0  0  0  0  0  0  0  0
  181.2090  175.1360  135.2530 C   0  0  1  0  0  3  0  0  0  0  0  0
  182.6630  172.7090  136.9350 C   0  0  0  0  0  3  0  0  0  0  0  0
  186.5370  174.2590  134.5940 O   0  0  0  0  0  0  0  0  0  0  0  0
  186.7520  174.2190  136.8690 O   0  0  0  0  0  1  0  0  0  0  0  0
  185.9730  174.2310  135.8920 C   0  0  0  0  0  0  0  0  0  0  0  0
  181.3370  177.7410  134.9830 C   0  0  0  0  0  0  0  0  0  0  0  0
  182.4890  177.8370  135.3920 O   0  0  0  0  0  0  0  0  0  0  0  0
  180.6520  176.4970  134.8550 N   0  0  0  0  0  2  0  0  0  0  0  0
  180.5450  178.9990  134.5950 C   0  0  0  0  0  2  0  0  0  0  0  0
  180.1790  180.0400  135.6330 N   0  0  0  0  0  0  0  0  0  0  0  0
  178.9310  179.6030  136.2730 C   0  0  0  0  0  1  0  0  0  0  0  0
  179.9130  181.3890  135.1350 C   0  0  0  0  0  2  0  0  0  0  0  0
  181.1720  182.1810  134.7270 C   0  0  0  0  0  2  0  0  0  0  0  0
  181.0750  183.9760  136.4260 C   0  0  0  0  0  0  0  0  0  0  0  0
  181.0150  185.3390  136.7600 N   0  0  0  0  0  1  0  0  0  0  0  0
  180.9730  183.0160  137.4440 N   0  0  0  0  0  1  0  0  0  0  0  0
  180.9890  183.5820  135.1640 N   0  0  0  0  0  0  0  0  0  0  0  0
  179.0680  172.5170  137.1470 C   0  0  0  0  0  1  0  0  0  0  0  0
  180.4320  172.4030  137.5560 O   0  0  0  0  0  0  0  0  0  0  0  0
  179.5990  178.5820  140.7750 F   0  0  0  0  0  0  0  0  0  0  0  0
  180.5080  176.5940  140.6410 F   0  0  0  0  0  0  0  0  0  0  0  0
  181.7740  178.3200  141.1830 F   0  0  0  0  0  0  0  0  0  0  0  0
  180.7680  177.9040  140.3820 C   0  0  0  0  0  0  0  0  0  0  0  0
  184.8460  178.5980  138.2130 C   0  0  0  0  0  2  0  0  0  0  0  0
  186.1820  178.3790  138.8940 C   0  0  1  0  0  3  0  0  0  0  0  0
  186.1940  177.4820  139.9480 O   0  0  0  0  0  1  0  0  0  0  0  0
  189.4800  179.2760  137.9190 C   0  0  0  0  0  1  0  0  0  0  0  0
  188.6860  176.4620  136.6160 C   0  0  1  0  0  3  0  0  0  0  0  0
  187.2740  177.9430  137.8610 C   0  0  2  0  0  0  0  0  0  0  0  0
  187.1690  178.4010  136.3900 C   0  0  0  0  0  3  0  0  0  0  0  0
  188.2510  176.8630  138.0230 C   0  0  2  0  0  3  0  0  0  0  0  0
  188.6060  178.2390  139.9510 O   0  0  0  0  0  1  0  0  0  0  0  0
  187.9600  177.4240  135.5690 C   0  0  0  0  0  3  0  0  0  0  0  0
  188.5880  178.2610  138.5830 C   0  0  1  0  0  0  0  0  0  0  0  0
  190.2220  176.1370  136.5400 C   0  0  1  0  0  3  0  0  0  0  0  0
  190.5780  176.0480  135.1530 C   0  0  0  0  0  3  0  0  0  0  0  0
  190.1940  174.6910  134.6450 C   0  0  0  0  0  2  0  0  0  0  0  0
  191.6410  174.9410  134.9310 C   0  0  0  0  0  2  0  0  0  0  0  0
  191.2040  177.1110  137.2490 C   0  0  0  0  0  2  0  0  0  0  0  0
  193.1650  176.7570  138.8810 O   0  0  0  0  0  1  0  0  0  0  0  0
  192.5800  176.3080  137.6990 C   0  0  0  0  0  0  0  0  0  0  0  0
  193.6330  175.5690  136.7840 C   0  0  0  0  0  3  0  0  0  0  0  0
  194.9910  175.1710  137.4010 N   0  0  0  0  0  0  0  0  0  0  0  0
  195.0130  173.8200  137.8150 C   0  0  0  0  0  3  0  0  0  0  0  0
  196.4290  173.3280  138.0910 C   0  0  0  0  0  1  0  0  0  0  0  0
  194.3360  172.8840  136.6750 C   0  0  0  0  0  1  0  0  0  0  0  0
  195.7750  176.5750  135.8080 O   0  0  0  0  0  1  0  0  0  0  0  0
  196.0490  175.4370  136.5220 N   0  0  0  0  0  2  0  0  0  0  0  0
  1  2  2  0  0  0  0
  1  5  1  0  0  0  0
  3 36  1  1  0  0  0
  4 37  1  6  0  0  0
  5  3  1  0  0  0  0
  6  4  1  0  0  0  0
  6  3  1  0  0  0  0
  7  5  1  0  0  0  0
  7  4  1  0  0  0  0
  8 32  1  0  0  0  0
  9 14  1  0  0  0  0
  9 11  1  0  0  0  0
 10 15  1  0  0  0  0
 11 13  1  0  0  0  0
 12  8  1  0  0  0  0
 12  1  1  6  0  0  0
 13 10  2  0  0  0  0
 14 21  1  1  0  0  0
 14 12  1  0  0  0  0
 15  8  2  0  0  0  0
 16 18  2  0  0  0  0
 18 13  1  0  0  0  0
 18 17  1  0  0  0  0
 19 20  2  0  0  0  0
 21 19  1  0  0  0  0
 22 19  1  0  0  0  0
 22 23  1  0  0  0  0
 23 24  1  0  0  0  0
 25 23  1  0  0  0  0
 26 25  1  0  0  0  0
 26 30  1  0  0  0  0
 27 28  1  0  0  0  0
 27 29  1  0  0  0  0
 30 27  2  0  0  0  0
 31 32  1  0  0  0  0
 36 34  1  0  0  0  0
 36 33  1  0  0  0  0
 36 35  1  0  0  0  0
 37 38  1  0  0  0  0
 38 39  1  1  0  0  0
 40 47  1  0  0  0  0
 41 48  1  1  0  0  0
 41 44  1  0  0  0  0
 42 44  1  0  0  0  0
 42 47  1  0  0  0  0
 42 38  1  1  0  0  0
 43 42  1  0  0  0  0
 44 47  1  0  0  0  0
 46 43  2  0  0  0  0
 46 41  1  0  0  0  0
 47 45  1  0  0  0  0
 48 52  1  0  0  0  0
 49 48  1  0  0  0  0
 50 51  1  0  0  0  0
 50 49  1  0  0  0  0
 51 49  1  0  0  0  0
 52 54  1  0  0  0  0
 54 53  1  0  0  0  0
 55 56  1  0  0  0  0
 55 54  2  0  0  0  0
 56 57  1  0  0  0  0
 57 58  1  0  0  0  0
 59 57  1  0  0  0  0
 60 61  1  0  0  0  0
 61 56  1  0  0  0  0
M  END
>  <MODEL>
3

>  <REMARK>
 VINA RESULT:      -4.1      2.497      4.005
  Name = 
  21 active torsions:
  status: ('A' for Active; 'I' for Inactive)
    1  A    between atoms: N_1  and  C_32
    2  A    between atoms: N_1  and  C_60
    3  A    between atoms: C_4  and  O_44
    4  A    between atoms: C_7  and  C_47
    5  A    between atoms: C_8  and  N_28
    6  A    between atoms: C_11  and  C_45
    7  A    between atoms: C_18  and  C_20
    8  A    between atoms: C_18  and  C_21
    9  A    between atoms: C_19  and  C_60
   10  A    between atoms: C_21  and  C_24
   11  A    between atoms: C_23  and  C_54
   12  A    between atoms: N_28  and  N_43
   13  A    between atoms: N_28  and  C_53
   14  A    between atoms: C_31  and  C_47
   15  A    between atoms: C_32  and  C_36
   16  A    between atoms: N_34  and  C_52
   17  A    between atoms: C_36  and  N_61
   18  A    between atoms: C_39  and  C_40
   19  A    between atoms: C_39  and  C_53
   20  A    between atoms: C_40  and  C_47
   21  A    between atoms: CA_49  and  C_50
                            x       y       z     vdW  Elec       q    Type
                         _______ _______ _______ _____ _____    ______ ____

>  <TORSDO>
F 21

$$$$
=
 OpenBabel11062413563D

 61 65  0  0  1  0  0  0  0  0999 V2000
  180.8890  174.9810  137.3360 C   0  0  0  0  0  0  0  0  0  0  0  0
  179.6470  174.7420  137.3990 O   0  0  0  0  0  0  0  0  0  0  0  0
  180.6550  177.0480  138.8010 C   0  0  2  0  0  3  0  0  0  0  0  0
  182.9760  177.2760  139.4800 C   0  0  1  0  0  3  0  0  0  0  0  0
  181.4660  175.9570  138.2280 N   0  0  0  0  0  0  0  0  0  0  0  0
  181.7100  178.1100  139.2090 C   0  0  0  0  0  2  0  0  0  0  0  0
  182.8520  176.1160  138.5280 C   0  0  0  0  0  2  0  0  0  0  0  0
  182.0920  172.7420  136.3380 C   0  0  0  0  0  0  0  0  0  0  0  0
  183.5590  174.9700  134.6530 C   0  0  0  0  0  2  0  0  0  0  0  0
  184.6160  172.9120  136.7280 C   0  0  0  0  0  3  0  0  0  0  0  0
  184.4580  175.1520  135.8260 N   0  0  0  0  0  2  0  0  0  0  0  0
  181.6860  174.2710  136.2480 C   0  0  1  0  0  3  0  0  0  0  0  0
  185.1840  174.0910  136.4290 C   0  0  0  0  0  0  0  0  0  0  0  0
  182.1010  174.9200  134.9110 C   0  0  1  0  0  3  0  0  0  0  0  0
  183.3200  172.3200  136.5210 C   0  0  0  0  0  3  0  0  0  0  0  0
  186.9670  175.4840  137.3340 O   0  0  0  0  0  1  0  0  0  0  0  0
  187.4540  173.3760  136.5940 O   0  0  0  0  0  0  0  0  0  0  0  0
  186.5730  174.2450  136.7730 C   0  0  0  0  0  0  0  0  0  0  0  0
  182.0470  177.5390  135.0310 C   0  0  0  0  0  0  0  0  0  0  0  0
  183.0860  177.6410  135.6750 O   0  0  0  0  0  0  0  0  0  0  0  0
  181.5120  176.2900  134.5980 N   0  0  0  0  0  2  0  0  0  0  0  0
  181.2360  178.7910  134.6660 C   0  0  0  0  0  2  0  0  0  0  0  0
  179.9060  179.0790  135.3310 N   0  0  0  0  0  0  0  0  0  0  0  0
  179.0800  177.8700  135.2070 C   0  0  0  0  0  1  0  0  0  0  0  0
  179.1090  180.1590  134.7510 C   0  0  0  0  0  2  0  0  0  0  0  0
  179.8610  181.4980  134.5940 C   0  0  0  0  0  2  0  0  0  0  0  0
  180.7260  183.1100  136.2580 C   0  0  0  0  0  0  0  0  0  0  0  0
  181.1210  183.4170  137.5710 N   0  0  0  0  0  1  0  0  0  0  0  0
  180.9130  184.0640  135.2470 N   0  0  0  0  0  1  0  0  0  0  0  0
  180.4060  181.8710  135.9170 N   0  0  0  0  0  0  0  0  0  0  0  0
  180.0740  171.7160  137.4270 C   0  0  0  0  0  1  0  0  0  0  0  0
  181.0590  171.7430  136.3930 O   0  0  0  0  0  0  0  0  0  0  0  0
  180.7320  176.1800  141.1260 F   0  0  0  0  0  0  0  0  0  0  0  0
  179.2300  177.6690  140.5590 F   0  0  0  0  0  0  0  0  0  0  0  0
  179.0400  175.6050  139.7950 F   0  0  0  0  0  0  0  0  0  0  0  0
  179.9130  176.6020  140.0620 C   0  0  0  0  0  0  0  0  0  0  0  0
  184.3060  178.0070  139.3290 C   0  0  0  0  0  2  0  0  0  0  0  0
  185.1150  178.3660  140.5590 C   0  0  1  0  0  3  0  0  0  0  0  0
  184.7920  177.6910  141.7240 O   0  0  0  0  0  1  0  0  0  0  0  0
  188.1900  179.9530  141.3690 C   0  0  0  0  0  1  0  0  0  0  0  0
  188.7540  177.0610  140.1150 C   0  0  1  0  0  3  0  0  0  0  0  0
  186.6480  178.1880  140.2940 C   0  0  2  0  0  0  0  0  0  0  0  0
  187.2550  178.6440  138.9490 C   0  0  0  0  0  3  0  0  0  0  0  0
  187.5730  177.3340  141.0430 C   0  0  2  0  0  3  0  0  0  0  0  0
  186.5860  178.7160  142.7330 O   0  0  0  0  0  1  0  0  0  0  0  0
  188.5270  177.8700  138.7580 C   0  0  0  0  0  3  0  0  0  0  0  0
  187.2920  178.7610  141.5620 C   0  0  1  0  0  0  0  0  0  0  0  0
  190.1250  177.0670  140.8840 C   0  0  1  0  0  3  0  0  0  0  0  0
  191.0700  177.7820  140.0760 C   0  0  0  0  0  3  0  0  0  0  0  0
  191.4320  176.9330  138.8960 C   0  0  0  0  0  2  0  0  0  0  0  0
  192.4220  177.0230  140.0140 C   0  0  0  0  0  2  0  0  0  0  0  0
  190.1460  177.6560  142.3220 C   0  0  0  0  0  2  0  0  0  0  0  0
  189.8710  175.1630  142.9100 O   0  0  0  0  0  1  0  0  0  0  0  0
  189.9140  176.4530  143.4350 C   0  0  2  0  0  3  0  0  0  0  0  0
  189.1750  176.5270  144.8280 C   0  0  0  0  0  2  0  0  0  0  0  0
  189.8060  177.3750  145.9520 N   0  0  0  0  0  0  0  0  0  0  0  0
  188.8320  177.9460  146.8010 C   0  0  0  0  0  3  0  0  0  0  0  0
  188.8550  177.3300  148.1950 C   0  0  0  0  0  1  0  0  0  0  0  0
  187.3560  177.7490  146.1550 C   0  0  0  0  0  1  0  0  0  0  0  0
  192.0050  176.9740  146.3060 O   0  0  0  0  0  1  0  0  0  0  0  0
  190.7350  176.6330  146.6920 N   0  0  0  0  0  2  0  0  0  0  0  0
  1  2  2  0  0  0  0
  1  5  1  0  0  0  0
  3  6  1  0  0  0  0
  3 36  1  1  0  0  0
  4 37  1  6  0  0  0
  5  7  1  0  0  0  0
  5  3  1  0  0  0  0
  6  4  1  0  0  0  0
  7  4  1  0  0  0  0
  8 32  1  0  0  0  0
  8 15  2  0  0  0  0
  9 14  1  0  0  0  0
  9 11  1  0  0  0  0
 11 13  1  0  0  0  0
 12  8  1  0  0  0  0
 12  1  1  6  0  0  0
 13 10  2  0  0  0  0
 13 18  1  0  0  0  0
 14 21  1  1  0  0  0
 14 12  1  0  0  0  0
 15 10  1  0  0  0  0
 17 18  2  0  0  0  0
 18 16  1  0  0  0  0
 19 20  2  0  0  0  0
 21 19  1  0  0  0  0
 22 19  1  0  0  0  0
 22 23  1  0  0  0  0
 24 23  1  0  0  0  0
 25 23  1  0  0  0  0
 26 25  1  0  0  0  0
 26 30  1  0  0  0  0
 27 28  1  0  0  0  0
 29 27  1  0  0  0  0
 30 27  2  0  0  0  0
 32 31  1  0  0  0  0
 35 36  1  0  0  0  0
 36 34  1  0  0  0  0
 36 33  1  0  0  0  0
 37 38  1  0  0  0  0
 38 39  1  1  0  0  0
 40 47  1  0  0  0  0
 41 48  1  1  0  0  0
 41 44  1  0  0  0  0
 42 38  1  1  0  0  0
 42 44  1  0  0  0  0
 42 47  1  0  0  0  0
 43 42  1  0  0  0  0
 44 47  1  0  0  0  0
 46 43  2  0  0  0  0
 46 41  1  0  0  0  0
 47 45  1  0  0  0  0
 48 52  1  0  0  0  0
 49 48  1  0  0  0  0
 50 51  1  0  0  0  0
 50 49  1  0  0  0  0
 51 49  1  0  0  0  0
 52 54  1  0  0  0  0
 53 54  1  0  0  0  0
 54 55  1  0  0  0  0
 55 56  1  0  0  0  0
 56 61  1  0  0  0  0
 56 57  1  0  0  0  0
 57 58  1  0  0  0  0
 59 57  1  0  0  0  0
 60 61  1  0  0  0  0
M  END
>  <MODEL>
4

>  <REMARK>
 VINA RESULT:      -3.8      2.711      4.529
  Name = 
  21 active torsions:
  status: ('A' for Active; 'I' for Inactive)
    1  A    between atoms: N_1  and  C_32
    2  A    between atoms: N_1  and  C_60
    3  A    between atoms: C_4  and  O_44
    4  A    between atoms: C_7  and  C_47
    5  A    between atoms: C_8  and  N_28
    6  A    between atoms: C_11  and  C_45
    7  A    between atoms: C_18  and  C_20
    8  A    between atoms: C_18  and  C_21
    9  A    between atoms: C_19  and  C_60
   10  A    between atoms: C_21  and  C_24
   11  A    between atoms: C_23  and  C_54
   12  A    between atoms: N_28  and  N_43
   13  A    between atoms: N_28  and  C_53
   14  A    between atoms: C_31  and  C_47
   15  A    between atoms: C_32  and  C_36
   16  A    between atoms: N_34  and  C_52
   17  A    between atoms: C_36  and  N_61
   18  A    between atoms: C_39  and  C_40
   19  A    between atoms: C_39  and  C_53
   20  A    between atoms: C_40  and  C_47
   21  A    between atoms: CA_49  and  C_50
                            x       y       z     vdW  Elec       q    Type
                         _______ _______ _______ _____ _____    ______ ____

>  <TORSDO>
F 21

$$$$
=
 OpenBabel11062413563D

 61 65  0  0  1  0  0  0  0  0999 V2000
  188.8290  177.0360  136.7380 C   0  0  0  0  0  0  0  0  0  0  0  0
  189.3640  177.6310  135.7570 O   0  0  0  0  0  0  0  0  0  0  0  0
  186.8320  178.6110  136.7200 C   0  0  2  0  0  3  0  0  0  0  0  0
  185.2800  177.2450  137.9950 C   0  0  1  0  0  3  0  0  0  0  0  0
  187.4570  177.3230  137.0750 N   0  0  0  0  0  0  0  0  0  0  0  0
  185.6300  178.7140  137.6960 C   0  0  0  0  0  2  0  0  0  0  0  0
  186.6060  176.5360  137.9080 C   0  0  0  0  0  2  0  0  0  0  0  0
  190.6750  176.6210  138.7060 C   0  0  0  0  0  0  0  0  0  0  0  0
  190.9980  173.9500  137.0570 C   0  0  0  0  0  2  0  0  0  0  0  0
  192.9730  176.2790  137.6310 C   0  0  0  0  0  3  0  0  0  0  0  0
  191.8820  174.7180  136.1390 N   0  0  0  0  0  2  0  0  0  0  0  0
  189.7130  176.1040  137.5590 C   0  0  1  0  0  3  0  0  0  0  0  0
  193.0160  175.4530  136.5740 C   0  0  0  0  0  0  0  0  0  0  0  0
  189.7050  174.5660  137.4350 C   0  0  1  0  0  3  0  0  0  0  0  0
  191.9840  176.6260  138.6180 C   0  0  0  0  0  3  0  0  0  0  0  0
  195.4420  175.6890  136.6020 O   0  0  0  0  0  1  0  0  0  0  0  0
  194.4000  175.0310  134.6770 O   0  0  0  0  0  0  0  0  0  0  0  0
  194.2720  175.3600  135.8760 C   0  0  0  0  0  0  0  0  0  0  0  0
  188.0530  172.6490  136.7470 C   0  0  0  0  0  0  0  0  0  0  0  0
  188.3740  171.8950  137.6600 O   0  0  0  0  0  0  0  0  0  0  0  0
  188.6100  173.9500  136.5720 N   0  0  0  0  0  2  0  0  0  0  0  0
  187.0180  172.2050  135.7040 C   0  0  0  0  0  2  0  0  0  0  0  0
  185.5330  172.3370  135.9750 N   0  0  0  0  0  0  0  0  0  0  0  0
  185.0020  173.3360  135.0370 C   0  0  0  0  0  1  0  0  0  0  0  0
  185.1550  172.8090  137.3060 C   0  0  0  0  0  2  0  0  0  0  0  0
  183.9960  173.8280  137.3200 C   0  0  0  0  0  2  0  0  0  0  0  0
  181.6430  173.2840  136.7920 C   0  0  0  0  0  0  0  0  0  0  0  0
  180.5170  172.4570  136.9410 N   0  0  0  0  0  1  0  0  0  0  0  0
  181.5220  174.4780  136.0650 N   0  0  0  0  0  1  0  0  0  0  0  0
  182.7350  173.0810  137.5120 N   0  0  0  0  0  0  0  0  0  0  0  0
  190.7940  177.3550  141.1060 C   0  0  0  0  0  1  0  0  0  0  0  0
  190.1110  177.2810  139.8530 O   0  0  0  0  0  0  0  0  0  0  0  0
  184.8850  178.6180  135.1780 F   0  0  0  0  0  0  0  0  0  0  0  0
  186.6920  179.7450  134.6700 F   0  0  0  0  0  0  0  0  0  0  0  0
  186.7440  177.5380  134.5950 F   0  0  0  0  0  0  0  0  0  0  0  0
  186.2880  178.6030  135.2900 C   0  0  0  0  0  0  0  0  0  0  0  0
  184.5700  176.9800  139.3180 C   0  0  0  0  0  2  0  0  0  0  0  0
  184.2280  178.1350  140.2370 C   0  0  1  0  0  3  0  0  0  0  0  0
  182.9810  178.0950  140.8360 O   0  0  0  0  0  1  0  0  0  0  0  0
  185.0710  180.3850  142.8570 C   0  0  0  0  0  1  0  0  0  0  0  0
  186.7380  177.6690  143.1740 C   0  0  1  0  0  3  0  0  0  0  0  0
  185.3090  178.3000  141.3580 C   0  0  2  0  0  0  0  0  0  0  0  0
  186.7060  178.8540  141.0050 C   0  0  0  0  0  3  0  0  0  0  0  0
  185.2900  177.6880  142.6890 C   0  0  2  0  0  3  0  0  0  0  0  0
  183.1960  178.8450  142.5700 O   0  0  0  0  0  1  0  0  0  0  0  0
  187.6480  178.3820  142.0740 C   0  0  0  0  0  3  0  0  0  0  0  0
  184.5490  179.0250  142.4750 C   0  0  1  0  0  0  0  0  0  0  0  0
  186.8530  177.9950  144.7070 C   0  0  1  0  0  3  0  0  0  0  0  0
  185.5420  177.8650  145.2770 C   0  0  0  0  0  3  0  0  0  0  0  0
  185.2320  179.1070  146.0560 C   0  0  0  0  0  2  0  0  0  0  0  0
  185.6150  177.8820  146.8270 C   0  0  0  0  0  2  0  0  0  0  0  0
  187.8530  177.1580  145.5520 C   0  0  0  0  0  2  0  0  0  0  0  0
  189.3940  175.9820  143.8550 O   0  0  0  0  0  1  0  0  0  0  0  0
  189.3030  177.0350  144.7630 C   0  0  2  0  0  3  0  0  0  0  0  0
  190.7340  177.4920  145.2520 C   0  0  0  0  0  2  0  0  0  0  0  0
  191.6930  176.4250  145.8190 N   0  0  0  0  0  0  0  0  0  0  0  0
  191.3960  176.1010  147.1620 C   0  0  0  0  0  3  0  0  0  0  0  0
  190.6230  177.2130  147.8620 C   0  0  0  0  0  1  0  0  0  0  0  0
  192.7700  175.8130  147.9760 C   0  0  0  0  0  1  0  0  0  0  0  0
  192.7470  174.4670  145.3980 O   0  0  0  0  0  1  0  0  0  0  0  0
  191.7040  175.2730  145.0230 N   0  0  0  0  0  2  0  0  0  0  0  0
  1  5  1  0  0  0  0
  2  1  2  0  0  0  0
  3 36  1  6  0  0  0
  3  5  1  0  0  0  0
  3  6  1  0  0  0  0
  4 37  1  1  0  0  0
  5  7  1  0  0  0  0
  6  4  1  0  0  0  0
  7  4  1  0  0  0  0
  8 32  1  0  0  0  0
  9 14  1  0  0  0  0
 10 15  1  0  0  0  0
 11 13  1  0  0  0  0
 11  9  1  0  0  0  0
 12  1  1  1  0  0  0
 12  8  1  0  0  0  0
 13 10  2  0  0  0  0
 14 21  1  6  0  0  0
 14 12  1  0  0  0  0
 15  8  2  0  0  0  0
 17 18  2  0  0  0  0
 18 13  1  0  0  0  0
 18 16  1  0  0  0  0
 19 20  2  0  0  0  0
 21 19  1  0  0  0  0
 22 23  1  0  0  0  0
 22 19  1  0  0  0  0
 23 25  1  0  0  0  0
 24 23  1  0  0  0  0
 25 26  1  0  0  0  0
 26 30  1  0  0  0  0
 27 28  1  0  0  0  0
 27 30  2  0  0  0  0
 29 27  1  0  0  0  0
 32 31  1  0  0  0  0
 33 36  1  0  0  0  0
 34 36  1  0  0  0  0
 35 36  1  0  0  0  0
 37 38  1  0  0  0  0
 38 39  1  1  0  0  0
 41 48  1  1  0  0  0
 42 38  1  6  0  0  0
 42 47  1  0  0  0  0
 42 44  1  0  0  0  0
 43 42  1  0  0  0  0
 43 46  2  0  0  0  0
 44 41  1  0  0  0  0
 46 41  1  0  0  0  0
 47 45  1  0  0  0  0
 47 44  1  0  0  0  0
 47 40  1  0  0  0  0
 48 49  1  0  0  0  0
 48 52  1  0  0  0  0
 49 50  1  0  0  0  0
 49 51  1  0  0  0  0
 50 51  1  0  0  0  0
 53 54  1  0  0  0  0
 54 55  1  0  0  0  0
 54 52  1  0  0  0  0
 55 56  1  0  0  0  0
 56 57  1  0  0  0  0
 57 58  1  0  0  0  0
 57 59  1  0  0  0  0
 61 60  1  0  0  0  0
 61 56  1  0  0  0  0
M  END
>  <MODEL>
5

>  <REMARK>
 VINA RESULT:      -3.7      4.272      8.946
  Name = 
  21 active torsions:
  status: ('A' for Active; 'I' for Inactive)
    1  A    between atoms: N_1  and  C_32
    2  A    between atoms: N_1  and  C_60
    3  A    between atoms: C_4  and  O_44
    4  A    between atoms: C_7  and  C_47
    5  A    between atoms: C_8  and  N_28
    6  A    between atoms: C_11  and  C_45
    7  A    between atoms: C_18  and  C_20
    8  A    between atoms: C_18  and  C_21
    9  A    between atoms: C_19  and  C_60
   10  A    between atoms: C_21  and  C_24
   11  A    between atoms: C_23  and  C_54
   12  A    between atoms: N_28  and  N_43
   13  A    between atoms: N_28  and  C_53
   14  A    between atoms: C_31  and  C_47
   15  A    between atoms: C_32  and  C_36
   16  A    between atoms: N_34  and  C_52
   17  A    between atoms: C_36  and  N_61
   18  A    between atoms: C_39  and  C_40
   19  A    between atoms: C_39  and  C_53
   20  A    between atoms: C_40  and  C_47
   21  A    between atoms: CA_49  and  C_50
                            x       y       z     vdW  Elec       q    Type
                         _______ _______ _______ _____ _____    ______ ____

>  <TORSDO>
F 21

$$$$
=
 OpenBabel11062413563D

 61 65  0  0  1  0  0  0  0  0999 V2000
  182.3360  178.0720  138.2020 C   0  0  0  0  0  0  0  0  0  0  0  0
  181.2780  178.6470  138.5970 O   0  0  0  0  0  0  0  0  0  0  0  0
  183.7040  179.1060  140.0810 C   0  0  2  0  0  3  0  0  0  0  0  0
  185.5960  177.5840  140.0320 C   0  0  1  0  0  3  0  0  0  0  0  0
  183.4950  178.0620  139.0590 N   0  0  0  0  0  0  0  0  0  0  0  0
  185.2300  179.0430  140.3590 C   0  0  0  0  0  2  0  0  0  0  0  0
  184.6330  177.2090  138.9370 C   0  0  0  0  0  2  0  0  0  0  0  0
  181.0090  177.2760  135.9520 C   0  0  0  0  0  0  0  0  0  0  0  0
  183.7350  175.7320  135.5760 C   0  0  0  0  0  2  0  0  0  0  0  0
  180.8210  174.7230  135.9590 C   0  0  0  0  0  3  0  0  0  0  0  0
  183.1810  174.6960  136.4900 N   0  0  0  0  0  2  0  0  0  0  0  0
  182.3350  177.4940  136.7920 C   0  0  1  0  0  3  0  0  0  0  0  0
  181.9360  174.0470  136.2770 C   0  0  0  0  0  0  0  0  0  0  0  0
  183.6090  177.1490  135.9940 C   0  0  1  0  0  3  0  0  0  0  0  0
  180.5060  176.0990  135.6700 C   0  0  0  0  0  3  0  0  0  0  0  0
  180.8060  171.9800  135.6530 O   0  0  0  0  0  0  0  0  0  0  0  0
  182.5040  171.9150  137.1820 O   0  0  0  0  0  1  0  0  0  0  0  0
  181.8090  172.6210  136.4200 C   0  0  0  0  0  0  0  0  0  0  0  0
  186.0950  177.9710  135.8490 C   0  0  0  0  0  0  0  0  0  0  0  0
  186.1200  178.0260  134.6240 O   0  0  0  0  0  0  0  0  0  0  0  0
  184.9390  177.5920  136.5930 N   0  0  0  0  0  2  0  0  0  0  0  0
  187.3520  178.3010  136.6660 C   0  0  0  0  0  2  0  0  0  0  0  0
  188.6840  177.6560  136.3410 N   0  0  0  0  0  0  0  0  0  0  0  0
  188.4400  176.2200  136.1430 C   0  0  0  0  0  1  0  0  0  0  0  0
  189.7170  177.7400  137.3730 C   0  0  0  0  0  2  0  0  0  0  0  0
  190.3020  176.3790  137.8060 C   0  0  0  0  0  2  0  0  0  0  0  0
  192.7150  175.8420  137.7680 C   0  0  0  0  0  0  0  0  0  0  0  0
  194.0460  176.1740  138.0750 N   0  0  0  0  0  1  0  0  0  0  0  0
  192.4340  174.5790  137.2260 N   0  0  0  0  0  1  0  0  0  0  0  0
  191.7120  176.5940  138.1950 N   0  0  0  0  0  0  0  0  0  0  0  0
  180.7430  179.7270  135.4700 C   0  0  0  0  0  1  0  0  0  0  0  0
  180.1990  178.4140  135.6090 O   0  0  0  0  0  0  0  0  0  0  0  0
  182.1990  177.6030  141.3620 F   0  0  0  0  0  0  0  0  0  0  0  0
  183.8910  178.5730  142.3590 F   0  0  0  0  0  0  0  0  0  0  0  0
  182.1540  179.7960  141.7530 F   0  0  0  0  0  0  0  0  0  0  0  0
  182.9670  178.7820  141.3820 C   0  0  0  0  0  0  0  0  0  0  0  0
  187.0470  177.3290  139.6350 C   0  0  0  0  0  2  0  0  0  0  0  0
  188.1570  178.1490  140.2630 C   0  0  1  0  0  3  0  0  0  0  0  0
  187.9750  179.5210  140.2740 O   0  0  0  0  0  1  0  0  0  0  0  0
  190.1630  175.7720  141.9820 C   0  0  0  0  0  1  0  0  0  0  0  0
  188.9250  177.8630  144.0660 C   0  0  1  0  0  3  0  0  0  0  0  0
  188.4430  177.6760  141.7270 C   0  0  2  0  0  0  0  0  0  0  0  0
  187.4560  176.7240  142.4360 C   0  0  0  0  0  3  0  0  0  0  0  0
  189.3890  178.2760  142.6720 C   0  0  2  0  0  3  0  0  0  0  0  0
  190.7360  177.8010  140.7490 O   0  0  0  0  0  1  0  0  0  0  0  0
  187.6610  176.9010  143.9130 C   0  0  0  0  0  3  0  0  0  0  0  0
  189.9070  177.2220  141.6700 C   0  0  1  0  0  0  0  0  0  0  0  0
  190.1310  177.5300  145.0170 C   0  0  1  0  0  3  0  0  0  0  0  0
  190.8460  178.7510  145.2540 C   0  0  0  0  0  3  0  0  0  0  0  0
  190.9400  179.5090  143.9640 C   0  0  0  0  0  2  0  0  0  0  0  0
  192.1610  178.7830  144.4320 C   0  0  0  0  0  2  0  0  0  0  0  0
  189.8120  176.8630  146.3840 C   0  0  0  0  0  2  0  0  0  0  0  0
  189.1790  178.2640  148.4510 O   0  0  0  0  0  1  0  0  0  0  0  0
  188.7220  177.7810  147.2270 C   0  0  2  0  0  3  0  0  0  0  0  0
  187.1450  177.7210  147.1900 C   0  0  0  0  0  2  0  0  0  0  0  0
  186.3760  178.9400  146.6380 N   0  0  0  0  0  0  0  0  0  0  0  0
  185.5160  178.5900  145.5720 C   0  0  0  0  0  3  0  0  0  0  0  0
  185.4030  179.7030  144.5370 C   0  0  0  0  0  1  0  0  0  0  0  0
  184.0380  178.2450  146.1480 C   0  0  0  0  0  1  0  0  0  0  0  0
  186.3540  180.7200  148.0350 O   0  0  0  0  0  1  0  0  0  0  0  0
  185.6670  179.5980  147.6510 N   0  0  0  0  0  2  0  0  0  0  0  0
  1  2  2  0  0  0  0
  1  5  1  0  0  0  0
  3  6  1  0  0  0  0
  3 36  1  1  0  0  0
  4 37  1  6  0  0  0
  4  6  1  0  0  0  0
  5  3  1  0  0  0  0
  7  5  1  0  0  0  0
  7  4  1  0  0  0  0
  8 12  1  0  0  0  0
  9 14  1  0  0  0  0
  9 11  1  0  0  0  0
 10 13  2  0  0  0  0
 12  1  1  6  0  0  0
 13 18  1  0  0  0  0
 13 11  1  0  0  0  0
 14 21  1  1  0  0  0
 14 12  1  0  0  0  0
 15  8  2  0  0  0  0
 15 10  1  0  0  0  0
 16 18  2  0  0  0  0
 18 17  1  0  0  0  0
 19 21  1  0  0  0  0
 19 22  1  0  0  0  0
 20 19  2  0  0  0  0
 23 22  1  0  0  0  0
 23 25  1  0  0  0  0
 24 23  1  0  0  0  0
 25 26  1  0  0  0  0
 26 30  1  0  0  0  0
 27 28  1  0  0  0  0
 27 30  2  0  0  0  0
 29 27  1  0  0  0  0
 31 32  1  0  0  0  0
 32  8  1  0  0  0  0
 33 36  1  0  0  0  0
 36 35  1  0  0  0  0
 36 34  1  0  0  0  0
 37 38  1  0  0  0  0
 38 39  1  1  0  0  0
 41 48  1  6  0  0  0
 42 38  1  6  0  0  0
 42 43  1  0  0  0  0
 42 44  1  0  0  0  0
 43 46  2  0  0  0  0
 44 41  1  0  0  0  0
 45 47  1  0  0  0  0
 46 41  1  0  0  0  0
 47 42  1  0  0  0  0
 47 40  1  0  0  0  0
 47 44  1  0  0  0  0
 48 49  1  0  0  0  0
 48 52  1  0  0  0  0
 50 51  1  0  0  0  0
 50 49  1  0  0  0  0
 51 49  1  0  0  0  0
 52 54  1  0  0  0  0
 54 53  1  0  0  0  0
 55 54  1  0  0  0  0
 56 55  1  0  0  0  0
 56 61  1  0  0  0  0
 57 59  1  0  0  0  0
 57 56  1  0  0  0  0
 58 57  1  0  0  0  0
 61 60  1  0  0  0  0
M  END
>  <MODEL>
6

>  <REMARK>
 VINA RESULT:      -3.1      3.192      7.199
  Name = 
  21 active torsions:
  status: ('A' for Active; 'I' for Inactive)
    1  A    between atoms: N_1  and  C_32
    2  A    between atoms: N_1  and  C_60
    3  A    between atoms: C_4  and  O_44
    4  A    between atoms: C_7  and  C_47
    5  A    between atoms: C_8  and  N_28
    6  A    between atoms: C_11  and  C_45
    7  A    between atoms: C_18  and  C_20
    8  A    between atoms: C_18  and  C_21
    9  A    between atoms: C_19  and  C_60
   10  A    between atoms: C_21  and  C_24
   11  A    between atoms: C_23  and  C_54
   12  A    between atoms: N_28  and  N_43
   13  A    between atoms: N_28  and  C_53
   14  A    between atoms: C_31  and  C_47
   15  A    between atoms: C_32  and  C_36
   16  A    between atoms: N_34  and  C_52
   17  A    between atoms: C_36  and  N_61
   18  A    between atoms: C_39  and  C_40
   19  A    between atoms: C_39  and  C_53
   20  A    between atoms: C_40  and  C_47
   21  A    between atoms: CA_49  and  C_50
                            x       y       z     vdW  Elec       q    Type
                         _______ _______ _______ _____ _____    ______ ____

>  <TORSDO>
F 21

$$$$
=
 OpenBabel11062413563D

 61 65  0  0  1  0  0  0  0  0999 V2000
  182.0140  178.1050  140.7460 C   0  0  0  0  0  0  0  0  0  0  0  0
  182.2840  178.5530  141.8990 O   0  0  0  0  0  0  0  0  0  0  0  0
  184.1600  179.0650  139.7730 C   0  0  2  0  0  3  0  0  0  0  0  0
  184.2840  177.7110  137.7610 C   0  0  1  0  0  3  0  0  0  0  0  0
  183.0380  178.1080  139.7300 N   0  0  0  0  0  0  0  0  0  0  0  0
  184.6670  179.0980  138.3060 C   0  0  0  0  0  2  0  0  0  0  0  0
  183.0270  177.3640  138.5130 C   0  0  0  0  0  2  0  0  0  0  0  0
  179.8110  176.6400  141.4180 C   0  0  0  0  0  0  0  0  0  0  0  0
  179.1960  177.2220  138.3780 C   0  0  0  0  0  2  0  0  0  0  0  0
  179.7000  174.5690  139.9170 C   0  0  0  0  0  3  0  0  0  0  0  0
  180.0880  176.0730  138.0610 N   0  0  0  0  0  2  0  0  0  0  0  0
  180.5790  177.6630  140.4840 C   0  0  1  0  0  3  0  0  0  0  0  0
  179.9170  174.7740  138.6080 C   0  0  0  0  0  0  0  0  0  0  0  0
  179.6910  178.2210  139.3530 C   0  0  1  0  0  3  0  0  0  0  0  0
  179.5000  175.4160  141.0640 C   0  0  0  0  0  3  0  0  0  0  0  0
  181.1850  173.4180  137.0290 O   0  0  0  0  0  0  0  0  0  0  0  0
  179.0880  172.7530  137.6500 O   0  0  0  0  0  1  0  0  0  0  0  0
  179.9960  173.6020  137.7750 C   0  0  0  0  0  0  0  0  0  0  0  0
  180.6110  179.4120  137.2060 C   0  0  0  0  0  0  0  0  0  0  0  0
  180.4940  178.4310  136.4780 O   0  0  0  0  0  0  0  0  0  0  0  0
  180.2310  179.4190  138.5800 N   0  0  0  0  0  2  0  0  0  0  0  0
  181.2100  180.7160  136.6580 C   0  0  0  0  0  2  0  0  0  0  0  0
  180.3250  181.9010  136.3280 N   0  0  0  0  0  0  0  0  0  0  0  0
  178.9410  181.4130  136.2670 C   0  0  0  0  0  1  0  0  0  0  0  0
  180.5680  182.5550  135.0430 C   0  0  0  0  0  2  0  0  0  0  0  0
  180.8010  184.0780  135.1340 C   0  0  0  0  0  2  0  0  0  0  0  0
  180.7500  184.8170  137.4930 C   0  0  0  0  0  0  0  0  0  0  0  0
  180.0710  185.4000  138.5760 N   0  0  0  0  0  1  0  0  0  0  0  0
  182.0220  184.2650  137.7010 N   0  0  0  0  0  1  0  0  0  0  0  0
  180.1230  184.5700  136.3520 N   0  0  0  0  0  0  0  0  0  0  0  0
  179.5170  178.3400  143.2440 C   0  0  0  0  0  1  0  0  0  0  0  0
  179.5730  176.9850  142.7940 O   0  0  0  0  0  0  0  0  0  0  0  0
  185.4000  179.1810  141.9220 F   0  0  0  0  0  0  0  0  0  0  0  0
  185.0800  177.2490  140.9420 F   0  0  0  0  0  0  0  0  0  0  0  0
  186.4960  178.6880  140.0470 F   0  0  0  0  0  0  0  0  0  0  0  0
  185.3000  178.5630  140.6620 C   0  0  0  0  0  0  0  0  0  0  0  0
  184.0990  177.6120  136.2500 C   0  0  0  0  0  2  0  0  0  0  0  0
  185.3110  177.5250  135.3440 C   0  0  1  0  0  3  0  0  0  0  0  0
  185.7510  178.7150  134.7910 O   0  0  0  0  0  1  0  0  0  0  0  0
  186.0290  174.5620  137.1700 C   0  0  0  0  0  1  0  0  0  0  0  0
  188.7530  176.0700  136.4250 C   0  0  1  0  0  3  0  0  0  0  0  0
  186.5150  176.8480  136.0810 C   0  0  2  0  0  0  0  0  0  0  0  0
  186.9070  177.3120  137.5010 C   0  0  0  0  0  3  0  0  0  0  0  0
  187.5600  176.0200  135.4750 C   0  0  2  0  0  3  0  0  0  0  0  0
  185.5280  174.9400  134.8100 O   0  0  0  0  0  1  0  0  0  0  0  0
  188.3450  176.9320  137.7040 C   0  0  0  0  0  3  0  0  0  0  0  0
  186.2370  175.3510  135.9060 C   0  0  1  0  0  0  0  0  0  0  0  0
  189.4780  174.6790  136.5390 C   0  0  1  0  0  3  0  0  0  0  0  0
  190.3950  174.5780  135.4390 C   0  0  0  0  0  3  0  0  0  0  0  0
  190.0840  173.3320  134.6680 C   0  0  0  0  0  2  0  0  0  0  0  0
  191.2740  173.3070  135.5750 C   0  0  0  0  0  2  0  0  0  0  0  0
  190.2380  174.3650  137.8570 C   0  0  0  0  0  2  0  0  0  0  0  0
  191.0410  176.4750  139.0970 O   0  0  0  0  0  1  0  0  0  0  0  0
  191.3880  175.5210  138.1430 C   0  0  2  0  0  3  0  0  0  0  0  0
  192.4980  176.0710  137.1630 C   0  0  0  0  0  2  0  0  0  0  0  0
  193.9000  175.4280  137.2060 N   0  0  0  0  0  0  0  0  0  0  0  0
  194.7050  175.8320  136.1180 C   0  0  0  0  0  3  0  0  0  0  0  0
  193.8870  176.4880  135.0120 C   0  0  0  0  0  1  0  0  0  0  0  0
  195.4920  174.5490  135.5090 C   0  0  0  0  0  1  0  0  0  0  0  0
  193.8300  176.6210  139.1280 O   0  0  0  0  0  1  0  0  0  0  0  0
  194.5440  175.6880  138.4230 N   0  0  0  0  0  2  0  0  0  0  0  0
  1  2  2  0  0  0  0
  3 36  1  1  0  0  0
  4 37  1  6  0  0  0
  4  6  1  0  0  0  0
  4  7  1  0  0  0  0
  5  3  1  0  0  0  0
  5  1  1  0  0  0  0
  6  3  1  0  0  0  0
  7  5  1  0  0  0  0
  8 32  1  0  0  0  0
  9 14  1  0  0  0  0
 10 15  1  0  0  0  0
 11  9  1  0  0  0  0
 11 13  1  0  0  0  0
 12  1  1  1  0  0  0
 12  8  1  0  0  0  0
 13 10  2  0  0  0  0
 14 21  1  6  0  0  0
 14 12  1  0  0  0  0
 15  8  2  0  0  0  0
 16 18  2  0  0  0  0
 17 18  1  0  0  0  0
 18 13  1  0  0  0  0
 19 21  1  0  0  0  0
 20 19  2  0  0  0  0
 22 19  1  0  0  0  0
 23 22  1  0  0  0  0
 24 23  1  0  0  0  0
 25 26  1  0  0  0  0
 25 23  1  0  0  0  0
 26 30  1  0  0  0  0
 27 29  1  0  0  0  0
 27 28  1  0  0  0  0
 30 27  2  0  0  0  0
 32 31  1  0  0  0  0
 35 36  1  0  0  0  0
 36 34  1  0  0  0  0
 36 33  1  0  0  0  0
 38 39  1  1  0  0  0
 38 37  1  0  0  0  0
 41 48  1  1  0  0  0
 41 46  1  0  0  0  0
 42 38  1  6  0  0  0
 42 43  1  0  0  0  0
 43 46  2  0  0  0  0
 44 47  1  0  0  0  0
 44 42  1  0  0  0  0
 44 41  1  0  0  0  0
 45 47  1  0  0  0  0
 47 42  1  0  0  0  0
 47 40  1  0  0  0  0
 48 52  1  0  0  0  0
 49 51  1  0  0  0  0
 49 48  1  0  0  0  0
 50 49  1  0  0  0  0
 50 51  1  0  0  0  0
 52 54  1  0  0  0  0
 54 53  1  0  0  0  0
 55 56  1  0  0  0  0
 55 54  1  0  0  0  0
 56 61  1  0  0  0  0
 57 56  1  0  0  0  0
 58 57  1  0  0  0  0
 59 57  1  0  0  0  0
 61 60  1  0  0  0  0
M  END
>  <MODEL>
7

>  <REMARK>
 VINA RESULT:      -3.1      2.270      3.122
  Name = 
  21 active torsions:
  status: ('A' for Active; 'I' for Inactive)
    1  A    between atoms: N_1  and  C_32
    2  A    between atoms: N_1  and  C_60
    3  A    between atoms: C_4  and  O_44
    4  A    between atoms: C_7  and  C_47
    5  A    between atoms: C_8  and  N_28
    6  A    between atoms: C_11  and  C_45
    7  A    between atoms: C_18  and  C_20
    8  A    between atoms: C_18  and  C_21
    9  A    between atoms: C_19  and  C_60
   10  A    between atoms: C_21  and  C_24
   11  A    between atoms: C_23  and  C_54
   12  A    between atoms: N_28  and  N_43
   13  A    between atoms: N_28  and  C_53
   14  A    between atoms: C_31  and  C_47
   15  A    between atoms: C_32  and  C_36
   16  A    between atoms: N_34  and  C_52
   17  A    between atoms: C_36  and  N_61
   18  A    between atoms: C_39  and  C_40
   19  A    between atoms: C_39  and  C_53
   20  A    between atoms: C_40  and  C_47
   21  A    between atoms: CA_49  and  C_50
                            x       y       z     vdW  Elec       q    Type
                         _______ _______ _______ _____ _____    ______ ____

>  <TORSDO>
F 21

$$$$
=
 OpenBabel11062413563D

 61 65  0  0  1  0  0  0  0  0999 V2000
  182.3340  176.4600  137.6570 C   0  0  0  0  0  0  0  0  0  0  0  0
  181.3140  176.3150  138.3930 O   0  0  0  0  0  0  0  0  0  0  0  0
  183.1830  178.4020  139.0640 C   0  0  2  0  0  3  0  0  0  0  0  0
  185.5030  178.3850  138.3430 C   0  0  1  0  0  3  0  0  0  0  0  0
  183.4140  177.3040  138.1050 N   0  0  0  0  0  0  0  0  0  0  0  0
  184.4030  179.3370  138.8460 C   0  0  0  0  0  2  0  0  0  0  0  0
  184.7440  177.3260  137.5880 C   0  0  0  0  0  2  0  0  0  0  0  0
  181.2520  176.1480  135.1690 C   0  0  0  0  0  0  0  0  0  0  0  0
  182.8300  173.4280  135.4450 C   0  0  0  0  0  2  0  0  0  0  0  0
  179.7970  174.0420  135.1550 C   0  0  0  0  0  3  0  0  0  0  0  0
  181.6620  172.9220  136.2160 N   0  0  0  0  0  2  0  0  0  0  0  0
  182.3130  175.7870  136.2890 C   0  0  1  0  0  3  0  0  0  0  0  0
  180.3290  172.9500  135.7280 C   0  0  0  0  0  0  0  0  0  0  0  0
  183.3620  174.7630  135.8090 C   0  0  1  0  0  3  0  0  0  0  0  0
  180.2870  175.3450  134.7890 C   0  0  0  0  0  3  0  0  0  0  0  0
  178.9310  171.5300  137.1310 O   0  0  0  0  0  1  0  0  0  0  0  0
  179.1850  171.0200  134.9180 O   0  0  0  0  0  0  0  0  0  0  0  0
  179.4700  171.8010  135.8510 C   0  0  0  0  0  0  0  0  0  0  0  0
  185.8520  174.0730  136.2560 C   0  0  0  0  0  0  0  0  0  0  0  0
  186.1010  173.7990  135.0870 O   0  0  0  0  0  0  0  0  0  0  0  0
  184.5870  174.5640  136.6940 N   0  0  0  0  0  2  0  0  0  0  0  0
  186.9190  173.8750  137.3430 C   0  0  0  0  0  2  0  0  0  0  0  0
  188.2870  174.5130  137.2160 N   0  0  0  0  0  0  0  0  0  0  0  0
  188.1890  175.5660  136.1960 C   0  0  0  0  0  1  0  0  0  0  0  0
  189.3740  173.6400  136.7750 C   0  0  0  0  0  2  0  0  0  0  0  0
  190.2000  174.1920  135.5940 C   0  0  0  0  0  2  0  0  0  0  0  0
  192.6700  174.0800  135.5990 C   0  0  0  0  0  0  0  0  0  0  0  0
  193.8590  173.3380  135.6980 N   0  0  0  0  0  1  0  0  0  0  0  0
  192.7400  175.4440  135.2780 N   0  0  0  0  0  1  0  0  0  0  0  0
  191.4930  173.4740  135.5690 N   0  0  0  0  0  0  0  0  0  0  0  0
  180.2640  178.4560  135.0740 C   0  0  0  0  0  1  0  0  0  0  0  0
  181.2170  177.4840  134.6380 O   0  0  0  0  0  0  0  0  0  0  0  0
  183.5870  178.8670  141.4700 F   0  0  0  0  0  0  0  0  0  0  0  0
  181.9490  177.5440  140.8660 F   0  0  0  0  0  0  0  0  0  0  0  0
  184.0330  176.8430  140.6520 F   0  0  0  0  0  0  0  0  0  0  0  0
  183.2120  177.9070  140.5110 C   0  0  0  0  0  0  0  0  0  0  0  0
  186.6050  179.0180  137.4990 C   0  0  0  0  0  2  0  0  0  0  0  0
  188.0550  178.6680  137.7640 C   0  0  1  0  0  3  0  0  0  0  0  0
  188.9990  179.5630  137.2880 O   0  0  0  0  0  1  0  0  0  0  0  0
  188.8690  176.0360  140.0090 C   0  0  0  0  0  1  0  0  0  0  0  0
  189.2040  178.8620  141.4760 C   0  0  1  0  0  3  0  0  0  0  0  0
  188.3090  178.4490  139.2930 C   0  0  2  0  0  0  0  0  0  0  0  0
  187.1140  178.3380  140.2640 C   0  0  0  0  0  3  0  0  0  0  0  0
  189.5710  178.6530  140.0090 C   0  0  2  0  0  3  0  0  0  0  0  0
  190.1600  177.1370  138.2520 O   0  0  0  0  0  1  0  0  0  0  0  0
  187.6230  178.6980  141.6300 C   0  0  0  0  0  3  0  0  0  0  0  0
  189.3190  177.2960  139.3190 C   0  0  1  0  0  0  0  0  0  0  0  0
  190.2240  178.1630  142.4470 C   0  0  1  0  0  3  0  0  0  0  0  0
  191.5450  178.4790  141.9860 C   0  0  0  0  0  3  0  0  0  0  0  0
  192.0780  177.3070  141.2180 C   0  0  0  0  0  2  0  0  0  0  0  0
  192.5880  177.5140  142.6090 C   0  0  0  0  0  2  0  0  0  0  0  0
  190.1280  178.4980  143.9610 C   0  0  0  0  0  2  0  0  0  0  0  0
  189.9470  175.9330  144.1110 O   0  0  0  0  0  1  0  0  0  0  0  0
  189.8520  177.1200  144.8350 C   0  0  2  0  0  3  0  0  0  0  0  0
  188.9610  176.9310  146.1250 C   0  0  0  0  0  2  0  0  0  0  0  0
  187.5080  177.4520  146.0980 N   0  0  0  0  0  0  0  0  0  0  0  0
  187.2900  178.4720  147.0510 C   0  0  0  0  0  3  0  0  0  0  0  0
  187.9280  178.1470  148.3960 C   0  0  0  0  0  1  0  0  0  0  0  0
  185.6960  178.7000  147.2580 C   0  0  0  0  0  1  0  0  0  0  0  0
  185.8740  177.4570  144.5330 O   0  0  0  0  0  1  0  0  0  0  0  0
  187.1450  177.8840  144.8160 N   0  0  0  0  0  2  0  0  0  0  0  0
  1  5  1  0  0  0  0
  1  2  2  0  0  0  0
  3 36  1  1  0  0  0
  4 37  1  6  0  0  0
  4  6  1  0  0  0  0
  5  3  1  0  0  0  0
  6  3  1  0  0  0  0
  7  5  1  0  0  0  0
  7  4  1  0  0  0  0
  8 12  1  0  0  0  0
  9 14  1  0  0  0  0
  9 11  1  0  0  0  0
 10 13  2  0  0  0  0
 12  1  1  6  0  0  0
 13 18  1  0  0  0  0
 13 11  1  0  0  0  0
 14 12  1  0  0  0  0
 14 21  1  1  0  0  0
 15 10  1  0  0  0  0
 15  8  2  0  0  0  0
 17 18  2  0  0  0  0
 18 16  1  0  0  0  0
 19 21  1  0  0  0  0
 19 22  1  0  0  0  0
 20 19  2  0  0  0  0
 23 22  1  0  0  0  0
 24 23  1  0  0  0  0
 25 23  1  0  0  0  0
 26 25  1  0  0  0  0
 27 28  1  0  0  0  0
 29 27  1  0  0  0  0
 30 26  1  0  0  0  0
 30 27  2  0  0  0  0
 32 31  1  0  0  0  0
 32  8  1  0  0  0  0
 36 35  1  0  0  0  0
 36 34  1  0  0  0  0
 36 33  1  0  0  0  0
 37 38  1  0  0  0  0
 38 39  1  1  0  0  0
 41 46  1  0  0  0  0
 41 48  1  1  0  0  0
 42 38  1  6  0  0  0
 42 47  1  0  0  0  0
 42 44  1  0  0  0  0
 42 43  1  0  0  0  0
 43 46  2  0  0  0  0
 44 41  1  0  0  0  0
 45 47  1  0  0  0  0
 47 40  1  0  0  0  0
 47 44  1  0  0  0  0
 48 52  1  0  0  0  0
 49 48  1  0  0  0  0
 49 51  1  0  0  0  0
 50 49  1  0  0  0  0
 50 51  1  0  0  0  0
 52 54  1  0  0  0  0
 53 54  1  0  0  0  0
 54 55  1  0  0  0  0
 56 55  1  0  0  0  0
 56 57  1  0  0  0  0
 57 59  1  0  0  0  0
 57 58  1  0  0  0  0
 60 61  1  0  0  0  0
 61 56  1  0  0  0  0
M  END
>  <MODEL>
8

>  <REMARK>
 VINA RESULT:      -3.0      3.123      6.762
  Name = 
  21 active torsions:
  status: ('A' for Active; 'I' for Inactive)
    1  A    between atoms: N_1  and  C_32
    2  A    between atoms: N_1  and  C_60
    3  A    between atoms: C_4  and  O_44
    4  A    between atoms: C_7  and  C_47
    5  A    between atoms: C_8  and  N_28
    6  A    between atoms: C_11  and  C_45
    7  A    between atoms: C_18  and  C_20
    8  A    between atoms: C_18  and  C_21
    9  A    between atoms: C_19  and  C_60
   10  A    between atoms: C_21  and  C_24
   11  A    between atoms: C_23  and  C_54
   12  A    between atoms: N_28  and  N_43
   13  A    between atoms: N_28  and  C_53
   14  A    between atoms: C_31  and  C_47
   15  A    between atoms: C_32  and  C_36
   16  A    between atoms: N_34  and  C_52
   17  A    between atoms: C_36  and  N_61
   18  A    between atoms: C_39  and  C_40
   19  A    between atoms: C_39  and  C_53
   20  A    between atoms: C_40  and  C_47
   21  A    between atoms: CA_49  and  C_50
                            x       y       z     vdW  Elec       q    Type
                         _______ _______ _______ _____ _____    ______ ____

>  <TORSDO>
F 21

$$$$
=
 OpenBabel11062413563D

 61 65  0  0  1  0  0  0  0  0999 V2000
  188.3540  178.1910  139.6350 C   0  0  0  0  0  0  0  0  0  0  0  0
  188.8000  179.3760  139.6010 O   0  0  0  0  0  0  0  0  0  0  0  0
  186.9150  178.5790  137.5740 C   0  0  2  0  0  3  0  0  0  0  0  0
  186.5350  176.2610  136.9550 C   0  0  1  0  0  3  0  0  0  0  0  0
  187.6260  177.6780  138.5010 N   0  0  0  0  0  0  0  0  0  0  0  0
  185.8760  177.6500  136.8900 C   0  0  0  0  0  2  0  0  0  0  0  0
  187.3440  176.3070  138.2240 C   0  0  0  0  0  2  0  0  0  0  0  0
  187.6650  177.6420  142.2190 C   0  0  0  0  0  0  0  0  0  0  0  0
  190.5790  176.4340  142.1430 C   0  0  0  0  0  2  0  0  0  0  0  0
  189.3490  178.7680  143.7850 C   0  0  0  0  0  3  0  0  0  0  0  0
  191.0730  177.8190  142.3770 N   0  0  0  0  0  2  0  0  0  0  0  0
  188.5500  177.4060  140.9270 C   0  0  1  0  0  3  0  0  0  0  0  0
  190.6440  178.6310  143.4600 C   0  0  0  0  0  0  0  0  0  0  0  0
  189.5510  176.2440  141.0930 C   0  0  1  0  0  3  0  0  0  0  0  0
  188.1130  178.1930  143.3220 C   0  0  0  0  0  3  0  0  0  0  0  0
  192.7740  178.7010  144.6430 O   0  0  0  0  0  1  0  0  0  0  0  0
  191.4360  180.5540  144.6270 O   0  0  0  0  0  0  0  0  0  0  0  0
  191.5920  179.3730  144.2500 C   0  0  0  0  0  0  0  0  0  0  0  0
  191.0090  176.5440  138.9340 C   0  0  0  0  0  0  0  0  0  0  0  0
  191.2340  177.7350  139.1190 O   0  0  0  0  0  0  0  0  0  0  0  0
  190.2420  175.7430  139.8310 N   0  0  0  0  0  2  0  0  0  0  0  0
  191.5430  175.8400  137.6780 C   0  0  0  0  0  2  0  0  0  0  0  0
  192.9220  176.1540  137.1370 N   0  0  0  0  0  0  0  0  0  0  0  0
  192.8600  176.0300  135.6740 C   0  0  0  0  0  1  0  0  0  0  0  0
  194.0050  175.2670  137.5600 C   0  0  0  0  0  2  0  0  0  0  0  0
  193.6730  173.7630  137.4680 C   0  0  0  0  0  2  0  0  0  0  0  0
  195.2910  172.0180  136.7960 C   0  0  0  0  0  0  0  0  0  0  0  0
  196.1000  171.4120  135.8190 N   0  0  0  0  0  1  0  0  0  0  0  0
  195.3730  171.5720  138.1230 N   0  0  0  0  0  1  0  0  0  0  0  0
  194.6380  173.1400  136.5360 N   0  0  0  0  0  0  0  0  0  0  0  0
  185.3290  178.3800  141.6630 C   0  0  0  0  0  1  0  0  0  0  0  0
  186.2480  177.4040  142.1560 O   0  0  0  0  0  0  0  0  0  0  0  0
  187.6820  178.5740  135.2120 F   0  0  0  0  0  0  0  0  0  0  0  0
  187.5750  180.4550  136.3280 F   0  0  0  0  0  0  0  0  0  0  0  0
  189.1440  178.9880  136.8410 F   0  0  0  0  0  0  0  0  0  0  0  0
  187.8470  179.1320  136.4930 C   0  0  0  0  0  0  0  0  0  0  0  0
  185.5870  175.0660  136.9180 C   0  0  0  0  0  2  0  0  0  0  0  0
  184.7570  174.7980  135.6790 C   0  0  1  0  0  3  0  0  0  0  0  0
  184.7910  173.5060  135.1840 O   0  0  0  0  0  1  0  0  0  0  0  0
  181.5190  173.3450  135.4900 C   0  0  0  0  0  1  0  0  0  0  0  0
  181.3640  176.1560  137.0150 C   0  0  1  0  0  3  0  0  0  0  0  0
  183.2610  175.2000  135.9090 C   0  0  2  0  0  0  0  0  0  0  0  0
  182.5030  175.9980  134.8260 C   0  0  0  0  0  3  0  0  0  0  0  0
  182.5400  175.1970  137.1840 C   0  0  2  0  0  3  0  0  0  0  0  0
  183.3900  172.9650  137.0130 O   0  0  0  0  0  1  0  0  0  0  0  0
  181.3660  176.6980  135.5140 C   0  0  0  0  0  3  0  0  0  0  0  0
  182.6130  173.8890  136.3690 C   0  0  1  0  0  0  0  0  0  0  0  0
  180.0630  175.6270  137.7210 C   0  0  1  0  0  3  0  0  0  0  0  0
  180.4720  174.7630  138.7910 C   0  0  0  0  0  3  0  0  0  0  0  0
  179.5560  173.5780  138.8270 C   0  0  0  0  0  2  0  0  0  0  0  0
  179.3510  174.6440  139.8570 C   0  0  0  0  0  2  0  0  0  0  0  0
  179.0640  176.6790  138.2790 C   0  0  0  0  0  2  0  0  0  0  0  0
  179.5870  178.5740  136.6140 O   0  0  0  0  0  1  0  0  0  0  0  0
  179.6080  178.2090  137.9580 C   0  0  2  0  0  3  0  0  0  0  0  0
  180.6520  179.0750  138.7680 C   0  0  0  0  0  2  0  0  0  0  0  0
  180.3840  179.3400  140.2640 N   0  0  0  0  0  0  0  0  0  0  0  0
  181.4750  178.9590  141.0770 C   0  0  0  0  0  3  0  0  0  0  0  0
  182.1690  177.7060  140.5550 C   0  0  0  0  0  1  0  0  0  0  0  0
  180.9640  178.6920  142.5940 C   0  0  0  0  0  1  0  0  0  0  0  0
  180.2630  181.4080  139.3540 O   0  0  0  0  0  1  0  0  0  0  0  0
  180.0400  180.6780  140.4920 N   0  0  0  0  0  2  0  0  0  0  0  0
  2  1  2  0  0  0  0
  3 36  1  6  0  0  0
  3  5  1  0  0  0  0
  4 37  1  1  0  0  0
  4  7  1  0  0  0  0
  5  1  1  0  0  0  0
  6  4  1  0  0  0  0
  6  3  1  0  0  0  0
  7  5  1  0  0  0  0
  8 15  2  0  0  0  0
  9 11  1  0  0  0  0
 11 13  1  0  0  0  0
 12  1  1  6  0  0  0
 12 14  1  0  0  0  0
 12  8  1  0  0  0  0
 13 10  2  0  0  0  0
 13 18  1  0  0  0  0
 14 21  1  6  0  0  0
 14  9  1  0  0  0  0
 15 10  1  0  0  0  0
 18 17  2  0  0  0  0
 18 16  1  0  0  0  0
 19 20  2  0  0  0  0
 19 21  1  0  0  0  0
 22 19  1  0  0  0  0
 23 25  1  0  0  0  0
 23 22  1  0  0  0  0
 24 23  1  0  0  0  0
 26 25  1  0  0  0  0
 27 29  1  0  0  0  0
 28 27  1  0  0  0  0
 30 27  2  0  0  0  0
 30 26  1  0  0  0  0
 31 32  1  0  0  0  0
 32  8  1  0  0  0  0
 33 36  1  0  0  0  0
 34 36  1  0  0  0  0
 36 35  1  0  0  0  0
 38 39  1  1  0  0  0
 38 37  1  0  0  0  0
 40 47  1  0  0  0  0
 41 44  1  0  0  0  0
 41 48  1  6  0  0  0
 42 38  1  1  0  0  0
 42 47  1  0  0  0  0
 42 44  1  0  0  0  0
 43 46  2  0  0  0  0
 43 42  1  0  0  0  0
 46 41  1  0  0  0  0
 47 45  1  0  0  0  0
 47 44  1  0  0  0  0
 48 52  1  0  0  0  0
 48 49  1  0  0  0  0
 49 50  1  0  0  0  0
 49 51  1  0  0  0  0
 50 51  1  0  0  0  0
 53 54  1  0  0  0  0
 54 52  1  0  0  0  0
 54 55  1  0  0  0  0
 55 56  1  0  0  0  0
 56 61  1  0  0  0  0
 56 57  1  0  0  0  0
 57 59  1  0  0  0  0
 58 57  1  0  0  0  0
 60 61  1  0  0  0  0
M  END
>  <MODEL>
9

>  <REMARK>
 VINA RESULT:      -3.0      3.167     10.925
  Name = 
  21 active torsions:
  status: ('A' for Active; 'I' for Inactive)
    1  A    between atoms: N_1  and  C_32
    2  A    between atoms: N_1  and  C_60
    3  A    between atoms: C_4  and  O_44
    4  A    between atoms: C_7  and  C_47
    5  A    between atoms: C_8  and  N_28
    6  A    between atoms: C_11  and  C_45
    7  A    between atoms: C_18  and  C_20
    8  A    between atoms: C_18  and  C_21
    9  A    between atoms: C_19  and  C_60
   10  A    between atoms: C_21  and  C_24
   11  A    between atoms: C_23  and  C_54
   12  A    between atoms: N_28  and  N_43
   13  A    between atoms: N_28  and  C_53
   14  A    between atoms: C_31  and  C_47
   15  A    between atoms: C_32  and  C_36
   16  A    between atoms: N_34  and  C_52
   17  A    between atoms: C_36  and  N_61
   18  A    between atoms: C_39  and  C_40
   19  A    between atoms: C_39  and  C_53
   20  A    between atoms: C_40  and  C_47
   21  A    between atoms: CA_49  and  C_50
                            x       y       z     vdW  Elec       q    Type
                         _______ _______ _______ _____ _____    ______ ____

>  <TORSDO>
F 21

$$$$
