=
 OpenBabel11062415193D

 41 43  0  0  1  0  0  0  0  0999 V2000
  186.0590  177.3040  137.4160 C   0  0  2  0  0  3  0  0  0  0  0  0
  187.4050  177.4120  136.6750 C   0  0  2  0  0  3  0  0  0  0  0  0
  186.0530  177.6730  134.5940 C   0  0  0  0  0  2  0  0  0  0  0  0
  187.2470  178.2010  135.3800 C   0  0  0  0  0  2  0  0  0  0  0  0
  184.8660  177.7950  135.3530 O   0  0  0  0  0  0  0  0  0  0  0  0
  184.8810  176.9110  136.4700 C   0  0  1  0  0  0  0  0  0  0  0  0
  184.9510  173.4590  137.2130 C   0  0  0  0  0  0  0  0  0  0  0  0
  183.7600  173.5100  136.4010 C   0  0  0  0  0  0  0  0  0  0  0  0
  181.7440  174.0690  134.6220 C   0  0  0  0  0  3  0  0  0  0  0  0
  185.7010  174.6060  136.9830 O   0  0  0  0  0  0  0  0  0  0  0  0
  182.8000  174.9840  134.7610 C   0  0  0  0  0  3  0  0  0  0  0  0
  183.8000  174.6790  135.6850 C   0  0  0  0  0  0  0  0  0  0  0  0
  182.7080  172.6100  136.2520 C   0  0  0  0  0  3  0  0  0  0  0  0
  185.0630  175.4300  135.9990 C   0  0  1  0  0  3  0  0  0  0  0  0
  185.2970  172.4950  138.0540 C   0  0  0  0  0  2  0  0  0  0  0  0
  181.7180  172.9190  135.3630 N   0  0  0  0  0  0  0  0  0  0  0  0
  188.0270  176.0460  136.4070 C   0  0  0  0  0  2  0  0  0  0  0  0
  189.5450  176.1270  136.4530 C   0  0  2  0  0  3  0  0  0  0  0  0
  189.1570  173.8340  137.0330 F   0  0  0  0  0  0  0  0  0  0  0  0
  190.1440  174.7460  136.6950 C   0  0  0  0  0  2  0  0  0  0  0  0
  189.9700  177.1100  137.5310 C   0  0  0  0  0  2  0  0  0  0  0  0
  190.3320  176.3660  138.8010 C   0  0  0  0  0  2  0  0  0  0  0  0
  189.5000  177.2890  140.8980 C   0  0  0  0  0  2  0  0  0  0  0  0
  190.4110  177.3270  139.9340 C   0  0  0  0  0  3  0  0  0  0  0  0
  185.8000  178.5230  138.0560 O   0  0  0  0  0  0  0  0  0  0  0  0
  186.5160  178.4580  139.2540 C   0  0  0  0  0  2  0  0  0  0  0  0
  185.6590  178.9140  140.3800 C   0  0  0  0  0  0  0  0  0  0  0  0
  185.8940  178.4460  141.6650 O   0  0  0  0  0  1  0  0  0  0  0  0
  184.7030  179.7050  140.1650 O   0  0  0  0  0  0  0  0  0  0  0  0
  183.5400  177.1230  137.2330 C   0  0  2  0  0  3  0  0  0  0  0  0
  182.9840  178.5470  137.1480 C   0  0  0  0  0  2  0  0  0  0  0  0
  179.2240  180.1490  138.6030 O   0  0  0  0  0  0  0  0  0  0  0  0
  180.3700  179.8640  138.1680 C   0  0  0  0  0  0  0  0  0  0  0  0
  181.5160  180.3140  138.8800 N   0  0  0  0  0  1  0  0  0  0  0  0
  181.6490  178.0540  135.2490 O   0  0  0  0  0  0  0  0  0  0  0  0
  181.6920  178.5710  136.3960 C   0  0  0  0  0  0  0  0  0  0  0  0
  180.4910  179.1200  136.9520 N   0  0  0  0  0  2  0  0  0  0  0  0
  183.6230  176.7060  138.5710 O   0  0  0  0  0  0  0  0  0  0  0  0
  182.3220  177.1210  140.5220 C   0  0  0  0  0  1  0  0  0  0  0  0
  182.3110  176.7320  139.0580 C   0  0  0  0  0  3  0  0  0  0  0  0
  181.6900  175.3560  138.9230 C   0  0  0  0  0  1  0  0  0  0  0  0
  1 25  1  6  0  0  0
  2 17  1  6  0  0  0
  2  1  1  0  0  0  0
  3  5  1  0  0  0  0
  3  4  1  0  0  0  0
  4  2  1  0  0  0  0
  5  6  1  0  0  0  0
  6 30  1  1  0  0  0
  6  1  1  0  0  0  0
  7 15  2  0  0  0  0
  8  7  1  0  0  0  0
  9 11  2  0  0  0  0
  9 16  1  0  0  0  0
 10  7  1  0  0  0  0
 11 12  1  0  0  0  0
 12  8  2  0  0  0  0
 13  8  1  0  0  0  0
 14 12  1  1  0  0  0
 14  6  1  0  0  0  0
 14 10  1  0  0  0  0
 16 13  2  0  0  0  0
 18 17  1  1  0  0  0
 18 20  1  0  0  0  0
 18 21  1  0  0  0  0
 20 19  1  0  0  0  0
 21 22  1  0  0  0  0
 22 24  1  0  0  0  0
 24 23  2  0  0  0  0
 25 26  1  0  0  0  0
 26 27  1  0  0  0  0
 27 28  1  0  0  0  0
 29 27  2  0  0  0  0
 30 31  1  1  0  0  0
 30 38  1  0  0  0  0
 33 32  2  0  0  0  0
 33 34  1  0  0  0  0
 35 36  2  0  0  0  0
 36 37  1  0  0  0  0
 36 31  1  0  0  0  0
 37 33  1  0  0  0  0
 38 40  1  0  0  0  0
 40 39  1  0  0  0  0
 41 40  1  0  0  0  0
M  END
>  <MODEL>
1

>  <REMARK>
 VINA RESULT:      -3.8      0.000      0.000
  Name = 
  15 active torsions:
  status: ('A' for Active; 'I' for Inactive)
    1  A    between atoms: C_4  and  C_13
    2  A    between atoms: C_4  and  C_14
    3  A    between atoms: C_5  and  C_16
    4  A    between atoms: C_7  and  O_11
    5  A    between atoms: C_8  and  C_10
    6  A    between atoms: C_8  and  C_13
    7  A    between atoms: C_10  and  C_39
    8  A    between atoms: O_11  and  C_16
    9  A    between atoms: C_13  and  C_36
   10  A    between atoms: C_19  and  C_32
   11  A    between atoms: C_19  and  C_35
   12  A    between atoms: O_21  and  C_33
   13  A    between atoms: O_21  and  C_35
   14  A    between atoms: C_30  and  C_41
   15  A    between atoms: C_35  and  C_41
                            x       y       z     vdW  Elec       q    Type
                         _______ _______ _______ _____ _____    ______ ____

>  <TORSDO>
F 15

$$$$
=
 OpenBabel11062415193D

 41 43  0  0  1  0  0  0  0  0999 V2000
  181.8980  177.3980  139.7800 C   0  0  2  0  0  3  0  0  0  0  0  0
  182.7370  178.3840  140.6160 C   0  0  2  0  0  3  0  0  0  0  0  0
  183.4810  179.3430  138.4360 C   0  0  0  0  0  2  0  0  0  0  0  0
  182.9890  179.6720  139.8390 C   0  0  0  0  0  2  0  0  0  0  0  0
  182.5240  178.5690  137.7410 O   0  0  0  0  0  0  0  0  0  0  0  0
  182.4080  177.2680  138.3110 C   0  0  1  0  0  0  0  0  0  0  0  0
  184.3230  174.3650  137.6940 C   0  0  0  0  0  0  0  0  0  0  0  0
  184.8340  175.2210  136.6510 C   0  0  0  0  0  0  0  0  0  0  0  0
  185.6500  177.2740  135.0200 C   0  0  0  0  0  3  0  0  0  0  0  0
  183.6930  175.1510  138.6510 O   0  0  0  0  0  0  0  0  0  0  0  0
  184.9300  177.5780  136.1870 C   0  0  0  0  0  3  0  0  0  0  0  0
  184.5160  176.5120  136.9850 C   0  0  0  0  0  0  0  0  0  0  0  0
  185.5500  174.9330  135.4920 C   0  0  0  0  0  3  0  0  0  0  0  0
  183.7920  176.5380  138.3030 C   0  0  1  0  0  3  0  0  0  0  0  0
  184.4160  173.0440  137.7540 C   0  0  0  0  0  2  0  0  0  0  0  0
  185.9380  175.9750  134.7000 N   0  0  0  0  0  0  0  0  0  0  0  0
  184.0500  177.7680  141.0870 C   0  0  0  0  0  2  0  0  0  0  0  0
  184.7500  178.6840  142.0780 C   0  0  2  0  0  3  0  0  0  0  0  0
  186.3580  178.5640  140.3060 F   0  0  0  0  0  0  0  0  0  0  0  0
  186.1700  178.9850  141.6130 C   0  0  0  0  0  2  0  0  0  0  0  0
  184.7450  178.0420  143.4560 C   0  0  0  0  0  2  0  0  0  0  0  0
  185.3630  178.9830  144.4710 C   0  0  0  0  0  2  0  0  0  0  0  0
  187.0440  177.2220  144.6090 C   0  0  0  0  0  2  0  0  0  0  0  0
  186.4970  178.3020  145.1530 C   0  0  0  0  0  3  0  0  0  0  0  0
  180.5600  177.8120  139.8090 O   0  0  0  0  0  0  0  0  0  0  0  0
  180.0790  177.3830  141.0490 C   0  0  0  0  0  2  0  0  0  0  0  0
  179.3130  178.4790  141.7000 C   0  0  0  0  0  0  0  0  0  0  0  0
  178.9930  178.3970  143.0480 O   0  0  0  0  0  1  0  0  0  0  0  0
  178.9310  179.4690  141.0230 O   0  0  0  0  0  0  0  0  0  0  0  0
  181.3360  176.5030  137.4790 C   0  0  2  0  0  3  0  0  0  0  0  0
  181.1500  175.0390  137.8860 C   0  0  0  0  0  2  0  0  0  0  0  0
  179.2880  172.5900  134.8270 O   0  0  0  0  0  0  0  0  0  0  0  0
  179.9090  173.1410  135.7720 C   0  0  0  0  0  0  0  0  0  0  0  0
  181.3260  173.0330  135.8300 N   0  0  0  0  0  1  0  0  0  0  0  0
  178.9310  175.0850  138.7210 O   0  0  0  0  0  0  0  0  0  0  0  0
  179.7080  174.6490  137.8330 C   0  0  0  0  0  0  0  0  0  0  0  0
  179.1710  173.8350  136.7830 N   0  0  0  0  0  2  0  0  0  0  0  0
  181.5680  176.6050  136.0980 O   0  0  0  0  0  0  0  0  0  0  0  0
  179.6740  176.6620  134.6580 C   0  0  0  0  0  1  0  0  0  0  0  0
  180.5610  177.4420  135.6060 C   0  0  0  0  0  3  0  0  0  0  0  0
  181.1830  178.5990  134.8510 C   0  0  0  0  0  1  0  0  0  0  0  0
  1 25  1  6  0  0  0
  1  2  1  0  0  0  0
  2 17  1  6  0  0  0
  3  4  1  0  0  0  0
  4  2  1  0  0  0  0
  5  6  1  0  0  0  0
  5  3  1  0  0  0  0
  6 30  1  6  0  0  0
  6  1  1  0  0  0  0
  7 15  2  0  0  0  0
  7 10  1  0  0  0  0
  8 12  1  0  0  0  0
  8  7  1  0  0  0  0
  9 11  1  0  0  0  0
 11 12  2  0  0  0  0
 13  8  2  0  0  0  0
 14 12  1  6  0  0  0
 14  6  1  0  0  0  0
 14 10  1  0  0  0  0
 16  9  2  0  0  0  0
 16 13  1  0  0  0  0
 18 17  1  6  0  0  0
 18 21  1  0  0  0  0
 19 20  1  0  0  0  0
 20 18  1  0  0  0  0
 21 22  1  0  0  0  0
 22 24  1  0  0  0  0
 23 24  2  0  0  0  0
 25 26  1  0  0  0  0
 26 27  1  0  0  0  0
 27 28  1  0  0  0  0
 29 27  2  0  0  0  0
 30 31  1  1  0  0  0
 32 33  2  0  0  0  0
 33 34  1  0  0  0  0
 33 37  1  0  0  0  0
 36 31  1  0  0  0  0
 36 35  2  0  0  0  0
 37 36  1  0  0  0  0
 38 30  1  0  0  0  0
 39 40  1  0  0  0  0
 40 38  1  0  0  0  0
 41 40  1  0  0  0  0
M  END
>  <MODEL>
2

>  <REMARK>
 VINA RESULT:      -3.8      3.168      5.476
  Name = 
  15 active torsions:
  status: ('A' for Active; 'I' for Inactive)
    1  A    between atoms: C_4  and  C_13
    2  A    between atoms: C_4  and  C_14
    3  A    between atoms: C_5  and  C_16
    4  A    between atoms: C_7  and  O_11
    5  A    between atoms: C_8  and  C_10
    6  A    between atoms: C_8  and  C_13
    7  A    between atoms: C_10  and  C_39
    8  A    between atoms: O_11  and  C_16
    9  A    between atoms: C_13  and  C_36
   10  A    between atoms: C_19  and  C_32
   11  A    between atoms: C_19  and  C_35
   12  A    between atoms: O_21  and  C_33
   13  A    between atoms: O_21  and  C_35
   14  A    between atoms: C_30  and  C_41
   15  A    between atoms: C_35  and  C_41
                            x       y       z     vdW  Elec       q    Type
                         _______ _______ _______ _____ _____    ______ ____

>  <TORSDO>
F 15

$$$$
=
 OpenBabel11062415193D

 41 43  0  0  1  0  0  0  0  0999 V2000
  185.0660  176.4500  137.3990 C   0  0  2  0  0  3  0  0  0  0  0  0
  185.9210  175.3390  136.7590 C   0  0  2  0  0  3  0  0  0  0  0  0
  184.3230  175.4380  134.8450 C   0  0  0  0  0  2  0  0  0  0  0  0
  185.7920  175.3670  135.2400 C   0  0  0  0  0  2  0  0  0  0  0  0
  183.7210  176.6010  135.3770 O   0  0  0  0  0  0  0  0  0  0  0  0
  183.6280  176.5240  136.7960 C   0  0  1  0  0  0  0  0  0  0  0  0
  181.0840  175.0530  138.7550 C   0  0  0  0  0  0  0  0  0  0  0  0
  180.4960  174.9110  137.4450 C   0  0  0  0  0  0  0  0  0  0  0  0
  179.9230  174.6480  134.7720 C   0  0  0  0  0  3  0  0  0  0  0  0
  182.4480  175.2770  138.6130 O   0  0  0  0  0  0  0  0  0  0  0  0
  181.2490  174.9010  135.1610 C   0  0  0  0  0  3  0  0  0  0  0  0
  181.5040  175.0460  136.5250 C   0  0  0  0  0  0  0  0  0  0  0  0
  179.1860  174.6580  137.0460 C   0  0  0  0  0  3  0  0  0  0  0  0
  182.8150  175.2590  137.2280 C   0  0  1  0  0  3  0  0  0  0  0  0
  180.4530  174.9900  139.9190 C   0  0  0  0  0  2  0  0  0  0  0  0
  178.9330  174.5380  135.7100 N   0  0  0  0  0  0  0  0  0  0  0  0
  185.5790  173.9590  137.3080 C   0  0  0  0  0  2  0  0  0  0  0  0
  186.1390  172.8670  136.4100 C   0  0  2  0  0  3  0  0  0  0  0  0
  183.8810  172.1350  136.7390 F   0  0  0  0  0  0  0  0  0  0  0  0
  185.1040  171.7660  136.2020 C   0  0  0  0  0  2  0  0  0  0  0  0
  187.4180  172.3150  137.0180 C   0  0  0  0  0  2  0  0  0  0  0  0
  188.6160  172.7570  136.2020 C   0  0  0  0  0  2  0  0  0  0  0  0
  190.0940  174.6920  136.3220 C   0  0  0  0  0  2  0  0  0  0  0  0
  189.3920  173.7690  136.9670 C   0  0  0  0  0  3  0  0  0  0  0  0
  185.7330  177.6720  137.2500 O   0  0  0  0  0  0  0  0  0  0  0  0
  186.9780  177.4760  137.8550 C   0  0  0  0  0  2  0  0  0  0  0  0
  187.8120  178.6970  137.6990 C   0  0  0  0  0  0  0  0  0  0  0  0
  188.8320  178.9610  138.6030 O   0  0  0  0  0  1  0  0  0  0  0  0
  187.5780  179.5060  136.7640 O   0  0  0  0  0  0  0  0  0  0  0  0
  182.9550  177.8450  137.2780 C   0  0  2  0  0  3  0  0  0  0  0  0
  183.0670  178.0950  138.7840 C   0  0  0  0  0  2  0  0  0  0  0  0
  179.9650  180.8270  140.1020 O   0  0  0  0  0  0  0  0  0  0  0  0
  180.8540  179.9620  139.8930 C   0  0  0  0  0  0  0  0  0  0  0  0
  180.5440  178.5860  140.0800 N   0  0  0  0  0  1  0  0  0  0  0  0
  184.3780  180.0690  138.8900 O   0  0  0  0  0  0  0  0  0  0  0  0
  183.2460  179.5500  139.0730 C   0  0  0  0  0  0  0  0  0  0  0  0
  182.1650  180.3860  139.5040 N   0  0  0  0  0  2  0  0  0  0  0  0
  181.6190  177.9390  136.8600 O   0  0  0  0  0  0  0  0  0  0  0  0
  180.7020  180.0810  136.3700 C   0  0  0  0  0  1  0  0  0  0  0  0
  181.5950  178.9530  135.8960 C   0  0  0  0  0  3  0  0  0  0  0  0
  181.0410  178.4070  134.5960 C   0  0  0  0  0  1  0  0  0  0  0  0
  1 25  1  6  0  0  0
  2 17  1  1  0  0  0
  2  1  1  0  0  0  0
  3  4  1  0  0  0  0
  3  5  1  0  0  0  0
  4  2  1  0  0  0  0
  5  6  1  0  0  0  0
  6 14  1  0  0  0  0
  6 30  1  1  0  0  0
  6  1  1  0  0  0  0
  7 15  2  0  0  0  0
  8  7  1  0  0  0  0
  9 11  2  0  0  0  0
  9 16  1  0  0  0  0
 10  7  1  0  0  0  0
 11 12  1  0  0  0  0
 12  8  2  0  0  0  0
 13  8  1  0  0  0  0
 14 12  1  6  0  0  0
 14 10  1  0  0  0  0
 16 13  2  0  0  0  0
 18 20  1  1  0  0  0
 18 21  1  0  0  0  0
 18 17  1  0  0  0  0
 20 19  1  0  0  0  0
 22 24  1  0  0  0  0
 22 21  1  0  0  0  0
 23 24  2  0  0  0  0
 25 26  1  0  0  0  0
 27 26  1  0  0  0  0
 27 28  1  0  0  0  0
 29 27  2  0  0  0  0
 30 31  1  1  0  0  0
 31 36  1  0  0  0  0
 33 34  1  0  0  0  0
 33 32  2  0  0  0  0
 35 36  2  0  0  0  0
 36 37  1  0  0  0  0
 37 33  1  0  0  0  0
 38 30  1  0  0  0  0
 40 39  1  0  0  0  0
 40 38  1  0  0  0  0
 41 40  1  0  0  0  0
M  END
>  <MODEL>
3

>  <REMARK>
 VINA RESULT:      -3.7      2.217      3.686
  Name = 
  15 active torsions:
  status: ('A' for Active; 'I' for Inactive)
    1  A    between atoms: C_4  and  C_13
    2  A    between atoms: C_4  and  C_14
    3  A    between atoms: C_5  and  C_16
    4  A    between atoms: C_7  and  O_11
    5  A    between atoms: C_8  and  C_10
    6  A    between atoms: C_8  and  C_13
    7  A    between atoms: C_10  and  C_39
    8  A    between atoms: O_11  and  C_16
    9  A    between atoms: C_13  and  C_36
   10  A    between atoms: C_19  and  C_32
   11  A    between atoms: C_19  and  C_35
   12  A    between atoms: O_21  and  C_33
   13  A    between atoms: O_21  and  C_35
   14  A    between atoms: C_30  and  C_41
   15  A    between atoms: C_35  and  C_41
                            x       y       z     vdW  Elec       q    Type
                         _______ _______ _______ _____ _____    ______ ____

>  <TORSDO>
F 15

$$$$
=
 OpenBabel11062415193D

 41 43  0  0  1  0  0  0  0  0999 V2000
  187.6250  177.6720  138.7970 C   0  0  2  0  0  3  0  0  0  0  0  0
  188.9260  177.8480  137.9910 C   0  0  2  0  0  3  0  0  0  0  0  0
  187.5290  179.0540  136.3110 C   0  0  0  0  0  2  0  0  0  0  0  0
  188.8390  179.0730  137.0880 C   0  0  0  0  0  2  0  0  0  0  0  0
  186.4270  179.0580  137.1970 O   0  0  0  0  0  0  0  0  0  0  0  0
  186.3450  177.8330  137.9180 C   0  0  1  0  0  0  0  0  0  0  0  0
  185.2190  174.5570  137.2270 C   0  0  0  0  0  0  0  0  0  0  0  0
  184.3840  175.3000  136.3140 C   0  0  0  0  0  0  0  0  0  0  0  0
  183.2230  177.0980  134.5940 C   0  0  0  0  0  3  0  0  0  0  0  0
  186.2950  175.3530  137.6010 O   0  0  0  0  0  0  0  0  0  0  0  0
  184.4040  177.4610  135.2600 C   0  0  0  0  0  3  0  0  0  0  0  0
  184.9600  176.5320  136.1400 C   0  0  0  0  0  0  0  0  0  0  0  0
  183.2140  174.9510  135.6450 C   0  0  0  0  0  3  0  0  0  0  0  0
  186.2330  176.6210  136.9340 C   0  0  1  0  0  3  0  0  0  0  0  0
  185.0170  173.3210  137.6610 C   0  0  0  0  0  2  0  0  0  0  0  0
  182.6580  175.8690  134.8000 N   0  0  0  0  0  0  0  0  0  0  0  0
  189.2780  176.6020  137.1860 C   0  0  0  0  0  2  0  0  0  0  0  0
  190.1140  175.6420  138.0170 C   0  0  2  0  0  3  0  0  0  0  0  0
  192.2120  176.7740  137.7700 F   0  0  0  0  0  0  0  0  0  0  0  0
  191.2580  176.3860  138.6980 C   0  0  0  0  0  2  0  0  0  0  0  0
  190.6330  174.5210  137.1320 C   0  0  0  0  0  2  0  0  0  0  0  0
  189.5670  173.4580  136.9580 C   0  0  0  0  0  2  0  0  0  0  0  0
  190.8040  172.9310  134.9250 C   0  0  0  0  0  2  0  0  0  0  0  0
  189.6560  172.8850  135.5880 C   0  0  0  0  0  3  0  0  0  0  0  0
  187.6230  178.5930  139.8530 O   0  0  0  0  0  0  0  0  0  0  0  0
  188.9340  178.5830  140.3380 C   0  0  0  0  0  2  0  0  0  0  0  0
  188.9880  177.8520  141.6330 C   0  0  0  0  0  0  0  0  0  0  0  0
  190.2090  177.6170  142.2470 O   0  0  0  0  0  1  0  0  0  0  0  0
  187.9280  177.4240  142.1590 O   0  0  0  0  0  0  0  0  0  0  0  0
  185.1070  177.9410  138.8580 C   0  0  2  0  0  3  0  0  0  0  0  0
  184.2320  179.1720  138.6070 C   0  0  0  0  0  2  0  0  0  0  0  0
  180.7550  181.7470  138.9220 O   0  0  0  0  0  0  0  0  0  0  0  0
  181.8060  181.1010  138.6780 C   0  0  0  0  0  0  0  0  0  0  0  0
  183.0460  181.7940  138.5960 N   0  0  0  0  0  1  0  0  0  0  0  0
  182.5780  177.5820  138.0040 O   0  0  0  0  0  0  0  0  0  0  0  0
  182.8190  178.7750  138.3260 C   0  0  0  0  0  0  0  0  0  0  0  0
  181.7240  179.6900  138.4570 N   0  0  0  0  0  2  0  0  0  0  0  0
  185.4650  177.8580  140.2120 O   0  0  0  0  0  0  0  0  0  0  0  0
  185.2590  179.3890  142.0240 C   0  0  0  0  0  1  0  0  0  0  0  0
  184.5510  178.6690  140.8950 C   0  0  0  0  0  3  0  0  0  0  0  0
  183.4470  177.8120  141.4800 C   0  0  0  0  0  1  0  0  0  0  0  0
  1 25  1  1  0  0  0
  2 17  1  6  0  0  0
  2  1  1  0  0  0  0
  3  4  1  0  0  0  0
  3  5  1  0  0  0  0
  4  2  1  0  0  0  0
  5  6  1  0  0  0  0
  6  1  1  0  0  0  0
  6 30  1  1  0  0  0
  7 10  1  0  0  0  0
  7 15  2  0  0  0  0
  8  7  1  0  0  0  0
  9 16  2  0  0  0  0
  9 11  1  0  0  0  0
 11 12  2  0  0  0  0
 12  8  1  0  0  0  0
 13  8  2  0  0  0  0
 14 12  1  1  0  0  0
 14 10  1  0  0  0  0
 14  6  1  0  0  0  0
 16 13  1  0  0  0  0
 17 18  1  0  0  0  0
 18 21  1  6  0  0  0
 18 20  1  0  0  0  0
 19 20  1  0  0  0  0
 22 21  1  0  0  0  0
 23 24  2  0  0  0  0
 24 22  1  0  0  0  0
 25 26  1  0  0  0  0
 26 27  1  0  0  0  0
 27 29  2  0  0  0  0
 27 28  1  0  0  0  0
 30 31  1  1  0  0  0
 30 38  1  0  0  0  0
 33 32  2  0  0  0  0
 34 33  1  0  0  0  0
 35 36  2  0  0  0  0
 36 37  1  0  0  0  0
 36 31  1  0  0  0  0
 37 33  1  0  0  0  0
 38 40  1  0  0  0  0
 40 41  1  0  0  0  0
 40 39  1  0  0  0  0
M  END
>  <MODEL>
4

>  <REMARK>
 VINA RESULT:      -3.7      1.839      3.095
  Name = 
  15 active torsions:
  status: ('A' for Active; 'I' for Inactive)
    1  A    between atoms: C_4  and  C_13
    2  A    between atoms: C_4  and  C_14
    3  A    between atoms: C_5  and  C_16
    4  A    between atoms: C_7  and  O_11
    5  A    between atoms: C_8  and  C_10
    6  A    between atoms: C_8  and  C_13
    7  A    between atoms: C_10  and  C_39
    8  A    between atoms: O_11  and  C_16
    9  A    between atoms: C_13  and  C_36
   10  A    between atoms: C_19  and  C_32
   11  A    between atoms: C_19  and  C_35
   12  A    between atoms: O_21  and  C_33
   13  A    between atoms: O_21  and  C_35
   14  A    between atoms: C_30  and  C_41
   15  A    between atoms: C_35  and  C_41
                            x       y       z     vdW  Elec       q    Type
                         _______ _______ _______ _____ _____    ______ ____

>  <TORSDO>
F 15

$$$$
=
 OpenBabel11062415193D

 41 43  0  0  1  0  0  0  0  0999 V2000
  183.7840  178.2540  139.0860 C   0  0  2  0  0  3  0  0  0  0  0  0
  183.0320  178.3220  140.4300 C   0  0  2  0  0  3  0  0  0  0  0  0
  182.1990  176.0320  139.8940 C   0  0  0  0  0  2  0  0  0  0  0  0
  182.7850  176.9230  140.9820 C   0  0  0  0  0  2  0  0  0  0  0  0
  183.0840  175.9420  138.7960 O   0  0  0  0  0  0  0  0  0  0  0  0
  183.1830  177.1890  138.1160 C   0  0  1  0  0  0  0  0  0  0  0  0
  181.1600  178.7020  135.6480 C   0  0  0  0  0  0  0  0  0  0  0  0
  180.6640  177.3490  135.5740 C   0  0  0  0  0  0  0  0  0  0  0  0
  179.8960  174.7440  135.9810 C   0  0  0  0  0  3  0  0  0  0  0  0
  181.8300  178.8700  136.8530 O   0  0  0  0  0  0  0  0  0  0  0  0
  180.6430  175.3950  136.9760 C   0  0  0  0  0  3  0  0  0  0  0  0
  181.0320  176.7130  136.7320 C   0  0  0  0  0  0  0  0  0  0  0  0
  179.9210  176.6930  134.5970 C   0  0  0  0  0  3  0  0  0  0  0  0
  181.7750  177.6650  137.6270 C   0  0  1  0  0  3  0  0  0  0  0  0
  181.0200  179.6490  134.7310 C   0  0  0  0  0  2  0  0  0  0  0  0
  179.5580  175.3960  134.8260 N   0  0  0  0  0  0  0  0  0  0  0  0
  181.7270  179.1030  140.3220 C   0  0  0  0  0  2  0  0  0  0  0  0
  180.8890  178.9280  141.5780 C   0  0  2  0  0  3  0  0  0  0  0  0
  179.2950  180.6290  142.1360 F   0  0  0  0  0  0  0  0  0  0  0  0
  179.4880  179.4930  141.3660 C   0  0  0  0  0  2  0  0  0  0  0  0
  181.5840  179.6020  142.7510 C   0  0  0  0  0  2  0  0  0  0  0  0
  181.6480  178.6540  143.9320 C   0  0  0  0  0  2  0  0  0  0  0  0
  183.9440  179.4700  144.0010 C   0  0  0  0  0  2  0  0  0  0  0  0
  182.9880  178.7450  144.5700 C   0  0  0  0  0  3  0  0  0  0  0  0
  185.1360  177.9900  139.3410 O   0  0  0  0  0  0  0  0  0  0  0  0
  185.5450  179.0180  140.1960 C   0  0  0  0  0  2  0  0  0  0  0  0
  186.7970  178.6230  140.8950 C   0  0  0  0  0  0  0  0  0  0  0  0
  186.7550  178.2280  142.2240 O   0  0  0  0  0  1  0  0  0  0  0  0
  187.9000  178.6730  140.2890 O   0  0  0  0  0  0  0  0  0  0  0  0
  184.1750  176.9820  136.9320 C   0  0  2  0  0  3  0  0  0  0  0  0
  184.8540  175.6100  136.9120 C   0  0  0  0  0  2  0  0  0  0  0  0
  186.2540  171.6430  135.8510 O   0  0  0  0  0  0  0  0  0  0  0  0
  185.7560  172.7080  136.2990 C   0  0  0  0  0  0  0  0  0  0  0  0
  186.0020  173.0760  137.6510 N   0  0  0  0  0  1  0  0  0  0  0  0
  183.5920  175.3270  134.9230 O   0  0  0  0  0  0  0  0  0  0  0  0
  184.4140  174.8130  135.7260 C   0  0  0  0  0  0  0  0  0  0  0  0
  184.9290  173.5050  135.4460 N   0  0  0  0  0  2  0  0  0  0  0  0
  185.1310  178.0060  136.8590 O   0  0  0  0  0  0  0  0  0  0  0  0
  187.5090  177.9710  136.7480 C   0  0  0  0  0  1  0  0  0  0  0  0
  186.2110  177.4670  136.1530 C   0  0  0  0  0  3  0  0  0  0  0  0
  186.1390  177.9010  134.7030 C   0  0  0  0  0  1  0  0  0  0  0  0
  1 25  1  1  0  0  0
  1  2  1  0  0  0  0
  2 17  1  6  0  0  0
  2  4  1  0  0  0  0
  3  4  1  0  0  0  0
  5  3  1  0  0  0  0
  6 30  1  6  0  0  0
  6  5  1  0  0  0  0
  6  1  1  0  0  0  0
  7 10  1  0  0  0  0
  8  7  1  0  0  0  0
  8 12  1  0  0  0  0
  9 11  1  0  0  0  0
 10 14  1  0  0  0  0
 12 11  2  0  0  0  0
 13 16  1  0  0  0  0
 13  8  2  0  0  0  0
 14 12  1  6  0  0  0
 14  6  1  0  0  0  0
 15  7  2  0  0  0  0
 16  9  2  0  0  0  0
 18 17  1  6  0  0  0
 18 21  1  0  0  0  0
 20 18  1  0  0  0  0
 20 19  1  0  0  0  0
 21 22  1  0  0  0  0
 22 24  1  0  0  0  0
 23 24  2  0  0  0  0
 25 26  1  0  0  0  0
 26 27  1  0  0  0  0
 27 28  1  0  0  0  0
 29 27  2  0  0  0  0
 30 31  1  1  0  0  0
 32 33  2  0  0  0  0
 33 34  1  0  0  0  0
 35 36  2  0  0  0  0
 36 31  1  0  0  0  0
 37 36  1  0  0  0  0
 37 33  1  0  0  0  0
 38 30  1  0  0  0  0
 40 39  1  0  0  0  0
 40 38  1  0  0  0  0
 41 40  1  0  0  0  0
M  END
>  <MODEL>
5

>  <REMARK>
 VINA RESULT:      -3.6      3.130      6.610
  Name = 
  15 active torsions:
  status: ('A' for Active; 'I' for Inactive)
    1  A    between atoms: C_4  and  C_13
    2  A    between atoms: C_4  and  C_14
    3  A    between atoms: C_5  and  C_16
    4  A    between atoms: C_7  and  O_11
    5  A    between atoms: C_8  and  C_10
    6  A    between atoms: C_8  and  C_13
    7  A    between atoms: C_10  and  C_39
    8  A    between atoms: O_11  and  C_16
    9  A    between atoms: C_13  and  C_36
   10  A    between atoms: C_19  and  C_32
   11  A    between atoms: C_19  and  C_35
   12  A    between atoms: O_21  and  C_33
   13  A    between atoms: O_21  and  C_35
   14  A    between atoms: C_30  and  C_41
   15  A    between atoms: C_35  and  C_41
                            x       y       z     vdW  Elec       q    Type
                         _______ _______ _______ _____ _____    ______ ____

>  <TORSDO>
F 15

$$$$
=
 OpenBabel11062415193D

 41 43  0  0  1  0  0  0  0  0999 V2000
  183.8910  177.2130  139.6010 C   0  0  2  0  0  3  0  0  0  0  0  0
  183.5680  178.4550  140.4550 C   0  0  2  0  0  3  0  0  0  0  0  0
  183.0440  179.5980  138.2990 C   0  0  0  0  0  2  0  0  0  0  0  0
  182.5810  179.3650  139.7320 C   0  0  0  0  0  2  0  0  0  0  0  0
  183.1340  178.3720  137.6000 O   0  0  0  0  0  0  0  0  0  0  0  0
  184.1930  177.5690  138.1120 C   0  0  1  0  0  0  0  0  0  0  0  0
  187.6590  177.7120  138.7740 C   0  0  0  0  0  0  0  0  0  0  0  0
  187.6900  177.6120  137.3350 C   0  0  0  0  0  0  0  0  0  0  0  0
  187.2260  177.6640  134.6290 C   0  0  0  0  0  3  0  0  0  0  0  0
  186.3910  178.1180  139.1700 O   0  0  0  0  0  0  0  0  0  0  0  0
  186.1850  178.0140  135.5030 C   0  0  0  0  0  3  0  0  0  0  0  0
  186.4470  177.9610  136.8720 C   0  0  0  0  0  0  0  0  0  0  0  0
  188.7150  177.2700  136.4570 C   0  0  0  0  0  3  0  0  0  0  0  0
  185.5560  178.3330  138.0250 C   0  0  1  0  0  3  0  0  0  0  0  0
  188.6580  177.4590  139.6090 C   0  0  0  0  0  2  0  0  0  0  0  0
  188.4520  177.3000  135.1180 N   0  0  0  0  0  0  0  0  0  0  0  0
  184.8240  179.2220  140.8540 C   0  0  0  0  0  2  0  0  0  0  0  0
  185.0800  179.0940  142.3470 C   0  0  2  0  0  3  0  0  0  0  0  0
  187.4180  178.6360  142.0840 F   0  0  0  0  0  0  0  0  0  0  0  0
  186.2370  178.1350  142.6080 C   0  0  0  0  0  2  0  0  0  0  0  0
  183.8110  178.6320  143.0440 C   0  0  0  0  0  2  0  0  0  0  0  0
  183.6240  179.3910  144.3430 C   0  0  0  0  0  2  0  0  0  0  0  0
  185.3070  178.9310  146.0460 C   0  0  0  0  0  2  0  0  0  0  0  0
  184.1620  178.5840  145.4710 C   0  0  0  0  0  3  0  0  0  0  0  0
  182.8200  176.3150  139.6920 O   0  0  0  0  0  0  0  0  0  0  0  0
  181.9070  176.9330  140.5510 C   0  0  0  0  0  2  0  0  0  0  0  0
  180.5190  176.5830  140.1490 C   0  0  0  0  0  0  0  0  0  0  0  0
  179.6140  176.1290  141.0990 O   0  0  0  0  0  1  0  0  0  0  0  0
  180.1700  176.6730  138.9430 O   0  0  0  0  0  0  0  0  0  0  0  0
  184.2050  176.2520  137.2790 C   0  0  2  0  0  3  0  0  0  0  0  0
  182.8170  175.7490  136.8760 C   0  0  0  0  0  2  0  0  0  0  0  0
  180.5800  172.8080  134.6030 O   0  0  0  0  0  0  0  0  0  0  0  0
  181.0600  173.7260  135.3160 C   0  0  0  0  0  0  0  0  0  0  0  0
  180.7190  173.7870  136.6950 N   0  0  0  0  0  1  0  0  0  0  0  0
  183.2720  176.5840  134.7030 O   0  0  0  0  0  0  0  0  0  0  0  0
  182.6720  175.7160  135.3890 C   0  0  0  0  0  0  0  0  0  0  0  0
  181.9130  174.7050  134.7130 N   0  0  0  0  0  2  0  0  0  0  0  0
  184.9340  175.2340  137.9140 O   0  0  0  0  0  0  0  0  0  0  0  0
  184.6640  172.9450  137.3170 C   0  0  0  0  0  1  0  0  0  0  0  0
  185.2200  174.2960  136.9160 C   0  0  0  0  0  3  0  0  0  0  0  0
  186.7210  174.1740  136.7480 C   0  0  0  0  0  1  0  0  0  0  0  0
  1 25  1  6  0  0  0
  1  2  1  0  0  0  0
  2 17  1  6  0  0  0
  3  4  1  0  0  0  0
  4  2  1  0  0  0  0
  5  6  1  0  0  0  0
  5  3  1  0  0  0  0
  6 30  1  6  0  0  0
  6  1  1  0  0  0  0
  7 10  1  0  0  0  0
  7 15  2  0  0  0  0
  8  7  1  0  0  0  0
  9 16  2  0  0  0  0
  9 11  1  0  0  0  0
 11 12  2  0  0  0  0
 12  8  1  0  0  0  0
 13  8  2  0  0  0  0
 14 12  1  6  0  0  0
 14  6  1  0  0  0  0
 14 10  1  0  0  0  0
 16 13  1  0  0  0  0
 18 17  1  6  0  0  0
 18 20  1  0  0  0  0
 18 21  1  0  0  0  0
 19 20  1  0  0  0  0
 21 22  1  0  0  0  0
 22 24  1  0  0  0  0
 24 23  2  0  0  0  0
 25 26  1  0  0  0  0
 27 26  1  0  0  0  0
 27 28  1  0  0  0  0
 29 27  2  0  0  0  0
 30 31  1  1  0  0  0
 30 38  1  0  0  0  0
 32 33  2  0  0  0  0
 33 34  1  0  0  0  0
 35 36  2  0  0  0  0
 36 31  1  0  0  0  0
 37 33  1  0  0  0  0
 37 36  1  0  0  0  0
 40 39  1  0  0  0  0
 40 38  1  0  0  0  0
 41 40  1  0  0  0  0
M  END
>  <MODEL>
6

>  <REMARK>
 VINA RESULT:      -3.5      2.902      5.845
  Name = 
  15 active torsions:
  status: ('A' for Active; 'I' for Inactive)
    1  A    between atoms: C_4  and  C_13
    2  A    between atoms: C_4  and  C_14
    3  A    between atoms: C_5  and  C_16
    4  A    between atoms: C_7  and  O_11
    5  A    between atoms: C_8  and  C_10
    6  A    between atoms: C_8  and  C_13
    7  A    between atoms: C_10  and  C_39
    8  A    between atoms: O_11  and  C_16
    9  A    between atoms: C_13  and  C_36
   10  A    between atoms: C_19  and  C_32
   11  A    between atoms: C_19  and  C_35
   12  A    between atoms: O_21  and  C_33
   13  A    between atoms: O_21  and  C_35
   14  A    between atoms: C_30  and  C_41
   15  A    between atoms: C_35  and  C_41
                            x       y       z     vdW  Elec       q    Type
                         _______ _______ _______ _____ _____    ______ ____

>  <TORSDO>
F 15

$$$$
=
 OpenBabel11062415193D

 41 43  0  0  1  0  0  0  0  0999 V2000
  181.9120  177.9680  139.9320 C   0  0  2  0  0  3  0  0  0  0  0  0
  180.6930  178.4160  140.7630 C   0  0  2  0  0  3  0  0  0  0  0  0
  179.8190  176.1040  140.4240 C   0  0  0  0  0  2  0  0  0  0  0  0
  180.0320  177.2200  141.4390 C   0  0  0  0  0  2  0  0  0  0  0  0
  181.0530  175.6930  139.8710 O   0  0  0  0  0  0  0  0  0  0  0  0
  181.6110  176.7150  139.0510 C   0  0  1  0  0  0  0  0  0  0  0  0
  181.0470  177.7210  135.7130 C   0  0  0  0  0  0  0  0  0  0  0  0
  180.4830  176.3940  135.6670 C   0  0  0  0  0  0  0  0  0  0  0  0
  179.3260  173.9490  136.1420 C   0  0  0  0  0  3  0  0  0  0  0  0
  181.1410  178.1230  137.0400 O   0  0  0  0  0  0  0  0  0  0  0  0
  179.6340  174.7780  137.2330 C   0  0  0  0  0  3  0  0  0  0  0  0
  180.2360  176.0060  136.9590 C   0  0  0  0  0  0  0  0  0  0  0  0
  180.1700  175.5630  134.5940 C   0  0  0  0  0  3  0  0  0  0  0  0
  180.6190  177.1080  137.9070 C   0  0  1  0  0  3  0  0  0  0  0  0
  181.4280  178.4580  134.6790 C   0  0  0  0  0  2  0  0  0  0  0  0
  179.6000  174.3520  134.8640 N   0  0  0  0  0  0  0  0  0  0  0  0
  179.6830  179.1980  139.9300 C   0  0  0  0  0  2  0  0  0  0  0  0
  180.0820  180.6620  139.8350 C   0  0  2  0  0  3  0  0  0  0  0  0
  179.4560  181.2380  142.0750 F   0  0  0  0  0  0  0  0  0  0  0  0
  179.2000  181.5140  140.7410 C   0  0  0  0  0  2  0  0  0  0  0  0
  179.9940  181.1210  138.3880 C   0  0  0  0  0  2  0  0  0  0  0  0
  181.1770  182.0050  138.0490 C   0  0  0  0  0  2  0  0  0  0  0  0
  181.1790  183.8810  136.4920 C   0  0  0  0  0  2  0  0  0  0  0  0
  180.6890  183.3360  137.5990 C   0  0  0  0  0  3  0  0  0  0  0  0
  182.9820  177.7220  140.8020 O   0  0  0  0  0  0  0  0  0  0  0  0
  183.1420  178.9120  141.5180 C   0  0  0  0  0  2  0  0  0  0  0  0
  183.8000  178.6320  142.8220 C   0  0  0  0  0  0  0  0  0  0  0  0
  185.1180  178.1990  142.8560 O   0  0  0  0  0  0  0  0  0  0  0  0
  183.1540  178.7610  143.8940 O   0  0  0  0  0  1  0  0  0  0  0  0
  182.9590  176.1650  138.4950 C   0  0  2  0  0  3  0  0  0  0  0  0
  183.5410  176.9790  137.3370 C   0  0  0  0  0  2  0  0  0  0  0  0
  186.9980  177.0340  134.7170 O   0  0  0  0  0  0  0  0  0  0  0  0
  185.9280  177.1550  135.3670 C   0  0  0  0  0  0  0  0  0  0  0  0
  184.6850  176.9890  134.6960 N   0  0  0  0  0  1  0  0  0  0  0  0
  185.0940  177.9490  138.8460 O   0  0  0  0  0  0  0  0  0  0  0  0
  184.8960  177.5080  137.6840 C   0  0  0  0  0  0  0  0  0  0  0  0
  185.9880  177.4870  136.7570 N   0  0  0  0  0  2  0  0  0  0  0  0
  182.8710  174.8080  138.1490 O   0  0  0  0  0  0  0  0  0  0  0  0
  183.1100  173.8850  135.9670 C   0  0  0  0  0  1  0  0  0  0  0  0
  183.7840  174.6240  137.1050 C   0  0  0  0  0  3  0  0  0  0  0  0
  184.9580  173.8000  137.5930 C   0  0  0  0  0  1  0  0  0  0  0  0
  1  2  1  0  0  0  0
  1 25  1  1  0  0  0
  2 17  1  6  0  0  0
  2  4  1  0  0  0  0
  3  4  1  0  0  0  0
  5  3  1  0  0  0  0
  6 30  1  6  0  0  0
  6  5  1  0  0  0  0
  6  1  1  0  0  0  0
  7 10  1  0  0  0  0
  8  7  1  0  0  0  0
  8 12  1  0  0  0  0
  9 11  1  0  0  0  0
 10 14  1  0  0  0  0
 12 11  2  0  0  0  0
 13 16  1  0  0  0  0
 13  8  2  0  0  0  0
 14 12  1  6  0  0  0
 14  6  1  0  0  0  0
 15  7  2  0  0  0  0
 16  9  2  0  0  0  0
 18 21  1  6  0  0  0
 18 17  1  0  0  0  0
 18 20  1  0  0  0  0
 20 19  1  0  0  0  0
 22 21  1  0  0  0  0
 23 24  2  0  0  0  0
 24 22  1  0  0  0  0
 25 26  1  0  0  0  0
 26 27  1  0  0  0  0
 27 28  2  0  0  0  0
 27 29  1  0  0  0  0
 30 31  1  6  0  0  0
 31 36  1  0  0  0  0
 32 33  2  0  0  0  0
 33 37  1  0  0  0  0
 34 33  1  0  0  0  0
 36 35  2  0  0  0  0
 37 36  1  0  0  0  0
 38 30  1  0  0  0  0
 39 40  1  0  0  0  0
 40 41  1  0  0  0  0
 40 38  1  0  0  0  0
M  END
>  <MODEL>
7

>  <REMARK>
 VINA RESULT:      -3.4      3.491      6.967
  Name = 
  15 active torsions:
  status: ('A' for Active; 'I' for Inactive)
    1  A    between atoms: C_4  and  C_13
    2  A    between atoms: C_4  and  C_14
    3  A    between atoms: C_5  and  C_16
    4  A    between atoms: C_7  and  O_11
    5  A    between atoms: C_8  and  C_10
    6  A    between atoms: C_8  and  C_13
    7  A    between atoms: C_10  and  C_39
    8  A    between atoms: O_11  and  C_16
    9  A    between atoms: C_13  and  C_36
   10  A    between atoms: C_19  and  C_32
   11  A    between atoms: C_19  and  C_35
   12  A    between atoms: O_21  and  C_33
   13  A    between atoms: O_21  and  C_35
   14  A    between atoms: C_30  and  C_41
   15  A    between atoms: C_35  and  C_41
                            x       y       z     vdW  Elec       q    Type
                         _______ _______ _______ _____ _____    ______ ____

>  <TORSDO>
F 15

$$$$
=
 OpenBabel11062415193D

 41 43  0  0  1  0  0  0  0  0999 V2000
  181.9360  175.9020  138.0430 C   0  0  2  0  0  3  0  0  0  0  0  0
  181.1570  175.2930  136.8620 C   0  0  2  0  0  3  0  0  0  0  0  0
  181.6340  177.4270  135.6600 C   0  0  0  0  0  2  0  0  0  0  0  0
  181.6100  175.9080  135.5420 C   0  0  0  0  0  2  0  0  0  0  0  0
  182.5220  177.8320  136.6830 O   0  0  0  0  0  0  0  0  0  0  0  0
  182.0280  177.4580  137.9650 C   0  0  1  0  0  0  0  0  0  0  0  0
  179.5630  178.6410  140.2010 C   0  0  0  0  0  0  0  0  0  0  0  0
  179.9290  179.8820  139.5630 C   0  0  0  0  0  0  0  0  0  0  0  0
  180.7760  181.9040  137.9080 C   0  0  0  0  0  3  0  0  0  0  0  0
  179.9890  177.5840  139.4060 O   0  0  0  0  0  0  0  0  0  0  0  0
  180.9930  180.5720  137.5190 C   0  0  0  0  0  3  0  0  0  0  0  0
  180.5670  179.5690  138.3900 C   0  0  0  0  0  0  0  0  0  0  0  0
  179.7180  181.2070  139.9350 C   0  0  0  0  0  3  0  0  0  0  0  0
  180.6120  178.0770  138.2130 C   0  0  1  0  0  3  0  0  0  0  0  0
  178.9300  178.5000  141.3570 C   0  0  0  0  0  2  0  0  0  0  0  0
  180.1540  182.1900  139.0940 N   0  0  0  0  0  0  0  0  0  0  0  0
  179.6480  175.4280  137.0360 C   0  0  0  0  0  2  0  0  0  0  0  0
  179.0110  174.0690  137.2780 C   0  0  2  0  0  3  0  0  0  0  0  0
  179.2320  174.5580  139.6130 F   0  0  0  0  0  0  0  0  0  0  0  0
  179.3680  173.5540  138.6690 C   0  0  0  0  0  2  0  0  0  0  0  0
  179.4590  173.0970  136.1980 C   0  0  0  0  0  2  0  0  0  0  0  0
  179.8560  171.7740  136.8210 C   0  0  0  0  0  2  0  0  0  0  0  0
  181.5930  171.8870  135.1140 C   0  0  0  0  0  2  0  0  0  0  0  0
  180.9630  171.1670  136.0340 C   0  0  0  0  0  3  0  0  0  0  0  0
  183.2140  175.3280  138.0820 O   0  0  0  0  0  0  0  0  0  0  0  0
  183.0020  173.9680  137.8410 C   0  0  0  0  0  2  0  0  0  0  0  0
  184.2390  173.3550  137.2870 C   0  0  0  0  0  0  0  0  0  0  0  0
  184.5780  173.5590  135.9570 O   0  0  0  0  0  0  0  0  0  0  0  0
  184.9640  172.6290  138.0160 O   0  0  0  0  0  1  0  0  0  0  0  0
  183.0730  177.9470  139.0130 C   0  0  2  0  0  3  0  0  0  0  0  0
  184.5260  177.6280  138.6510 C   0  0  0  0  0  2  0  0  0  0  0  0
  188.5710  177.8410  137.0990 O   0  0  0  0  0  0  0  0  0  0  0  0
  187.3490  177.7250  137.3750 C   0  0  0  0  0  0  0  0  0  0  0  0
  186.7030  176.4760  137.1630 N   0  0  0  0  0  1  0  0  0  0  0  0
  184.7640  179.9890  138.6520 O   0  0  0  0  0  0  0  0  0  0  0  0
  185.2960  178.8800  138.3800 C   0  0  0  0  0  0  0  0  0  0  0  0
  186.6330  178.8630  137.8670 N   0  0  0  0  0  2  0  0  0  0  0  0
  182.7760  177.4900  140.3070 O   0  0  0  0  0  0  0  0  0  0  0  0
  184.5140  178.0160  141.8450 C   0  0  0  0  0  1  0  0  0  0  0  0
  183.2390  178.4840  141.1750 C   0  0  0  0  0  3  0  0  0  0  0  0
  182.1980  178.7540  142.2430 C   0  0  0  0  0  1  0  0  0  0  0  0
  1 25  1  6  0  0  0
  2 17  1  1  0  0  0
  2  1  1  0  0  0  0
  3  5  1  0  0  0  0
  4  3  1  0  0  0  0
  4  2  1  0  0  0  0
  5  6  1  0  0  0  0
  6  1  1  0  0  0  0
  6 14  1  0  0  0  0
  6 30  1  1  0  0  0
  7 15  2  0  0  0  0
  8 13  1  0  0  0  0
  8  7  1  0  0  0  0
  9 16  1  0  0  0  0
 10  7  1  0  0  0  0
 11  9  2  0  0  0  0
 11 12  1  0  0  0  0
 12  8  2  0  0  0  0
 14 12  1  1  0  0  0
 14 10  1  0  0  0  0
 16 13  2  0  0  0  0
 17 18  1  0  0  0  0
 18 21  1  6  0  0  0
 18 20  1  0  0  0  0
 20 19  1  0  0  0  0
 21 22  1  0  0  0  0
 23 24  2  0  0  0  0
 24 22  1  0  0  0  0
 26 25  1  0  0  0  0
 27 26  1  0  0  0  0
 27 29  1  0  0  0  0
 28 27  2  0  0  0  0
 30 31  1  6  0  0  0
 30 38  1  0  0  0  0
 32 33  2  0  0  0  0
 33 37  1  0  0  0  0
 34 33  1  0  0  0  0
 36 31  1  0  0  0  0
 36 35  2  0  0  0  0
 37 36  1  0  0  0  0
 38 40  1  0  0  0  0
 40 39  1  0  0  0  0
 40 41  1  0  0  0  0
M  END
>  <MODEL>
8

>  <REMARK>
 VINA RESULT:      -3.3      2.956      7.439
  Name = 
  15 active torsions:
  status: ('A' for Active; 'I' for Inactive)
    1  A    between atoms: C_4  and  C_13
    2  A    between atoms: C_4  and  C_14
    3  A    between atoms: C_5  and  C_16
    4  A    between atoms: C_7  and  O_11
    5  A    between atoms: C_8  and  C_10
    6  A    between atoms: C_8  and  C_13
    7  A    between atoms: C_10  and  C_39
    8  A    between atoms: O_11  and  C_16
    9  A    between atoms: C_13  and  C_36
   10  A    between atoms: C_19  and  C_32
   11  A    between atoms: C_19  and  C_35
   12  A    between atoms: O_21  and  C_33
   13  A    between atoms: O_21  and  C_35
   14  A    between atoms: C_30  and  C_41
   15  A    between atoms: C_35  and  C_41
                            x       y       z     vdW  Elec       q    Type
                         _______ _______ _______ _____ _____    ______ ____

>  <TORSDO>
F 15

$$$$
=
 OpenBabel11062415193D

 41 43  0  0  1  0  0  0  0  0999 V2000
  182.5080  175.5270  137.3390 C   0  0  2  0  0  3  0  0  0  0  0  0
  181.6090  174.4470  136.7060 C   0  0  2  0  0  3  0  0  0  0  0  0
  181.7780  175.7730  134.5990 C   0  0  0  0  0  2  0  0  0  0  0  0
  181.8320  174.3740  135.2000 C   0  0  0  0  0  2  0  0  0  0  0  0
  182.7740  176.5980  135.1700 O   0  0  0  0  0  0  0  0  0  0  0  0
  182.4900  176.8680  136.5400 C   0  0  1  0  0  0  0  0  0  0  0  0
  180.3040  178.9990  138.3150 C   0  0  0  0  0  0  0  0  0  0  0  0
  180.4910  179.7830  137.1180 C   0  0  0  0  0  0  0  0  0  0  0  0
  180.9500  180.7640  134.5950 C   0  0  0  0  0  3  0  0  0  0  0  0
  180.6790  177.6870  138.0550 O   0  0  0  0  0  0  0  0  0  0  0  0
  181.1970  179.4060  134.8510 C   0  0  0  0  0  3  0  0  0  0  0  0
  180.9700  178.9420  136.1470 C   0  0  0  0  0  0  0  0  0  0  0  0
  180.2480  181.1280  136.8510 C   0  0  0  0  0  3  0  0  0  0  0  0
  181.0880  177.5450  136.6890 C   0  0  1  0  0  3  0  0  0  0  0  0
  179.8580  179.4320  139.4860 C   0  0  0  0  0  2  0  0  0  0  0  0
  180.4910  181.5860  135.5880 N   0  0  0  0  0  0  0  0  0  0  0  0
  180.1340  174.6630  137.0280 C   0  0  0  0  0  2  0  0  0  0  0  0
  179.6520  173.6470  138.0510 C   0  0  2  0  0  3  0  0  0  0  0  0
  179.5780  175.3530  139.7330 F   0  0  0  0  0  0  0  0  0  0  0  0
  180.0500  174.0790  139.4590 C   0  0  0  0  0  2  0  0  0  0  0  0
  180.2180  172.2770  137.7140 C   0  0  0  0  0  2  0  0  0  0  0  0
  179.3060  171.5620  136.7370 C   0  0  0  0  0  2  0  0  0  0  0  0
  181.4070  170.8230  135.7470 C   0  0  0  0  0  2  0  0  0  0  0  0
  180.1050  170.6210  135.9080 C   0  0  0  0  0  3  0  0  0  0  0  0
  183.8110  175.0230  137.4400 O   0  0  0  0  0  0  0  0  0  0  0  0
  183.6570  173.7330  137.9550 C   0  0  0  0  0  2  0  0  0  0  0  0
  184.8050  172.8830  137.5400 C   0  0  0  0  0  0  0  0  0  0  0  0
  184.7940  172.2580  136.3010 O   0  0  0  0  0  0  0  0  0  0  0  0
  185.7760  172.7100  138.3220 O   0  0  0  0  0  1  0  0  0  0  0  0
  183.6400  177.7760  137.0700 C   0  0  2  0  0  3  0  0  0  0  0  0
  184.8490  177.8720  136.1360 C   0  0  0  0  0  2  0  0  0  0  0  0
  187.4870  174.4300  136.0260 O   0  0  0  0  0  0  0  0  0  0  0  0
  186.7850  175.4640  135.8840 C   0  0  0  0  0  0  0  0  0  0  0  0
  185.8770  175.5430  134.7930 N   0  0  0  0  0  1  0  0  0  0  0  0
  186.4760  178.6430  137.6810 O   0  0  0  0  0  0  0  0  0  0  0  0
  186.1260  177.7210  136.8990 C   0  0  0  0  0  0  0  0  0  0  0  0
  186.9410  176.5470  136.8070 N   0  0  0  0  0  2  0  0  0  0  0  0
  184.0430  177.4140  138.3650 O   0  0  0  0  0  0  0  0  0  0  0  0
  183.8720  179.6790  139.0790 C   0  0  0  0  0  1  0  0  0  0  0  0
  183.3480  178.2650  139.2300 C   0  0  0  0  0  3  0  0  0  0  0  0
  183.5580  177.8180  140.6620 C   0  0  0  0  0  1  0  0  0  0  0  0
  1 25  1  6  0  0  0
  2 17  1  6  0  0  0
  2  1  1  0  0  0  0
  3  5  1  0  0  0  0
  3  4  1  0  0  0  0
  4  2  1  0  0  0  0
  5  6  1  0  0  0  0
  6 14  1  0  0  0  0
  6 30  1  1  0  0  0
  6  1  1  0  0  0  0
  7 15  2  0  0  0  0
  8  7  1  0  0  0  0
  9 11  2  0  0  0  0
  9 16  1  0  0  0  0
 10  7  1  0  0  0  0
 11 12  1  0  0  0  0
 12  8  2  0  0  0  0
 13  8  1  0  0  0  0
 14 12  1  1  0  0  0
 14 10  1  0  0  0  0
 16 13  2  0  0  0  0
 18 17  1  6  0  0  0
 18 20  1  0  0  0  0
 20 19  1  0  0  0  0
 21 18  1  0  0  0  0
 22 21  1  0  0  0  0
 23 24  2  0  0  0  0
 24 22  1  0  0  0  0
 25 26  1  0  0  0  0
 27 26  1  0  0  0  0
 27 29  1  0  0  0  0
 28 27  2  0  0  0  0
 30 31  1  6  0  0  0
 30 38  1  0  0  0  0
 31 36  1  0  0  0  0
 33 32  2  0  0  0  0
 33 37  1  0  0  0  0
 34 33  1  0  0  0  0
 36 35  2  0  0  0  0
 37 36  1  0  0  0  0
 38 40  1  0  0  0  0
 39 40  1  0  0  0  0
 40 41  1  0  0  0  0
M  END
>  <MODEL>
9

>  <REMARK>
 VINA RESULT:      -3.3      2.972      7.252
  Name = 
  15 active torsions:
  status: ('A' for Active; 'I' for Inactive)
    1  A    between atoms: C_4  and  C_13
    2  A    between atoms: C_4  and  C_14
    3  A    between atoms: C_5  and  C_16
    4  A    between atoms: C_7  and  O_11
    5  A    between atoms: C_8  and  C_10
    6  A    between atoms: C_8  and  C_13
    7  A    between atoms: C_10  and  C_39
    8  A    between atoms: O_11  and  C_16
    9  A    between atoms: C_13  and  C_36
   10  A    between atoms: C_19  and  C_32
   11  A    between atoms: C_19  and  C_35
   12  A    between atoms: O_21  and  C_33
   13  A    between atoms: O_21  and  C_35
   14  A    between atoms: C_30  and  C_41
   15  A    between atoms: C_35  and  C_41
                            x       y       z     vdW  Elec       q    Type
                         _______ _______ _______ _____ _____    ______ ____

>  <TORSDO>
F 15

$$$$
