=
 OpenBabel11062418093D

 25 27  0  0  1  0  0  0  0  0999 V2000
  184.7100  178.9970  141.2970 C   0  0  0  0  0  3  0  0  0  0  0  0
  185.2630  179.1310  139.0160 N   0  0  0  0  0  0  0  0  0  0  0  0
  186.9270  178.4140  140.5540 C   0  0  0  0  0  0  0  0  0  0  0  0
  185.9360  178.0910  145.2970 C   0  0  0  0  0  0  0  0  0  0  0  0
  184.8180  178.2600  146.6330 Cl  0  0  0  0  0  0  0  0  0  0  0  0
  187.7350  177.8200  143.1530 C   0  0  0  0  0  0  0  0  0  0  0  0
  186.0030  178.5580  141.6030 C   0  0  0  0  0  0  0  0  0  0  0  0
  187.2410  177.6580  145.5310 C   0  0  0  0  0  3  0  0  0  0  0  0
  185.5210  178.3910  143.9980 C   0  0  0  0  0  3  0  0  0  0  0  0
  188.1340  177.5230  144.4660 C   0  0  0  0  0  3  0  0  0  0  0  0
  188.6240  177.6890  142.0600 C   0  0  0  0  0  0  0  0  0  0  0  0
  186.4080  178.2600  142.9170 C   0  0  0  0  0  0  0  0  0  0  0  0
  186.5330  178.7090  139.2510 C   0  0  0  0  0  3  0  0  0  0  0  0
  188.1920  177.9910  140.8060 N   0  0  0  0  0  0  0  0  0  0  0  0
  184.3800  179.2700  140.0070 N   0  0  0  0  0  0  0  0  0  0  0  0
  190.0550  177.2450  142.2050 C   0  0  2  0  0  3  0  0  0  0  0  0
  192.1430  178.8070  144.7820 O   0  0  0  0  0  0  0  0  0  0  0  0
  190.8440  178.2210  142.9500 N   0  0  0  0  0  2  0  0  0  0  0  0
  191.2880  176.6360  144.8030 N   0  0  0  0  0  2  0  0  0  0  0  0
  191.4560  177.9220  144.2060 C   0  0  0  0  0  0  0  0  0  0  0  0
  190.9100  176.5590  147.1950 C   0  0  0  0  0  1  0  0  0  0  0  0
  191.8960  176.2920  146.0770 C   0  0  0  0  0  2  0  0  0  0  0  0
  191.8150  177.5860  140.4710 O   0  0  0  0  0  1  0  0  0  0  0  0
  190.6750  176.9090  140.8820 C   0  0  0  0  0  0  0  0  0  0  0  0
  190.1960  176.0000  140.1550 O   0  0  0  0  0  0  0  0  0  0  0  0
  1  7  1  0  0  0  0
  2 13  2  0  0  0  0
  2 15  1  0  0  0  0
  3 14  2  0  0  0  0
  3  7  1  0  0  0  0
  4  8  1  0  0  0  0
  4  5  1  0  0  0  0
  6 10  1  0  0  0  0
  7 12  2  0  0  0  0
  9  4  2  0  0  0  0
 10  8  2  0  0  0  0
 11 16  1  0  0  0  0
 11  6  2  0  0  0  0
 12  6  1  0  0  0  0
 12  9  1  0  0  0  0
 13  3  1  0  0  0  0
 14 11  1  0  0  0  0
 15  1  2  0  0  0  0
 16 24  1  6  0  0  0
 16 18  1  0  0  0  0
 18 20  1  0  0  0  0
 19 22  1  0  0  0  0
 20 17  2  0  0  0  0
 20 19  1  0  0  0  0
 22 21  1  0  0  0  0
 23 24  1  0  0  0  0
 25 24  2  0  0  0  0
M  END
>  <MODEL>
1

>  <REMARK>
 VINA RESULT:      -8.4      0.000      0.000
  Name = 
  4 active torsions:
  status: ('A' for Active; 'I' for Inactive)
    1  A    between atoms: N_2  and  CA_8
    2  A    between atoms: N_6  and  C_17
    3  A    between atoms: CA_8  and  C_10
    4  A    between atoms: CA_8  and  C_20
                            x       y       z     vdW  Elec       q    Type
                         _______ _______ _______ _____ _____    ______ ____

>  <TORSDO>
F 4

$$$$
=
 OpenBabel11062418093D

 25 27  0  0  1  0  0  0  0  0999 V2000
  186.2560  178.1360  146.3950 C   0  0  0  0  0  3  0  0  0  0  0  0
  184.0330  178.8880  146.2530 N   0  0  0  0  0  0  0  0  0  0  0  0
  185.2330  178.4840  144.2410 C   0  0  0  0  0  0  0  0  0  0  0  0
  189.8320  176.9350  144.3720 C   0  0  0  0  0  0  0  0  0  0  0  0
  191.2520  176.4570  145.2780 Cl  0  0  0  0  0  0  0  0  0  0  0  0
  187.5540  177.7030  142.9150 C   0  0  0  0  0  0  0  0  0  0  0  0
  186.3530  178.1050  144.9990 C   0  0  0  0  0  0  0  0  0  0  0  0
  189.8600  176.9270  142.9780 C   0  0  0  0  0  3  0  0  0  0  0  0
  188.6740  177.3240  145.0460 C   0  0  0  0  0  3  0  0  0  0  0  0
  188.7280  177.3080  142.2540 C   0  0  0  0  0  3  0  0  0  0  0  0
  186.3960  178.0920  142.2000 C   0  0  0  0  0  0  0  0  0  0  0  0
  187.5270  177.7100  144.3320 C   0  0  0  0  0  0  0  0  0  0  0  0
  184.0670  178.8780  144.8950 C   0  0  0  0  0  3  0  0  0  0  0  0
  185.2830  178.4690  142.8850 N   0  0  0  0  0  0  0  0  0  0  0  0
  185.0940  178.5280  146.9800 N   0  0  0  0  0  0  0  0  0  0  0  0
  186.3250  178.1330  140.6980 C   0  0  2  0  0  3  0  0  0  0  0  0
  189.1060  179.1240  138.5230 O   0  0  0  0  0  0  0  0  0  0  0  0
  187.4500  178.8700  140.1300 N   0  0  0  0  0  2  0  0  0  0  0  0
  187.8000  177.1990  138.3330 N   0  0  0  0  0  2  0  0  0  0  0  0
  188.1590  178.4250  138.9720 C   0  0  0  0  0  0  0  0  0  0  0  0
  189.5310  175.6890  137.5620 C   0  0  0  0  0  1  0  0  0  0  0  0
  188.4940  176.7140  137.1520 C   0  0  0  0  0  2  0  0  0  0  0  0
  183.9060  177.8080  140.1830 O   0  0  0  0  0  1  0  0  0  0  0  0
  185.0060  178.6550  140.2120 C   0  0  0  0  0  0  0  0  0  0  0  0
  184.8750  179.8570  139.8620 O   0  0  0  0  0  0  0  0  0  0  0  0
  1 15  1  0  0  0  0
  2 15  2  0  0  0  0
  3 13  2  0  0  0  0
  3  7  1  0  0  0  0
  4  9  1  0  0  0  0
  4  5  1  0  0  0  0
  6 12  1  0  0  0  0
  7  1  2  0  0  0  0
  8  4  2  0  0  0  0
 10  6  2  0  0  0  0
 10  8  1  0  0  0  0
 11 14  2  0  0  0  0
 11  6  1  0  0  0  0
 12  7  1  0  0  0  0
 12  9  2  0  0  0  0
 13  2  1  0  0  0  0
 14  3  1  0  0  0  0
 16 18  1  1  0  0  0
 16 11  1  0  0  0  0
 17 20  2  0  0  0  0
 19 20  1  0  0  0  0
 20 18  1  0  0  0  0
 22 21  1  0  0  0  0
 22 19  1  0  0  0  0
 23 24  1  0  0  0  0
 24 16  1  0  0  0  0
 25 24  2  0  0  0  0
M  END
>  <MODEL>
2

>  <REMARK>
 VINA RESULT:      -8.3      3.417      5.737
  Name = 
  4 active torsions:
  status: ('A' for Active; 'I' for Inactive)
    1  A    between atoms: N_2  and  CA_8
    2  A    between atoms: N_6  and  C_17
    3  A    between atoms: CA_8  and  C_10
    4  A    between atoms: CA_8  and  C_20
                            x       y       z     vdW  Elec       q    Type
                         _______ _______ _______ _____ _____    ______ ____

>  <TORSDO>
F 4

$$$$
=
 OpenBabel11062418093D

 25 27  0  0  1  0  0  0  0  0999 V2000
  189.3590  177.1510  147.0050 C   0  0  0  0  0  3  0  0  0  0  0  0
  191.6640  176.6980  146.8980 N   0  0  0  0  0  0  0  0  0  0  0  0
  190.5120  177.2420  144.8910 C   0  0  0  0  0  0  0  0  0  0  0  0
  185.7520  178.1960  144.9510 C   0  0  0  0  0  0  0  0  0  0  0  0
  184.2450  178.3650  145.8250 Cl  0  0  0  0  0  0  0  0  0  0  0  0
  188.1710  177.9240  143.5450 C   0  0  0  0  0  0  0  0  0  0  0  0
  189.3200  177.3710  145.6230 C   0  0  0  0  0  0  0  0  0  0  0  0
  185.7850  178.4020  143.5720 C   0  0  0  0  0  3  0  0  0  0  0  0
  186.9200  177.8540  145.6350 C   0  0  0  0  0  3  0  0  0  0  0  0
  186.9860  178.2680  142.8740 C   0  0  0  0  0  3  0  0  0  0  0  0
  189.4000  177.7840  142.8560 C   0  0  0  0  0  0  0  0  0  0  0  0
  188.1360  177.7160  144.9470 C   0  0  0  0  0  0  0  0  0  0  0  0
  191.6880  176.9000  145.5540 C   0  0  0  0  0  3  0  0  0  0  0  0
  190.5200  177.4470  143.5490 N   0  0  0  0  0  0  0  0  0  0  0  0
  190.5350  176.8200  147.6000 N   0  0  0  0  0  0  0  0  0  0  0  0
  189.5400  177.9690  141.3690 C   0  0  2  0  0  3  0  0  0  0  0  0
  186.9480  177.8230  138.7810 O   0  0  0  0  0  0  0  0  0  0  0  0
  188.2820  177.7070  140.6760 N   0  0  0  0  0  2  0  0  0  0  0  0
  189.0540  178.8110  138.5950 N   0  0  0  0  0  2  0  0  0  0  0  0
  188.0500  178.1030  139.3240 C   0  0  0  0  0  0  0  0  0  0  0  0
  189.1720  178.0710  136.2910 C   0  0  0  0  0  1  0  0  0  0  0  0
  188.8570  179.2270  137.2170 C   0  0  0  0  0  2  0  0  0  0  0  0
  191.9500  177.7030  140.7820 O   0  0  0  0  0  1  0  0  0  0  0  0
  190.6730  177.1610  140.8080 C   0  0  0  0  0  0  0  0  0  0  0  0
  190.4860  175.9870  140.3930 O   0  0  0  0  0  0  0  0  0  0  0  0
  1 15  1  0  0  0  0
  2 15  2  0  0  0  0
  3 13  2  0  0  0  0
  3  7  1  0  0  0  0
  4  9  1  0  0  0  0
  4  5  1  0  0  0  0
  6 12  1  0  0  0  0
  7  1  2  0  0  0  0
  8  4  2  0  0  0  0
 10  6  2  0  0  0  0
 10  8  1  0  0  0  0
 11  6  1  0  0  0  0
 11 14  2  0  0  0  0
 12  7  1  0  0  0  0
 12  9  2  0  0  0  0
 13  2  1  0  0  0  0
 14  3  1  0  0  0  0
 16 18  1  6  0  0  0
 16 11  1  0  0  0  0
 17 20  2  0  0  0  0
 19 20  1  0  0  0  0
 20 18  1  0  0  0  0
 21 22  1  0  0  0  0
 22 19  1  0  0  0  0
 23 24  1  0  0  0  0
 24 16  1  0  0  0  0
 25 24  2  0  0  0  0
M  END
>  <MODEL>
3

>  <REMARK>
 VINA RESULT:      -8.2      1.774      5.729
  Name = 
  4 active torsions:
  status: ('A' for Active; 'I' for Inactive)
    1  A    between atoms: N_2  and  CA_8
    2  A    between atoms: N_6  and  C_17
    3  A    between atoms: CA_8  and  C_10
    4  A    between atoms: CA_8  and  C_20
                            x       y       z     vdW  Elec       q    Type
                         _______ _______ _______ _____ _____    ______ ____

>  <TORSDO>
F 4

$$$$
=
 OpenBabel11062418093D

 25 27  0  0  1  0  0  0  0  0999 V2000
  184.3660  178.6690  145.4450 C   0  0  0  0  0  3  0  0  0  0  0  0
  183.2120  178.8230  143.4020 N   0  0  0  0  0  0  0  0  0  0  0  0
  185.5230  178.2660  143.3700 C   0  0  0  0  0  0  0  0  0  0  0  0
  188.0410  177.9170  147.5060 C   0  0  0  0  0  0  0  0  0  0  0  0
  188.1190  178.0070  149.2530 Cl  0  0  0  0  0  0  0  0  0  0  0  0
  187.9190  177.7730  144.7010 C   0  0  0  0  0  0  0  0  0  0  0  0
  185.5490  178.3440  144.7730 C   0  0  0  0  0  0  0  0  0  0  0  0
  189.1830  177.5980  146.7740 C   0  0  0  0  0  3  0  0  0  0  0  0
  186.8350  178.1650  146.8490 C   0  0  0  0  0  3  0  0  0  0  0  0
  189.1230  177.5250  145.3810 C   0  0  0  0  0  3  0  0  0  0  0  0
  187.8350  177.7030  143.2900 C   0  0  0  0  0  0  0  0  0  0  0  0
  186.7580  178.0960  145.4480 C   0  0  0  0  0  0  0  0  0  0  0  0
  184.3290  178.5120  142.6950 C   0  0  0  0  0  3  0  0  0  0  0  0
  186.6470  177.9540  142.6780 N   0  0  0  0  0  0  0  0  0  0  0  0
  183.2300  178.8990  144.7350 N   0  0  0  0  0  0  0  0  0  0  0  0
  189.0110  177.3830  142.4070 C   0  0  2  0  0  3  0  0  0  0  0  0
  189.2040  177.2970  138.7460 O   0  0  0  0  0  0  0  0  0  0  0  0
  188.6380  177.3980  140.9950 N   0  0  0  0  0  2  0  0  0  0  0  0
  190.9930  177.2130  140.2430 N   0  0  0  0  0  2  0  0  0  0  0  0
  189.5990  177.3010  139.9430 C   0  0  0  0  0  0  0  0  0  0  0  0
  193.3790  177.1880  139.8230 C   0  0  0  0  0  1  0  0  0  0  0  0
  192.0010  177.1100  139.2010 C   0  0  0  0  0  2  0  0  0  0  0  0
  191.0170  176.1050  143.1560 O   0  0  0  0  0  1  0  0  0  0  0  0
  189.6750  176.0980  142.8020 C   0  0  0  0  0  0  0  0  0  0  0  0
  189.0250  175.0210  142.8470 O   0  0  0  0  0  0  0  0  0  0  0  0
  2 15  1  0  0  0  0
  3  7  1  0  0  0  0
  4  5  1  0  0  0  0
  6 10  1  0  0  0  0
  6 12  1  0  0  0  0
  7  1  1  0  0  0  0
  7 12  2  0  0  0  0
  8  4  1  0  0  0  0
  9  4  2  0  0  0  0
 10  8  2  0  0  0  0
 11  6  2  0  0  0  0
 12  9  1  0  0  0  0
 13  3  1  0  0  0  0
 13  2  2  0  0  0  0
 14 11  1  0  0  0  0
 14  3  2  0  0  0  0
 15  1  2  0  0  0  0
 16 18  1  6  0  0  0
 16 24  1  0  0  0  0
 16 11  1  0  0  0  0
 17 20  2  0  0  0  0
 20 19  1  0  0  0  0
 20 18  1  0  0  0  0
 22 21  1  0  0  0  0
 22 19  1  0  0  0  0
 24 25  2  0  0  0  0
 24 23  1  0  0  0  0
M  END
>  <MODEL>
4

>  <REMARK>
 VINA RESULT:      -8.1      2.505      3.989
  Name = 
  4 active torsions:
  status: ('A' for Active; 'I' for Inactive)
    1  A    between atoms: N_2  and  CA_8
    2  A    between atoms: N_6  and  C_17
    3  A    between atoms: CA_8  and  C_10
    4  A    between atoms: CA_8  and  C_20
                            x       y       z     vdW  Elec       q    Type
                         _______ _______ _______ _____ _____    ______ ____

>  <TORSDO>
F 4

$$$$
=
 OpenBabel11062418093D

 25 27  0  0  1  0  0  0  0  0999 V2000
  185.6470  178.7040  139.9130 C   0  0  0  0  0  3  0  0  0  0  0  0
  187.4580  178.5390  138.4230 N   0  0  0  0  0  0  0  0  0  0  0  0
  187.8570  178.2190  140.7440 C   0  0  0  0  0  0  0  0  0  0  0  0
  184.2200  178.5320  143.9450 C   0  0  0  0  0  0  0  0  0  0  0  0
  182.5270  178.8000  144.3050 Cl  0  0  0  0  0  0  0  0  0  0  0  0
  186.9380  178.1040  143.3710 C   0  0  0  0  0  0  0  0  0  0  0  0
  186.4920  178.4360  140.9970 C   0  0  0  0  0  0  0  0  0  0  0  0
  185.1170  178.2610  144.9780 C   0  0  0  0  0  3  0  0  0  0  0  0
  184.6690  178.5920  142.6250 C   0  0  0  0  0  3  0  0  0  0  0  0
  186.4670  178.0470  144.6930 C   0  0  0  0  0  3  0  0  0  0  0  0
  188.3020  177.8890  143.0600 C   0  0  0  0  0  0  0  0  0  0  0  0
  186.0250  178.3790  142.3220 C   0  0  0  0  0  0  0  0  0  0  0  0
  188.3260  178.2760  139.4340 C   0  0  0  0  0  3  0  0  0  0  0  0
  188.7110  177.9570  141.7650 N   0  0  0  0  0  0  0  0  0  0  0  0
  186.1600  178.7460  138.6560 N   0  0  0  0  0  0  0  0  0  0  0  0
  189.3530  177.6050  144.1000 C   0  0  2  0  0  3  0  0  0  0  0  0
  189.1710  177.9700  147.7430 O   0  0  0  0  0  0  0  0  0  0  0  0
  188.8850  177.9450  145.4400 N   0  0  0  0  0  2  0  0  0  0  0  0
  190.8640  176.9210  146.5260 N   0  0  0  0  0  2  0  0  0  0  0  0
  189.6240  177.6260  146.6190 C   0  0  0  0  0  0  0  0  0  0  0  0
  192.4420  175.3210  147.4310 C   0  0  0  0  0  1  0  0  0  0  0  0
  191.6470  176.5820  147.7020 C   0  0  0  0  0  2  0  0  0  0  0  0
  191.6960  177.5090  143.2480 O   0  0  0  0  0  0  0  0  0  0  0  0
  190.6580  178.2680  143.7730 C   0  0  0  0  0  0  0  0  0  0  0  0
  190.8140  179.5060  143.9370 O   0  0  0  0  0  1  0  0  0  0  0  0
  1  7  1  0  0  0  0
  2 15  1  0  0  0  0
  2 13  2  0  0  0  0
  3  7  2  0  0  0  0
  3 14  1  0  0  0  0
  4  5  1  0  0  0  0
  4  8  1  0  0  0  0
  6 10  1  0  0  0  0
  7 12  1  0  0  0  0
  9  4  2  0  0  0  0
 10  8  2  0  0  0  0
 11  6  1  0  0  0  0
 11 16  1  0  0  0  0
 12  9  1  0  0  0  0
 12  6  2  0  0  0  0
 13  3  1  0  0  0  0
 14 11  2  0  0  0  0
 15  1  2  0  0  0  0
 16 24  1  6  0  0  0
 16 18  1  0  0  0  0
 18 20  1  0  0  0  0
 19 20  1  0  0  0  0
 19 22  1  0  0  0  0
 20 17  2  0  0  0  0
 21 22  1  0  0  0  0
 23 24  2  0  0  0  0
 24 25  1  0  0  0  0
M  END
>  <MODEL>
5

>  <REMARK>
 VINA RESULT:      -8.1      1.804      2.416
  Name = 
  4 active torsions:
  status: ('A' for Active; 'I' for Inactive)
    1  A    between atoms: N_2  and  CA_8
    2  A    between atoms: N_6  and  C_17
    3  A    between atoms: CA_8  and  C_10
    4  A    between atoms: CA_8  and  C_20
                            x       y       z     vdW  Elec       q    Type
                         _______ _______ _______ _____ _____    ______ ____

>  <TORSDO>
F 4

$$$$
=
 OpenBabel11062418093D

 25 27  0  0  1  0  0  0  0  0999 V2000
  189.7330  177.0360  147.0080 C   0  0  0  0  0  3  0  0  0  0  0  0
  191.9450  176.4690  146.4530 N   0  0  0  0  0  0  0  0  0  0  0  0
  190.3970  176.8780  144.6960 C   0  0  0  0  0  0  0  0  0  0  0  0
  185.7910  178.0540  145.6850 C   0  0  0  0  0  0  0  0  0  0  0  0
  184.5160  178.3730  146.8410 Cl  0  0  0  0  0  0  0  0  0  0  0  0
  187.8370  177.5420  143.8250 C   0  0  0  0  0  0  0  0  0  0  0  0
  189.3980  177.1300  145.6520 C   0  0  0  0  0  0  0  0  0  0  0  0
  185.5270  178.1310  144.3170 C   0  0  0  0  0  3  0  0  0  0  0  0
  187.0710  177.7230  146.1320 C   0  0  0  0  0  3  0  0  0  0  0  0
  186.5420  177.8770  143.3940 C   0  0  0  0  0  3  0  0  0  0  0  0
  188.8800  177.2810  142.9050 C   0  0  0  0  0  0  0  0  0  0  0  0
  188.1040  177.4650  145.2150 C   0  0  0  0  0  0  0  0  0  0  0  0
  191.6800  176.5440  145.1230 C   0  0  0  0  0  3  0  0  0  0  0  0
  190.1160  176.9580  143.3710 N   0  0  0  0  0  0  0  0  0  0  0  0
  191.0010  176.7070  147.3660 N   0  0  0  0  0  0  0  0  0  0  0  0
  188.6970  177.3220  141.4120 C   0  0  2  0  0  3  0  0  0  0  0  0
  191.0910  176.4760  138.7670 O   0  0  0  0  0  0  0  0  0  0  0  0
  189.9350  176.9940  140.7120 N   0  0  0  0  0  2  0  0  0  0  0  0
  188.7850  176.7490  138.5300 N   0  0  0  0  0  2  0  0  0  0  0  0
  189.9820  176.7300  139.3090 C   0  0  0  0  0  0  0  0  0  0  0  0
  188.7760  177.8020  136.3490 C   0  0  0  0  0  1  0  0  0  0  0  0
  188.7910  176.4880  137.1010 C   0  0  0  0  0  2  0  0  0  0  0  0
  186.9640  178.6280  140.1810 O   0  0  0  0  0  0  0  0  0  0  0  0
  188.1180  178.6270  140.9530 C   0  0  0  0  0  0  0  0  0  0  0  0
  188.6450  179.7210  141.2860 O   0  0  0  0  0  1  0  0  0  0  0  0
  1 15  1  0  0  0  0
  2 15  2  0  0  0  0
  3 13  2  0  0  0  0
  3  7  1  0  0  0  0
  4  9  1  0  0  0  0
  4  5  1  0  0  0  0
  6 12  1  0  0  0  0
  7  1  2  0  0  0  0
  8  4  2  0  0  0  0
 10  6  2  0  0  0  0
 10  8  1  0  0  0  0
 11 14  2  0  0  0  0
 11  6  1  0  0  0  0
 12  7  1  0  0  0  0
 12  9  2  0  0  0  0
 13  2  1  0  0  0  0
 14  3  1  0  0  0  0
 16 18  1  6  0  0  0
 16 11  1  0  0  0  0
 17 20  2  0  0  0  0
 19 20  1  0  0  0  0
 20 18  1  0  0  0  0
 21 22  1  0  0  0  0
 22 19  1  0  0  0  0
 23 24  2  0  0  0  0
 24 25  1  0  0  0  0
 24 16  1  0  0  0  0
M  END
>  <MODEL>
6

>  <REMARK>
 VINA RESULT:      -8.0      2.205      5.761
  Name = 
  4 active torsions:
  status: ('A' for Active; 'I' for Inactive)
    1  A    between atoms: N_2  and  CA_8
    2  A    between atoms: N_6  and  C_17
    3  A    between atoms: CA_8  and  C_10
    4  A    between atoms: CA_8  and  C_20
                            x       y       z     vdW  Elec       q    Type
                         _______ _______ _______ _____ _____    ______ ____

>  <TORSDO>
F 4

$$$$
=
 OpenBabel11062418093D

 25 27  0  0  1  0  0  0  0  0999 V2000
  186.6140  178.0570  146.8170 C   0  0  0  0  0  3  0  0  0  0  0  0
  184.5840  178.7020  145.8220 N   0  0  0  0  0  0  0  0  0  0  0  0
  186.4140  178.1290  144.4170 C   0  0  0  0  0  0  0  0  0  0  0  0
  190.6710  176.7830  146.3250 C   0  0  0  0  0  0  0  0  0  0  0  0
  191.6810  176.4620  147.7180 Cl  0  0  0  0  0  0  0  0  0  0  0  0
  189.0520  177.2980  144.0850 C   0  0  0  0  0  0  0  0  0  0  0  0
  187.1960  177.8780  145.5570 C   0  0  0  0  0  0  0  0  0  0  0  0
  191.1870  176.6240  145.0390 C   0  0  0  0  0  3  0  0  0  0  0  0
  189.3500  177.1980  146.5020 C   0  0  0  0  0  3  0  0  0  0  0  0
  190.3830  176.8790  143.9270 C   0  0  0  0  0  3  0  0  0  0  0  0
  188.2190  177.5610  142.9710 C   0  0  0  0  0  0  0  0  0  0  0  0
  188.5290  177.4590  145.3930 C   0  0  0  0  0  0  0  0  0  0  0  0
  185.0940  178.5450  144.5720 C   0  0  0  0  0  3  0  0  0  0  0  0
  186.9380  177.9680  143.1760 N   0  0  0  0  0  0  0  0  0  0  0  0
  185.3210  178.4650  146.9100 N   0  0  0  0  0  0  0  0  0  0  0  0
  188.6820  177.4360  141.5450 C   0  0  2  0  0  3  0  0  0  0  0  0
  192.1380  177.5030  140.3210 O   0  0  0  0  0  0  0  0  0  0  0  0
  190.1040  177.7380  141.4150 N   0  0  0  0  0  2  0  0  0  0  0  0
  190.3680  176.2580  139.4440 N   0  0  0  0  0  2  0  0  0  0  0  0
  190.9220  177.1790  140.3860 C   0  0  0  0  0  0  0  0  0  0  0  0
  190.9270  176.4280  137.0930 C   0  0  0  0  0  1  0  0  0  0  0  0
  191.1660  175.6700  138.3820 C   0  0  0  0  0  2  0  0  0  0  0  0
  187.5550  177.7630  139.3430 O   0  0  0  0  0  0  0  0  0  0  0  0
  187.8430  178.2540  140.6090 C   0  0  0  0  0  0  0  0  0  0  0  0
  187.3700  179.3640  140.9680 O   0  0  0  0  0  1  0  0  0  0  0  0
  1 15  1  0  0  0  0
  2 15  2  0  0  0  0
  3 13  2  0  0  0  0
  3  7  1  0  0  0  0
  4  9  1  0  0  0  0
  4  5  1  0  0  0  0
  6 12  1  0  0  0  0
  7  1  2  0  0  0  0
  8  4  2  0  0  0  0
 10  6  2  0  0  0  0
 10  8  1  0  0  0  0
 11 14  2  0  0  0  0
 11  6  1  0  0  0  0
 12  7  1  0  0  0  0
 12  9  2  0  0  0  0
 13  2  1  0  0  0  0
 14  3  1  0  0  0  0
 16 24  1  6  0  0  0
 16 11  1  0  0  0  0
 17 20  2  0  0  0  0
 18 16  1  0  0  0  0
 19 20  1  0  0  0  0
 20 18  1  0  0  0  0
 21 22  1  0  0  0  0
 22 19  1  0  0  0  0
 23 24  2  0  0  0  0
 24 25  1  0  0  0  0
M  END
>  <MODEL>
7

>  <REMARK>
 VINA RESULT:      -8.0      2.956      4.988
  Name = 
  4 active torsions:
  status: ('A' for Active; 'I' for Inactive)
    1  A    between atoms: N_2  and  CA_8
    2  A    between atoms: N_6  and  C_17
    3  A    between atoms: CA_8  and  C_10
    4  A    between atoms: CA_8  and  C_20
                            x       y       z     vdW  Elec       q    Type
                         _______ _______ _______ _____ _____    ______ ____

>  <TORSDO>
F 4

$$$$
=
 OpenBabel11062418093D

 25 27  0  0  1  0  0  0  0  0999 V2000
  187.0640  178.2150  147.7320 C   0  0  0  0  0  3  0  0  0  0  0  0
  189.1740  177.8830  148.7150 N   0  0  0  0  0  0  0  0  0  0  0  0
  188.9880  177.7810  146.3470 C   0  0  0  0  0  0  0  0  0  0  0  0
  184.6980  178.4390  144.1720 C   0  0  0  0  0  0  0  0  0  0  0  0
  182.9790  178.7570  144.2620 Cl  0  0  0  0  0  0  0  0  0  0  0  0
  187.4590  177.9270  144.0250 C   0  0  0  0  0  0  0  0  0  0  0  0
  187.6110  178.0400  146.4560 C   0  0  0  0  0  0  0  0  0  0  0  0
  185.3090  178.2560  142.9310 C   0  0  0  0  0  3  0  0  0  0  0  0
  185.4560  178.3690  145.3420 C   0  0  0  0  0  3  0  0  0  0  0  0
  186.6800  178.0020  142.8580 C   0  0  0  0  0  3  0  0  0  0  0  0
  188.8500  177.6710  143.9730 C   0  0  0  0  0  0  0  0  0  0  0  0
  186.8360  178.1140  145.2850 C   0  0  0  0  0  0  0  0  0  0  0  0
  189.7620  177.7050  147.5030 C   0  0  0  0  0  3  0  0  0  0  0  0
  189.5600  177.6050  145.1300 N   0  0  0  0  0  0  0  0  0  0  0  0
  187.8660  178.1300  148.8250 N   0  0  0  0  0  0  0  0  0  0  0  0
  189.6020  177.4440  142.6890 C   0  0  2  0  0  3  0  0  0  0  0  0
  188.3040  177.0690  139.2800 O   0  0  0  0  0  0  0  0  0  0  0  0
  188.6920  177.2730  141.5600 N   0  0  0  0  0  2  0  0  0  0  0  0
  190.5280  177.4120  139.9000 N   0  0  0  0  0  2  0  0  0  0  0  0
  189.1430  177.2430  140.2040 C   0  0  0  0  0  0  0  0  0  0  0  0
  191.5300  175.9950  138.2100 C   0  0  0  0  0  1  0  0  0  0  0  0
  191.0260  177.3850  138.5350 C   0  0  0  0  0  2  0  0  0  0  0  0
  191.9340  176.5860  142.9040 O   0  0  0  0  0  1  0  0  0  0  0  0
  190.5770  176.3100  142.8040 C   0  0  0  0  0  0  0  0  0  0  0  0
  190.1800  175.1170  142.8450 O   0  0  0  0  0  0  0  0  0  0  0  0
  1 15  1  0  0  0  0
  2 15  2  0  0  0  0
  3  7  1  0  0  0  0
  3 13  2  0  0  0  0
  4  5  1  0  0  0  0
  4  9  1  0  0  0  0
  6 12  1  0  0  0  0
  7  1  2  0  0  0  0
  8  4  2  0  0  0  0
 10  8  1  0  0  0  0
 10  6  2  0  0  0  0
 11  6  1  0  0  0  0
 11 14  2  0  0  0  0
 12  9  2  0  0  0  0
 12  7  1  0  0  0  0
 13  2  1  0  0  0  0
 14  3  1  0  0  0  0
 16 18  1  6  0  0  0
 16 24  1  0  0  0  0
 16 11  1  0  0  0  0
 17 20  2  0  0  0  0
 19 20  1  0  0  0  0
 20 18  1  0  0  0  0
 21 22  1  0  0  0  0
 22 19  1  0  0  0  0
 24 25  2  0  0  0  0
 24 23  1  0  0  0  0
M  END
>  <MODEL>
8

>  <REMARK>
 VINA RESULT:      -7.8      2.324      5.355
  Name = 
  4 active torsions:
  status: ('A' for Active; 'I' for Inactive)
    1  A    between atoms: N_2  and  CA_8
    2  A    between atoms: N_6  and  C_17
    3  A    between atoms: CA_8  and  C_10
    4  A    between atoms: CA_8  and  C_20
                            x       y       z     vdW  Elec       q    Type
                         _______ _______ _______ _____ _____    ______ ____

>  <TORSDO>
F 4

$$$$
=
 OpenBabel11062418093D

 25 27  0  0  1  0  0  0  0  0999 V2000
  189.7920  177.4140  146.4070 C   0  0  0  0  0  3  0  0  0  0  0  0
  188.4150  177.6500  148.2980 N   0  0  0  0  0  0  0  0  0  0  0  0
  187.4410  177.8740  146.1400 C   0  0  0  0  0  0  0  0  0  0  0  0
  190.1580  177.4180  142.1420 C   0  0  0  0  0  0  0  0  0  0  0  0
  191.7080  177.1340  141.3800 Cl  0  0  0  0  0  0  0  0  0  0  0  0
  187.6680  177.8770  143.3650 C   0  0  0  0  0  0  0  0  0  0  0  0
  188.7000  177.6400  145.5610 C   0  0  0  0  0  0  0  0  0  0  0  0
  189.0280  177.6500  141.3590 C   0  0  0  0  0  3  0  0  0  0  0  0
  190.0550  177.4140  143.5340 C   0  0  0  0  0  3  0  0  0  0  0  0
  187.7910  177.8770  141.9650 C   0  0  0  0  0  3  0  0  0  0  0  0
  186.4240  178.1040  144.0000 C   0  0  0  0  0  0  0  0  0  0  0  0
  188.8180  177.6410  144.1600 C   0  0  0  0  0  0  0  0  0  0  0  0
  187.3180  177.8760  147.5280 C   0  0  0  0  0  3  0  0  0  0  0  0
  186.3560  178.0980  145.3580 N   0  0  0  0  0  0  0  0  0  0  0  0
  189.6130  177.4270  147.7540 N   0  0  0  0  0  0  0  0  0  0  0  0
  185.1490  178.3790  143.2480 C   0  0  2  0  0  3  0  0  0  0  0  0
  184.9310  179.7530  139.8560 O   0  0  0  0  0  0  0  0  0  0  0  0
  185.3940  179.1910  142.0600 N   0  0  0  0  0  2  0  0  0  0  0  0
  183.7080  177.9620  140.7200 N   0  0  0  0  0  2  0  0  0  0  0  0
  184.6840  178.9990  140.8350 C   0  0  0  0  0  0  0  0  0  0  0  0
  182.6590  176.2600  139.3520 C   0  0  0  0  0  1  0  0  0  0  0  0
  182.9640  177.7370  139.4930 C   0  0  0  0  0  2  0  0  0  0  0  0
  184.0770  180.3470  144.3440 O   0  0  0  0  0  0  0  0  0  0  0  0
  184.0950  178.9750  144.1320 C   0  0  0  0  0  0  0  0  0  0  0  0
  183.2060  178.2530  144.6560 O   0  0  0  0  0  1  0  0  0  0  0  0
  1 15  1  0  0  0  0
  3 13  2  0  0  0  0
  4  9  1  0  0  0  0
  5  4  1  0  0  0  0
  6 11  1  0  0  0  0
  6 12  1  0  0  0  0
  7  3  1  0  0  0  0
  7  1  2  0  0  0  0
  8 10  1  0  0  0  0
  8  4  2  0  0  0  0
  9 12  2  0  0  0  0
 10  6  2  0  0  0  0
 11 14  2  0  0  0  0
 12  7  1  0  0  0  0
 13  2  1  0  0  0  0
 14  3  1  0  0  0  0
 15  2  2  0  0  0  0
 16 18  1  6  0  0  0
 16 11  1  0  0  0  0
 16 24  1  0  0  0  0
 17 20  2  0  0  0  0
 19 20  1  0  0  0  0
 20 18  1  0  0  0  0
 21 22  1  0  0  0  0
 22 19  1  0  0  0  0
 24 23  2  0  0  0  0
 24 25  1  0  0  0  0
M  END
>  <MODEL>
9

>  <REMARK>
 VINA RESULT:      -7.8      3.825      7.217
  Name = 
  4 active torsions:
  status: ('A' for Active; 'I' for Inactive)
    1  A    between atoms: N_2  and  CA_8
    2  A    between atoms: N_6  and  C_17
    3  A    between atoms: CA_8  and  C_10
    4  A    between atoms: CA_8  and  C_20
                            x       y       z     vdW  Elec       q    Type
                         _______ _______ _______ _____ _____    ______ ____

>  <TORSDO>
F 4

$$$$
