=
 OpenBabel11062414443D

 27 30  0  0  1  0  0  0  0  0999 V2000
  187.4860  177.2590  143.0330 C   0  0  0  0  0  2  0  0  0  0  0  0
  190.1710  177.5180  144.4370 C   0  0  0  0  0  0  0  0  0  0  0  0
  191.1860  177.1090  146.4200 N   0  0  0  0  0  0  0  0  0  0  0  0
  187.3030  177.3690  146.7690 C   0  0  0  0  0  3  0  0  0  0  0  0
  187.0330  177.4790  144.4030 N   0  0  0  0  0  2  0  0  0  0  0  0
  188.5790  178.2450  142.6280 C   0  0  1  0  0  3  0  0  0  0  0  0
  189.2890  178.0880  145.4930 C   0  0  2  0  0  3  0  0  0  0  0  0
  190.0630  177.6790  146.6980 C   0  0  0  0  0  0  0  0  0  0  0  0
  189.4170  177.5900  148.0080 C   0  0  0  0  0  3  0  0  0  0  0  0
  189.9780  177.6980  142.9580 C   0  0  2  0  0  3  0  0  0  0  0  0
  191.2820  177.0520  145.0010 C   0  0  0  0  0  3  0  0  0  0  0  0
  187.8720  177.5480  145.5630 C   0  0  0  0  0  0  0  0  0  0  0  0
  188.0840  177.4660  148.0310 C   0  0  0  0  0  3  0  0  0  0  0  0
  190.3370  176.4520  142.1860 C   0  0  0  0  0  0  0  0  0  0  0  0
  190.1930  175.3450  142.6780 O   0  0  0  0  0  0  0  0  0  0  0  0
  191.0040  176.6050  140.5330 S   0  0  0  0  0  1  0  0  0  0  0  0
  188.4690  178.6090  141.1530 C   0  0  0  0  0  2  0  0  0  0  0  0
  185.9060  178.7110  140.4070 C   0  0  0  0  0  0  0  0  0  0  0  0
  187.0630  178.6630  140.7440 C   0  0  0  0  0  0  0  0  0  0  0  0
  184.2120  178.4380  138.8330 O   0  0  0  0  0  0  0  0  0  0  0  0
  184.5300  178.7700  140.0060 C   0  0  0  0  0  0  0  0  0  0  0  0
  183.5640  179.1980  140.9270 O   0  0  0  0  0  0  0  0  0  0  0  0
  181.6510  179.0330  143.9030 C   0  0  0  0  0  2  0  0  0  0  0  0
  183.9870  178.9780  143.3210 C   0  0  0  0  0  2  0  0  0  0  0  0
  183.2100  178.4870  142.1140 C   0  0  0  0  0  3  0  0  0  0  0  0
  181.7320  178.6230  142.4430 C   0  0  0  0  0  2  0  0  0  0  0  0
  183.0350  178.8280  144.4840 C   0  0  0  0  0  2  0  0  0  0  0  0
  1  5  1  0  0  0  0
  2 11  2  0  0  0  0
  3  8  2  0  0  0  0
  4 13  1  0  0  0  0
  5 12  1  0  0  0  0
  6 17  1  6  0  0  0
  6 10  1  0  0  0  0
  6  1  1  0  0  0  0
  7  2  1  6  0  0  0
  7 12  1  0  0  0  0
  7  8  1  0  0  0  0
  8  9  1  0  0  0  0
  9 13  2  0  0  0  0
 10 14  1  6  0  0  0
 10  2  1  0  0  0  0
 11  3  1  0  0  0  0
 12  4  2  0  0  0  0
 14 15  2  0  0  0  0
 16 14  1  0  0  0  0
 18 19  3  0  0  0  0
 19 17  1  0  0  0  0
 20 21  2  0  0  0  0
 21 18  1  0  0  0  0
 21 22  1  0  0  0  0
 22 25  1  0  0  0  0
 23 27  1  0  0  0  0
 24 27  1  0  0  0  0
 25 26  1  0  0  0  0
 25 24  1  0  0  0  0
 26 23  1  0  0  0  0
M  END
>  <MODEL>
1

>  <REMARK>
 VINA RESULT:      -8.1      0.000      0.000
  Name = 
  6 active torsions:
  status: ('A' for Active; 'I' for Inactive)
    1  A    between atoms: C_4  and  C_18
    2  A    between atoms: C_6  and  C_24
    3  A    between atoms: C_10  and  C_16
    4  A    between atoms: C_16  and  C_27
    5  A    between atoms: C_17  and  O_20
    6  A    between atoms: O_20  and  C_24
                            x       y       z     vdW  Elec       q    Type
                         _______ _______ _______ _____ _____    ______ ____

>  <TORSDO>
F 6

$$$$
=
 OpenBabel11062414443D

 27 30  0  0  1  0  0  0  0  0999 V2000
  187.8710  178.1460  142.3880 C   0  0  0  0  0  2  0  0  0  0  0  0
  190.4900  177.0350  141.3140 C   0  0  0  0  0  0  0  0  0  0  0  0
  191.8850  177.1810  139.5350 N   0  0  0  0  0  0  0  0  0  0  0  0
  188.2570  178.3450  138.6710 C   0  0  0  0  0  3  0  0  0  0  0  0
  187.5940  178.1890  140.9560 N   0  0  0  0  0  2  0  0  0  0  0  0
  188.4800  176.8110  142.8110 C   0  0  1  0  0  3  0  0  0  0  0  0
  189.6450  176.8860  140.0960 C   0  0  2  0  0  3  0  0  0  0  0  0
  190.6940  177.0680  139.0540 C   0  0  0  0  0  0  0  0  0  0  0  0
  190.3340  177.4640  137.6920 C   0  0  0  0  0  3  0  0  0  0  0  0
  190.0150  176.8430  142.7260 C   0  0  2  0  0  3  0  0  0  0  0  0
  191.7680  177.1090  140.9530 C   0  0  0  0  0  3  0  0  0  0  0  0
  188.5310  177.8990  139.9100 C   0  0  0  0  0  0  0  0  0  0  0  0
  189.1460  178.0560  137.5160 C   0  0  0  0  0  3  0  0  0  0  0  0
  190.6520  177.8270  143.6760 C   0  0  0  0  0  0  0  0  0  0  0  0
  190.6360  179.0250  143.4420 O   0  0  0  0  0  0  0  0  0  0  0  0
  191.4630  177.2250  145.1530 S   0  0  0  0  0  1  0  0  0  0  0  0
  188.0190  176.4190  144.2090 C   0  0  0  0  0  2  0  0  0  0  0  0
  186.1500  178.1140  145.0860 C   0  0  0  0  0  0  0  0  0  0  0  0
  186.9920  177.3480  144.6890 C   0  0  0  0  0  0  0  0  0  0  0  0
  185.1870  179.4220  146.7540 O   0  0  0  0  0  0  0  0  0  0  0  0
  185.1500  179.0270  145.5590 C   0  0  0  0  0  0  0  0  0  0  0  0
  184.1470  179.4610  144.6810 O   0  0  0  0  0  0  0  0  0  0  0  0
  183.0860  178.7340  141.3810 C   0  0  0  0  0  2  0  0  0  0  0  0
  182.0320  179.1220  143.5110 C   0  0  0  0  0  2  0  0  0  0  0  0
  183.4310  178.6070  143.7870 C   0  0  0  0  0  3  0  0  0  0  0  0
  184.1330  178.4640  142.4470 C   0  0  0  0  0  2  0  0  0  0  0  0
  181.7440  178.7200  142.0840 C   0  0  0  0  0  2  0  0  0  0  0  0
  1  6  1  0  0  0  0
  2 10  1  0  0  0  0
  3 11  1  0  0  0  0
  4 12  2  0  0  0  0
  5  1  1  0  0  0  0
  6 17  1  1  0  0  0
  7  8  1  6  0  0  0
  7  2  1  0  0  0  0
  8  3  2  0  0  0  0
  9  8  1  0  0  0  0
 10  6  1  0  0  0  0
 10 14  1  1  0  0  0
 11  2  2  0  0  0  0
 12  7  1  0  0  0  0
 12  5  1  0  0  0  0
 13  9  2  0  0  0  0
 13  4  1  0  0  0  0
 14 16  1  0  0  0  0
 15 14  2  0  0  0  0
 17 19  1  0  0  0  0
 18 21  1  0  0  0  0
 19 18  3  0  0  0  0
 21 20  2  0  0  0  0
 22 21  1  0  0  0  0
 23 27  1  0  0  0  0
 23 26  1  0  0  0  0
 24 25  1  0  0  0  0
 25 22  1  0  0  0  0
 26 25  1  0  0  0  0
 27 24  1  0  0  0  0
M  END
>  <MODEL>
2

>  <REMARK>
 VINA RESULT:      -8.0      2.891      5.214
  Name = 
  6 active torsions:
  status: ('A' for Active; 'I' for Inactive)
    1  A    between atoms: C_4  and  C_18
    2  A    between atoms: C_6  and  C_24
    3  A    between atoms: C_10  and  C_16
    4  A    between atoms: C_16  and  C_27
    5  A    between atoms: C_17  and  O_20
    6  A    between atoms: O_20  and  C_24
                            x       y       z     vdW  Elec       q    Type
                         _______ _______ _______ _____ _____    ______ ____

>  <TORSDO>
F 6

$$$$
=
 OpenBabel11062414443D

 27 30  0  0  1  0  0  0  0  0999 V2000
  188.5930  176.7840  143.8900 C   0  0  0  0  0  2  0  0  0  0  0  0
  187.3740  178.3670  146.1830 C   0  0  0  0  0  0  0  0  0  0  0  0
  185.3770  178.8920  147.1150 N   0  0  0  0  0  0  0  0  0  0  0  0
  185.0260  177.7930  143.3820 C   0  0  0  0  0  3  0  0  0  0  0  0
  187.3250  177.1730  143.2810 N   0  0  0  0  0  2  0  0  0  0  0  0
  189.2760  177.9600  144.5860 C   0  0  1  0  0  3  0  0  0  0  0  0
  186.4930  178.8290  145.0730 C   0  0  2  0  0  3  0  0  0  0  0  0
  185.2400  179.0620  145.8440 C   0  0  0  0  0  0  0  0  0  0  0  0
  183.9410  179.0880  145.1700 C   0  0  0  0  0  3  0  0  0  0  0  0
  188.8400  178.0710  146.0570 C   0  0  2  0  0  3  0  0  0  0  0  0
  186.7290  178.5060  147.3380 C   0  0  0  0  0  3  0  0  0  0  0  0
  186.2470  177.8460  143.9440 C   0  0  0  0  0  0  0  0  0  0  0  0
  183.8560  178.4950  143.9730 C   0  0  0  0  0  3  0  0  0  0  0  0
  189.2530  176.8880  146.8990 C   0  0  0  0  0  0  0  0  0  0  0  0
  188.4190  176.1220  147.3540 O   0  0  0  0  0  0  0  0  0  0  0  0
  190.9860  176.6220  147.2510 S   0  0  0  0  0  1  0  0  0  0  0  0
  190.7910  177.8590  144.4710 C   0  0  0  0  0  2  0  0  0  0  0  0
  191.5110  177.5190  141.9210 C   0  0  0  0  0  0  0  0  0  0  0  0
  191.1870  177.6740  143.0710 C   0  0  0  0  0  0  0  0  0  0  0  0
  193.1060  177.4520  140.2260 O   0  0  0  0  0  0  0  0  0  0  0  0
  191.8950  177.3330  140.5510 C   0  0  0  0  0  0  0  0  0  0  0  0
  190.9140  177.0240  139.5990 O   0  0  0  0  0  0  0  0  0  0  0  0
  187.6200  177.9000  138.6390 C   0  0  0  0  0  2  0  0  0  0  0  0
  189.7590  177.6890  137.5540 C   0  0  0  0  0  2  0  0  0  0  0  0
  190.0230  177.9780  139.0190 C   0  0  0  0  0  3  0  0  0  0  0  0
  188.6760  178.0050  139.7240 C   0  0  0  0  0  2  0  0  0  0  0  0
  188.3330  178.1270  137.3220 C   0  0  0  0  0  2  0  0  0  0  0  0
  1  6  1  0  0  0  0
  2 11  2  0  0  0  0
  3 11  1  0  0  0  0
  4 12  2  0  0  0  0
  4 13  1  0  0  0  0
  5  1  1  0  0  0  0
  5 12  1  0  0  0  0
  6 17  1  1  0  0  0
  6 10  1  0  0  0  0
  7 12  1  6  0  0  0
  7  8  1  0  0  0  0
  7  2  1  0  0  0  0
  8  3  2  0  0  0  0
  9  8  1  0  0  0  0
 10  2  1  0  0  0  0
 10 14  1  1  0  0  0
 13  9  2  0  0  0  0
 14 16  1  0  0  0  0
 14 15  2  0  0  0  0
 18 19  3  0  0  0  0
 19 17  1  0  0  0  0
 20 21  2  0  0  0  0
 21 18  1  0  0  0  0
 22 21  1  0  0  0  0
 23 26  1  0  0  0  0
 24 25  1  0  0  0  0
 25 22  1  0  0  0  0
 25 26  1  0  0  0  0
 27 24  1  0  0  0  0
 27 23  1  0  0  0  0
M  END
>  <MODEL>
3

>  <REMARK>
 VINA RESULT:      -7.8      3.080      5.846
  Name = 
  6 active torsions:
  status: ('A' for Active; 'I' for Inactive)
    1  A    between atoms: C_4  and  C_18
    2  A    between atoms: C_6  and  C_24
    3  A    between atoms: C_10  and  C_16
    4  A    between atoms: C_16  and  C_27
    5  A    between atoms: C_17  and  O_20
    6  A    between atoms: O_20  and  C_24
                            x       y       z     vdW  Elec       q    Type
                         _______ _______ _______ _____ _____    ______ ____

>  <TORSDO>
F 6

$$$$
=
 OpenBabel11062414443D

 27 30  0  0  1  0  0  0  0  0999 V2000
  189.5040  176.7400  143.2380 C   0  0  0  0  0  2  0  0  0  0  0  0
  189.7560  177.5620  146.1550 C   0  0  0  0  0  0  0  0  0  0  0  0
  188.5730  177.6480  148.0850 N   0  0  0  0  0  0  0  0  0  0  0  0
  186.2630  177.5240  144.9360 C   0  0  0  0  0  3  0  0  0  0  0  0
  188.1310  177.1590  143.5010 N   0  0  0  0  0  2  0  0  0  0  0  0
  190.5190  177.7520  143.7650 C   0  0  1  0  0  3  0  0  0  0  0  0
  188.4560  178.2140  145.8310 C   0  0  2  0  0  3  0  0  0  0  0  0
  187.8050  178.1280  147.1670 C   0  0  0  0  0  0  0  0  0  0  0  0
  186.3500  178.2110  147.2960 C   0  0  0  0  0  3  0  0  0  0  0  0
  190.9210  177.4400  145.2160 C   0  0  2  0  0  3  0  0  0  0  0  0
  189.8170  177.3390  147.4650 C   0  0  0  0  0  3  0  0  0  0  0  0
  187.5990  177.5390  144.7770 C   0  0  0  0  0  0  0  0  0  0  0  0
  185.6170  177.9430  146.2090 C   0  0  0  0  0  3  0  0  0  0  0  0
  191.6380  176.1210  145.3730 C   0  0  0  0  0  0  0  0  0  0  0  0
  191.7880  175.3710  144.4220 O   0  0  0  0  0  0  0  0  0  0  0  0
  192.2560  175.6430  146.9830 S   0  0  0  0  0  1  0  0  0  0  0  0
  191.7440  177.8200  142.8610 C   0  0  0  0  0  2  0  0  0  0  0  0
  191.1090  177.0660  140.3780 C   0  0  0  0  0  0  0  0  0  0  0  0
  191.3970  177.4080  141.4980 C   0  0  0  0  0  0  0  0  0  0  0  0
  190.7130  175.4330  138.7670 O   0  0  0  0  0  0  0  0  0  0  0  0
  190.7650  176.6600  139.0460 C   0  0  0  0  0  0  0  0  0  0  0  0
  190.4950  177.6380  138.0790 O   0  0  0  0  0  0  0  0  0  0  0  0
  186.9580  177.7230  137.9130 C   0  0  0  0  0  2  0  0  0  0  0  0
  188.7910  178.5690  136.6000 C   0  0  0  0  0  2  0  0  0  0  0  0
  189.2920  178.4070  138.0220 C   0  0  0  0  0  3  0  0  0  0  0  0
  188.1700  177.7720  138.8270 C   0  0  0  0  0  2  0  0  0  0  0  0
  187.2850  178.5960  136.7190 C   0  0  0  0  0  2  0  0  0  0  0  0
  1  5  1  0  0  0  0
  1  6  1  0  0  0  0
  2 11  2  0  0  0  0
  4 13  1  0  0  0  0
  5 12  1  0  0  0  0
  6 17  1  6  0  0  0
  6 10  1  0  0  0  0
  7 12  1  6  0  0  0
  7  2  1  0  0  0  0
  7  8  1  0  0  0  0
  8  9  1  0  0  0  0
  8  3  2  0  0  0  0
 10 14  1  6  0  0  0
 10  2  1  0  0  0  0
 11  3  1  0  0  0  0
 12  4  2  0  0  0  0
 13  9  2  0  0  0  0
 14 16  1  0  0  0  0
 15 14  2  0  0  0  0
 18 19  3  0  0  0  0
 19 17  1  0  0  0  0
 20 21  2  0  0  0  0
 21 18  1  0  0  0  0
 22 21  1  0  0  0  0
 23 26  1  0  0  0  0
 24 27  1  0  0  0  0
 24 25  1  0  0  0  0
 25 22  1  0  0  0  0
 25 26  1  0  0  0  0
 27 23  1  0  0  0  0
M  END
>  <MODEL>
4

>  <REMARK>
 VINA RESULT:      -7.7      3.313      4.992
  Name = 
  6 active torsions:
  status: ('A' for Active; 'I' for Inactive)
    1  A    between atoms: C_4  and  C_18
    2  A    between atoms: C_6  and  C_24
    3  A    between atoms: C_10  and  C_16
    4  A    between atoms: C_16  and  C_27
    5  A    between atoms: C_17  and  O_20
    6  A    between atoms: O_20  and  C_24
                            x       y       z     vdW  Elec       q    Type
                         _______ _______ _______ _____ _____    ______ ____

>  <TORSDO>
F 6

$$$$
=
 OpenBabel11062414443D

 27 30  0  0  1  0  0  0  0  0999 V2000
  187.4430  177.1690  143.1790 C   0  0  0  0  0  2  0  0  0  0  0  0
  190.2400  177.5560  144.3080 C   0  0  0  0  0  0  0  0  0  0  0  0
  191.4770  177.1640  146.1650 N   0  0  0  0  0  0  0  0  0  0  0  0
  187.6430  177.1840  146.9160 C   0  0  0  0  0  3  0  0  0  0  0  0
  187.1230  177.3310  144.5940 N   0  0  0  0  0  2  0  0  0  0  0  0
  188.4300  178.2270  142.6930 C   0  0  1  0  0  3  0  0  0  0  0  0
  189.4410  178.0480  145.4650 C   0  0  2  0  0  3  0  0  0  0  0  0
  190.3580  177.6590  146.5710 C   0  0  0  0  0  0  0  0  0  0  0  0
  189.8580  177.5030  147.9380 C   0  0  0  0  0  3  0  0  0  0  0  0
  189.8850  177.7570  142.8630 C   0  0  2  0  0  3  0  0  0  0  0  0
  191.4280  177.1450  144.7410 C   0  0  0  0  0  3  0  0  0  0  0  0
  188.0730  177.4240  145.6640 C   0  0  0  0  0  0  0  0  0  0  0  0
  188.5440  177.2990  148.0930 C   0  0  0  0  0  3  0  0  0  0  0  0
  190.2320  176.5530  142.0220 C   0  0  0  0  0  0  0  0  0  0  0  0
  190.1250  175.4230  142.4710 O   0  0  0  0  0  0  0  0  0  0  0  0
  190.8300  176.7890  140.3520 S   0  0  0  0  0  1  0  0  0  0  0  0
  188.1470  178.6170  141.2480 C   0  0  0  0  0  2  0  0  0  0  0  0
  185.5180  178.8690  140.8460 C   0  0  0  0  0  0  0  0  0  0  0  0
  186.7040  178.7560  141.0290 C   0  0  0  0  0  0  0  0  0  0  0  0
  183.3010  178.5520  141.4830 O   0  0  0  0  0  0  0  0  0  0  0  0
  184.1070  179.0030  140.6260 C   0  0  0  0  0  0  0  0  0  0  0  0
  183.6510  179.6330  139.4600 O   0  0  0  0  0  0  0  0  0  0  0  0
  181.1800  179.6370  136.9230 C   0  0  0  0  0  2  0  0  0  0  0  0
  181.9350  181.1580  138.6300 C   0  0  0  0  0  2  0  0  0  0  0  0
  182.2750  179.7550  139.0940 C   0  0  0  0  0  3  0  0  0  0  0  0
  181.8970  178.8030  137.9700 C   0  0  0  0  0  2  0  0  0  0  0  0
  180.8750  180.9710  137.5710 C   0  0  0  0  0  2  0  0  0  0  0  0
  1  5  1  0  0  0  0
  2 11  2  0  0  0  0
  3  8  2  0  0  0  0
  4 13  1  0  0  0  0
  5 12  1  0  0  0  0
  6 17  1  6  0  0  0
  6 10  1  0  0  0  0
  6  1  1  0  0  0  0
  7  2  1  6  0  0  0
  7 12  1  0  0  0  0
  7  8  1  0  0  0  0
  8  9  1  0  0  0  0
  9 13  2  0  0  0  0
 10 14  1  6  0  0  0
 10  2  1  0  0  0  0
 11  3  1  0  0  0  0
 12  4  2  0  0  0  0
 14 15  2  0  0  0  0
 16 14  1  0  0  0  0
 18 19  3  0  0  0  0
 19 17  1  0  0  0  0
 21 18  1  0  0  0  0
 21 20  2  0  0  0  0
 22 21  1  0  0  0  0
 23 27  1  0  0  0  0
 23 26  1  0  0  0  0
 24 25  1  0  0  0  0
 25 22  1  0  0  0  0
 26 25  1  0  0  0  0
 27 24  1  0  0  0  0
M  END
>  <MODEL>
5

>  <REMARK>
 VINA RESULT:      -7.6      1.760      2.596
  Name = 
  6 active torsions:
  status: ('A' for Active; 'I' for Inactive)
    1  A    between atoms: C_4  and  C_18
    2  A    between atoms: C_6  and  C_24
    3  A    between atoms: C_10  and  C_16
    4  A    between atoms: C_16  and  C_27
    5  A    between atoms: C_17  and  O_20
    6  A    between atoms: O_20  and  C_24
                            x       y       z     vdW  Elec       q    Type
                         _______ _______ _______ _____ _____    ______ ____

>  <TORSDO>
F 6

$$$$
=
 OpenBabel11062414443D

 27 30  0  0  1  0  0  0  0  0999 V2000
  181.4040  178.7490  141.4060 C   0  0  0  0  0  2  0  0  0  0  0  0
  182.8510  177.0340  139.3530 C   0  0  0  0  0  0  0  0  0  0  0  0
  182.4630  175.6690  137.5880 N   0  0  0  0  0  0  0  0  0  0  0  0
  179.3420  176.0060  139.9140 C   0  0  0  0  0  3  0  0  0  0  0  0
  180.4080  177.7000  141.2080 N   0  0  0  0  0  2  0  0  0  0  0  0
  182.8060  178.1760  141.5960 C   0  0  1  0  0  3  0  0  0  0  0  0
  181.8050  176.0650  139.7850 C   0  0  2  0  0  3  0  0  0  0  0  0
  181.6370  175.3110  138.5120 C   0  0  0  0  0  0  0  0  0  0  0  0
  180.4160  174.5480  138.2490 C   0  0  0  0  0  3  0  0  0  0  0  0
  183.5370  178.0240  140.2510 C   0  0  2  0  0  3  0  0  0  0  0  0
  183.2620  176.7160  138.1290 C   0  0  0  0  0  3  0  0  0  0  0  0
  180.4780  176.6490  140.2350 C   0  0  0  0  0  0  0  0  0  0  0  0
  179.3230  174.8740  138.9490 C   0  0  0  0  0  3  0  0  0  0  0  0
  183.7940  179.3370  139.5520 C   0  0  0  0  0  0  0  0  0  0  0  0
  184.9060  179.8400  139.5540 O   0  0  0  0  0  0  0  0  0  0  0  0
  182.4440  180.1750  138.7320 S   0  0  0  0  0  1  0  0  0  0  0  0
  183.6180  179.0260  142.5650 C   0  0  0  0  0  2  0  0  0  0  0  0
  185.9990  177.9040  143.0230 C   0  0  0  0  0  0  0  0  0  0  0  0
  184.9240  178.4090  142.8150 C   0  0  0  0  0  0  0  0  0  0  0  0
  188.0800  177.1360  142.3180 O   0  0  0  0  0  0  0  0  0  0  0  0
  187.2770  177.3030  143.2740 C   0  0  0  0  0  0  0  0  0  0  0  0
  187.6070  176.9110  144.5780 O   0  0  0  0  0  0  0  0  0  0  0  0
  189.3360  177.4140  147.6280 C   0  0  0  0  0  2  0  0  0  0  0  0
  187.1060  177.7890  146.8000 C   0  0  0  0  0  2  0  0  0  0  0  0
  188.0390  177.8050  145.6050 C   0  0  0  0  0  3  0  0  0  0  0  0
  189.4300  177.4610  146.1130 C   0  0  0  0  0  2  0  0  0  0  0  0
  187.9990  178.0250  147.9950 C   0  0  0  0  0  2  0  0  0  0  0  0
  1  6  1  0  0  0  0
  2  7  1  0  0  0  0
  2 10  1  0  0  0  0
  3 11  1  0  0  0  0
  3  8  2  0  0  0  0
  4 12  2  0  0  0  0
  5  1  1  0  0  0  0
  6 17  1  1  0  0  0
  7  8  1  6  0  0  0
  7 12  1  0  0  0  0
  9  8  1  0  0  0  0
  9 13  2  0  0  0  0
 10 14  1  6  0  0  0
 10  6  1  0  0  0  0
 11  2  2  0  0  0  0
 12  5  1  0  0  0  0
 13  4  1  0  0  0  0
 14 15  2  0  0  0  0
 16 14  1  0  0  0  0
 17 19  1  0  0  0  0
 18 21  1  0  0  0  0
 19 18  3  0  0  0  0
 20 21  2  0  0  0  0
 21 22  1  0  0  0  0
 22 25  1  0  0  0  0
 23 27  1  0  0  0  0
 24 27  1  0  0  0  0
 25 26  1  0  0  0  0
 25 24  1  0  0  0  0
 26 23  1  0  0  0  0
M  END
>  <MODEL>
6

>  <REMARK>
 VINA RESULT:      -7.4      3.835      8.364
  Name = 
  6 active torsions:
  status: ('A' for Active; 'I' for Inactive)
    1  A    between atoms: C_4  and  C_18
    2  A    between atoms: C_6  and  C_24
    3  A    between atoms: C_10  and  C_16
    4  A    between atoms: C_16  and  C_27
    5  A    between atoms: C_17  and  O_20
    6  A    between atoms: O_20  and  C_24
                            x       y       z     vdW  Elec       q    Type
                         _______ _______ _______ _____ _____    ______ ____

>  <TORSDO>
F 6

$$$$
=
 OpenBabel11062414443D

 27 30  0  0  1  0  0  0  0  0999 V2000
  189.4900  176.6720  143.1990 C   0  0  0  0  0  2  0  0  0  0  0  0
  189.7520  177.5750  146.0910 C   0  0  0  0  0  0  0  0  0  0  0  0
  188.5760  177.7120  148.0220 N   0  0  0  0  0  0  0  0  0  0  0  0
  186.2540  177.4970  144.8870 C   0  0  0  0  0  3  0  0  0  0  0  0
  188.1170  177.0950  143.4550 N   0  0  0  0  0  2  0  0  0  0  0  0
  190.5060  177.6990  143.6930 C   0  0  1  0  0  3  0  0  0  0  0  0
  188.4500  178.2150  145.7540 C   0  0  2  0  0  3  0  0  0  0  0  0
  187.8040  178.1650  147.0940 C   0  0  0  0  0  0  0  0  0  0  0  0
  186.3490  178.2500  147.2270 C   0  0  0  0  0  3  0  0  0  0  0  0
  190.9140  177.4280  145.1510 C   0  0  2  0  0  3  0  0  0  0  0  0
  189.8180  177.3880  147.4060 C   0  0  0  0  0  3  0  0  0  0  0  0
  187.5890  177.5090  144.7220 C   0  0  0  0  0  0  0  0  0  0  0  0
  185.6130  177.9500  146.1500 C   0  0  0  0  0  3  0  0  0  0  0  0
  191.6330  176.1150  145.3420 C   0  0  0  0  0  0  0  0  0  0  0  0
  191.8500  175.3750  144.3960 O   0  0  0  0  0  0  0  0  0  0  0  0
  192.1540  175.6290  146.9830 S   0  0  0  0  0  1  0  0  0  0  0  0
  191.7260  177.7430  142.7840 C   0  0  0  0  0  2  0  0  0  0  0  0
  191.0520  177.0750  140.2870 C   0  0  0  0  0  0  0  0  0  0  0  0
  191.3560  177.3790  141.4130 C   0  0  0  0  0  0  0  0  0  0  0  0
  190.1590  177.5730  138.1940 O   0  0  0  0  0  0  0  0  0  0  0  0
  190.6880  176.7130  138.9470 C   0  0  0  0  0  0  0  0  0  0  0  0
  190.9280  175.4060  138.5010 O   0  0  0  0  0  0  0  0  0  0  0  0
  193.6380  176.3800  136.4400 C   0  0  0  0  0  2  0  0  0  0  0  0
  191.6040  175.1190  136.1730 C   0  0  0  0  0  2  0  0  0  0  0  0
  192.0000  175.0320  137.6340 C   0  0  0  0  0  3  0  0  0  0  0  0
  193.2230  175.9150  137.8240 C   0  0  0  0  0  2  0  0  0  0  0  0
  192.8650  175.5300  135.4520 C   0  0  0  0  0  2  0  0  0  0  0  0
  1  5  1  0  0  0  0
  1  6  1  0  0  0  0
  2 11  2  0  0  0  0
  4 13  1  0  0  0  0
  5 12  1  0  0  0  0
  6 17  1  6  0  0  0
  6 10  1  0  0  0  0
  7 12  1  6  0  0  0
  7  2  1  0  0  0  0
  7  8  1  0  0  0  0
  8  9  1  0  0  0  0
  8  3  2  0  0  0  0
 10 14  1  6  0  0  0
 10  2  1  0  0  0  0
 11  3  1  0  0  0  0
 12  4  2  0  0  0  0
 13  9  2  0  0  0  0
 14 16  1  0  0  0  0
 15 14  2  0  0  0  0
 18 19  3  0  0  0  0
 19 17  1  0  0  0  0
 20 21  2  0  0  0  0
 21 18  1  0  0  0  0
 22 21  1  0  0  0  0
 23 26  1  0  0  0  0
 24 25  1  0  0  0  0
 25 26  1  0  0  0  0
 25 22  1  0  0  0  0
 27 24  1  0  0  0  0
 27 23  1  0  0  0  0
M  END
>  <MODEL>
7

>  <REMARK>
 VINA RESULT:      -7.3      3.497      6.495
  Name = 
  6 active torsions:
  status: ('A' for Active; 'I' for Inactive)
    1  A    between atoms: C_4  and  C_18
    2  A    between atoms: C_6  and  C_24
    3  A    between atoms: C_10  and  C_16
    4  A    between atoms: C_16  and  C_27
    5  A    between atoms: C_17  and  O_20
    6  A    between atoms: O_20  and  C_24
                            x       y       z     vdW  Elec       q    Type
                         _______ _______ _______ _____ _____    ______ ____

>  <TORSDO>
F 6

$$$$
=
 OpenBabel11062414443D

 27 30  0  0  1  0  0  0  0  0999 V2000
  185.1020  179.6800  143.4390 C   0  0  0  0  0  2  0  0  0  0  0  0
  187.0380  177.5590  144.4390 C   0  0  0  0  0  0  0  0  0  0  0  0
  189.1150  176.7330  144.0690 N   0  0  0  0  0  0  0  0  0  0  0  0
  187.6990  178.6270  140.9590 C   0  0  0  0  0  3  0  0  0  0  0  0
  185.8030  179.3730  142.1960 N   0  0  0  0  0  2  0  0  0  0  0  0
  184.6850  178.4160  144.1860 C   0  0  1  0  0  3  0  0  0  0  0  0
  187.1460  177.3140  142.9730 C   0  0  2  0  0  3  0  0  0  0  0  0
  188.5580  176.8480  142.9120 C   0  0  0  0  0  0  0  0  0  0  0  0
  189.3110  176.9060  141.6580 C   0  0  0  0  0  3  0  0  0  0  0  0
  185.7820  177.9530  145.1610 C   0  0  2  0  0  3  0  0  0  0  0  0
  188.1470  177.1300  145.0350 C   0  0  0  0  0  3  0  0  0  0  0  0
  186.9420  178.5120  142.0650 C   0  0  0  0  0  0  0  0  0  0  0  0
  188.8730  177.7480  140.7140 C   0  0  0  0  0  3  0  0  0  0  0  0
  186.0530  178.9360  146.2740 C   0  0  0  0  0  0  0  0  0  0  0  0
  185.6810  180.0950  146.1920 O   0  0  0  0  0  0  0  0  0  0  0  0
  186.9550  178.3960  147.7220 S   0  0  0  0  0  1  0  0  0  0  0  0
  183.3610  178.6200  144.9110 C   0  0  0  0  0  2  0  0  0  0  0  0
  181.4520  179.3190  143.1780 C   0  0  0  0  0  0  0  0  0  0  0  0
  182.3120  179.0030  143.9610 C   0  0  0  0  0  0  0  0  0  0  0  0
  179.8400  180.8000  142.3840 O   0  0  0  0  0  0  0  0  0  0  0  0
  180.4300  179.6960  142.2440 C   0  0  0  0  0  0  0  0  0  0  0  0
  180.1060  178.8260  141.1940 O   0  0  0  0  0  0  0  0  0  0  0  0
  183.2070  177.7220  139.8880 C   0  0  0  0  0  2  0  0  0  0  0  0
  181.8930  179.7380  139.8030 C   0  0  0  0  0  2  0  0  0  0  0  0
  180.9380  178.5870  140.0580 C   0  0  0  0  0  3  0  0  0  0  0  0
  181.7780  177.3300  140.2180 C   0  0  0  0  0  2  0  0  0  0  0  0
  183.1390  179.0930  139.2470 C   0  0  0  0  0  2  0  0  0  0  0  0
  1  6  1  0  0  0  0
  2 11  2  0  0  0  0
  2 10  1  0  0  0  0
  3 11  1  0  0  0  0
  4 12  2  0  0  0  0
  5  1  1  0  0  0  0
  6 17  1  1  0  0  0
  6 10  1  0  0  0  0
  7 12  1  6  0  0  0
  7  2  1  0  0  0  0
  8  7  1  0  0  0  0
  8  3  2  0  0  0  0
  9  8  1  0  0  0  0
 10 14  1  1  0  0  0
 12  5  1  0  0  0  0
 13  4  1  0  0  0  0
 13  9  2  0  0  0  0
 14 16  1  0  0  0  0
 15 14  2  0  0  0  0
 18 19  3  0  0  0  0
 19 17  1  0  0  0  0
 21 20  2  0  0  0  0
 21 18  1  0  0  0  0
 22 21  1  0  0  0  0
 23 26  1  0  0  0  0
 24 25  1  0  0  0  0
 25 26  1  0  0  0  0
 25 22  1  0  0  0  0
 27 24  1  0  0  0  0
 27 23  1  0  0  0  0
M  END
>  <MODEL>
8

>  <REMARK>
 VINA RESULT:      -7.2      3.015      5.044
  Name = 
  6 active torsions:
  status: ('A' for Active; 'I' for Inactive)
    1  A    between atoms: C_4  and  C_18
    2  A    between atoms: C_6  and  C_24
    3  A    between atoms: C_10  and  C_16
    4  A    between atoms: C_16  and  C_27
    5  A    between atoms: C_17  and  O_20
    6  A    between atoms: O_20  and  C_24
                            x       y       z     vdW  Elec       q    Type
                         _______ _______ _______ _____ _____    ______ ____

>  <TORSDO>
F 6

$$$$
=
 OpenBabel11062414443D

 27 30  0  0  1  0  0  0  0  0999 V2000
  186.0410  179.0340  141.4200 C   0  0  0  0  0  2  0  0  0  0  0  0
  186.2270  177.8780  144.2270 C   0  0  0  0  0  0  0  0  0  0  0  0
  187.6870  177.5820  145.9330 N   0  0  0  0  0  0  0  0  0  0  0  0
  189.4960  178.0940  142.5080 C   0  0  0  0  0  3  0  0  0  0  0  0
  187.4360  178.6030  141.4230 N   0  0  0  0  0  2  0  0  0  0  0  0
  185.1100  177.9570  141.9730 C   0  0  1  0  0  3  0  0  0  0  0  0
  187.4590  177.2820  143.6370 C   0  0  2  0  0  3  0  0  0  0  0  0
  188.3040  177.2200  144.8600 C   0  0  0  0  0  0  0  0  0  0  0  0
  189.7620  177.1380  144.7590 C   0  0  0  0  0  3  0  0  0  0  0  0
  184.9340  178.0960  143.4940 C   0  0  2  0  0  3  0  0  0  0  0  0
  186.3660  177.9470  145.5480 C   0  0  0  0  0  3  0  0  0  0  0  0
  188.1520  178.0840  142.5510 C   0  0  0  0  0  0  0  0  0  0  0  0
  190.3240  177.5380  143.6110 C   0  0  0  0  0  3  0  0  0  0  0  0
  184.2580  179.3790  143.9090 C   0  0  0  0  0  0  0  0  0  0  0  0
  184.8830  180.4260  143.9690 O   0  0  0  0  0  0  0  0  0  0  0  0
  182.5220  179.3590  144.3420 S   0  0  0  0  0  1  0  0  0  0  0  0
  183.7630  177.9820  141.2620 C   0  0  0  0  0  2  0  0  0  0  0  0
  184.0910  177.6700  138.6300 C   0  0  0  0  0  0  0  0  0  0  0  0
  183.9440  177.8090  139.8180 C   0  0  0  0  0  0  0  0  0  0  0  0
  183.2560  177.3680  136.4770 O   0  0  0  0  0  0  0  0  0  0  0  0
  184.2670  177.5060  137.2160 C   0  0  0  0  0  0  0  0  0  0  0  0
  185.5640  177.5020  136.6820 O   0  0  0  0  0  0  0  0  0  0  0  0
  189.0490  178.1240  136.7580 C   0  0  0  0  0  2  0  0  0  0  0  0
  187.5570  176.4290  137.5930 C   0  0  0  0  0  2  0  0  0  0  0  0
  186.7520  177.7060  137.4470 C   0  0  0  0  0  3  0  0  0  0  0  0
  187.6650  178.7460  136.8190 C   0  0  0  0  0  2  0  0  0  0  0  0
  188.9990  176.8780  137.6180 C   0  0  0  0  0  2  0  0  0  0  0  0
  1  5  1  0  0  0  0
  1  6  1  0  0  0  0
  2 11  2  0  0  0  0
  4 12  2  0  0  0  0
  4 13  1  0  0  0  0
  5 12  1  0  0  0  0
  6 17  1  6  0  0  0
  6 10  1  0  0  0  0
  7 12  1  6  0  0  0
  7  2  1  0  0  0  0
  7  8  1  0  0  0  0
  8  3  2  0  0  0  0
  9  8  1  0  0  0  0
 10 14  1  6  0  0  0
 10  2  1  0  0  0  0
 11  3  1  0  0  0  0
 13  9  2  0  0  0  0
 14 15  2  0  0  0  0
 14 16  1  0  0  0  0
 18 19  3  0  0  0  0
 19 17  1  0  0  0  0
 20 21  2  0  0  0  0
 21 18  1  0  0  0  0
 22 21  1  0  0  0  0
 22 25  1  0  0  0  0
 23 26  1  0  0  0  0
 23 27  1  0  0  0  0
 24 27  1  0  0  0  0
 25 24  1  0  0  0  0
 26 25  1  0  0  0  0
M  END
>  <MODEL>
9

>  <REMARK>
 VINA RESULT:      -7.2      3.012      5.515
  Name = 
  6 active torsions:
  status: ('A' for Active; 'I' for Inactive)
    1  A    between atoms: C_4  and  C_18
    2  A    between atoms: C_6  and  C_24
    3  A    between atoms: C_10  and  C_16
    4  A    between atoms: C_16  and  C_27
    5  A    between atoms: C_17  and  O_20
    6  A    between atoms: O_20  and  C_24
                            x       y       z     vdW  Elec       q    Type
                         _______ _______ _______ _____ _____    ______ ____

>  <TORSDO>
F 6

$$$$
