=
 OpenBabel11062415273D

 37 44  0  0  1  0  0  0  0  0999 V2000
  182.5330  178.0140  137.9800 C   0  0  1  0  0  3  0  0  0  0  0  0
  185.9390  176.3930  135.5420 C   0  0  0  0  0  2  0  0  0  0  0  0
  181.2560  178.8520  138.1740 C   0  0  1  0  0  3  0  0  0  0  0  0
  184.8460  176.9970  136.4280 C   0  0  0  0  0  2  0  0  0  0  0  0
  180.7140  178.9070  139.6140 C   0  0  2  0  0  3  0  0  0  0  0  0
  187.9590  178.2690  138.2700 C   0  0  0  0  0  2  0  0  0  0  0  0
  184.8010  178.9720  143.3340 N   0  0  0  0  0  0  0  0  0  0  0  0
  181.4410  178.8760  142.0760 C   0  0  0  0  0  0  0  0  0  0  0  0
  181.4410  180.2870  137.7360 C   0  0  1  0  0  3  0  0  0  0  0  0
  180.0040  180.2520  139.7090 C   0  0  0  0  0  2  0  0  0  0  0  0
  187.2320  176.5330  136.3330 C   0  0  1  0  0  0  0  0  0  0  0  0
  185.5620  177.9860  137.3470 C   0  0  2  0  0  3  0  0  0  0  0  0
  183.5930  178.3720  138.9830 C   0  0  0  0  0  0  0  0  0  0  0  0
  186.9870  177.5000  137.4060 C   0  0  2  0  0  0  0  0  0  0  0  0
  185.4100  178.8050  141.0760 C   0  0  0  0  0  0  0  0  0  0  0  0
  185.0060  178.2210  138.7430 C   0  0  0  0  0  0  0  0  0  0  0  0
  185.9950  178.8630  142.4620 C   0  0  0  0  0  2  0  0  0  0  0  0
  185.9360  178.4640  139.8250 C   0  0  0  0  0  0  0  0  0  0  0  0
  184.0870  178.9730  141.2220 C   0  0  0  0  0  0  0  0  0  0  0  0
  187.1070  176.1110  137.6690 O   0  0  0  0  0  0  0  0  0  0  0  0
  181.7680  178.8280  140.6440 N   0  0  0  0  0  0  0  0  0  0  0  0
  182.3880  178.9840  142.9850 N   0  0  0  0  0  0  0  0  0  0  0  0
  187.4310  178.2380  139.7070 C   0  0  0  0  0  2  0  0  0  0  0  0
  183.7580  179.0700  142.5760 C   0  0  0  0  0  0  0  0  0  0  0  0
  183.1560  178.7480  140.2600 C   0  0  0  0  0  0  0  0  0  0  0  0
  181.2090  180.4160  136.2440 C   0  0  0  0  0  1  0  0  0  0  0  0
  180.3920  181.0740  138.4880 C   0  0  0  0  0  2  0  0  0  0  0  0
  188.6290  176.4010  135.7090 C   0  0  0  0  0  0  0  0  0  0  0  0
  188.5970  175.3710  134.5940 C   0  0  0  0  0  1  0  0  0  0  0  0
  189.5300  175.9770  136.6870 O   0  0  0  0  0  1  0  0  0  0  0  0
  189.0680  177.6210  135.1900 O   0  0  0  0  0  1  0  0  0  0  0  0
  182.1990  176.5300  138.0900 C   0  0  0  0  0  2  0  0  0  0  0  0
  181.0820  176.2300  137.3090 O   0  0  0  0  0  1  0  0  0  0  0  0
  180.0140  178.7700  142.5250 C   0  0  2  0  0  3  0  0  0  0  0  0
  179.4780  180.1350  142.9170 C   0  0  0  0  0  1  0  0  0  0  0  0
  179.3000  178.6340  144.6170 C   0  0  0  0  0  1  0  0  0  0  0  0
  179.9100  177.8890  143.6040 O   0  0  0  0  0  0  0  0  0  0  0  0
  1 32  1  1  0  0  0
  1  3  1  0  0  0  0
  1 13  1  0  0  0  0
  2 11  1  0  0  0  0
  2  4  1  0  0  0  0
  3  5  1  0  0  0  0
  4 12  1  0  0  0  0
  5 10  1  0  0  0  0
  5 21  1  0  0  0  0
  6 23  1  0  0  0  0
  8 34  1  0  0  0  0
  8 22  2  0  0  0  0
  9  3  1  0  0  0  0
  9 27  1  0  0  0  0
 11 14  1  0  0  0  0
 11 20  1  0  0  0  0
 12 14  1  0  0  0  0
 12 16  1  0  0  0  0
 13 25  2  0  0  0  0
 14 20  1  0  0  0  0
 14  6  1  0  0  0  0
 15 19  2  0  0  0  0
 15 17  1  0  0  0  0
 16 13  1  0  0  0  0
 16 18  2  0  0  0  0
 17  7  1  0  0  0  0
 18 15  1  0  0  0  0
 19 24  1  0  0  0  0
 21  8  1  0  0  0  0
 23 18  1  0  0  0  0
 24 22  1  0  0  0  0
 24  7  2  0  0  0  0
 25 21  1  0  0  0  0
 25 19  1  0  0  0  0
 26  9  1  0  0  0  0
 27 10  1  0  0  0  0
 28 11  1  0  0  0  0
 28 30  1  0  0  0  0
 29 28  1  0  0  0  0
 31 28  1  0  0  0  0
 33 32  1  0  0  0  0
 34 35  1  0  0  0  0
 34 37  1  0  0  0  0
 37 36  1  0  0  0  0
M  END
>  <MODEL>
1

>  <REMARK>
 VINA RESULT:      -6.5      0.000      0.000
  Name = 
  4 active torsions:
  status: ('A' for Active; 'I' for Inactive)
    1  A    between atoms: C_1  and  C_8
    2  A    between atoms: C_3  and  C_17
    3  A    between atoms: C_14  and  C_25
    4  A    between atoms: O_24  and  C_25
                            x       y       z     vdW  Elec       q    Type
                         _______ _______ _______ _____ _____    ______ ____

>  <TORSDO>
F 4

$$$$
=
 OpenBabel11062415273D

 37 44  0  0  1  0  0  0  0  0999 V2000
  189.0480  176.3430  136.2050 C   0  0  1  0  0  3  0  0  0  0  0  0
  185.5420  178.2350  138.2800 C   0  0  0  0  0  2  0  0  0  0  0  0
  189.7130  175.2550  135.3430 C   0  0  1  0  0  3  0  0  0  0  0  0
  186.7780  177.5740  137.6640 C   0  0  0  0  0  2  0  0  0  0  0  0
  191.2390  175.3810  135.1810 C   0  0  2  0  0  3  0  0  0  0  0  0
  187.8400  177.6450  141.3480 C   0  0  0  0  0  2  0  0  0  0  0  0
  193.6330  177.2700  139.7900 N   0  0  0  0  0  0  0  0  0  0  0  0
  193.3660  176.1630  136.3870 C   0  0  0  0  0  0  0  0  0  0  0  0
  189.4560  173.8640  135.8760 C   0  0  1  0  0  3  0  0  0  0  0  0
  191.7260  173.9510  134.9800 C   0  0  0  0  0  2  0  0  0  0  0  0
  185.9510  178.6350  139.6910 C   0  0  1  0  0  0  0  0  0  0  0  0
  187.5950  177.0500  138.8450 C   0  0  2  0  0  3  0  0  0  0  0  0
  189.7550  176.5220  137.5190 C   0  0  0  0  0  0  0  0  0  0  0  0
  187.1800  177.9060  140.0140 C   0  0  2  0  0  0  0  0  0  0  0  0
  191.2950  177.0830  139.7960 C   0  0  0  0  0  0  0  0  0  0  0  0
  189.1090  176.9940  138.7180 C   0  0  0  0  0  0  0  0  0  0  0  0
  192.4550  177.5000  140.6610 C   0  0  0  0  0  2  0  0  0  0  0  0
  189.9110  177.2630  139.8930 C   0  0  0  0  0  0  0  0  0  0  0  0
  191.8290  176.5990  138.6640 C   0  0  0  0  0  0  0  0  0  0  0  0
  187.1920  179.2970  139.7370 O   0  0  0  0  0  0  0  0  0  0  0  0
  191.9100  175.9730  136.3540 N   0  0  0  0  0  0  0  0  0  0  0  0
  193.9790  176.5240  137.4950 N   0  0  0  0  0  0  0  0  0  0  0  0
  189.3470  177.8540  141.1710 C   0  0  0  0  0  2  0  0  0  0  0  0
  193.2200  176.7240  138.6930 C   0  0  0  0  0  0  0  0  0  0  0  0
  191.1450  176.3390  137.5210 C   0  0  0  0  0  0  0  0  0  0  0  0
  188.1250  173.3440  135.3730 C   0  0  0  0  0  1  0  0  0  0  0  0
  190.5800  173.0120  135.3300 C   0  0  0  0  0  2  0  0  0  0  0  0
  184.9480  178.9980  140.7960 C   0  0  0  0  0  0  0  0  0  0  0  0
  184.3190  177.7330  141.3530 C   0  0  0  0  0  1  0  0  0  0  0  0
  183.9430  179.8010  140.2560 O   0  0  0  0  0  1  0  0  0  0  0  0
  185.5720  179.6920  141.8350 O   0  0  0  0  0  1  0  0  0  0  0  0
  189.0270  177.6650  135.4470 C   0  0  0  0  0  2  0  0  0  0  0  0
  187.9230  177.7110  134.5940 O   0  0  0  0  0  1  0  0  0  0  0  0
  194.1760  175.9750  135.1390 C   0  0  2  0  0  3  0  0  0  0  0  0
  195.3190  175.0080  135.3880 C   0  0  0  0  0  1  0  0  0  0  0  0
  196.0590  177.0120  134.6070 C   0  0  0  0  0  1  0  0  0  0  0  0
  194.6780  177.2010  134.6980 O   0  0  0  0  0  0  0  0  0  0  0  0
  1 32  1  6  0  0  0
  1 13  1  0  0  0  0
  2 11  1  0  0  0  0
  3  9  1  0  0  0  0
  3  1  1  0  0  0  0
  4  2  1  0  0  0  0
  4 12  1  0  0  0  0
  5  3  1  0  0  0  0
  5 21  1  0  0  0  0
  7 17  1  0  0  0  0
  8 22  2  0  0  0  0
 10  5  1  0  0  0  0
 10 27  1  0  0  0  0
 11 20  1  0  0  0  0
 11 14  1  0  0  0  0
 11 28  1  0  0  0  0
 12 14  1  0  0  0  0
 13 25  2  0  0  0  0
 13 16  1  0  0  0  0
 14  6  1  0  0  0  0
 15 18  1  0  0  0  0
 15 17  1  0  0  0  0
 16 12  1  0  0  0  0
 16 18  2  0  0  0  0
 18 23  1  0  0  0  0
 19 24  1  0  0  0  0
 19 15  2  0  0  0  0
 20 14  1  0  0  0  0
 21  8  1  0  0  0  0
 21 25  1  0  0  0  0
 22 24  1  0  0  0  0
 23  6  1  0  0  0  0
 24  7  2  0  0  0  0
 25 19  1  0  0  0  0
 26  9  1  0  0  0  0
 27  9  1  0  0  0  0
 28 29  1  0  0  0  0
 28 31  1  0  0  0  0
 30 28  1  0  0  0  0
 33 32  1  0  0  0  0
 34 35  1  0  0  0  0
 34  8  1  0  0  0  0
 36 37  1  0  0  0  0
 37 34  1  0  0  0  0
M  END
>  <MODEL>
2

>  <REMARK>
 VINA RESULT:      -6.1      4.544      9.826
  Name = 
  4 active torsions:
  status: ('A' for Active; 'I' for Inactive)
    1  A    between atoms: C_1  and  C_8
    2  A    between atoms: C_3  and  C_17
    3  A    between atoms: C_14  and  C_25
    4  A    between atoms: O_24  and  C_25
                            x       y       z     vdW  Elec       q    Type
                         _______ _______ _______ _____ _____    ______ ____

>  <TORSDO>
F 4

$$$$
=
 OpenBabel11062415273D

 37 44  0  0  1  0  0  0  0  0999 V2000
  189.0670  177.9620  139.5770 C   0  0  1  0  0  3  0  0  0  0  0  0
  192.7200  176.4090  137.4750 C   0  0  0  0  0  2  0  0  0  0  0  0
  188.2570  178.3410  140.8300 C   0  0  1  0  0  3  0  0  0  0  0  0
  191.4240  176.8580  138.1570 C   0  0  0  0  0  2  0  0  0  0  0  0
  186.8090  178.7930  140.5700 C   0  0  2  0  0  3  0  0  0  0  0  0
  190.1190  173.8320  136.1950 C   0  0  0  0  0  2  0  0  0  0  0  0
  184.5140  175.9930  136.3940 N   0  0  0  0  0  0  0  0  0  0  0  0
  184.8050  178.4390  139.0050 C   0  0  0  0  0  0  0  0  0  0  0  0
  188.1750  177.2050  141.8250 C   0  0  1  0  0  3  0  0  0  0  0  0
  186.0500  178.4070  141.8350 C   0  0  0  0  0  2  0  0  0  0  0  0
  192.2960  175.4170  136.4010 C   0  0  1  0  0  0  0  0  0  0  0  0
  190.4270  175.7210  137.9320 C   0  0  2  0  0  3  0  0  0  0  0  0
  188.3130  177.0060  138.6950 C   0  0  0  0  0  0  0  0  0  0  0  0
  190.9200  175.0100  136.6980 C   0  0  2  0  0  0  0  0  0  0  0  0
  186.7530  175.5160  136.9030 C   0  0  0  0  0  0  0  0  0  0  0  0
  188.9490  176.0580  137.8150 C   0  0  0  0  0  0  0  0  0  0  0  0
  185.6430  175.1360  135.9580 C   0  0  0  0  0  2  0  0  0  0  0  0
  188.1330  175.2810  136.9060 C   0  0  0  0  0  0  0  0  0  0  0  0
  186.2190  176.3800  137.7780 C   0  0  0  0  0  0  0  0  0  0  0  0
  191.2210  175.8810  135.6190 O   0  0  0  0  0  0  0  0  0  0  0  0
  186.1880  178.1400  139.4020 N   0  0  0  0  0  0  0  0  0  0  0  0
  184.1980  177.7290  138.0750 N   0  0  0  0  0  0  0  0  0  0  0  0
  188.7070  174.3320  135.8730 C   0  0  0  0  0  2  0  0  0  0  0  0
  184.8870  176.6420  137.4490 C   0  0  0  0  0  0  0  0  0  0  0  0
  186.9200  177.1530  138.6460 C   0  0  0  0  0  0  0  0  0  0  0  0
  189.4030  177.1920  142.7130 C   0  0  0  0  0  1  0  0  0  0  0  0
  186.9430  177.4880  142.6550 C   0  0  0  0  0  2  0  0  0  0  0  0
  193.2640  174.4440  135.7120 C   0  0  0  0  0  0  0  0  0  0  0  0
  193.6770  173.3560  136.6870 C   0  0  0  0  0  1  0  0  0  0  0  0
  194.4030  175.1410  135.3060 O   0  0  0  0  0  1  0  0  0  0  0  0
  192.6730  173.8530  134.5940 O   0  0  0  0  0  1  0  0  0  0  0  0
  189.4220  179.2190  138.7910 C   0  0  0  0  0  2  0  0  0  0  0  0
  188.7300  179.2370  137.5790 O   0  0  0  0  0  1  0  0  0  0  0  0
  184.0730  179.5850  139.6370 C   0  0  2  0  0  3  0  0  0  0  0  0
  182.7260  179.1260  140.1660 C   0  0  0  0  0  1  0  0  0  0  0  0
  182.5200  180.8630  138.7090 C   0  0  0  0  0  1  0  0  0  0  0  0
  183.8950  180.6160  138.7120 O   0  0  0  0  0  0  0  0  0  0  0  0
  1 32  1  6  0  0  0
  1  3  1  0  0  0  0
  2  4  1  0  0  0  0
  3  9  1  0  0  0  0
  5  3  1  0  0  0  0
  5 10  1  0  0  0  0
  6 14  1  0  0  0  0
  7 24  2  0  0  0  0
  8 21  1  0  0  0  0
  8 34  1  0  0  0  0
  9 27  1  0  0  0  0
  9 26  1  0  0  0  0
 10 27  1  0  0  0  0
 11 14  1  0  0  0  0
 11  2  1  0  0  0  0
 12  4  1  0  0  0  0
 13  1  1  0  0  0  0
 14 12  1  0  0  0  0
 15 18  1  0  0  0  0
 15 19  2  0  0  0  0
 16 12  1  0  0  0  0
 16 13  1  0  0  0  0
 17  7  1  0  0  0  0
 17 15  1  0  0  0  0
 18 16  2  0  0  0  0
 19 25  1  0  0  0  0
 20 11  1  0  0  0  0
 20 14  1  0  0  0  0
 21  5  1  0  0  0  0
 22  8  2  0  0  0  0
 23  6  1  0  0  0  0
 23 18  1  0  0  0  0
 24 19  1  0  0  0  0
 24 22  1  0  0  0  0
 25 13  2  0  0  0  0
 25 21  1  0  0  0  0
 28 11  1  0  0  0  0
 28 29  1  0  0  0  0
 30 28  1  0  0  0  0
 31 28  1  0  0  0  0
 33 32  1  0  0  0  0
 34 35  1  0  0  0  0
 36 37  1  0  0  0  0
 37 34  1  0  0  0  0
M  END
>  <MODEL>
3

>  <REMARK>
 VINA RESULT:      -5.1      3.037      6.253
  Name = 
  4 active torsions:
  status: ('A' for Active; 'I' for Inactive)
    1  A    between atoms: C_1  and  C_8
    2  A    between atoms: C_3  and  C_17
    3  A    between atoms: C_14  and  C_25
    4  A    between atoms: O_24  and  C_25
                            x       y       z     vdW  Elec       q    Type
                         _______ _______ _______ _____ _____    ______ ____

>  <TORSDO>
F 4

$$$$
=
 OpenBabel11062415273D

 37 44  0  0  1  0  0  0  0  0999 V2000
  186.9970  177.9320  137.8410 C   0  0  1  0  0  3  0  0  0  0  0  0
  190.7640  176.1010  136.2180 C   0  0  0  0  0  2  0  0  0  0  0  0
  186.1920  178.7240  138.8860 C   0  0  1  0  0  3  0  0  0  0  0  0
  189.4430  176.6310  136.7810 C   0  0  0  0  0  2  0  0  0  0  0  0
  184.6770  178.8100  138.6280 C   0  0  2  0  0  3  0  0  0  0  0  0
  188.5920  172.9020  136.5140 C   0  0  0  0  0  2  0  0  0  0  0  0
  182.7140  174.1470  136.4060 N   0  0  0  0  0  0  0  0  0  0  0  0
  182.6960  177.5230  137.6240 C   0  0  0  0  0  0  0  0  0  0  0  0
  186.3530  178.1600  140.2800 C   0  0  1  0  0  3  0  0  0  0  0  0
  184.0550  178.9410  140.0130 C   0  0  0  0  0  2  0  0  0  0  0  0
  190.4700  174.6840  135.7450 C   0  0  1  0  0  0  0  0  0  0  0  0
  188.6480  175.3940  137.1970 C   0  0  2  0  0  3  0  0  0  0  0  0
  186.3810  176.5890  137.5620 C   0  0  0  0  0  0  0  0  0  0  0  0
  189.2000  174.2760  136.3510 C   0  0  2  0  0  0  0  0  0  0  0  0
  185.0220  174.2560  136.8040 C   0  0  0  0  0  0  0  0  0  0  0  0
  187.1300  175.4410  137.1190 C   0  0  0  0  0  0  0  0  0  0  0  0
  183.9520  173.3450  136.2590 C   0  0  0  0  0  2  0  0  0  0  0  0
  186.4200  174.2350  136.7470 C   0  0  0  0  0  0  0  0  0  0  0  0
  184.3870  175.3420  137.2680 C   0  0  0  0  0  0  0  0  0  0  0  0
  189.2970  174.5960  134.9720 O   0  0  0  0  0  0  0  0  0  0  0  0
  184.1260  177.6240  137.9460 N   0  0  0  0  0  0  0  0  0  0  0  0
  182.1780  176.3960  137.1800 N   0  0  0  0  0  0  0  0  0  0  0  0
  187.1020  173.0080  136.1750 C   0  0  0  0  0  2  0  0  0  0  0  0
  183.0160  175.2460  137.0170 C   0  0  0  0  0  0  0  0  0  0  0  0
  184.9830  176.5100  137.6200 C   0  0  0  0  0  0  0  0  0  0  0  0
  187.6030  178.7140  140.9320 C   0  0  0  0  0  1  0  0  0  0  0  0
  185.1300  178.6200  141.0420 C   0  0  0  0  0  2  0  0  0  0  0  0
  191.5590  173.6450  135.4450 C   0  0  0  0  0  0  0  0  0  0  0  0
  192.7320  174.3160  134.7540 C   0  0  0  0  0  1  0  0  0  0  0  0
  191.0370  172.6670  134.5970 O   0  0  0  0  0  1  0  0  0  0  0  0
  192.0090  173.0330  136.6160 O   0  0  0  0  0  1  0  0  0  0  0  0
  187.0940  178.7320  136.5470 C   0  0  0  0  0  2  0  0  0  0  0  0
  187.8160  179.9070  136.7630 O   0  0  0  0  0  1  0  0  0  0  0  0
  181.8060  178.7210  137.7720 C   0  0  2  0  0  3  0  0  0  0  0  0
  180.6030  178.3850  138.6330 C   0  0  0  0  0  1  0  0  0  0  0  0
  180.7590  180.3920  136.7650 C   0  0  0  0  0  1  0  0  0  0  0  0
  181.3840  179.1680  136.5180 O   0  0  0  0  0  0  0  0  0  0  0  0
  1 32  1  6  0  0  0
  1  3  1  0  0  0  0
  2  4  1  0  0  0  0
  3  9  1  0  0  0  0
  4 12  1  0  0  0  0
  5  3  1  0  0  0  0
  5 10  1  0  0  0  0
  7 24  2  0  0  0  0
  8 34  1  0  0  0  0
  8 21  1  0  0  0  0
  9 26  1  0  0  0  0
  9 27  1  0  0  0  0
 10 27  1  0  0  0  0
 11  2  1  0  0  0  0
 11 14  1  0  0  0  0
 13 25  2  0  0  0  0
 13  1  1  0  0  0  0
 14  6  1  0  0  0  0
 14 12  1  0  0  0  0
 15 19  2  0  0  0  0
 16 12  1  0  0  0  0
 16 13  1  0  0  0  0
 17  7  1  0  0  0  0
 17 15  1  0  0  0  0
 18 15  1  0  0  0  0
 18 16  2  0  0  0  0
 19 25  1  0  0  0  0
 20 11  1  0  0  0  0
 20 14  1  0  0  0  0
 21  5  1  0  0  0  0
 22  8  2  0  0  0  0
 23  6  1  0  0  0  0
 23 18  1  0  0  0  0
 24 22  1  0  0  0  0
 24 19  1  0  0  0  0
 25 21  1  0  0  0  0
 28 11  1  0  0  0  0
 28 31  1  0  0  0  0
 29 28  1  0  0  0  0
 30 28  1  0  0  0  0
 32 33  1  0  0  0  0
 34 35  1  0  0  0  0
 37 36  1  0  0  0  0
 37 34  1  0  0  0  0
M  END
>  <MODEL>
4

>  <REMARK>
 VINA RESULT:      -5.0      2.850      5.574
  Name = 
  4 active torsions:
  status: ('A' for Active; 'I' for Inactive)
    1  A    between atoms: C_1  and  C_8
    2  A    between atoms: C_3  and  C_17
    3  A    between atoms: C_14  and  C_25
    4  A    between atoms: O_24  and  C_25
                            x       y       z     vdW  Elec       q    Type
                         _______ _______ _______ _____ _____    ______ ____

>  <TORSDO>
F 4

$$$$
=
 OpenBabel11062415273D

 37 44  0  0  1  0  0  0  0  0999 V2000
  185.3290  175.8120  135.8560 C   0  0  1  0  0  3  0  0  0  0  0  0
  181.6420  178.1630  136.8840 C   0  0  0  0  0  2  0  0  0  0  0  0
  186.0770  174.5190  135.4850 C   0  0  1  0  0  3  0  0  0  0  0  0
  182.9330  177.3800  136.6270 C   0  0  0  0  0  2  0  0  0  0  0  0
  187.6090  174.6460  135.3890 C   0  0  2  0  0  3  0  0  0  0  0  0
  183.7100  178.8050  140.1020 C   0  0  0  0  0  2  0  0  0  0  0  0
  189.6100  178.1550  139.1600 N   0  0  0  0  0  0  0  0  0  0  0  0
  189.6230  175.8980  136.3690 C   0  0  0  0  0  0  0  0  0  0  0  0
  185.8060  173.3990  136.4640 C   0  0  1  0  0  3  0  0  0  0  0  0
  188.1350  173.2600  135.7450 C   0  0  0  0  0  2  0  0  0  0  0  0
  181.9350  179.0550  138.0820 C   0  0  1  0  0  0  0  0  0  0  0  0
  183.6670  177.3470  137.9680 C   0  0  2  0  0  3  0  0  0  0  0  0
  185.9310  176.4780  137.0620 C   0  0  0  0  0  0  0  0  0  0  0  0
  183.1480  178.5440  138.7230 C   0  0  2  0  0  0  0  0  0  0  0  0
  187.2830  177.8790  139.0810 C   0  0  0  0  0  0  0  0  0  0  0  0
  185.1870  177.3160  137.9680 C   0  0  0  0  0  0  0  0  0  0  0  0
  188.3660  178.6280  139.8130 C   0  0  0  0  0  2  0  0  0  0  0  0
  185.8920  178.0210  139.0180 C   0  0  0  0  0  0  0  0  0  0  0  0
  187.9100  177.0480  138.2350 C   0  0  0  0  0  0  0  0  0  0  0  0
  183.1570  179.7450  137.9680 O   0  0  0  0  0  0  0  0  0  0  0  0
  188.1770  175.6450  136.3130 N   0  0  0  0  0  0  0  0  0  0  0  0
  190.1440  176.6570  137.3120 N   0  0  0  0  0  0  0  0  0  0  0  0
  185.2220  179.0030  139.9590 C   0  0  0  0  0  2  0  0  0  0  0  0
  189.2920  177.2360  138.3070 C   0  0  0  0  0  0  0  0  0  0  0  0
  187.3190  176.3680  137.2190 C   0  0  0  0  0  0  0  0  0  0  0  0
  184.5260  172.6760  136.0950 C   0  0  0  0  0  1  0  0  0  0  0  0
  186.9830  172.4590  136.3330 C   0  0  0  0  0  2  0  0  0  0  0  0
  180.8450  179.7440  138.9160 C   0  0  0  0  0  0  0  0  0  0  0  0
  179.5550  179.8130  138.1180 C   0  0  0  0  0  1  0  0  0  0  0  0
  181.2540  181.0420  139.2230 O   0  0  0  0  0  1  0  0  0  0  0  0
  180.6080  179.0520  140.1060 O   0  0  0  0  0  1  0  0  0  0  0  0
  185.3430  176.7750  134.6750 C   0  0  0  0  0  2  0  0  0  0  0  0
  186.1430  177.8810  134.9670 O   0  0  0  0  0  1  0  0  0  0  0  0
  190.5290  175.3140  135.3260 C   0  0  2  0  0  3  0  0  0  0  0  0
  191.5810  174.4310  135.9720 C   0  0  0  0  0  1  0  0  0  0  0  0
  192.5030  176.0010  134.5940 C   0  0  0  0  0  1  0  0  0  0  0  0
  191.1460  176.3320  134.5960 O   0  0  0  0  0  0  0  0  0  0  0  0
  1 32  1  6  0  0  0
  1 13  1  0  0  0  0
  2 11  1  0  0  0  0
  3  1  1  0  0  0  0
  3  9  1  0  0  0  0
  4  2  1  0  0  0  0
  4 12  1  0  0  0  0
  5  3  1  0  0  0  0
  5 10  1  0  0  0  0
  5 21  1  0  0  0  0
  7 17  1  0  0  0  0
  8 22  2  0  0  0  0
 10 27  1  0  0  0  0
 11 14  1  0  0  0  0
 11 28  1  0  0  0  0
 12 16  1  0  0  0  0
 12 14  1  0  0  0  0
 13 25  2  0  0  0  0
 13 16  1  0  0  0  0
 14  6  1  0  0  0  0
 15 17  1  0  0  0  0
 16 18  2  0  0  0  0
 18 15  1  0  0  0  0
 18 23  1  0  0  0  0
 19 24  1  0  0  0  0
 19 15  2  0  0  0  0
 20 11  1  0  0  0  0
 20 14  1  0  0  0  0
 21  8  1  0  0  0  0
 21 25  1  0  0  0  0
 22 24  1  0  0  0  0
 23  6  1  0  0  0  0
 24  7  2  0  0  0  0
 25 19  1  0  0  0  0
 26  9  1  0  0  0  0
 27  9  1  0  0  0  0
 28 30  1  0  0  0  0
 28 31  1  0  0  0  0
 29 28  1  0  0  0  0
 32 33  1  0  0  0  0
 34 35  1  0  0  0  0
 34  8  1  0  0  0  0
 36 37  1  0  0  0  0
 37 34  1  0  0  0  0
M  END
>  <MODEL>
5

>  <REMARK>
 VINA RESULT:      -4.8      3.135      8.208
  Name = 
  4 active torsions:
  status: ('A' for Active; 'I' for Inactive)
    1  A    between atoms: C_1  and  C_8
    2  A    between atoms: C_3  and  C_17
    3  A    between atoms: C_14  and  C_25
    4  A    between atoms: O_24  and  C_25
                            x       y       z     vdW  Elec       q    Type
                         _______ _______ _______ _____ _____    ______ ____

>  <TORSDO>
F 4

$$$$
=
 OpenBabel11062415273D

 37 44  0  0  1  0  0  0  0  0999 V2000
  189.5590  176.8990  142.4520 C   0  0  1  0  0  3  0  0  0  0  0  0
  186.0520  177.8410  145.0950 C   0  0  0  0  0  2  0  0  0  0  0  0
  191.0560  176.9120  142.0960 C   0  0  1  0  0  3  0  0  0  0  0  0
  187.2080  177.5830  144.1250 C   0  0  0  0  0  2  0  0  0  0  0  0
  191.4120  176.3390  140.7120 C   0  0  2  0  0  3  0  0  0  0  0  0
  184.9590  179.7520  141.9020 C   0  0  0  0  0  2  0  0  0  0  0  0
  187.5460  177.5370  136.9500 N   0  0  0  0  0  0  0  0  0  0  0  0
  190.5290  176.0820  138.3160 C   0  0  0  0  0  0  0  0  0  0  0  0
  191.6450  178.3040  142.1430 C   0  0  1  0  0  3  0  0  0  0  0  0
  192.6790  177.0810  140.3010 C   0  0  0  0  0  2  0  0  0  0  0  0
  184.9240  178.4130  144.2470 C   0  0  1  0  0  0  0  0  0  0  0  0
  186.9850  178.5420  142.9560 C   0  0  2  0  0  3  0  0  0  0  0  0
  188.7190  177.4840  141.3510 C   0  0  0  0  0  0  0  0  0  0  0  0
  185.5070  178.8350  142.9710 C   0  0  2  0  0  0  0  0  0  0  0  0
  187.1560  178.2480  139.1500 C   0  0  0  0  0  0  0  0  0  0  0  0
  187.4460  178.1230  141.5690 C   0  0  0  0  0  0  0  0  0  0  0  0
  186.5430  178.2540  137.7740 C   0  0  0  0  0  2  0  0  0  0  0  0
  186.6550  178.5290  140.4260 C   0  0  0  0  0  0  0  0  0  0  0  0
  188.3690  177.6910  139.0160 C   0  0  0  0  0  0  0  0  0  0  0  0
  184.6950  177.6760  143.0690 O   0  0  0  0  0  0  0  0  0  0  0  0
  190.3620  176.5520  139.6980 N   0  0  0  0  0  0  0  0  0  0  0  0
  189.6740  176.4260  137.3740 N   0  0  0  0  0  0  0  0  0  0  0  0
  185.2620  179.1160  140.5420 C   0  0  0  0  0  2  0  0  0  0  0  0
  188.5700  177.2810  137.6960 C   0  0  0  0  0  0  0  0  0  0  0  0
  189.1590  177.2710  140.0370 C   0  0  0  0  0  0  0  0  0  0  0  0
  192.0530  178.6560  143.5590 C   0  0  0  0  0  1  0  0  0  0  0  0
  192.8660  178.2530  141.2530 C   0  0  0  0  0  2  0  0  0  0  0  0
  183.7110  179.1510  144.8300 C   0  0  0  0  0  0  0  0  0  0  0  0
  182.4340  178.6040  144.2170 C   0  0  0  0  0  1  0  0  0  0  0  0
  183.8110  180.5090  144.5260 O   0  0  0  0  0  1  0  0  0  0  0  0
  183.6500  179.0020  146.2180 O   0  0  0  0  0  1  0  0  0  0  0  0
  189.1070  175.4710  142.7400 C   0  0  0  0  0  2  0  0  0  0  0  0
  190.1800  174.7170  143.2180 O   0  0  0  0  0  1  0  0  0  0  0  0
  191.6680  175.1730  137.9630 C   0  0  2  0  0  3  0  0  0  0  0  0
  192.4870  175.7630  136.8300 C   0  0  0  0  0  1  0  0  0  0  0  0
  191.8440  173.6120  136.4020 C   0  0  0  0  0  1  0  0  0  0  0  0
  191.1870  173.9140  137.5970 O   0  0  0  0  0  0  0  0  0  0  0  0
  1 32  1  6  0  0  0
  3  9  1  0  0  0  0
  3  1  1  0  0  0  0
  4  2  1  0  0  0  0
  5  3  1  0  0  0  0
  6 14  1  0  0  0  0
  7 24  2  0  0  0  0
  7 17  1  0  0  0  0
  8 21  1  0  0  0  0
  9 26  1  0  0  0  0
 10  5  1  0  0  0  0
 10 27  1  0  0  0  0
 11 28  1  0  0  0  0
 11  2  1  0  0  0  0
 12 14  1  0  0  0  0
 12  4  1  0  0  0  0
 13 16  1  0  0  0  0
 13  1  1  0  0  0  0
 14 20  1  0  0  0  0
 14 11  1  0  0  0  0
 15 18  1  0  0  0  0
 16 12  1  0  0  0  0
 17 15  1  0  0  0  0
 18 23  1  0  0  0  0
 18 16  2  0  0  0  0
 19 15  2  0  0  0  0
 19 25  1  0  0  0  0
 20 11  1  0  0  0  0
 21 25  1  0  0  0  0
 21  5  1  0  0  0  0
 22 24  1  0  0  0  0
 22  8  2  0  0  0  0
 23  6  1  0  0  0  0
 24 19  1  0  0  0  0
 25 13  2  0  0  0  0
 27  9  1  0  0  0  0
 28 31  1  0  0  0  0
 29 28  1  0  0  0  0
 30 28  1  0  0  0  0
 32 33  1  0  0  0  0
 34  8  1  0  0  0  0
 35 34  1  0  0  0  0
 36 37  1  0  0  0  0
 37 34  1  0  0  0  0
M  END
>  <MODEL>
6

>  <REMARK>
 VINA RESULT:      -4.8      3.981      9.548
  Name = 
  4 active torsions:
  status: ('A' for Active; 'I' for Inactive)
    1  A    between atoms: C_1  and  C_8
    2  A    between atoms: C_3  and  C_17
    3  A    between atoms: C_14  and  C_25
    4  A    between atoms: O_24  and  C_25
                            x       y       z     vdW  Elec       q    Type
                         _______ _______ _______ _____ _____    ______ ____

>  <TORSDO>
F 4

$$$$
=
 OpenBabel11062415273D

 37 44  0  0  1  0  0  0  0  0999 V2000
  185.0530  177.1100  137.0610 C   0  0  1  0  0  3  0  0  0  0  0  0
  189.4050  176.5750  136.0890 C   0  0  0  0  0  2  0  0  0  0  0  0
  183.8830  177.7530  137.8280 C   0  0  1  0  0  3  0  0  0  0  0  0
  187.9210  176.6620  136.4560 C   0  0  0  0  0  2  0  0  0  0  0  0
  182.4920  177.1680  137.5240 C   0  0  2  0  0  3  0  0  0  0  0  0
  188.5670  172.9600  137.2180 C   0  0  0  0  0  2  0  0  0  0  0  0
  182.7150  171.7160  136.6450 N   0  0  0  0  0  0  0  0  0  0  0  0
  181.2820  174.9980  136.8770 C   0  0  0  0  0  0  0  0  0  0  0  0
  184.0620  177.6620  139.3260 C   0  0  1  0  0  3  0  0  0  0  0  0
  181.6940  177.3810  138.8050 C   0  0  0  0  0  2  0  0  0  0  0  0
  189.7240  175.0870  136.0230 C   0  0  1  0  0  0  0  0  0  0  0  0
  187.6000  175.3560  137.1820 C   0  0  2  0  0  3  0  0  0  0  0  0
  185.0230  175.6100  137.1540 C   0  0  0  0  0  0  0  0  0  0  0  0
  188.6330  174.3750  136.6920 C   0  0  2  0  0  0  0  0  0  0  0  0
  184.7440  172.8210  137.0450 C   0  0  0  0  0  0  0  0  0  0  0  0
  186.1980  174.7800  137.0630 C   0  0  0  0  0  0  0  0  0  0  0  0
  184.1710  171.4590  136.7530 C   0  0  0  0  0  2  0  0  0  0  0  0
  186.0430  173.3410  137.0260 C   0  0  0  0  0  0  0  0  0  0  0  0
  183.6950  173.6470  137.1760 C   0  0  0  0  0  0  0  0  0  0  0  0
  188.7790  174.3550  135.2810 O   0  0  0  0  0  0  0  0  0  0  0  0
  182.5160  175.7320  137.1870 N   0  0  0  0  0  0  0  0  0  0  0  0
  181.2840  173.6870  136.7520 N   0  0  0  0  0  0  0  0  0  0  0  0
  187.2020  172.3820  136.8310 C   0  0  0  0  0  2  0  0  0  0  0  0
  182.5040  172.9590  136.9330 C   0  0  0  0  0  0  0  0  0  0  0  0
  183.7610  175.0030  137.2010 C   0  0  0  0  0  0  0  0  0  0  0  0
  184.9210  178.8070  139.8250 C   0  0  0  0  0  1  0  0  0  0  0  0
  182.6690  177.7760  139.9040 C   0  0  0  0  0  2  0  0  0  0  0  0
  191.1520  174.5220  136.0460 C   0  0  0  0  0  0  0  0  0  0  0  0
  192.1200  175.5510  135.4890 C   0  0  0  0  0  1  0  0  0  0  0  0
  191.2040  173.3770  135.2500 O   0  0  0  0  0  1  0  0  0  0  0  0
  191.5410  174.1880  137.3450 O   0  0  0  0  0  1  0  0  0  0  0  0
  185.0080  177.5370  135.5980 C   0  0  0  0  0  2  0  0  0  0  0  0
  184.7630  176.4300  134.7830 O   0  0  0  0  0  1  0  0  0  0  0  0
  179.9980  175.7440  136.6670 C   0  0  2  0  0  3  0  0  0  0  0  0
  178.9320  175.2470  137.6270 C   0  0  0  0  0  1  0  0  0  0  0  0
  180.1290  176.6630  134.6560 C   0  0  0  0  0  1  0  0  0  0  0  0
  179.5590  175.5930  135.3490 O   0  0  0  0  0  0  0  0  0  0  0  0
  1 32  1  6  0  0  0
  1 13  1  0  0  0  0
  1  3  1  0  0  0  0
  2  4  1  0  0  0  0
  3  9  1  0  0  0  0
  4 12  1  0  0  0  0
  5  3  1  0  0  0  0
  5 10  1  0  0  0  0
  7 17  1  0  0  0  0
  7 24  2  0  0  0  0
  8 21  1  0  0  0  0
  9 26  1  0  0  0  0
  9 27  1  0  0  0  0
 10 27  1  0  0  0  0
 11 28  1  0  0  0  0
 11  2  1  0  0  0  0
 11 14  1  0  0  0  0
 13 25  2  0  0  0  0
 14 12  1  0  0  0  0
 14  6  1  0  0  0  0
 15 19  2  0  0  0  0
 16 13  1  0  0  0  0
 16 12  1  0  0  0  0
 17 15  1  0  0  0  0
 18 15  1  0  0  0  0
 18 16  2  0  0  0  0
 19 25  1  0  0  0  0
 20 11  1  0  0  0  0
 20 14  1  0  0  0  0
 21 25  1  0  0  0  0
 21  5  1  0  0  0  0
 22  8  2  0  0  0  0
 22 24  1  0  0  0  0
 23 18  1  0  0  0  0
 23  6  1  0  0  0  0
 24 19  1  0  0  0  0
 28 31  1  0  0  0  0
 29 28  1  0  0  0  0
 30 28  1  0  0  0  0
 33 32  1  0  0  0  0
 34  8  1  0  0  0  0
 34 35  1  0  0  0  0
 36 37  1  0  0  0  0
 37 34  1  0  0  0  0
M  END
>  <MODEL>
7

>  <REMARK>
 VINA RESULT:      -4.8      3.361      5.661
  Name = 
  4 active torsions:
  status: ('A' for Active; 'I' for Inactive)
    1  A    between atoms: C_1  and  C_8
    2  A    between atoms: C_3  and  C_17
    3  A    between atoms: C_14  and  C_25
    4  A    between atoms: O_24  and  C_25
                            x       y       z     vdW  Elec       q    Type
                         _______ _______ _______ _____ _____    ______ ____

>  <TORSDO>
F 4

$$$$
=
 OpenBabel11062415273D

 37 44  0  0  1  0  0  0  0  0999 V2000
  181.1910  177.9920  140.9150 C   0  0  1  0  0  3  0  0  0  0  0  0
  183.0470  179.0410  144.8680 C   0  0  0  0  0  2  0  0  0  0  0  0
  180.2190  177.2070  140.0170 C   0  0  1  0  0  3  0  0  0  0  0  0
  182.5050  178.6480  143.4910 C   0  0  0  0  0  2  0  0  0  0  0  0
  180.3440  177.4830  138.5070 C   0  0  2  0  0  3  0  0  0  0  0  0
  186.2250  177.8780  142.9750 C   0  0  0  0  0  2  0  0  0  0  0  0
  185.5960  178.3360  137.0150 N   0  0  0  0  0  0  0  0  0  0  0  0
  182.0320  178.0950  136.6730 C   0  0  0  0  0  0  0  0  0  0  0  0
  180.3610  175.7120  140.1880 C   0  0  1  0  0  3  0  0  0  0  0  0
  179.8950  176.1880  137.8390 C   0  0  0  0  0  2  0  0  0  0  0  0
  184.5600  179.1050  144.7110 C   0  0  1  0  0  0  0  0  0  0  0  0
  183.6480  177.9090  142.7960 C   0  0  2  0  0  3  0  0  0  0  0  0
  182.6080  177.8910  140.4250 C   0  0  0  0  0  0  0  0  0  0  0  0
  184.9000  178.4120  143.4660 C   0  0  2  0  0  0  0  0  0  0  0  0
  185.1740  177.9790  139.2940 C   0  0  0  0  0  0  0  0  0  0  0  0
  183.7620  177.9990  141.2820 C   0  0  0  0  0  0  0  0  0  0  0  0
  186.2920  178.2530  138.3220 C   0  0  0  0  0  2  0  0  0  0  0  0
  185.0820  178.0260  140.6900 C   0  0  0  0  0  0  0  0  0  0  0  0
  184.0640  177.8340  138.5550 C   0  0  0  0  0  0  0  0  0  0  0  0
  184.9630  179.8260  143.5710 O   0  0  0  0  0  0  0  0  0  0  0  0
  181.7170  177.8120  138.0800 N   0  0  0  0  0  0  0  0  0  0  0  0
  183.2800  178.2130  136.2670 N   0  0  0  0  0  0  0  0  0  0  0  0
  186.3520  178.2360  141.4910 C   0  0  0  0  0  2  0  0  0  0  0  0
  184.3490  178.0510  137.2050 C   0  0  0  0  0  0  0  0  0  0  0  0
  182.7950  177.8170  139.0380 C   0  0  0  0  0  0  0  0  0  0  0  0
  179.5380  175.2360  141.3680 C   0  0  0  0  0  1  0  0  0  0  0  0
  179.8220  175.1090  138.9100 C   0  0  0  0  0  2  0  0  0  0  0  0
  185.5390  179.1050  145.8930 C   0  0  0  0  0  0  0  0  0  0  0  0
  184.9950  178.2320  147.0090 C   0  0  0  0  0  1  0  0  0  0  0  0
  185.6800  180.4090  146.3710 O   0  0  0  0  0  1  0  0  0  0  0  0
  186.7930  178.6260  145.5100 O   0  0  0  0  0  1  0  0  0  0  0  0
  180.7710  179.4570  140.9770 C   0  0  0  0  0  2  0  0  0  0  0  0
  179.5100  179.5700  141.5630 O   0  0  0  0  0  1  0  0  0  0  0  0
  180.9250  178.2860  135.6790 C   0  0  2  0  0  3  0  0  0  0  0  0
  180.9990  177.2270  134.5940 C   0  0  0  0  0  1  0  0  0  0  0  0
  180.4430  180.4130  136.0620 C   0  0  0  0  0  1  0  0  0  0  0  0
  181.0000  179.5580  135.1080 O   0  0  0  0  0  0  0  0  0  0  0  0
  1 32  1  6  0  0  0
  3  9  1  0  0  0  0
  3  1  1  0  0  0  0
  4  2  1  0  0  0  0
  5  3  1  0  0  0  0
  6 14  1  0  0  0  0
  7 24  2  0  0  0  0
  7 17  1  0  0  0  0
  8 21  1  0  0  0  0
  9 26  1  0  0  0  0
 10  5  1  0  0  0  0
 10 27  1  0  0  0  0
 11  2  1  0  0  0  0
 11 28  1  0  0  0  0
 12 14  1  0  0  0  0
 12  4  1  0  0  0  0
 13  1  1  0  0  0  0
 13 16  1  0  0  0  0
 14 20  1  0  0  0  0
 14 11  1  0  0  0  0
 15 18  1  0  0  0  0
 16 12  1  0  0  0  0
 17 15  1  0  0  0  0
 18 16  2  0  0  0  0
 18 23  1  0  0  0  0
 19 25  1  0  0  0  0
 19 15  2  0  0  0  0
 20 11  1  0  0  0  0
 21  5  1  0  0  0  0
 21 25  1  0  0  0  0
 22  8  2  0  0  0  0
 22 24  1  0  0  0  0
 23  6  1  0  0  0  0
 24 19  1  0  0  0  0
 25 13  2  0  0  0  0
 27  9  1  0  0  0  0
 28 30  1  0  0  0  0
 28 29  1  0  0  0  0
 31 28  1  0  0  0  0
 32 33  1  0  0  0  0
 34  8  1  0  0  0  0
 35 34  1  0  0  0  0
 37 34  1  0  0  0  0
 37 36  1  0  0  0  0
M  END
>  <MODEL>
8

>  <REMARK>
 VINA RESULT:      -4.8      3.385      6.645
  Name = 
  4 active torsions:
  status: ('A' for Active; 'I' for Inactive)
    1  A    between atoms: C_1  and  C_8
    2  A    between atoms: C_3  and  C_17
    3  A    between atoms: C_14  and  C_25
    4  A    between atoms: O_24  and  C_25
                            x       y       z     vdW  Elec       q    Type
                         _______ _______ _______ _____ _____    ______ ____

>  <TORSDO>
F 4

$$$$
=
 OpenBabel11062415273D

 37 44  0  0  1  0  0  0  0  0999 V2000
  187.4840  176.2880  136.5810 C   0  0  1  0  0  3  0  0  0  0  0  0
  183.6310  178.5310  137.1240 C   0  0  0  0  0  2  0  0  0  0  0  0
  188.3140  175.0550  136.1800 C   0  0  1  0  0  3  0  0  0  0  0  0
  184.9560  177.7690  137.0400 C   0  0  0  0  0  2  0  0  0  0  0  0
  189.8250  175.1570  136.4550 C   0  0  2  0  0  3  0  0  0  0  0  0
  184.9060  178.5840  140.7860 C   0  0  0  0  0  2  0  0  0  0  0  0
  190.8740  177.9480  141.1080 N   0  0  0  0  0  0  0  0  0  0  0  0
  191.5490  176.1800  138.0580 C   0  0  0  0  0  0  0  0  0  0  0  0
  187.8420  173.7970  136.8730 C   0  0  1  0  0  3  0  0  0  0  0  0
  190.2750  173.7190  136.6860 C   0  0  0  0  0  2  0  0  0  0  0  0
  183.6330  179.2080  138.4880 C   0  0  1  0  0  0  0  0  0  0  0  0
  185.3670  177.4980  138.4870 C   0  0  2  0  0  3  0  0  0  0  0  0
  187.7880  176.7320  137.9850 C   0  0  0  0  0  0  0  0  0  0  0  0
  184.6750  178.5670  139.2930 C   0  0  2  0  0  0  0  0  0  0  0  0
  188.6290  177.7480  140.4610 C   0  0  0  0  0  0  0  0  0  0  0  0
  186.8480  177.4290  138.8250 C   0  0  0  0  0  0  0  0  0  0  0  0
  189.5080  178.3390  141.5320 C   0  0  0  0  0  2  0  0  0  0  0  0
  187.2870  177.9340  140.1090 C   0  0  0  0  0  0  0  0  0  0  0  0
  189.4420  177.0520  139.6530 C   0  0  0  0  0  0  0  0  0  0  0  0
  184.8400  179.8750  138.7680 O   0  0  0  0  0  0  0  0  0  0  0  0
  190.1560  175.9770  137.6360 N   0  0  0  0  0  0  0  0  0  0  0  0
  191.8320  176.7600  139.2070 N   0  0  0  0  0  0  0  0  0  0  0  0
  186.4080  178.7640  141.0240 C   0  0  0  0  0  2  0  0  0  0  0  0
  190.7690  177.1900  140.0650 C   0  0  0  0  0  0  0  0  0  0  0  0
  189.1060  176.5630  138.4310 C   0  0  0  0  0  0  0  0  0  0  0  0
  186.6880  173.1770  136.1110 C   0  0  0  0  0  1  0  0  0  0  0  0
  189.0300  172.8610  136.8580 C   0  0  0  0  0  2  0  0  0  0  0  0
  182.3730  179.7770  139.1560 C   0  0  0  0  0  0  0  0  0  0  0  0
  181.1620  179.5110  138.2800 C   0  0  0  0  0  1  0  0  0  0  0  0
  182.5210  181.1560  139.3130 O   0  0  0  0  0  1  0  0  0  0  0  0
  182.1630  179.2000  140.4110 O   0  0  0  0  0  1  0  0  0  0  0  0
  187.7540  177.4320  135.6100 C   0  0  0  0  0  2  0  0  0  0  0  0
  188.3180  178.5130  136.2870 O   0  0  0  0  0  1  0  0  0  0  0  0
  192.6750  175.7530  137.1650 C   0  0  2  0  0  3  0  0  0  0  0  0
  193.4140  174.5730  137.7710 C   0  0  0  0  0  1  0  0  0  0  0  0
  194.4720  176.3420  136.0130 C   0  0  0  0  0  1  0  0  0  0  0  0
  193.5600  176.8140  136.9600 O   0  0  0  0  0  0  0  0  0  0  0  0
  1 32  1  6  0  0  0
  1 13  1  0  0  0  0
  2 11  1  0  0  0  0
  3  5  1  0  0  0  0
  3  1  1  0  0  0  0
  3  9  1  0  0  0  0
  4  2  1  0  0  0  0
  4 12  1  0  0  0  0
  5 10  1  0  0  0  0
  5 21  1  0  0  0  0
  6 23  1  0  0  0  0
  7 17  1  0  0  0  0
  8 22  2  0  0  0  0
 10 27  1  0  0  0  0
 11 20  1  0  0  0  0
 11 28  1  0  0  0  0
 11 14  1  0  0  0  0
 12 16  1  0  0  0  0
 12 14  1  0  0  0  0
 13 25  2  0  0  0  0
 13 16  1  0  0  0  0
 14  6  1  0  0  0  0
 15 17  1  0  0  0  0
 16 18  2  0  0  0  0
 18 15  1  0  0  0  0
 18 23  1  0  0  0  0
 19 24  1  0  0  0  0
 19 15  2  0  0  0  0
 20 14  1  0  0  0  0
 21  8  1  0  0  0  0
 21 25  1  0  0  0  0
 22 24  1  0  0  0  0
 24  7  2  0  0  0  0
 25 19  1  0  0  0  0
 26  9  1  0  0  0  0
 27  9  1  0  0  0  0
 28 30  1  0  0  0  0
 28 31  1  0  0  0  0
 29 28  1  0  0  0  0
 32 33  1  0  0  0  0
 34 35  1  0  0  0  0
 34  8  1  0  0  0  0
 36 37  1  0  0  0  0
 37 34  1  0  0  0  0
M  END
>  <MODEL>
9

>  <REMARK>
 VINA RESULT:      -4.6      3.536      8.562
  Name = 
  4 active torsions:
  status: ('A' for Active; 'I' for Inactive)
    1  A    between atoms: C_1  and  C_8
    2  A    between atoms: C_3  and  C_17
    3  A    between atoms: C_14  and  C_25
    4  A    between atoms: O_24  and  C_25
                            x       y       z     vdW  Elec       q    Type
                         _______ _______ _______ _____ _____    ______ ____

>  <TORSDO>
F 4

$$$$
