=
 OpenBabel11062416443D

 28 31  0  0  1  0  0  0  0  0999 V2000
  189.3100  177.1260  140.4550 C   0  0  0  0  0  2  0  0  0  0  0  0
  186.4260  177.6320  143.7730 C   0  0  0  0  0  3  0  0  0  0  0  0
  188.6820  179.3570  139.8300 O   0  0  0  0  0  1  0  0  0  0  0  0
  189.9440  178.5400  143.6620 C   0  0  0  0  0  1  0  0  0  0  0  0
  187.6130  177.8140  143.0400 C   0  0  0  0  0  0  0  0  0  0  0  0
  188.7930  178.4760  140.9070 C   0  0  1  0  0  3  0  0  0  0  0  0
  185.0900  178.3910  141.9260 C   0  0  0  0  0  3  0  0  0  0  0  0
  188.9540  177.3680  143.6480 C   0  0  1  0  0  0  0  0  0  0  0  0
  185.1820  177.9270  143.2300 C   0  0  0  0  0  3  0  0  0  0  0  0
  186.2400  178.5910  141.1530 C   0  0  0  0  0  0  0  0  0  0  0  0
  190.2360  176.5580  141.5200 C   0  0  0  0  0  2  0  0  0  0  0  0
  189.4980  176.1850  142.8130 C   0  0  0  0  0  2  0  0  0  0  0  0
  187.5190  178.3210  141.7100 C   0  0  0  0  0  0  0  0  0  0  0  0
  188.1820  177.8580  145.9750 N   0  0  0  0  0  2  0  0  0  0  0  0
  190.0440  177.1440  147.0630 N   0  0  0  0  0  2  0  0  0  0  0  0
  188.4880  178.4050  148.1850 C   0  0  0  0  0  1  0  0  0  0  0  0
  188.7890  176.8560  145.1090 C   0  0  2  0  0  3  0  0  0  0  0  0
  189.1640  178.2310  146.9120 N   0  0  0  0  0  0  0  0  0  0  0  0
  190.0890  176.4920  145.7730 C   0  0  0  0  0  2  0  0  0  0  0  0
  186.1020  178.9700  139.7750 N   0  0  0  0  0  2  0  0  0  0  0  0
  183.8430  178.7390  138.7660 C   0  0  0  0  0  0  0  0  0  0  0  0
  185.2040  178.3820  138.8220 C   0  0  0  0  0  0  0  0  0  0  0  0
  183.0100  178.1520  137.8130 C   0  0  0  0  0  3  0  0  0  0  0  0
  183.3150  179.6940  139.6260 O   0  0  0  0  0  1  0  0  0  0  0  0
  183.5430  177.2350  136.9070 C   0  0  0  0  0  3  0  0  0  0  0  0
  187.0810  177.1220  137.8660 N   0  0  0  0  0  1  0  0  0  0  0  0
  185.7020  177.4810  137.8680 C   0  0  0  0  0  0  0  0  0  0  0  0
  184.8660  176.9260  136.9500 N   0  0  0  0  0  0  0  0  0  0  0  0
  1  6  1  0  0  0  0
  1 11  1  0  0  0  0
  5  8  1  0  0  0  0
  5  2  2  0  0  0  0
  6  3  1  6  0  0  0
  6 13  1  0  0  0  0
  7  9  2  0  0  0  0
  8  4  1  6  0  0  0
  8 17  1  0  0  0  0
  9  2  1  0  0  0  0
 10 13  2  0  0  0  0
 10  7  1  0  0  0  0
 11 12  1  0  0  0  0
 12  8  1  0  0  0  0
 13  5  1  0  0  0  0
 14 18  1  0  0  0  0
 17 19  1  1  0  0  0
 17 14  1  0  0  0  0
 18 15  1  0  0  0  0
 18 16  1  0  0  0  0
 19 15  1  0  0  0  0
 20 10  1  0  0  0  0
 21 22  1  0  0  0  0
 21 24  1  0  0  0  0
 22 20  1  0  0  0  0
 23 21  2  0  0  0  0
 25 28  2  0  0  0  0
 25 23  1  0  0  0  0
 26 27  1  0  0  0  0
 27 22  2  0  0  0  0
 28 27  1  0  0  0  0
M  END
>  <MODEL>
1

>  <REMARK>
 VINA RESULT:      -7.8      0.000      0.000
  Name = 
  3 active torsions:
  status: ('A' for Active; 'I' for Inactive)
    1  A    between atoms: C_2  and  N_20
    2  A    between atoms: C_18  and  C_21
    3  A    between atoms: N_20  and  C_24
                            x       y       z     vdW  Elec       q    Type
                         _______ _______ _______ _____ _____    ______ ____

>  <TORSDO>
F 3

$$$$
=
 OpenBabel11062416443D

 28 31  0  0  1  0  0  0  0  0999 V2000
  191.3990  176.0330  142.1630 C   0  0  0  0  0  2  0  0  0  0  0  0
  187.6760  178.4170  142.3610 C   0  0  0  0  0  3  0  0  0  0  0  0
  192.1400  177.6850  140.5870 O   0  0  0  0  0  1  0  0  0  0  0  0
  190.7330  178.8150  144.2870 C   0  0  0  0  0  1  0  0  0  0  0  0
  189.0270  178.0920  142.5800 C   0  0  0  0  0  0  0  0  0  0  0  0
  191.3040  177.4670  141.6830 C   0  0  1  0  0  3  0  0  0  0  0  0
  187.9520  178.2530  139.9810 C   0  0  0  0  0  3  0  0  0  0  0  0
  189.5350  177.8950  144.0190 C   0  0  1  0  0  0  0  0  0  0  0  0
  187.1460  178.5100  141.0810 C   0  0  0  0  0  3  0  0  0  0  0  0
  189.3030  177.9250  140.1410 C   0  0  0  0  0  0  0  0  0  0  0  0
  191.3050  176.0030  143.6820 C   0  0  0  0  0  2  0  0  0  0  0  0
  189.9190  176.4070  144.2010 C   0  0  0  0  0  2  0  0  0  0  0  0
  189.8620  177.8600  141.4470 C   0  0  0  0  0  0  0  0  0  0  0  0
  188.9910  178.3970  146.4060 N   0  0  0  0  0  2  0  0  0  0  0  0
  187.2890  176.9100  146.6440 N   0  0  0  0  0  2  0  0  0  0  0  0
  188.2180  177.8780  148.5060 C   0  0  0  0  0  1  0  0  0  0  0  0
  188.4350  178.2140  145.0730 C   0  0  2  0  0  3  0  0  0  0  0  0
  188.5130  177.3330  147.1940 N   0  0  0  0  0  0  0  0  0  0  0  0
  187.4030  177.1280  145.2180 C   0  0  0  0  0  2  0  0  0  0  0  0
  190.0800  177.5630  138.9900 N   0  0  0  0  0  2  0  0  0  0  0  0
  189.0560  178.2980  136.8480 C   0  0  0  0  0  0  0  0  0  0  0  0
  189.5670  177.2820  137.6780 C   0  0  0  0  0  0  0  0  0  0  0  0
  188.5820  177.9800  135.5750 C   0  0  0  0  0  3  0  0  0  0  0  0
  189.0430  179.6240  137.2600 O   0  0  0  0  0  1  0  0  0  0  0  0
  188.6440  176.6600  135.1290 C   0  0  0  0  0  3  0  0  0  0  0  0
  190.1860  174.9250  137.9690 N   0  0  0  0  0  1  0  0  0  0  0  0
  189.6410  175.9740  137.1750 C   0  0  0  0  0  0  0  0  0  0  0  0
  189.1710  175.6950  135.9290 N   0  0  0  0  0  0  0  0  0  0  0  0
  1 11  1  0  0  0  0
  2  5  1  0  0  0  0
  5  8  1  0  0  0  0
  6  3  1  6  0  0  0
  6  1  1  0  0  0  0
  7 10  2  0  0  0  0
  7  9  1  0  0  0  0
  8 12  1  0  0  0  0
  8  4  1  1  0  0  0
  8 17  1  0  0  0  0
  9  2  2  0  0  0  0
 10 13  1  0  0  0  0
 11 12  1  0  0  0  0
 13  6  1  0  0  0  0
 13  5  2  0  0  0  0
 14 18  1  0  0  0  0
 15 18  1  0  0  0  0
 17 19  1  1  0  0  0
 17 14  1  0  0  0  0
 18 16  1  0  0  0  0
 19 15  1  0  0  0  0
 20 10  1  0  0  0  0
 21 24  1  0  0  0  0
 21 22  1  0  0  0  0
 22 20  1  0  0  0  0
 23 21  2  0  0  0  0
 25 23  1  0  0  0  0
 25 28  2  0  0  0  0
 27 22  2  0  0  0  0
 27 26  1  0  0  0  0
 28 27  1  0  0  0  0
M  END
>  <MODEL>
2

>  <REMARK>
 VINA RESULT:      -7.5      2.800      3.460
  Name = 
  3 active torsions:
  status: ('A' for Active; 'I' for Inactive)
    1  A    between atoms: C_2  and  N_20
    2  A    between atoms: C_18  and  C_21
    3  A    between atoms: N_20  and  C_24
                            x       y       z     vdW  Elec       q    Type
                         _______ _______ _______ _____ _____    ______ ____

>  <TORSDO>
F 3

$$$$
=
 OpenBabel11062416443D

 28 31  0  0  1  0  0  0  0  0999 V2000
  189.3250  177.1240  140.3570 C   0  0  0  0  0  2  0  0  0  0  0  0
  186.4280  177.6310  143.6640 C   0  0  0  0  0  3  0  0  0  0  0  0
  188.7010  179.3560  139.7310 O   0  0  0  0  0  1  0  0  0  0  0  0
  189.9480  178.5370  143.5680 C   0  0  0  0  0  1  0  0  0  0  0  0
  187.6180  177.8130  142.9370 C   0  0  0  0  0  0  0  0  0  0  0  0
  188.8070  178.4740  140.8080 C   0  0  1  0  0  3  0  0  0  0  0  0
  185.1010  178.3910  141.8130 C   0  0  0  0  0  3  0  0  0  0  0  0
  188.9570  177.3650  143.5500 C   0  0  1  0  0  0  0  0  0  0  0  0
  185.1870  177.9270  143.1170 C   0  0  0  0  0  3  0  0  0  0  0  0
  186.2530  178.5910  141.0440 C   0  0  0  0  0  0  0  0  0  0  0  0
  190.2470  176.5550  141.4270 C   0  0  0  0  0  2  0  0  0  0  0  0
  189.5040  176.1820  142.7160 C   0  0  0  0  0  2  0  0  0  0  0  0
  187.5310  178.3200  141.6060 C   0  0  0  0  0  0  0  0  0  0  0  0
  188.1830  177.8570  145.8750 N   0  0  0  0  0  2  0  0  0  0  0  0
  190.0390  177.1320  146.9670 N   0  0  0  0  0  2  0  0  0  0  0  0
  188.4860  178.4000  148.0860 C   0  0  0  0  0  1  0  0  0  0  0  0
  188.7850  176.8530  145.0100 C   0  0  2  0  0  3  0  0  0  0  0  0
  189.1650  178.2230  146.8150 N   0  0  0  0  0  0  0  0  0  0  0  0
  190.0820  176.4800  145.6760 C   0  0  0  0  0  2  0  0  0  0  0  0
  186.1210  178.9710  139.6660 N   0  0  0  0  0  2  0  0  0  0  0  0
  185.8450  177.2930  137.8540 C   0  0  0  0  0  0  0  0  0  0  0  0
  185.3190  178.3050  138.6780 C   0  0  0  0  0  0  0  0  0  0  0  0
  185.0240  176.6640  136.9180 C   0  0  0  0  0  3  0  0  0  0  0  0
  187.1660  176.8810  137.9760 O   0  0  0  0  0  1  0  0  0  0  0  0
  183.6820  177.0290  136.8270 C   0  0  0  0  0  3  0  0  0  0  0  0
  183.3740  179.6080  139.4160 N   0  0  0  0  0  1  0  0  0  0  0  0
  183.9540  178.6160  138.5740 C   0  0  0  0  0  0  0  0  0  0  0  0
  183.1790  177.9840  137.6530 N   0  0  0  0  0  0  0  0  0  0  0  0
  1  6  1  0  0  0  0
  1 11  1  0  0  0  0
  5  8  1  0  0  0  0
  5  2  2  0  0  0  0
  6  3  1  6  0  0  0
  6 13  1  0  0  0  0
  7  9  2  0  0  0  0
  8  4  1  6  0  0  0
  8 17  1  0  0  0  0
  9  2  1  0  0  0  0
 10 13  2  0  0  0  0
 10  7  1  0  0  0  0
 11 12  1  0  0  0  0
 12  8  1  0  0  0  0
 13  5  1  0  0  0  0
 14 18  1  0  0  0  0
 17 19  1  1  0  0  0
 17 14  1  0  0  0  0
 18 15  1  0  0  0  0
 18 16  1  0  0  0  0
 19 15  1  0  0  0  0
 20 10  1  0  0  0  0
 21 24  1  0  0  0  0
 21 22  1  0  0  0  0
 22 20  1  0  0  0  0
 23 21  2  0  0  0  0
 25 23  1  0  0  0  0
 25 28  2  0  0  0  0
 27 22  2  0  0  0  0
 27 26  1  0  0  0  0
 28 27  1  0  0  0  0
M  END
>  <MODEL>
3

>  <REMARK>
 VINA RESULT:      -7.5      1.190      1.597
  Name = 
  3 active torsions:
  status: ('A' for Active; 'I' for Inactive)
    1  A    between atoms: C_2  and  N_20
    2  A    between atoms: C_18  and  C_21
    3  A    between atoms: N_20  and  C_24
                            x       y       z     vdW  Elec       q    Type
                         _______ _______ _______ _____ _____    ______ ____

>  <TORSDO>
F 3

$$$$
=
 OpenBabel11062416443D

 28 31  0  0  1  0  0  0  0  0999 V2000
  191.1860  177.0550  141.8720 C   0  0  0  0  0  2  0  0  0  0  0  0
  187.0630  178.4280  141.0340 C   0  0  0  0  0  3  0  0  0  0  0  0
  190.1340  175.1980  142.9710 O   0  0  0  0  0  1  0  0  0  0  0  0
  189.1420  176.1640  139.0940 C   0  0  0  0  0  1  0  0  0  0  0  0
  188.2210  177.6390  140.9170 C   0  0  0  0  0  0  0  0  0  0  0  0
  189.9750  176.1500  141.9620 C   0  0  1  0  0  3  0  0  0  0  0  0
  186.8810  177.9330  143.3770 C   0  0  0  0  0  3  0  0  0  0  0  0
  188.9870  177.6100  139.5820 C   0  0  1  0  0  0  0  0  0  0  0  0
  186.3930  178.5650  142.2430 C   0  0  0  0  0  3  0  0  0  0  0  0
  188.0290  177.1350  143.3170 C   0  0  0  0  0  0  0  0  0  0  0  0
  191.4550  177.3930  140.4130 C   0  0  0  0  0  2  0  0  0  0  0  0
  190.3650  178.2800  139.7960 C   0  0  0  0  0  2  0  0  0  0  0  0
  188.7040  176.9640  142.0780 C   0  0  0  0  0  0  0  0  0  0  0  0
  187.2870  177.6050  137.7490 N   0  0  0  0  0  2  0  0  0  0  0  0
  188.5590  178.6180  136.1620 N   0  0  0  0  0  2  0  0  0  0  0  0
  186.6110  177.5660  135.5550 C   0  0  0  0  0  1  0  0  0  0  0  0
  188.2530  178.4200  138.4740 C   0  0  2  0  0  3  0  0  0  0  0  0
  187.7660  177.4880  136.4300 N   0  0  0  0  0  0  0  0  0  0  0  0
  189.1740  178.9750  137.4210 C   0  0  0  0  0  2  0  0  0  0  0  0
  188.5650  176.5830  144.5290 N   0  0  0  0  0  2  0  0  0  0  0  0
  187.3950  177.5060  146.5180 C   0  0  0  0  0  0  0  0  0  0  0  0
  188.5810  177.2220  145.8150 C   0  0  0  0  0  0  0  0  0  0  0  0
  187.4600  178.1150  147.7710 C   0  0  0  0  0  3  0  0  0  0  0  0
  186.1530  177.1620  145.9990 O   0  0  0  0  0  1  0  0  0  0  0  0
  188.7040  178.4130  148.3260 C   0  0  0  0  0  3  0  0  0  0  0  0
  191.0350  177.2030  145.7660 N   0  0  0  0  0  1  0  0  0  0  0  0
  189.8110  177.5090  146.4270 C   0  0  0  0  0  0  0  0  0  0  0  0
  189.8420  178.1020  147.6510 N   0  0  0  0  0  0  0  0  0  0  0  0
  1  6  1  0  0  0  0
  2  9  1  0  0  0  0
  5  2  2  0  0  0  0
  5 13  1  0  0  0  0
  6 13  1  0  0  0  0
  6  3  1  1  0  0  0
  8  4  1  6  0  0  0
  8 12  1  0  0  0  0
  8  5  1  0  0  0  0
  9  7  2  0  0  0  0
 10  7  1  0  0  0  0
 10 20  1  0  0  0  0
 11  1  1  0  0  0  0
 12 11  1  0  0  0  0
 13 10  2  0  0  0  0
 14 17  1  0  0  0  0
 15 18  1  0  0  0  0
 15 19  1  0  0  0  0
 16 18  1  0  0  0  0
 17 19  1  6  0  0  0
 17  8  1  0  0  0  0
 18 14  1  0  0  0  0
 20 22  1  0  0  0  0
 21 23  1  0  0  0  0
 22 27  1  0  0  0  0
 22 21  2  0  0  0  0
 23 25  2  0  0  0  0
 24 21  1  0  0  0  0
 26 27  1  0  0  0  0
 27 28  2  0  0  0  0
 28 25  1  0  0  0  0
M  END
>  <MODEL>
4

>  <REMARK>
 VINA RESULT:      -7.2      2.569      7.422
  Name = 
  3 active torsions:
  status: ('A' for Active; 'I' for Inactive)
    1  A    between atoms: C_2  and  N_20
    2  A    between atoms: C_18  and  C_21
    3  A    between atoms: N_20  and  C_24
                            x       y       z     vdW  Elec       q    Type
                         _______ _______ _______ _____ _____    ______ ____

>  <TORSDO>
F 3

$$$$
=
 OpenBabel11062416443D

 28 31  0  0  1  0  0  0  0  0999 V2000
  191.4900  176.0810  142.1930 C   0  0  0  0  0  2  0  0  0  0  0  0
  187.7080  178.3740  142.3340 C   0  0  0  0  0  3  0  0  0  0  0  0
  192.1980  177.7230  140.5920 O   0  0  0  0  0  1  0  0  0  0  0  0
  190.7450  178.8810  144.2660 C   0  0  0  0  0  1  0  0  0  0  0  0
  189.0650  178.0860  142.5640 C   0  0  0  0  0  0  0  0  0  0  0  0
  191.3620  177.5030  141.6890 C   0  0  1  0  0  3  0  0  0  0  0  0
  188.0000  178.1750  139.9580 C   0  0  0  0  0  3  0  0  0  0  0  0
  189.5710  177.9270  144.0090 C   0  0  1  0  0  0  0  0  0  0  0  0
  187.1830  178.4310  141.0490 C   0  0  0  0  0  3  0  0  0  0  0  0
  189.3580  177.8850  140.1300 C   0  0  0  0  0  0  0  0  0  0  0  0
  191.3900  176.0740  143.7120 C   0  0  0  0  0  2  0  0  0  0  0  0
  189.9920  176.4530  144.2180 C   0  0  0  0  0  2  0  0  0  0  0  0
  189.9120  177.8550  141.4390 C   0  0  0  0  0  0  0  0  0  0  0  0
  189.0030  178.4550  146.3850 N   0  0  0  0  0  2  0  0  0  0  0  0
  187.3370  176.9310  146.6390 N   0  0  0  0  0  2  0  0  0  0  0  0
  188.2330  177.9530  148.4890 C   0  0  0  0  0  1  0  0  0  0  0  0
  188.4580  178.2360  145.0520 C   0  0  2  0  0  3  0  0  0  0  0  0
  188.5470  177.3920  147.1880 N   0  0  0  0  0  0  0  0  0  0  0  0
  187.4530  177.1270  145.2110 C   0  0  0  0  0  2  0  0  0  0  0  0
  190.1490  177.5230  138.9880 N   0  0  0  0  0  2  0  0  0  0  0  0
  189.6320  175.8550  137.2200 C   0  0  0  0  0  0  0  0  0  0  0  0
  189.6490  177.1830  137.6860 C   0  0  0  0  0  0  0  0  0  0  0  0
  189.1230  175.5710  135.9530 C   0  0  0  0  0  3  0  0  0  0  0  0
  190.0860  174.8100  138.0140 O   0  0  0  0  0  1  0  0  0  0  0  0
  188.6110  176.6060  135.1710 C   0  0  0  0  0  3  0  0  0  0  0  0
  189.0550  179.5380  137.3280 N   0  0  0  0  0  1  0  0  0  0  0  0
  189.0920  178.1870  136.8780 C   0  0  0  0  0  0  0  0  0  0  0  0
  188.6020  177.8790  135.6470 N   0  0  0  0  0  0  0  0  0  0  0  0
  1 11  1  0  0  0  0
  2  5  1  0  0  0  0
  5  8  1  0  0  0  0
  6  3  1  6  0  0  0
  6  1  1  0  0  0  0
  7 10  2  0  0  0  0
  7  9  1  0  0  0  0
  8 12  1  0  0  0  0
  8  4  1  1  0  0  0
  8 17  1  0  0  0  0
  9  2  2  0  0  0  0
 10 13  1  0  0  0  0
 11 12  1  0  0  0  0
 13  6  1  0  0  0  0
 13  5  2  0  0  0  0
 14 18  1  0  0  0  0
 15 18  1  0  0  0  0
 17 19  1  1  0  0  0
 17 14  1  0  0  0  0
 18 16  1  0  0  0  0
 19 15  1  0  0  0  0
 20 10  1  0  0  0  0
 21 22  1  0  0  0  0
 21 24  1  0  0  0  0
 22 20  1  0  0  0  0
 23 21  2  0  0  0  0
 25 28  2  0  0  0  0
 25 23  1  0  0  0  0
 27 26  1  0  0  0  0
 27 22  2  0  0  0  0
 28 27  1  0  0  0  0
M  END
>  <MODEL>
5

>  <REMARK>
 VINA RESULT:      -7.2      3.012      3.697
  Name = 
  3 active torsions:
  status: ('A' for Active; 'I' for Inactive)
    1  A    between atoms: C_2  and  N_20
    2  A    between atoms: C_18  and  C_21
    3  A    between atoms: N_20  and  C_24
                            x       y       z     vdW  Elec       q    Type
                         _______ _______ _______ _____ _____    ______ ____

>  <TORSDO>
F 3

$$$$
=
 OpenBabel11062416443D

 28 31  0  0  1  0  0  0  0  0999 V2000
  184.1710  177.8960  141.5480 C   0  0  0  0  0  2  0  0  0  0  0  0
  185.5460  177.5110  137.3590 C   0  0  0  0  0  3  0  0  0  0  0  0
  185.6800  179.7580  141.6660 O   0  0  0  0  0  1  0  0  0  0  0  0
  182.8480  179.5540  138.6860 C   0  0  0  0  0  1  0  0  0  0  0  0
  184.8630  178.0590  138.4600 C   0  0  0  0  0  0  0  0  0  0  0  0
  184.8830  179.0060  140.8020 C   0  0  1  0  0  3  0  0  0  0  0  0
  187.6590  177.7070  138.4870 C   0  0  0  0  0  3  0  0  0  0  0  0
  183.3260  178.1160  138.4460 C   0  0  1  0  0  0  0  0  0  0  0  0
  186.9260  177.3480  137.3650 C   0  0  0  0  0  3  0  0  0  0  0  0
  187.0290  178.2570  139.6100 C   0  0  0  0  0  0  0  0  0  0  0  0
  182.7750  177.7140  140.9680 C   0  0  0  0  0  2  0  0  0  0  0  0
  182.7930  177.1590  139.5380 C   0  0  0  0  0  2  0  0  0  0  0  0
  185.6220  178.4570  139.6010 C   0  0  0  0  0  0  0  0  0  0  0  0
  181.7240  178.5390  136.5740 N   0  0  0  0  0  2  0  0  0  0  0  0
  180.7930  176.4680  136.5040 N   0  0  0  0  0  2  0  0  0  0  0  0
  179.7780  178.2060  135.4000 C   0  0  0  0  0  1  0  0  0  0  0  0
  182.7390  177.6300  137.0880 C   0  0  2  0  0  3  0  0  0  0  0  0
  180.5020  177.8400  136.6040 N   0  0  0  0  0  0  0  0  0  0  0  0
  182.0660  176.2860  137.1660 C   0  0  0  0  0  2  0  0  0  0  0  0
  187.8030  178.5180  140.7900 N   0  0  0  0  0  2  0  0  0  0  0  0
  189.9500  177.2780  140.9650 C   0  0  0  0  0  0  0  0  0  0  0  0
  188.6680  177.5860  141.4580 C   0  0  0  0  0  0  0  0  0  0  0  0
  190.7610  176.3780  141.6550 C   0  0  0  0  0  3  0  0  0  0  0  0
  190.4390  177.8810  139.8130 O   0  0  0  0  0  1  0  0  0  0  0  0
  190.3010  175.8120  142.8440 C   0  0  0  0  0  3  0  0  0  0  0  0
  186.9860  177.3330  143.2280 N   0  0  0  0  0  1  0  0  0  0  0  0
  188.2610  177.0180  142.6750 C   0  0  0  0  0  0  0  0  0  0  0  0
  189.0750  176.1440  143.3270 N   0  0  0  0  0  0  0  0  0  0  0  0
  2  9  2  0  0  0  0
  2  5  1  0  0  0  0
  5 13  2  0  0  0  0
  6  1  1  0  0  0  0
  6  3  1  1  0  0  0
  7 10  2  0  0  0  0
  8  5  1  0  0  0  0
  8  4  1  1  0  0  0
  8 12  1  0  0  0  0
  9  7  1  0  0  0  0
 10 20  1  0  0  0  0
 11  1  1  0  0  0  0
 12 11  1  0  0  0  0
 13 10  1  0  0  0  0
 13  6  1  0  0  0  0
 14 18  1  0  0  0  0
 14 17  1  0  0  0  0
 15 18  1  0  0  0  0
 15 19  1  0  0  0  0
 16 18  1  0  0  0  0
 17 19  1  1  0  0  0
 17  8  1  0  0  0  0
 20 22  1  0  0  0  0
 21 22  2  0  0  0  0
 21 23  1  0  0  0  0
 22 27  1  0  0  0  0
 23 25  2  0  0  0  0
 24 21  1  0  0  0  0
 25 28  1  0  0  0  0
 27 26  1  0  0  0  0
 27 28  2  0  0  0  0
M  END
>  <MODEL>
6

>  <REMARK>
 VINA RESULT:      -7.0      2.401      8.092
  Name = 
  3 active torsions:
  status: ('A' for Active; 'I' for Inactive)
    1  A    between atoms: C_2  and  N_20
    2  A    between atoms: C_18  and  C_21
    3  A    between atoms: N_20  and  C_24
                            x       y       z     vdW  Elec       q    Type
                         _______ _______ _______ _____ _____    ______ ____

>  <TORSDO>
F 3

$$$$
=
 OpenBabel11062416443D

 28 31  0  0  1  0  0  0  0  0999 V2000
  183.7820  177.8790  140.2230 C   0  0  0  0  0  2  0  0  0  0  0  0
  184.9930  175.9050  136.4520 C   0  0  0  0  0  3  0  0  0  0  0  0
  184.9230  179.8030  139.3530 O   0  0  0  0  0  1  0  0  0  0  0  0
  182.0320  177.9040  137.1200 C   0  0  0  0  0  1  0  0  0  0  0  0
  184.2760  176.7730  137.2950 C   0  0  0  0  0  0  0  0  0  0  0  0
  184.2370  178.6410  138.9960 C   0  0  1  0  0  3  0  0  0  0  0  0
  187.0860  176.8790  137.1170 C   0  0  0  0  0  3  0  0  0  0  0  0
  182.7570  176.5930  137.4520 C   0  0  1  0  0  0  0  0  0  0  0  0
  186.3780  175.9630  136.3530 C   0  0  0  0  0  3  0  0  0  0  0  0
  186.4230  177.7670  137.9710 C   0  0  0  0  0  0  0  0  0  0  0  0
  182.4170  177.2610  139.9550 C   0  0  0  0  0  2  0  0  0  0  0  0
  182.4660  176.1450  138.9040 C   0  0  0  0  0  2  0  0  0  0  0  0
  185.0040  177.7360  138.0560 C   0  0  0  0  0  0  0  0  0  0  0  0
  180.9710  175.8900  135.8500 N   0  0  0  0  0  2  0  0  0  0  0  0
  180.5430  173.8510  136.7580 N   0  0  0  0  0  2  0  0  0  0  0  0
  179.0760  174.7460  135.2350 C   0  0  0  0  0  1  0  0  0  0  0  0
  182.2020  175.4820  136.5120 C   0  0  2  0  0  3  0  0  0  0  0  0
  179.9500  175.0600  136.3510 N   0  0  0  0  0  0  0  0  0  0  0  0
  181.8670  174.2000  137.2230 C   0  0  0  0  0  2  0  0  0  0  0  0
  187.1920  178.6280  138.8240 N   0  0  0  0  0  2  0  0  0  0  0  0
  189.5320  177.8770  139.1940 C   0  0  0  0  0  0  0  0  0  0  0  0
  188.2620  178.2230  139.6920 C   0  0  0  0  0  0  0  0  0  0  0  0
  190.5450  177.5030  140.0770 C   0  0  0  0  0  3  0  0  0  0  0  0
  189.8090  177.9310  137.8340 O   0  0  0  0  0  1  0  0  0  0  0  0
  190.2940  177.5020  141.4490 C   0  0  0  0  0  3  0  0  0  0  0  0
  186.8060  178.6200  141.6290 N   0  0  0  0  0  1  0  0  0  0  0  0
  188.0660  178.2390  141.0820 C   0  0  0  0  0  0  0  0  0  0  0  0
  189.0740  177.8710  141.9180 N   0  0  0  0  0  0  0  0  0  0  0  0
  2  5  1  0  0  0  0
  5  8  1  0  0  0  0
  5 13  2  0  0  0  0
  6  3  1  1  0  0  0
  6  1  1  0  0  0  0
  7 10  2  0  0  0  0
  8  4  1  6  0  0  0
  8 12  1  0  0  0  0
  9  2  2  0  0  0  0
  9  7  1  0  0  0  0
 10 13  1  0  0  0  0
 10 20  1  0  0  0  0
 11  1  1  0  0  0  0
 12 11  1  0  0  0  0
 13  6  1  0  0  0  0
 14 18  1  0  0  0  0
 14 17  1  0  0  0  0
 15 19  1  0  0  0  0
 16 18  1  0  0  0  0
 17 19  1  1  0  0  0
 17  8  1  0  0  0  0
 18 15  1  0  0  0  0
 20 22  1  0  0  0  0
 21 22  2  0  0  0  0
 21 23  1  0  0  0  0
 22 27  1  0  0  0  0
 23 25  2  0  0  0  0
 24 21  1  0  0  0  0
 25 28  1  0  0  0  0
 27 26  1  0  0  0  0
 27 28  2  0  0  0  0
M  END
>  <MODEL>
7

>  <REMARK>
 VINA RESULT:      -6.7      2.939      8.462
  Name = 
  3 active torsions:
  status: ('A' for Active; 'I' for Inactive)
    1  A    between atoms: C_2  and  N_20
    2  A    between atoms: C_18  and  C_21
    3  A    between atoms: N_20  and  C_24
                            x       y       z     vdW  Elec       q    Type
                         _______ _______ _______ _____ _____    ______ ____

>  <TORSDO>
F 3

$$$$
=
 OpenBabel11062416443D

 28 31  0  0  1  0  0  0  0  0999 V2000
  183.7880  178.0860  140.4730 C   0  0  0  0  0  2  0  0  0  0  0  0
  184.6950  175.8350  136.7730 C   0  0  0  0  0  3  0  0  0  0  0  0
  184.9290  179.9100  139.4100 O   0  0  0  0  0  1  0  0  0  0  0  0
  181.8450  177.9740  137.4890 C   0  0  0  0  0  1  0  0  0  0  0  0
  184.0600  176.7790  137.5990 C   0  0  0  0  0  0  0  0  0  0  0  0
  184.1860  178.7520  139.1730 C   0  0  1  0  0  3  0  0  0  0  0  0
  186.8550  176.7770  137.2410 C   0  0  0  0  0  3  0  0  0  0  0  0
  182.5480  176.6620  137.8610 C   0  0  1  0  0  0  0  0  0  0  0  0
  186.0710  175.8390  136.5840 C   0  0  0  0  0  3  0  0  0  0  0  0
  186.2740  177.7400  138.0750 C   0  0  0  0  0  0  0  0  0  0  0  0
  182.3900  177.4990  140.3310 C   0  0  0  0  0  2  0  0  0  0  0  0
  182.3380  176.3170  139.3540 C   0  0  0  0  0  2  0  0  0  0  0  0
  184.8640  177.7630  138.2490 C   0  0  0  0  0  0  0  0  0  0  0  0
  180.9210  176.0130  136.0780 N   0  0  0  0  0  2  0  0  0  0  0  0
  179.8850  174.3410  137.2150 N   0  0  0  0  0  2  0  0  0  0  0  0
  178.9310  175.1720  135.2990 C   0  0  0  0  0  1  0  0  0  0  0  0
  181.9020  175.5140  137.0320 C   0  0  2  0  0  3  0  0  0  0  0  0
  179.6670  175.5310  136.4980 N   0  0  0  0  0  0  0  0  0  0  0  0
  181.1640  174.5050  137.8690 C   0  0  0  0  0  2  0  0  0  0  0  0
  187.1230  178.6260  138.8200 N   0  0  0  0  0  2  0  0  0  0  0  0
  188.0410  178.0720  141.0610 C   0  0  0  0  0  0  0  0  0  0  0  0
  188.2100  178.2380  139.6740 C   0  0  0  0  0  0  0  0  0  0  0  0
  189.1230  177.6800  141.8500 C   0  0  0  0  0  3  0  0  0  0  0  0
  186.8030  178.2630  141.6620 O   0  0  0  0  0  1  0  0  0  0  0  0
  190.3560  177.4300  141.2480 C   0  0  0  0  0  3  0  0  0  0  0  0
  189.6620  178.0610  137.7030 N   0  0  0  0  0  1  0  0  0  0  0  0
  189.4600  177.9420  139.1080 C   0  0  0  0  0  0  0  0  0  0  0  0
  190.4960  177.5600  139.9030 N   0  0  0  0  0  0  0  0  0  0  0  0
  2  5  1  0  0  0  0
  5  8  1  0  0  0  0
  5 13  2  0  0  0  0
  6  3  1  1  0  0  0
  6  1  1  0  0  0  0
  7 10  2  0  0  0  0
  8  4  1  6  0  0  0
  8 12  1  0  0  0  0
  9  2  2  0  0  0  0
  9  7  1  0  0  0  0
 10 13  1  0  0  0  0
 10 20  1  0  0  0  0
 11  1  1  0  0  0  0
 12 11  1  0  0  0  0
 13  6  1  0  0  0  0
 14 18  1  0  0  0  0
 14 17  1  0  0  0  0
 15 19  1  0  0  0  0
 16 18  1  0  0  0  0
 17  8  1  0  0  0  0
 17 19  1  1  0  0  0
 18 15  1  0  0  0  0
 20 22  1  0  0  0  0
 21 24  1  0  0  0  0
 21 23  1  0  0  0  0
 22 21  2  0  0  0  0
 25 23  2  0  0  0  0
 26 27  1  0  0  0  0
 27 22  1  0  0  0  0
 27 28  2  0  0  0  0
 28 25  1  0  0  0  0
M  END
>  <MODEL>
8

>  <REMARK>
 VINA RESULT:      -6.6      3.237      8.270
  Name = 
  3 active torsions:
  status: ('A' for Active; 'I' for Inactive)
    1  A    between atoms: C_2  and  N_20
    2  A    between atoms: C_18  and  C_21
    3  A    between atoms: N_20  and  C_24
                            x       y       z     vdW  Elec       q    Type
                         _______ _______ _______ _____ _____    ______ ____

>  <TORSDO>
F 3

$$$$
=
 OpenBabel11062416443D

 28 31  0  0  1  0  0  0  0  0999 V2000
  191.4710  176.3190  142.4030 C   0  0  0  0  0  2  0  0  0  0  0  0
  187.3010  177.7400  142.8200 C   0  0  0  0  0  3  0  0  0  0  0  0
  191.8700  178.4180  141.3100 O   0  0  0  0  0  1  0  0  0  0  0  0
  190.1260  178.3050  145.0370 C   0  0  0  0  0  1  0  0  0  0  0  0
  188.6830  177.6660  143.0730 C   0  0  0  0  0  0  0  0  0  0  0  0
  191.0700  177.7720  142.2540 C   0  0  1  0  0  3  0  0  0  0  0  0
  187.6830  178.2120  140.4960 C   0  0  0  0  0  3  0  0  0  0  0  0
  189.1760  177.2430  144.4680 C   0  0  1  0  0  0  0  0  0  0  0  0
  186.8060  178.0210  141.5530 C   0  0  0  0  0  3  0  0  0  0  0  0
  189.0680  178.1500  140.6920 C   0  0  0  0  0  0  0  0  0  0  0  0
  191.3380  175.9070  143.8620 C   0  0  0  0  0  2  0  0  0  0  0  0
  189.8810  175.8720  144.3400 C   0  0  0  0  0  2  0  0  0  0  0  0
  189.5850  177.8940  141.9920 C   0  0  0  0  0  0  0  0  0  0  0  0
  187.0370  178.1500  145.3900 N   0  0  0  0  0  2  0  0  0  0  0  0
  187.5470  177.9330  147.5940 N   0  0  0  0  0  2  0  0  0  0  0  0
  185.7490  179.2160  146.9650 C   0  0  0  0  0  1  0  0  0  0  0  0
  187.9990  177.0600  145.4700 C   0  0  2  0  0  3  0  0  0  0  0  0
  187.1070  178.8420  146.6140 N   0  0  0  0  0  0  0  0  0  0  0  0
  188.4320  177.0160  146.9100 C   0  0  0  0  0  2  0  0  0  0  0  0
  189.9430  178.2480  139.5580 N   0  0  0  0  0  2  0  0  0  0  0  0
  190.1110  176.2570  138.0800 C   0  0  0  0  0  0  0  0  0  0  0  0
  189.7570  177.6030  138.2890 C   0  0  0  0  0  0  0  0  0  0  0  0
  189.8990  175.6690  136.8330 C   0  0  0  0  0  3  0  0  0  0  0  0
  190.6430  175.4880  139.1070 O   0  0  0  0  0  1  0  0  0  0  0  0
  189.3120  176.4160  135.8130 C   0  0  0  0  0  3  0  0  0  0  0  0
  188.7300  179.6580  137.4240 N   0  0  0  0  0  1  0  0  0  0  0  0
  189.1380  178.3060  137.2430 C   0  0  0  0  0  0  0  0  0  0  0  0
  188.9430  177.7050  136.0380 N   0  0  0  0  0  0  0  0  0  0  0  0
  1 11  1  0  0  0  0
  2  5  1  0  0  0  0
  5  8  1  0  0  0  0
  6  3  1  6  0  0  0
  6  1  1  0  0  0  0
  7 10  2  0  0  0  0
  7  9  1  0  0  0  0
  8  4  1  1  0  0  0
  8 17  1  0  0  0  0
  9  2  2  0  0  0  0
 10 13  1  0  0  0  0
 11 12  1  0  0  0  0
 12  8  1  0  0  0  0
 13  6  1  0  0  0  0
 13  5  2  0  0  0  0
 14 17  1  0  0  0  0
 14 18  1  0  0  0  0
 17 19  1  1  0  0  0
 18 16  1  0  0  0  0
 18 15  1  0  0  0  0
 19 15  1  0  0  0  0
 20 10  1  0  0  0  0
 21 22  1  0  0  0  0
 21 24  1  0  0  0  0
 22 20  1  0  0  0  0
 23 21  2  0  0  0  0
 25 28  2  0  0  0  0
 25 23  1  0  0  0  0
 27 26  1  0  0  0  0
 27 22  2  0  0  0  0
 28 27  1  0  0  0  0
M  END
>  <MODEL>
9

>  <REMARK>
 VINA RESULT:      -6.4      3.039      3.709
  Name = 
  3 active torsions:
  status: ('A' for Active; 'I' for Inactive)
    1  A    between atoms: C_2  and  N_20
    2  A    between atoms: C_18  and  C_21
    3  A    between atoms: N_20  and  C_24
                            x       y       z     vdW  Elec       q    Type
                         _______ _______ _______ _____ _____    ______ ____

>  <TORSDO>
F 3

$$$$
