=
 OpenBabel11062413543D

 25 28  0  0  1  0  0  0  0  0999 V2000
  185.4960  178.3710  144.7470 C   0  0  0  0  0  0  0  0  0  0  0  0
  185.6400  179.0580  141.1320 C   0  0  0  0  0  0  0  0  0  0  0  0
  187.7890  177.3790  143.4630 C   0  0  0  0  0  0  0  0  0  0  0  0
  184.4560  178.8530  145.6900 C   0  0  0  0  0  3  0  0  0  0  0  0
  188.0280  178.1320  140.7070 C   0  0  0  0  0  0  0  0  0  0  0  0
  186.1510  177.7760  146.8300 N   0  0  0  0  0  0  0  0  0  0  0  0
  186.7330  177.9630  142.7590 C   0  0  0  0  0  0  0  0  0  0  0  0
  189.1140  177.5620  141.3900 O   0  0  0  0  0  0  0  0  0  0  0  0
  186.7850  178.2480  141.3920 N   0  0  0  0  0  0  0  0  0  0  0  0
  188.9840  176.8780  142.6600 C   0  0  1  0  0  3  0  0  0  0  0  0
  185.6120  178.4890  143.3650 C   0  0  0  0  0  0  0  0  0  0  0  0
  184.9150  178.4300  147.0320 N   0  0  0  0  0  0  0  0  0  0  0  0
  184.7720  179.2300  142.3600 C   0  0  2  0  0  3  0  0  0  0  0  0
  186.4730  177.7510  145.4630 C   0  0  0  0  0  0  0  0  0  0  0  0
  188.1670  178.5710  139.5360 O   0  0  0  0  0  0  0  0  0  0  0  0
  187.6440  177.2410  144.8670 C   0  0  0  0  0  2  0  0  0  0  0  0
  185.4110  179.5950  140.0170 O   0  0  0  0  0  0  0  0  0  0  0  0
  183.2850  177.6670  141.3670 O   0  0  0  0  0  0  0  0  0  0  0  0
  182.2830  179.0120  143.0090 C   0  0  0  0  0  1  0  0  0  0  0  0
  183.4360  178.5670  142.1810 C   0  0  0  0  0  0  0  0  0  0  0  0
  191.0040  175.5880  143.3840 C   0  0  0  0  0  1  0  0  0  0  0  0
  190.3040  176.9370  143.4440 C   0  0  1  0  0  3  0  0  0  0  0  0
  191.2410  177.9980  142.8750 C   0  0  0  0  0  2  0  0  0  0  0  0
  190.9740  180.0240  144.1190 O   0  0  0  0  0  1  0  0  0  0  0  0
  191.7840  178.8970  143.9740 C   0  0  0  0  0  2  0  0  0  0  0  0
  1 14  1  0  0  0  0
  1  4  1  0  0  0  0
  2  9  1  0  0  0  0
  2 13  1  0  0  0  0
  3 16  1  0  0  0  0
  4 12  2  0  0  0  0
  5  8  1  0  0  0  0
  5  9  1  0  0  0  0
  6 12  1  0  0  0  0
  7 11  1  0  0  0  0
  7  3  2  0  0  0  0
  8 10  1  0  0  0  0
  9  7  1  0  0  0  0
 10 22  1  1  0  0  0
 10  3  1  0  0  0  0
 11  1  2  0  0  0  0
 13 20  1  6  0  0  0
 13 11  1  0  0  0  0
 14  6  2  0  0  0  0
 15  5  2  0  0  0  0
 16 14  1  0  0  0  0
 17  2  2  0  0  0  0
 18 20  2  0  0  0  0
 20 19  1  0  0  0  0
 22 21  1  6  0  0  0
 23 22  1  0  0  0  0
 23 25  1  0  0  0  0
 25 24  1  0  0  0  0
M  END
>  <MODEL>
1

>  <REMARK>
 VINA RESULT:      -8.9      0.000      0.000
  Name = 
  4 active torsions:
  status: ('A' for Active; 'I' for Inactive)
    1  A    between atoms: C_2  and  C_20
    2  A    between atoms: C_2  and  C_24
    3  A    between atoms: C_15  and  C_24
    4  A    between atoms: C_18  and  C_21
                            x       y       z     vdW  Elec       q    Type
                         _______ _______ _______ _____ _____    ______ ____

>  <TORSDO>
F 4

$$$$
=
 OpenBabel11062413543D

 25 28  0  0  1  0  0  0  0  0999 V2000
  186.1230  178.1430  145.0020 C   0  0  0  0  0  0  0  0  0  0  0  0
  188.7720  177.1270  142.6540 C   0  0  0  0  0  0  0  0  0  0  0  0
  185.6630  178.8880  142.3320 C   0  0  0  0  0  0  0  0  0  0  0  0
  186.0550  177.8060  146.4450 C   0  0  0  0  0  3  0  0  0  0  0  0
  187.5930  177.8780  140.4670 C   0  0  0  0  0  0  0  0  0  0  0  0
  184.1290  178.8860  145.7700 N   0  0  0  0  0  0  0  0  0  0  0  0
  186.8620  178.3020  142.7480 C   0  0  0  0  0  0  0  0  0  0  0  0
  186.3900  178.4470  140.0160 O   0  0  0  0  0  0  0  0  0  0  0  0
  187.8640  177.8930  141.8640 N   0  0  0  0  0  0  0  0  0  0  0  0
  185.5260  179.2490  140.8570 C   0  0  1  0  0  3  0  0  0  0  0  0
  187.1010  177.8950  144.0430 C   0  0  0  0  0  0  0  0  0  0  0  0
  184.7470  178.3220  146.9080 N   0  0  0  0  0  0  0  0  0  0  0  0
  188.3850  177.1140  144.1170 C   0  0  2  0  0  3  0  0  0  0  0  0
  184.9680  178.7700  144.6490 C   0  0  0  0  0  0  0  0  0  0  0  0
  188.3830  177.3280  139.6570 O   0  0  0  0  0  0  0  0  0  0  0  0
  184.6880  179.1600  143.3250 C   0  0  0  0  0  2  0  0  0  0  0  0
  189.7550  176.5050  142.1710 O   0  0  0  0  0  0  0  0  0  0  0  0
  190.0310  178.7810  144.5100 O   0  0  0  0  0  0  0  0  0  0  0  0
  189.6500  177.3770  146.3520 C   0  0  0  0  0  1  0  0  0  0  0  0
  189.4050  177.8300  144.9560 C   0  0  0  0  0  0  0  0  0  0  0  0
  183.9990  179.7030  138.9250 C   0  0  0  0  0  1  0  0  0  0  0  0
  184.0750  179.1880  140.3550 C   0  0  1  0  0  3  0  0  0  0  0  0
  183.5340  177.7620  140.3890 C   0  0  0  0  0  2  0  0  0  0  0  0
  181.5650  178.5800  141.4750 O   0  0  0  0  0  1  0  0  0  0  0  0
  182.0150  177.7520  140.4450 C   0  0  0  0  0  2  0  0  0  0  0  0
  1  4  1  0  0  0  0
  2 13  1  0  0  0  0
  3  7  2  0  0  0  0
  3 16  1  0  0  0  0
  4 12  2  0  0  0  0
  5  9  1  0  0  0  0
  6 12  1  0  0  0  0
  7 11  1  0  0  0  0
  8  5  1  0  0  0  0
  8 10  1  0  0  0  0
  9  2  1  0  0  0  0
  9  7  1  0  0  0  0
 10 22  1  6  0  0  0
 10  3  1  0  0  0  0
 11 13  1  0  0  0  0
 11  1  2  0  0  0  0
 13 20  1  1  0  0  0
 14  1  1  0  0  0  0
 14  6  2  0  0  0  0
 15  5  2  0  0  0  0
 16 14  1  0  0  0  0
 17  2  2  0  0  0  0
 18 20  2  0  0  0  0
 20 19  1  0  0  0  0
 22 21  1  6  0  0  0
 22 23  1  0  0  0  0
 23 25  1  0  0  0  0
 25 24  1  0  0  0  0
M  END
>  <MODEL>
2

>  <REMARK>
 VINA RESULT:      -8.3      1.524      5.387
  Name = 
  4 active torsions:
  status: ('A' for Active; 'I' for Inactive)
    1  A    between atoms: C_2  and  C_20
    2  A    between atoms: C_2  and  C_24
    3  A    between atoms: C_15  and  C_24
    4  A    between atoms: C_18  and  C_21
                            x       y       z     vdW  Elec       q    Type
                         _______ _______ _______ _____ _____    ______ ____

>  <TORSDO>
F 4

$$$$
=
 OpenBabel11062413543D

 25 28  0  0  1  0  0  0  0  0999 V2000
  190.5760  177.4120  142.7890 C   0  0  0  0  0  0  0  0  0  0  0  0
  189.8770  177.4220  146.4050 C   0  0  0  0  0  0  0  0  0  0  0  0
  187.8560  177.6470  143.4500 C   0  0  0  0  0  0  0  0  0  0  0  0
  191.9180  177.3950  142.1570 C   0  0  0  0  0  2  0  0  0  0  0  0
  187.3320  177.9130  146.2560 C   0  0  0  0  0  0  0  0  0  0  0  0
  190.2700  177.6530  140.5600 N   0  0  0  0  0  0  0  0  0  0  0  0
  188.8410  177.4170  144.4140 C   0  0  0  0  0  0  0  0  0  0  0  0
  186.3240  178.1680  145.3130 O   0  0  0  0  0  0  0  0  0  0  0  0
  188.5910  177.4400  145.7890 N   0  0  0  0  0  0  0  0  0  0  0  0
  186.4120  177.7590  143.9260 C   0  0  1  0  0  3  0  0  0  0  0  0
  190.1860  177.3320  144.1230 C   0  0  0  0  0  0  0  0  0  0  0  0
  191.6700  177.5380  140.7040 N   0  0  0  0  0  0  0  0  0  0  0  0
  190.9940  177.2960  145.3910 C   0  0  2  0  0  3  0  0  0  0  0  0
  189.6410  177.5720  141.8140 C   0  0  0  0  0  0  0  0  0  0  0  0
  187.1390  178.1440  147.4780 O   0  0  0  0  0  0  0  0  0  0  0  0
  188.2660  177.7000  142.0930 C   0  0  0  0  0  3  0  0  0  0  0  0
  190.0510  177.5380  147.6470 O   0  0  0  0  0  0  0  0  0  0  0  0
  191.8710  175.2460  144.5750 O   0  0  0  0  0  0  0  0  0  0  0  0
  192.2510  175.5890  146.8650 C   0  0  0  0  0  1  0  0  0  0  0  0
  191.7150  175.9870  145.5350 C   0  0  0  0  0  0  0  0  0  0  0  0
  184.5030  177.8510  142.3090 C   0  0  0  0  0  1  0  0  0  0  0  0
  185.5540  178.6740  143.0380 C   0  0  1  0  0  3  0  0  0  0  0  0
  184.8480  179.7460  143.8620 C   0  0  0  0  0  2  0  0  0  0  0  0
  183.2810  179.1070  145.5540 O   0  0  0  0  0  1  0  0  0  0  0  0
  183.4190  179.3380  144.1850 C   0  0  0  0  0  2  0  0  0  0  0  0
  1 11  1  0  0  0  0
  2 17  2  0  0  0  0
  3 10  1  0  0  0  0
  3  7  1  0  0  0  0
  4  1  1  0  0  0  0
  5 15  2  0  0  0  0
  6 12  2  0  0  0  0
  6 14  1  0  0  0  0
  7  9  1  0  0  0  0
  8  5  1  0  0  0  0
  9  5  1  0  0  0  0
  9  2  1  0  0  0  0
 10 22  1  6  0  0  0
 10  8  1  0  0  0  0
 11  7  2  0  0  0  0
 11 13  1  0  0  0  0
 12  4  1  0  0  0  0
 13 20  1  1  0  0  0
 13  2  1  0  0  0  0
 14 16  1  0  0  0  0
 14  1  2  0  0  0  0
 16  3  2  0  0  0  0
 18 20  2  0  0  0  0
 20 19  1  0  0  0  0
 22 21  1  1  0  0  0
 22 23  1  0  0  0  0
 23 25  1  0  0  0  0
 25 24  1  0  0  0  0
M  END
>  <MODEL>
3

>  <REMARK>
 VINA RESULT:      -8.3      2.889      6.914
  Name = 
  4 active torsions:
  status: ('A' for Active; 'I' for Inactive)
    1  A    between atoms: C_2  and  C_20
    2  A    between atoms: C_2  and  C_24
    3  A    between atoms: C_15  and  C_24
    4  A    between atoms: C_18  and  C_21
                            x       y       z     vdW  Elec       q    Type
                         _______ _______ _______ _____ _____    ______ ____

>  <TORSDO>
F 4

$$$$
=
 OpenBabel11062413543D

 25 28  0  0  1  0  0  0  0  0999 V2000
  189.6870  177.1800  144.0320 C   0  0  0  0  0  0  0  0  0  0  0  0
  188.1920  178.2540  147.2210 C   0  0  0  0  0  0  0  0  0  0  0  0
  186.8960  177.4930  143.9640 C   0  0  0  0  0  0  0  0  0  0  0  0
  191.1360  177.0260  143.7510 C   0  0  0  0  0  2  0  0  0  0  0  0
  185.7620  178.5730  146.3660 C   0  0  0  0  0  0  0  0  0  0  0  0
  189.8980  176.7220  141.8260 N   0  0  0  0  0  0  0  0  0  0  0  0
  187.6320  177.6050  145.1470 C   0  0  0  0  0  0  0  0  0  0  0  0
  185.0010  178.4900  145.1890 O   0  0  0  0  0  0  0  0  0  0  0  0
  187.0790  178.0320  146.3580 N   0  0  0  0  0  0  0  0  0  0  0  0
  185.3860  177.6850  144.0490 C   0  0  1  0  0  3  0  0  0  0  0  0
  189.0040  177.4910  145.2040 C   0  0  0  0  0  0  0  0  0  0  0  0
  191.2260  176.7130  142.3070 N   0  0  0  0  0  0  0  0  0  0  0  0
  189.5050  177.8730  146.5710 C   0  0  2  0  0  3  0  0  0  0  0  0
  189.0000  177.0000  142.8710 C   0  0  0  0  0  0  0  0  0  0  0  0
  185.3060  179.1540  147.3840 O   0  0  0  0  0  0  0  0  0  0  0  0
  187.6020  177.1490  142.7830 C   0  0  0  0  0  3  0  0  0  0  0  0
  188.0860  178.7470  148.3750 O   0  0  0  0  0  0  0  0  0  0  0  0
  189.4500  175.7940  147.7190 O   0  0  0  0  0  0  0  0  0  0  0  0
  191.6170  176.6340  147.3880 C   0  0  0  0  0  1  0  0  0  0  0  0
  190.1350  176.6980  147.2620 C   0  0  0  0  0  0  0  0  0  0  0  0
  183.4580  178.9430  143.0640 C   0  0  0  0  0  1  0  0  0  0  0  0
  184.7780  178.2530  142.7560 C   0  0  1  0  0  3  0  0  0  0  0  0
  185.7140  179.2620  142.0980 C   0  0  0  0  0  2  0  0  0  0  0  0
  184.8910  179.7530  139.9060 O   0  0  0  0  0  1  0  0  0  0  0  0
  185.8380  179.0030  140.6050 C   0  0  0  0  0  2  0  0  0  0  0  0
  1 11  1  0  0  0  0
  2 17  2  0  0  0  0
  3 10  1  0  0  0  0
  3  7  1  0  0  0  0
  4  1  1  0  0  0  0
  5 15  2  0  0  0  0
  6 12  2  0  0  0  0
  6 14  1  0  0  0  0
  7 11  2  0  0  0  0
  7  9  1  0  0  0  0
  8  5  1  0  0  0  0
  9  5  1  0  0  0  0
  9  2  1  0  0  0  0
 10 22  1  6  0  0  0
 10  8  1  0  0  0  0
 11 13  1  0  0  0  0
 12  4  1  0  0  0  0
 13  2  1  0  0  0  0
 13 20  1  1  0  0  0
 14  1  2  0  0  0  0
 16 14  1  0  0  0  0
 16  3  2  0  0  0  0
 20 19  1  0  0  0  0
 20 18  2  0  0  0  0
 22 21  1  1  0  0  0
 23 22  1  0  0  0  0
 24 25  1  0  0  0  0
 25 23  1  0  0  0  0
M  END
>  <MODEL>
4

>  <REMARK>
 VINA RESULT:      -8.0      2.915      6.528
  Name = 
  4 active torsions:
  status: ('A' for Active; 'I' for Inactive)
    1  A    between atoms: C_2  and  C_20
    2  A    between atoms: C_2  and  C_24
    3  A    between atoms: C_15  and  C_24
    4  A    between atoms: C_18  and  C_21
                            x       y       z     vdW  Elec       q    Type
                         _______ _______ _______ _____ _____    ______ ____

>  <TORSDO>
F 4

$$$$
=
 OpenBabel11062413543D

 25 28  0  0  1  0  0  0  0  0999 V2000
  185.0550  178.8010  143.9860 C   0  0  0  0  0  0  0  0  0  0  0  0
  187.2540  178.6210  141.0380 C   0  0  0  0  0  0  0  0  0  0  0  0
  187.5530  177.6100  144.4680 C   0  0  0  0  0  0  0  0  0  0  0  0
  183.7260  179.4580  144.0490 C   0  0  0  0  0  3  0  0  0  0  0  0
  189.3610  177.7000  142.2440 C   0  0  0  0  0  0  0  0  0  0  0  0
  184.3750  178.7360  146.1440 N   0  0  0  0  0  0  0  0  0  0  0  0
  187.1350  177.9770  143.1850 C   0  0  0  0  0  0  0  0  0  0  0  0
  189.8170  177.3430  143.5230 O   0  0  0  0  0  0  0  0  0  0  0  0
  187.9680  177.9330  142.0640 N   0  0  0  0  0  0  0  0  0  0  0  0
  188.9310  176.9730  144.6080 C   0  0  1  0  0  3  0  0  0  0  0  0
  185.9310  178.5940  142.9250 C   0  0  0  0  0  0  0  0  0  0  0  0
  183.3140  179.3780  145.4690 N   0  0  0  0  0  0  0  0  0  0  0  0
  185.8750  179.0490  141.4910 C   0  0  2  0  0  3  0  0  0  0  0  0
  185.3980  178.4000  145.2400 C   0  0  0  0  0  0  0  0  0  0  0  0
  190.1730  177.8550  141.2950 O   0  0  0  0  0  0  0  0  0  0  0  0
  186.6390  177.8030  145.5350 C   0  0  0  0  0  2  0  0  0  0  0  0
  187.7420  178.8720  139.9050 O   0  0  0  0  0  0  0  0  0  0  0  0
  184.0830  177.5030  141.2930 O   0  0  0  0  0  0  0  0  0  0  0  0
  184.6110  178.5980  139.2860 C   0  0  0  0  0  1  0  0  0  0  0  0
  184.8020  178.3190  140.7350 C   0  0  0  0  0  0  0  0  0  0  0  0
  188.9290  176.4240  147.0500 C   0  0  0  0  0  1  0  0  0  0  0  0
  189.5920  177.2590  145.9660 C   0  0  1  0  0  3  0  0  0  0  0  0
  191.0810  176.9310  145.9390 C   0  0  0  0  0  2  0  0  0  0  0  0
  192.4380  175.5880  147.3810 O   0  0  0  0  0  1  0  0  0  0  0  0
  191.6220  176.7180  147.3450 C   0  0  0  0  0  2  0  0  0  0  0  0
  1  4  1  0  0  0  0
  1 14  1  0  0  0  0
  2 13  1  0  0  0  0
  2  9  1  0  0  0  0
  3 10  1  0  0  0  0
  3 16  1  0  0  0  0
  4 12  2  0  0  0  0
  5  8  1  0  0  0  0
  7  3  2  0  0  0  0
  8 10  1  0  0  0  0
  9  5  1  0  0  0  0
  9  7  1  0  0  0  0
 10 22  1  1  0  0  0
 11  7  1  0  0  0  0
 11  1  2  0  0  0  0
 12  6  1  0  0  0  0
 13 20  1  6  0  0  0
 13 11  1  0  0  0  0
 14 16  1  0  0  0  0
 14  6  2  0  0  0  0
 15  5  2  0  0  0  0
 17  2  2  0  0  0  0
 19 20  1  0  0  0  0
 20 18  2  0  0  0  0
 22 21  1  1  0  0  0
 23 22  1  0  0  0  0
 23 25  1  0  0  0  0
 25 24  1  0  0  0  0
M  END
>  <MODEL>
5

>  <REMARK>
 VINA RESULT:      -7.9      1.993      2.549
  Name = 
  4 active torsions:
  status: ('A' for Active; 'I' for Inactive)
    1  A    between atoms: C_2  and  C_20
    2  A    between atoms: C_2  and  C_24
    3  A    between atoms: C_15  and  C_24
    4  A    between atoms: C_18  and  C_21
                            x       y       z     vdW  Elec       q    Type
                         _______ _______ _______ _____ _____    ______ ____

>  <TORSDO>
F 4

$$$$
=
 OpenBabel11062413543D

 25 28  0  0  1  0  0  0  0  0999 V2000
  188.2400  177.4560  145.6990 C   0  0  0  0  0  0  0  0  0  0  0  0
  190.0820  177.2400  142.5180 C   0  0  0  0  0  0  0  0  0  0  0  0
  186.7470  178.1900  143.4350 C   0  0  0  0  0  0  0  0  0  0  0  0
  188.7430  177.0440  147.0320 C   0  0  0  0  0  3  0  0  0  0  0  0
  188.0940  177.7780  140.9380 C   0  0  0  0  0  0  0  0  0  0  0  0
  186.5160  177.6450  147.1530 N   0  0  0  0  0  0  0  0  0  0  0  0
  188.1120  177.8990  143.3670 C   0  0  0  0  0  0  0  0  0  0  0  0
  186.7170  178.0520  140.9720 O   0  0  0  0  0  0  0  0  0  0  0  0
  188.8160  177.7940  142.1640 N   0  0  0  0  0  0  0  0  0  0  0  0
  186.0400  178.5740  142.1400 C   0  0  1  0  0  3  0  0  0  0  0  0
  188.8610  177.5030  144.4540 C   0  0  0  0  0  0  0  0  0  0  0  0
  187.5930  177.1980  147.9520 N   0  0  0  0  0  0  0  0  0  0  0  0
  190.2310  177.0630  144.0140 C   0  0  2  0  0  3  0  0  0  0  0  0
  186.9270  177.7930  145.8180 C   0  0  0  0  0  0  0  0  0  0  0  0
  188.6610  177.4810  139.8540 O   0  0  0  0  0  0  0  0  0  0  0  0
  186.1340  178.1630  144.7140 C   0  0  0  0  0  2  0  0  0  0  0  0
  190.9520  176.9040  141.6710 O   0  0  0  0  0  0  0  0  0  0  0  0
  192.0310  177.5960  145.4680 O   0  0  0  0  0  0  0  0  0  0  0  0
  191.4520  179.3370  144.0040 C   0  0  0  0  0  1  0  0  0  0  0  0
  191.2930  177.9680  144.5670 C   0  0  0  0  0  0  0  0  0  0  0  0
  183.7250  179.2590  142.8040 C   0  0  0  0  0  1  0  0  0  0  0  0
  184.5550  178.1800  142.1250 C   0  0  1  0  0  3  0  0  0  0  0  0
  184.0430  177.9960  140.6990 C   0  0  0  0  0  2  0  0  0  0  0  0
  184.4630  179.9380  139.3670 O   0  0  0  0  0  1  0  0  0  0  0  0
  183.4940  179.2990  140.1400 C   0  0  0  0  0  2  0  0  0  0  0  0
  1 14  1  0  0  0  0
  1  4  1  0  0  0  0
  2 13  1  0  0  0  0
  3 16  1  0  0  0  0
  4 12  2  0  0  0  0
  5  8  1  0  0  0  0
  5  9  1  0  0  0  0
  6 12  1  0  0  0  0
  7  3  2  0  0  0  0
  7 11  1  0  0  0  0
  8 10  1  0  0  0  0
  9  2  1  0  0  0  0
  9  7  1  0  0  0  0
 10 22  1  1  0  0  0
 10  3  1  0  0  0  0
 11  1  2  0  0  0  0
 13 11  1  0  0  0  0
 13 20  1  1  0  0  0
 14  6  2  0  0  0  0
 15  5  2  0  0  0  0
 16 14  1  0  0  0  0
 17  2  2  0  0  0  0
 19 20  1  0  0  0  0
 20 18  2  0  0  0  0
 22 21  1  6  0  0  0
 23 22  1  0  0  0  0
 24 25  1  0  0  0  0
 25 23  1  0  0  0  0
M  END
>  <MODEL>
6

>  <REMARK>
 VINA RESULT:      -7.8      1.481      5.458
  Name = 
  4 active torsions:
  status: ('A' for Active; 'I' for Inactive)
    1  A    between atoms: C_2  and  C_20
    2  A    between atoms: C_2  and  C_24
    3  A    between atoms: C_15  and  C_24
    4  A    between atoms: C_18  and  C_21
                            x       y       z     vdW  Elec       q    Type
                         _______ _______ _______ _____ _____    ______ ____

>  <TORSDO>
F 4

$$$$
=
 OpenBabel11062413543D

 25 28  0  0  1  0  0  0  0  0999 V2000
  188.4790  177.4090  145.2830 C   0  0  0  0  0  0  0  0  0  0  0  0
  189.2470  177.7370  141.6960 C   0  0  0  0  0  0  0  0  0  0  0  0
  186.3810  178.4510  143.7320 C   0  0  0  0  0  0  0  0  0  0  0  0
  189.3570  176.8060  146.3150 C   0  0  0  0  0  3  0  0  0  0  0  0
  186.8840  178.4680  140.9090 C   0  0  0  0  0  0  0  0  0  0  0  0
  187.2920  177.3260  147.2080 N   0  0  0  0  0  0  0  0  0  0  0  0
  187.6510  178.2080  143.2030 C   0  0  0  0  0  0  0  0  0  0  0  0
  185.5920  178.6990  141.4080 O   0  0  0  0  0  0  0  0  0  0  0  0
  187.9490  178.3090  141.8410 N   0  0  0  0  0  0  0  0  0  0  0  0
  185.3200  179.0160  142.7940 C   0  0  1  0  0  3  0  0  0  0  0  0
  188.6880  177.6650  143.9310 C   0  0  0  0  0  0  0  0  0  0  0  0
  188.5500  176.7860  147.5560 N   0  0  0  0  0  0  0  0  0  0  0  0
  189.8440  177.3320  143.0270 C   0  0  2  0  0  3  0  0  0  0  0  0
  187.2750  177.6910  145.8510 C   0  0  0  0  0  0  0  0  0  0  0  0
  187.0820  178.3570  139.6710 O   0  0  0  0  0  0  0  0  0  0  0  0
  186.1910  178.2100  145.1160 C   0  0  0  0  0  2  0  0  0  0  0  0
  189.8050  177.5590  140.5810 O   0  0  0  0  0  0  0  0  0  0  0  0
  192.1790  177.7430  143.1670 O   0  0  0  0  0  0  0  0  0  0  0  0
  190.8590  179.5270  143.9310 C   0  0  0  0  0  1  0  0  0  0  0  0
  191.0480  178.1650  143.3610 C   0  0  0  0  0  0  0  0  0  0  0  0
  183.3200  179.5630  144.1970 C   0  0  0  0  0  1  0  0  0  0  0  0
  183.8920  178.5930  143.1750 C   0  0  1  0  0  3  0  0  0  0  0  0
  182.9750  178.5700  141.9560 C   0  0  0  0  0  2  0  0  0  0  0  0
  180.8390  179.3370  141.2010 O   0  0  0  0  0  1  0  0  0  0  0  0
  181.5500  178.9420  142.3340 C   0  0  0  0  0  2  0  0  0  0  0  0
  1 14  1  0  0  0  0
  1  4  1  0  0  0  0
  2  9  1  0  0  0  0
  2 13  1  0  0  0  0
  3 16  1  0  0  0  0
  4 12  2  0  0  0  0
  5  8  1  0  0  0  0
  5  9  1  0  0  0  0
  6 12  1  0  0  0  0
  7  3  2  0  0  0  0
  7 11  1  0  0  0  0
  8 10  1  0  0  0  0
  9  7  1  0  0  0  0
 10 22  1  1  0  0  0
 10  3  1  0  0  0  0
 11  1  2  0  0  0  0
 13 20  1  1  0  0  0
 13 11  1  0  0  0  0
 14  6  2  0  0  0  0
 15  5  2  0  0  0  0
 16 14  1  0  0  0  0
 17  2  2  0  0  0  0
 18 20  2  0  0  0  0
 20 19  1  0  0  0  0
 22 21  1  1  0  0  0
 23 25  1  0  0  0  0
 23 22  1  0  0  0  0
 24 25  1  0  0  0  0
M  END
>  <MODEL>
7

>  <REMARK>
 VINA RESULT:      -7.7      1.456      5.672
  Name = 
  4 active torsions:
  status: ('A' for Active; 'I' for Inactive)
    1  A    between atoms: C_2  and  C_20
    2  A    between atoms: C_2  and  C_24
    3  A    between atoms: C_15  and  C_24
    4  A    between atoms: C_18  and  C_21
                            x       y       z     vdW  Elec       q    Type
                         _______ _______ _______ _____ _____    ______ ____

>  <TORSDO>
F 4

$$$$
=
 OpenBabel11062413543D

 25 28  0  0  1  0  0  0  0  0999 V2000
  186.4800  178.0560  143.0960 C   0  0  0  0  0  0  0  0  0  0  0  0
  189.7740  176.4660  142.6700 C   0  0  0  0  0  0  0  0  0  0  0  0
  187.5390  178.2470  140.5010 C   0  0  0  0  0  0  0  0  0  0  0  0
  185.6460  178.0290  144.3230 C   0  0  0  0  0  2  0  0  0  0  0  0
  189.9780  176.7930  140.1030 C   0  0  0  0  0  0  0  0  0  0  0  0
  184.4990  179.0230  142.5820 N   0  0  0  0  0  0  0  0  0  0  0  0
  188.2670  177.7120  141.5670 C   0  0  0  0  0  0  0  0  0  0  0  0
  189.2620  177.3040  139.0080 O   0  0  0  0  0  0  0  0  0  0  0  0
  189.5080  177.0870  141.4140 N   0  0  0  0  0  0  0  0  0  0  0  0
  188.2170  178.2980  139.1360 C   0  0  1  0  0  3  0  0  0  0  0  0
  187.7600  177.5740  142.8410 C   0  0  0  0  0  0  0  0  0  0  0  0
  184.3720  178.6840  143.9480 N   0  0  0  0  0  0  0  0  0  0  0  0
  188.7060  176.7740  143.6970 C   0  0  2  0  0  3  0  0  0  0  0  0
  185.7620  178.6420  142.0990 C   0  0  0  0  0  0  0  0  0  0  0  0
  190.9810  176.0550  139.9230 O   0  0  0  0  0  0  0  0  0  0  0  0
  186.2460  178.7580  140.7810 C   0  0  0  0  0  3  0  0  0  0  0  0
  190.7660  175.7180  142.8760 O   0  0  0  0  0  0  0  0  0  0  0  0
  190.0000  178.5490  144.5980 O   0  0  0  0  0  0  0  0  0  0  0  0
  188.8760  177.2810  146.2220 C   0  0  0  0  0  1  0  0  0  0  0  0
  189.2530  177.6070  144.8200 C   0  0  0  0  0  0  0  0  0  0  0  0
  187.7630  178.9480  136.7610 C   0  0  0  0  0  1  0  0  0  0  0  0
  187.2250  178.1930  137.9670 C   0  0  1  0  0  3  0  0  0  0  0  0
  186.9890  176.7390  137.5670 C   0  0  0  0  0  2  0  0  0  0  0  0
  184.7400  177.5430  137.7120 O   0  0  0  0  0  1  0  0  0  0  0  0
  185.5250  176.4910  137.2400 C   0  0  0  0  0  2  0  0  0  0  0  0
  1  4  1  0  0  0  0
  2 17  2  0  0  0  0
  2 13  1  0  0  0  0
  3 16  2  0  0  0  0
  3  7  1  0  0  0  0
  5  9  1  0  0  0  0
  6 12  2  0  0  0  0
  7 11  2  0  0  0  0
  8 10  1  0  0  0  0
  8  5  1  0  0  0  0
  9  7  1  0  0  0  0
  9  2  1  0  0  0  0
 10 22  1  6  0  0  0
 10  3  1  0  0  0  0
 11  1  1  0  0  0  0
 11 13  1  0  0  0  0
 12  4  1  0  0  0  0
 13 20  1  1  0  0  0
 14  6  1  0  0  0  0
 14  1  2  0  0  0  0
 15  5  2  0  0  0  0
 16 14  1  0  0  0  0
 18 20  2  0  0  0  0
 20 19  1  0  0  0  0
 22 21  1  6  0  0  0
 23 22  1  0  0  0  0
 25 23  1  0  0  0  0
 25 24  1  0  0  0  0
M  END
>  <MODEL>
8

>  <REMARK>
 VINA RESULT:      -7.6      2.343      5.403
  Name = 
  4 active torsions:
  status: ('A' for Active; 'I' for Inactive)
    1  A    between atoms: C_2  and  C_20
    2  A    between atoms: C_2  and  C_24
    3  A    between atoms: C_15  and  C_24
    4  A    between atoms: C_18  and  C_21
                            x       y       z     vdW  Elec       q    Type
                         _______ _______ _______ _____ _____    ______ ____

>  <TORSDO>
F 4

$$$$
=
 OpenBabel11062413543D

 25 28  0  0  1  0  0  0  0  0999 V2000
  188.7530  177.9470  141.3750 C   0  0  0  0  0  0  0  0  0  0  0  0
  188.9210  177.4070  145.0140 C   0  0  0  0  0  0  0  0  0  0  0  0
  186.2720  178.0710  142.6880 C   0  0  0  0  0  0  0  0  0  0  0  0
  189.9070  178.0300  140.4470 C   0  0  0  0  0  3  0  0  0  0  0  0
  186.4300  177.9070  145.5460 C   0  0  0  0  0  0  0  0  0  0  0  0
  187.9400  178.5220  139.3420 N   0  0  0  0  0  0  0  0  0  0  0  0
  187.4470  177.7010  143.3460 C   0  0  0  0  0  0  0  0  0  0  0  0
  185.2370  178.2990  144.9160 O   0  0  0  0  0  0  0  0  0  0  0  0
  187.5270  177.5140  144.7290 N   0  0  0  0  0  0  0  0  0  0  0  0
  184.9840  178.1060  143.5040 C   0  0  1  0  0  3  0  0  0  0  0  0
  188.6830  177.6650  142.7360 C   0  0  0  0  0  0  0  0  0  0  0  0
  189.3310  178.3900  139.1320 N   0  0  0  0  0  0  0  0  0  0  0  0
  189.7640  177.4390  143.7580 C   0  0  2  0  0  3  0  0  0  0  0  0
  187.6200  178.2500  140.6840 C   0  0  2  0  0  3  0  0  0  0  0  0
  186.5350  177.9490  146.7990 O   0  0  0  0  0  0  0  0  0  0  0  0
  186.3540  178.3300  141.2960 C   0  0  0  0  0  3  0  0  0  0  0  0
  189.3850  177.3340  146.1820 O   0  0  0  0  0  0  0  0  0  0  0  0
  189.9350  175.2490  142.8540 O   0  0  0  0  0  0  0  0  0  0  0  0
  191.7950  175.8900  144.1360 C   0  0  0  0  0  1  0  0  0  0  0  0
  190.4550  176.1250  143.5310 C   0  0  0  0  0  0  0  0  0  0  0  0
  183.3050  178.6290  141.7220 C   0  0  0  0  0  1  0  0  0  0  0  0
  183.9720  179.1420  142.9890 C   0  0  1  0  0  3  0  0  0  0  0  0
  182.8930  179.4280  144.0280 C   0  0  0  0  0  2  0  0  0  0  0  0
  180.8170  180.1030  143.0500 O   0  0  0  0  0  1  0  0  0  0  0  0
  181.5220  178.9990  143.5290 C   0  0  0  0  0  2  0  0  0  0  0  0
  1 11  1  0  0  0  0
  2 17  2  0  0  0  0
  3  7  1  0  0  0  0
  3 10  1  0  0  0  0
  4  1  2  0  0  0  0
  5 15  2  0  0  0  0
  6 14  1  0  0  0  0
  7  9  1  0  0  0  0
  8  5  1  0  0  0  0
  9  2  1  0  0  0  0
  9  5  1  0  0  0  0
 10 22  1  6  0  0  0
 10  8  1  0  0  0  0
 11  7  2  0  0  0  0
 11 13  1  0  0  0  0
 12  6  2  0  0  0  0
 12  4  1  0  0  0  0
 13 20  1  6  0  0  0
 13  2  1  0  0  0  0
 14 16  1  1  0  0  0
 14  1  1  0  0  0  0
 16  3  2  0  0  0  0
 18 20  2  0  0  0  0
 20 19  1  0  0  0  0
 22 21  1  6  0  0  0
 22 23  1  0  0  0  0
 24 25  1  0  0  0  0
 25 23  1  0  0  0  0
M  END
>  <MODEL>
9

>  <REMARK>
 VINA RESULT:      -7.5      2.341      6.766
  Name = 
  4 active torsions:
  status: ('A' for Active; 'I' for Inactive)
    1  A    between atoms: C_2  and  C_20
    2  A    between atoms: C_2  and  C_24
    3  A    between atoms: C_15  and  C_24
    4  A    between atoms: C_18  and  C_21
                            x       y       z     vdW  Elec       q    Type
                         _______ _______ _______ _____ _____    ______ ____

>  <TORSDO>
F 4

$$$$
