=
 OpenBabel11062414163D

 60 63  0  0  1  0  0  0  0  0999 V2000
  190.4480  177.5660  146.7670 C   0  0  2  0  0  3  0  0  0  0  0  0
  190.1400  177.6450  144.2890 C   0  0  0  0  0  2  0  0  0  0  0  0
  189.4320  177.6510  145.6330 C   0  0  0  0  0  2  0  0  0  0  0  0
  192.0050  176.2870  145.2310 C   0  0  0  0  0  2  0  0  0  0  0  0
  191.3320  176.3180  146.6030 C   0  0  1  0  0  3  0  0  0  0  0  0
  190.9680  176.3750  144.1170 C   0  0  2  0  0  3  0  0  0  0  0  0
  192.3060  176.2870  147.5820 F   0  0  0  0  0  0  0  0  0  0  0  0
  189.6950  177.4930  148.0850 C   0  0  0  0  0  2  0  0  0  0  0  0
  188.5280  178.3680  148.0440 N   0  0  0  0  0  2  0  0  0  0  0  0
  187.4080  177.6010  147.5180 C   0  0  0  0  0  2  0  0  0  0  0  0
  186.6680  178.3910  146.4480 C   0  0  0  0  0  2  0  0  0  0  0  0
  185.3130  177.7620  146.1470 C   0  0  0  0  0  2  0  0  0  0  0  0
  184.2650  178.8300  145.9500 C   0  0  0  0  0  2  0  0  0  0  0  0
  183.9830  179.0170  144.4750 C   0  0  0  0  0  2  0  0  0  0  0  0
  185.1220  178.4640  143.6350 C   0  0  0  0  0  2  0  0  0  0  0  0
  185.0160  178.9680  142.2020 C   0  0  0  0  0  2  0  0  0  0  0  0
  184.0690  178.1470  141.3980 C   0  0  0  0  0  2  0  0  0  0  0  0
  182.7740  178.4620  141.3130 C   0  0  0  0  0  2  0  0  0  0  0  0
  181.4360  178.4490  140.9870 O   0  0  0  0  0  0  0  0  0  0  0  0
  180.5050  179.3090  141.6260 C   0  0  0  0  0  2  0  0  0  0  0  0
  179.4840  181.4000  141.1170 O   0  0  0  0  0  0  0  0  0  0  0  0
  180.2060  180.1620  139.2580 N   0  0  0  0  0  2  0  0  0  0  0  0
  180.0390  180.3590  140.6740 C   0  0  0  0  0  0  0  0  0  0  0  0
  180.5180  183.2890  137.1450 C   0  0  1  0  0  3  0  0  0  0  0  0
  180.1610  180.6990  134.5940 O   0  0  0  0  0  0  0  0  0  0  0  0
  180.1840  181.2380  135.6920 C   0  0  0  0  0  0  0  0  0  0  0  0
  179.6770  180.4520  136.8810 C   0  0  0  0  0  2  0  0  0  0  0  0
  179.8260  181.1420  138.2460 C   0  0  2  0  0  3  0  0  0  0  0  0
  180.8060  182.3130  138.2720 C   0  0  0  0  0  2  0  0  0  0  0  0
  180.7650  182.6230  135.7960 C   0  0  0  0  0  2  0  0  0  0  0  0
  179.2090  183.7790  137.2240 O   0  0  0  0  0  1  0  0  0  0  0  0
  191.6360  176.4390  142.8190 N   0  0  0  0  0  2  0  0  0  0  0  0
  190.9920  177.4560  141.9740 C   0  0  0  0  0  2  0  0  0  0  0  0
  190.4140  176.8560  140.7710 N   0  0  0  0  0  2  0  0  0  0  0  0
  190.0460  177.8930  139.9030 N   0  0  0  0  0  2  0  0  0  0  0  0
  190.0000  177.3410  138.5590 C   0  0  1  0  0  3  0  0  0  0  0  0
  193.6220  176.1480  138.3160 C   0  0  0  0  0  3  0  0  0  0  0  0
  192.1640  174.4020  137.4840 C   0  0  0  0  0  3  0  0  0  0  0  0
  191.2220  176.5050  138.2560 C   0  0  0  0  0  0  0  0  0  0  0  0
  192.5100  176.9590  138.5670 C   0  0  0  0  0  3  0  0  0  0  0  0
  193.4570  174.8710  137.7620 C   0  0  0  0  0  0  0  0  0  0  0  0
  191.0550  175.2210  137.7230 C   0  0  0  0  0  3  0  0  0  0  0  0
  194.4330  172.8280  136.9320 O   0  0  0  0  0  1  0  0  0  0  0  0
  194.5940  174.0200  137.5550 N   0  0  0  0  0  0  0  0  0  0  0  0
  195.8780  174.5620  137.6320 N   0  0  0  0  0  1  0  0  0  0  0  0
  188.7990  176.5290  138.4270 N   0  0  0  0  0  2  0  0  0  0  0  0
  188.1490  178.4750  137.1160 C   0  0  0  0  0  1  0  0  0  0  0  0
  188.0490  176.9700  137.2570 C   0  0  2  0  0  3  0  0  0  0  0  0
  183.7660  175.2680  136.8650 C   0  0  0  0  0  0  0  0  0  0  0  0
  185.6990  177.8160  137.3180 C   0  0  0  0  0  2  0  0  0  0  0  0
  182.5560  177.2640  135.9780 C   0  0  0  0  0  1  0  0  0  0  0  0
  183.6140  178.7670  137.9700 F   0  0  0  0  0  0  0  0  0  0  0  0
  184.2770  177.5580  137.8150 C   0  0  1  0  0  3  0  0  0  0  0  0
  186.5780  176.5670  137.3790 C   0  0  1  0  0  3  0  0  0  0  0  0
  186.1830  175.5920  136.2600 C   0  0  0  0  0  2  0  0  0  0  0  0
  184.9790  174.7630  136.6110 C   0  0  0  0  0  3  0  0  0  0  0  0
  183.5470  176.6940  136.8740 N   0  0  0  0  0  0  0  0  0  0  0  0
  182.2710  173.4130  136.1660 O   0  0  0  0  0  0  0  0  0  0  0  0
  181.9500  174.4790  138.1580 O   0  0  0  0  0  1  0  0  0  0  0  0
  182.6480  174.3470  137.1190 C   0  0  0  0  0  0  0  0  0  0  0  0
  1  8  1  1  0  0  0
  2  3  1  0  0  0  0
  3  1  1  0  0  0  0
  4  5  1  0  0  0  0
  5  1  1  0  0  0  0
  5  7  1  1  0  0  0
  6 32  1  6  0  0  0
  6  2  1  0  0  0  0
  6  4  1  0  0  0  0
  9  8  1  0  0  0  0
 10  9  1  0  0  0  0
 11 10  1  0  0  0  0
 12 11  1  0  0  0  0
 13 12  1  0  0  0  0
 14 13  1  0  0  0  0
 15 14  1  0  0  0  0
 16 15  1  0  0  0  0
 17 16  1  0  0  0  0
 18 17  1  0  0  0  0
 19 18  1  0  0  0  0
 19 20  1  0  0  0  0
 22 23  1  0  0  0  0
 23 21  2  0  0  0  0
 23 20  1  0  0  0  0
 24 31  1  6  0  0  0
 24 29  1  0  0  0  0
 25 26  2  0  0  0  0
 26 30  1  0  0  0  0
 26 27  1  0  0  0  0
 27 28  1  0  0  0  0
 28 29  1  0  0  0  0
 28 22  1  1  0  0  0
 30 24  1  0  0  0  0
 33 32  1  0  0  0  0
 34 33  1  0  0  0  0
 35 34  1  0  0  0  0
 36 46  1  1  0  0  0
 36 35  1  0  0  0  0
 37 40  1  0  0  0  0
 38 42  2  0  0  0  0
 38 41  1  0  0  0  0
 39 36  1  0  0  0  0
 39 40  2  0  0  0  0
 41 37  2  0  0  0  0
 42 39  1  0  0  0  0
 43 44  1  0  0  0  0
 44 45  1  0  0  0  0
 44 41  1  0  0  0  0
 48 47  1  1  0  0  0
 48 46  1  0  0  0  0
 49 57  1  0  0  0  0
 49 60  1  0  0  0  0
 50 54  1  0  0  0  0
 50 53  1  0  0  0  0
 51 57  1  0  0  0  0
 53 52  1  6  0  0  0
 54 48  1  6  0  0  0
 55 56  1  0  0  0  0
 55 54  1  0  0  0  0
 56 49  2  0  0  0  0
 57 53  1  0  0  0  0
 58 60  2  0  0  0  0
 60 59  1  0  0  0  0
M  END
>  <MODEL>
1

>  <REMARK>
 VINA RESULT:      -7.1      0.000      0.000
  Name = 
  25 active torsions:
  status: ('A' for Active; 'I' for Inactive)
    1  A    between atoms: N_3  and  C_22
    2  A    between atoms: N_3  and  C_53
    3  A    between atoms: C_6  and  C_40
    4  A    between atoms: C_7  and  C_25
    5  A    between atoms: C_7  and  C_46
    6  A    between atoms: C_8  and  C_25
    7  A    between atoms: C_11  and  N_48
    8  A    between atoms: C_11  and  N_56
    9  A    between atoms: C_12  and  C_53
   10  A    between atoms: N_13  and  C_55
   11  A    between atoms: N_14  and  C_42
   12  A    between atoms: C_17  and  C_37
   13  A    between atoms: C_18  and  C_39
   14  A    between atoms: C_18  and  N_43
   15  A    between atoms: C_18  and  N_47
   16  A    between atoms: C_22  and  C_52
   17  A    between atoms: C_23  and  C_44
   18  A    between atoms: C_23  and  C_46
   19  A    between atoms: O_24  and  C_30
   20  A    between atoms: O_24  and  C_37
   21  A    between atoms: C_35  and  N_56
   22  A    between atoms: C_36  and  C_45
   23  A    between atoms: N_43  and  C_45
   24  A    between atoms: C_44  and  C_52
   25  A    between atoms: N_47  and  N_48
                            x       y       z     vdW  Elec       q    Type
                         _______ _______ _______ _____ _____    ______ ____

>  <TORSDO>
F 25

$$$$
=
 OpenBabel11062414163D

 60 63  0  0  1  0  0  0  0  0999 V2000
  186.1830  177.6480  144.6000 C   0  0  2  0  0  3  0  0  0  0  0  0
  184.8410  177.8740  142.5050 C   0  0  0  0  0  2  0  0  0  0  0  0
  186.2440  177.8350  143.0880 C   0  0  0  0  0  2  0  0  0  0  0  0
  183.9430  178.8310  144.6230 C   0  0  0  0  0  2  0  0  0  0  0  0
  185.3380  178.7590  145.2450 C   0  0  1  0  0  3  0  0  0  0  0  0
  184.0320  179.0160  143.1130 C   0  0  2  0  0  3  0  0  0  0  0  0
  185.2130  178.5420  146.6030 F   0  0  0  0  0  0  0  0  0  0  0  0
  187.5990  177.6960  145.1490 C   0  0  0  0  0  2  0  0  0  0  0  0
  188.4550  176.7730  144.4090 N   0  0  0  0  0  2  0  0  0  0  0  0
  189.4910  177.5520  143.7460 C   0  0  0  0  0  2  0  0  0  0  0  0
  190.0790  176.7800  142.5750 C   0  0  0  0  0  2  0  0  0  0  0  0
  190.0460  177.6160  141.3010 C   0  0  0  0  0  2  0  0  0  0  0  0
  188.6790  178.2260  141.1020 C   0  0  0  0  0  2  0  0  0  0  0  0
  188.2730  178.1330  139.6490 C   0  0  0  0  0  2  0  0  0  0  0  0
  189.4090  177.5760  138.8060 C   0  0  0  0  0  2  0  0  0  0  0  0
  189.2340  177.9780  137.3480 C   0  0  0  0  0  2  0  0  0  0  0  0
  189.9340  177.0360  136.4310 C   0  0  0  0  0  2  0  0  0  0  0  0
  191.0260  176.3710  136.8180 C   0  0  0  0  0  2  0  0  0  0  0  0
  192.1220  175.5370  136.8310 O   0  0  0  0  0  0  0  0  0  0  0  0
  191.9860  174.1300  136.9680 C   0  0  0  0  0  2  0  0  0  0  0  0
  193.4960  172.3440  136.5140 O   0  0  0  0  0  0  0  0  0  0  0  0
  194.4230  174.1680  137.6640 N   0  0  0  0  0  2  0  0  0  0  0  0
  193.3320  173.4870  137.0180 C   0  0  0  0  0  0  0  0  0  0  0  0
  197.8350  173.1570  136.3680 C   0  0  1  0  0  3  0  0  0  0  0  0
  198.7140  175.4690  139.0560 O   0  0  0  0  0  0  0  0  0  0  0  0
  198.0420  174.7490  138.3300 C   0  0  0  0  0  0  0  0  0  0  0  0
  196.6090  174.4740  138.7320 C   0  0  0  0  0  2  0  0  0  0  0  0
  195.7850  173.6490  137.7300 C   0  0  2  0  0  3  0  0  0  0  0  0
  196.3740  173.5690  136.3240 C   0  0  0  0  0  2  0  0  0  0  0  0
  198.6640  174.2310  137.0610 C   0  0  0  0  0  2  0  0  0  0  0  0
  197.9910  171.9200  137.0060 O   0  0  0  0  0  1  0  0  0  0  0  0
  182.6940  178.9870  142.5280 N   0  0  0  0  0  2  0  0  0  0  0  0
  182.7880  178.9540  141.0600 C   0  0  0  0  0  2  0  0  0  0  0  0
  181.5470  178.4660  140.4600 N   0  0  0  0  0  2  0  0  0  0  0  0
  181.8050  178.1640  139.1150 N   0  0  0  0  0  2  0  0  0  0  0  0
  180.6050  178.4830  138.3590 C   0  0  1  0  0  3  0  0  0  0  0  0
  180.7410  182.2970  138.1770 C   0  0  0  0  0  3  0  0  0  0  0  0
  180.8020  181.4020  135.9270 C   0  0  0  0  0  3  0  0  0  0  0  0
  180.6370  179.8980  137.8290 C   0  0  0  0  0  0  0  0  0  0  0  0
  180.6680  180.9990  138.6930 C   0  0  0  0  0  3  0  0  0  0  0  0
  180.7960  182.5070  136.7920 C   0  0  0  0  0  0  0  0  0  0  0  0
  180.7140  180.1060  136.4460 C   0  0  0  0  0  3  0  0  0  0  0  0
  180.4910  184.1050  135.0110 O   0  0  0  0  0  1  0  0  0  0  0  0
  180.9250  183.8370  136.2660 N   0  0  0  0  0  0  0  0  0  0  0  0
  181.1230  184.9030  137.1440 N   0  0  0  0  0  1  0  0  0  0  0  0
  180.4830  177.5420  137.2560 N   0  0  0  0  0  2  0  0  0  0  0  0
  179.1830  176.6210  139.0970 C   0  0  0  0  0  1  0  0  0  0  0  0
  179.6960  176.3940  137.6900 C   0  0  2  0  0  3  0  0  0  0  0  0
  182.7420  172.9890  136.9590 C   0  0  0  0  0  0  0  0  0  0  0  0
  179.6670  173.9340  137.2520 C   0  0  0  0  0  2  0  0  0  0  0  0
  181.3680  171.4320  135.5710 C   0  0  0  0  0  1  0  0  0  0  0  0
  179.3830  171.5740  137.4120 F   0  0  0  0  0  0  0  0  0  0  0  0
  180.3170  172.5880  137.5680 C   0  0  1  0  0  3  0  0  0  0  0  0
  180.5430  175.1190  137.6570 C   0  0  1  0  0  3  0  0  0  0  0  0
  181.7150  175.2650  136.6760 C   0  0  0  0  0  2  0  0  0  0  0  0
  182.8470  174.3240  136.9800 C   0  0  0  0  0  3  0  0  0  0  0  0
  181.4740  172.3520  136.6910 N   0  0  0  0  0  0  0  0  0  0  0  0
  184.9890  172.6660  137.9610 O   0  0  0  0  0  1  0  0  0  0  0  0
  184.0780  171.0690  136.6110 O   0  0  0  0  0  0  0  0  0  0  0  0
  183.9420  172.1750  137.1970 C   0  0  0  0  0  0  0  0  0  0  0  0
  1  8  1  1  0  0  0
  1  5  1  0  0  0  0
  2  3  1  0  0  0  0
  2  6  1  0  0  0  0
  3  1  1  0  0  0  0
  4  5  1  0  0  0  0
  5  7  1  1  0  0  0
  6 32  1  6  0  0  0
  6  4  1  0  0  0  0
  9  8  1  0  0  0  0
 10  9  1  0  0  0  0
 11 10  1  0  0  0  0
 12 11  1  0  0  0  0
 13 12  1  0  0  0  0
 14 13  1  0  0  0  0
 15 14  1  0  0  0  0
 16 15  1  0  0  0  0
 17 18  1  0  0  0  0
 17 16  1  0  0  0  0
 18 19  1  0  0  0  0
 19 20  1  0  0  0  0
 20 23  1  0  0  0  0
 21 23  2  0  0  0  0
 23 22  1  0  0  0  0
 24 31  1  1  0  0  0
 24 30  1  0  0  0  0
 26 27  1  0  0  0  0
 26 25  2  0  0  0  0
 28 22  1  6  0  0  0
 28 27  1  0  0  0  0
 29 24  1  0  0  0  0
 29 28  1  0  0  0  0
 30 26  1  0  0  0  0
 33 32  1  0  0  0  0
 34 33  1  0  0  0  0
 35 34  1  0  0  0  0
 36 46  1  6  0  0  0
 36 35  1  0  0  0  0
 37 40  1  0  0  0  0
 38 42  2  0  0  0  0
 38 41  1  0  0  0  0
 39 36  1  0  0  0  0
 39 40  2  0  0  0  0
 41 37  2  0  0  0  0
 42 39  1  0  0  0  0
 43 44  1  0  0  0  0
 44 41  1  0  0  0  0
 44 45  1  0  0  0  0
 46 48  1  0  0  0  0
 48 47  1  1  0  0  0
 49 56  2  0  0  0  0
 49 60  1  0  0  0  0
 50 53  1  0  0  0  0
 50 54  1  0  0  0  0
 51 57  1  0  0  0  0
 53 52  1  6  0  0  0
 54 48  1  6  0  0  0
 55 56  1  0  0  0  0
 55 54  1  0  0  0  0
 57 49  1  0  0  0  0
 57 53  1  0  0  0  0
 59 60  2  0  0  0  0
 60 58  1  0  0  0  0
M  END
>  <MODEL>
2

>  <REMARK>
 VINA RESULT:      -6.6      3.074     11.369
  Name = 
  25 active torsions:
  status: ('A' for Active; 'I' for Inactive)
    1  A    between atoms: N_3  and  C_22
    2  A    between atoms: N_3  and  C_53
    3  A    between atoms: C_6  and  C_40
    4  A    between atoms: C_7  and  C_25
    5  A    between atoms: C_7  and  C_46
    6  A    between atoms: C_8  and  C_25
    7  A    between atoms: C_11  and  N_48
    8  A    between atoms: C_11  and  N_56
    9  A    between atoms: C_12  and  C_53
   10  A    between atoms: N_13  and  C_55
   11  A    between atoms: N_14  and  C_42
   12  A    between atoms: C_17  and  C_37
   13  A    between atoms: C_18  and  C_39
   14  A    between atoms: C_18  and  N_43
   15  A    between atoms: C_18  and  N_47
   16  A    between atoms: C_22  and  C_52
   17  A    between atoms: C_23  and  C_44
   18  A    between atoms: C_23  and  C_46
   19  A    between atoms: O_24  and  C_30
   20  A    between atoms: O_24  and  C_37
   21  A    between atoms: C_35  and  N_56
   22  A    between atoms: C_36  and  C_45
   23  A    between atoms: N_43  and  C_45
   24  A    between atoms: C_44  and  C_52
   25  A    between atoms: N_47  and  N_48
                            x       y       z     vdW  Elec       q    Type
                         _______ _______ _______ _____ _____    ______ ____

>  <TORSDO>
F 25

$$$$
=
 OpenBabel11062414163D

 60 63  0  0  1  0  0  0  0  0999 V2000
  189.6460  176.3480  135.8630 C   0  0  2  0  0  3  0  0  0  0  0  0
  188.1920  175.9620  137.8590 C   0  0  0  0  0  2  0  0  0  0  0  0
  188.8630  175.3100  136.6620 C   0  0  0  0  0  2  0  0  0  0  0  0
  188.0100  178.1230  136.6310 C   0  0  0  0  0  2  0  0  0  0  0  0
  188.7240  177.5000  135.4310 C   0  0  1  0  0  3  0  0  0  0  0  0
  187.2380  177.0660  137.4110 C   0  0  2  0  0  3  0  0  0  0  0  0
  189.4490  178.4790  134.7810 F   0  0  0  0  0  0  0  0  0  0  0  0
  190.2310  175.6700  134.6350 C   0  0  0  0  0  2  0  0  0  0  0  0
  190.3580  174.2350  134.8680 N   0  0  0  0  0  2  0  0  0  0  0  0
  191.7750  173.9170  134.9670 C   0  0  0  0  0  2  0  0  0  0  0  0
  192.0380  172.9880  136.1430 C   0  0  0  0  0  2  0  0  0  0  0  0
  192.8300  171.7630  135.7010 C   0  0  0  0  0  2  0  0  0  0  0  0
  194.2680  172.1310  135.4290 C   0  0  0  0  0  2  0  0  0  0  0  0
  195.1400  171.7240  136.5970 C   0  0  0  0  0  2  0  0  0  0  0  0
  196.5660  172.2130  136.4010 C   0  0  0  0  0  2  0  0  0  0  0  0
  196.6470  173.7160  136.6290 C   0  0  0  0  0  2  0  0  0  0  0  0
  196.0960  174.1010  137.9580 C   0  0  0  0  0  2  0  0  0  0  0  0
  194.9070  174.7000  138.0700 C   0  0  0  0  0  2  0  0  0  0  0  0
  193.7820  175.3020  138.5890 O   0  0  0  0  0  0  0  0  0  0  0  0
  193.1010  176.3340  137.8910 C   0  0  0  0  0  2  0  0  0  0  0  0
  191.0960  177.5640  138.2630 O   0  0  0  0  0  0  0  0  0  0  0  0
  192.2320  176.8960  140.2040 N   0  0  0  0  0  2  0  0  0  0  0  0
  192.0760  176.9620  138.7760 C   0  0  0  0  0  0  0  0  0  0  0  0
  189.1290  176.9470  142.3750 C   0  0  1  0  0  3  0  0  0  0  0  0
  191.7550  177.6590  144.8130 O   0  0  0  0  0  0  0  0  0  0  0  0
  191.2010  177.4750  143.7370 C   0  0  0  0  0  0  0  0  0  0  0  0
  191.9770  177.7850  142.4760 C   0  0  0  0  0  2  0  0  0  0  0  0
  191.2680  177.4370  141.1570 C   0  0  2  0  0  3  0  0  0  0  0  0
  190.0870  176.4790  141.2950 C   0  0  0  0  0  2  0  0  0  0  0  0
  189.8090  176.9010  143.7380 C   0  0  0  0  0  2  0  0  0  0  0  0
  188.6510  178.2340  142.1020 O   0  0  0  0  0  1  0  0  0  0  0  0
  186.6430  177.6640  138.6040 N   0  0  0  0  0  2  0  0  0  0  0  0
  185.9370  178.9040  138.2450 C   0  0  0  0  0  2  0  0  0  0  0  0
  184.7850  179.1300  139.1180 N   0  0  0  0  0  2  0  0  0  0  0  0
  184.4140  177.8980  139.6740 N   0  0  0  0  0  2  0  0  0  0  0  0
  183.4150  178.1650  140.6960 C   0  0  1  0  0  3  0  0  0  0  0  0
  183.9350  179.0730  144.3710 C   0  0  0  0  0  3  0  0  0  0  0  0
  185.8960  177.9000  143.5670 C   0  0  0  0  0  3  0  0  0  0  0  0
  184.0420  178.3410  142.0600 C   0  0  0  0  0  0  0  0  0  0  0  0
  183.3490  178.9620  143.1060 C   0  0  0  0  0  3  0  0  0  0  0  0
  185.2160  178.5550  144.6060 C   0  0  0  0  0  0  0  0  0  0  0  0
  185.3130  177.8030  142.3000 C   0  0  0  0  0  3  0  0  0  0  0  0
  185.2850  179.4840  146.8300 O   0  0  0  0  0  1  0  0  0  0  0  0
  185.7950  178.6230  145.9180 N   0  0  0  0  0  0  0  0  0  0  0  0
  186.5910  177.5690  146.3700 N   0  0  0  0  0  1  0  0  0  0  0  0
  182.6810  179.3680  140.3290 N   0  0  0  0  0  2  0  0  0  0  0  0
  180.3560  179.1030  141.0010 C   0  0  0  0  0  1  0  0  0  0  0  0
  181.3510  178.9930  139.8640 C   0  0  2  0  0  3  0  0  0  0  0  0
  181.1530  175.0600  137.4380 C   0  0  0  0  0  0  0  0  0  0  0  0
  180.3000  176.7350  140.0650 C   0  0  0  0  0  2  0  0  0  0  0  0
  178.9390  174.1720  138.1790 C   0  0  0  0  0  1  0  0  0  0  0  0
  179.6750  174.5440  140.7610 F   0  0  0  0  0  0  0  0  0  0  0  0
  180.4950  175.2310  139.8770 C   0  0  1  0  0  3  0  0  0  0  0  0
  181.3530  177.5610  139.3260 C   0  0  1  0  0  3  0  0  0  0  0  0
  181.0710  177.5420  137.8170 C   0  0  0  0  0  2  0  0  0  0  0  0
  181.5770  176.2950  137.1470 C   0  0  0  0  0  3  0  0  0  0  0  0
  180.1920  174.8380  138.4920 N   0  0  0  0  0  0  0  0  0  0  0  0
  181.1230  173.6140  135.4200 O   0  0  0  0  0  0  0  0  0  0  0  0
  182.5290  173.1560  137.1590 O   0  0  0  0  0  1  0  0  0  0  0  0
  181.6680  173.9250  136.6570 C   0  0  0  0  0  0  0  0  0  0  0  0
  1  8  1  6  0  0  0
  1  3  1  0  0  0  0
  3  2  1  0  0  0  0
  4  6  1  0  0  0  0
  5  7  1  1  0  0  0
  5  1  1  0  0  0  0
  5  4  1  0  0  0  0
  6  2  1  0  0  0  0
  6 32  1  1  0  0  0
  8  9  1  0  0  0  0
  9 10  1  0  0  0  0
 10 11  1  0  0  0  0
 12 11  1  0  0  0  0
 13 12  1  0  0  0  0
 13 14  1  0  0  0  0
 15 14  1  0  0  0  0
 15 16  1  0  0  0  0
 16 17  1  0  0  0  0
 17 18  1  0  0  0  0
 18 19  1  0  0  0  0
 20 19  1  0  0  0  0
 20 23  1  0  0  0  0
 21 23  2  0  0  0  0
 23 22  1  0  0  0  0
 24 31  1  6  0  0  0
 24 30  1  0  0  0  0
 26 30  1  0  0  0  0
 26 25  2  0  0  0  0
 27 26  1  0  0  0  0
 28 22  1  6  0  0  0
 28 29  1  0  0  0  0
 28 27  1  0  0  0  0
 29 24  1  0  0  0  0
 33 32  1  0  0  0  0
 33 34  1  0  0  0  0
 34 35  1  0  0  0  0
 36 35  1  6  0  0  0
 36 39  1  0  0  0  0
 37 41  1  0  0  0  0
 38 41  2  0  0  0  0
 39 42  2  0  0  0  0
 39 40  1  0  0  0  0
 40 37  2  0  0  0  0
 41 44  1  0  0  0  0
 42 38  1  0  0  0  0
 44 45  1  0  0  0  0
 44 43  1  0  0  0  0
 46 36  1  0  0  0  0
 48 46  1  0  0  0  0
 48 47  1  1  0  0  0
 49 57  1  0  0  0  0
 51 57  1  0  0  0  0
 53 50  1  0  0  0  0
 53 52  1  1  0  0  0
 54 48  1  1  0  0  0
 54 50  1  0  0  0  0
 55 54  1  0  0  0  0
 56 49  2  0  0  0  0
 56 55  1  0  0  0  0
 57 53  1  0  0  0  0
 58 60  2  0  0  0  0
 60 59  1  0  0  0  0
 60 49  1  0  0  0  0
M  END
>  <MODEL>
3

>  <REMARK>
 VINA RESULT:      -6.4      3.755     10.726
  Name = 
  25 active torsions:
  status: ('A' for Active; 'I' for Inactive)
    1  A    between atoms: N_3  and  C_22
    2  A    between atoms: N_3  and  C_53
    3  A    between atoms: C_6  and  C_40
    4  A    between atoms: C_7  and  C_25
    5  A    between atoms: C_7  and  C_46
    6  A    between atoms: C_8  and  C_25
    7  A    between atoms: C_11  and  N_48
    8  A    between atoms: C_11  and  N_56
    9  A    between atoms: C_12  and  C_53
   10  A    between atoms: N_13  and  C_55
   11  A    between atoms: N_14  and  C_42
   12  A    between atoms: C_17  and  C_37
   13  A    between atoms: C_18  and  C_39
   14  A    between atoms: C_18  and  N_43
   15  A    between atoms: C_18  and  N_47
   16  A    between atoms: C_22  and  C_52
   17  A    between atoms: C_23  and  C_44
   18  A    between atoms: C_23  and  C_46
   19  A    between atoms: O_24  and  C_30
   20  A    between atoms: O_24  and  C_37
   21  A    between atoms: C_35  and  N_56
   22  A    between atoms: C_36  and  C_45
   23  A    between atoms: N_43  and  C_45
   24  A    between atoms: C_44  and  C_52
   25  A    between atoms: N_47  and  N_48
                            x       y       z     vdW  Elec       q    Type
                         _______ _______ _______ _____ _____    ______ ____

>  <TORSDO>
F 25

$$$$
=
 OpenBabel11062414163D

 60 63  0  0  1  0  0  0  0  0999 V2000
  182.8560  178.7280  139.8160 C   0  0  2  0  0  3  0  0  0  0  0  0
  184.6240  179.9310  138.5240 C   0  0  0  0  0  2  0  0  0  0  0  0
  183.1640  179.9410  138.9440 C   0  0  0  0  0  2  0  0  0  0  0  0
  184.6750  177.4420  138.6110 C   0  0  0  0  0  2  0  0  0  0  0  0
  183.2190  177.4300  139.0770 C   0  0  1  0  0  3  0  0  0  0  0  0
  184.9560  178.6620  137.7430 C   0  0  2  0  0  3  0  0  0  0  0  0
  183.0190  176.3370  139.8980 F   0  0  0  0  0  0  0  0  0  0  0  0
  181.3720  178.7360  140.1450 C   0  0  0  0  0  2  0  0  0  0  0  0
  181.1680  178.3890  141.5470 N   0  0  0  0  0  2  0  0  0  0  0  0
  179.9740  177.5600  141.6380 C   0  0  0  0  0  2  0  0  0  0  0  0
  179.9850  176.4800  140.5660 C   0  0  0  0  0  2  0  0  0  0  0  0
  178.9310  176.7610  139.5020 C   0  0  0  0  0  2  0  0  0  0  0  0
  179.1040  175.8300  138.3260 C   0  0  0  0  0  2  0  0  0  0  0  0
  180.0870  176.4170  137.3370 C   0  0  0  0  0  2  0  0  0  0  0  0
  181.2700  175.4840  137.1360 C   0  0  0  0  0  2  0  0  0  0  0  0
  180.8010  174.1430  136.5900 C   0  0  0  0  0  2  0  0  0  0  0  0
  181.5950  173.0140  137.1490 C   0  0  0  0  0  2  0  0  0  0  0  0
  182.8240  172.7400  136.7020 C   0  0  0  0  0  2  0  0  0  0  0  0
  184.0590  172.1570  136.5270 O   0  0  0  0  0  0  0  0  0  0  0  0
  184.7790  172.2890  135.3100 C   0  0  0  0  0  2  0  0  0  0  0  0
  185.6460  174.4680  135.7270 O   0  0  0  0  0  0  0  0  0  0  0  0
  187.2590  172.8090  135.3350 N   0  0  0  0  0  2  0  0  0  0  0  0
  185.9000  173.2590  135.4800 C   0  0  0  0  0  0  0  0  0  0  0  0
  189.8160  174.8460  137.2480 C   0  0  1  0  0  3  0  0  0  0  0  0
  191.9480  172.5530  135.3660 O   0  0  0  0  0  0  0  0  0  0  0  0
  190.9470  173.1470  135.7440 C   0  0  0  0  0  0  0  0  0  0  0  0
  189.6740  172.9770  134.9430 C   0  0  0  0  0  2  0  0  0  0  0  0
  188.4270  173.6630  135.5240 C   0  0  2  0  0  3  0  0  0  0  0  0
  188.5380  174.0650  136.9920 C   0  0  0  0  0  2  0  0  0  0  0  0
  191.0320  173.9590  137.0090 C   0  0  0  0  0  2  0  0  0  0  0  0
  189.8730  175.9940  136.4480 O   0  0  0  0  0  1  0  0  0  0  0  0
  186.3730  178.7050  137.3880 N   0  0  0  0  0  2  0  0  0  0  0  0
  187.0940  177.6220  138.0730 C   0  0  0  0  0  2  0  0  0  0  0  0
  188.1760  178.1490  138.9050 N   0  0  0  0  0  2  0  0  0  0  0  0
  188.5410  177.1540  139.8240 N   0  0  0  0  0  2  0  0  0  0  0  0
  188.8930  177.8190  141.0680 C   0  0  1  0  0  3  0  0  0  0  0  0
  186.3900  177.3850  143.9220 C   0  0  0  0  0  3  0  0  0  0  0  0
  185.7180  179.2800  142.5710 C   0  0  0  0  0  3  0  0  0  0  0  0
  187.6920  177.9970  141.9670 C   0  0  0  0  0  0  0  0  0  0  0  0
  187.4870  177.1730  143.0800 C   0  0  0  0  0  3  0  0  0  0  0  0
  185.4930  178.4310  143.6660 C   0  0  0  0  0  0  0  0  0  0  0  0
  186.8080  179.0560  141.7230 C   0  0  0  0  0  3  0  0  0  0  0  0
  183.1290  178.6620  144.0860 O   0  0  0  0  0  1  0  0  0  0  0  0
  184.3980  178.6810  144.5600 N   0  0  0  0  0  0  0  0  0  0  0  0
  184.5970  178.5550  145.9360 N   0  0  0  0  0  1  0  0  0  0  0  0
  189.9100  177.0300  141.7480 N   0  0  0  0  0  2  0  0  0  0  0  0
  192.2050  177.8130  141.5360 C   0  0  0  0  0  1  0  0  0  0  0  0
  190.9110  177.9260  142.3140 C   0  0  2  0  0  3  0  0  0  0  0  0
  191.6510  176.0200  146.4640 C   0  0  0  0  0  0  0  0  0  0  0  0
  190.0500  178.1590  144.6490 C   0  0  0  0  0  2  0  0  0  0  0  0
  189.4140  176.3430  147.5260 C   0  0  0  0  0  1  0  0  0  0  0  0
  189.4770  178.9600  146.8180 F   0  0  0  0  0  0  0  0  0  0  0  0
  190.4190  178.2070  146.1310 C   0  0  1  0  0  3  0  0  0  0  0  0
  191.1700  177.5820  143.7830 C   0  0  1  0  0  3  0  0  0  0  0  0
  191.2580  176.0620  143.9830 C   0  0  0  0  0  2  0  0  0  0  0  0
  192.0190  175.6830  145.2220 C   0  0  0  0  0  3  0  0  0  0  0  0
  190.4910  176.8480  146.6910 N   0  0  0  0  0  0  0  0  0  0  0  0
  191.8120  174.9050  148.6760 O   0  0  0  0  0  1  0  0  0  0  0  0
  193.6720  175.7560  147.6640 O   0  0  0  0  0  0  0  0  0  0  0  0
  192.4370  175.5210  147.6020 C   0  0  0  0  0  0  0  0  0  0  0  0
  1  8  1  6  0  0  0
  2  3  1  0  0  0  0
  3  1  1  0  0  0  0
  4  5  1  0  0  0  0
  5  1  1  0  0  0  0
  5  7  1  1  0  0  0
  6 32  1  1  0  0  0
  6  2  1  0  0  0  0
  6  4  1  0  0  0  0
  8  9  1  0  0  0  0
  9 10  1  0  0  0  0
 11 10  1  0  0  0  0
 12 11  1  0  0  0  0
 13 12  1  0  0  0  0
 14 13  1  0  0  0  0
 15 14  1  0  0  0  0
 16 15  1  0  0  0  0
 16 17  1  0  0  0  0
 18 17  1  0  0  0  0
 19 18  1  0  0  0  0
 20 23  1  0  0  0  0
 20 19  1  0  0  0  0
 22 23  1  0  0  0  0
 23 21  2  0  0  0  0
 24 31  1  6  0  0  0
 25 26  2  0  0  0  0
 26 30  1  0  0  0  0
 27 28  1  0  0  0  0
 27 26  1  0  0  0  0
 28 22  1  1  0  0  0
 28 29  1  0  0  0  0
 29 24  1  0  0  0  0
 30 24  1  0  0  0  0
 32 33  1  0  0  0  0
 33 34  1  0  0  0  0
 34 35  1  0  0  0  0
 36 35  1  6  0  0  0
 36 46  1  0  0  0  0
 36 39  1  0  0  0  0
 38 41  2  0  0  0  0
 39 40  1  0  0  0  0
 40 37  2  0  0  0  0
 41 37  1  0  0  0  0
 41 44  1  0  0  0  0
 42 39  2  0  0  0  0
 42 38  1  0  0  0  0
 43 44  1  0  0  0  0
 44 45  1  0  0  0  0
 46 48  1  0  0  0  0
 48 47  1  6  0  0  0
 49 57  1  0  0  0  0
 49 60  1  0  0  0  0
 50 53  1  0  0  0  0
 53 57  1  0  0  0  0
 53 52  1  1  0  0  0
 54 48  1  6  0  0  0
 54 55  1  0  0  0  0
 54 50  1  0  0  0  0
 55 56  1  0  0  0  0
 56 49  2  0  0  0  0
 57 51  1  0  0  0  0
 60 59  2  0  0  0  0
 60 58  1  0  0  0  0
M  END
>  <MODEL>
4

>  <REMARK>
 VINA RESULT:      -5.9      3.323     10.330
  Name = 
  25 active torsions:
  status: ('A' for Active; 'I' for Inactive)
    1  A    between atoms: N_3  and  C_22
    2  A    between atoms: N_3  and  C_53
    3  A    between atoms: C_6  and  C_40
    4  A    between atoms: C_7  and  C_25
    5  A    between atoms: C_7  and  C_46
    6  A    between atoms: C_8  and  C_25
    7  A    between atoms: C_11  and  N_48
    8  A    between atoms: C_11  and  N_56
    9  A    between atoms: C_12  and  C_53
   10  A    between atoms: N_13  and  C_55
   11  A    between atoms: N_14  and  C_42
   12  A    between atoms: C_17  and  C_37
   13  A    between atoms: C_18  and  C_39
   14  A    between atoms: C_18  and  N_43
   15  A    between atoms: C_18  and  N_47
   16  A    between atoms: C_22  and  C_52
   17  A    between atoms: C_23  and  C_44
   18  A    between atoms: C_23  and  C_46
   19  A    between atoms: O_24  and  C_30
   20  A    between atoms: O_24  and  C_37
   21  A    between atoms: C_35  and  N_56
   22  A    between atoms: C_36  and  C_45
   23  A    between atoms: N_43  and  C_45
   24  A    between atoms: C_44  and  C_52
   25  A    between atoms: N_47  and  N_48
                            x       y       z     vdW  Elec       q    Type
                         _______ _______ _______ _____ _____    ______ ____

>  <TORSDO>
F 25

$$$$
=
 OpenBabel11062414163D

 60 63  0  0  1  0  0  0  0  0999 V2000
  184.1270  173.4560  136.9310 C   0  0  2  0  0  3  0  0  0  0  0  0
  185.7930  175.3140  137.0460 C   0  0  0  0  0  2  0  0  0  0  0  0
  184.3780  174.8860  137.3970 C   0  0  0  0  0  2  0  0  0  0  0  0
  185.8010  173.8070  135.0630 C   0  0  0  0  0  2  0  0  0  0  0  0
  184.3940  173.3290  135.4220 C   0  0  1  0  0  3  0  0  0  0  0  0
  186.0260  175.2360  135.5410 C   0  0  2  0  0  3  0  0  0  0  0  0
  184.2490  172.0160  135.0160 F   0  0  0  0  0  0  0  0  0  0  0  0
  182.6800  173.0990  137.2280 C   0  0  0  0  0  2  0  0  0  0  0  0
  181.7930  173.7730  136.2850 N   0  0  0  0  0  2  0  0  0  0  0  0
  181.0930  174.8300  137.0020 C   0  0  0  0  0  2  0  0  0  0  0  0
  179.7810  174.3140  137.5750 C   0  0  0  0  0  2  0  0  0  0  0  0
  179.8730  174.1630  139.0890 C   0  0  0  0  0  2  0  0  0  0  0  0
  180.4030  175.4290  139.7170 C   0  0  0  0  0  2  0  0  0  0  0  0
  179.3350  176.5010  139.7100 C   0  0  0  0  0  2  0  0  0  0  0  0
  179.9400  177.8620  139.4100 C   0  0  0  0  0  2  0  0  0  0  0  0
  180.4650  178.5020  140.6880 C   0  0  0  0  0  2  0  0  0  0  0  0
  181.8760  178.9540  140.5370 C   0  0  0  0  0  2  0  0  0  0  0  0
  182.8430  178.4960  141.3380 C   0  0  0  0  0  2  0  0  0  0  0  0
  184.0680  178.2770  141.9280 O   0  0  0  0  0  0  0  0  0  0  0  0
  184.4250  178.8950  143.1550 C   0  0  0  0  0  2  0  0  0  0  0  0
  185.9090  177.0390  143.3130 O   0  0  0  0  0  0  0  0  0  0  0  0
  185.9260  178.4900  145.1560 N   0  0  0  0  0  2  0  0  0  0  0  0
  185.4630  178.0840  143.8560 C   0  0  0  0  0  0  0  0  0  0  0  0
  189.4370  177.7080  146.3410 C   0  0  1  0  0  3  0  0  0  0  0  0
  187.6880  178.2490  149.5020 O   0  0  0  0  0  0  0  0  0  0  0  0
  187.8780  178.0900  148.3040 C   0  0  0  0  0  0  0  0  0  0  0  0
  186.6730  177.8860  147.4130 C   0  0  0  0  0  2  0  0  0  0  0  0
  186.9660  177.7960  145.9070 C   0  0  2  0  0  3  0  0  0  0  0  0
  188.3390  178.3160  145.4860 C   0  0  0  0  0  2  0  0  0  0  0  0
  189.2910  178.1630  147.7880 C   0  0  0  0  0  2  0  0  0  0  0  0
  189.4270  176.3110  146.2560 O   0  0  0  0  0  1  0  0  0  0  0  0
  187.4050  175.6390  135.2720 N   0  0  0  0  0  2  0  0  0  0  0  0
  188.3240  174.5450  135.6200 C   0  0  0  0  0  2  0  0  0  0  0  0
  189.1790  174.9090  136.7490 N   0  0  0  0  0  2  0  0  0  0  0  0
  190.3960  175.3830  136.2380 N   0  0  0  0  0  2  0  0  0  0  0  0
  191.2580  175.6810  137.3700 C   0  0  1  0  0  3  0  0  0  0  0  0
  194.8850  175.9520  136.2010 C   0  0  0  0  0  3  0  0  0  0  0  0
  194.5790  173.8270  137.3230 C   0  0  0  0  0  3  0  0  0  0  0  0
  192.7020  175.3510  137.0750 C   0  0  0  0  0  0  0  0  0  0  0  0
  193.5400  176.2640  136.4240 C   0  0  0  0  0  3  0  0  0  0  0  0
  195.4090  174.7270  136.6380 C   0  0  0  0  0  0  0  0  0  0  0  0
  193.2310  174.1370  137.5320 C   0  0  0  0  0  3  0  0  0  0  0  0
  197.1970  173.7060  135.3820 O   0  0  0  0  0  1  0  0  0  0  0  0
  196.8020  174.4310  136.4560 N   0  0  0  0  0  0  0  0  0  0  0  0
  197.7570  175.1890  137.1360 N   0  0  0  0  0  1  0  0  0  0  0  0
  191.1280  177.0930  137.6980 N   0  0  0  0  0  2  0  0  0  0  0  0
  189.1860  178.5570  137.8150 C   0  0  0  0  0  1  0  0  0  0  0  0
  189.8520  177.3140  138.3680 C   0  0  2  0  0  3  0  0  0  0  0  0
  191.3620  177.7260  142.7210 C   0  0  0  0  0  0  0  0  0  0  0  0
  189.3430  176.3430  140.6130 C   0  0  0  0  0  2  0  0  0  0  0  0
  190.8260  175.4560  143.6120 C   0  0  0  0  0  1  0  0  0  0  0  0
  188.3000  175.6980  142.6560 F   0  0  0  0  0  0  0  0  0  0  0  0
  189.1640  176.6330  142.1030 C   0  0  1  0  0  3  0  0  0  0  0  0
  190.0570  177.4750  139.8760 C   0  0  1  0  0  3  0  0  0  0  0  0
  191.5520  177.4700  140.2280 C   0  0  0  0  0  2  0  0  0  0  0  0
  191.8410  178.1420  141.5420 C   0  0  0  0  0  3  0  0  0  0  0  0
  190.4610  176.6010  142.7970 N   0  0  0  0  0  0  0  0  0  0  0  0
  191.7790  179.8060  144.0090 O   0  0  0  0  0  0  0  0  0  0  0  0
  192.2570  177.7650  144.9100 O   0  0  0  0  0  1  0  0  0  0  0  0
  191.7810  178.4210  143.9470 C   0  0  0  0  0  0  0  0  0  0  0  0
  1  8  1  6  0  0  0
  1  3  1  0  0  0  0
  2  3  1  0  0  0  0
  4  5  1  0  0  0  0
  4  6  1  0  0  0  0
  5  7  1  1  0  0  0
  5  1  1  0  0  0  0
  6 32  1  1  0  0  0
  6  2  1  0  0  0  0
  9 10  1  0  0  0  0
  9  8  1  0  0  0  0
 10 11  1  0  0  0  0
 11 12  1  0  0  0  0
 12 13  1  0  0  0  0
 14 13  1  0  0  0  0
 15 14  1  0  0  0  0
 15 16  1  0  0  0  0
 17 16  1  0  0  0  0
 17 18  1  0  0  0  0
 18 19  1  0  0  0  0
 19 20  1  0  0  0  0
 20 23  1  0  0  0  0
 21 23  2  0  0  0  0
 23 22  1  0  0  0  0
 24 31  1  1  0  0  0
 24 30  1  0  0  0  0
 26 25  2  0  0  0  0
 27 26  1  0  0  0  0
 28 22  1  6  0  0  0
 28 27  1  0  0  0  0
 29 28  1  0  0  0  0
 29 24  1  0  0  0  0
 30 26  1  0  0  0  0
 32 33  1  0  0  0  0
 33 34  1  0  0  0  0
 35 34  1  0  0  0  0
 36 35  1  6  0  0  0
 36 46  1  0  0  0  0
 37 40  2  0  0  0  0
 37 41  1  0  0  0  0
 38 42  1  0  0  0  0
 39 36  1  0  0  0  0
 39 42  2  0  0  0  0
 40 39  1  0  0  0  0
 41 38  2  0  0  0  0
 43 44  1  0  0  0  0
 44 41  1  0  0  0  0
 44 45  1  0  0  0  0
 46 48  1  0  0  0  0
 48 47  1  6  0  0  0
 49 57  1  0  0  0  0
 49 60  1  0  0  0  0
 50 53  1  0  0  0  0
 53 52  1  1  0  0  0
 53 57  1  0  0  0  0
 54 48  1  6  0  0  0
 54 55  1  0  0  0  0
 54 50  1  0  0  0  0
 55 56  1  0  0  0  0
 56 49  2  0  0  0  0
 57 51  1  0  0  0  0
 60 58  2  0  0  0  0
 60 59  1  0  0  0  0
M  END
>  <MODEL>
5

>  <REMARK>
 VINA RESULT:      -5.7      3.522      9.232
  Name = 
  25 active torsions:
  status: ('A' for Active; 'I' for Inactive)
    1  A    between atoms: N_3  and  C_22
    2  A    between atoms: N_3  and  C_53
    3  A    between atoms: C_6  and  C_40
    4  A    between atoms: C_7  and  C_25
    5  A    between atoms: C_7  and  C_46
    6  A    between atoms: C_8  and  C_25
    7  A    between atoms: C_11  and  N_48
    8  A    between atoms: C_11  and  N_56
    9  A    between atoms: C_12  and  C_53
   10  A    between atoms: N_13  and  C_55
   11  A    between atoms: N_14  and  C_42
   12  A    between atoms: C_17  and  C_37
   13  A    between atoms: C_18  and  C_39
   14  A    between atoms: C_18  and  N_43
   15  A    between atoms: C_18  and  N_47
   16  A    between atoms: C_22  and  C_52
   17  A    between atoms: C_23  and  C_44
   18  A    between atoms: C_23  and  C_46
   19  A    between atoms: O_24  and  C_30
   20  A    between atoms: O_24  and  C_37
   21  A    between atoms: C_35  and  N_56
   22  A    between atoms: C_36  and  C_45
   23  A    between atoms: N_43  and  C_45
   24  A    between atoms: C_44  and  C_52
   25  A    between atoms: N_47  and  N_48
                            x       y       z     vdW  Elec       q    Type
                         _______ _______ _______ _____ _____    ______ ____

>  <TORSDO>
F 25

$$$$
=
 OpenBabel11062414163D

 60 63  0  0  1  0  0  0  0  0999 V2000
  189.4190  176.7400  138.5320 C   0  0  2  0  0  3  0  0  0  0  0  0
  188.2400  176.8530  136.3310 C   0  0  0  0  0  2  0  0  0  0  0  0
  189.5760  177.0070  137.0390 C   0  0  0  0  0  2  0  0  0  0  0  0
  187.0240  177.5510  138.3910 C   0  0  0  0  0  2  0  0  0  0  0  0
  188.3540  177.6710  139.1340 C   0  0  1  0  0  3  0  0  0  0  0  0
  187.2090  177.8210  136.9030 C   0  0  2  0  0  3  0  0  0  0  0  0
  188.1520  177.3700  140.4680 F   0  0  0  0  0  0  0  0  0  0  0  0
  190.7570  176.9840  139.2090 C   0  0  0  0  0  2  0  0  0  0  0  0
  190.6590  176.6920  140.6350 N   0  0  0  0  0  2  0  0  0  0  0  0
  191.6770  177.4700  141.3260 C   0  0  0  0  0  2  0  0  0  0  0  0
  191.1070  178.1050  142.5860 C   0  0  0  0  0  2  0  0  0  0  0  0
  190.7270  177.0400  143.6080 C   0  0  0  0  0  2  0  0  0  0  0  0
  189.2310  177.0040  143.8050 C   0  0  0  0  0  2  0  0  0  0  0  0
  188.8400  177.8660  144.9840 C   0  0  0  0  0  2  0  0  0  0  0  0
  189.9850  177.9690  145.9790 C   0  0  0  0  0  2  0  0  0  0  0  0
  189.8360  176.9170  147.0690 C   0  0  0  0  0  2  0  0  0  0  0  0
  188.4100  176.7180  147.4500 C   0  0  0  0  0  2  0  0  0  0  0  0
  187.5340  177.7260  147.4160 C   0  0  0  0  0  2  0  0  0  0  0  0
  186.3760  178.4650  147.5120 O   0  0  0  0  0  0  0  0  0  0  0  0
  185.9940  179.3850  146.5000 C   0  0  0  0  0  2  0  0  0  0  0  0
  185.4750  177.6300  144.9750 O   0  0  0  0  0  0  0  0  0  0  0  0
  183.8570  179.3220  145.1380 N   0  0  0  0  0  2  0  0  0  0  0  0
  185.1080  178.7130  145.5030 C   0  0  0  0  0  0  0  0  0  0  0  0
  180.8090  179.1770  142.8950 C   0  0  1  0  0  3  0  0  0  0  0  0
  183.4690  178.1720  140.6020 O   0  0  0  0  0  0  0  0  0  0  0  0
  182.8960  178.4670  141.6420 C   0  0  0  0  0  0  0  0  0  0  0  0
  183.6290  178.2450  142.9460 C   0  0  0  0  0  2  0  0  0  0  0  0
  182.9010  178.7300  144.2090 C   0  0  2  0  0  3  0  0  0  0  0  0
  181.7560  179.7080  143.9570 C   0  0  0  0  0  2  0  0  0  0  0  0
  181.5240  179.0810  141.5520 C   0  0  0  0  0  2  0  0  0  0  0  0
  180.2820  177.9340  143.2660 O   0  0  0  0  0  1  0  0  0  0  0  0
  185.9470  177.6090  136.1970 N   0  0  0  0  0  2  0  0  0  0  0  0
  184.8190  177.7700  137.1280 C   0  0  0  0  0  2  0  0  0  0  0  0
  183.6650  178.3750  136.4640 N   0  0  0  0  0  2  0  0  0  0  0  0
  182.6910  177.3800  136.2950 N   0  0  0  0  0  2  0  0  0  0  0  0
  181.5450  177.7490  137.1100 C   0  0  1  0  0  3  0  0  0  0  0  0
  180.4160  181.1380  135.7550 C   0  0  0  0  0  3  0  0  0  0  0  0
  181.0370  181.3920  138.0820 C   0  0  0  0  0  3  0  0  0  0  0  0
  181.2330  179.2240  137.0020 C   0  0  0  0  0  0  0  0  0  0  0  0
  180.7380  179.7780  135.8160 C   0  0  0  0  0  3  0  0  0  0  0  0
  180.5750  181.9550  136.8830 C   0  0  0  0  0  0  0  0  0  0  0  0
  181.3710  180.0350  138.1360 C   0  0  0  0  0  3  0  0  0  0  0  0
  181.0980  184.2930  137.1610 O   0  0  0  0  0  1  0  0  0  0  0  0
  180.1940  183.3380  136.8340 N   0  0  0  0  0  0  0  0  0  0  0  0
  179.0670  183.7120  136.1000 N   0  0  0  0  0  1  0  0  0  0  0  0
  180.3950  176.9660  136.6830 N   0  0  0  0  0  2  0  0  0  0  0  0
  180.5240  176.4830  139.0660 C   0  0  0  0  0  1  0  0  0  0  0  0
  180.0810  175.9780  137.7080 C   0  0  2  0  0  3  0  0  0  0  0  0
  182.4750  172.3900  136.0390 C   0  0  0  0  0  0  0  0  0  0  0  0
  179.7380  173.5350  137.3140 C   0  0  0  0  0  2  0  0  0  0  0  0
  180.6200  170.9550  135.1820 C   0  0  0  0  0  1  0  0  0  0  0  0
  179.3560  171.1960  137.5680 F   0  0  0  0  0  0  0  0  0  0  0  0
  180.3590  172.1420  137.4070 C   0  0  1  0  0  3  0  0  0  0  0  0
  180.7790  174.6500  137.4070 C   0  0  1  0  0  3  0  0  0  0  0  0
  181.5750  174.7350  136.0970 C   0  0  0  0  0  2  0  0  0  0  0  0
  182.6750  173.7130  136.0190 C   0  0  0  0  0  3  0  0  0  0  0  0
  181.1490  171.8450  136.2010 N   0  0  0  0  0  0  0  0  0  0  0  0
  183.5750  170.1840  136.3370 O   0  0  0  0  0  1  0  0  0  0  0  0
  184.7140  171.9380  135.4230 O   0  0  0  0  0  0  0  0  0  0  0  0
  183.6280  171.4910  135.8770 C   0  0  0  0  0  0  0  0  0  0  0  0
  1  5  1  0  0  0  0
  1  8  1  1  0  0  0
  2  6  1  0  0  0  0
  2  3  1  0  0  0  0
  3  1  1  0  0  0  0
  4  5  1  0  0  0  0
  5  7  1  1  0  0  0
  6 32  1  6  0  0  0
  6  4  1  0  0  0  0
  8  9  1  0  0  0  0
  9 10  1  0  0  0  0
 10 11  1  0  0  0  0
 11 12  1  0  0  0  0
 12 13  1  0  0  0  0
 13 14  1  0  0  0  0
 14 15  1  0  0  0  0
 15 16  1  0  0  0  0
 16 17  1  0  0  0  0
 18 17  1  0  0  0  0
 18 19  1  0  0  0  0
 20 19  1  0  0  0  0
 21 23  2  0  0  0  0
 22 23  1  0  0  0  0
 23 20  1  0  0  0  0
 24 31  1  1  0  0  0
 24 29  1  0  0  0  0
 25 26  2  0  0  0  0
 26 27  1  0  0  0  0
 27 28  1  0  0  0  0
 28 22  1  1  0  0  0
 29 28  1  0  0  0  0
 30 26  1  0  0  0  0
 30 24  1  0  0  0  0
 32 33  1  0  0  0  0
 34 33  1  0  0  0  0
 35 34  1  0  0  0  0
 36 35  1  6  0  0  0
 37 40  2  0  0  0  0
 37 41  1  0  0  0  0
 38 42  1  0  0  0  0
 39 36  1  0  0  0  0
 39 42  2  0  0  0  0
 40 39  1  0  0  0  0
 41 38  2  0  0  0  0
 44 41  1  0  0  0  0
 44 43  1  0  0  0  0
 45 44  1  0  0  0  0
 46 36  1  0  0  0  0
 46 48  1  0  0  0  0
 48 47  1  1  0  0  0
 49 57  1  0  0  0  0
 50 54  1  0  0  0  0
 50 53  1  0  0  0  0
 51 57  1  0  0  0  0
 53 52  1  6  0  0  0
 54 48  1  6  0  0  0
 55 54  1  0  0  0  0
 56 49  2  0  0  0  0
 56 55  1  0  0  0  0
 57 53  1  0  0  0  0
 59 60  2  0  0  0  0
 60 49  1  0  0  0  0
 60 58  1  0  0  0  0
M  END
>  <MODEL>
6

>  <REMARK>
 VINA RESULT:      -5.6      2.951      8.746
  Name = 
  25 active torsions:
  status: ('A' for Active; 'I' for Inactive)
    1  A    between atoms: N_3  and  C_22
    2  A    between atoms: N_3  and  C_53
    3  A    between atoms: C_6  and  C_40
    4  A    between atoms: C_7  and  C_25
    5  A    between atoms: C_7  and  C_46
    6  A    between atoms: C_8  and  C_25
    7  A    between atoms: C_11  and  N_48
    8  A    between atoms: C_11  and  N_56
    9  A    between atoms: C_12  and  C_53
   10  A    between atoms: N_13  and  C_55
   11  A    between atoms: N_14  and  C_42
   12  A    between atoms: C_17  and  C_37
   13  A    between atoms: C_18  and  C_39
   14  A    between atoms: C_18  and  N_43
   15  A    between atoms: C_18  and  N_47
   16  A    between atoms: C_22  and  C_52
   17  A    between atoms: C_23  and  C_44
   18  A    between atoms: C_23  and  C_46
   19  A    between atoms: O_24  and  C_30
   20  A    between atoms: O_24  and  C_37
   21  A    between atoms: C_35  and  N_56
   22  A    between atoms: C_36  and  C_45
   23  A    between atoms: N_43  and  C_45
   24  A    between atoms: C_44  and  C_52
   25  A    between atoms: N_47  and  N_48
                            x       y       z     vdW  Elec       q    Type
                         _______ _______ _______ _____ _____    ______ ____

>  <TORSDO>
F 25

$$$$
=
 OpenBabel11062414163D

 60 63  0  0  1  0  0  0  0  0999 V2000
  183.2340  179.1360  139.8810 C   0  0  2  0  0  3  0  0  0  0  0  0
  184.6430  180.1390  138.0770 C   0  0  0  0  0  2  0  0  0  0  0  0
  183.2340  180.0100  138.6300 C   0  0  0  0  0  2  0  0  0  0  0  0
  185.2440  177.8920  138.9700 C   0  0  0  0  0  2  0  0  0  0  0  0
  183.8450  177.7590  139.5730 C   0  0  1  0  0  3  0  0  0  0  0  0
  185.2150  178.7700  137.7250 C   0  0  2  0  0  3  0  0  0  0  0  0
  183.9220  177.0000  140.7240 F   0  0  0  0  0  0  0  0  0  0  0  0
  181.7990  178.9680  140.3510 C   0  0  0  0  0  2  0  0  0  0  0  0
  181.7260  179.1120  141.8020 N   0  0  0  0  0  2  0  0  0  0  0  0
  180.3650  178.8060  142.2180 C   0  0  0  0  0  2  0  0  0  0  0  0
  179.7920  177.6640  141.3920 C   0  0  0  0  0  2  0  0  0  0  0  0
  179.0310  178.1950  140.1840 C   0  0  0  0  0  2  0  0  0  0  0  0
  178.9310  177.1370  139.1130 C   0  0  0  0  0  2  0  0  0  0  0  0
  180.1520  177.1800  138.2220 C   0  0  0  0  0  2  0  0  0  0  0  0
  180.6470  175.7760  137.9160 C   0  0  0  0  0  2  0  0  0  0  0  0
  179.4880  174.8870  137.4880 C   0  0  0  0  0  2  0  0  0  0  0  0
  179.5360  173.5590  138.1600 C   0  0  0  0  0  2  0  0  0  0  0  0
  180.0750  172.4950  137.5600 C   0  0  0  0  0  2  0  0  0  0  0  0
  180.5190  171.2180  137.2980 O   0  0  0  0  0  0  0  0  0  0  0  0
  181.0740  170.8660  136.0390 C   0  0  0  0  0  2  0  0  0  0  0  0
  181.8880  172.6310  134.6630 O   0  0  0  0  0  0  0  0  0  0  0  0
  183.3560  171.9230  136.3500 N   0  0  0  0  0  2  0  0  0  0  0  0
  182.1080  171.8640  135.6370 C   0  0  0  0  0  0  0  0  0  0  0  0
  185.9220  174.6040  137.1070 C   0  0  1  0  0  3  0  0  0  0  0  0
  187.9640  172.0640  135.4560 O   0  0  0  0  0  0  0  0  0  0  0  0
  186.9780  172.6560  135.8750 C   0  0  0  0  0  0  0  0  0  0  0  0
  185.6160  172.1720  135.4290 C   0  0  0  0  0  2  0  0  0  0  0  0
  184.4140  172.8870  136.0670 C   0  0  2  0  0  3  0  0  0  0  0  0
  184.7360  173.6820  137.3300 C   0  0  0  0  0  2  0  0  0  0  0  0
  187.1820  173.7870  136.8470 C   0  0  0  0  0  2  0  0  0  0  0  0
  185.6790  175.4910  136.0510 O   0  0  0  0  0  1  0  0  0  0  0  0
  186.5730  178.9610  137.2200 N   0  0  0  0  0  2  0  0  0  0  0  0
  187.4300  177.8450  137.6510 C   0  0  0  0  0  2  0  0  0  0  0  0
  188.4180  178.2850  138.6370 N   0  0  0  0  0  2  0  0  0  0  0  0
  188.6670  177.2160  139.5080 N   0  0  0  0  0  2  0  0  0  0  0  0
  189.0860  177.7800  140.7810 C   0  0  1  0  0  3  0  0  0  0  0  0
  186.5880  177.3380  143.6370 C   0  0  0  0  0  3  0  0  0  0  0  0
  186.0690  179.3860  142.4520 C   0  0  0  0  0  3  0  0  0  0  0  0
  187.9150  177.9890  141.7130 C   0  0  0  0  0  0  0  0  0  0  0  0
  187.6520  177.1000  142.7620 C   0  0  0  0  0  3  0  0  0  0  0  0
  185.7830  178.4750  143.4800 C   0  0  0  0  0  0  0  0  0  0  0  0
  187.1250  179.1370  141.5690 C   0  0  0  0  0  3  0  0  0  0  0  0
  184.6700  178.0650  145.5810 O   0  0  0  0  0  1  0  0  0  0  0  0
  184.7240  178.7470  144.4120 N   0  0  0  0  0  0  0  0  0  0  0  0
  184.0060  179.9390  144.3020 N   0  0  0  0  0  1  0  0  0  0  0  0
  190.0550  176.8830  141.3940 N   0  0  0  0  0  2  0  0  0  0  0  0
  192.3480  177.3510  142.0670 C   0  0  0  0  0  1  0  0  0  0  0  0
  190.8830  177.6380  142.3260 C   0  0  2  0  0  3  0  0  0  0  0  0
  189.7870  177.4250  146.8150 C   0  0  0  0  0  0  0  0  0  0  0  0
  191.6990  176.4850  144.3880 C   0  0  0  0  0  2  0  0  0  0  0  0
  192.0150  176.8940  147.8100 C   0  0  0  0  0  1  0  0  0  0  0  0
  192.3060  174.8700  146.0310 F   0  0  0  0  0  0  0  0  0  0  0  0
  191.2970  175.7490  145.6650 C   0  0  1  0  0  3  0  0  0  0  0  0
  190.5400  177.2680  143.7710 C   0  0  1  0  0  3  0  0  0  0  0  0
  190.2530  178.5250  144.6050 C   0  0  0  0  0  2  0  0  0  0  0  0
  189.4140  178.2370  145.8190 C   0  0  0  0  0  3  0  0  0  0  0  0
  191.0360  176.7040  146.7530 N   0  0  0  0  0  0  0  0  0  0  0  0
  188.6610  178.3690  148.8160 O   0  0  0  0  0  1  0  0  0  0  0  0
  188.4740  176.1510  148.3160 O   0  0  0  0  0  0  0  0  0  0  0  0
  188.9110  177.2850  147.9880 C   0  0  0  0  0  0  0  0  0  0  0  0
  1  8  1  6  0  0  0
  2  3  1  0  0  0  0
  3  1  1  0  0  0  0
  4  5  1  0  0  0  0
  5  1  1  0  0  0  0
  5  7  1  1  0  0  0
  6 32  1  1  0  0  0
  6  2  1  0  0  0  0
  6  4  1  0  0  0  0
  8  9  1  0  0  0  0
  9 10  1  0  0  0  0
 11 10  1  0  0  0  0
 12 11  1  0  0  0  0
 13 12  1  0  0  0  0
 14 13  1  0  0  0  0
 15 14  1  0  0  0  0
 16 15  1  0  0  0  0
 16 17  1  0  0  0  0
 18 17  1  0  0  0  0
 19 18  1  0  0  0  0
 20 19  1  0  0  0  0
 21 23  2  0  0  0  0
 23 20  1  0  0  0  0
 23 22  1  0  0  0  0
 24 31  1  6  0  0  0
 24 29  1  0  0  0  0
 25 26  2  0  0  0  0
 26 30  1  0  0  0  0
 27 26  1  0  0  0  0
 27 28  1  0  0  0  0
 28 22  1  1  0  0  0
 28 29  1  0  0  0  0
 30 24  1  0  0  0  0
 32 33  1  0  0  0  0
 33 34  1  0  0  0  0
 34 35  1  0  0  0  0
 36 35  1  6  0  0  0
 36 46  1  0  0  0  0
 36 39  1  0  0  0  0
 38 41  2  0  0  0  0
 39 40  1  0  0  0  0
 40 37  2  0  0  0  0
 41 37  1  0  0  0  0
 41 44  1  0  0  0  0
 42 39  2  0  0  0  0
 42 38  1  0  0  0  0
 44 43  1  0  0  0  0
 45 44  1  0  0  0  0
 46 48  1  0  0  0  0
 48 47  1  6  0  0  0
 49 60  1  0  0  0  0
 50 53  1  0  0  0  0
 53 52  1  1  0  0  0
 53 57  1  0  0  0  0
 54 48  1  6  0  0  0
 54 50  1  0  0  0  0
 54 55  1  0  0  0  0
 55 56  1  0  0  0  0
 56 49  2  0  0  0  0
 57 49  1  0  0  0  0
 57 51  1  0  0  0  0
 60 59  2  0  0  0  0
 60 58  1  0  0  0  0
M  END
>  <MODEL>
7

>  <REMARK>
 VINA RESULT:      -5.6      3.590      9.740
  Name = 
  25 active torsions:
  status: ('A' for Active; 'I' for Inactive)
    1  A    between atoms: N_3  and  C_22
    2  A    between atoms: N_3  and  C_53
    3  A    between atoms: C_6  and  C_40
    4  A    between atoms: C_7  and  C_25
    5  A    between atoms: C_7  and  C_46
    6  A    between atoms: C_8  and  C_25
    7  A    between atoms: C_11  and  N_48
    8  A    between atoms: C_11  and  N_56
    9  A    between atoms: C_12  and  C_53
   10  A    between atoms: N_13  and  C_55
   11  A    between atoms: N_14  and  C_42
   12  A    between atoms: C_17  and  C_37
   13  A    between atoms: C_18  and  C_39
   14  A    between atoms: C_18  and  N_43
   15  A    between atoms: C_18  and  N_47
   16  A    between atoms: C_22  and  C_52
   17  A    between atoms: C_23  and  C_44
   18  A    between atoms: C_23  and  C_46
   19  A    between atoms: O_24  and  C_30
   20  A    between atoms: O_24  and  C_37
   21  A    between atoms: C_35  and  N_56
   22  A    between atoms: C_36  and  C_45
   23  A    between atoms: N_43  and  C_45
   24  A    between atoms: C_44  and  C_52
   25  A    between atoms: N_47  and  N_48
                            x       y       z     vdW  Elec       q    Type
                         _______ _______ _______ _____ _____    ______ ____

>  <TORSDO>
F 25

$$$$
=
 OpenBabel11062414163D

 60 63  0  0  1  0  0  0  0  0999 V2000
  189.1630  177.1880  146.4970 C   0  0  2  0  0  3  0  0  0  0  0  0
  191.1320  176.0340  145.4810 C   0  0  0  0  0  2  0  0  0  0  0  0
  190.5760  176.6710  146.7430 C   0  0  0  0  0  2  0  0  0  0  0  0
  189.7550  177.5480  144.0600 C   0  0  0  0  0  2  0  0  0  0  0  0
  189.1500  178.1740  145.3170 C   0  0  1  0  0  3  0  0  0  0  0  0
  191.1650  177.0390  144.3340 C   0  0  2  0  0  3  0  0  0  0  0  0
  187.8570  178.5760  145.0410 F   0  0  0  0  0  0  0  0  0  0  0  0
  188.6790  177.8870  147.7560 C   0  0  0  0  0  2  0  0  0  0  0  0
  187.2820  177.5500  148.0120 N   0  0  0  0  0  2  0  0  0  0  0  0
  186.4490  178.5010  147.2900 C   0  0  0  0  0  2  0  0  0  0  0  0
  185.9190  177.8860  146.0040 C   0  0  0  0  0  2  0  0  0  0  0  0
  184.4380  178.1970  145.8220 C   0  0  0  0  0  2  0  0  0  0  0  0
  184.2470  179.2890  144.7980 C   0  0  0  0  0  2  0  0  0  0  0  0
  184.1200  178.6900  143.4150 C   0  0  0  0  0  2  0  0  0  0  0  0
  182.9640  179.3210  142.6580 C   0  0  0  0  0  2  0  0  0  0  0  0
  183.0640  179.0000  141.1730 C   0  0  0  0  0  2  0  0  0  0  0  0
  183.1160  177.5320  140.9310 C   0  0  0  0  0  2  0  0  0  0  0  0
  182.0280  176.8470  140.5670 C   0  0  0  0  0  2  0  0  0  0  0  0
  181.1780  175.8280  140.1990 O   0  0  0  0  0  0  0  0  0  0  0  0
  180.5790  175.7860  138.9130 C   0  0  0  0  0  2  0  0  0  0  0  0
  181.9840  176.6870  137.2140 O   0  0  0  0  0  0  0  0  0  0  0  0
  180.5720  178.2370  138.2670 N   0  0  0  0  0  2  0  0  0  0  0  0
  181.0890  176.9090  138.0720 C   0  0  0  0  0  0  0  0  0  0  0  0
  180.0950  181.3390  136.1480 C   0  0  1  0  0  3  0  0  0  0  0  0
  182.2580  182.5850  138.8150 O   0  0  0  0  0  0  0  0  0  0  0  0
  181.6300  181.8060  138.1110 C   0  0  0  0  0  0  0  0  0  0  0  0
  181.8600  180.3240  138.3110 C   0  0  0  0  0  2  0  0  0  0  0  0
  180.9690  179.3940  137.4720 C   0  0  2  0  0  3  0  0  0  0  0  0
  179.7300  180.0560  136.8740 C   0  0  0  0  0  2  0  0  0  0  0  0
  180.6320  182.3690  137.1350 C   0  0  0  0  0  2  0  0  0  0  0  0
  181.0260  181.0960  135.1300 O   0  0  0  0  0  1  0  0  0  0  0  0
  191.6880  176.3620  143.1490 N   0  0  0  0  0  2  0  0  0  0  0  0
  191.7990  177.3150  142.0340 C   0  0  0  0  0  2  0  0  0  0  0  0
  191.6520  176.6410  140.7440 N   0  0  0  0  0  2  0  0  0  0  0  0
  192.5430  177.2360  139.8400 N   0  0  0  0  0  2  0  0  0  0  0  0
  191.9350  177.1680  138.5210 C   0  0  1  0  0  3  0  0  0  0  0  0
  194.4130  174.5640  137.2270 C   0  0  0  0  0  3  0  0  0  0  0  0
  192.7720  175.0100  135.5020 C   0  0  0  0  0  3  0  0  0  0  0  0
  192.6620  176.1970  137.6200 C   0  0  0  0  0  0  0  0  0  0  0  0
  193.7840  175.4890  138.0660 C   0  0  0  0  0  3  0  0  0  0  0  0
  193.9190  174.3270  135.9370 C   0  0  0  0  0  0  0  0  0  0  0  0
  192.1540  175.9450  136.3390 C   0  0  0  0  0  3  0  0  0  0  0  0
  195.8650  173.4000  134.8550 O   0  0  0  0  0  1  0  0  0  0  0  0
  194.5340  173.3390  135.0960 N   0  0  0  0  0  0  0  0  0  0  0  0
  193.8670  172.1360  134.8560 N   0  0  0  0  0  1  0  0  0  0  0  0
  190.5440  176.7630  138.6680 N   0  0  0  0  0  2  0  0  0  0  0  0
  189.0200  178.6060  139.1280 C   0  0  0  0  0  1  0  0  0  0  0  0
  189.6860  177.7700  138.0550 C   0  0  2  0  0  3  0  0  0  0  0  0
  185.8600  176.1180  136.0470 C   0  0  0  0  0  0  0  0  0  0  0  0
  188.8540  175.5980  137.1410 C   0  0  0  0  0  2  0  0  0  0  0  0
  185.9740  173.7210  136.7390 C   0  0  0  0  0  1  0  0  0  0  0  0
  188.5390  173.6100  135.8660 F   0  0  0  0  0  0  0  0  0  0  0  0
  188.0880  174.9150  136.0090 C   0  0  1  0  0  3  0  0  0  0  0  0
  188.6130  177.1060  137.1880 C   0  0  1  0  0  3  0  0  0  0  0  0
  187.2090  177.3970  137.7370 C   0  0  0  0  0  2  0  0  0  0  0  0
  186.1370  177.2570  136.6930 C   0  0  0  0  0  3  0  0  0  0  0  0
  186.6420  174.9270  136.2810 N   0  0  0  0  0  0  0  0  0  0  0  0
  184.2110  174.8810  134.6630 O   0  0  0  0  0  1  0  0  0  0  0  0
  184.3120  177.1590  134.5940 O   0  0  0  0  0  0  0  0  0  0  0  0
  184.7340  176.0880  135.1020 C   0  0  0  0  0  0  0  0  0  0  0  0
  1  3  1  0  0  0  0
  1  8  1  1  0  0  0
  2  3  1  0  0  0  0
  4  6  1  0  0  0  0
  4  5  1  0  0  0  0
  5  7  1  6  0  0  0
  5  1  1  0  0  0  0
  6 32  1  6  0  0  0
  6  2  1  0  0  0  0
  8  9  1  0  0  0  0
 10  9  1  0  0  0  0
 11 10  1  0  0  0  0
 12 11  1  0  0  0  0
 13 12  1  0  0  0  0
 14 13  1  0  0  0  0
 15 14  1  0  0  0  0
 16 15  1  0  0  0  0
 17 16  1  0  0  0  0
 18 17  1  0  0  0  0
 19 18  1  0  0  0  0
 20 19  1  0  0  0  0
 21 23  2  0  0  0  0
 23 22  1  0  0  0  0
 23 20  1  0  0  0  0
 24 31  1  6  0  0  0
 24 29  1  0  0  0  0
 24 30  1  0  0  0  0
 26 27  1  0  0  0  0
 26 25  2  0  0  0  0
 28 22  1  1  0  0  0
 28 27  1  0  0  0  0
 29 28  1  0  0  0  0
 30 26  1  0  0  0  0
 33 32  1  0  0  0  0
 34 33  1  0  0  0  0
 35 34  1  0  0  0  0
 36 46  1  1  0  0  0
 36 35  1  0  0  0  0
 37 40  1  0  0  0  0
 38 41  1  0  0  0  0
 38 42  2  0  0  0  0
 39 40  2  0  0  0  0
 39 36  1  0  0  0  0
 41 37  2  0  0  0  0
 42 39  1  0  0  0  0
 43 44  1  0  0  0  0
 44 41  1  0  0  0  0
 45 44  1  0  0  0  0
 48 46  1  0  0  0  0
 48 47  1  1  0  0  0
 49 57  1  0  0  0  0
 49 56  2  0  0  0  0
 50 54  1  0  0  0  0
 53 52  1  1  0  0  0
 53 57  1  0  0  0  0
 53 50  1  0  0  0  0
 54 55  1  0  0  0  0
 54 48  1  1  0  0  0
 56 55  1  0  0  0  0
 57 51  1  0  0  0  0
 58 60  1  0  0  0  0
 59 60  2  0  0  0  0
 60 49  1  0  0  0  0
M  END
>  <MODEL>
8

>  <REMARK>
 VINA RESULT:      -5.4      2.135      2.998
  Name = 
  25 active torsions:
  status: ('A' for Active; 'I' for Inactive)
    1  A    between atoms: N_3  and  C_22
    2  A    between atoms: N_3  and  C_53
    3  A    between atoms: C_6  and  C_40
    4  A    between atoms: C_7  and  C_25
    5  A    between atoms: C_7  and  C_46
    6  A    between atoms: C_8  and  C_25
    7  A    between atoms: C_11  and  N_48
    8  A    between atoms: C_11  and  N_56
    9  A    between atoms: C_12  and  C_53
   10  A    between atoms: N_13  and  C_55
   11  A    between atoms: N_14  and  C_42
   12  A    between atoms: C_17  and  C_37
   13  A    between atoms: C_18  and  C_39
   14  A    between atoms: C_18  and  N_43
   15  A    between atoms: C_18  and  N_47
   16  A    between atoms: C_22  and  C_52
   17  A    between atoms: C_23  and  C_44
   18  A    between atoms: C_23  and  C_46
   19  A    between atoms: O_24  and  C_30
   20  A    between atoms: O_24  and  C_37
   21  A    between atoms: C_35  and  N_56
   22  A    between atoms: C_36  and  C_45
   23  A    between atoms: N_43  and  C_45
   24  A    between atoms: C_44  and  C_52
   25  A    between atoms: N_47  and  N_48
                            x       y       z     vdW  Elec       q    Type
                         _______ _______ _______ _____ _____    ______ ____

>  <TORSDO>
F 25

$$$$
=
 OpenBabel11062414163D

 60 63  0  0  1  0  0  0  0  0999 V2000
  189.4090  176.5290  136.4820 C   0  0  2  0  0  3  0  0  0  0  0  0
  187.8530  176.5170  138.4370 C   0  0  0  0  0  2  0  0  0  0  0  0
  188.4680  175.6790  137.3290 C   0  0  0  0  0  2  0  0  0  0  0  0
  188.0060  178.5660  137.0270 C   0  0  0  0  0  2  0  0  0  0  0  0
  188.6670  177.7500  135.9160 C   0  0  1  0  0  3  0  0  0  0  0  0
  187.0730  177.6940  137.8580 C   0  0  2  0  0  3  0  0  0  0  0  0
  189.5400  178.5640  135.2200 F   0  0  0  0  0  0  0  0  0  0  0  0
  189.9370  175.6740  135.3420 C   0  0  0  0  0  2  0  0  0  0  0  0
  191.2520  176.1480  134.9270 N   0  0  0  0  0  2  0  0  0  0  0  0
  192.1500  175.0020  134.8760 C   0  0  0  0  0  2  0  0  0  0  0  0
  192.3710  174.4290  136.2680 C   0  0  0  0  0  2  0  0  0  0  0  0
  193.2390  173.1780  136.2090 C   0  0  0  0  0  2  0  0  0  0  0  0
  194.6510  173.4910  136.6400 C   0  0  0  0  0  2  0  0  0  0  0  0
  194.7410  174.9170  137.1350 C   0  0  0  0  0  2  0  0  0  0  0  0
  194.2540  175.0200  138.5710 C   0  0  0  0  0  2  0  0  0  0  0  0
  193.4250  176.2840  138.7600 C   0  0  0  0  0  2  0  0  0  0  0  0
  191.9700  175.9790  138.8480 C   0  0  0  0  0  2  0  0  0  0  0  0
  191.2530  176.3130  139.9250 C   0  0  0  0  0  2  0  0  0  0  0  0
  190.2130  176.4800  140.8110 O   0  0  0  0  0  0  0  0  0  0  0  0
  190.0660  177.6700  141.5710 C   0  0  0  0  0  2  0  0  0  0  0  0
  190.6610  176.8940  143.7430 O   0  0  0  0  0  0  0  0  0  0  0  0
  188.4090  177.5010  143.4810 N   0  0  0  0  0  2  0  0  0  0  0  0
  189.7520  177.3370  142.9920 C   0  0  0  0  0  0  0  0  0  0  0  0
  188.5560  177.7460  147.2580 C   0  0  1  0  0  3  0  0  0  0  0  0
  185.1240  178.7970  146.5760 O   0  0  0  0  0  0  0  0  0  0  0  0
  186.2500  178.3540  146.3950 C   0  0  0  0  0  0  0  0  0  0  0  0
  186.5490  177.6910  145.0680 C   0  0  0  0  0  2  0  0  0  0  0  0
  188.0050  177.2470  144.8600 C   0  0  2  0  0  3  0  0  0  0  0  0
  189.0140  177.8790  145.8160 C   0  0  0  0  0  2  0  0  0  0  0  0
  187.2770  178.5450  147.4790 C   0  0  0  0  0  2  0  0  0  0  0  0
  188.3680  176.4030  147.6050 O   0  0  0  0  0  1  0  0  0  0  0  0
  186.5260  178.4690  138.9700 N   0  0  0  0  0  2  0  0  0  0  0  0
  185.0660  178.5840  138.8310 C   0  0  0  0  0  2  0  0  0  0  0  0
  184.6200  178.1150  137.5190 N   0  0  0  0  0  2  0  0  0  0  0  0
  184.4020  176.7320  137.6030 N   0  0  0  0  0  2  0  0  0  0  0  0
  183.6100  176.3450  136.4480 C   0  0  1  0  0  3  0  0  0  0  0  0
  183.5820  172.5790  137.0930 C   0  0  0  0  0  3  0  0  0  0  0  0
  183.5280  172.9660  134.7030 C   0  0  0  0  0  3  0  0  0  0  0  0
  183.6240  174.8490  136.2350 C   0  0  0  0  0  0  0  0  0  0  0  0
  183.6110  173.9600  137.3170 C   0  0  0  0  0  3  0  0  0  0  0  0
  183.5530  172.0740  135.7860 C   0  0  0  0  0  0  0  0  0  0  0  0
  183.5730  174.3450  134.9300 C   0  0  0  0  0  3  0  0  0  0  0  0
  182.3700  170.1420  134.9580 O   0  0  0  0  0  1  0  0  0  0  0  0
  183.4680  170.6590  135.5580 N   0  0  0  0  0  0  0  0  0  0  0  0
  184.6330  169.8900  135.5920 N   0  0  0  0  0  1  0  0  0  0  0  0
  182.2430  176.8050  136.6440 N   0  0  0  0  0  2  0  0  0  0  0  0
  180.4100  175.3800  137.3780 C   0  0  0  0  0  1  0  0  0  0  0  0
  181.6660  176.1180  137.7930 C   0  0  2  0  0  3  0  0  0  0  0  0
  179.8750  178.6380  141.2340 C   0  0  0  0  0  0  0  0  0  0  0  0
  181.2540  178.5260  138.3160 C   0  0  0  0  0  2  0  0  0  0  0  0
  179.0630  180.6320  139.9710 C   0  0  0  0  0  1  0  0  0  0  0  0
  181.4930  180.8500  138.7880 F   0  0  0  0  0  0  0  0  0  0  0  0
  181.3090  179.6120  139.3890 C   0  0  1  0  0  3  0  0  0  0  0  0
  181.3260  177.1170  138.9010 C   0  0  1  0  0  3  0  0  0  0  0  0
  179.9910  176.7580  139.5710 C   0  0  0  0  0  2  0  0  0  0  0  0
  179.8650  177.3280  140.9560 C   0  0  0  0  0  3  0  0  0  0  0  0
  180.0750  179.6130  140.1890 N   0  0  0  0  0  0  0  0  0  0  0  0
  180.0330  180.3480  143.0260 O   0  0  0  0  0  0  0  0  0  0  0  0
  179.2530  178.2530  143.4840 O   0  0  0  0  0  1  0  0  0  0  0  0
  179.6640  179.0740  142.6220 C   0  0  0  0  0  0  0  0  0  0  0  0
  1  8  1  6  0  0  0
  1  3  1  0  0  0  0
  3  2  1  0  0  0  0
  4  6  1  0  0  0  0
  5  7  1  1  0  0  0
  5  1  1  0  0  0  0
  5  4  1  0  0  0  0
  6  2  1  0  0  0  0
  6 32  1  1  0  0  0
  9  8  1  0  0  0  0
 10  9  1  0  0  0  0
 10 11  1  0  0  0  0
 12 11  1  0  0  0  0
 12 13  1  0  0  0  0
 13 14  1  0  0  0  0
 14 15  1  0  0  0  0
 15 16  1  0  0  0  0
 16 17  1  0  0  0  0
 17 18  1  0  0  0  0
 18 19  1  0  0  0  0
 19 20  1  0  0  0  0
 20 23  1  0  0  0  0
 23 22  1  0  0  0  0
 23 21  2  0  0  0  0
 24 30  1  0  0  0  0
 24 31  1  6  0  0  0
 26 25  2  0  0  0  0
 26 30  1  0  0  0  0
 27 26  1  0  0  0  0
 28 22  1  6  0  0  0
 28 27  1  0  0  0  0
 28 29  1  0  0  0  0
 29 24  1  0  0  0  0
 33 32  1  0  0  0  0
 34 35  1  0  0  0  0
 34 33  1  0  0  0  0
 36 46  1  1  0  0  0
 36 35  1  0  0  0  0
 37 40  1  0  0  0  0
 38 42  2  0  0  0  0
 38 41  1  0  0  0  0
 39 36  1  0  0  0  0
 39 40  2  0  0  0  0
 41 37  2  0  0  0  0
 42 39  1  0  0  0  0
 43 44  1  0  0  0  0
 44 45  1  0  0  0  0
 44 41  1  0  0  0  0
 46 48  1  0  0  0  0
 48 47  1  6  0  0  0
 49 60  1  0  0  0  0
 50 54  1  0  0  0  0
 50 53  1  0  0  0  0
 51 57  1  0  0  0  0
 53 52  1  6  0  0  0
 53 57  1  0  0  0  0
 54 48  1  6  0  0  0
 54 55  1  0  0  0  0
 55 56  1  0  0  0  0
 56 49  2  0  0  0  0
 57 49  1  0  0  0  0
 60 58  2  0  0  0  0
 60 59  1  0  0  0  0
M  END
>  <MODEL>
9

>  <REMARK>
 VINA RESULT:      -5.1      3.438     10.046
  Name = 
  25 active torsions:
  status: ('A' for Active; 'I' for Inactive)
    1  A    between atoms: N_3  and  C_22
    2  A    between atoms: N_3  and  C_53
    3  A    between atoms: C_6  and  C_40
    4  A    between atoms: C_7  and  C_25
    5  A    between atoms: C_7  and  C_46
    6  A    between atoms: C_8  and  C_25
    7  A    between atoms: C_11  and  N_48
    8  A    between atoms: C_11  and  N_56
    9  A    between atoms: C_12  and  C_53
   10  A    between atoms: N_13  and  C_55
   11  A    between atoms: N_14  and  C_42
   12  A    between atoms: C_17  and  C_37
   13  A    between atoms: C_18  and  C_39
   14  A    between atoms: C_18  and  N_43
   15  A    between atoms: C_18  and  N_47
   16  A    between atoms: C_22  and  C_52
   17  A    between atoms: C_23  and  C_44
   18  A    between atoms: C_23  and  C_46
   19  A    between atoms: O_24  and  C_30
   20  A    between atoms: O_24  and  C_37
   21  A    between atoms: C_35  and  N_56
   22  A    between atoms: C_36  and  C_45
   23  A    between atoms: N_43  and  C_45
   24  A    between atoms: C_44  and  C_52
   25  A    between atoms: N_47  and  N_48
                            x       y       z     vdW  Elec       q    Type
                         _______ _______ _______ _____ _____    ______ ____

>  <TORSDO>
F 25

$$$$
