=
 OpenBabel11062415373D

 35 37  0  0  1  0  0  0  0  0999 V2000
  188.7870  177.9640  142.1880 C   0  0  1  0  0  0  0  0  0  0  0  0
  189.6890  179.1440  142.5440 C   0  0  0  0  0  1  0  0  0  0  0  0
  189.3200  178.1850  137.3210 C   0  0  0  0  0  1  0  0  0  0  0  0
  190.1280  176.1800  138.6160 C   0  0  0  0  0  2  0  0  0  0  0  0
  188.4420  177.8000  139.6350 C   0  0  0  0  0  2  0  0  0  0  0  0
  190.6420  177.6450  140.6080 O   0  0  0  0  0  0  0  0  0  0  0  0
  191.1590  176.7660  139.6090 C   0  0  0  0  0  2  0  0  0  0  0  0
  189.2790  177.3740  140.8450 C   0  0  1  0  0  3  0  0  0  0  0  0
  188.9580  177.1350  138.3590 C   0  0  1  0  0  3  0  0  0  0  0  0
  188.8850  176.9390  143.3490 C   0  0  1  0  0  3  0  0  0  0  0  0
  189.3250  175.6860  142.8940 O   0  0  0  0  0  1  0  0  0  0  0  0
  189.6560  177.4090  144.6040 C   0  0  1  0  0  3  0  0  0  0  0  0
  187.6820  178.0160  146.0130 C   0  0  1  0  0  3  0  0  0  0  0  0
  188.8450  177.0540  145.8500 C   0  0  2  0  0  3  0  0  0  0  0  0
  186.6410  177.3790  146.6960 O   0  0  0  0  0  1  0  0  0  0  0  0
  188.9370  178.1740  146.8690 C   0  0  2  0  0  3  0  0  0  0  0  0
  188.8070  177.5920  148.2670 C   0  0  0  0  0  1  0  0  0  0  0  0
  191.0980  176.8630  144.7220 C   0  0  0  0  0  0  0  0  0  0  0  0
  191.9110  177.8070  145.3540 O   0  0  0  0  0  1  0  0  0  0  0  0
  191.6210  176.6030  143.4720 F   0  0  0  0  0  0  0  0  0  0  0  0
  191.1110  175.6920  145.4640 F   0  0  0  0  0  0  0  0  0  0  0  0
  187.3420  178.4880  142.0620 C   0  0  0  0  0  2  0  0  0  0  0  0
  186.2890  177.6800  142.8280 C   0  0  0  0  0  2  0  0  0  0  0  0
  185.2570  178.5850  143.4830 C   0  0  0  0  0  2  0  0  0  0  0  0
  182.7900  177.9790  140.7210 N   0  0  0  0  0  0  0  0  0  0  0  0
  183.9850  178.5400  142.7110 C   0  0  0  0  0  0  0  0  0  0  0  0
  180.4290  178.3570  140.4680 N   0  0  0  0  0  1  0  0  0  0  0  0
  181.6250  178.4600  141.2400 C   0  0  0  0  0  0  0  0  0  0  0  0
  181.6070  179.0070  142.5410 C   0  0  0  0  0  0  0  0  0  0  0  0
  182.8030  179.0330  143.2670 C   0  0  0  0  0  3  0  0  0  0  0  0
  183.9580  178.0120  141.4200 C   0  0  0  0  0  3  0  0  0  0  0  0
  180.0540  180.7590  142.9040 O   0  0  0  0  0  0  0  0  0  0  0  0
  180.3770  179.5670  143.1420 C   0  0  0  0  0  0  0  0  0  0  0  0
  179.7620  177.4750  144.2260 O   0  0  0  0  0  1  0  0  0  0  0  0
  179.5480  178.7930  144.0110 N   0  0  0  0  0  2  0  0  0  0  0  0
  1  2  1  1  0  0  0
  1 10  1  0  0  0  0
  4  7  1  0  0  0  0
  5  8  1  0  0  0  0
  6  8  1  0  0  0  0
  7  6  1  0  0  0  0
  8  1  1  1  0  0  0
  9  3  1  6  0  0  0
  9  4  1  0  0  0  0
  9  5  1  0  0  0  0
 10 11  1  6  0  0  0
 10 12  1  0  0  0  0
 12 18  1  1  0  0  0
 13 15  1  1  0  0  0
 13 16  1  0  0  0  0
 14 12  1  6  0  0  0
 14 13  1  0  0  0  0
 14 16  1  0  0  0  0
 16 17  1  1  0  0  0
 18 19  1  0  0  0  0
 18 21  1  0  0  0  0
 20 18  1  0  0  0  0
 22  1  1  0  0  0  0
 22 23  1  0  0  0  0
 23 24  1  0  0  0  0
 25 28  2  0  0  0  0
 25 31  1  0  0  0  0
 26 30  1  0  0  0  0
 26 24  1  0  0  0  0
 27 28  1  0  0  0  0
 28 29  1  0  0  0  0
 29 33  1  0  0  0  0
 29 30  2  0  0  0  0
 31 26  2  0  0  0  0
 32 33  2  0  0  0  0
 33 35  1  0  0  0  0
 35 34  1  0  0  0  0
M  END
>  <MODEL>
1

>  <REMARK>
 VINA RESULT:      -8.1      0.000      0.000
  Name = 
  10 active torsions:
  status: ('A' for Active; 'I' for Inactive)
    1  A    between atoms: C_2  and  C_27
    2  A    between atoms: C_3  and  C_8
    3  A    between atoms: C_3  and  C_27
    4  A    between atoms: C_4  and  C_20
    5  A    between atoms: C_4  and  C_32
    6  A    between atoms: C_8  and  C_20
    7  A    between atoms: C_8  and  C_23
    8  A    between atoms: C_10  and  C_27
    9  A    between atoms: C_15  and  C_32
   10  A    between atoms: C_18  and  C_24
                            x       y       z     vdW  Elec       q    Type
                         _______ _______ _______ _____ _____    ______ ____

>  <TORSDO>
F 10

$$$$
=
 OpenBabel11062415373D

 35 37  0  0  1  0  0  0  0  0999 V2000
  188.4320  177.7370  144.0330 C   0  0  1  0  0  0  0  0  0  0  0  0
  188.1240  176.2900  143.6560 C   0  0  0  0  0  1  0  0  0  0  0  0
  187.7060  177.2070  148.8510 C   0  0  0  0  0  1  0  0  0  0  0  0
  189.9580  177.8950  147.9550 C   0  0  0  0  0  2  0  0  0  0  0  0
  187.8610  178.1160  146.5220 C   0  0  0  0  0  2  0  0  0  0  0  0
  189.5630  176.5430  145.8590 O   0  0  0  0  0  0  0  0  0  0  0  0
  190.3650  176.7260  147.0260 C   0  0  0  0  0  2  0  0  0  0  0  0
  188.9390  177.7540  145.4950 C   0  0  1  0  0  3  0  0  0  0  0  0
  188.4500  178.1610  147.9320 C   0  0  1  0  0  3  0  0  0  0  0  0
  189.5030  178.2580  143.0370 C   0  0  1  0  0  3  0  0  0  0  0  0
  190.2970  179.2610  143.6130 O   0  0  0  0  0  1  0  0  0  0  0  0
  190.3500  177.1770  142.3270 C   0  0  1  0  0  3  0  0  0  0  0  0
  189.2960  177.6500  140.1090 C   0  0  1  0  0  3  0  0  0  0  0  0
  190.6020  177.6090  140.8830 C   0  0  2  0  0  3  0  0  0  0  0  0
  189.3930  178.5880  139.0770 O   0  0  0  0  0  1  0  0  0  0  0  0
  190.2600  176.4780  139.9330 C   0  0  2  0  0  3  0  0  0  0  0  0
  191.1360  176.5810  138.6940 C   0  0  0  0  0  1  0  0  0  0  0  0
  191.6820  176.8320  143.0310 C   0  0  0  0  0  0  0  0  0  0  0  0
  191.6280  175.5290  143.5330 O   0  0  0  0  0  1  0  0  0  0  0  0
  191.9140  177.6950  144.0810 F   0  0  0  0  0  0  0  0  0  0  0  0
  192.7380  176.9230  142.1360 F   0  0  0  0  0  0  0  0  0  0  0  0
  187.1330  178.5560  143.8920 C   0  0  0  0  0  2  0  0  0  0  0  0
  185.8380  177.7460  144.0080 C   0  0  0  0  0  2  0  0  0  0  0  0
  184.6690  178.6190  144.4390 C   0  0  0  0  0  2  0  0  0  0  0  0
  181.4240  179.0950  142.6150 N   0  0  0  0  0  0  0  0  0  0  0  0
  183.6590  178.6810  143.3470 C   0  0  0  0  0  0  0  0  0  0  0  0
  180.7480  178.8980  140.3160 N   0  0  0  0  0  1  0  0  0  0  0  0
  181.7480  178.7860  141.3280 C   0  0  0  0  0  0  0  0  0  0  0  0
  183.0690  178.4080  141.0060 C   0  0  0  0  0  0  0  0  0  0  0  0
  184.0170  178.3660  142.0340 C   0  0  0  0  0  3  0  0  0  0  0  0
  182.3410  179.0460  143.6200 C   0  0  0  0  0  3  0  0  0  0  0  0
  183.2410  176.8730  139.2080 O   0  0  0  0  0  0  0  0  0  0  0  0
  183.4690  178.0360  139.6310 C   0  0  0  0  0  0  0  0  0  0  0  0
  184.3110  180.2580  139.1030 O   0  0  0  0  0  1  0  0  0  0  0  0
  184.1320  178.9610  138.7670 N   0  0  0  0  0  2  0  0  0  0  0  0
  1  2  1  6  0  0  0
  5  9  1  0  0  0  0
  6  7  1  0  0  0  0
  7  4  1  0  0  0  0
  8  1  1  6  0  0  0
  8  6  1  0  0  0  0
  8  5  1  0  0  0  0
  9  4  1  0  0  0  0
  9  3  1  1  0  0  0
 10 11  1  1  0  0  0
 10  1  1  0  0  0  0
 12 18  1  1  0  0  0
 12 10  1  0  0  0  0
 13 15  1  6  0  0  0
 13 14  1  0  0  0  0
 14 12  1  1  0  0  0
 16 17  1  6  0  0  0
 16 13  1  0  0  0  0
 16 14  1  0  0  0  0
 18 19  1  0  0  0  0
 18 20  1  0  0  0  0
 21 18  1  0  0  0  0
 22 23  1  0  0  0  0
 22  1  1  0  0  0  0
 23 24  1  0  0  0  0
 25 31  1  0  0  0  0
 26 31  2  0  0  0  0
 26 24  1  0  0  0  0
 27 28  1  0  0  0  0
 28 25  2  0  0  0  0
 29 28  1  0  0  0  0
 29 30  2  0  0  0  0
 30 26  1  0  0  0  0
 32 33  2  0  0  0  0
 33 29  1  0  0  0  0
 35 34  1  0  0  0  0
 35 33  1  0  0  0  0
M  END
>  <MODEL>
2

>  <REMARK>
 VINA RESULT:      -8.1      2.118      5.404
  Name = 
  10 active torsions:
  status: ('A' for Active; 'I' for Inactive)
    1  A    between atoms: C_2  and  C_27
    2  A    between atoms: C_3  and  C_8
    3  A    between atoms: C_3  and  C_27
    4  A    between atoms: C_4  and  C_20
    5  A    between atoms: C_4  and  C_32
    6  A    between atoms: C_8  and  C_20
    7  A    between atoms: C_8  and  C_23
    8  A    between atoms: C_10  and  C_27
    9  A    between atoms: C_15  and  C_32
   10  A    between atoms: C_18  and  C_24
                            x       y       z     vdW  Elec       q    Type
                         _______ _______ _______ _____ _____    ______ ____

>  <TORSDO>
F 10

$$$$
=
 OpenBabel11062415373D

 35 37  0  0  1  0  0  0  0  0999 V2000
  188.5090  176.9720  143.5840 C   0  0  1  0  0  0  0  0  0  0  0  0
  189.0110  175.5640  143.2750 C   0  0  0  0  0  1  0  0  0  0  0  0
  187.8240  176.9600  148.4380 C   0  0  0  0  0  1  0  0  0  0  0  0
  189.8320  178.0950  147.4220 C   0  0  0  0  0  2  0  0  0  0  0  0
  187.7910  177.5340  146.0000 C   0  0  0  0  0  2  0  0  0  0  0  0
  189.8710  176.4010  145.5490 O   0  0  0  0  0  0  0  0  0  0  0  0
  190.5620  176.9590  146.6670 C   0  0  0  0  0  2  0  0  0  0  0  0
  188.9530  177.3330  145.0220 C   0  0  1  0  0  3  0  0  0  0  0  0
  188.3080  177.9380  147.3800 C   0  0  1  0  0  3  0  0  0  0  0  0
  189.1230  177.9260  142.5250 C   0  0  1  0  0  3  0  0  0  0  0  0
  189.5790  179.1190  143.1090 O   0  0  0  0  0  1  0  0  0  0  0  0
  190.1720  177.3010  141.5780 C   0  0  1  0  0  3  0  0  0  0  0  0
  188.5280  177.8020  139.7620 C   0  0  1  0  0  3  0  0  0  0  0  0
  189.9870  177.8800  140.1760 C   0  0  2  0  0  3  0  0  0  0  0  0
  188.2450  178.8250  138.8520 O   0  0  0  0  0  1  0  0  0  0  0  0
  189.5380  176.7930  139.2170 C   0  0  2  0  0  3  0  0  0  0  0  0
  190.0410  177.1180  137.8200 C   0  0  0  0  0  1  0  0  0  0  0  0
  191.6390  177.4580  142.0400 C   0  0  0  0  0  0  0  0  0  0  0  0
  192.4860  177.4680  140.9290 O   0  0  0  0  0  1  0  0  0  0  0  0
  192.0040  176.4100  142.8580 F   0  0  0  0  0  0  0  0  0  0  0  0
  191.8010  178.6460  142.7360 F   0  0  0  0  0  0  0  0  0  0  0  0
  186.9720  176.9690  143.4680 C   0  0  0  0  0  2  0  0  0  0  0  0
  186.3630  178.2340  142.8540 C   0  0  0  0  0  2  0  0  0  0  0  0
  185.1810  178.7380  143.6690 C   0  0  0  0  0  2  0  0  0  0  0  0
  182.8280  178.0680  140.8240 N   0  0  0  0  0  0  0  0  0  0  0  0
  183.9360  178.6480  142.8580 C   0  0  0  0  0  0  0  0  0  0  0  0
  180.4610  178.3410  140.5060 N   0  0  0  0  0  1  0  0  0  0  0  0
  181.6270  178.4850  141.3150 C   0  0  0  0  0  0  0  0  0  0  0  0
  181.5450  179.0070  142.6230 C   0  0  0  0  0  0  0  0  0  0  0  0
  182.7160  179.0760  143.3860 C   0  0  0  0  0  3  0  0  0  0  0  0
  183.9710  178.1420  141.5590 C   0  0  0  0  0  3  0  0  0  0  0  0
  179.8990  180.6780  142.9620 O   0  0  0  0  0  0  0  0  0  0  0  0
  180.2730  179.5000  143.1960 C   0  0  0  0  0  0  0  0  0  0  0  0
  179.7320  177.3680  144.2400 O   0  0  0  0  0  1  0  0  0  0  0  0
  179.4590  178.6760  144.0330 N   0  0  0  0  0  2  0  0  0  0  0  0
  1  2  1  6  0  0  0
  5  9  1  0  0  0  0
  6  7  1  0  0  0  0
  7  4  1  0  0  0  0
  8  1  1  6  0  0  0
  8  6  1  0  0  0  0
  8  5  1  0  0  0  0
  9  4  1  0  0  0  0
  9  3  1  1  0  0  0
 10 11  1  1  0  0  0
 10  1  1  0  0  0  0
 12 18  1  1  0  0  0
 12 10  1  0  0  0  0
 13 15  1  6  0  0  0
 13 14  1  0  0  0  0
 14 12  1  1  0  0  0
 16 17  1  6  0  0  0
 16 13  1  0  0  0  0
 16 14  1  0  0  0  0
 18 21  1  0  0  0  0
 18 20  1  0  0  0  0
 19 18  1  0  0  0  0
 22  1  1  0  0  0  0
 23 22  1  0  0  0  0
 23 24  1  0  0  0  0
 25 28  2  0  0  0  0
 25 31  1  0  0  0  0
 26 30  1  0  0  0  0
 26 24  1  0  0  0  0
 27 28  1  0  0  0  0
 28 29  1  0  0  0  0
 29 33  1  0  0  0  0
 29 30  2  0  0  0  0
 31 26  2  0  0  0  0
 32 33  2  0  0  0  0
 33 35  1  0  0  0  0
 35 34  1  0  0  0  0
M  END
>  <MODEL>
3

>  <REMARK>
 VINA RESULT:      -8.0      1.301      4.865
  Name = 
  10 active torsions:
  status: ('A' for Active; 'I' for Inactive)
    1  A    between atoms: C_2  and  C_27
    2  A    between atoms: C_3  and  C_8
    3  A    between atoms: C_3  and  C_27
    4  A    between atoms: C_4  and  C_20
    5  A    between atoms: C_4  and  C_32
    6  A    between atoms: C_8  and  C_20
    7  A    between atoms: C_8  and  C_23
    8  A    between atoms: C_10  and  C_27
    9  A    between atoms: C_15  and  C_32
   10  A    between atoms: C_18  and  C_24
                            x       y       z     vdW  Elec       q    Type
                         _______ _______ _______ _____ _____    ______ ____

>  <TORSDO>
F 10

$$$$
=
 OpenBabel11062415373D

 35 37  0  0  1  0  0  0  0  0999 V2000
  188.7980  177.8630  142.2750 C   0  0  1  0  0  0  0  0  0  0  0  0
  189.5930  179.1180  142.6280 C   0  0  0  0  0  1  0  0  0  0  0  0
  189.2600  178.2920  137.4140 C   0  0  0  0  0  1  0  0  0  0  0  0
  190.1770  176.2810  138.6230 C   0  0  0  0  0  2  0  0  0  0  0  0
  188.4300  177.7790  139.7210 C   0  0  0  0  0  2  0  0  0  0  0  0
  190.6470  177.6930  140.6650 O   0  0  0  0  0  0  0  0  0  0  0  0
  191.1920  176.8770  139.6270 C   0  0  0  0  0  2  0  0  0  0  0  0
  189.3010  177.3480  140.9050 C   0  0  1  0  0  3  0  0  0  0  0  0
  188.9610  177.1890  138.4150 C   0  0  1  0  0  3  0  0  0  0  0  0
  189.0310  176.8310  143.4100 C   0  0  1  0  0  3  0  0  0  0  0  0
  189.4130  175.5810  142.8990 O   0  0  0  0  0  1  0  0  0  0  0  0
  189.9450  177.2930  144.5680 C   0  0  1  0  0  3  0  0  0  0  0  0
  188.0170  177.8620  146.0550 C   0  0  1  0  0  3  0  0  0  0  0  0
  189.2540  176.9960  145.8980 C   0  0  2  0  0  3  0  0  0  0  0  0
  187.0880  177.2090  146.8700 O   0  0  0  0  0  1  0  0  0  0  0  0
  189.3050  178.2170  146.7970 C   0  0  2  0  0  3  0  0  0  0  0  0
  189.3210  177.7710  148.2500 C   0  0  0  0  0  1  0  0  0  0  0  0
  191.3690  176.6910  144.5500 C   0  0  0  0  0  0  0  0  0  0  0  0
  192.0820  177.1950  143.4600 O   0  0  0  0  0  1  0  0  0  0  0  0
  191.3120  175.3170  144.4370 F   0  0  0  0  0  0  0  0  0  0  0  0
  192.0450  177.0160  145.7160 F   0  0  0  0  0  0  0  0  0  0  0  0
  187.3060  178.2470  142.2040 C   0  0  0  0  0  2  0  0  0  0  0  0
  186.3870  177.4640  143.1480 C   0  0  0  0  0  2  0  0  0  0  0  0
  185.4540  178.3880  143.9150 C   0  0  0  0  0  2  0  0  0  0  0  0
  181.8520  179.0760  143.1180 N   0  0  0  0  0  0  0  0  0  0  0  0
  184.1830  178.5590  143.1590 C   0  0  0  0  0  0  0  0  0  0  0  0
  180.5530  179.0800  141.0950 N   0  0  0  0  0  1  0  0  0  0  0  0
  181.7900  178.8660  141.7730 C   0  0  0  0  0  0  0  0  0  0  0  0
  182.9520  178.4880  141.0650 C   0  0  0  0  0  0  0  0  0  0  0  0
  184.1460  178.3440  141.7800 C   0  0  0  0  0  3  0  0  0  0  0  0
  183.0100  178.9270  143.8180 C   0  0  0  0  0  3  0  0  0  0  0  0
  182.3730  177.1840  139.1730 O   0  0  0  0  0  0  0  0  0  0  0  0
  182.9360  178.2210  139.6110 C   0  0  0  0  0  0  0  0  0  0  0  0
  184.0900  180.2920  139.0550 O   0  0  0  0  0  1  0  0  0  0  0  0
  183.5650  179.1040  138.6790 N   0  0  0  0  0  2  0  0  0  0  0  0
  1  2  1  1  0  0  0
  1 10  1  0  0  0  0
  4  7  1  0  0  0  0
  5  8  1  0  0  0  0
  6  8  1  0  0  0  0
  7  6  1  0  0  0  0
  8  1  1  1  0  0  0
  9  3  1  6  0  0  0
  9  4  1  0  0  0  0
  9  5  1  0  0  0  0
 10 11  1  6  0  0  0
 10 12  1  0  0  0  0
 12 18  1  1  0  0  0
 13 16  1  0  0  0  0
 13 15  1  1  0  0  0
 14 12  1  6  0  0  0
 14 13  1  0  0  0  0
 14 16  1  0  0  0  0
 16 17  1  1  0  0  0
 18 21  1  0  0  0  0
 19 18  1  0  0  0  0
 20 18  1  0  0  0  0
 22  1  1  0  0  0  0
 22 23  1  0  0  0  0
 23 24  1  0  0  0  0
 25 31  1  0  0  0  0
 26 31  2  0  0  0  0
 26 24  1  0  0  0  0
 27 28  1  0  0  0  0
 28 25  2  0  0  0  0
 29 28  1  0  0  0  0
 29 30  2  0  0  0  0
 30 26  1  0  0  0  0
 32 33  2  0  0  0  0
 33 29  1  0  0  0  0
 35 34  1  0  0  0  0
 35 33  1  0  0  0  0
M  END
>  <MODEL>
4

>  <REMARK>
 VINA RESULT:      -7.7      1.634      2.317
  Name = 
  10 active torsions:
  status: ('A' for Active; 'I' for Inactive)
    1  A    between atoms: C_2  and  C_27
    2  A    between atoms: C_3  and  C_8
    3  A    between atoms: C_3  and  C_27
    4  A    between atoms: C_4  and  C_20
    5  A    between atoms: C_4  and  C_32
    6  A    between atoms: C_8  and  C_20
    7  A    between atoms: C_8  and  C_23
    8  A    between atoms: C_10  and  C_27
    9  A    between atoms: C_15  and  C_32
   10  A    between atoms: C_18  and  C_24
                            x       y       z     vdW  Elec       q    Type
                         _______ _______ _______ _____ _____    ______ ____

>  <TORSDO>
F 10

$$$$
=
 OpenBabel11062415373D

 35 37  0  0  1  0  0  0  0  0999 V2000
  187.9670  177.3630  143.7150 C   0  0  1  0  0  0  0  0  0  0  0  0
  187.3900  176.0420  143.2140 C   0  0  0  0  0  1  0  0  0  0  0  0
  183.4060  178.6840  144.9290 C   0  0  0  0  0  1  0  0  0  0  0  0
  185.3390  179.1590  146.4730 C   0  0  0  0  0  2  0  0  0  0  0  0
  185.7360  178.6270  144.0110 C   0  0  0  0  0  2  0  0  0  0  0  0
  186.5180  177.0710  145.6780 O   0  0  0  0  0  0  0  0  0  0  0  0
  185.9260  177.7610  146.7800 C   0  0  0  0  0  2  0  0  0  0  0  0
  186.9470  177.9890  144.6970 C   0  0  1  0  0  3  0  0  0  0  0  0
  184.8050  179.2660  145.0420 C   0  0  1  0  0  3  0  0  0  0  0  0
  189.3220  177.0470  144.4020 C   0  0  1  0  0  3  0  0  0  0  0  0
  190.0370  176.0620  143.7020 O   0  0  0  0  0  1  0  0  0  0  0  0
  190.2020  178.2670  144.7570 C   0  0  1  0  0  3  0  0  0  0  0  0
  190.9280  176.8600  146.6930 C   0  0  1  0  0  3  0  0  0  0  0  0
  190.4990  178.2490  146.2560 C   0  0  2  0  0  3  0  0  0  0  0  0
  191.7630  176.9580  147.8100 O   0  0  0  0  0  1  0  0  0  0  0  0
  189.5090  177.3510  146.9730 C   0  0  2  0  0  3  0  0  0  0  0  0
  189.3030  177.8620  148.3900 C   0  0  0  0  0  1  0  0  0  0  0  0
  191.5140  178.3790  143.9460 C   0  0  0  0  0  0  0  0  0  0  0  0
  192.2290  179.5070  144.3570 O   0  0  0  0  0  1  0  0  0  0  0  0
  191.2420  178.5000  142.6000 F   0  0  0  0  0  0  0  0  0  0  0  0
  192.3010  177.2540  144.1440 F   0  0  0  0  0  0  0  0  0  0  0  0
  188.1910  178.2810  142.4970 C   0  0  0  0  0  2  0  0  0  0  0  0
  188.4950  177.5550  141.1820 C   0  0  0  0  0  2  0  0  0  0  0  0
  187.8520  178.2550  139.9950 C   0  0  0  0  0  2  0  0  0  0  0  0
  188.6310  177.7990  136.3520 N   0  0  0  0  0  0  0  0  0  0  0  0
  188.5330  177.8400  138.7370 C   0  0  0  0  0  0  0  0  0  0  0  0
  190.4060  176.7240  135.1380 N   0  0  0  0  0  1  0  0  0  0  0  0
  189.7770  177.0620  136.3730 C   0  0  0  0  0  0  0  0  0  0  0  0
  190.3480  176.6850  137.6080 C   0  0  0  0  0  0  0  0  0  0  0  0
  189.7110  177.0910  138.7860 C   0  0  0  0  0  3  0  0  0  0  0  0
  188.0020  178.1870  137.4950 C   0  0  0  0  0  3  0  0  0  0  0  0
  192.6940  176.4240  137.8210 O   0  0  0  0  0  0  0  0  0  0  0  0
  191.5750  175.8630  137.6890 C   0  0  0  0  0  0  0  0  0  0  0  0
  190.3640  173.7550  137.5710 O   0  0  0  0  0  1  0  0  0  0  0  0
  191.5310  174.4380  137.6000 N   0  0  0  0  0  2  0  0  0  0  0  0
  1  2  1  6  0  0  0
  1 10  1  0  0  0  0
  4  7  1  0  0  0  0
  5  8  1  0  0  0  0
  5  9  1  0  0  0  0
  6  7  1  0  0  0  0
  8  1  1  6  0  0  0
  8  6  1  0  0  0  0
  9  3  1  1  0  0  0
  9  4  1  0  0  0  0
 10 11  1  6  0  0  0
 10 12  1  0  0  0  0
 12 18  1  6  0  0  0
 13 16  1  0  0  0  0
 13 15  1  1  0  0  0
 14 12  1  6  0  0  0
 14 13  1  0  0  0  0
 14 16  1  0  0  0  0
 16 17  1  1  0  0  0
 18 21  1  0  0  0  0
 18 19  1  0  0  0  0
 20 18  1  0  0  0  0
 22  1  1  0  0  0  0
 23 22  1  0  0  0  0
 24 23  1  0  0  0  0
 25 28  2  0  0  0  0
 25 31  1  0  0  0  0
 26 30  1  0  0  0  0
 26 24  1  0  0  0  0
 27 28  1  0  0  0  0
 28 29  1  0  0  0  0
 29 33  1  0  0  0  0
 29 30  2  0  0  0  0
 31 26  2  0  0  0  0
 33 32  2  0  0  0  0
 34 35  1  0  0  0  0
 35 33  1  0  0  0  0
M  END
>  <MODEL>
5

>  <REMARK>
 VINA RESULT:      -7.6      3.776      7.184
  Name = 
  10 active torsions:
  status: ('A' for Active; 'I' for Inactive)
    1  A    between atoms: C_2  and  C_27
    2  A    between atoms: C_3  and  C_8
    3  A    between atoms: C_3  and  C_27
    4  A    between atoms: C_4  and  C_20
    5  A    between atoms: C_4  and  C_32
    6  A    between atoms: C_8  and  C_20
    7  A    between atoms: C_8  and  C_23
    8  A    between atoms: C_10  and  C_27
    9  A    between atoms: C_15  and  C_32
   10  A    between atoms: C_18  and  C_24
                            x       y       z     vdW  Elec       q    Type
                         _______ _______ _______ _____ _____    ______ ____

>  <TORSDO>
F 10

$$$$
=
 OpenBabel11062415373D

 35 37  0  0  1  0  0  0  0  0999 V2000
  188.2330  177.7290  143.9970 C   0  0  1  0  0  0  0  0  0  0  0  0
  187.9640  176.2750  143.6190 C   0  0  0  0  0  1  0  0  0  0  0  0
  187.5570  177.1110  148.8120 C   0  0  0  0  0  1  0  0  0  0  0  0
  189.7650  177.9280  147.9150 C   0  0  0  0  0  2  0  0  0  0  0  0
  187.6530  178.0510  146.4920 C   0  0  0  0  0  2  0  0  0  0  0  0
  189.4350  176.5790  145.8060 O   0  0  0  0  0  0  0  0  0  0  0  0
  190.2300  176.7930  146.9720 C   0  0  0  0  0  2  0  0  0  0  0  0
  188.7440  177.7580  145.4580 C   0  0  1  0  0  3  0  0  0  0  0  0
  188.2450  178.1130  147.9000 C   0  0  1  0  0  3  0  0  0  0  0  0
  189.2850  178.2810  142.9980 C   0  0  1  0  0  3  0  0  0  0  0  0
  190.1300  179.2220  143.6080 O   0  0  0  0  0  1  0  0  0  0  0  0
  190.0730  177.2240  142.1910 C   0  0  1  0  0  3  0  0  0  0  0  0
  188.9040  178.0140  140.1270 C   0  0  1  0  0  3  0  0  0  0  0  0
  190.2530  177.7230  140.7580 C   0  0  2  0  0  3  0  0  0  0  0  0
  189.0480  179.0030  139.1490 O   0  0  0  0  0  1  0  0  0  0  0  0
  189.6550  176.7300  139.7800 C   0  0  2  0  0  3  0  0  0  0  0  0
  190.4170  176.7970  138.4670 C   0  0  0  0  0  1  0  0  0  0  0  0
  191.4350  176.8240  142.8020 C   0  0  0  0  0  0  0  0  0  0  0  0
  192.4430  176.9680  141.8450 O   0  0  0  0  0  1  0  0  0  0  0  0
  191.4120  175.5100  143.2180 F   0  0  0  0  0  0  0  0  0  0  0  0
  191.7320  177.6320  143.8890 F   0  0  0  0  0  0  0  0  0  0  0  0
  186.9110  178.5110  143.8620 C   0  0  0  0  0  2  0  0  0  0  0  0
  185.7830  177.7630  143.1430 C   0  0  0  0  0  2  0  0  0  0  0  0
  184.9860  178.6900  142.2380 C   0  0  0  0  0  2  0  0  0  0  0  0
  181.8800  178.6600  144.3430 N   0  0  0  0  0  0  0  0  0  0  0  0
  183.5520  178.6740  142.6390 C   0  0  0  0  0  0  0  0  0  0  0  0
  179.5250  178.6500  143.8580 N   0  0  0  0  0  1  0  0  0  0  0  0
  180.8810  178.6270  143.4160 C   0  0  0  0  0  0  0  0  0  0  0  0
  181.1980  178.6180  142.0410 C   0  0  0  0  0  0  0  0  0  0  0  0
  182.5470  178.6470  141.6700 C   0  0  0  0  0  3  0  0  0  0  0  0
  183.1930  178.6780  143.9870 C   0  0  0  0  0  3  0  0  0  0  0  0
  179.7820  177.4390  140.5520 O   0  0  0  0  0  0  0  0  0  0  0  0
  180.1560  178.5560  140.9930 C   0  0  0  0  0  0  0  0  0  0  0  0
  179.8350  180.9690  140.9440 O   0  0  0  0  0  1  0  0  0  0  0  0
  179.5710  179.7390  140.4460 N   0  0  0  0  0  2  0  0  0  0  0  0
  1  2  1  6  0  0  0
  5  9  1  0  0  0  0
  6  7  1  0  0  0  0
  7  4  1  0  0  0  0
  8  1  1  6  0  0  0
  8  6  1  0  0  0  0
  8  5  1  0  0  0  0
  9  4  1  0  0  0  0
  9  3  1  1  0  0  0
 10 11  1  1  0  0  0
 10  1  1  0  0  0  0
 12 18  1  1  0  0  0
 12 10  1  0  0  0  0
 13 15  1  6  0  0  0
 13 14  1  0  0  0  0
 14 12  1  1  0  0  0
 16 17  1  6  0  0  0
 16 13  1  0  0  0  0
 16 14  1  0  0  0  0
 18 20  1  0  0  0  0
 18 21  1  0  0  0  0
 19 18  1  0  0  0  0
 22  1  1  0  0  0  0
 23 22  1  0  0  0  0
 24 26  1  0  0  0  0
 24 23  1  0  0  0  0
 26 31  2  0  0  0  0
 28 27  1  0  0  0  0
 28 25  2  0  0  0  0
 29 28  1  0  0  0  0
 30 29  2  0  0  0  0
 30 26  1  0  0  0  0
 31 25  1  0  0  0  0
 32 33  2  0  0  0  0
 33 29  1  0  0  0  0
 35 34  1  0  0  0  0
 35 33  1  0  0  0  0
M  END
>  <MODEL>
6

>  <REMARK>
 VINA RESULT:      -7.5      1.732      5.141
  Name = 
  10 active torsions:
  status: ('A' for Active; 'I' for Inactive)
    1  A    between atoms: C_2  and  C_27
    2  A    between atoms: C_3  and  C_8
    3  A    between atoms: C_3  and  C_27
    4  A    between atoms: C_4  and  C_20
    5  A    between atoms: C_4  and  C_32
    6  A    between atoms: C_8  and  C_20
    7  A    between atoms: C_8  and  C_23
    8  A    between atoms: C_10  and  C_27
    9  A    between atoms: C_15  and  C_32
   10  A    between atoms: C_18  and  C_24
                            x       y       z     vdW  Elec       q    Type
                         _______ _______ _______ _____ _____    ______ ____

>  <TORSDO>
F 10

$$$$
=
 OpenBabel11062415373D

 35 37  0  0  1  0  0  0  0  0999 V2000
  182.9780  177.8650  139.4690 C   0  0  1  0  0  0  0  0  0  0  0  0
  182.7330  176.5060  140.1210 C   0  0  0  0  0  1  0  0  0  0  0  0
  187.3900  177.1510  137.4550 C   0  0  0  0  0  1  0  0  0  0  0  0
  185.3320  177.3520  136.0140 C   0  0  0  0  0  2  0  0  0  0  0  0
  185.3200  178.1740  138.4280 C   0  0  0  0  0  2  0  0  0  0  0  0
  183.9280  176.2980  137.8300 O   0  0  0  0  0  0  0  0  0  0  0  0
  184.4230  176.1960  136.4950 C   0  0  0  0  0  2  0  0  0  0  0  0
  183.8940  177.6470  138.2400 C   0  0  1  0  0  3  0  0  0  0  0  0
  186.1440  177.9690  137.1570 C   0  0  1  0  0  3  0  0  0  0  0  0
  181.5950  178.4450  139.0710 C   0  0  1  0  0  3  0  0  0  0  0  0
  180.5990  177.4560  139.0820 O   0  0  0  0  0  1  0  0  0  0  0  0
  181.1560  179.7240  139.8210 C   0  0  1  0  0  3  0  0  0  0  0  0
  181.2200  180.4920  137.4420 C   0  0  1  0  0  3  0  0  0  0  0  0
  180.6090  180.7310  138.8110 C   0  0  2  0  0  3  0  0  0  0  0  0
  180.3320  180.9220  136.4510 O   0  0  0  0  0  1  0  0  0  0  0  0
  181.7230  181.6360  138.3200 C   0  0  2  0  0  3  0  0  0  0  0  0
  181.1430  182.9930  137.9540 C   0  0  0  0  0  1  0  0  0  0  0  0
  180.1380  179.4910  140.9610 C   0  0  0  0  0  0  0  0  0  0  0  0
  179.9140  180.6870  141.6460 O   0  0  0  0  0  1  0  0  0  0  0  0
  180.6190  178.5580  141.8560 F   0  0  0  0  0  0  0  0  0  0  0  0
  178.9330  179.0370  140.4470 F   0  0  0  0  0  0  0  0  0  0  0  0
  183.6590  178.7780  140.5070 C   0  0  0  0  0  2  0  0  0  0  0  0
  184.2020  178.0620  141.7480 C   0  0  0  0  0  2  0  0  0  0  0  0
  184.2320  178.9830  142.9580 C   0  0  0  0  0  2  0  0  0  0  0  0
  186.0390  178.2710  146.1690 N   0  0  0  0  0  0  0  0  0  0  0  0
  185.2620  178.5110  143.9240 C   0  0  0  0  0  0  0  0  0  0  0  0
  188.1140  177.1890  146.7200 N   0  0  0  0  0  1  0  0  0  0  0  0
  187.1790  177.6530  145.7480 C   0  0  0  0  0  0  0  0  0  0  0  0
  187.3970  177.4410  144.3700 C   0  0  0  0  0  0  0  0  0  0  0  0
  186.4190  177.8750  143.4680 C   0  0  0  0  0  3  0  0  0  0  0  0
  185.0900  178.7030  145.2940 C   0  0  0  0  0  3  0  0  0  0  0  0
  188.5530  175.7020  143.2500 O   0  0  0  0  0  0  0  0  0  0  0  0
  188.6280  176.8010  143.8570 C   0  0  0  0  0  0  0  0  0  0  0  0
  190.0720  178.6190  144.5910 O   0  0  0  0  0  1  0  0  0  0  0  0
  189.9160  177.3890  144.0510 N   0  0  0  0  0  2  0  0  0  0  0  0
  1  2  1  1  0  0  0
  1 22  1  0  0  0  0
  4  7  1  0  0  0  0
  4  9  1  0  0  0  0
  6  8  1  0  0  0  0
  7  6  1  0  0  0  0
  8  5  1  0  0  0  0
  8  1  1  1  0  0  0
  9  3  1  1  0  0  0
  9  5  1  0  0  0  0
 10 11  1  1  0  0  0
 10  1  1  0  0  0  0
 10 12  1  0  0  0  0
 12 18  1  1  0  0  0
 13 15  1  6  0  0  0
 13 16  1  0  0  0  0
 13 14  1  0  0  0  0
 14 12  1  1  0  0  0
 16 17  1  6  0  0  0
 16 14  1  0  0  0  0
 18 19  1  0  0  0  0
 18 20  1  0  0  0  0
 21 18  1  0  0  0  0
 22 23  1  0  0  0  0
 23 24  1  0  0  0  0
 24 26  1  0  0  0  0
 26 31  1  0  0  0  0
 28 25  1  0  0  0  0
 28 27  1  0  0  0  0
 29 28  2  0  0  0  0
 30 26  2  0  0  0  0
 30 29  1  0  0  0  0
 31 25  2  0  0  0  0
 32 33  2  0  0  0  0
 33 35  1  0  0  0  0
 33 29  1  0  0  0  0
 35 34  1  0  0  0  0
M  END
>  <MODEL>
7

>  <REMARK>
 VINA RESULT:      -7.0      4.753      8.642
  Name = 
  10 active torsions:
  status: ('A' for Active; 'I' for Inactive)
    1  A    between atoms: C_2  and  C_27
    2  A    between atoms: C_3  and  C_8
    3  A    between atoms: C_3  and  C_27
    4  A    between atoms: C_4  and  C_20
    5  A    between atoms: C_4  and  C_32
    6  A    between atoms: C_8  and  C_20
    7  A    between atoms: C_8  and  C_23
    8  A    between atoms: C_10  and  C_27
    9  A    between atoms: C_15  and  C_32
   10  A    between atoms: C_18  and  C_24
                            x       y       z     vdW  Elec       q    Type
                         _______ _______ _______ _____ _____    ______ ____

>  <TORSDO>
F 10

$$$$
=
 OpenBabel11062415373D

 35 37  0  0  1  0  0  0  0  0999 V2000
  187.8160  177.5730  143.4190 C   0  0  1  0  0  0  0  0  0  0  0  0
  187.9310  176.0620  143.6040 C   0  0  0  0  0  1  0  0  0  0  0  0
  183.3350  179.5370  143.7080 C   0  0  0  0  0  1  0  0  0  0  0  0
  184.0500  178.2530  141.6610 C   0  0  0  0  0  2  0  0  0  0  0  0
  185.3100  178.0050  143.8640 C   0  0  0  0  0  2  0  0  0  0  0  0
  186.4360  179.0160  141.9870 O   0  0  0  0  0  0  0  0  0  0  0  0
  185.2840  179.0300  141.1430 C   0  0  0  0  0  2  0  0  0  0  0  0
  186.4230  177.8780  142.8190 C   0  0  1  0  0  3  0  0  0  0  0  0
  183.9610  178.2530  143.1900 C   0  0  1  0  0  3  0  0  0  0  0  0
  188.0080  178.2260  144.8140 C   0  0  1  0  0  3  0  0  0  0  0  0
  186.8820  178.9760  145.1910 O   0  0  0  0  0  1  0  0  0  0  0  0
  188.4880  177.2850  145.9420 C   0  0  1  0  0  3  0  0  0  0  0  0
  190.8890  177.0580  145.2820 C   0  0  1  0  0  3  0  0  0  0  0  0
  189.9300  177.6380  146.3060 C   0  0  2  0  0  3  0  0  0  0  0  0
  192.0440  177.8450  145.2240 O   0  0  0  0  0  1  0  0  0  0  0  0
  190.7070  176.3780  146.6380 C   0  0  2  0  0  3  0  0  0  0  0  0
  191.7960  176.7100  147.6450 C   0  0  0  0  0  1  0  0  0  0  0  0
  187.5960  177.2790  147.2050 C   0  0  0  0  0  0  0  0  0  0  0  0
  187.7470  178.4840  147.8960 O   0  0  0  0  0  1  0  0  0  0  0  0
  187.9540  176.2460  148.0450 F   0  0  0  0  0  0  0  0  0  0  0  0
  186.2630  177.1280  146.8540 F   0  0  0  0  0  0  0  0  0  0  0  0
  188.9380  178.0250  142.4630 C   0  0  0  0  0  2  0  0  0  0  0  0
  189.6780  176.8910  141.7460 C   0  0  0  0  0  2  0  0  0  0  0  0
  190.8160  177.4210  140.8880 C   0  0  0  0  0  2  0  0  0  0  0  0
  191.0050  176.5830  137.2340 N   0  0  0  0  0  0  0  0  0  0  0  0
  190.4600  177.2950  139.4470 C   0  0  0  0  0  0  0  0  0  0  0  0
  189.5220  176.8840  135.3660 N   0  0  0  0  0  1  0  0  0  0  0  0
  189.8270  177.0640  136.7480 C   0  0  0  0  0  0  0  0  0  0  0  0
  188.9080  177.6880  137.6200 C   0  0  0  0  0  0  0  0  0  0  0  0
  189.2430  177.7900  138.9750 C   0  0  0  0  0  3  0  0  0  0  0  0
  191.3390  176.6890  138.5500 C   0  0  0  0  0  3  0  0  0  0  0  0
  187.5550  179.4720  136.8430 O   0  0  0  0  0  0  0  0  0  0  0  0
  187.6270  178.2520  137.1410 C   0  0  0  0  0  0  0  0  0  0  0  0
  186.4720  176.1100  137.2180 O   0  0  0  0  0  1  0  0  0  0  0  0
  186.4510  177.4490  137.0270 N   0  0  0  0  0  2  0  0  0  0  0  0
  1  2  1  1  0  0  0
  1 10  1  0  0  0  0
  4  9  1  0  0  0  0
  6  8  1  0  0  0  0
  7  4  1  0  0  0  0
  7  6  1  0  0  0  0
  8  1  1  1  0  0  0
  8  5  1  0  0  0  0
  9  3  1  1  0  0  0
  9  5  1  0  0  0  0
 10 11  1  1  0  0  0
 10 12  1  0  0  0  0
 12 18  1  1  0  0  0
 13 15  1  1  0  0  0
 13 14  1  0  0  0  0
 13 16  1  0  0  0  0
 14 12  1  6  0  0  0
 14 16  1  0  0  0  0
 16 17  1  1  0  0  0
 18 19  1  0  0  0  0
 18 20  1  0  0  0  0
 21 18  1  0  0  0  0
 22  1  1  0  0  0  0
 23 22  1  0  0  0  0
 24 23  1  0  0  0  0
 25 31  1  0  0  0  0
 26 24  1  0  0  0  0
 27 28  1  0  0  0  0
 28 25  2  0  0  0  0
 28 29  1  0  0  0  0
 29 30  2  0  0  0  0
 30 26  1  0  0  0  0
 31 26  2  0  0  0  0
 32 33  2  0  0  0  0
 33 29  1  0  0  0  0
 35 33  1  0  0  0  0
 35 34  1  0  0  0  0
M  END
>  <MODEL>
8

>  <REMARK>
 VINA RESULT:      -6.9      3.408      6.481
  Name = 
  10 active torsions:
  status: ('A' for Active; 'I' for Inactive)
    1  A    between atoms: C_2  and  C_27
    2  A    between atoms: C_3  and  C_8
    3  A    between atoms: C_3  and  C_27
    4  A    between atoms: C_4  and  C_20
    5  A    between atoms: C_4  and  C_32
    6  A    between atoms: C_8  and  C_20
    7  A    between atoms: C_8  and  C_23
    8  A    between atoms: C_10  and  C_27
    9  A    between atoms: C_15  and  C_32
   10  A    between atoms: C_18  and  C_24
                            x       y       z     vdW  Elec       q    Type
                         _______ _______ _______ _____ _____    ______ ____

>  <TORSDO>
F 10

$$$$
=
 OpenBabel11062415373D

 35 37  0  0  1  0  0  0  0  0999 V2000
  188.0650  177.2860  143.6560 C   0  0  1  0  0  0  0  0  0  0  0  0
  187.5020  175.9360  143.2180 C   0  0  0  0  0  1  0  0  0  0  0  0
  183.4420  178.6330  144.5710 C   0  0  0  0  0  1  0  0  0  0  0  0
  185.3090  179.2970  146.1270 C   0  0  0  0  0  2  0  0  0  0  0  0
  185.8050  178.5300  143.7460 C   0  0  0  0  0  2  0  0  0  0  0  0
  186.5490  177.1630  145.5870 O   0  0  0  0  0  0  0  0  0  0  0  0
  185.9070  177.9470  146.5920 C   0  0  0  0  0  2  0  0  0  0  0  0
  187.0000  177.9860  144.5340 C   0  0  1  0  0  3  0  0  0  0  0  0
  184.8270  179.2500  144.6740 C   0  0  1  0  0  3  0  0  0  0  0  0
  189.3770  177.0090  144.4380 C   0  0  1  0  0  3  0  0  0  0  0  0
  190.1500  176.0180  143.8120 O   0  0  0  0  0  1  0  0  0  0  0  0
  190.2150  178.2520  144.8160 C   0  0  1  0  0  3  0  0  0  0  0  0
  190.8730  176.7560  146.7080 C   0  0  1  0  0  3  0  0  0  0  0  0
  190.5630  178.1850  146.3030 C   0  0  2  0  0  3  0  0  0  0  0  0
  191.7540  176.7580  147.7950 O   0  0  0  0  0  1  0  0  0  0  0  0
  189.5180  177.3750  147.0480 C   0  0  2  0  0  3  0  0  0  0  0  0
  189.4140  177.8840  148.4760 C   0  0  0  0  0  1  0  0  0  0  0  0
  191.4920  178.4560  143.9690 C   0  0  0  0  0  0  0  0  0  0  0  0
  192.0550  177.2160  143.6570 O   0  0  0  0  0  1  0  0  0  0  0  0
  192.4230  179.1950  144.6670 F   0  0  0  0  0  0  0  0  0  0  0  0
  191.1880  179.1180  142.7900 F   0  0  0  0  0  0  0  0  0  0  0  0
  188.3650  178.1130  142.3910 C   0  0  0  0  0  2  0  0  0  0  0  0
  188.7950  177.2990  141.1670 C   0  0  0  0  0  2  0  0  0  0  0  0
  189.4770  178.1720  140.1250 C   0  0  0  0  0  2  0  0  0  0  0  0
  188.5090  178.5000  136.5140 N   0  0  0  0  0  0  0  0  0  0  0  0
  188.6660  178.1920  138.8770 C   0  0  0  0  0  0  0  0  0  0  0  0
  186.4480  178.2500  135.3010 N   0  0  0  0  0  1  0  0  0  0  0  0
  187.1690  178.2530  136.5330 C   0  0  0  0  0  0  0  0  0  0  0  0
  186.5240  177.9610  137.7540 C   0  0  0  0  0  0  0  0  0  0  0  0
  187.2950  177.9290  138.9210 C   0  0  0  0  0  3  0  0  0  0  0  0
  189.2600  178.4800  137.6490 C   0  0  0  0  0  3  0  0  0  0  0  0
  184.5880  176.6560  137.3480 O   0  0  0  0  0  0  0  0  0  0  0  0
  185.0680  177.7120  137.8350 C   0  0  0  0  0  0  0  0  0  0  0  0
  184.6260  179.7550  139.0840 O   0  0  0  0  0  1  0  0  0  0  0  0
  184.1790  178.6540  138.4380 N   0  0  0  0  0  2  0  0  0  0  0  0
  1  2  1  6  0  0  0
  1 10  1  0  0  0  0
  4  7  1  0  0  0  0
  5  8  1  0  0  0  0
  5  9  1  0  0  0  0
  6  7  1  0  0  0  0
  8  1  1  6  0  0  0
  8  6  1  0  0  0  0
  9  3  1  1  0  0  0
  9  4  1  0  0  0  0
 10 11  1  6  0  0  0
 10 12  1  0  0  0  0
 12 18  1  6  0  0  0
 13 16  1  0  0  0  0
 13 15  1  1  0  0  0
 14 12  1  6  0  0  0
 14 13  1  0  0  0  0
 14 16  1  0  0  0  0
 16 17  1  1  0  0  0
 18 20  1  0  0  0  0
 19 18  1  0  0  0  0
 21 18  1  0  0  0  0
 22  1  1  0  0  0  0
 23 22  1  0  0  0  0
 24 23  1  0  0  0  0
 25 28  2  0  0  0  0
 25 31  1  0  0  0  0
 26 30  1  0  0  0  0
 26 24  1  0  0  0  0
 27 28  1  0  0  0  0
 28 29  1  0  0  0  0
 29 33  1  0  0  0  0
 29 30  2  0  0  0  0
 31 26  2  0  0  0  0
 32 33  2  0  0  0  0
 33 35  1  0  0  0  0
 35 34  1  0  0  0  0
M  END
>  <MODEL>
9

>  <REMARK>
 VINA RESULT:      -6.9      2.840      5.626
  Name = 
  10 active torsions:
  status: ('A' for Active; 'I' for Inactive)
    1  A    between atoms: C_2  and  C_27
    2  A    between atoms: C_3  and  C_8
    3  A    between atoms: C_3  and  C_27
    4  A    between atoms: C_4  and  C_20
    5  A    between atoms: C_4  and  C_32
    6  A    between atoms: C_8  and  C_20
    7  A    between atoms: C_8  and  C_23
    8  A    between atoms: C_10  and  C_27
    9  A    between atoms: C_15  and  C_32
   10  A    between atoms: C_18  and  C_24
                            x       y       z     vdW  Elec       q    Type
                         _______ _______ _______ _____ _____    ______ ____

>  <TORSDO>
F 10

$$$$
