=
 OpenBabel11062416243D

 67 71  0  0  1  0  0  0  0  0999 V2000
  193.3960  173.3840  136.7000 N   0  0  0  0  0  0  0  0  0  0  0  0
  194.6970  173.3840  137.2990 C   0  0  0  0  0  3  0  0  0  0  0  0
  195.7180  172.8730  136.6880 N   0  0  0  0  0  2  0  0  0  0  0  0
  192.3600  173.9450  137.3750 O   0  0  0  0  0  0  0  0  0  0  0  0
  191.6880  174.7370  136.4380 C   0  0  0  0  0  2  0  0  0  0  0  0
  191.4080  176.1060  137.0310 C   0  0  0  0  0  2  0  0  0  0  0  0
  190.0660  176.4500  136.8160 O   0  0  0  0  0  0  0  0  0  0  0  0
  189.6160  176.9460  138.0430 C   0  0  0  0  0  2  0  0  0  0  0  0
  190.7800  177.0910  139.0090 C   0  0  0  0  0  2  0  0  0  0  0  0
  190.6100  178.2410  139.7810 O   0  0  0  0  0  0  0  0  0  0  0  0
  189.2290  178.4540  139.8050 C   0  0  0  0  0  2  0  0  0  0  0  0
  188.7740  179.0710  138.4920 C   0  0  0  0  0  2  0  0  0  0  0  0
  187.3820  179.1620  138.4570 O   0  0  0  0  0  0  0  0  0  0  0  0
  186.9340  178.3510  139.5050 C   0  0  0  0  0  2  0  0  0  0  0  0
  185.4320  178.1170  139.4010 C   0  0  0  0  0  2  0  0  0  0  0  0
  184.6860  178.5060  140.6850 C   0  0  2  0  0  3  0  0  0  0  0  0
  183.4310  179.1020  140.4180 O   0  0  0  0  0  0  0  0  0  0  0  0
  183.4120  179.5700  139.0920 C   0  0  0  0  0  2  0  0  0  0  0  0
  182.0490  180.1540  138.7780 C   0  0  0  0  0  1  0  0  0  0  0  0
  185.5600  179.3210  141.6470 C   0  0  0  0  0  2  0  0  0  0  0  0
  185.2080  179.0370  143.1020 C   0  0  0  0  0  2  0  0  0  0  0  0
  186.4590  178.7680  143.9350 C   0  0  2  0  0  3  0  0  0  0  0  0
  187.6040  178.8560  143.1190 O   0  0  0  0  0  0  0  0  0  0  0  0
  190.1820  176.9060  145.0780 C   0  0  0  0  0  2  0  0  0  0  0  0
  191.0130  176.4870  144.0280 O   0  0  0  0  0  0  0  0  0  0  0  0
  189.3850  178.1370  144.6530 C   0  0  0  0  0  2  0  0  0  0  0  0
  189.2600  177.4100  142.3380 O   0  0  0  0  0  0  0  0  0  0  0  0
  190.3150  175.4580  143.3730 C   0  0  0  0  0  2  0  0  0  0  0  0
  189.2790  176.0070  142.3690 C   0  0  0  0  0  2  0  0  0  0  0  0
  188.4940  177.8100  143.4480 C   0  0  2  0  0  3  0  0  0  0  0  0
  186.4290  177.4090  144.6450 C   0  0  0  0  0  2  0  0  0  0  0  0
  185.6380  177.4490  145.9470 C   0  0  0  0  0  2  0  0  0  0  0  0
  186.3990  178.2330  146.9940 C   0  0  0  0  0  2  0  0  0  0  0  0
  188.1310  177.9800  148.3400 C   0  0  0  0  0  1  0  0  0  0  0  0
  187.7290  177.8090  147.0170 O   0  0  0  0  0  0  0  0  0  0  0  0
  193.1420  172.6870  135.4390 C   0  0  0  0  0  2  0  0  0  0  0  0
  192.0750  171.6050  135.6010 C   0  0  0  0  0  2  0  0  0  0  0  0
  190.9320  171.7310  134.5980 C   0  0  0  0  0  2  0  0  0  0  0  0
  188.6840  172.4790  135.3260 C   0  0  0  0  0  0  0  0  0  0  0  0
  187.2090  169.9790  135.6410 O   0  0  0  0  0  0  0  0  0  0  0  0
  187.3780  172.3110  135.8440 N   0  0  0  0  0  0  0  0  0  0  0  0
  187.4180  174.3750  135.0800 C   0  0  2  0  0  3  0  0  0  0  0  0
  189.6000  171.5140  135.2470 C   0  0  0  0  0  3  0  0  0  0  0  0
  186.7370  173.5040  135.9690 O   0  0  0  0  0  0  0  0  0  0  0  0
  188.8360  173.8530  134.8490 C   0  0  0  0  0  2  0  0  0  0  0  0
  186.6240  171.0950  135.7060 C   0  0  0  0  0  0  0  0  0  0  0  0
  184.5670  171.7110  136.7460 O   0  0  0  0  0  0  0  0  0  0  0  0
  184.5750  169.7690  135.3360 C   0  0  0  0  0  2  0  0  0  0  0  0
  181.1660  171.4180  135.5740 C   0  0  2  0  0  3  0  0  0  0  0  0
  182.3810  170.7290  136.1320 C   0  0  1  0  0  3  0  0  0  0  0  0
  180.5050  170.6590  134.6020 O   0  0  0  0  0  1  0  0  0  0  0  0
  185.1370  171.1600  135.5820 C   0  0  2  0  0  3  0  0  0  0  0  0
  183.0950  169.9150  135.0380 C   0  0  0  0  0  2  0  0  0  0  0  0
  181.7240  172.7010  134.9800 C   0  0  0  0  0  2  0  0  0  0  0  0
  183.1910  171.9620  136.5190 C   0  0  2  0  0  3  0  0  0  0  0  0
  182.9800  172.9760  135.5640 O   0  0  0  0  0  0  0  0  0  0  0  0
  187.4800  175.6520  135.6390 O   0  0  0  0  0  0  0  0  0  0  0  0
  186.3760  175.7450  136.4180 N   0  0  0  0  0  2  0  0  0  0  0  0
  185.3350  176.3380  135.5930 C   0  0  0  0  0  2  0  0  0  0  0  0
  183.1200  177.3440  136.1990 C   0  0  0  0  0  2  0  0  0  0  0  0
  182.7190  176.1850  135.3030 C   0  0  0  0  0  2  0  0  0  0  0  0
  183.9500  176.0790  136.1830 C   0  0  0  0  0  0  0  0  0  0  0  0
  183.8270  175.3180  137.4970 C   0  0  0  0  0  2  0  0  0  0  0  0
  182.6660  175.8410  138.3360 C   0  0  0  0  0  2  0  0  0  0  0  0
  181.4520  174.9230  138.2400 C   0  0  0  0  0  2  0  0  0  0  0  0
  180.1800  175.6400  138.6680 C   0  0  0  0  0  2  0  0  0  0  0  0
  179.1150  175.3810  137.7120 N   0  0  0  0  0  1  0  0  0  0  0  0
  1  2  1  0  0  0  0
  1  4  1  0  0  0  0
  3  2  2  0  0  0  0
  5  6  1  0  0  0  0
  5  4  1  0  0  0  0
  7  6  1  0  0  0  0
  7  8  1  0  0  0  0
  8  9  1  0  0  0  0
  9 10  1  0  0  0  0
 10 11  1  0  0  0  0
 12 11  1  0  0  0  0
 13 12  1  0  0  0  0
 13 14  1  0  0  0  0
 15 14  1  0  0  0  0
 16 15  1  6  0  0  0
 16 20  1  0  0  0  0
 17 16  1  0  0  0  0
 18 17  1  0  0  0  0
 19 18  1  0  0  0  0
 20 21  1  0  0  0  0
 22 21  1  6  0  0  0
 22 31  1  0  0  0  0
 23 22  1  0  0  0  0
 25 24  1  0  0  0  0
 26 24  1  0  0  0  0
 27 29  1  0  0  0  0
 27 30  1  0  0  0  0
 28 25  1  0  0  0  0
 29 28  1  0  0  0  0
 30 23  1  6  0  0  0
 30 26  1  0  0  0  0
 31 32  1  0  0  0  0
 32 33  1  0  0  0  0
 33 35  1  0  0  0  0
 35 34  1  0  0  0  0
 36 37  1  0  0  0  0
 36  1  1  0  0  0  0
 38 43  1  0  0  0  0
 38 37  1  0  0  0  0
 39 41  1  0  0  0  0
 40 46  2  0  0  0  0
 41 44  1  0  0  0  0
 42 57  1  1  0  0  0
 42 44  1  0  0  0  0
 43 39  2  0  0  0  0
 45 42  1  0  0  0  0
 45 39  1  0  0  0  0
 46 41  1  0  0  0  0
 48 52  1  0  0  0  0
 49 51  1  6  0  0  0
 49 50  1  0  0  0  0
 50 53  1  6  0  0  0
 50 55  1  0  0  0  0
 52 46  1  1  0  0  0
 52 47  1  0  0  0  0
 53 48  1  0  0  0  0
 54 56  1  0  0  0  0
 54 49  1  0  0  0  0
 55 56  1  6  0  0  0
 55 47  1  0  0  0  0
 57 58  1  0  0  0  0
 59 62  1  0  0  0  0
 59 58  1  0  0  0  0
 61 62  1  0  0  0  0
 61 60  1  0  0  0  0
 62 60  1  0  0  0  0
 62 63  1  0  0  0  0
 63 64  1  0  0  0  0
 65 64  1  0  0  0  0
 65 66  1  0  0  0  0
 67 66  1  0  0  0  0
M  END
>  <MODEL>
1

>  <REMARK>
 VINA RESULT:      -3.6      0.000      0.000
  Name = 
  37 active torsions:
  status: ('A' for Active; 'I' for Inactive)
    1  A    between atoms: C_1  and  C_15
    2  A    between atoms: C_1  and  C_36
    3  A    between atoms: N_7  and  C_11
    4  A    between atoms: N_7  and  O_32
    5  A    between atoms: C_8  and  C_19
    6  A    between atoms: C_10  and  O_64
    7  A    between atoms: C_11  and  C_37
    8  A    between atoms: O_13  and  C_57
    9  A    between atoms: O_13  and  C_61
   10  A    between atoms: C_14  and  O_42
   11  A    between atoms: C_14  and  C_44
   12  A    between atoms: C_15  and  C_31
   13  A    between atoms: C_17  and  C_53
   14  A    between atoms: C_17  and  C_54
   15  A    between atoms: C_19  and  C_36
   16  A    between atoms: C_21  and  C_30
   17  A    between atoms: C_21  and  O_50
   18  A    between atoms: O_23  and  C_24
   19  A    between atoms: O_23  and  N_63
   20  A    between atoms: C_26  and  C_33
   21  A    between atoms: C_27  and  O_32
   22  A    between atoms: C_27  and  C_57
   23  A    between atoms: C_29  and  C_35
   24  A    between atoms: C_29  and  O_42
   25  A    between atoms: C_30  and  C_41
   26  A    between atoms: C_31  and  N_63
   27  A    between atoms: C_33  and  C_37
   28  A    between atoms: C_35  and  O_52
   29  A    between atoms: O_38  and  C_39
   30  A    between atoms: O_38  and  C_56
   31  A    between atoms: C_39  and  C_41
   32  A    between atoms: C_39  and  C_54
   33  A    between atoms: C_44  and  C_53
   34  A    between atoms: C_46  and  O_52
   35  A    between atoms: C_46  and  C_61
   36  A    between atoms: C_53  and  O_64
   37  A    between atoms: C_55  and  C_65
                            x       y       z     vdW  Elec       q    Type
                         _______ _______ _______ _____ _____    ______ ____

>  <TORSDO>
F 37

$$$$
=
 OpenBabel11062416243D

 67 71  0  0  1  0  0  0  0  0999 V2000
  186.3220  177.8070  136.4590 N   0  0  0  0  0  0  0  0  0  0  0  0
  185.3570  176.8220  136.8480 C   0  0  0  0  0  3  0  0  0  0  0  0
  185.1360  175.7740  136.1200 N   0  0  0  0  0  2  0  0  0  0  0  0
  186.5280  178.8820  137.2640 O   0  0  0  0  0  0  0  0  0  0  0  0
  186.0870  178.4900  138.5320 C   0  0  0  0  0  2  0  0  0  0  0  0
  184.7210  179.0910  138.8090 C   0  0  0  0  0  2  0  0  0  0  0  0
  184.7490  179.7940  140.0210 O   0  0  0  0  0  0  0  0  0  0  0  0
  185.3130  178.9070  140.9440 C   0  0  0  0  0  2  0  0  0  0  0  0
  184.8490  179.2490  142.3500 C   0  0  0  0  0  2  0  0  0  0  0  0
  184.7590  178.0830  143.1120 O   0  0  0  0  0  0  0  0  0  0  0  0
  183.8490  178.3900  144.1270 C   0  0  0  0  0  2  0  0  0  0  0  0
  182.9990  179.5830  143.7220 C   0  0  0  0  0  2  0  0  0  0  0  0
  182.7480  179.5560  142.3490 O   0  0  0  0  0  0  0  0  0  0  0  0
  181.3950  179.2230  142.2300 C   0  0  0  0  0  2  0  0  0  0  0  0
  181.2260  177.7250  142.0050 C   0  0  0  0  0  2  0  0  0  0  0  0
  180.5550  177.4040  140.6620 C   0  0  2  0  0  3  0  0  0  0  0  0
  181.4970  177.2030  139.6260 O   0  0  0  0  0  0  0  0  0  0  0  0
  182.1300  175.9600  139.8070 C   0  0  0  0  0  2  0  0  0  0  0  0
  182.0460  175.1560  138.5260 C   0  0  0  0  0  1  0  0  0  0  0  0
  179.4520  178.4070  140.3040 C   0  0  0  0  0  2  0  0  0  0  0  0
  179.0990  178.3460  138.8220 C   0  0  0  0  0  2  0  0  0  0  0  0
  179.4110  179.6670  138.1220 C   0  0  2  0  0  3  0  0  0  0  0  0
  179.2960  179.5070  136.7280 O   0  0  0  0  0  0  0  0  0  0  0  0
  181.7470  177.1330  135.1040 C   0  0  0  0  0  2  0  0  0  0  0  0
  180.8550  176.1760  134.5970 O   0  0  0  0  0  0  0  0  0  0  0  0
  181.0230  178.4570  135.3270 C   0  0  0  0  0  2  0  0  0  0  0  0
  178.9310  177.3580  135.8950 O   0  0  0  0  0  0  0  0  0  0  0  0
  180.4250  175.4270  135.7060 C   0  0  0  0  0  2  0  0  0  0  0  0
  179.2830  176.1280  136.4720 C   0  0  0  0  0  2  0  0  0  0  0  0
  179.8890  178.2830  136.3470 C   0  0  2  0  0  3  0  0  0  0  0  0
  180.7970  180.2200  138.4710 C   0  0  0  0  0  2  0  0  0  0  0  0
  180.7510  181.6780  138.9100 C   0  0  0  0  0  2  0  0  0  0  0  0
  179.9220  182.4890  137.9360 C   0  0  0  0  0  2  0  0  0  0  0  0
  180.2900  182.6950  135.7690 C   0  0  0  0  0  1  0  0  0  0  0  0
  180.7650  183.1080  137.0120 O   0  0  0  0  0  0  0  0  0  0  0  0
  186.9960  177.7380  135.1630 C   0  0  0  0  0  2  0  0  0  0  0  0
  188.4100  177.1750  135.2950 C   0  0  0  0  0  2  0  0  0  0  0  0
  189.3190  178.0260  136.1770 C   0  0  0  0  0  2  0  0  0  0  0  0
  191.1920  176.8460  137.2920 C   0  0  0  0  0  0  0  0  0  0  0  0
  192.8780  175.9990  135.0640 O   0  0  0  0  0  0  0  0  0  0  0  0
  192.4650  176.2330  137.3620 N   0  0  0  0  0  0  0  0  0  0  0  0
  191.4900  175.7220  139.2680 C   0  0  2  0  0  3  0  0  0  0  0  0
  190.7130  177.4820  136.2230 C   0  0  0  0  0  3  0  0  0  0  0  0
  192.7510  175.8280  138.6290 O   0  0  0  0  0  0  0  0  0  0  0  0
  190.4820  176.6210  138.5510 C   0  0  0  0  0  2  0  0  0  0  0  0
  193.0990  175.5980  136.2390 C   0  0  0  0  0  0  0  0  0  0  0  0
  193.2130  173.2430  136.6090 O   0  0  0  0  0  0  0  0  0  0  0  0
  194.8350  174.6320  137.7040 C   0  0  0  0  0  2  0  0  0  0  0  0
  196.0580  171.0850  137.1320 C   0  0  2  0  0  3  0  0  0  0  0  0
  195.1320  172.1250  137.6990 C   0  0  1  0  0  3  0  0  0  0  0  0
  197.3880  171.2630  137.5300 O   0  0  0  0  0  1  0  0  0  0  0  0
  193.9820  174.4140  136.4640 C   0  0  2  0  0  3  0  0  0  0  0  0
  195.8340  173.4930  137.7830 C   0  0  0  0  0  2  0  0  0  0  0  0
  195.9100  171.2570  135.6290 C   0  0  0  0  0  2  0  0  0  0  0  0
  194.0720  172.1160  136.6030 C   0  0  2  0  0  3  0  0  0  0  0  0
  194.6950  171.9220  135.3540 O   0  0  0  0  0  0  0  0  0  0  0  0
  191.6070  176.1290  140.5980 O   0  0  0  0  0  0  0  0  0  0  0  0
  190.3330  176.2220  141.0480 N   0  0  0  0  0  2  0  0  0  0  0  0
  190.4040  176.2060  142.5010 C   0  0  0  0  0  2  0  0  0  0  0  0
  189.3260  178.4620  142.6760 C   0  0  0  0  0  2  0  0  0  0  0  0
  188.1720  177.5820  142.2300 C   0  0  0  0  0  2  0  0  0  0  0  0
  189.2650  177.0160  143.1160 C   0  0  0  0  0  0  0  0  0  0  0  0
  188.9870  176.9020  144.6090 C   0  0  0  0  0  2  0  0  0  0  0  0
  190.1730  177.3900  145.4350 C   0  0  0  0  0  2  0  0  0  0  0  0
  189.7230  177.9400  146.7840 C   0  0  0  0  0  2  0  0  0  0  0  0
  188.2470  177.6700  147.0280 C   0  0  0  0  0  2  0  0  0  0  0  0
  188.0700  176.9500  148.2800 N   0  0  0  0  0  1  0  0  0  0  0  0
  1  2  1  0  0  0  0
  1  4  1  0  0  0  0
  3  2  2  0  0  0  0
  4  5  1  0  0  0  0
  5  6  1  0  0  0  0
  6  7  1  0  0  0  0
  7  8  1  0  0  0  0
  8  9  1  0  0  0  0
  9 10  1  0  0  0  0
 10 11  1  0  0  0  0
 12 11  1  0  0  0  0
 13 12  1  0  0  0  0
 14 13  1  0  0  0  0
 15 14  1  0  0  0  0
 16 20  1  6  0  0  0
 16 15  1  0  0  0  0
 17 18  1  0  0  0  0
 17 16  1  0  0  0  0
 19 18  1  0  0  0  0
 21 20  1  0  0  0  0
 22 31  1  6  0  0  0
 22 21  1  0  0  0  0
 23 22  1  0  0  0  0
 24 26  1  0  0  0  0
 25 24  1  0  0  0  0
 25 28  1  0  0  0  0
 26 30  1  0  0  0  0
 27 30  1  0  0  0  0
 27 29  1  0  0  0  0
 28 29  1  0  0  0  0
 30 23  1  6  0  0  0
 31 32  1  0  0  0  0
 33 32  1  0  0  0  0
 34 35  1  0  0  0  0
 35 33  1  0  0  0  0
 36 37  1  0  0  0  0
 36  1  1  0  0  0  0
 37 38  1  0  0  0  0
 38 43  1  0  0  0  0
 39 41  1  0  0  0  0
 39 45  1  0  0  0  0
 40 46  2  0  0  0  0
 41 44  1  0  0  0  0
 42 57  1  1  0  0  0
 43 39  2  0  0  0  0
 44 42  1  0  0  0  0
 45 42  1  0  0  0  0
 46 41  1  0  0  0  0
 48 53  1  0  0  0  0
 49 51  1  1  0  0  0
 49 50  1  0  0  0  0
 50 53  1  6  0  0  0
 52 46  1  1  0  0  0
 52 47  1  0  0  0  0
 52 48  1  0  0  0  0
 54 49  1  0  0  0  0
 55 56  1  6  0  0  0
 55 47  1  0  0  0  0
 55 50  1  0  0  0  0
 56 54  1  0  0  0  0
 57 58  1  0  0  0  0
 58 59  1  0  0  0  0
 59 62  1  0  0  0  0
 60 62  1  0  0  0  0
 61 60  1  0  0  0  0
 61 62  1  0  0  0  0
 62 63  1  0  0  0  0
 63 64  1  0  0  0  0
 64 65  1  0  0  0  0
 65 66  1  0  0  0  0
 66 67  1  0  0  0  0
M  END
>  <MODEL>
2

>  <REMARK>
 VINA RESULT:      -3.4      3.302      9.626
  Name = 
  37 active torsions:
  status: ('A' for Active; 'I' for Inactive)
    1  A    between atoms: C_1  and  C_15
    2  A    between atoms: C_1  and  C_36
    3  A    between atoms: N_7  and  C_11
    4  A    between atoms: N_7  and  O_32
    5  A    between atoms: C_8  and  C_19
    6  A    between atoms: C_10  and  O_64
    7  A    between atoms: C_11  and  C_37
    8  A    between atoms: O_13  and  C_57
    9  A    between atoms: O_13  and  C_61
   10  A    between atoms: C_14  and  O_42
   11  A    between atoms: C_14  and  C_44
   12  A    between atoms: C_15  and  C_31
   13  A    between atoms: C_17  and  C_53
   14  A    between atoms: C_17  and  C_54
   15  A    between atoms: C_19  and  C_36
   16  A    between atoms: C_21  and  C_30
   17  A    between atoms: C_21  and  O_50
   18  A    between atoms: O_23  and  C_24
   19  A    between atoms: O_23  and  N_63
   20  A    between atoms: C_26  and  C_33
   21  A    between atoms: C_27  and  O_32
   22  A    between atoms: C_27  and  C_57
   23  A    between atoms: C_29  and  C_35
   24  A    between atoms: C_29  and  O_42
   25  A    between atoms: C_30  and  C_41
   26  A    between atoms: C_31  and  N_63
   27  A    between atoms: C_33  and  C_37
   28  A    between atoms: C_35  and  O_52
   29  A    between atoms: O_38  and  C_39
   30  A    between atoms: O_38  and  C_56
   31  A    between atoms: C_39  and  C_41
   32  A    between atoms: C_39  and  C_54
   33  A    between atoms: C_44  and  C_53
   34  A    between atoms: C_46  and  O_52
   35  A    between atoms: C_46  and  C_61
   36  A    between atoms: C_53  and  O_64
   37  A    between atoms: C_55  and  C_65
                            x       y       z     vdW  Elec       q    Type
                         _______ _______ _______ _____ _____    ______ ____

>  <TORSDO>
F 37

$$$$
=
 OpenBabel11062416243D

 67 71  0  0  1  0  0  0  0  0999 V2000
  193.3940  173.3890  136.7330 N   0  0  0  0  0  0  0  0  0  0  0  0
  194.7390  173.2680  137.2120 C   0  0  0  0  0  3  0  0  0  0  0  0
  195.6820  172.8050  136.4540 N   0  0  0  0  0  2  0  0  0  0  0  0
  192.4430  173.8930  137.5620 O   0  0  0  0  0  0  0  0  0  0  0  0
  191.6430  174.7120  136.7580 C   0  0  0  0  0  2  0  0  0  0  0  0
  191.5100  176.0830  137.3940 C   0  0  0  0  0  2  0  0  0  0  0  0
  190.1650  176.3390  137.6930 O   0  0  0  0  0  0  0  0  0  0  0  0
  190.1540  176.7010  139.0440 C   0  0  0  0  0  2  0  0  0  0  0  0
  191.5350  177.1670  139.4720 C   0  0  0  0  0  2  0  0  0  0  0  0
  191.4160  178.1720  140.4330 O   0  0  0  0  0  0  0  0  0  0  0  0
  190.1840  177.9340  141.0480 C   0  0  0  0  0  2  0  0  0  0  0  0
  189.0660  178.5750  140.2400 C   0  0  0  0  0  2  0  0  0  0  0  0
  187.8750  178.5630  140.9670 O   0  0  0  0  0  0  0  0  0  0  0  0
  188.0350  177.5480  141.9170 C   0  0  0  0  0  2  0  0  0  0  0  0
  186.7420  177.3280  142.6930 C   0  0  0  0  0  2  0  0  0  0  0  0
  186.9060  177.5950  144.1960 C   0  0  2  0  0  3  0  0  0  0  0  0
  185.7860  178.2580  144.7490 O   0  0  0  0  0  0  0  0  0  0  0  0
  184.7320  178.2450  143.8180 C   0  0  0  0  0  2  0  0  0  0  0  0
  183.8390  179.4480  144.0440 C   0  0  0  0  0  1  0  0  0  0  0  0
  188.2440  178.2670  144.5300 C   0  0  0  0  0  2  0  0  0  0  0  0
  188.3980  178.4980  146.0290 C   0  0  0  0  0  2  0  0  0  0  0  0
  189.8490  178.3270  146.4720 C   0  0  2  0  0  3  0  0  0  0  0  0
  190.6760  178.1640  145.3440 O   0  0  0  0  0  0  0  0  0  0  0  0
  192.0010  174.7220  146.1710 C   0  0  0  0  0  2  0  0  0  0  0  0
  192.5880  174.3890  144.9410 O   0  0  0  0  0  0  0  0  0  0  0  0
  191.8710  176.2370  146.2960 C   0  0  0  0  0  2  0  0  0  0  0  0
  191.5180  176.5280  143.9090 O   0  0  0  0  0  0  0  0  0  0  0  0
  191.5230  174.0840  144.0760 C   0  0  0  0  0  2  0  0  0  0  0  0
  190.8920  175.3540  143.4630 C   0  0  0  0  0  2  0  0  0  0  0  0
  190.9760  176.7930  145.1800 C   0  0  2  0  0  3  0  0  0  0  0  0
  190.0490  177.1550  147.4400 C   0  0  0  0  0  2  0  0  0  0  0  0
  188.8390  176.9270  148.3380 C   0  0  0  0  0  2  0  0  0  0  0  0
  187.9930  178.1800  148.3990 C   0  0  0  0  0  2  0  0  0  0  0  0
  185.9390  178.9100  148.0490 C   0  0  0  0  0  1  0  0  0  0  0  0
  186.6520  177.8270  148.5590 O   0  0  0  0  0  0  0  0  0  0  0  0
  193.0050  172.8710  135.4220 C   0  0  0  0  0  2  0  0  0  0  0  0
  191.8550  171.8720  135.5320 C   0  0  0  0  0  2  0  0  0  0  0  0
  190.6830  172.1970  134.6090 C   0  0  0  0  0  2  0  0  0  0  0  0
  188.4180  172.8780  135.3470 C   0  0  0  0  0  0  0  0  0  0  0  0
  187.0370  170.3340  135.7270 O   0  0  0  0  0  0  0  0  0  0  0  0
  187.1240  172.6740  135.8820 N   0  0  0  0  0  0  0  0  0  0  0  0
  187.0810  174.7230  135.0770 C   0  0  2  0  0  3  0  0  0  0  0  0
  189.3670  171.9460  135.2770 C   0  0  0  0  0  3  0  0  0  0  0  0
  186.4420  173.8460  135.9900 O   0  0  0  0  0  0  0  0  0  0  0  0
  188.5150  174.2480  134.8410 C   0  0  0  0  0  2  0  0  0  0  0  0
  186.4130  171.4290  135.7770 C   0  0  0  0  0  0  0  0  0  0  0  0
  184.3520  172.1330  136.7520 O   0  0  0  0  0  0  0  0  0  0  0  0
  184.3970  170.0130  135.6270 C   0  0  0  0  0  2  0  0  0  0  0  0
  180.9470  171.5930  135.6840 C   0  0  2  0  0  3  0  0  0  0  0  0
  182.1860  171.0200  136.3140 C   0  0  1  0  0  3  0  0  0  0  0  0
  180.2950  170.6880  134.8380 O   0  0  0  0  0  1  0  0  0  0  0  0
  184.9230  171.4390  135.6670 C   0  0  2  0  0  3  0  0  0  0  0  0
  182.9100  170.0780  135.3340 C   0  0  0  0  0  2  0  0  0  0  0  0
  181.4630  172.7930  134.9080 C   0  0  0  0  0  2  0  0  0  0  0  0
  182.9670  172.3150  136.5130 C   0  0  2  0  0  3  0  0  0  0  0  0
  182.7170  173.1800  135.4290 O   0  0  0  0  0  0  0  0  0  0  0  0
  187.1040  176.0120  135.6100 O   0  0  0  0  0  0  0  0  0  0  0  0
  186.0700  176.0450  136.4850 N   0  0  0  0  0  2  0  0  0  0  0  0
  185.2120  177.1440  136.0720 C   0  0  0  0  0  2  0  0  0  0  0  0
  182.8110  176.6240  135.5710 C   0  0  0  0  0  2  0  0  0  0  0  0
  183.1390  175.6310  136.6720 C   0  0  0  0  0  2  0  0  0  0  0  0
  183.8060  176.9920  136.6500 C   0  0  0  0  0  0  0  0  0  0  0  0
  183.2530  178.0750  137.5680 C   0  0  0  0  0  2  0  0  0  0  0  0
  183.4130  177.6940  139.0360 C   0  0  0  0  0  2  0  0  0  0  0  0
  182.8920  178.7930  139.9560 C   0  0  0  0  0  2  0  0  0  0  0  0
  182.0640  178.2170  141.0940 C   0  0  0  0  0  2  0  0  0  0  0  0
  180.9910  177.3900  140.5630 N   0  0  0  0  0  1  0  0  0  0  0  0
  1  2  1  0  0  0  0
  1  4  1  0  0  0  0
  3  2  2  0  0  0  0
  5  6  1  0  0  0  0
  5  4  1  0  0  0  0
  6  7  1  0  0  0  0
  7  8  1  0  0  0  0
  8  9  1  0  0  0  0
  9 10  1  0  0  0  0
 10 11  1  0  0  0  0
 12 13  1  0  0  0  0
 12 11  1  0  0  0  0
 13 14  1  0  0  0  0
 14 15  1  0  0  0  0
 16 15  1  6  0  0  0
 16 20  1  0  0  0  0
 16 17  1  0  0  0  0
 18 19  1  0  0  0  0
 18 17  1  0  0  0  0
 20 21  1  0  0  0  0
 22 21  1  6  0  0  0
 22 31  1  0  0  0  0
 23 22  1  0  0  0  0
 24 26  1  0  0  0  0
 25 24  1  0  0  0  0
 27 30  1  0  0  0  0
 28 25  1  0  0  0  0
 29 27  1  0  0  0  0
 29 28  1  0  0  0  0
 30 23  1  1  0  0  0
 30 26  1  0  0  0  0
 31 32  1  0  0  0  0
 32 33  1  0  0  0  0
 33 35  1  0  0  0  0
 34 35  1  0  0  0  0
 36 37  1  0  0  0  0
 36  1  1  0  0  0  0
 38 43  1  0  0  0  0
 38 37  1  0  0  0  0
 39 41  1  0  0  0  0
 40 46  2  0  0  0  0
 41 44  1  0  0  0  0
 42 57  1  1  0  0  0
 42 44  1  0  0  0  0
 43 39  2  0  0  0  0
 45 42  1  0  0  0  0
 45 39  1  0  0  0  0
 46 41  1  0  0  0  0
 48 52  1  0  0  0  0
 49 51  1  6  0  0  0
 49 50  1  0  0  0  0
 50 53  1  6  0  0  0
 50 55  1  0  0  0  0
 52 46  1  1  0  0  0
 52 47  1  0  0  0  0
 53 48  1  0  0  0  0
 54 56  1  0  0  0  0
 54 49  1  0  0  0  0
 55 56  1  6  0  0  0
 55 47  1  0  0  0  0
 57 58  1  0  0  0  0
 59 58  1  0  0  0  0
 59 62  1  0  0  0  0
 60 62  1  0  0  0  0
 60 61  1  0  0  0  0
 62 61  1  0  0  0  0
 62 63  1  0  0  0  0
 63 64  1  0  0  0  0
 64 65  1  0  0  0  0
 65 66  1  0  0  0  0
 67 66  1  0  0  0  0
M  END
>  <MODEL>
3

>  <REMARK>
 VINA RESULT:      -1.9      1.433      2.406
  Name = 
  37 active torsions:
  status: ('A' for Active; 'I' for Inactive)
    1  A    between atoms: C_1  and  C_15
    2  A    between atoms: C_1  and  C_36
    3  A    between atoms: N_7  and  C_11
    4  A    between atoms: N_7  and  O_32
    5  A    between atoms: C_8  and  C_19
    6  A    between atoms: C_10  and  O_64
    7  A    between atoms: C_11  and  C_37
    8  A    between atoms: O_13  and  C_57
    9  A    between atoms: O_13  and  C_61
   10  A    between atoms: C_14  and  O_42
   11  A    between atoms: C_14  and  C_44
   12  A    between atoms: C_15  and  C_31
   13  A    between atoms: C_17  and  C_53
   14  A    between atoms: C_17  and  C_54
   15  A    between atoms: C_19  and  C_36
   16  A    between atoms: C_21  and  C_30
   17  A    between atoms: C_21  and  O_50
   18  A    between atoms: O_23  and  C_24
   19  A    between atoms: O_23  and  N_63
   20  A    between atoms: C_26  and  C_33
   21  A    between atoms: C_27  and  O_32
   22  A    between atoms: C_27  and  C_57
   23  A    between atoms: C_29  and  C_35
   24  A    between atoms: C_29  and  O_42
   25  A    between atoms: C_30  and  C_41
   26  A    between atoms: C_31  and  N_63
   27  A    between atoms: C_33  and  C_37
   28  A    between atoms: C_35  and  O_52
   29  A    between atoms: O_38  and  C_39
   30  A    between atoms: O_38  and  C_56
   31  A    between atoms: C_39  and  C_41
   32  A    between atoms: C_39  and  C_54
   33  A    between atoms: C_44  and  C_53
   34  A    between atoms: C_46  and  O_52
   35  A    between atoms: C_46  and  C_61
   36  A    between atoms: C_53  and  O_64
   37  A    between atoms: C_55  and  C_65
                            x       y       z     vdW  Elec       q    Type
                         _______ _______ _______ _____ _____    ______ ____

>  <TORSDO>
F 37

$$$$
=
 OpenBabel11062416243D

 67 71  0  0  1  0  0  0  0  0999 V2000
  186.9180  178.0210  136.3660 N   0  0  0  0  0  0  0  0  0  0  0  0
  186.0240  176.9110  136.5030 C   0  0  0  0  0  3  0  0  0  0  0  0
  186.0430  175.9250  135.6640 N   0  0  0  0  0  2  0  0  0  0  0  0
  186.8680  179.0250  137.2800 O   0  0  0  0  0  0  0  0  0  0  0  0
  186.2480  178.4750  138.4060 C   0  0  0  0  0  2  0  0  0  0  0  0
  184.8060  178.9430  138.4780 C   0  0  0  0  0  2  0  0  0  0  0  0
  184.6140  179.7110  139.6340 O   0  0  0  0  0  0  0  0  0  0  0  0
  185.2860  179.0200  140.6470 C   0  0  0  0  0  2  0  0  0  0  0  0
  184.5630  179.1980  141.9710 C   0  0  0  0  0  2  0  0  0  0  0  0
  184.7230  178.0530  142.7520 O   0  0  0  0  0  0  0  0  0  0  0  0
  183.6620  178.0880  143.6600 C   0  0  0  0  0  2  0  0  0  0  0  0
  182.5860  179.0440  143.1680 C   0  0  0  0  0  2  0  0  0  0  0  0
  182.3420  178.8400  141.8090 O   0  0  0  0  0  0  0  0  0  0  0  0
  180.9590  178.9830  141.6600 C   0  0  0  0  0  2  0  0  0  0  0  0
  180.2340  177.7210  142.1130 C   0  0  0  0  0  2  0  0  0  0  0  0
  179.4250  177.0700  140.9820 C   0  0  2  0  0  3  0  0  0  0  0  0
  179.7570  175.7080  140.7990 O   0  0  0  0  0  0  0  0  0  0  0  0
  178.9420  174.9160  141.6290 C   0  0  0  0  0  2  0  0  0  0  0  0
  179.6120  173.5790  141.8730 C   0  0  0  0  0  1  0  0  0  0  0  0
  179.4640  177.8900  139.6860 C   0  0  0  0  0  2  0  0  0  0  0  0
  179.1230  177.0350  138.4710 C   0  0  0  0  0  2  0  0  0  0  0  0
  180.0940  177.2930  137.3200 C   0  0  2  0  0  3  0  0  0  0  0  0
  180.8640  178.4400  137.5930 O   0  0  0  0  0  0  0  0  0  0  0  0
  180.8530  180.8140  134.6530 C   0  0  0  0  0  2  0  0  0  0  0  0
  180.5610  182.0160  135.3160 O   0  0  0  0  0  0  0  0  0  0  0  0
  181.4450  179.8060  135.6340 C   0  0  0  0  0  2  0  0  0  0  0  0
  180.1240  180.6500  137.4910 O   0  0  0  0  0  0  0  0  0  0  0  0
  179.1950  181.9550  135.6380 C   0  0  0  0  0  2  0  0  0  0  0  0
  178.9380  181.1480  136.9290 C   0  0  0  0  0  2  0  0  0  0  0  0
  180.4440  179.4950  136.7540 C   0  0  2  0  0  3  0  0  0  0  0  0
  179.3940  177.4450  135.9650 C   0  0  0  0  0  2  0  0  0  0  0  0
  179.4880  176.1850  135.1140 C   0  0  0  0  0  2  0  0  0  0  0  0
  180.4100  175.1810  135.7720 C   0  0  0  0  0  2  0  0  0  0  0  0
  181.1170  173.0940  135.6390 C   0  0  0  0  0  1  0  0  0  0  0  0
  180.7380  174.1810  134.8550 O   0  0  0  0  0  0  0  0  0  0  0  0
  187.7930  178.1520  135.2000 C   0  0  0  0  0  2  0  0  0  0  0  0
  189.2050  177.6510  135.4990 C   0  0  0  0  0  2  0  0  0  0  0  0
  189.9130  178.4570  136.5840 C   0  0  0  0  0  2  0  0  0  0  0  0
  191.7740  177.2750  137.7170 C   0  0  0  0  0  0  0  0  0  0  0  0
  193.8010  177.0480  135.6270 O   0  0  0  0  0  0  0  0  0  0  0  0
  193.0950  176.7890  137.8500 N   0  0  0  0  0  0  0  0  0  0  0  0
  191.9740  175.8230  139.4800 C   0  0  2  0  0  3  0  0  0  0  0  0
  191.3490  178.0560  136.7230 C   0  0  0  0  0  3  0  0  0  0  0  0
  193.2790  176.1760  139.0510 O   0  0  0  0  0  0  0  0  0  0  0  0
  190.9540  176.7400  138.8040 C   0  0  0  0  0  2  0  0  0  0  0  0
  193.9300  176.4500  136.7300 C   0  0  0  0  0  0  0  0  0  0  0  0
  196.1740  175.7320  136.3530 O   0  0  0  0  0  0  0  0  0  0  0  0
  194.4210  174.1110  136.1130 C   0  0  0  0  0  2  0  0  0  0  0  0
  197.7650  172.5610  137.0150 C   0  0  2  0  0  3  0  0  0  0  0  0
  196.8290  173.3550  136.1460 C   0  0  1  0  0  3  0  0  0  0  0  0
  197.3290  171.2490  137.2310 O   0  0  0  0  0  1  0  0  0  0  0  0
  194.9200  175.3380  136.8590 C   0  0  2  0  0  3  0  0  0  0  0  0
  195.3660  172.9660  136.4250 C   0  0  0  0  0  2  0  0  0  0  0  0
  197.8000  173.3470  138.3150 C   0  0  0  0  0  2  0  0  0  0  0  0
  197.1400  174.7490  136.6820 C   0  0  2  0  0  3  0  0  0  0  0  0
  197.3780  174.6720  138.0690 O   0  0  0  0  0  0  0  0  0  0  0  0
  191.8840  175.9740  140.8650 O   0  0  0  0  0  0  0  0  0  0  0  0
  191.8440  177.3130  141.0670 N   0  0  0  0  0  2  0  0  0  0  0  0
  191.7100  177.5120  142.5020 C   0  0  0  0  0  2  0  0  0  0  0  0
  189.5690  178.5420  143.3020 C   0  0  0  0  0  2  0  0  0  0  0  0
  189.1110  177.7150  142.1140 C   0  0  0  0  0  2  0  0  0  0  0  0
  190.2780  177.2490  142.9630 C   0  0  0  0  0  0  0  0  0  0  0  0
  190.0150  176.1790  144.0140 C   0  0  0  0  0  2  0  0  0  0  0  0
  189.8820  176.7880  145.4070 C   0  0  0  0  0  2  0  0  0  0  0  0
  191.2290  177.2680  145.9350 C   0  0  0  0  0  2  0  0  0  0  0  0
  191.4940  176.7410  147.3370 C   0  0  0  0  0  2  0  0  0  0  0  0
  192.6190  175.8190  147.3200 N   0  0  0  0  0  1  0  0  0  0  0  0
  1  2  1  0  0  0  0
  1  4  1  0  0  0  0
  3  2  2  0  0  0  0
  4  5  1  0  0  0  0
  5  6  1  0  0  0  0
  6  7  1  0  0  0  0
  7  8  1  0  0  0  0
  8  9  1  0  0  0  0
  9 10  1  0  0  0  0
 10 11  1  0  0  0  0
 12 11  1  0  0  0  0
 13 12  1  0  0  0  0
 14 13  1  0  0  0  0
 14 15  1  0  0  0  0
 16 20  1  6  0  0  0
 16 15  1  0  0  0  0
 17 16  1  0  0  0  0
 17 18  1  0  0  0  0
 18 19  1  0  0  0  0
 21 20  1  0  0  0  0
 22 31  1  6  0  0  0
 22 23  1  0  0  0  0
 22 21  1  0  0  0  0
 24 25  1  0  0  0  0
 24 26  1  0  0  0  0
 25 28  1  0  0  0  0
 26 30  1  0  0  0  0
 28 29  1  0  0  0  0
 29 27  1  0  0  0  0
 30 27  1  0  0  0  0
 30 23  1  1  0  0  0
 32 33  1  0  0  0  0
 32 31  1  0  0  0  0
 35 34  1  0  0  0  0
 35 33  1  0  0  0  0
 36 37  1  0  0  0  0
 36  1  1  0  0  0  0
 37 38  1  0  0  0  0
 38 43  1  0  0  0  0
 39 41  1  0  0  0  0
 39 45  1  0  0  0  0
 40 46  2  0  0  0  0
 41 44  1  0  0  0  0
 42 57  1  1  0  0  0
 43 39  2  0  0  0  0
 44 42  1  0  0  0  0
 45 42  1  0  0  0  0
 46 41  1  0  0  0  0
 47 52  1  0  0  0  0
 48 53  1  0  0  0  0
 48 52  1  0  0  0  0
 49 51  1  1  0  0  0
 49 54  1  0  0  0  0
 50 53  1  1  0  0  0
 50 55  1  0  0  0  0
 50 49  1  0  0  0  0
 52 46  1  6  0  0  0
 55 47  1  1  0  0  0
 55 56  1  0  0  0  0
 56 54  1  0  0  0  0
 57 58  1  0  0  0  0
 58 59  1  0  0  0  0
 59 62  1  0  0  0  0
 61 62  1  0  0  0  0
 61 60  1  0  0  0  0
 62 60  1  0  0  0  0
 62 63  1  0  0  0  0
 63 64  1  0  0  0  0
 64 65  1  0  0  0  0
 65 66  1  0  0  0  0
 67 66  1  0  0  0  0
M  END
>  <MODEL>
4

>  <REMARK>
 VINA RESULT:      -1.6      3.312     10.388
  Name = 
  37 active torsions:
  status: ('A' for Active; 'I' for Inactive)
    1  A    between atoms: C_1  and  C_15
    2  A    between atoms: C_1  and  C_36
    3  A    between atoms: N_7  and  C_11
    4  A    between atoms: N_7  and  O_32
    5  A    between atoms: C_8  and  C_19
    6  A    between atoms: C_10  and  O_64
    7  A    between atoms: C_11  and  C_37
    8  A    between atoms: O_13  and  C_57
    9  A    between atoms: O_13  and  C_61
   10  A    between atoms: C_14  and  O_42
   11  A    between atoms: C_14  and  C_44
   12  A    between atoms: C_15  and  C_31
   13  A    between atoms: C_17  and  C_53
   14  A    between atoms: C_17  and  C_54
   15  A    between atoms: C_19  and  C_36
   16  A    between atoms: C_21  and  C_30
   17  A    between atoms: C_21  and  O_50
   18  A    between atoms: O_23  and  C_24
   19  A    between atoms: O_23  and  N_63
   20  A    between atoms: C_26  and  C_33
   21  A    between atoms: C_27  and  O_32
   22  A    between atoms: C_27  and  C_57
   23  A    between atoms: C_29  and  C_35
   24  A    between atoms: C_29  and  O_42
   25  A    between atoms: C_30  and  C_41
   26  A    between atoms: C_31  and  N_63
   27  A    between atoms: C_33  and  C_37
   28  A    between atoms: C_35  and  O_52
   29  A    between atoms: O_38  and  C_39
   30  A    between atoms: O_38  and  C_56
   31  A    between atoms: C_39  and  C_41
   32  A    between atoms: C_39  and  C_54
   33  A    between atoms: C_44  and  C_53
   34  A    between atoms: C_46  and  O_52
   35  A    between atoms: C_46  and  C_61
   36  A    between atoms: C_53  and  O_64
   37  A    between atoms: C_55  and  C_65
                            x       y       z     vdW  Elec       q    Type
                         _______ _______ _______ _____ _____    ______ ____

>  <TORSDO>
F 37

$$$$
=
 OpenBabel11062416243D

 67 72  0  0  1  0  0  0  0  0999 V2000
  187.0140  178.5670  148.3140 N   0  0  0  0  0  0  0  0  0  0  0  0
  186.8620  179.8600  148.9090 C   0  0  0  0  0  3  0  0  0  0  0  0
  186.5110  180.8870  148.2040 N   0  0  0  0  0  2  0  0  0  0  0  0
  187.3710  177.5170  149.0990 O   0  0  0  0  0  0  0  0  0  0  0  0
  188.3190  176.8020  148.3590 C   0  0  0  0  0  2  0  0  0  0  0  0
  188.2040  177.1650  146.8900 C   0  0  2  0  0  3  0  0  0  0  0  0
  189.3390  176.7170  146.2010 O   0  0  0  0  0  0  0  0  0  0  0  0
  189.7060  177.7810  145.3720 C   0  0  0  0  0  2  0  0  0  0  0  0
  191.2190  177.9040  145.3150 C   0  0  0  0  0  2  0  0  0  0  0  0
  191.6040  178.4080  144.0720 O   0  0  0  0  0  0  0  0  0  0  0  0
  191.0360  177.5350  143.1410 C   0  0  0  0  0  2  0  0  0  0  0  0
  191.0980  178.1440  141.7490 C   0  0  0  0  0  2  0  0  0  0  0  0
  191.0600  177.1410  140.7790 O   0  0  0  0  0  0  0  0  0  0  0  0
  192.1910  177.3570  139.9840 C   0  0  0  0  0  2  0  0  0  0  0  0
  192.0030  176.7410  138.6020 C   0  0  0  0  0  2  0  0  0  0  0  0
  192.9080  175.5230  138.3740 C   0  0  2  0  0  3  0  0  0  0  0  0
  194.2130  175.7200  138.8820 O   0  0  0  0  0  0  0  0  0  0  0  0
  194.9460  174.5260  138.7590 C   0  0  0  0  0  2  0  0  0  0  0  0
  195.5690  174.4520  137.3790 C   0  0  0  0  0  1  0  0  0  0  0  0
  192.8830  175.0380  136.9190 C   0  0  0  0  0  2  0  0  0  0  0  0
  191.4820  175.1190  136.3250 C   0  0  0  0  0  2  0  0  0  0  0  0
  191.1490  173.8700  135.5120 C   0  0  2  0  0  3  0  0  0  0  0  0
  190.5990  172.8850  136.3540 O   0  0  0  0  0  0  0  0  0  0  0  0
  186.8930  173.6200  136.2650 C   0  0  0  0  0  2  0  0  0  0  0  0
  186.3870  172.3320  136.4950 O   0  0  0  0  0  0  0  0  0  0  0  0
  188.3260  173.7190  136.7800 C   0  0  0  0  0  2  0  0  0  0  0  0
  188.8060  171.3950  136.2570 O   0  0  0  0  0  0  0  0  0  0  0  0
  186.5660  171.6280  135.2920 C   0  0  0  0  0  2  0  0  0  0  0  0
  188.0000  171.0710  135.1540 C   0  0  0  0  0  2  0  0  0  0  0  0
  189.2300  172.7200  136.0470 C   0  0  2  0  0  3  0  0  0  0  0  0
  192.3600  173.2990  134.7640 C   0  0  0  0  0  2  0  0  0  0  0  0
  192.2850  171.7870  134.5990 C   0  0  0  0  0  2  0  0  0  0  0  0
  193.1860  171.1090  135.6100 C   0  0  0  0  0  2  0  0  0  0  0  0
  195.2890  170.5980  136.0430 C   0  0  0  0  0  1  0  0  0  0  0  0
  194.3850  170.7470  134.9940 O   0  0  0  0  0  0  0  0  0  0  0  0
  186.9120  178.3810  146.8660 C   0  0  2  0  0  3  0  0  0  0  0  0
  185.8780  179.3220  146.2510 C   0  0  0  0  0  2  0  0  0  0  0  0
  184.7480  178.5910  145.5320 C   0  0  0  0  0  2  0  0  0  0  0  0
  184.5170  178.1180  143.1110 C   0  0  0  0  0  0  0  0  0  0  0  0
  187.2440  177.4850  142.2840 O   0  0  0  0  0  0  0  0  0  0  0  0
  184.9450  177.6530  141.8450 N   0  0  0  0  0  0  0  0  0  0  0  0
  183.0730  178.7370  141.4400 C   0  0  2  0  0  3  0  0  0  0  0  0
  185.2100  177.9890  144.2420 C   0  0  0  0  0  3  0  0  0  0  0  0
  183.9560  177.7580  140.9180 O   0  0  0  0  0  0  0  0  0  0  0  0
  183.2330  178.8020  142.9600 C   0  0  0  0  0  2  0  0  0  0  0  0
  186.3230  177.6330  141.4350 C   0  0  0  0  0  0  0  0  0  0  0  0
  187.9660  178.3760  139.8730 O   0  0  0  0  0  0  0  0  0  0  0  0
  185.6590  178.7910  139.3590 C   0  0  0  0  0  2  0  0  0  0  0  0
  187.8550  178.5830  136.2710 C   0  0  2  0  0  3  0  0  0  0  0  0
  187.4220  179.1610  137.5910 C   0  0  1  0  0  3  0  0  0  0  0  0
  186.8470  178.6170  135.3020 O   0  0  0  0  0  1  0  0  0  0  0  0
  186.6660  177.8480  139.9970 C   0  0  2  0  0  3  0  0  0  0  0  0
  185.9440  178.8320  137.8700 C   0  0  0  0  0  2  0  0  0  0  0  0
  188.2360  177.1520  136.6150 C   0  0  0  0  0  2  0  0  0  0  0  0
  188.3460  178.3660  138.5080 C   0  0  2  0  0  3  0  0  0  0  0  0
  188.4950  177.0600  138.0010 O   0  0  0  0  0  0  0  0  0  0  0  0
  181.7580  178.3900  141.1290 O   0  0  0  0  0  0  0  0  0  0  0  0
  181.2480  179.4790  140.5050 N   0  0  0  0  0  2  0  0  0  0  0  0
  182.0300  179.6650  139.2920 C   0  0  0  0  0  2  0  0  0  0  0  0
  181.6920  178.6520  137.0240 C   0  0  0  0  0  2  0  0  0  0  0  0
  180.3750  178.3510  137.7170 C   0  0  0  0  0  2  0  0  0  0  0  0
  181.1410  179.6170  138.0510 C   0  0  0  0  0  0  0  0  0  0  0  0
  180.6890  180.9190  137.4020 C   0  0  0  0  0  2  0  0  0  0  0  0
  179.4080  181.4450  138.0420 C   0  0  0  0  0  2  0  0  0  0  0  0
  179.1120  182.8740  137.6020 C   0  0  0  0  0  2  0  0  0  0  0  0
  180.0550  183.3190  136.4950 C   0  0  0  0  0  2  0  0  0  0  0  0
  179.2990  183.8980  135.3960 N   0  0  0  0  0  1  0  0  0  0  0  0
  1  2  1  0  0  0  0
  1  4  1  0  0  0  0
  3  2  2  0  0  0  0
  5  4  1  0  0  0  0
  6  7  1  1  0  0  0
  6  5  1  0  0  0  0
  8  7  1  0  0  0  0
  9  8  1  0  0  0  0
 10  9  1  0  0  0  0
 11 10  1  0  0  0  0
 12 11  1  0  0  0  0
 13 12  1  0  0  0  0
 14 13  1  0  0  0  0
 15 14  1  0  0  0  0
 16 20  1  6  0  0  0
 16 15  1  0  0  0  0
 16 17  1  0  0  0  0
 18 17  1  0  0  0  0
 19 18  1  0  0  0  0
 21 20  1  0  0  0  0
 22 31  1  1  0  0  0
 22 21  1  0  0  0  0
 22 23  1  0  0  0  0
 24 25  1  0  0  0  0
 24 26  1  0  0  0  0
 28 25  1  0  0  0  0
 29 28  1  0  0  0  0
 29 27  1  0  0  0  0
 30 27  1  0  0  0  0
 30 23  1  1  0  0  0
 30 26  1  0  0  0  0
 32 31  1  0  0  0  0
 32 33  1  0  0  0  0
 35 33  1  0  0  0  0
 35 34  1  0  0  0  0
 36 37  1  6  0  0  0
 36  6  1  0  0  0  0
 36  1  1  0  0  0  0
 38 37  1  0  0  0  0
 39 43  2  0  0  0  0
 41 39  1  0  0  0  0
 42 57  1  1  0  0  0
 42 45  1  0  0  0  0
 43 38  1  0  0  0  0
 44 42  1  0  0  0  0
 44 41  1  0  0  0  0
 45 39  1  0  0  0  0
 46 41  1  0  0  0  0
 46 40  2  0  0  0  0
 47 52  1  0  0  0  0
 48 52  1  0  0  0  0
 49 51  1  6  0  0  0
 49 54  1  0  0  0  0
 49 50  1  0  0  0  0
 50 53  1  1  0  0  0
 50 55  1  0  0  0  0
 52 46  1  1  0  0  0
 53 48  1  0  0  0  0
 54 56  1  0  0  0  0
 55 56  1  6  0  0  0
 55 47  1  0  0  0  0
 58 57  1  0  0  0  0
 59 58  1  0  0  0  0
 60 61  1  0  0  0  0
 60 62  1  0  0  0  0
 61 62  1  0  0  0  0
 62 59  1  0  0  0  0
 63 64  1  0  0  0  0
 63 62  1  0  0  0  0
 65 64  1  0  0  0  0
 66 65  1  0  0  0  0
 67 66  1  0  0  0  0
M  END
>  <MODEL>
5

>  <REMARK>
 VINA RESULT:      -0.9      3.408     10.112
  Name = 
  37 active torsions:
  status: ('A' for Active; 'I' for Inactive)
    1  A    between atoms: C_1  and  C_15
    2  A    between atoms: C_1  and  C_36
    3  A    between atoms: N_7  and  C_11
    4  A    between atoms: N_7  and  O_32
    5  A    between atoms: C_8  and  C_19
    6  A    between atoms: C_10  and  O_64
    7  A    between atoms: C_11  and  C_37
    8  A    between atoms: O_13  and  C_57
    9  A    between atoms: O_13  and  C_61
   10  A    between atoms: C_14  and  O_42
   11  A    between atoms: C_14  and  C_44
   12  A    between atoms: C_15  and  C_31
   13  A    between atoms: C_17  and  C_53
   14  A    between atoms: C_17  and  C_54
   15  A    between atoms: C_19  and  C_36
   16  A    between atoms: C_21  and  C_30
   17  A    between atoms: C_21  and  O_50
   18  A    between atoms: O_23  and  C_24
   19  A    between atoms: O_23  and  N_63
   20  A    between atoms: C_26  and  C_33
   21  A    between atoms: C_27  and  O_32
   22  A    between atoms: C_27  and  C_57
   23  A    between atoms: C_29  and  C_35
   24  A    between atoms: C_29  and  O_42
   25  A    between atoms: C_30  and  C_41
   26  A    between atoms: C_31  and  N_63
   27  A    between atoms: C_33  and  C_37
   28  A    between atoms: C_35  and  O_52
   29  A    between atoms: O_38  and  C_39
   30  A    between atoms: O_38  and  C_56
   31  A    between atoms: C_39  and  C_41
   32  A    between atoms: C_39  and  C_54
   33  A    between atoms: C_44  and  C_53
   34  A    between atoms: C_46  and  O_52
   35  A    between atoms: C_46  and  C_61
   36  A    between atoms: C_53  and  O_64
   37  A    between atoms: C_55  and  C_65
                            x       y       z     vdW  Elec       q    Type
                         _______ _______ _______ _____ _____    ______ ____

>  <TORSDO>
F 37

$$$$
