=
 OpenBabel11062417123D

 36 40  0  0  1  0  0  0  0  0999 V2000
  185.0280  178.6570  141.6070 C   0  0  0  0  0  0  0  0  0  0  0  0
  186.6930  178.1430  143.2940 C   0  0  0  0  0  0  0  0  0  0  0  0
  185.0790  178.4370  146.5620 C   0  0  0  0  0  3  0  0  0  0  0  0
  183.8170  178.7930  146.2050 N   0  0  0  0  0  0  0  0  0  0  0  0
  186.0270  178.2230  145.6100 N   0  0  0  0  0  0  0  0  0  0  0  0
  185.7280  178.3600  144.2890 C   0  0  0  0  0  0  0  0  0  0  0  0
  185.5810  178.5620  139.2590 O   0  0  0  0  0  1  0  0  0  0  0  0
  184.4260  178.7270  143.9060 C   0  0  0  0  0  0  0  0  0  0  0  0
  186.3360  178.2880  141.9510 C   0  0  0  0  0  3  0  0  0  0  0  0
  184.6610  178.8080  140.2220 N   0  0  0  0  0  0  0  0  0  0  0  0
  183.4730  178.9420  144.8980 C   0  0  0  0  0  3  0  0  0  0  0  0
  184.1100  178.8660  142.5930 N   0  0  0  0  0  0  0  0  0  0  0  0
  180.0360  176.7850  137.4920 C   0  0  0  0  0  0  0  0  0  0  0  0
  178.9930  176.0990  137.3410 O   0  0  0  0  0  0  0  0  0  0  0  0
  181.2220  178.2460  139.1060 C   0  0  2  0  0  3  0  0  0  0  0  0
  183.3260  179.2260  139.7960 C   0  0  2  0  0  3  0  0  0  0  0  0
  180.7360  176.8220  138.8080 C   0  0  0  0  0  2  0  0  0  0  0  0
  180.5760  177.5280  136.4030 N   0  0  0  0  0  2  0  0  0  0  0  0
  181.8460  178.2160  136.5920 C   0  0  0  0  0  2  0  0  0  0  0  0
  181.8330  179.0040  137.9050 C   0  0  2  0  0  3  0  0  0  0  0  0
  182.2740  178.2110  140.1960 C   0  0  0  0  0  2  0  0  0  0  0  0
  183.2470  179.3830  138.2900 C   0  0  0  0  0  2  0  0  0  0  0  0
  188.0860  177.7320  143.6380 C   0  0  0  0  0  2  0  0  0  0  0  0
  188.6260  176.7710  142.5850 C   0  0  0  0  0  2  0  0  0  0  0  0
  190.1160  176.4760  142.7620 C   0  0  2  0  0  3  0  0  0  0  0  0
  191.1490  178.6440  143.2830 N   0  0  0  0  0  2  0  0  0  0  0  0
  190.4450  176.0940  144.1820 C   0  0  0  0  0  3  0  0  0  0  0  0
  191.2110  176.8590  144.9690 C   0  0  0  0  0  0  0  0  0  0  0  0
  191.9090  178.0660  144.3920 C   0  0  0  0  0  2  0  0  0  0  0  0
  190.9990  177.6210  142.2510 C   0  0  0  0  0  2  0  0  0  0  0  0
  188.9800  178.1510  148.6930 C   0  0  0  0  0  1  0  0  0  0  0  0
  191.5200  176.4170  146.3450 C   0  0  0  0  0  0  0  0  0  0  0  0
  188.6920  177.1100  146.5790 O   0  0  0  0  0  0  0  0  0  0  0  0
  192.4320  175.5670  146.5320 O   0  0  0  0  0  0  0  0  0  0  0  0
  189.4830  177.3970  147.5160 C   0  0  0  0  0  0  0  0  0  0  0  0
  190.8470  176.9610  147.4880 N   0  0  0  0  0  2  0  0  0  0  0  0
  1  9  2  0  0  0  0
  1 12  1  0  0  0  0
  2 23  1  0  0  0  0
  2  6  2  0  0  0  0
  4  3  1  0  0  0  0
  5  3  2  0  0  0  0
  6  5  1  0  0  0  0
  7 10  1  0  0  0  0
  8  6  1  0  0  0  0
  8 11  1  0  0  0  0
  9  2  1  0  0  0  0
 10  1  1  0  0  0  0
 11  4  2  0  0  0  0
 12  8  2  0  0  0  0
 13 17  1  0  0  0  0
 14 13  2  0  0  0  0
 15 17  1  6  0  0  0
 15 21  1  0  0  0  0
 16 21  1  0  0  0  0
 16 10  1  6  0  0  0
 18 19  1  0  0  0  0
 18 13  1  0  0  0  0
 20 19  1  6  0  0  0
 20 22  1  0  0  0  0
 20 15  1  0  0  0  0
 22 16  1  0  0  0  0
 24 23  1  0  0  0  0
 25 24  1  1  0  0  0
 25 27  1  0  0  0  0
 26 29  1  0  0  0  0
 27 28  2  0  0  0  0
 28 32  1  0  0  0  0
 29 28  1  0  0  0  0
 30 25  1  0  0  0  0
 30 26  1  0  0  0  0
 32 34  2  0  0  0  0
 32 36  1  0  0  0  0
 33 35  2  0  0  0  0
 35 31  1  0  0  0  0
 36 35  1  0  0  0  0
M  END
>  <MODEL>
1

>  <REMARK>
 VINA RESULT:      -9.8      0.000      0.000
  Name = 
  5 active torsions:
  status: ('A' for Active; 'I' for Inactive)
    1  A    between atoms: C_4  and  C_13
    2  A    between atoms: C_5  and  C_22
    3  A    between atoms: C_10  and  N_33
    4  A    between atoms: C_13  and  C_22
    5  A    between atoms: C_15  and  C_20
                            x       y       z     vdW  Elec       q    Type
                         _______ _______ _______ _____ _____    ______ ____

>  <TORSDO>
F 5

$$$$
=
 OpenBabel11062417123D

 36 40  0  0  1  0  0  0  0  0999 V2000
  185.3780  178.6280  140.2540 C   0  0  0  0  0  0  0  0  0  0  0  0
  187.7090  178.3610  140.8670 C   0  0  0  0  0  0  0  0  0  0  0  0
  189.6160  177.8910  137.7830 C   0  0  0  0  0  3  0  0  0  0  0  0
  188.6310  177.9520  136.8480 N   0  0  0  0  0  0  0  0  0  0  0  0
  189.3180  178.0250  139.1030 N   0  0  0  0  0  0  0  0  0  0  0  0
  188.0350  178.2220  139.5100 C   0  0  0  0  0  0  0  0  0  0  0  0
  183.6950  179.0150  141.9400 O   0  0  0  0  0  1  0  0  0  0  0  0
  187.0060  178.2870  138.5540 C   0  0  0  0  0  0  0  0  0  0  0  0
  186.3780  178.5690  141.2350 C   0  0  0  0  0  3  0  0  0  0  0  0
  184.0050  178.8420  140.6330 N   0  0  0  0  0  0  0  0  0  0  0  0
  187.3340  178.1470  137.2080 C   0  0  0  0  0  3  0  0  0  0  0  0
  185.7200  178.4850  138.9410 N   0  0  0  0  0  0  0  0  0  0  0  0
  180.1340  182.4650  138.4350 C   0  0  0  0  0  0  0  0  0  0  0  0
  179.7160  183.4210  137.7340 O   0  0  0  0  0  0  0  0  0  0  0  0
  181.6310  180.4880  138.3890 C   0  0  2  0  0  3  0  0  0  0  0  0
  182.9110  178.8760  139.6640 C   0  0  2  0  0  3  0  0  0  0  0  0
  181.5550  182.0190  138.3420 C   0  0  0  0  0  2  0  0  0  0  0  0
  179.2620  181.7980  139.3430 N   0  0  0  0  0  2  0  0  0  0  0  0
  179.8160  180.7730  140.2160 C   0  0  0  0  0  2  0  0  0  0  0  0
  180.6920  179.8080  139.4110 C   0  0  2  0  0  3  0  0  0  0  0  0
  183.0440  180.0540  138.7200 C   0  0  0  0  0  2  0  0  0  0  0  0
  181.5650  179.0030  140.3510 C   0  0  0  0  0  2  0  0  0  0  0  0
  188.7600  178.3200  141.9260 C   0  0  0  0  0  2  0  0  0  0  0  0
  189.0510  176.8760  142.3230 C   0  0  0  0  0  2  0  0  0  0  0  0
  190.5040  176.6610  142.7480 C   0  0  2  0  0  3  0  0  0  0  0  0
  191.2890  178.8610  143.5140 N   0  0  0  0  0  2  0  0  0  0  0  0
  190.6070  176.2370  144.1900 C   0  0  0  0  0  3  0  0  0  0  0  0
  191.1740  177.0100  145.1240 C   0  0  0  0  0  0  0  0  0  0  0  0
  191.8820  178.2800  144.7180 C   0  0  0  0  0  2  0  0  0  0  0  0
  191.3860  177.8770  142.4380 C   0  0  0  0  0  2  0  0  0  0  0  0
  188.4390  178.2520  148.5140 C   0  0  0  0  0  1  0  0  0  0  0  0
  191.2690  176.5260  146.5180 C   0  0  0  0  0  0  0  0  0  0  0  0
  188.4490  177.2720  146.3520 O   0  0  0  0  0  0  0  0  0  0  0  0
  192.1290  175.6530  146.8130 O   0  0  0  0  0  0  0  0  0  0  0  0
  189.0980  177.5180  147.4030 C   0  0  0  0  0  0  0  0  0  0  0  0
  190.4430  177.0550  147.5640 N   0  0  0  0  0  2  0  0  0  0  0  0
  1 10  1  0  0  0  0
  1  9  1  0  0  0  0
  2  9  2  0  0  0  0
  2 23  1  0  0  0  0
  3  5  1  0  0  0  0
  4 11  1  0  0  0  0
  4  3  2  0  0  0  0
  5  6  2  0  0  0  0
  6  2  1  0  0  0  0
  8 12  1  0  0  0  0
  8  6  1  0  0  0  0
 10  7  1  0  0  0  0
 11  8  2  0  0  0  0
 12  1  2  0  0  0  0
 13 18  1  0  0  0  0
 14 13  2  0  0  0  0
 15 17  1  1  0  0  0
 15 21  1  0  0  0  0
 15 20  1  0  0  0  0
 16 22  1  0  0  0  0
 16 10  1  1  0  0  0
 17 13  1  0  0  0  0
 18 19  1  0  0  0  0
 20 19  1  1  0  0  0
 20 22  1  0  0  0  0
 21 16  1  0  0  0  0
 23 24  1  0  0  0  0
 25 24  1  1  0  0  0
 25 27  1  0  0  0  0
 26 29  1  0  0  0  0
 27 28  2  0  0  0  0
 28 32  1  0  0  0  0
 29 28  1  0  0  0  0
 30 25  1  0  0  0  0
 30 26  1  0  0  0  0
 32 34  2  0  0  0  0
 32 36  1  0  0  0  0
 33 35  2  0  0  0  0
 35 36  1  0  0  0  0
 35 31  1  0  0  0  0
M  END
>  <MODEL>
2

>  <REMARK>
 VINA RESULT:      -9.6      2.691      4.201
  Name = 
  5 active torsions:
  status: ('A' for Active; 'I' for Inactive)
    1  A    between atoms: C_4  and  C_13
    2  A    between atoms: C_5  and  C_22
    3  A    between atoms: C_10  and  N_33
    4  A    between atoms: C_13  and  C_22
    5  A    between atoms: C_15  and  C_20
                            x       y       z     vdW  Elec       q    Type
                         _______ _______ _______ _____ _____    ______ ____

>  <TORSDO>
F 5

$$$$
=
 OpenBabel11062417123D

 36 40  0  0  1  0  0  0  0  0999 V2000
  184.5430  178.4760  141.2370 C   0  0  0  0  0  0  0  0  0  0  0  0
  186.4650  178.3530  142.7100 C   0  0  0  0  0  0  0  0  0  0  0  0
  185.2500  178.6980  146.1410 C   0  0  0  0  0  3  0  0  0  0  0  0
  183.9130  178.8390  145.9380 N   0  0  0  0  0  0  0  0  0  0  0  0
  186.0910  178.5380  145.0850 N   0  0  0  0  0  0  0  0  0  0  0  0
  185.6120  178.5160  143.8110 C   0  0  0  0  0  0  0  0  0  0  0  0
  184.8030  178.2570  138.8470 O   0  0  0  0  0  1  0  0  0  0  0  0
  184.2310  178.6610  143.5870 C   0  0  0  0  0  0  0  0  0  0  0  0
  185.9240  178.3280  141.4220 C   0  0  0  0  0  3  0  0  0  0  0  0
  183.9850  178.4530  139.9080 N   0  0  0  0  0  0  0  0  0  0  0  0
  183.3900  178.8230  144.6840 C   0  0  0  0  0  3  0  0  0  0  0  0
  183.7350  178.6390  142.3240 N   0  0  0  0  0  0  0  0  0  0  0  0
  180.4160  179.9410  135.6670 C   0  0  0  0  0  0  0  0  0  0  0  0
  179.7760  179.7990  134.5940 O   0  0  0  0  0  0  0  0  0  0  0  0
  181.0380  178.7720  137.7640 C   0  0  2  0  0  3  0  0  0  0  0  0
  182.5590  178.6390  139.6430 C   0  0  2  0  0  3  0  0  0  0  0  0
  181.1990  178.8080  136.2390 C   0  0  0  0  0  2  0  0  0  0  0  0
  180.4150  181.1910  136.3500 N   0  0  0  0  0  2  0  0  0  0  0  0
  181.2590  181.3430  137.5270 C   0  0  0  0  0  2  0  0  0  0  0  0
  181.0770  180.1480  138.4680 C   0  0  2  0  0  3  0  0  0  0  0  0
  182.1340  177.9240  138.3760 C   0  0  0  0  0  2  0  0  0  0  0  0
  182.2130  180.1040  139.4680 C   0  0  0  0  0  2  0  0  0  0  0  0
  187.9360  178.1750  142.8860 C   0  0  0  0  0  2  0  0  0  0  0  0
  188.3120  176.7060  142.7250 C   0  0  0  0  0  2  0  0  0  0  0  0
  189.8150  176.4610  142.8620 C   0  0  2  0  0  3  0  0  0  0  0  0
  190.7980  178.6760  143.2770 N   0  0  0  0  0  2  0  0  0  0  0  0
  190.2010  176.1370  144.2810 C   0  0  0  0  0  3  0  0  0  0  0  0
  190.9680  176.9510  145.0180 C   0  0  0  0  0  0  0  0  0  0  0  0
  191.6100  178.1580  144.3780 C   0  0  0  0  0  2  0  0  0  0  0  0
  190.6460  177.6150  142.2850 C   0  0  0  0  0  2  0  0  0  0  0  0
  188.7100  178.1500  148.7560 C   0  0  0  0  0  1  0  0  0  0  0  0
  191.3350  176.5640  146.3960 C   0  0  0  0  0  0  0  0  0  0  0  0
  188.4660  177.0440  146.6700 O   0  0  0  0  0  0  0  0  0  0  0  0
  192.3130  175.7910  146.5830 O   0  0  0  0  0  0  0  0  0  0  0  0
  189.2500  177.4110  147.5850 C   0  0  0  0  0  0  0  0  0  0  0  0
  190.6420  177.0800  147.5400 N   0  0  0  0  0  2  0  0  0  0  0  0
  1  9  2  0  0  0  0
  1 12  1  0  0  0  0
  2 23  1  0  0  0  0
  2  6  2  0  0  0  0
  4  3  1  0  0  0  0
  5  3  2  0  0  0  0
  6  5  1  0  0  0  0
  7 10  1  0  0  0  0
  8  6  1  0  0  0  0
  8 11  1  0  0  0  0
  9  2  1  0  0  0  0
 10  1  1  0  0  0  0
 11  4  2  0  0  0  0
 12  8  2  0  0  0  0
 13 17  1  0  0  0  0
 13 18  1  0  0  0  0
 14 13  2  0  0  0  0
 15 17  1  6  0  0  0
 15 21  1  0  0  0  0
 15 20  1  0  0  0  0
 16 10  1  6  0  0  0
 18 19  1  0  0  0  0
 20 19  1  6  0  0  0
 20 22  1  0  0  0  0
 21 16  1  0  0  0  0
 22 16  1  0  0  0  0
 24 23  1  0  0  0  0
 25 24  1  1  0  0  0
 25 27  1  0  0  0  0
 26 29  1  0  0  0  0
 27 28  2  0  0  0  0
 28 32  1  0  0  0  0
 29 28  1  0  0  0  0
 30 25  1  0  0  0  0
 30 26  1  0  0  0  0
 32 34  2  0  0  0  0
 32 36  1  0  0  0  0
 33 35  2  0  0  0  0
 35 31  1  0  0  0  0
 36 35  1  0  0  0  0
M  END
>  <MODEL>
3

>  <REMARK>
 VINA RESULT:      -9.6      1.305      1.566
  Name = 
  5 active torsions:
  status: ('A' for Active; 'I' for Inactive)
    1  A    between atoms: C_4  and  C_13
    2  A    between atoms: C_5  and  C_22
    3  A    between atoms: C_10  and  N_33
    4  A    between atoms: C_13  and  C_22
    5  A    between atoms: C_15  and  C_20
                            x       y       z     vdW  Elec       q    Type
                         _______ _______ _______ _____ _____    ______ ____

>  <TORSDO>
F 5

$$$$
=
 OpenBabel11062417123D

 36 40  0  0  1  0  0  0  0  0999 V2000
  188.9730  177.6760  142.5510 C   0  0  0  0  0  0  0  0  0  0  0  0
  187.9590  177.5260  144.7480 C   0  0  0  0  0  0  0  0  0  0  0  0
  190.6260  176.8270  147.1500 C   0  0  0  0  0  3  0  0  0  0  0  0
  191.7120  176.7770  146.3360 N   0  0  0  0  0  0  0  0  0  0  0  0
  189.3920  177.0730  146.6340 N   0  0  0  0  0  0  0  0  0  0  0  0
  189.2240  177.2730  145.2980 C   0  0  0  0  0  0  0  0  0  0  0  0
  187.6340  178.1710  140.6040 O   0  0  0  0  0  1  0  0  0  0  0  0
  190.3400  177.2230  144.4440 C   0  0  0  0  0  0  0  0  0  0  0  0
  187.8390  177.7330  143.3720 C   0  0  0  0  0  3  0  0  0  0  0  0
  188.8490  177.8870  141.1310 N   0  0  0  0  0  0  0  0  0  0  0  0
  191.5930  176.9700  144.9950 C   0  0  0  0  0  3  0  0  0  0  0  0
  190.1920  177.4230  143.1090 N   0  0  0  0  0  0  0  0  0  0  0  0
  190.1700  176.0670  135.8510 C   0  0  0  0  0  0  0  0  0  0  0  0
  190.1870  176.0870  134.5940 O   0  0  0  0  0  0  0  0  0  0  0  0
  190.4280  177.5080  137.8530 C   0  0  2  0  0  3  0  0  0  0  0  0
  189.9860  177.8050  140.2150 C   0  0  2  0  0  3  0  0  0  0  0  0
  189.5700  177.1950  136.6200 C   0  0  0  0  0  2  0  0  0  0  0  0
  190.7100  174.9580  136.5640 N   0  0  0  0  0  2  0  0  0  0  0  0
  190.5680  174.9250  138.0130 C   0  0  0  0  0  2  0  0  0  0  0  0
  190.9660  176.2760  138.6160 C   0  0  2  0  0  3  0  0  0  0  0  0
  189.6270  178.3320  138.8390 C   0  0  0  0  0  2  0  0  0  0  0  0
  190.4540  176.3740  140.0370 C   0  0  0  0  0  2  0  0  0  0  0  0
  186.7410  177.6090  145.6070 C   0  0  0  0  0  2  0  0  0  0  0  0
  185.7800  178.6590  145.0580 C   0  0  0  0  0  2  0  0  0  0  0  0
  184.5950  178.0440  144.3140 C   0  0  2  0  0  3  0  0  0  0  0  0
  182.9940  179.8840  144.0130 N   0  0  0  0  0  2  0  0  0  0  0  0
  184.7830  178.0990  142.8210 C   0  0  0  0  0  3  0  0  0  0  0  0
  184.0030  178.8460  142.0280 C   0  0  0  0  0  0  0  0  0  0  0  0
  182.7920  179.5380  142.6060 C   0  0  0  0  0  2  0  0  0  0  0  0
  183.2570  178.6520  144.7530 C   0  0  0  0  0  2  0  0  0  0  0  0
  182.3240  175.7750  139.1540 C   0  0  0  0  0  1  0  0  0  0  0  0
  184.2210  178.8380  140.5670 C   0  0  0  0  0  0  0  0  0  0  0  0
  181.6990  177.3790  140.7870 O   0  0  0  0  0  0  0  0  0  0  0  0
  184.8710  179.7760  140.0320 O   0  0  0  0  0  0  0  0  0  0  0  0
  182.5660  177.0020  139.9560 C   0  0  0  0  0  0  0  0  0  0  0  0
  183.7570  177.7660  139.7350 N   0  0  0  0  0  2  0  0  0  0  0  0
  1 12  2  0  0  0  0
  1  9  1  0  0  0  0
  2  6  1  0  0  0  0
  2 23  1  0  0  0  0
  4  3  2  0  0  0  0
  5  3  1  0  0  0  0
  6  5  2  0  0  0  0
  7 10  1  0  0  0  0
  8 11  2  0  0  0  0
  8  6  1  0  0  0  0
  9  2  2  0  0  0  0
 10  1  1  0  0  0  0
 11  4  1  0  0  0  0
 12  8  1  0  0  0  0
 13 18  1  0  0  0  0
 13 17  1  0  0  0  0
 14 13  2  0  0  0  0
 15 17  1  6  0  0  0
 15 20  1  0  0  0  0
 15 21  1  0  0  0  0
 16 10  1  1  0  0  0
 18 19  1  0  0  0  0
 20 19  1  6  0  0  0
 20 22  1  0  0  0  0
 21 16  1  0  0  0  0
 22 16  1  0  0  0  0
 24 23  1  0  0  0  0
 25 30  1  0  0  0  0
 25 24  1  1  0  0  0
 26 30  1  0  0  0  0
 27 25  1  0  0  0  0
 28 29  1  0  0  0  0
 28 27  2  0  0  0  0
 29 26  1  0  0  0  0
 31 35  1  0  0  0  0
 32 28  1  0  0  0  0
 34 32  2  0  0  0  0
 35 33  2  0  0  0  0
 36 35  1  0  0  0  0
 36 32  1  0  0  0  0
M  END
>  <MODEL>
4

>  <REMARK>
 VINA RESULT:      -9.5      3.131      7.863
  Name = 
  5 active torsions:
  status: ('A' for Active; 'I' for Inactive)
    1  A    between atoms: C_4  and  C_13
    2  A    between atoms: C_5  and  C_22
    3  A    between atoms: C_10  and  N_33
    4  A    between atoms: C_13  and  C_22
    5  A    between atoms: C_15  and  C_20
                            x       y       z     vdW  Elec       q    Type
                         _______ _______ _______ _____ _____    ______ ____

>  <TORSDO>
F 5

$$$$
=
 OpenBabel11062417123D

 36 40  0  0  1  0  0  0  0  0999 V2000
  187.2900  178.2560  142.2930 C   0  0  0  0  0  0  0  0  0  0  0  0
  185.8230  178.2650  144.2240 C   0  0  0  0  0  0  0  0  0  0  0  0
  187.8640  177.5130  147.1630 C   0  0  0  0  0  3  0  0  0  0  0  0
  189.0930  177.3620  146.6030 N   0  0  0  0  0  0  0  0  0  0  0  0
  186.7880  177.8100  146.3860 N   0  0  0  0  0  0  0  0  0  0  0  0
  186.9220  177.9600  145.0410 C   0  0  0  0  0  0  0  0  0  0  0  0
  186.4330  178.7440  140.0900 O   0  0  0  0  0  1  0  0  0  0  0  0
  188.1880  177.8060  144.4480 C   0  0  0  0  0  0  0  0  0  0  0  0
  186.0130  178.4180  142.8480 C   0  0  0  0  0  3  0  0  0  0  0  0
  187.4860  178.4120  140.8740 N   0  0  0  0  0  0  0  0  0  0  0  0
  189.2750  177.5030  145.2630 C   0  0  0  0  0  3  0  0  0  0  0  0
  188.3420  177.9550  143.1070 N   0  0  0  0  0  0  0  0  0  0  0  0
  189.7430  176.9630  135.8000 C   0  0  0  0  0  0  0  0  0  0  0  0
  190.0650  177.1160  134.5940 O   0  0  0  0  0  0  0  0  0  0  0  0
  189.7300  178.1050  138.0010 C   0  0  2  0  0  3  0  0  0  0  0  0
  188.7820  178.2210  140.2260 C   0  0  2  0  0  3  0  0  0  0  0  0
  189.1570  178.0930  136.5780 C   0  0  0  0  0  2  0  0  0  0  0  0
  189.9170  175.7030  136.4410 N   0  0  0  0  0  2  0  0  0  0  0  0
  189.4260  175.5400  137.8020 C   0  0  0  0  0  2  0  0  0  0  0  0
  189.8710  176.7200  138.6710 C   0  0  2  0  0  3  0  0  0  0  0  0
  188.8520  178.9510  138.8990 C   0  0  0  0  0  2  0  0  0  0  0  0
  189.0520  176.7560  139.9450 C   0  0  0  0  0  2  0  0  0  0  0  0
  184.4600  178.4590  144.7980 C   0  0  0  0  0  2  0  0  0  0  0  0
  183.6070  179.3000  143.8540 C   0  0  0  0  0  2  0  0  0  0  0  0
  182.4720  178.5020  143.2120 C   0  0  2  0  0  3  0  0  0  0  0  0
  180.6640  180.1270  142.8430 N   0  0  0  0  0  2  0  0  0  0  0  0
  182.6000  178.4590  141.7110 C   0  0  0  0  0  3  0  0  0  0  0  0
  181.7130  179.0500  140.9000 C   0  0  0  0  0  0  0  0  0  0  0  0
  180.4530  179.6490  141.4770 C   0  0  0  0  0  2  0  0  0  0  0  0
  181.0900  178.9930  143.6610 C   0  0  0  0  0  2  0  0  0  0  0  0
  181.3210  175.2410  138.4820 C   0  0  0  0  0  1  0  0  0  0  0  0
  181.8790  178.9500  139.4350 C   0  0  0  0  0  0  0  0  0  0  0  0
  180.1520  176.6590  139.9840 O   0  0  0  0  0  0  0  0  0  0  0  0
  182.0880  179.9950  138.7620 O   0  0  0  0  0  0  0  0  0  0  0  0
  181.0760  176.5530  139.1350 C   0  0  0  0  0  0  0  0  0  0  0  0
  181.8590  177.6890  138.7530 N   0  0  0  0  0  2  0  0  0  0  0  0
  1  9  2  0  0  0  0
  1 12  1  0  0  0  0
  2 23  1  0  0  0  0
  2  6  2  0  0  0  0
  4  3  1  0  0  0  0
  5  3  2  0  0  0  0
  6  5  1  0  0  0  0
  7 10  1  0  0  0  0
  8  6  1  0  0  0  0
  8 11  1  0  0  0  0
  9  2  1  0  0  0  0
 10  1  1  0  0  0  0
 11  4  2  0  0  0  0
 12  8  2  0  0  0  0
 13 18  1  0  0  0  0
 13 17  1  0  0  0  0
 14 13  2  0  0  0  0
 15 17  1  6  0  0  0
 15 20  1  0  0  0  0
 15 21  1  0  0  0  0
 16 10  1  6  0  0  0
 18 19  1  0  0  0  0
 20 19  1  6  0  0  0
 20 22  1  0  0  0  0
 21 16  1  0  0  0  0
 22 16  1  0  0  0  0
 24 23  1  0  0  0  0
 25 30  1  0  0  0  0
 25 24  1  1  0  0  0
 26 30  1  0  0  0  0
 27 25  1  0  0  0  0
 28 29  1  0  0  0  0
 28 27  2  0  0  0  0
 29 26  1  0  0  0  0
 31 35  1  0  0  0  0
 32 28  1  0  0  0  0
 34 32  2  0  0  0  0
 35 33  2  0  0  0  0
 36 35  1  0  0  0  0
 36 32  1  0  0  0  0
M  END
>  <MODEL>
5

>  <REMARK>
 VINA RESULT:      -9.4      3.220      8.218
  Name = 
  5 active torsions:
  status: ('A' for Active; 'I' for Inactive)
    1  A    between atoms: C_4  and  C_13
    2  A    between atoms: C_5  and  C_22
    3  A    between atoms: C_10  and  N_33
    4  A    between atoms: C_13  and  C_22
    5  A    between atoms: C_15  and  C_20
                            x       y       z     vdW  Elec       q    Type
                         _______ _______ _______ _____ _____    ______ ____

>  <TORSDO>
F 5

$$$$
=
 OpenBabel11062417123D

 36 40  0  0  1  0  0  0  0  0999 V2000
  187.2990  178.0500  139.1020 C   0  0  0  0  0  0  0  0  0  0  0  0
  189.5600  177.3750  139.6630 C   0  0  0  0  0  0  0  0  0  0  0  0
  191.2010  176.3320  136.5660 C   0  0  0  0  0  3  0  0  0  0  0  0
  190.2050  176.5210  135.6600 N   0  0  0  0  0  0  0  0  0  0  0  0
  190.9940  176.6120  137.8810 N   0  0  0  0  0  0  0  0  0  0  0  0
  189.7920  177.0830  138.3110 C   0  0  0  0  0  0  0  0  0  0  0  0
  185.7990  178.8720  140.8050 O   0  0  0  0  0  1  0  0  0  0  0  0
  188.7530  177.2820  137.3840 C   0  0  0  0  0  0  0  0  0  0  0  0
  188.3110  177.8640  140.0540 C   0  0  0  0  0  3  0  0  0  0  0  0
  186.0110  178.5530  139.5060 N   0  0  0  0  0  0  0  0  0  0  0  0
  188.9880  176.9890  136.0430 C   0  0  0  0  0  3  0  0  0  0  0  0
  187.5480  177.7530  137.7940 N   0  0  0  0  0  0  0  0  0  0  0  0
  180.2760  178.7550  139.4080 C   0  0  0  0  0  0  0  0  0  0  0  0
  179.1350  179.2450  139.6060 O   0  0  0  0  0  0  0  0  0  0  0  0
  182.5510  179.3130  138.5930 C   0  0  2  0  0  3  0  0  0  0  0  0
  184.9020  178.7340  138.5710 C   0  0  2  0  0  3  0  0  0  0  0  0
  181.5040  179.5540  139.6880 C   0  0  0  0  0  2  0  0  0  0  0  0
  180.4170  177.4220  138.9260 N   0  0  0  0  0  2  0  0  0  0  0  0
  181.7560  176.8580  138.8200 C   0  0  0  0  0  2  0  0  0  0  0  0
  182.6950  177.8480  138.1240 C   0  0  2  0  0  3  0  0  0  0  0  0
  183.9130  179.7650  139.0780 C   0  0  0  0  0  2  0  0  0  0  0  0
  184.1340  177.4430  138.3620 C   0  0  0  0  0  2  0  0  0  0  0  0
  190.6300  177.2020  140.6890 C   0  0  0  0  0  2  0  0  0  0  0  0
  190.1070  176.3760  141.8600 C   0  0  0  0  0  2  0  0  0  0  0  0
  190.8960  176.6100  143.1480 C   0  0  2  0  0  3  0  0  0  0  0  0
  190.7140  179.0200  143.5920 N   0  0  0  0  0  2  0  0  0  0  0  0
  190.0370  176.4240  144.3710 C   0  0  0  0  0  3  0  0  0  0  0  0
  189.7330  177.4360  145.1930 C   0  0  0  0  0  0  0  0  0  0  0  0
  190.3880  178.7820  144.9980 C   0  0  0  0  0  2  0  0  0  0  0  0
  191.6190  177.9620  143.1480 C   0  0  0  0  0  2  0  0  0  0  0  0
  185.4470  178.7920  145.7440 C   0  0  0  0  0  1  0  0  0  0  0  0
  188.9070  177.1850  146.3920 C   0  0  0  0  0  0  0  0  0  0  0  0
  186.8590  177.5090  144.3330 O   0  0  0  0  0  0  0  0  0  0  0  0
  189.3770  176.4900  147.3330 O   0  0  0  0  0  0  0  0  0  0  0  0
  186.6730  177.9950  145.4790 C   0  0  0  0  0  0  0  0  0  0  0  0
  187.5970  177.7480  146.5440 N   0  0  0  0  0  2  0  0  0  0  0  0
  1 10  1  0  0  0  0
  1  9  1  0  0  0  0
  2  9  2  0  0  0  0
  2 23  1  0  0  0  0
  3  5  1  0  0  0  0
  4 11  1  0  0  0  0
  4  3  2  0  0  0  0
  5  6  2  0  0  0  0
  6  2  1  0  0  0  0
  8 12  1  0  0  0  0
  8  6  1  0  0  0  0
 10  7  1  0  0  0  0
 11  8  2  0  0  0  0
 12  1  2  0  0  0  0
 13 14  2  0  0  0  0
 13 17  1  0  0  0  0
 15 21  1  1  0  0  0
 15 17  1  0  0  0  0
 16 21  1  0  0  0  0
 16 10  1  1  0  0  0
 18 13  1  0  0  0  0
 19 18  1  0  0  0  0
 20 22  1  1  0  0  0
 20 15  1  0  0  0  0
 20 19  1  0  0  0  0
 22 16  1  0  0  0  0
 23 24  1  0  0  0  0
 25 24  1  6  0  0  0
 25 30  1  0  0  0  0
 25 27  1  0  0  0  0
 26 29  1  0  0  0  0
 27 28  2  0  0  0  0
 28 32  1  0  0  0  0
 29 28  1  0  0  0  0
 30 26  1  0  0  0  0
 32 36  1  0  0  0  0
 32 34  2  0  0  0  0
 33 35  2  0  0  0  0
 35 31  1  0  0  0  0
 35 36  1  0  0  0  0
M  END
>  <MODEL>
6

>  <REMARK>
 VINA RESULT:      -9.3      3.009      4.897
  Name = 
  5 active torsions:
  status: ('A' for Active; 'I' for Inactive)
    1  A    between atoms: C_4  and  C_13
    2  A    between atoms: C_5  and  C_22
    3  A    between atoms: C_10  and  N_33
    4  A    between atoms: C_13  and  C_22
    5  A    between atoms: C_15  and  C_20
                            x       y       z     vdW  Elec       q    Type
                         _______ _______ _______ _____ _____    ______ ____

>  <TORSDO>
F 5

$$$$
=
 OpenBabel11062417123D

 36 40  0  0  1  0  0  0  0  0999 V2000
  189.9190  177.2250  140.5100 C   0  0  0  0  0  0  0  0  0  0  0  0
  189.9980  176.1570  138.3340 C   0  0  0  0  0  0  0  0  0  0  0  0
  187.0520  177.2470  136.4620 C   0  0  0  0  0  3  0  0  0  0  0  0
  186.4490  178.0640  137.3650 N   0  0  0  0  0  0  0  0  0  0  0  0
  188.2170  176.6190  136.7760 N   0  0  0  0  0  0  0  0  0  0  0  0
  188.7970  176.7970  137.9930 C   0  0  0  0  0  0  0  0  0  0  0  0
  191.6750  176.8640  142.1260 O   0  0  0  0  0  1  0  0  0  0  0  0
  188.1840  177.6400  138.9370 C   0  0  0  0  0  0  0  0  0  0  0  0
  190.5590  176.3780  139.5940 C   0  0  0  0  0  3  0  0  0  0  0  0
  190.4970  177.4510  141.8100 N   0  0  0  0  0  0  0  0  0  0  0  0
  186.9920  178.2720  138.5940 C   0  0  0  0  0  3  0  0  0  0  0  0
  188.7500  177.8320  140.1560 N   0  0  0  0  0  0  0  0  0  0  0  0
  188.2920  177.1280  147.1000 C   0  0  0  0  0  0  0  0  0  0  0  0
  188.3090  177.0200  148.3520 O   0  0  0  0  0  0  0  0  0  0  0  0
  189.3980  178.2770  145.2010 C   0  0  2  0  0  3  0  0  0  0  0  0
  189.8620  178.2920  142.8250 C   0  0  2  0  0  3  0  0  0  0  0  0
  189.5650  177.2540  146.3310 C   0  0  0  0  0  2  0  0  0  0  0  0
  187.0580  177.1150  146.3890 N   0  0  0  0  0  2  0  0  0  0  0  0
  187.0920  177.1280  144.9330 C   0  0  0  0  0  2  0  0  0  0  0  0
  188.0580  178.2060  144.4340 C   0  0  2  0  0  3  0  0  0  0  0  0
  190.5060  178.1020  144.1840 C   0  0  0  0  0  2  0  0  0  0  0  0
  188.3900  177.9630  142.9770 C   0  0  0  0  0  2  0  0  0  0  0  0
  190.7040  175.2660  137.3680 C   0  0  0  0  0  2  0  0  0  0  0  0
  191.9560  175.9550  136.8350 C   0  0  0  0  0  2  0  0  0  0  0  0
  192.9360  174.9800  136.1820 C   0  0  2  0  0  3  0  0  0  0  0  0
  195.0520  176.2160  135.9940 N   0  0  0  0  0  2  0  0  0  0  0  0
  193.6420  174.1290  137.2040 C   0  0  0  0  0  3  0  0  0  0  0  0
  194.9600  174.2220  137.4250 C   0  0  0  0  0  0  0  0  0  0  0  0
  195.8120  175.0850  136.5260 C   0  0  0  0  0  2  0  0  0  0  0  0
  193.9180  175.6890  135.2400 C   0  0  0  0  0  2  0  0  0  0  0  0
  197.3840  175.6280  140.9830 C   0  0  0  0  0  1  0  0  0  0  0  0
  195.5990  173.3400  138.4230 C   0  0  0  0  0  0  0  0  0  0  0  0
  195.2480  175.7990  139.9610 O   0  0  0  0  0  0  0  0  0  0  0  0
  195.4310  172.0920  138.3460 O   0  0  0  0  0  0  0  0  0  0  0  0
  196.3030  175.1230  140.0980 C   0  0  0  0  0  0  0  0  0  0  0  0
  196.4520  173.8520  139.4560 N   0  0  0  0  0  2  0  0  0  0  0  0
  1 10  1  0  0  0  0
  2  9  1  0  0  0  0
  3  5  2  0  0  0  0
  3  4  1  0  0  0  0
  4 11  2  0  0  0  0
  5  6  1  0  0  0  0
  6  2  2  0  0  0  0
  6  8  1  0  0  0  0
  8 12  2  0  0  0  0
  9  1  2  0  0  0  0
 10  7  1  0  0  0  0
 11  8  1  0  0  0  0
 12  1  1  0  0  0  0
 13 14  2  0  0  0  0
 15 21  1  6  0  0  0
 15 17  1  0  0  0  0
 16 10  1  6  0  0  0
 16 22  1  0  0  0  0
 16 21  1  0  0  0  0
 17 13  1  0  0  0  0
 18 13  1  0  0  0  0
 19 18  1  0  0  0  0
 20 22  1  6  0  0  0
 20 19  1  0  0  0  0
 20 15  1  0  0  0  0
 23  2  1  0  0  0  0
 24 23  1  0  0  0  0
 25 24  1  1  0  0  0
 25 27  1  0  0  0  0
 26 29  1  0  0  0  0
 27 28  2  0  0  0  0
 28 32  1  0  0  0  0
 29 28  1  0  0  0  0
 30 26  1  0  0  0  0
 30 25  1  0  0  0  0
 32 36  1  0  0  0  0
 33 35  2  0  0  0  0
 34 32  2  0  0  0  0
 35 31  1  0  0  0  0
 36 35  1  0  0  0  0
M  END
>  <MODEL>
7

>  <REMARK>
 VINA RESULT:      -9.3      5.145      8.938
  Name = 
  5 active torsions:
  status: ('A' for Active; 'I' for Inactive)
    1  A    between atoms: C_4  and  C_13
    2  A    between atoms: C_5  and  C_22
    3  A    between atoms: C_10  and  N_33
    4  A    between atoms: C_13  and  C_22
    5  A    between atoms: C_15  and  C_20
                            x       y       z     vdW  Elec       q    Type
                         _______ _______ _______ _____ _____    ______ ____

>  <TORSDO>
F 5

$$$$
=
 OpenBabel11062417123D

 36 40  0  0  1  0  0  0  0  0999 V2000
  186.2430  178.4080  141.8340 C   0  0  0  0  0  0  0  0  0  0  0  0
  188.3920  177.8780  142.8260 C   0  0  0  0  0  0  0  0  0  0  0  0
  187.9040  177.6100  146.4400 C   0  0  0  0  0  3  0  0  0  0  0  0
  186.5740  177.8690  146.5490 N   0  0  0  0  0  0  0  0  0  0  0  0
  188.5040  177.6110  145.2190 N   0  0  0  0  0  0  0  0  0  0  0  0
  187.7880  177.8710  144.0920 C   0  0  0  0  0  0  0  0  0  0  0  0
  186.0130  178.6510  139.4430 O   0  0  0  0  0  1  0  0  0  0  0  0
  186.4120  178.1410  144.1910 C   0  0  0  0  0  0  0  0  0  0  0  0
  187.6130  178.1420  141.6970 C   0  0  0  0  0  3  0  0  0  0  0  0
  185.4400  178.6820  140.6700 N   0  0  0  0  0  0  0  0  0  0  0  0
  185.8190  178.1340  145.4510 C   0  0  0  0  0  3  0  0  0  0  0  0
  185.6810  178.4000  143.0770 N   0  0  0  0  0  0  0  0  0  0  0  0
  180.3900  177.0110  138.5150 C   0  0  0  0  0  0  0  0  0  0  0  0
  179.3910  176.2620  138.3610 O   0  0  0  0  0  0  0  0  0  0  0  0
  181.8710  177.9980  140.2410 C   0  0  2  0  0  3  0  0  0  0  0  0
  184.0150  179.0030  140.7470 C   0  0  2  0  0  3  0  0  0  0  0  0
  181.4160  176.7050  139.5540 C   0  0  0  0  0  2  0  0  0  0  0  0
  180.5670  178.1570  137.6890 N   0  0  0  0  0  2  0  0  0  0  0  0
  181.7930  178.9310  137.8250 C   0  0  0  0  0  2  0  0  0  0  0  0
  182.0840  179.2080  139.3030 C   0  0  2  0  0  3  0  0  0  0  0  0
  183.1780  177.7590  140.9680 C   0  0  0  0  0  2  0  0  0  0  0  0
  183.5220  179.6520  139.4680 C   0  0  0  0  0  2  0  0  0  0  0  0
  189.8440  177.5800  142.6560 C   0  0  0  0  0  2  0  0  0  0  0  0
  190.0650  176.7360  141.4050 C   0  0  0  0  0  2  0  0  0  0  0  0
  190.7830  177.5010  140.2930 C   0  0  2  0  0  3  0  0  0  0  0  0
  191.1440  175.8570  138.5020 N   0  0  0  0  0  2  0  0  0  0  0  0
  189.8090  178.1610  139.3520 C   0  0  0  0  0  3  0  0  0  0  0  0
  189.6910  177.7900  138.0700 C   0  0  0  0  0  0  0  0  0  0  0  0
  190.6610  176.7920  137.4860 C   0  0  0  0  0  2  0  0  0  0  0  0
  191.8040  176.6280  139.5540 C   0  0  0  0  0  2  0  0  0  0  0  0
  186.7010  175.7820  135.3240 C   0  0  0  0  0  1  0  0  0  0  0  0
  188.7360  178.4940  137.1890 C   0  0  0  0  0  0  0  0  0  0  0  0
  187.3780  175.9390  137.5940 O   0  0  0  0  0  0  0  0  0  0  0  0
  188.6780  179.7530  137.2190 O   0  0  0  0  0  0  0  0  0  0  0  0
  187.3550  176.4840  136.4590 C   0  0  0  0  0  0  0  0  0  0  0  0
  187.9020  177.7920  136.2580 N   0  0  0  0  0  2  0  0  0  0  0  0
  1 12  1  0  0  0  0
  2  6  2  0  0  0  0
  3  4  1  0  0  0  0
  5  3  2  0  0  0  0
  6  8  1  0  0  0  0
  6  5  1  0  0  0  0
  7 10  1  0  0  0  0
  8 11  1  0  0  0  0
  9  1  2  0  0  0  0
  9  2  1  0  0  0  0
 10  1  1  0  0  0  0
 11  4  2  0  0  0  0
 12  8  2  0  0  0  0
 13 17  1  0  0  0  0
 14 13  2  0  0  0  0
 15 17  1  6  0  0  0
 15 21  1  0  0  0  0
 16 10  1  6  0  0  0
 16 21  1  0  0  0  0
 18 19  1  0  0  0  0
 18 13  1  0  0  0  0
 20 19  1  6  0  0  0
 20 22  1  0  0  0  0
 20 15  1  0  0  0  0
 22 16  1  0  0  0  0
 23  2  1  0  0  0  0
 24 23  1  0  0  0  0
 25 24  1  1  0  0  0
 26 30  1  0  0  0  0
 27 25  1  0  0  0  0
 28 27  2  0  0  0  0
 29 28  1  0  0  0  0
 29 26  1  0  0  0  0
 30 25  1  0  0  0  0
 31 35  1  0  0  0  0
 32 34  2  0  0  0  0
 32 28  1  0  0  0  0
 35 33  2  0  0  0  0
 36 35  1  0  0  0  0
 36 32  1  0  0  0  0
M  END
>  <MODEL>
8

>  <REMARK>
 VINA RESULT:      -9.1      2.758      5.272
  Name = 
  5 active torsions:
  status: ('A' for Active; 'I' for Inactive)
    1  A    between atoms: C_4  and  C_13
    2  A    between atoms: C_5  and  C_22
    3  A    between atoms: C_10  and  N_33
    4  A    between atoms: C_13  and  C_22
    5  A    between atoms: C_15  and  C_20
                            x       y       z     vdW  Elec       q    Type
                         _______ _______ _______ _____ _____    ______ ____

>  <TORSDO>
F 5

$$$$
=
 OpenBabel11062417123D

 36 40  0  0  1  0  0  0  0  0999 V2000
  189.8140  177.2880  140.6080 C   0  0  0  0  0  0  0  0  0  0  0  0
  189.6720  176.3980  138.3570 C   0  0  0  0  0  0  0  0  0  0  0  0
  193.0690  176.2550  137.0100 C   0  0  0  0  0  3  0  0  0  0  0  0
  193.7900  176.7450  138.0520 N   0  0  0  0  0  0  0  0  0  0  0  0
  191.7170  176.1390  137.1050 N   0  0  0  0  0  0  0  0  0  0  0  0
  191.0660  176.5100  138.2410 C   0  0  0  0  0  0  0  0  0  0  0  0
  187.8320  177.5440  141.9610 O   0  0  0  0  0  1  0  0  0  0  0  0
  191.8000  177.0180  139.3270 C   0  0  0  0  0  0  0  0  0  0  0  0
  189.0500  176.7840  139.5460 C   0  0  0  0  0  3  0  0  0  0  0  0
  189.1720  177.6870  141.8340 N   0  0  0  0  0  0  0  0  0  0  0  0
  193.1830  177.1280  139.2070 C   0  0  0  0  0  3  0  0  0  0  0  0
  191.1670  177.3910  140.4690 N   0  0  0  0  0  0  0  0  0  0  0  0
  191.4470  176.1460  146.8730 C   0  0  0  0  0  0  0  0  0  0  0  0
  192.2720  175.5980  147.6480 O   0  0  0  0  0  0  0  0  0  0  0  0
  191.2810  177.5260  144.8200 C   0  0  2  0  0  3  0  0  0  0  0  0
  189.9060  178.2550  142.9650 C   0  0  2  0  0  3  0  0  0  0  0  0
  191.6840  176.1650  145.4010 C   0  0  0  0  0  2  0  0  0  0  0  0
  190.2610  176.7460  147.3870 N   0  0  0  0  0  2  0  0  0  0  0  0
  189.2800  177.2680  146.4460 C   0  0  0  0  0  2  0  0  0  0  0  0
  189.9710  178.1250  145.3800 C   0  0  2  0  0  3  0  0  0  0  0  0
  191.1160  177.4140  143.3180 C   0  0  0  0  0  2  0  0  0  0  0  0
  189.0380  178.3340  144.2060 C   0  0  0  0  0  2  0  0  0  0  0  0
  188.8430  175.8470  137.2450 C   0  0  0  0  0  2  0  0  0  0  0  0
  187.3620  175.9480  137.5940 C   0  0  0  0  0  2  0  0  0  0  0  0
  186.6710  177.1290  136.9120 C   0  0  2  0  0  3  0  0  0  0  0  0
  184.4430  176.3030  136.2850 N   0  0  0  0  0  2  0  0  0  0  0  0
  185.9540  178.0060  137.9040 C   0  0  0  0  0  3  0  0  0  0  0  0
  184.6210  178.1280  137.9190 C   0  0  0  0  0  0  0  0  0  0  0  0
  183.7990  177.5030  136.8180 C   0  0  0  0  0  2  0  0  0  0  0  0
  185.7550  176.6810  135.7660 C   0  0  0  0  0  2  0  0  0  0  0  0
  180.8540  177.1820  140.2490 C   0  0  0  0  0  1  0  0  0  0  0  0
  183.9770  179.0260  138.9010 C   0  0  0  0  0  0  0  0  0  0  0  0
  183.0560  176.4080  139.8140 O   0  0  0  0  0  0  0  0  0  0  0  0
  184.5230  180.1270  139.1840 O   0  0  0  0  0  0  0  0  0  0  0  0
  182.2650  177.3890  139.8330 C   0  0  0  0  0  0  0  0  0  0  0  0
  182.7200  178.7080  139.5110 N   0  0  0  0  0  2  0  0  0  0  0  0
  1 10  1  0  0  0  0
  2  9  1  0  0  0  0
  3  5  2  0  0  0  0
  3  4  1  0  0  0  0
  4 11  2  0  0  0  0
  5  6  1  0  0  0  0
  6  2  2  0  0  0  0
  6  8  1  0  0  0  0
  8 12  2  0  0  0  0
  9  1  2  0  0  0  0
 10  7  1  0  0  0  0
 11  8  1  0  0  0  0
 12  1  1  0  0  0  0
 13 18  1  0  0  0  0
 13 14  2  0  0  0  0
 15 21  1  6  0  0  0
 15 20  1  0  0  0  0
 15 17  1  0  0  0  0
 16 10  1  6  0  0  0
 16 21  1  0  0  0  0
 16 22  1  0  0  0  0
 17 13  1  0  0  0  0
 19 18  1  0  0  0  0
 20 22  1  6  0  0  0
 20 19  1  0  0  0  0
 23 24  1  0  0  0  0
 23  2  1  0  0  0  0
 25 24  1  1  0  0  0
 25 27  1  0  0  0  0
 26 29  1  0  0  0  0
 27 28  2  0  0  0  0
 28 32  1  0  0  0  0
 29 28  1  0  0  0  0
 30 26  1  0  0  0  0
 30 25  1  0  0  0  0
 32 34  2  0  0  0  0
 32 36  1  0  0  0  0
 33 35  2  0  0  0  0
 35 31  1  0  0  0  0
 36 35  1  0  0  0  0
M  END
>  <MODEL>
9

>  <REMARK>
 VINA RESULT:      -9.1      3.254     10.107
  Name = 
  5 active torsions:
  status: ('A' for Active; 'I' for Inactive)
    1  A    between atoms: C_4  and  C_13
    2  A    between atoms: C_5  and  C_22
    3  A    between atoms: C_10  and  N_33
    4  A    between atoms: C_13  and  C_22
    5  A    between atoms: C_15  and  C_20
                            x       y       z     vdW  Elec       q    Type
                         _______ _______ _______ _____ _____    ______ ____

>  <TORSDO>
F 5

$$$$
