=
 OpenBabel11062414563D

 51 58  0  0  1  0  0  0  0  0999 V2000
  185.2270  178.9570  141.3440 C   0  0  0  0  0  0  0  0  0  0  0  0
  181.8890  177.5680  137.7090 C   0  0  0  0  0  0  0  0  0  0  0  0
  183.8320  179.0000  141.3340 C   0  0  0  0  0  3  0  0  0  0  0  0
  183.8020  178.3470  138.9800 C   0  0  0  0  0  0  0  0  0  0  0  0
  185.2040  178.3250  139.0070 C   0  0  0  0  0  3  0  0  0  0  0  0
  180.9590  177.4510  140.3780 C   0  0  0  0  0  2  0  0  0  0  0  0
  183.1210  177.9910  137.6990 C   0  0  0  0  0  0  0  0  0  0  0  0
  179.9960  177.2000  139.2110 C   0  0  0  0  0  2  0  0  0  0  0  0
  183.1080  178.7030  140.1750 C   0  0  0  0  0  0  0  0  0  0  0  0
  180.6540  177.1780  137.8560 C   0  0  0  0  0  3  0  0  0  0  0  0
  185.9150  178.6270  140.1690 C   0  0  0  0  0  0  0  0  0  0  0  0
  187.3040  178.6000  140.1410 O   0  0  0  0  0  1  0  0  0  0  0  0
  181.6130  178.8240  140.2670 C   0  0  0  0  0  2  0  0  0  0  0  0
  185.9640  179.2850  142.6090 C   0  0  0  0  0  2  0  0  0  0  0  0
  183.6380  179.0320  145.0570 S   0  0  0  0  0  0  0  0  0  0  0  0
  186.5600  176.9530  143.2460 C   0  0  0  0  0  1  0  0  0  0  0  0
  185.8260  178.2140  143.7040 C   0  0  1  0  0  0  0  0  0  0  0  0
  186.3290  178.7350  144.9910 N   0  0  0  0  0  0  0  0  0  0  0  0
  184.3560  177.8840  143.8560 C   0  0  0  0  0  2  0  0  0  0  0  0
  185.2920  179.5980  145.5570 C   0  0  0  0  0  2  0  0  0  0  0  0
  186.5650  177.6690  145.9640 C   0  0  0  0  0  2  0  0  0  0  0  0
  189.3060  177.3790  146.1520 C   0  0  1  0  0  3  0  0  0  0  0  0
  189.0500  177.8950  147.4160 C   0  0  0  0  0  0  0  0  0  0  0  0
  187.9610  177.6760  146.3650 N   0  0  0  0  0  0  0  0  0  0  0  0
  189.4240  178.2650  148.5600 O   0  0  0  0  0  0  0  0  0  0  0  0
  189.8840  178.3690  145.3540 O   0  0  0  0  0  0  0  0  0  0  0  0
  191.3310  178.6520  143.4870 C   0  0  0  0  0  2  0  0  0  0  0  0
  190.0390  178.0200  143.0140 C   0  0  0  0  0  2  0  0  0  0  0  0
  190.5970  177.6680  144.3790 C   0  0  0  0  0  3  0  0  0  0  0  0
  183.8680  177.9230  136.4060 C   0  0  0  0  0  2  0  0  0  0  0  0
  183.7010  176.5550  135.7660 C   0  0  0  0  0  2  0  0  0  0  0  0
  183.7590  174.6370  138.0840 C   0  0  0  0  0  1  0  0  0  0  0  0
  189.4320  175.7020  137.6180 C   0  0  0  0  0  0  0  0  0  0  0  0
  190.9050  176.8920  139.2150 C   0  0  0  0  0  2  0  0  0  0  0  0
  188.2240  175.4350  137.2100 C   0  0  0  0  0  0  0  0  0  0  0  0
  191.8220  175.0500  137.8160 C   0  0  0  0  0  0  0  0  0  0  0  0
  187.0130  175.1660  136.8030 C   0  0  0  0  0  0  0  0  0  0  0  0
  186.1340  174.1410  137.4430 C   0  0  1  0  0  3  0  0  0  0  0  0
  189.7290  177.0260  138.2520 C   0  0  0  0  0  2  0  0  0  0  0  0
  184.8180  175.6860  136.1190 N   0  0  0  0  0  0  0  0  0  0  0  0
  184.7030  174.4480  136.9040 C   0  0  2  0  0  0  0  0  0  0  0  0
  185.4110  172.2930  136.2160 C   0  0  0  0  0  0  0  0  0  0  0  0
  190.4910  174.7730  137.3680 N   0  0  0  0  0  2  0  0  0  0  0  0
  184.0180  173.4990  134.5960 C   0  0  0  0  0  1  0  0  0  0  0  0
  186.4820  172.8150  136.9730 N   0  0  0  0  0  2  0  0  0  0  0  0
  186.5690  177.1680  135.5540 O   0  0  0  0  0  0  0  0  0  0  0  0
  192.7410  174.2190  137.5990 O   0  0  0  0  0  0  0  0  0  0  0  0
  192.1380  176.3500  138.4940 C   0  0  0  0  0  2  0  0  0  0  0  0
  186.1730  176.0980  136.0920 C   0  0  0  0  0  0  0  0  0  0  0  0
  184.2650  173.2160  136.0730 C   0  0  2  0  0  3  0  0  0  0  0  0
  185.4300  171.1270  135.7390 O   0  0  0  0  0  0  0  0  0  0  0  0
  1 14  1  0  0  0  0
  2 10  2  0  0  0  0
  3  1  1  0  0  0  0
  4  5  2  0  0  0  0
  4  9  1  0  0  0  0
  5 11  1  0  0  0  0
  7  2  2  0  0  0  0
  7  4  1  0  0  0  0
  8  6  1  0  0  0  0
  9 13  1  0  0  0  0
  9  3  2  0  0  0  0
 10  8  1  0  0  0  0
 11  1  2  0  0  0  0
 12 11  1  0  0  0  0
 13  6  1  0  0  0  0
 14 17  1  0  0  0  0
 15 20  1  0  0  0  0
 17 16  1  6  0  0  0
 17 19  1  0  0  0  0
 17 18  1  0  0  0  0
 18 20  1  0  0  0  0
 18 21  1  0  0  0  0
 19 15  1  0  0  0  0
 21 24  1  0  0  0  0
 22 26  1  6  0  0  0
 22 24  1  0  0  0  0
 22 23  1  0  0  0  0
 23 25  2  0  0  0  0
 24 23  1  0  0  0  0
 27 29  1  0  0  0  0
 28 27  1  0  0  0  0
 28 29  1  0  0  0  0
 29 26  1  0  0  0  0
 30  7  1  0  0  0  0
 31 40  1  0  0  0  0
 31 30  1  0  0  0  0
 33 39  1  0  0  0  0
 35 33  2  0  0  0  0
 36 48  1  0  0  0  0
 37 35  2  0  0  0  0
 38 37  1  6  0  0  0
 39 34  1  0  0  0  0
 40 41  1  0  0  0  0
 41 38  1  0  0  0  0
 41 32  1  1  0  0  0
 42 45  1  0  0  0  0
 43 33  1  0  0  0  0
 43 36  1  0  0  0  0
 45 38  1  0  0  0  0
 46 49  2  0  0  0  0
 47 36  2  0  0  0  0
 48 34  1  0  0  0  0
 49 40  1  0  0  0  0
 49 37  1  0  0  0  0
 50 44  1  6  0  0  0
 50 42  1  0  0  0  0
 50 41  1  0  0  0  0
 51 42  2  0  0  0  0
M  END
>  <MODEL>
1

>  <REMARK>
 VINA RESULT:      -7.7      0.000      0.000
  Name = 
  9 active torsions:
  status: ('A' for Active; 'I' for Inactive)
    1  A    between atoms: C_2  and  O_50
    2  A    between atoms: C_10  and  N_15
    3  A    between atoms: C_10  and  N_23
    4  A    between atoms: C_11  and  C_42
    5  A    between atoms: C_13  and  C_42
    6  A    between atoms: N_25  and  C_38
    7  A    between atoms: C_26  and  C_47
    8  A    between atoms: C_27  and  O_50
    9  A    between atoms: C_38  and  C_47
                            x       y       z     vdW  Elec       q    Type
                         _______ _______ _______ _____ _____    ______ ____

>  <TORSDO>
F 9

$$$$
=
 OpenBabel11062414563D

 51 58  0  0  1  0  0  0  0  0999 V2000
  185.5350  178.9300  143.0340 C   0  0  0  0  0  0  0  0  0  0  0  0
  180.7470  178.5790  141.2360 C   0  0  0  0  0  0  0  0  0  0  0  0
  184.3110  179.0970  143.6840 C   0  0  0  0  0  3  0  0  0  0  0  0
  183.1270  178.9220  141.5540 C   0  0  0  0  0  0  0  0  0  0  0  0
  184.3680  178.7710  140.9190 C   0  0  0  0  0  3  0  0  0  0  0  0
  181.0980  178.0250  143.9880 C   0  0  0  0  0  2  0  0  0  0  0  0
  181.8970  178.8850  140.7070 C   0  0  0  0  0  0  0  0  0  0  0  0
  179.6890  178.0930  143.3860 C   0  0  0  0  0  2  0  0  0  0  0  0
  183.1080  179.0980  142.9700 C   0  0  0  0  0  0  0  0  0  0  0  0
  179.6610  178.2780  141.8900 C   0  0  0  0  0  3  0  0  0  0  0  0
  185.5610  178.7760  141.6410 C   0  0  0  0  0  0  0  0  0  0  0  0
  186.7660  178.6320  140.9640 O   0  0  0  0  0  1  0  0  0  0  0  0
  181.8550  179.3300  143.7660 C   0  0  0  0  0  2  0  0  0  0  0  0
  186.8020  178.9380  143.8380 C   0  0  0  0  0  2  0  0  0  0  0  0
  185.6050  178.3720  146.9540 S   0  0  0  0  0  0  0  0  0  0  0  0
  187.3240  176.5040  143.8410 C   0  0  0  0  0  1  0  0  0  0  0  0
  186.9790  177.6990  144.7310 C   0  0  1  0  0  0  0  0  0  0  0  0
  188.0020  177.9580  145.7640 N   0  0  0  0  0  0  0  0  0  0  0  0
  185.6580  177.4200  145.4160 C   0  0  0  0  0  2  0  0  0  0  0  0
  187.3760  178.7580  146.8170 C   0  0  0  0  0  2  0  0  0  0  0  0
  188.4730  176.7270  146.3960 C   0  0  0  0  0  2  0  0  0  0  0  0
  191.1520  176.4250  145.7920 C   0  0  1  0  0  3  0  0  0  0  0  0
  191.2680  176.8380  147.1130 C   0  0  0  0  0  0  0  0  0  0  0  0
  189.9250  176.7030  146.3930 N   0  0  0  0  0  0  0  0  0  0  0  0
  191.9520  177.1180  148.1330 O   0  0  0  0  0  0  0  0  0  0  0  0
  191.5070  177.4760  144.9430 O   0  0  0  0  0  0  0  0  0  0  0  0
  191.7770  177.8610  142.6120 C   0  0  0  0  0  2  0  0  0  0  0  0
  190.3840  178.2900  143.0210 C   0  0  0  0  0  2  0  0  0  0  0  0
  191.0320  177.0930  143.6870 C   0  0  0  0  0  3  0  0  0  0  0  0
  181.9670  179.0050  139.2180 C   0  0  0  0  0  2  0  0  0  0  0  0
  181.1830  177.8830  138.5570 C   0  0  0  0  0  2  0  0  0  0  0  0
  181.7650  175.2260  139.8430 C   0  0  0  0  0  1  0  0  0  0  0  0
  186.7400  175.9780  136.9760 C   0  0  0  0  0  0  0  0  0  0  0  0
  189.0040  176.3590  137.9070 C   0  0  0  0  0  2  0  0  0  0  0  0
  185.4500  175.9750  137.1610 C   0  0  0  0  0  0  0  0  0  0  0  0
  188.7340  175.1310  135.7600 C   0  0  0  0  0  0  0  0  0  0  0  0
  184.1580  175.9700  137.3480 C   0  0  0  0  0  0  0  0  0  0  0  0
  183.4210  174.8440  137.9970 C   0  0  1  0  0  3  0  0  0  0  0  0
  187.6000  176.9340  137.7430 C   0  0  0  0  0  2  0  0  0  0  0  0
  182.0890  176.8670  138.0310 N   0  0  0  0  0  0  0  0  0  0  0  0
  182.0230  175.4350  138.3580 C   0  0  2  0  0  0  0  0  0  0  0  0
  181.8040  173.6630  136.7990 C   0  0  0  0  0  0  0  0  0  0  0  0
  187.3190  175.1430  135.9700 N   0  0  0  0  0  2  0  0  0  0  0  0
  180.1930  175.4920  136.5290 C   0  0  0  0  0  1  0  0  0  0  0  0
  183.1900  173.7770  137.0430 N   0  0  0  0  0  2  0  0  0  0  0  0
  183.7270  178.3240  137.1490 O   0  0  0  0  0  0  0  0  0  0  0  0
  189.2300  174.3830  134.8790 O   0  0  0  0  0  0  0  0  0  0  0  0
  189.6240  176.0470  136.5470 C   0  0  0  0  0  2  0  0  0  0  0  0
  183.3520  177.1600  137.4630 C   0  0  0  0  0  0  0  0  0  0  0  0
  180.9780  174.6500  137.5260 C   0  0  2  0  0  3  0  0  0  0  0  0
  181.3250  172.7690  136.0500 O   0  0  0  0  0  0  0  0  0  0  0  0
  1  3  1  0  0  0  0
  1 14  1  0  0  0  0
  2 10  2  0  0  0  0
  4  9  1  0  0  0  0
  5  4  2  0  0  0  0
  5 11  1  0  0  0  0
  7  2  2  0  0  0  0
  7  4  1  0  0  0  0
  8  6  1  0  0  0  0
  9  3  2  0  0  0  0
  9 13  1  0  0  0  0
 10  8  1  0  0  0  0
 11  1  2  0  0  0  0
 12 11  1  0  0  0  0
 13  6  1  0  0  0  0
 14 17  1  0  0  0  0
 17 16  1  6  0  0  0
 17 19  1  0  0  0  0
 17 18  1  0  0  0  0
 18 21  1  0  0  0  0
 18 20  1  0  0  0  0
 19 15  1  0  0  0  0
 20 15  1  0  0  0  0
 22 26  1  6  0  0  0
 22 24  1  0  0  0  0
 22 23  1  0  0  0  0
 23 25  2  0  0  0  0
 24 21  1  0  0  0  0
 24 23  1  0  0  0  0
 27 28  1  0  0  0  0
 27 29  1  0  0  0  0
 28 29  1  0  0  0  0
 29 26  1  0  0  0  0
 30  7  1  0  0  0  0
 31 30  1  0  0  0  0
 33 35  2  0  0  0  0
 33 39  1  0  0  0  0
 35 37  2  0  0  0  0
 36 43  1  0  0  0  0
 36 48  1  0  0  0  0
 37 49  1  0  0  0  0
 37 38  1  0  0  0  0
 38 45  1  6  0  0  0
 38 41  1  0  0  0  0
 39 34  1  0  0  0  0
 40 41  1  0  0  0  0
 40 31  1  0  0  0  0
 41 32  1  1  0  0  0
 42 45  1  0  0  0  0
 42 50  1  0  0  0  0
 43 33  1  0  0  0  0
 46 49  2  0  0  0  0
 47 36  2  0  0  0  0
 48 34  1  0  0  0  0
 49 40  1  0  0  0  0
 50 44  1  6  0  0  0
 50 41  1  0  0  0  0
 51 42  2  0  0  0  0
M  END
>  <MODEL>
2

>  <REMARK>
 VINA RESULT:      -7.1      2.032      2.967
  Name = 
  9 active torsions:
  status: ('A' for Active; 'I' for Inactive)
    1  A    between atoms: C_2  and  O_50
    2  A    between atoms: C_10  and  N_15
    3  A    between atoms: C_10  and  N_23
    4  A    between atoms: C_11  and  C_42
    5  A    between atoms: C_13  and  C_42
    6  A    between atoms: N_25  and  C_38
    7  A    between atoms: C_26  and  C_47
    8  A    between atoms: C_27  and  O_50
    9  A    between atoms: C_38  and  C_47
                            x       y       z     vdW  Elec       q    Type
                         _______ _______ _______ _____ _____    ______ ____

>  <TORSDO>
F 9

$$$$
=
 OpenBabel11062414563D

 51 58  0  0  1  0  0  0  0  0999 V2000
  184.2860  178.8250  141.1800 C   0  0  0  0  0  0  0  0  0  0  0  0
  188.9180  177.7040  143.0690 C   0  0  0  0  0  0  0  0  0  0  0  0
  184.6490  178.2430  142.3960 C   0  0  0  0  0  3  0  0  0  0  0  0
  186.9800  178.1280  141.6740 C   0  0  0  0  0  0  0  0  0  0  0  0
  186.5910  178.7000  140.4530 C   0  0  0  0  0  3  0  0  0  0  0  0
  186.8780  178.2110  144.9640 C   0  0  0  0  0  2  0  0  0  0  0  0
  188.4260  177.8080  141.8680 C   0  0  0  0  0  0  0  0  0  0  0  0
  188.2580  177.7230  145.4230 C   0  0  0  0  0  2  0  0  0  0  0  0
  185.9760  177.8900  142.6600 C   0  0  0  0  0  0  0  0  0  0  0  0
  189.2770  177.6090  144.3190 C   0  0  0  0  0  3  0  0  0  0  0  0
  185.2630  179.0440  140.2010 C   0  0  0  0  0  0  0  0  0  0  0  0
  184.9280  179.5990  138.9710 O   0  0  0  0  0  1  0  0  0  0  0  0
  186.2460  177.2300  143.9820 C   0  0  0  0  0  2  0  0  0  0  0  0
  182.8490  179.1860  140.9380 C   0  0  0  0  0  2  0  0  0  0  0  0
  180.7410  176.5890  140.4170 S   0  0  0  0  0  0  0  0  0  0  0  0
  182.3710  179.7570  138.5620 C   0  0  0  0  0  1  0  0  0  0  0  0
  182.2890  178.6470  139.6110 C   0  0  1  0  0  0  0  0  0  0  0  0
  183.0160  177.4260  139.2110 N   0  0  0  0  0  0  0  0  0  0  0  0
  180.8320  178.2960  139.8240 C   0  0  0  0  0  2  0  0  0  0  0  0
  182.4910  176.3160  140.0060 C   0  0  0  0  0  2  0  0  0  0  0  0
  182.7890  177.0810  137.8080 C   0  0  0  0  0  2  0  0  0  0  0  0
  185.1910  175.9010  137.1210 C   0  0  1  0  0  3  0  0  0  0  0  0
  185.1840  176.9420  136.2020 C   0  0  0  0  0  0  0  0  0  0  0  0
  184.0460  176.6930  137.1930 N   0  0  0  0  0  0  0  0  0  0  0  0
  185.7080  177.5970  135.2630 O   0  0  0  0  0  0  0  0  0  0  0  0
  184.8930  174.7020  136.4700 O   0  0  0  0  0  0  0  0  0  0  0  0
  184.6520  172.3890  136.9670 C   0  0  0  0  0  2  0  0  0  0  0  0
  183.3090  173.0670  137.1340 C   0  0  0  0  0  2  0  0  0  0  0  0
  184.5810  173.8080  137.4960 C   0  0  0  0  0  3  0  0  0  0  0  0
  189.3860  177.7870  140.7210 C   0  0  0  0  0  2  0  0  0  0  0  0
  189.3560  176.4340  140.0290 C   0  0  0  0  0  2  0  0  0  0  0  0
  188.8590  174.7400  137.5920 C   0  0  0  0  0  1  0  0  0  0  0  0
  194.5420  175.6420  136.9480 C   0  0  0  0  0  0  0  0  0  0  0  0
  196.3840  173.9920  137.1010 C   0  0  0  0  0  2  0  0  0  0  0  0
  193.3000  175.9450  137.1990 C   0  0  0  0  0  0  0  0  0  0  0  0
  196.5860  175.9400  135.5660 C   0  0  0  0  0  0  0  0  0  0  0  0
  192.0550  176.2470  137.4480 C   0  0  0  0  0  0  0  0  0  0  0  0
  190.9090  175.7950  136.6020 C   0  0  1  0  0  3  0  0  0  0  0  0
  195.2850  174.7220  137.8680 C   0  0  0  0  0  2  0  0  0  0  0  0
  190.1340  176.4750  138.7950 N   0  0  0  0  0  0  0  0  0  0  0  0
  189.6420  176.0400  137.4790 C   0  0  2  0  0  0  0  0  0  0  0  0
  189.5690  177.3660  135.5150 C   0  0  0  0  0  0  0  0  0  0  0  0
  195.2230  176.2670  135.8570 N   0  0  0  0  0  2  0  0  0  0  0  0
  188.5980  178.4080  137.5120 C   0  0  0  0  0  1  0  0  0  0  0  0
  190.7800  176.6440  135.4340 N   0  0  0  0  0  2  0  0  0  0  0  0
  192.2560  176.8470  139.7650 O   0  0  0  0  0  0  0  0  0  0  0  0
  197.1680  176.4890  134.5960 O   0  0  0  0  0  0  0  0  0  0  0  0
  197.3400  174.9860  136.4450 C   0  0  0  0  0  2  0  0  0  0  0  0
  191.5470  176.5670  138.7590 C   0  0  0  0  0  0  0  0  0  0  0  0
  188.7910  177.1060  136.7450 C   0  0  2  0  0  3  0  0  0  0  0  0
  189.1830  178.1350  134.5950 O   0  0  0  0  0  0  0  0  0  0  0  0
  1  3  1  0  0  0  0
  2 10  2  0  0  0  0
  3  9  2  0  0  0  0
  4  7  1  0  0  0  0
  4  9  1  0  0  0  0
  5  4  2  0  0  0  0
  6  8  1  0  0  0  0
  7  2  2  0  0  0  0
  9 13  1  0  0  0  0
 10  8  1  0  0  0  0
 11  5  1  0  0  0  0
 11  1  2  0  0  0  0
 12 11  1  0  0  0  0
 13  6  1  0  0  0  0
 14  1  1  0  0  0  0
 17 16  1  6  0  0  0
 17 19  1  0  0  0  0
 17 14  1  0  0  0  0
 18 17  1  0  0  0  0
 18 20  1  0  0  0  0
 19 15  1  0  0  0  0
 20 15  1  0  0  0  0
 21 18  1  0  0  0  0
 22 26  1  6  0  0  0
 22 24  1  0  0  0  0
 23 22  1  0  0  0  0
 23 24  1  0  0  0  0
 24 21  1  0  0  0  0
 25 23  2  0  0  0  0
 26 29  1  0  0  0  0
 27 28  1  0  0  0  0
 27 29  1  0  0  0  0
 28 29  1  0  0  0  0
 30  7  1  0  0  0  0
 31 30  1  0  0  0  0
 33 35  2  0  0  0  0
 33 39  1  0  0  0  0
 34 39  1  0  0  0  0
 35 37  2  0  0  0  0
 36 43  1  0  0  0  0
 36 48  1  0  0  0  0
 37 49  1  0  0  0  0
 38 45  1  6  0  0  0
 38 37  1  0  0  0  0
 38 41  1  0  0  0  0
 40 31  1  0  0  0  0
 41 32  1  1  0  0  0
 41 40  1  0  0  0  0
 42 50  1  0  0  0  0
 43 33  1  0  0  0  0
 45 42  1  0  0  0  0
 47 36  2  0  0  0  0
 48 34  1  0  0  0  0
 49 40  1  0  0  0  0
 49 46  2  0  0  0  0
 50 41  1  0  0  0  0
 50 44  1  1  0  0  0
 51 42  2  0  0  0  0
M  END
>  <MODEL>
3

>  <REMARK>
 VINA RESULT:      -6.9      2.845      7.163
  Name = 
  9 active torsions:
  status: ('A' for Active; 'I' for Inactive)
    1  A    between atoms: C_2  and  O_50
    2  A    between atoms: C_10  and  N_15
    3  A    between atoms: C_10  and  N_23
    4  A    between atoms: C_11  and  C_42
    5  A    between atoms: C_13  and  C_42
    6  A    between atoms: N_25  and  C_38
    7  A    between atoms: C_26  and  C_47
    8  A    between atoms: C_27  and  O_50
    9  A    between atoms: C_38  and  C_47
                            x       y       z     vdW  Elec       q    Type
                         _______ _______ _______ _____ _____    ______ ____

>  <TORSDO>
F 9

$$$$
=
 OpenBabel11062414563D

 51 58  0  0  1  0  0  0  0  0999 V2000
  190.6370  177.5340  140.8720 C   0  0  0  0  0  0  0  0  0  0  0  0
  189.7800  176.6800  135.8910 C   0  0  0  0  0  0  0  0  0  0  0  0
  191.0670  176.4940  140.0470 C   0  0  0  0  0  3  0  0  0  0  0  0
  189.6670  177.3250  138.2260 C   0  0  0  0  0  0  0  0  0  0  0  0
  189.2350  178.3530  139.0770 C   0  0  0  0  0  3  0  0  0  0  0  0
  192.1720  175.6070  136.9550 C   0  0  0  0  0  2  0  0  0  0  0  0
  189.1260  177.2950  136.8340 C   0  0  0  0  0  0  0  0  0  0  0  0
  191.7510  175.2820  135.5160 C   0  0  0  0  0  2  0  0  0  0  0  0
  190.5990  176.3720  138.7350 C   0  0  0  0  0  0  0  0  0  0  0  0
  190.5200  176.0160  135.0480 C   0  0  0  0  0  3  0  0  0  0  0  0
  189.7080  178.4620  140.3850 C   0  0  0  0  0  0  0  0  0  0  0  0
  189.2410  179.4940  141.1910 O   0  0  0  0  0  1  0  0  0  0  0  0
  191.0950  175.1900  137.9510 C   0  0  0  0  0  2  0  0  0  0  0  0
  191.1630  177.6260  142.2750 C   0  0  0  0  0  2  0  0  0  0  0  0
  187.8280  177.3120  142.7630 S   0  0  0  0  0  0  0  0  0  0  0  0
  191.3340  175.5850  143.6900 C   0  0  0  0  0  1  0  0  0  0  0  0
  190.4140  176.7350  143.2780 C   0  0  1  0  0  0  0  0  0  0  0  0
  189.9520  177.5400  144.4270 N   0  0  0  0  0  0  0  0  0  0  0  0
  189.2050  176.1510  142.5780 C   0  0  0  0  0  2  0  0  0  0  0  0
  188.7500  178.2620  144.0100 C   0  0  0  0  0  2  0  0  0  0  0  0
  189.5670  176.7080  145.5660 C   0  0  0  0  0  2  0  0  0  0  0  0
  187.7550  178.4420  146.7260 C   0  0  1  0  0  3  0  0  0  0  0  0
  188.3380  177.9260  147.8760 C   0  0  0  0  0  0  0  0  0  0  0  0
  188.7260  177.4750  146.4680 N   0  0  0  0  0  0  0  0  0  0  0  0
  188.4590  177.8680  149.1290 O   0  0  0  0  0  0  0  0  0  0  0  0
  186.4840  177.8870  146.5590 O   0  0  0  0  0  0  0  0  0  0  0  0
  184.2400  178.4930  146.0570 C   0  0  0  0  0  2  0  0  0  0  0  0
  185.1380  178.9760  144.9390 C   0  0  0  0  0  2  0  0  0  0  0  0
  185.6410  178.9840  146.3690 C   0  0  0  0  0  3  0  0  0  0  0  0
  187.9390  178.1130  136.4350 C   0  0  0  0  0  2  0  0  0  0  0  0
  186.9600  177.2730  135.6310 C   0  0  0  0  0  2  0  0  0  0  0  0
  184.5270  175.7770  134.6840 C   0  0  0  0  0  1  0  0  0  0  0  0
  182.2710  178.3520  139.3540 C   0  0  0  0  0  0  0  0  0  0  0  0
  180.5330  180.1150  139.4440 C   0  0  0  0  0  2  0  0  0  0  0  0
  183.1540  177.6980  138.6530 C   0  0  0  0  0  0  0  0  0  0  0  0
  180.7050  178.4450  141.2810 C   0  0  0  0  0  0  0  0  0  0  0  0
  184.0370  177.0430  137.9490 C   0  0  0  0  0  0  0  0  0  0  0  0
  183.6930  175.9030  137.0470 C   0  0  1  0  0  3  0  0  0  0  0  0
  181.9590  179.7770  139.0170 C   0  0  0  0  0  2  0  0  0  0  0  0
  185.8630  176.8160  136.4770 N   0  0  0  0  0  0  0  0  0  0  0  0
  184.9510  175.7120  136.1440 C   0  0  2  0  0  0  0  0  0  0  0  0
  184.5670  173.7790  137.4620 C   0  0  0  0  0  0  0  0  0  0  0  0
  181.6800  177.7420  140.5050 N   0  0  0  0  0  2  0  0  0  0  0  0
  186.9260  174.3100  137.0540 C   0  0  0  0  0  1  0  0  0  0  0  0
  183.5390  174.6820  137.8130 N   0  0  0  0  0  2  0  0  0  0  0  0
  185.8210  178.6500  137.9670 O   0  0  0  0  0  0  0  0  0  0  0  0
  180.1840  177.8920  142.2830 O   0  0  0  0  0  0  0  0  0  0  0  0
  180.3400  179.8590  140.9370 C   0  0  0  0  0  2  0  0  0  0  0  0
  185.2980  177.5920  137.5190 C   0  0  0  0  0  0  0  0  0  0  0  0
  185.5220  174.3080  136.4650 C   0  0  2  0  0  3  0  0  0  0  0  0
  184.6310  172.6150  137.9400 O   0  0  0  0  0  0  0  0  0  0  0  0
  1 14  1  0  0  0  0
  2  7  2  0  0  0  0
  3  1  2  0  0  0  0
  4  9  2  0  0  0  0
  4  5  1  0  0  0  0
  5 11  2  0  0  0  0
  6 13  1  0  0  0  0
  7  4  1  0  0  0  0
  8  6  1  0  0  0  0
  9  3  1  0  0  0  0
 10  8  1  0  0  0  0
 10  2  2  0  0  0  0
 11  1  1  0  0  0  0
 11 12  1  0  0  0  0
 13  9  1  0  0  0  0
 14 17  1  0  0  0  0
 15 20  1  0  0  0  0
 17 16  1  1  0  0  0
 17 18  1  0  0  0  0
 18 21  1  0  0  0  0
 19 15  1  0  0  0  0
 19 17  1  0  0  0  0
 20 18  1  0  0  0  0
 21 24  1  0  0  0  0
 22 26  1  1  0  0  0
 22 23  1  0  0  0  0
 23 25  2  0  0  0  0
 24 22  1  0  0  0  0
 24 23  1  0  0  0  0
 27 29  1  0  0  0  0
 28 27  1  0  0  0  0
 28 29  1  0  0  0  0
 29 26  1  0  0  0  0
 30  7  1  0  0  0  0
 31 30  1  0  0  0  0
 31 40  1  0  0  0  0
 33 43  1  0  0  0  0
 34 48  1  0  0  0  0
 35 33  2  0  0  0  0
 36 47  2  0  0  0  0
 37 35  2  0  0  0  0
 38 45  1  1  0  0  0
 38 37  1  0  0  0  0
 39 33  1  0  0  0  0
 39 34  1  0  0  0  0
 40 49  1  0  0  0  0
 41 32  1  6  0  0  0
 41 50  1  0  0  0  0
 41 40  1  0  0  0  0
 41 38  1  0  0  0  0
 42 45  1  0  0  0  0
 42 51  2  0  0  0  0
 43 36  1  0  0  0  0
 48 36  1  0  0  0  0
 49 37  1  0  0  0  0
 49 46  2  0  0  0  0
 50 44  1  1  0  0  0
 50 42  1  0  0  0  0
M  END
>  <MODEL>
4

>  <REMARK>
 VINA RESULT:      -6.7      2.356      6.496
  Name = 
  9 active torsions:
  status: ('A' for Active; 'I' for Inactive)
    1  A    between atoms: C_2  and  O_50
    2  A    between atoms: C_10  and  N_15
    3  A    between atoms: C_10  and  N_23
    4  A    between atoms: C_11  and  C_42
    5  A    between atoms: C_13  and  C_42
    6  A    between atoms: N_25  and  C_38
    7  A    between atoms: C_26  and  C_47
    8  A    between atoms: C_27  and  O_50
    9  A    between atoms: C_38  and  C_47
                            x       y       z     vdW  Elec       q    Type
                         _______ _______ _______ _____ _____    ______ ____

>  <TORSDO>
F 9

$$$$
=
 OpenBabel11062414563D

 51 58  0  0  1  0  0  0  0  0999 V2000
  189.7530  177.7650  140.7710 C   0  0  0  0  0  0  0  0  0  0  0  0
  190.1390  176.7030  135.7700 C   0  0  0  0  0  0  0  0  0  0  0  0
  190.4280  176.7340  140.1160 C   0  0  0  0  0  3  0  0  0  0  0  0
  189.4430  177.4090  137.9840 C   0  0  0  0  0  0  0  0  0  0  0  0
  188.7620  178.4290  138.6640 C   0  0  0  0  0  3  0  0  0  0  0  0
  192.2770  175.8340  137.4070 C   0  0  0  0  0  2  0  0  0  0  0  0
  189.2460  177.2990  136.5070 C   0  0  0  0  0  0  0  0  0  0  0  0
  192.2250  175.4370  135.9270 C   0  0  0  0  0  2  0  0  0  0  0  0
  190.2870  176.5390  138.7380 C   0  0  0  0  0  0  0  0  0  0  0  0
  191.0950  176.0680  135.1530 C   0  0  0  0  0  3  0  0  0  0  0  0
  188.9080  178.6110  140.0400 C   0  0  0  0  0  0  0  0  0  0  0  0
  188.2030  179.6300  140.6680 O   0  0  0  0  0  1  0  0  0  0  0  0
  191.0250  175.3720  138.1460 C   0  0  0  0  0  2  0  0  0  0  0  0
  189.9300  177.9360  142.2510 C   0  0  0  0  0  2  0  0  0  0  0  0
  186.5970  178.0440  142.8390 S   0  0  0  0  0  0  0  0  0  0  0  0
  189.7970  175.6460  143.2190 C   0  0  0  0  0  1  0  0  0  0  0  0
  189.0660  176.9830  143.0940 C   0  0  1  0  0  0  0  0  0  0  0  0
  188.7620  177.5950  144.4030 N   0  0  0  0  0  0  0  0  0  0  0  0
  187.7660  176.7490  142.3540 C   0  0  0  0  0  2  0  0  0  0  0  0
  187.6840  178.5630  144.2010 C   0  0  0  0  0  2  0  0  0  0  0  0
  188.2700  176.6160  145.3700 C   0  0  0  0  0  2  0  0  0  0  0  0
  189.3550  176.7220  147.9090 C   0  0  1  0  0  3  0  0  0  0  0  0
  188.6710  177.9300  147.9090 C   0  0  0  0  0  0  0  0  0  0  0  0
  188.7040  176.9880  146.7050 N   0  0  0  0  0  0  0  0  0  0  0  0
  188.3010  178.9970  148.4680 O   0  0  0  0  0  0  0  0  0  0  0  0
  190.7240  176.9620  147.7650 O   0  0  0  0  0  0  0  0  0  0  0  0
  192.8090  175.8190  147.7060 C   0  0  0  0  0  2  0  0  0  0  0  0
  192.1070  175.6250  146.3790 C   0  0  0  0  0  2  0  0  0  0  0  0
  191.2970  175.6940  147.6590 C   0  0  0  0  0  3  0  0  0  0  0  0
  188.1370  178.0190  135.8090 C   0  0  0  0  0  2  0  0  0  0  0  0
  187.1710  177.0270  135.1810 C   0  0  0  0  0  2  0  0  0  0  0  0
  184.8180  175.2460  134.5970 C   0  0  0  0  0  1  0  0  0  0  0  0
  182.5780  178.3440  138.9460 C   0  0  0  0  0  0  0  0  0  0  0  0
  180.7200  179.9800  138.8650 C   0  0  0  0  0  2  0  0  0  0  0  0
  183.4760  177.6510  138.3040 C   0  0  0  0  0  0  0  0  0  0  0  0
  181.0920  178.6240  140.9180 C   0  0  0  0  0  0  0  0  0  0  0  0
  184.3740  176.9570  137.6600 C   0  0  0  0  0  0  0  0  0  0  0  0
  184.0770  175.6720  136.9560 C   0  0  1  0  0  3  0  0  0  0  0  0
  182.1470  179.6770  138.4180 C   0  0  0  0  0  2  0  0  0  0  0  0
  186.1480  176.6310  136.1430 N   0  0  0  0  0  0  0  0  0  0  0  0
  185.3060  175.4320  136.0260 C   0  0  2  0  0  0  0  0  0  0  0  0
  185.1230  173.7000  137.6350 C   0  0  0  0  0  0  0  0  0  0  0  0
  182.0830  177.8770  140.2040 N   0  0  0  0  0  2  0  0  0  0  0  0
  187.4170  174.3190  137.0280 C   0  0  0  0  0  1  0  0  0  0  0  0
  184.0470  174.5750  137.9020 N   0  0  0  0  0  2  0  0  0  0  0  0
  186.0330  178.6630  137.3440 O   0  0  0  0  0  0  0  0  0  0  0  0
  180.6570  178.1950  142.0180 O   0  0  0  0  0  0  0  0  0  0  0  0
  180.6090  179.9410  140.3880 C   0  0  0  0  0  2  0  0  0  0  0  0
  185.5720  177.5170  137.0860 C   0  0  0  0  0  0  0  0  0  0  0  0
  185.9930  174.1340  136.5210 C   0  0  2  0  0  3  0  0  0  0  0  0
  185.2930  172.6290  138.2770 O   0  0  0  0  0  0  0  0  0  0  0  0
  1 14  1  0  0  0  0
  2  7  2  0  0  0  0
  3  1  1  0  0  0  0
  4  5  2  0  0  0  0
  4  9  1  0  0  0  0
  5 11  1  0  0  0  0
  6 13  1  0  0  0  0
  7  4  1  0  0  0  0
  8  6  1  0  0  0  0
  9  3  2  0  0  0  0
 10  2  2  0  0  0  0
 10  8  1  0  0  0  0
 11 12  1  0  0  0  0
 11  1  2  0  0  0  0
 13  9  1  0  0  0  0
 14 17  1  0  0  0  0
 15 20  1  0  0  0  0
 17 16  1  1  0  0  0
 17 18  1  0  0  0  0
 18 21  1  0  0  0  0
 19 15  1  0  0  0  0
 19 17  1  0  0  0  0
 20 18  1  0  0  0  0
 21 24  1  0  0  0  0
 22 26  1  6  0  0  0
 22 23  1  0  0  0  0
 23 25  2  0  0  0  0
 24 22  1  0  0  0  0
 24 23  1  0  0  0  0
 28 29  1  0  0  0  0
 28 27  1  0  0  0  0
 29 27  1  0  0  0  0
 29 26  1  0  0  0  0
 30  7  1  0  0  0  0
 31 30  1  0  0  0  0
 31 40  1  0  0  0  0
 33 43  1  0  0  0  0
 34 48  1  0  0  0  0
 35 33  2  0  0  0  0
 36 47  2  0  0  0  0
 37 35  2  0  0  0  0
 38 37  1  1  0  0  0
 38 45  1  0  0  0  0
 39 34  1  0  0  0  0
 39 33  1  0  0  0  0
 40 49  1  0  0  0  0
 41 32  1  6  0  0  0
 41 40  1  0  0  0  0
 41 50  1  0  0  0  0
 41 38  1  0  0  0  0
 42 45  1  0  0  0  0
 42 51  2  0  0  0  0
 43 36  1  0  0  0  0
 48 36  1  0  0  0  0
 49 46  2  0  0  0  0
 49 37  1  0  0  0  0
 50 44  1  1  0  0  0
 50 42  1  0  0  0  0
M  END
>  <MODEL>
5

>  <REMARK>
 VINA RESULT:      -6.6      2.336      6.165
  Name = 
  9 active torsions:
  status: ('A' for Active; 'I' for Inactive)
    1  A    between atoms: C_2  and  O_50
    2  A    between atoms: C_10  and  N_15
    3  A    between atoms: C_10  and  N_23
    4  A    between atoms: C_11  and  C_42
    5  A    between atoms: C_13  and  C_42
    6  A    between atoms: N_25  and  C_38
    7  A    between atoms: C_26  and  C_47
    8  A    between atoms: C_27  and  O_50
    9  A    between atoms: C_38  and  C_47
                            x       y       z     vdW  Elec       q    Type
                         _______ _______ _______ _____ _____    ______ ____

>  <TORSDO>
F 9

$$$$
=
 OpenBabel11062414563D

 51 58  0  0  1  0  0  0  0  0999 V2000
  184.1900  178.7640  141.4530 C   0  0  0  0  0  0  0  0  0  0  0  0
  188.9590  177.7760  143.0550 C   0  0  0  0  0  0  0  0  0  0  0  0
  184.6430  178.1930  142.6430 C   0  0  0  0  0  3  0  0  0  0  0  0
  186.9280  178.1440  141.7800 C   0  0  0  0  0  0  0  0  0  0  0  0
  186.4500  178.7050  140.5870 C   0  0  0  0  0  3  0  0  0  0  0  0
  187.0250  178.2240  145.0700 C   0  0  0  0  0  2  0  0  0  0  0  0
  188.3920  177.8660  141.8860 C   0  0  0  0  0  0  0  0  0  0  0  0
  188.4430  177.7760  145.4450 C   0  0  0  0  0  2  0  0  0  0  0  0
  185.9940  177.8770  142.8250 C   0  0  0  0  0  0  0  0  0  0  0  0
  189.3960  177.6910  144.2800 C   0  0  0  0  0  3  0  0  0  0  0  0
  185.1000  179.0120  140.4160 C   0  0  0  0  0  0  0  0  0  0  0  0
  184.6740  179.5560  139.2100 O   0  0  0  0  0  1  0  0  0  0  0  0
  186.3620  177.2260  144.1280 C   0  0  0  0  0  2  0  0  0  0  0  0
  182.7320  179.0840  141.2990 C   0  0  0  0  0  2  0  0  0  0  0  0
  180.2640  180.3600  139.3640 S   0  0  0  0  0  0  0  0  0  0  0  0
  183.0790  177.4960  139.4140 C   0  0  0  0  0  1  0  0  0  0  0  0
  182.0980  178.4950  140.0280 C   0  0  1  0  0  0  0  0  0  0  0  0
  180.7890  177.8910  140.3450 N   0  0  0  0  0  0  0  0  0  0  0  0
  181.8850  179.6240  139.0410 C   0  0  0  0  0  2  0  0  0  0  0  0
  179.8140  178.9770  140.4550 C   0  0  0  0  0  2  0  0  0  0  0  0
  180.3140  177.0080  139.2810 C   0  0  0  0  0  2  0  0  0  0  0  0
  179.0600  174.5950  139.7710 C   0  0  1  0  0  3  0  0  0  0  0  0
  179.3490  174.9640  141.0780 C   0  0  0  0  0  0  0  0  0  0  0  0
  179.7510  175.8020  139.8630 N   0  0  0  0  0  0  0  0  0  0  0  0
  179.3130  174.7660  142.3210 O   0  0  0  0  0  0  0  0  0  0  0  0
  179.9360  173.5830  139.3690 O   0  0  0  0  0  0  0  0  0  0  0  0
  180.3030  172.0760  137.5660 C   0  0  0  0  0  2  0  0  0  0  0  0
  180.8700  173.4290  137.1950 C   0  0  0  0  0  2  0  0  0  0  0  0
  179.6100  173.3420  138.0330 C   0  0  0  0  0  3  0  0  0  0  0  0
  189.2800  177.8730  140.6830 C   0  0  0  0  0  2  0  0  0  0  0  0
  189.2990  176.5010  140.0280 C   0  0  0  0  0  2  0  0  0  0  0  0
  188.7730  174.8270  137.5850 C   0  0  0  0  0  1  0  0  0  0  0  0
  194.4710  175.6350  136.9430 C   0  0  0  0  0  0  0  0  0  0  0  0
  196.2840  173.9530  137.0880 C   0  0  0  0  0  2  0  0  0  0  0  0
  193.2330  175.9580  137.1950 C   0  0  0  0  0  0  0  0  0  0  0  0
  196.5180  175.9040  135.5620 C   0  0  0  0  0  0  0  0  0  0  0  0
  191.9940  176.2800  137.4460 C   0  0  0  0  0  0  0  0  0  0  0  0
  190.8400  175.8510  136.5990 C   0  0  1  0  0  3  0  0  0  0  0  0
  195.1980  174.6980  137.8580 C   0  0  0  0  0  2  0  0  0  0  0  0
  190.0770  176.5340  138.7950 N   0  0  0  0  0  0  0  0  0  0  0  0
  189.5780  176.1130  137.4770 C   0  0  2  0  0  0  0  0  0  0  0  0
  189.5270  177.4490  135.5190 C   0  0  0  0  0  0  0  0  0  0  0  0
  195.1620  176.2530  135.8540 N   0  0  0  0  0  2  0  0  0  0  0  0
  188.5740  178.4980  137.5210 C   0  0  0  0  0  1  0  0  0  0  0  0
  190.7250  176.7070  135.4350 N   0  0  0  0  0  2  0  0  0  0  0  0
  192.2060  176.8660  139.7650 O   0  0  0  0  0  0  0  0  0  0  0  0
  197.1100  176.4470  134.5940 O   0  0  0  0  0  0  0  0  0  0  0  0
  197.2560  174.9340  136.4360 C   0  0  0  0  0  2  0  0  0  0  0  0
  191.4910  176.6030  138.7590 C   0  0  0  0  0  0  0  0  0  0  0  0
  188.7440  177.1970  136.7480 C   0  0  2  0  0  3  0  0  0  0  0  0
  189.1540  178.2290  134.6020 O   0  0  0  0  0  0  0  0  0  0  0  0
  1  3  1  0  0  0  0
  2 10  2  0  0  0  0
  3  9  2  0  0  0  0
  4  7  1  0  0  0  0
  4  9  1  0  0  0  0
  5  4  2  0  0  0  0
  6  8  1  0  0  0  0
  7  2  2  0  0  0  0
  9 13  1  0  0  0  0
 10  8  1  0  0  0  0
 11  5  1  0  0  0  0
 11  1  2  0  0  0  0
 12 11  1  0  0  0  0
 13  6  1  0  0  0  0
 14  1  1  0  0  0  0
 15 20  1  0  0  0  0
 17 16  1  6  0  0  0
 17 18  1  0  0  0  0
 17 14  1  0  0  0  0
 18 20  1  0  0  0  0
 19 15  1  0  0  0  0
 19 17  1  0  0  0  0
 21 24  1  0  0  0  0
 21 18  1  0  0  0  0
 22 26  1  6  0  0  0
 22 24  1  0  0  0  0
 22 23  1  0  0  0  0
 23 25  2  0  0  0  0
 24 23  1  0  0  0  0
 27 29  1  0  0  0  0
 28 27  1  0  0  0  0
 28 29  1  0  0  0  0
 29 26  1  0  0  0  0
 30  7  1  0  0  0  0
 31 30  1  0  0  0  0
 33 35  2  0  0  0  0
 33 39  1  0  0  0  0
 34 39  1  0  0  0  0
 35 37  2  0  0  0  0
 36 43  1  0  0  0  0
 36 48  1  0  0  0  0
 37 49  1  0  0  0  0
 38 45  1  6  0  0  0
 38 37  1  0  0  0  0
 38 41  1  0  0  0  0
 40 31  1  0  0  0  0
 41 32  1  1  0  0  0
 41 40  1  0  0  0  0
 42 50  1  0  0  0  0
 43 33  1  0  0  0  0
 45 42  1  0  0  0  0
 47 36  2  0  0  0  0
 48 34  1  0  0  0  0
 49 40  1  0  0  0  0
 49 46  2  0  0  0  0
 50 41  1  0  0  0  0
 50 44  1  1  0  0  0
 51 42  2  0  0  0  0
M  END
>  <MODEL>
6

>  <REMARK>
 VINA RESULT:      -6.4      3.447      7.525
  Name = 
  9 active torsions:
  status: ('A' for Active; 'I' for Inactive)
    1  A    between atoms: C_2  and  O_50
    2  A    between atoms: C_10  and  N_15
    3  A    between atoms: C_10  and  N_23
    4  A    between atoms: C_11  and  C_42
    5  A    between atoms: C_13  and  C_42
    6  A    between atoms: N_25  and  C_38
    7  A    between atoms: C_26  and  C_47
    8  A    between atoms: C_27  and  O_50
    9  A    between atoms: C_38  and  C_47
                            x       y       z     vdW  Elec       q    Type
                         _______ _______ _______ _____ _____    ______ ____

>  <TORSDO>
F 9

$$$$
=
 OpenBabel11062414563D

 51 58  0  0  1  0  0  0  0  0999 V2000
  182.9550  176.9870  137.6680 C   0  0  0  0  0  0  0  0  0  0  0  0
  185.9790  173.1300  136.1660 C   0  0  0  0  0  0  0  0  0  0  0  0
  182.6330  175.7650  137.0750 C   0  0  0  0  0  3  0  0  0  0  0  0
  185.0030  175.2740  136.7400 C   0  0  0  0  0  0  0  0  0  0  0  0
  185.3040  176.5140  137.3250 C   0  0  0  0  0  3  0  0  0  0  0  0
  183.3310  172.4420  136.8840 C   0  0  0  0  0  2  0  0  0  0  0  0
  186.1410  174.4150  136.2950 C   0  0  0  0  0  0  0  0  0  0  0  0
  184.2680  171.3880  136.2820 C   0  0  0  0  0  2  0  0  0  0  0  0
  183.6310  174.9040  136.6080 C   0  0  0  0  0  0  0  0  0  0  0  0
  185.6800  171.8660  136.0590 C   0  0  0  0  0  3  0  0  0  0  0  0
  184.2990  177.3660  137.7830 C   0  0  0  0  0  0  0  0  0  0  0  0
  184.6490  178.5870  138.3460 O   0  0  0  0  0  1  0  0  0  0  0  0
  183.1700  173.6350  135.9480 C   0  0  0  0  0  2  0  0  0  0  0  0
  181.8520  177.8820  138.1520 C   0  0  0  0  0  2  0  0  0  0  0  0
  179.2950  179.1830  139.9500 S   0  0  0  0  0  0  0  0  0  0  0  0
  182.2930  176.5210  140.1890 C   0  0  0  0  0  1  0  0  0  0  0  0
  181.5680  177.7590  139.6580 C   0  0  1  0  0  0  0  0  0  0  0  0
  181.9660  178.9990  140.3540 N   0  0  0  0  0  0  0  0  0  0  0  0
  180.0790  177.5560  139.8410 C   0  0  0  0  0  2  0  0  0  0  0  0
  180.9140  179.9910  140.1300 C   0  0  0  0  0  2  0  0  0  0  0  0
  182.0660  178.8130  141.8010 C   0  0  0  0  0  2  0  0  0  0  0  0
  184.4240  179.3610  143.1330 C   0  0  1  0  0  3  0  0  0  0  0  0
  184.9480  178.9440  141.9160 C   0  0  0  0  0  0  0  0  0  0  0  0
  183.4490  178.9680  142.2180 N   0  0  0  0  0  0  0  0  0  0  0  0
  185.9170  178.7160  141.1440 O   0  0  0  0  0  0  0  0  0  0  0  0
  184.6050  178.3560  144.0860 O   0  0  0  0  0  0  0  0  0  0  0  0
  186.0550  178.1400  145.9590 C   0  0  0  0  0  2  0  0  0  0  0  0
  184.6290  178.2560  146.4550 C   0  0  0  0  0  2  0  0  0  0  0  0
  185.0660  179.0240  145.2220 C   0  0  0  0  0  3  0  0  0  0  0  0
  187.5300  174.9560  136.1700 C   0  0  0  0  0  2  0  0  0  0  0  0
  187.8810  175.8060  137.3800 C   0  0  0  0  0  2  0  0  0  0  0  0
  189.9020  177.9360  136.7220 C   0  0  0  0  0  1  0  0  0  0  0  0
  193.3630  173.2960  136.5730 C   0  0  0  0  0  0  0  0  0  0  0  0
  194.5150  172.3040  134.6170 C   0  0  0  0  0  2  0  0  0  0  0  0
  192.4310  174.0840  137.0310 C   0  0  0  0  0  0  0  0  0  0  0  0
  195.5590  172.1710  136.8720 C   0  0  0  0  0  0  0  0  0  0  0  0
  191.4990  174.8750  137.4880 C   0  0  0  0  0  0  0  0  0  0  0  0
  191.6500  176.3590  137.5880 C   0  0  1  0  0  3  0  0  0  0  0  0
  193.1650  172.5870  135.2690 C   0  0  0  0  0  2  0  0  0  0  0  0
  189.3110  175.7330  137.6590 N   0  0  0  0  0  0  0  0  0  0  0  0
  190.2000  176.8960  137.7930 C   0  0  2  0  0  0  0  0  0  0  0  0
  191.5530  177.4040  139.6720 C   0  0  0  0  0  0  0  0  0  0  0  0
  194.5250  173.0300  137.3640 N   0  0  0  0  0  2  0  0  0  0  0  0
  189.2070  176.9010  140.1820 C   0  0  0  0  0  1  0  0  0  0  0  0
  192.3980  176.7090  138.7800 N   0  0  0  0  0  2  0  0  0  0  0  0
  189.6010  173.4250  137.2410 O   0  0  0  0  0  0  0  0  0  0  0  0
  196.5800  171.9560  137.5730 O   0  0  0  0  0  0  0  0  0  0  0  0
  195.4060  171.4840  135.5480 C   0  0  0  0  0  2  0  0  0  0  0  0
  190.0910  174.5680  137.4600 C   0  0  0  0  0  0  0  0  0  0  0  0
  190.1620  177.5570  139.1940 C   0  0  2  0  0  3  0  0  0  0  0  0
  191.9700  177.8760  140.7630 O   0  0  0  0  0  0  0  0  0  0  0  0
  1 11  1  0  0  0  0
  1 14  1  0  0  0  0
  2  7  2  0  0  0  0
  3  1  2  0  0  0  0
  4  5  1  0  0  0  0
  5 11  2  0  0  0  0
  7  4  1  0  0  0  0
  8  6  1  0  0  0  0
  9  4  2  0  0  0  0
  9  3  1  0  0  0  0
 10  2  2  0  0  0  0
 10  8  1  0  0  0  0
 11 12  1  0  0  0  0
 13  9  1  0  0  0  0
 13  6  1  0  0  0  0
 14 17  1  0  0  0  0
 15 20  1  0  0  0  0
 17 19  1  0  0  0  0
 17 16  1  1  0  0  0
 17 18  1  0  0  0  0
 18 21  1  0  0  0  0
 19 15  1  0  0  0  0
 20 18  1  0  0  0  0
 21 24  1  0  0  0  0
 22 26  1  1  0  0  0
 23 24  1  0  0  0  0
 23 22  1  0  0  0  0
 24 22  1  0  0  0  0
 25 23  2  0  0  0  0
 26 29  1  0  0  0  0
 27 28  1  0  0  0  0
 29 27  1  0  0  0  0
 29 28  1  0  0  0  0
 30  7  1  0  0  0  0
 30 31  1  0  0  0  0
 31 40  1  0  0  0  0
 33 35  2  0  0  0  0
 33 43  1  0  0  0  0
 34 39  1  0  0  0  0
 34 48  1  0  0  0  0
 35 37  2  0  0  0  0
 36 43  1  0  0  0  0
 36 47  2  0  0  0  0
 38 37  1  1  0  0  0
 38 41  1  0  0  0  0
 38 45  1  0  0  0  0
 39 33  1  0  0  0  0
 40 41  1  0  0  0  0
 41 32  1  6  0  0  0
 41 50  1  0  0  0  0
 42 51  2  0  0  0  0
 45 42  1  0  0  0  0
 46 49  2  0  0  0  0
 48 36  1  0  0  0  0
 49 37  1  0  0  0  0
 49 40  1  0  0  0  0
 50 42  1  0  0  0  0
 50 44  1  1  0  0  0
M  END
>  <MODEL>
7

>  <REMARK>
 VINA RESULT:      -6.2      2.776      6.112
  Name = 
  9 active torsions:
  status: ('A' for Active; 'I' for Inactive)
    1  A    between atoms: C_2  and  O_50
    2  A    between atoms: C_10  and  N_15
    3  A    between atoms: C_10  and  N_23
    4  A    between atoms: C_11  and  C_42
    5  A    between atoms: C_13  and  C_42
    6  A    between atoms: N_25  and  C_38
    7  A    between atoms: C_26  and  C_47
    8  A    between atoms: C_27  and  O_50
    9  A    between atoms: C_38  and  C_47
                            x       y       z     vdW  Elec       q    Type
                         _______ _______ _______ _____ _____    ______ ____

>  <TORSDO>
F 9

$$$$
=
 OpenBabel11062414563D

 51 58  0  0  1  0  0  0  0  0999 V2000
  185.3310  178.8740  143.9670 C   0  0  0  0  0  0  0  0  0  0  0  0
  180.8210  178.5140  141.5550 C   0  0  0  0  0  0  0  0  0  0  0  0
  184.0300  178.9510  144.4670 C   0  0  0  0  0  3  0  0  0  0  0  0
  183.1270  178.9070  142.1980 C   0  0  0  0  0  0  0  0  0  0  0  0
  184.4420  178.8460  141.7150 C   0  0  0  0  0  3  0  0  0  0  0  0
  180.8510  177.7560  144.2810 C   0  0  0  0  0  2  0  0  0  0  0  0
  182.0140  178.8970  141.2010 C   0  0  0  0  0  0  0  0  0  0  0  0
  179.5260  177.8260  143.5120 C   0  0  0  0  0  2  0  0  0  0  0  0
  182.9260  178.9700  143.6090 C   0  0  0  0  0  0  0  0  0  0  0  0
  179.6760  178.1280  142.0430 C   0  0  0  0  0  3  0  0  0  0  0  0
  185.5360  178.8320  142.5820 C   0  0  0  0  0  0  0  0  0  0  0  0
  186.8200  178.7810  142.0530 O   0  0  0  0  0  1  0  0  0  0  0  0
  181.5750  179.0980  144.2550 C   0  0  0  0  0  2  0  0  0  0  0  0
  186.4870  178.8600  144.9240 C   0  0  0  0  0  2  0  0  0  0  0  0
  189.0150  177.8800  146.9510 S   0  0  0  0  0  0  0  0  0  0  0  0
  186.4980  176.4960  144.1440 C   0  0  0  0  0  1  0  0  0  0  0  0
  187.3070  177.5600  144.8860 C   0  0  1  0  0  0  0  0  0  0  0  0
  188.6270  177.8090  144.2730 N   0  0  0  0  0  0  0  0  0  0  0  0
  187.5160  177.0940  146.3120 C   0  0  0  0  0  2  0  0  0  0  0  0
  189.4760  178.4390  145.2840 C   0  0  0  0  0  2  0  0  0  0  0  0
  189.2960  176.5700  143.8770 C   0  0  0  0  0  2  0  0  0  0  0  0
  190.0060  176.6270  141.2080 C   0  0  1  0  0  3  0  0  0  0  0  0
  191.1780  177.1280  141.7610 C   0  0  0  0  0  0  0  0  0  0  0  0
  189.9510  176.7570  142.5950 N   0  0  0  0  0  0  0  0  0  0  0  0
  192.3560  177.5630  141.6600 O   0  0  0  0  0  0  0  0  0  0  0  0
  189.2910  177.6680  140.6100 O   0  0  0  0  0  0  0  0  0  0  0  0
  189.1450  178.6230  138.4370 C   0  0  0  0  0  2  0  0  0  0  0  0
  187.9270  177.7550  138.6730 C   0  0  0  0  0  2  0  0  0  0  0  0
  189.2690  177.3490  139.2510 C   0  0  0  0  0  3  0  0  0  0  0  0
  182.2630  179.1360  139.7460 C   0  0  0  0  0  2  0  0  0  0  0  0
  181.1590  178.5120  138.9080 C   0  0  0  0  0  2  0  0  0  0  0  0
  181.5890  178.6630  135.9340 C   0  0  0  0  0  1  0  0  0  0  0  0
  180.8080  172.9500  136.4670 C   0  0  0  0  0  0  0  0  0  0  0  0
  178.9310  171.5740  135.6190 C   0  0  0  0  0  2  0  0  0  0  0  0
  181.2730  174.1310  136.7640 C   0  0  0  0  0  0  0  0  0  0  0  0
  181.2130  170.5960  135.7840 C   0  0  0  0  0  0  0  0  0  0  0  0
  181.7380  175.3140  137.0600 C   0  0  0  0  0  0  0  0  0  0  0  0
  182.2980  176.2590  136.0470 C   0  0  1  0  0  3  0  0  0  0  0  0
  179.3420  172.6730  136.5940 C   0  0  0  0  0  2  0  0  0  0  0  0
  181.6950  177.4420  138.0730 N   0  0  0  0  0  0  0  0  0  0  0  0
  182.3450  177.6400  136.7700 C   0  0  2  0  0  0  0  0  0  0  0  0
  184.5290  176.9290  136.1830 C   0  0  0  0  0  0  0  0  0  0  0  0
  181.7090  171.8960  136.1190 N   0  0  0  0  0  2  0  0  0  0  0  0
  184.3700  178.1740  138.2910 C   0  0  0  0  0  1  0  0  0  0  0  0
  183.6680  175.9050  135.7320 N   0  0  0  0  0  2  0  0  0  0  0  0
  180.6870  175.6230  139.1970 O   0  0  0  0  0  0  0  0  0  0  0  0
  182.0160  169.6810  135.4690 O   0  0  0  0  0  0  0  0  0  0  0  0
  179.7440  170.3030  135.8600 C   0  0  0  0  0  2  0  0  0  0  0  0
  181.3290  176.0800  138.2110 C   0  0  0  0  0  0  0  0  0  0  0  0
  183.8390  178.0420  136.8690 C   0  0  2  0  0  3  0  0  0  0  0  0
  185.7730  176.8990  135.9810 O   0  0  0  0  0  0  0  0  0  0  0  0
  1  3  1  0  0  0  0
  1 14  1  0  0  0  0
  2 10  2  0  0  0  0
  4  9  1  0  0  0  0
  5  4  2  0  0  0  0
  5 11  1  0  0  0  0
  7  2  2  0  0  0  0
  7  4  1  0  0  0  0
  8  6  1  0  0  0  0
  9 13  1  0  0  0  0
  9  3  2  0  0  0  0
 10  8  1  0  0  0  0
 11  1  2  0  0  0  0
 12 11  1  0  0  0  0
 13  6  1  0  0  0  0
 17 16  1  6  0  0  0
 17 14  1  0  0  0  0
 17 19  1  0  0  0  0
 18 17  1  0  0  0  0
 18 20  1  0  0  0  0
 19 15  1  0  0  0  0
 20 15  1  0  0  0  0
 21 18  1  0  0  0  0
 22 26  1  6  0  0  0
 22 23  1  0  0  0  0
 22 24  1  0  0  0  0
 23 24  1  0  0  0  0
 24 21  1  0  0  0  0
 25 23  2  0  0  0  0
 27 28  1  0  0  0  0
 27 29  1  0  0  0  0
 28 29  1  0  0  0  0
 29 26  1  0  0  0  0
 30  7  1  0  0  0  0
 31 30  1  0  0  0  0
 33 39  1  0  0  0  0
 33 35  2  0  0  0  0
 34 48  1  0  0  0  0
 34 39  1  0  0  0  0
 35 37  2  0  0  0  0
 36 48  1  0  0  0  0
 36 43  1  0  0  0  0
 37 49  1  0  0  0  0
 38 45  1  1  0  0  0
 38 41  1  0  0  0  0
 38 37  1  0  0  0  0
 40 49  1  0  0  0  0
 40 31  1  0  0  0  0
 41 32  1  6  0  0  0
 41 50  1  0  0  0  0
 41 40  1  0  0  0  0
 42 50  1  0  0  0  0
 43 33  1  0  0  0  0
 45 42  1  0  0  0  0
 47 36  2  0  0  0  0
 49 46  2  0  0  0  0
 50 44  1  1  0  0  0
 51 42  2  0  0  0  0
M  END
>  <MODEL>
8

>  <REMARK>
 VINA RESULT:      -6.0      2.842      6.049
  Name = 
  9 active torsions:
  status: ('A' for Active; 'I' for Inactive)
    1  A    between atoms: C_2  and  O_50
    2  A    between atoms: C_10  and  N_15
    3  A    between atoms: C_10  and  N_23
    4  A    between atoms: C_11  and  C_42
    5  A    between atoms: C_13  and  C_42
    6  A    between atoms: N_25  and  C_38
    7  A    between atoms: C_26  and  C_47
    8  A    between atoms: C_27  and  O_50
    9  A    between atoms: C_38  and  C_47
                            x       y       z     vdW  Elec       q    Type
                         _______ _______ _______ _____ _____    ______ ____

>  <TORSDO>
F 9

$$$$
=
 OpenBabel11062414563D

 51 58  0  0  1  0  0  0  0  0999 V2000
  182.0720  179.0680  139.8400 C   0  0  0  0  0  0  0  0  0  0  0  0
  185.4470  178.8900  143.6960 C   0  0  0  0  0  0  0  0  0  0  0  0
  181.9100  178.6610  141.1650 C   0  0  0  0  0  3  0  0  0  0  0  0
  184.3130  178.8690  141.5520 C   0  0  0  0  0  0  0  0  0  0  0  0
  184.4570  179.2620  140.2130 C   0  0  0  0  0  3  0  0  0  0  0  0
  182.7310  179.2160  144.4180 C   0  0  0  0  0  2  0  0  0  0  0  0
  185.5420  178.8090  142.4000 C   0  0  0  0  0  0  0  0  0  0  0  0
  183.7990  179.0030  145.4980 C   0  0  0  0  0  2  0  0  0  0  0  0
  183.0050  178.5540  142.0280 C   0  0  0  0  0  0  0  0  0  0  0  0
  185.2120  178.9630  144.9760 C   0  0  0  0  0  3  0  0  0  0  0  0
  183.3560  179.3610  139.3610 C   0  0  0  0  0  0  0  0  0  0  0  0
  183.5530  179.7450  138.0400 O   0  0  0  0  0  1  0  0  0  0  0  0
  182.7190  178.0640  143.4190 C   0  0  0  0  0  2  0  0  0  0  0  0
  180.8700  179.1660  138.9480 C   0  0  0  0  0  2  0  0  0  0  0  0
  179.2110  176.2210  139.1370 S   0  0  0  0  0  0  0  0  0  0  0  0
  181.0930  178.6260  136.5280 C   0  0  0  0  0  1  0  0  0  0  0  0
  180.7780  178.0400  137.9050 C   0  0  1  0  0  0  0  0  0  0  0  0
  181.6780  176.9300  138.2750 N   0  0  0  0  0  0  0  0  0  0  0  0
  179.3540  177.5260  137.8920 C   0  0  0  0  0  2  0  0  0  0  0  0
  181.0180  176.1540  139.3250 C   0  0  0  0  0  2  0  0  0  0  0  0
  181.9120  176.0120  137.1610 C   0  0  0  0  0  2  0  0  0  0  0  0
  184.6360  175.8290  136.7370 C   0  0  1  0  0  3  0  0  0  0  0  0
  184.4310  174.6210  137.3900 C   0  0  0  0  0  0  0  0  0  0  0  0
  183.3120  175.6310  137.1290 N   0  0  0  0  0  0  0  0  0  0  0  0
  184.8440  173.5250  137.8520 O   0  0  0  0  0  0  0  0  0  0  0  0
  185.2520  176.7310  137.6080 O   0  0  0  0  0  0  0  0  0  0  0  0
  187.1080  178.1750  137.2510 C   0  0  0  0  0  2  0  0  0  0  0  0
  186.7120  177.5530  135.9300 C   0  0  0  0  0  2  0  0  0  0  0  0
  186.5910  176.7490  137.2100 C   0  0  0  0  0  3  0  0  0  0  0  0
  186.9110  178.8480  141.8000 C   0  0  0  0  0  2  0  0  0  0  0  0
  187.9700  178.7550  142.8870 C   0  0  0  0  0  2  0  0  0  0  0  0
  190.8900  179.3770  143.2540 C   0  0  0  0  0  1  0  0  0  0  0  0
  191.2390  176.0630  138.5180 C   0  0  0  0  0  0  0  0  0  0  0  0
  191.9010  176.7290  136.2260 C   0  0  0  0  0  2  0  0  0  0  0  0
  190.8400  176.4200  139.7070 C   0  0  0  0  0  0  0  0  0  0  0  0
  192.4040  174.4350  137.0470 C   0  0  0  0  0  0  0  0  0  0  0  0
  190.4430  176.7790  140.8970 C   0  0  0  0  0  0  0  0  0  0  0  0
  191.3650  177.2800  141.9610 C   0  0  1  0  0  3  0  0  0  0  0  0
  190.8540  176.8830  137.3260 C   0  0  0  0  0  2  0  0  0  0  0  0
  189.0780  177.9120  142.4490 N   0  0  0  0  0  0  0  0  0  0  0  0
  190.4330  177.9450  143.0190 C   0  0  2  0  0  0  0  0  0  0  0  0
  191.5890  176.1020  143.9620 C   0  0  0  0  0  0  0  0  0  0  0  0
  191.9540  174.8370  138.3450 N   0  0  0  0  0  2  0  0  0  0  0  0
  189.3070  176.4380  144.7980 C   0  0  0  0  0  1  0  0  0  0  0  0
  192.0230  176.1700  142.6200 N   0  0  0  0  0  2  0  0  0  0  0  0
  188.1110  177.1280  140.4400 O   0  0  0  0  0  0  0  0  0  0  0  0
  193.0420  173.3590  136.9110 O   0  0  0  0  0  0  0  0  0  0  0  0
  192.0710  175.2610  135.8400 C   0  0  0  0  0  2  0  0  0  0  0  0
  189.1120  177.2460  141.1990 C   0  0  0  0  0  0  0  0  0  0  0  0
  190.5830  177.1230  144.3250 C   0  0  2  0  0  3  0  0  0  0  0  0
  192.0530  175.2610  144.7770 O   0  0  0  0  0  0  0  0  0  0  0  0
  1  3  1  0  0  0  0
  2 10  2  0  0  0  0
  3  9  2  0  0  0  0
  4  9  1  0  0  0  0
  4  7  1  0  0  0  0
  5  4  2  0  0  0  0
  6  8  1  0  0  0  0
  7  2  2  0  0  0  0
  9 13  1  0  0  0  0
 10  8  1  0  0  0  0
 11  1  2  0  0  0  0
 11  5  1  0  0  0  0
 12 11  1  0  0  0  0
 13  6  1  0  0  0  0
 14  1  1  0  0  0  0
 15 20  1  0  0  0  0
 17 16  1  6  0  0  0
 17 18  1  0  0  0  0
 17 14  1  0  0  0  0
 18 20  1  0  0  0  0
 19 17  1  0  0  0  0
 19 15  1  0  0  0  0
 21 18  1  0  0  0  0
 22 24  1  0  0  0  0
 22 23  1  0  0  0  0
 22 26  1  1  0  0  0
 23 25  2  0  0  0  0
 24 21  1  0  0  0  0
 24 23  1  0  0  0  0
 28 29  1  0  0  0  0
 28 27  1  0  0  0  0
 29 27  1  0  0  0  0
 29 26  1  0  0  0  0
 30  7  1  0  0  0  0
 30 31  1  0  0  0  0
 33 35  2  0  0  0  0
 34 39  1  0  0  0  0
 35 37  2  0  0  0  0
 36 43  1  0  0  0  0
 37 49  1  0  0  0  0
 38 37  1  6  0  0  0
 38 45  1  0  0  0  0
 38 41  1  0  0  0  0
 39 33  1  0  0  0  0
 40 31  1  0  0  0  0
 40 41  1  0  0  0  0
 41 32  1  1  0  0  0
 41 50  1  0  0  0  0
 42 50  1  0  0  0  0
 42 51  2  0  0  0  0
 43 33  1  0  0  0  0
 45 42  1  0  0  0  0
 46 49  2  0  0  0  0
 47 36  2  0  0  0  0
 48 34  1  0  0  0  0
 48 36  1  0  0  0  0
 49 40  1  0  0  0  0
 50 44  1  6  0  0  0
M  END
>  <MODEL>
9

>  <REMARK>
 VINA RESULT:      -5.9      2.353      7.377
  Name = 
  9 active torsions:
  status: ('A' for Active; 'I' for Inactive)
    1  A    between atoms: C_2  and  O_50
    2  A    between atoms: C_10  and  N_15
    3  A    between atoms: C_10  and  N_23
    4  A    between atoms: C_11  and  C_42
    5  A    between atoms: C_13  and  C_42
    6  A    between atoms: N_25  and  C_38
    7  A    between atoms: C_26  and  C_47
    8  A    between atoms: C_27  and  O_50
    9  A    between atoms: C_38  and  C_47
                            x       y       z     vdW  Elec       q    Type
                         _______ _______ _______ _____ _____    ______ ____

>  <TORSDO>
F 9

$$$$
