=
 OpenBabel11062414273D

 50 56  0  0  1  0  0  0  0  0999 V2000
  185.9060  178.3510  146.9140 N   0  0  0  0  0  0  0  0  0  0  0  0
  186.9430  177.7890  144.0350 C   0  0  2  0  0  3  0  0  0  0  0  0
  185.2680  178.4960  145.7930 C   0  0  0  0  0  0  0  0  0  0  0  0
  188.2550  177.9470  144.8030 C   0  0  1  0  0  3  0  0  0  0  0  0
  185.8950  178.6840  144.5310 N   0  0  0  0  0  0  0  0  0  0  0  0
  183.5290  179.1490  144.4250 C   0  0  0  0  0  3  0  0  0  0  0  0
  186.5020  176.4610  144.0690 O   0  0  0  0  0  1  0  0  0  0  0  0
  184.8650  179.2680  143.6640 C   0  0  2  0  0  3  0  0  0  0  0  0
  183.8730  178.7080  145.7670 N   0  0  0  0  0  0  0  0  0  0  0  0
  187.3510  178.4510  147.0810 C   0  0  0  0  0  2  0  0  0  0  0  0
  188.1230  177.4340  146.2520 C   0  0  2  0  0  3  0  0  0  0  0  0
  192.4730  175.4610  147.3890 N   0  0  0  0  0  1  0  0  0  0  0  0
  189.4470  177.1960  146.9170 C   0  0  0  0  0  0  0  0  0  0  0  0
  191.3200  177.4150  148.2240 C   0  0  0  0  0  3  0  0  0  0  0  0
  191.3690  176.3550  147.4370 C   0  0  0  0  0  0  0  0  0  0  0  0
  190.2190  176.2050  146.6240 N   0  0  0  0  0  0  0  0  0  0  0  0
  190.0190  178.0990  147.9590 C   0  0  0  0  0  2  0  0  0  0  0  0
  189.3440  176.0880  143.8180 O   0  0  0  0  0  0  0  0  0  0  0  0
  189.3690  177.2940  144.0190 C   0  0  0  0  0  0  0  0  0  0  0  0
  190.4870  178.1130  143.4350 C   0  0  1  0  0  3  0  0  0  0  0  0
  191.6810  177.9280  144.1370 O   0  0  0  0  0  1  0  0  0  0  0  0
  189.6850  177.7820  141.2170 O   0  0  0  0  0  0  0  0  0  0  0  0
  191.9900  177.5720  141.4670 N   0  0  0  0  0  2  0  0  0  0  0  0
  190.6850  177.8270  141.9820 C   0  0  0  0  0  0  0  0  0  0  0  0
  192.1790  177.3160  140.1520 O   0  0  0  0  0  1  0  0  0  0  0  0
  184.7850  178.6500  142.2600 C   0  0  0  0  0  2  0  0  0  0  0  0
  183.3550  178.5510  141.7450 C   0  0  0  0  0  2  0  0  0  0  0  0
  183.3300  178.7510  140.2370 C   0  0  0  0  0  2  0  0  0  0  0  0
  183.5120  175.8830  136.7180 C   0  0  2  0  0  0  0  0  0  0  0  0
  182.3550  176.7130  137.3490 C   0  0  2  0  0  0  0  0  0  0  0  0
  184.5130  176.8580  137.3140 C   0  0  0  0  0  2  0  0  0  0  0  0
  181.4970  176.2320  138.5260 C   0  0  2  0  0  3  0  0  0  0  0  0
  183.5780  175.9810  135.1980 C   0  0  0  0  0  1  0  0  0  0  0  0
  181.5690  177.3710  136.3980 O   0  0  0  0  0  1  0  0  0  0  0  0
  182.2600  176.4900  139.8090 C   0  0  0  0  0  2  0  0  0  0  0  0
  183.3890  177.4430  139.4510 C   0  0  1  0  0  3  0  0  0  0  0  0
  183.3830  177.6660  137.9410 C   0  0  2  0  0  3  0  0  0  0  0  0
  179.4560  174.8360  138.6750 C   0  0  0  0  0  2  0  0  0  0  0  0
  180.9500  174.8180  138.4290 C   0  0  0  0  0  3  0  0  0  0  0  0
  179.9880  174.7160  137.2650 C   0  0  0  0  0  2  0  0  0  0  0  0
  183.7950  174.4350  137.1670 C   0  0  2  0  0  3  0  0  0  0  0  0
  185.1070  174.2900  137.6220 O   0  0  0  0  0  1  0  0  0  0  0  0
  183.5080  173.4450  136.1400 N   0  0  0  0  0  2  0  0  0  0  0  0
  182.1690  171.6560  137.1480 C   0  0  0  0  0  2  0  0  0  0  0  0
  183.5730  172.1340  136.7670 C   0  0  1  0  0  3  0  0  0  0  0  0
  181.3270  171.3810  135.9030 C   0  0  2  0  0  3  0  0  0  0  0  0
  179.7240  170.7860  136.3890 Cl  0  0  0  0  0  0  0  0  0  0  0  0
  183.3900  170.8420  134.6030 C   0  0  0  0  0  2  0  0  0  0  0  0
  182.0130  170.3420  135.0240 C   0  0  0  0  0  2  0  0  0  0  0  0
  184.2530  171.1310  135.8310 C   0  0  0  0  0  2  0  0  0  0  0  0
  1 10  1  0  0  0  0
  2  7  1  1  0  0  0
  2  5  1  0  0  0  0
  2  4  1  0  0  0  0
  3  1  2  0  0  0  0
  4 19  1  6  0  0  0
  4 11  1  0  0  0  0
  5  3  1  0  0  0  0
  6  9  2  0  0  0  0
  8 26  1  6  0  0  0
  8  6  1  0  0  0  0
  8  5  1  0  0  0  0
  9  3  1  0  0  0  0
 11 13  1  1  0  0  0
 11 10  1  0  0  0  0
 12 15  1  0  0  0  0
 13 17  1  0  0  0  0
 15 14  2  0  0  0  0
 16 13  2  0  0  0  0
 16 15  1  0  0  0  0
 17 14  1  0  0  0  0
 18 19  2  0  0  0  0
 20 19  1  0  0  0  0
 20 21  1  1  0  0  0
 22 24  2  0  0  0  0
 23 24  1  0  0  0  0
 24 20  1  0  0  0  0
 25 23  1  0  0  0  0
 27 26  1  0  0  0  0
 28 27  1  0  0  0  0
 29 33  1  6  0  0  0
 29 41  1  0  0  0  0
 29 31  1  0  0  0  0
 29 30  1  0  0  0  0
 30 34  1  6  0  0  0
 30 37  1  0  0  0  0
 30 32  1  0  0  0  0
 32 39  1  6  0  0  0
 32 35  1  0  0  0  0
 36 35  1  0  0  0  0
 36 28  1  1  0  0  0
 37 31  1  6  0  0  0
 37 36  1  0  0  0  0
 39 38  1  0  0  0  0
 40 39  1  0  0  0  0
 40 38  1  0  0  0  0
 41 42  1  6  0  0  0
 43 41  1  0  0  0  0
 45 43  1  6  0  0  0
 45 44  1  0  0  0  0
 46 47  1  1  0  0  0
 46 44  1  0  0  0  0
 48 49  1  0  0  0  0
 48 50  1  0  0  0  0
 49 46  1  0  0  0  0
 50 45  1  0  0  0  0
M  END
>  <MODEL>
1

>  <REMARK>
 VINA RESULT:      -8.0      0.000      0.000
  Name = 
  12 active torsions:
  status: ('A' for Active; 'I' for Inactive)
    1  A    between atoms: C_3  and  C_10
    2  A    between atoms: C_3  and  N_48
    3  A    between atoms: C_5  and  C_50
    4  A    between atoms: C_13  and  N_48
    5  A    between atoms: C_14  and  C_16
    6  A    between atoms: C_16  and  C_44
    7  A    between atoms: C_20  and  C_23
    8  A    between atoms: C_28  and  C_44
    9  A    between atoms: C_31  and  C_38
   10  A    between atoms: C_31  and  C_49
   11  A    between atoms: C_38  and  C_43
   12  A    between atoms: C_39  and  C_49
                            x       y       z     vdW  Elec       q    Type
                         _______ _______ _______ _____ _____    ______ ____

>  <TORSDO>
F 12

$$$$
=
 OpenBabel11062414273D

 50 56  0  0  1  0  0  0  0  0999 V2000
  185.6420  178.5340  146.6780 N   0  0  0  0  0  0  0  0  0  0  0  0
  186.6530  177.9130  143.8030 C   0  0  2  0  0  3  0  0  0  0  0  0
  185.0060  178.6900  145.5570 C   0  0  0  0  0  0  0  0  0  0  0  0
  187.9720  178.0350  144.5670 C   0  0  1  0  0  3  0  0  0  0  0  0
  185.6360  178.8460  144.2930 N   0  0  0  0  0  0  0  0  0  0  0  0
  183.2870  179.3880  144.1870 C   0  0  0  0  0  3  0  0  0  0  0  0
  186.1700  176.6010  143.8500 O   0  0  0  0  0  1  0  0  0  0  0  0
  184.6250  179.4560  143.4220 C   0  0  2  0  0  3  0  0  0  0  0  0
  183.6200  178.9470  145.5320 N   0  0  0  0  0  0  0  0  0  0  0  0
  187.0900  178.5880  146.8420 C   0  0  0  0  0  2  0  0  0  0  0  0
  187.8270  177.5390  146.0210 C   0  0  2  0  0  3  0  0  0  0  0  0
  192.2480  175.6300  146.9790 N   0  0  0  0  0  1  0  0  0  0  0  0
  189.1430  177.2630  146.6850 C   0  0  0  0  0  0  0  0  0  0  0  0
  190.9650  177.3610  148.0770 C   0  0  0  0  0  3  0  0  0  0  0  0
  191.0950  176.4470  147.1310 C   0  0  0  0  0  0  0  0  0  0  0  0
  189.9770  176.3740  146.2640 N   0  0  0  0  0  0  0  0  0  0  0  0
  189.6360  178.0120  147.8790 C   0  0  0  0  0  2  0  0  0  0  0  0
  189.0390  176.1220  143.6660 O   0  0  0  0  0  0  0  0  0  0  0  0
  189.0620  177.3380  143.7860 C   0  0  0  0  0  0  0  0  0  0  0  0
  190.1510  178.1240  143.1100 C   0  0  1  0  0  3  0  0  0  0  0  0
  191.3960  177.8920  143.7020 O   0  0  0  0  0  1  0  0  0  0  0  0
  189.1730  177.9920  140.9430 O   0  0  0  0  0  0  0  0  0  0  0  0
  191.4180  177.3800  141.0440 N   0  0  0  0  0  2  0  0  0  0  0  0
  190.2100  177.8440  141.6430 C   0  0  0  0  0  0  0  0  0  0  0  0
  191.4810  177.1280  139.7160 O   0  0  0  0  0  1  0  0  0  0  0  0
  184.5210  178.8290  142.0250 C   0  0  0  0  0  2  0  0  0  0  0  0
  183.0790  178.6250  141.5800 C   0  0  0  0  0  2  0  0  0  0  0  0
  182.9780  178.7550  140.0670 C   0  0  0  0  0  2  0  0  0  0  0  0
  185.4300  176.8710  136.7380 C   0  0  2  0  0  0  0  0  0  0  0  0
  183.8970  177.0180  136.9710 C   0  0  2  0  0  0  0  0  0  0  0  0
  185.6650  178.0600  137.6540 C   0  0  0  0  0  2  0  0  0  0  0  0
  183.0550  176.0290  137.7860 C   0  0  2  0  0  3  0  0  0  0  0  0
  185.8730  177.2440  135.3280 C   0  0  0  0  0  1  0  0  0  0  0  0
  183.2050  177.4350  135.8300 O   0  0  0  0  0  1  0  0  0  0  0  0
  183.2180  176.3610  139.2560 C   0  0  0  0  0  2  0  0  0  0  0  0
  183.8430  177.7460  139.3130 C   0  0  1  0  0  3  0  0  0  0  0  0
  184.1660  178.1990  137.8930 C   0  0  2  0  0  3  0  0  0  0  0  0
  181.9170  173.8970  137.2420 C   0  0  0  0  0  2  0  0  0  0  0  0
  183.2600  174.5550  137.4810 C   0  0  0  0  0  3  0  0  0  0  0  0
  182.8030  174.2530  136.0690 C   0  0  0  0  0  2  0  0  0  0  0  0
  186.1970  175.6240  137.2200 C   0  0  2  0  0  3  0  0  0  0  0  0
  187.3840  175.9740  137.8670 O   0  0  0  0  0  1  0  0  0  0  0  0
  186.4670  174.6650  136.1590 N   0  0  0  0  0  2  0  0  0  0  0  0
  185.9970  172.3720  136.8880 C   0  0  0  0  0  2  0  0  0  0  0  0
  187.0460  173.4820  136.7770 C   0  0  1  0  0  3  0  0  0  0  0  0
  185.5960  171.8560  135.5060 C   0  0  2  0  0  3  0  0  0  0  0  0
  184.4130  170.5410  135.6830 Cl  0  0  0  0  0  0  0  0  0  0  0  0
  187.8440  172.4650  134.6050 C   0  0  0  0  0  2  0  0  0  0  0  0
  186.8230  171.3440  134.7610 C   0  0  0  0  0  2  0  0  0  0  0  0
  188.2590  173.0040  135.9750 C   0  0  0  0  0  2  0  0  0  0  0  0
  1 10  1  0  0  0  0
  2  7  1  1  0  0  0
  2  5  1  0  0  0  0
  2  4  1  0  0  0  0
  3  1  2  0  0  0  0
  4 19  1  6  0  0  0
  4 11  1  0  0  0  0
  5  3  1  0  0  0  0
  6  9  2  0  0  0  0
  8 26  1  6  0  0  0
  8  6  1  0  0  0  0
  8  5  1  0  0  0  0
  9  3  1  0  0  0  0
 11 13  1  1  0  0  0
 11 10  1  0  0  0  0
 12 15  1  0  0  0  0
 13 17  1  0  0  0  0
 15 14  2  0  0  0  0
 16 13  2  0  0  0  0
 16 15  1  0  0  0  0
 17 14  1  0  0  0  0
 18 19  2  0  0  0  0
 20 21  1  1  0  0  0
 20 19  1  0  0  0  0
 22 24  2  0  0  0  0
 23 24  1  0  0  0  0
 24 20  1  0  0  0  0
 25 23  1  0  0  0  0
 27 26  1  0  0  0  0
 28 27  1  0  0  0  0
 29 33  1  6  0  0  0
 29 30  1  0  0  0  0
 29 41  1  0  0  0  0
 29 31  1  0  0  0  0
 30 34  1  6  0  0  0
 30 32  1  0  0  0  0
 30 37  1  0  0  0  0
 32 39  1  1  0  0  0
 32 35  1  0  0  0  0
 35 36  1  0  0  0  0
 36 28  1  6  0  0  0
 37 31  1  1  0  0  0
 37 36  1  0  0  0  0
 38 39  1  0  0  0  0
 40 38  1  0  0  0  0
 40 39  1  0  0  0  0
 41 42  1  6  0  0  0
 43 41  1  0  0  0  0
 45 43  1  6  0  0  0
 45 44  1  0  0  0  0
 46 47  1  1  0  0  0
 46 44  1  0  0  0  0
 48 49  1  0  0  0  0
 48 50  1  0  0  0  0
 49 46  1  0  0  0  0
 50 45  1  0  0  0  0
M  END
>  <MODEL>
2

>  <REMARK>
 VINA RESULT:      -7.9      1.658      2.090
  Name = 
  12 active torsions:
  status: ('A' for Active; 'I' for Inactive)
    1  A    between atoms: C_3  and  C_10
    2  A    between atoms: C_3  and  N_48
    3  A    between atoms: C_5  and  C_50
    4  A    between atoms: C_13  and  N_48
    5  A    between atoms: C_14  and  C_16
    6  A    between atoms: C_16  and  C_44
    7  A    between atoms: C_20  and  C_23
    8  A    between atoms: C_28  and  C_44
    9  A    between atoms: C_31  and  C_38
   10  A    between atoms: C_31  and  C_49
   11  A    between atoms: C_38  and  C_43
   12  A    between atoms: C_39  and  C_49
                            x       y       z     vdW  Elec       q    Type
                         _______ _______ _______ _____ _____    ______ ____

>  <TORSDO>
F 12

$$$$
=
 OpenBabel11062414273D

 50 56  0  0  1  0  0  0  0  0999 V2000
  191.3550  176.8750  139.3330 N   0  0  0  0  0  0  0  0  0  0  0  0
  188.3590  177.5670  139.8020 C   0  0  2  0  0  3  0  0  0  0  0  0
  190.3880  176.8650  138.4670 C   0  0  0  0  0  0  0  0  0  0  0  0
  188.8210  177.2490  141.2240 C   0  0  1  0  0  3  0  0  0  0  0  0
  189.0140  176.7230  138.8000 N   0  0  0  0  0  0  0  0  0  0  0  0
  189.3860  176.4550  136.4310 C   0  0  0  0  0  3  0  0  0  0  0  0
  188.5610  178.9190  139.5030 O   0  0  0  0  0  1  0  0  0  0  0  0
  188.3530  176.2890  137.5640 C   0  0  2  0  0  3  0  0  0  0  0  0
  190.6470  176.7660  137.0840 N   0  0  0  0  0  0  0  0  0  0  0  0
  191.2060  176.6490  140.7670 C   0  0  0  0  0  2  0  0  0  0  0  0
  190.2910  177.6600  141.4420 C   0  0  2  0  0  3  0  0  0  0  0  0
  191.6610  176.3690  145.9770 N   0  0  0  0  0  1  0  0  0  0  0  0
  190.6730  177.7440  142.8900 C   0  0  0  0  0  0  0  0  0  0  0  0
  191.2360  178.5260  144.9730 C   0  0  0  0  0  3  0  0  0  0  0  0
  191.2820  177.2080  144.8950 C   0  0  0  0  0  0  0  0  0  0  0  0
  190.9360  176.7090  143.6150 N   0  0  0  0  0  0  0  0  0  0  0  0
  190.8220  179.0320  143.6300 C   0  0  0  0  0  2  0  0  0  0  0  0
  187.6070  179.0650  142.1420 O   0  0  0  0  0  0  0  0  0  0  0  0
  187.8560  177.8690  142.2080 C   0  0  0  0  0  0  0  0  0  0  0  0
  187.1560  177.0280  143.2390 C   0  0  1  0  0  3  0  0  0  0  0  0
  187.8100  175.8080  143.4370 O   0  0  0  0  0  1  0  0  0  0  0  0
  187.9530  177.7670  145.3580 O   0  0  0  0  0  0  0  0  0  0  0  0
  185.7690  178.3990  144.8580 N   0  0  0  0  0  2  0  0  0  0  0  0
  186.9990  177.7540  144.5350 C   0  0  0  0  0  0  0  0  0  0  0  0
  185.6190  179.0630  146.0280 O   0  0  0  0  0  1  0  0  0  0  0  0
  187.0360  177.0150  137.2530 C   0  0  0  0  0  2  0  0  0  0  0  0
  186.4910  176.6750  135.8720 C   0  0  0  0  0  2  0  0  0  0  0  0
  185.2630  175.7850  136.0010 C   0  0  0  0  0  2  0  0  0  0  0  0
  181.6260  176.1440  138.7000 C   0  0  2  0  0  0  0  0  0  0  0  0
  181.7940  175.8060  137.1890 C   0  0  2  0  0  0  0  0  0  0  0  0
  183.0560  175.6940  138.9420 C   0  0  0  0  0  2  0  0  0  0  0  0
  181.8760  176.8600  136.0770 C   0  0  2  0  0  3  0  0  0  0  0  0
  180.6830  175.1990  139.4370 C   0  0  0  0  0  1  0  0  0  0  0  0
  181.0230  174.7140  136.7810 O   0  0  0  0  0  1  0  0  0  0  0  0
  183.2950  177.3880  136.0240 C   0  0  0  0  0  2  0  0  0  0  0  0
  184.1430  176.4150  136.8280 C   0  0  1  0  0  3  0  0  0  0  0  0
  183.2270  175.3720  137.4620 C   0  0  2  0  0  3  0  0  0  0  0  0
  180.1480  178.0520  134.7640 C   0  0  0  0  0  2  0  0  0  0  0  0
  180.8290  177.9600  136.1120 C   0  0  0  0  0  3  0  0  0  0  0  0
  179.4510  177.3670  135.9170 C   0  0  0  0  0  2  0  0  0  0  0  0
  181.3990  177.5930  139.1750 C   0  0  2  0  0  3  0  0  0  0  0  0
  182.5930  178.3170  139.1890 O   0  0  0  0  0  1  0  0  0  0  0  0
  180.7430  177.6810  140.4710 N   0  0  0  0  0  2  0  0  0  0  0  0
  180.9120  180.1130  140.7260 C   0  0  0  0  0  2  0  0  0  0  0  0
  181.3940  178.7460  141.2180 C   0  0  1  0  0  3  0  0  0  0  0  0
  179.4370  180.3290  141.0650 C   0  0  2  0  0  3  0  0  0  0  0  0
  178.9310  181.9440  140.5180 Cl  0  0  0  0  0  0  0  0  0  0  0  0
  179.6540  178.8280  143.0490 C   0  0  0  0  0  2  0  0  0  0  0  0
  179.2220  180.2090  142.5700 C   0  0  0  0  0  2  0  0  0  0  0  0
  181.1260  178.5830  142.7170 C   0  0  0  0  0  2  0  0  0  0  0  0
  1 10  1  0  0  0  0
  2  7  1  6  0  0  0
  2  4  1  0  0  0  0
  3  5  1  0  0  0  0
  3  1  2  0  0  0  0
  4 11  1  0  0  0  0
  4 19  1  1  0  0  0
  5  2  1  0  0  0  0
  6  9  2  0  0  0  0
  6  8  1  0  0  0  0
  8 26  1  6  0  0  0
  8  5  1  0  0  0  0
  9  3  1  0  0  0  0
 10 11  1  0  0  0  0
 11 13  1  1  0  0  0
 13 16  2  0  0  0  0
 13 17  1  0  0  0  0
 15 14  2  0  0  0  0
 15 12  1  0  0  0  0
 16 15  1  0  0  0  0
 17 14  1  0  0  0  0
 18 19  2  0  0  0  0
 19 20  1  0  0  0  0
 20 21  1  1  0  0  0
 20 24  1  0  0  0  0
 23 25  1  0  0  0  0
 24 23  1  0  0  0  0
 24 22  2  0  0  0  0
 27 28  1  0  0  0  0
 27 26  1  0  0  0  0
 29 31  1  0  0  0  0
 29 41  1  0  0  0  0
 29 33  1  1  0  0  0
 30 34  1  6  0  0  0
 30 37  1  0  0  0  0
 30 29  1  0  0  0  0
 32 39  1  1  0  0  0
 32 30  1  0  0  0  0
 35 32  1  0  0  0  0
 35 36  1  0  0  0  0
 36 28  1  6  0  0  0
 36 37  1  0  0  0  0
 37 31  1  1  0  0  0
 38 40  1  0  0  0  0
 38 39  1  0  0  0  0
 40 39  1  0  0  0  0
 41 42  1  1  0  0  0
 41 43  1  0  0  0  0
 44 46  1  0  0  0  0
 44 45  1  0  0  0  0
 45 43  1  6  0  0  0
 45 50  1  0  0  0  0
 46 47  1  1  0  0  0
 46 49  1  0  0  0  0
 49 48  1  0  0  0  0
 50 48  1  0  0  0  0
M  END
>  <MODEL>
3

>  <REMARK>
 VINA RESULT:      -7.5      3.229      6.512
  Name = 
  12 active torsions:
  status: ('A' for Active; 'I' for Inactive)
    1  A    between atoms: C_3  and  C_10
    2  A    between atoms: C_3  and  N_48
    3  A    between atoms: C_5  and  C_50
    4  A    between atoms: C_13  and  N_48
    5  A    between atoms: C_14  and  C_16
    6  A    between atoms: C_16  and  C_44
    7  A    between atoms: C_20  and  C_23
    8  A    between atoms: C_28  and  C_44
    9  A    between atoms: C_31  and  C_38
   10  A    between atoms: C_31  and  C_49
   11  A    between atoms: C_38  and  C_43
   12  A    between atoms: C_39  and  C_49
                            x       y       z     vdW  Elec       q    Type
                         _______ _______ _______ _____ _____    ______ ____

>  <TORSDO>
F 12

$$$$
=
 OpenBabel11062414273D

 50 56  0  0  1  0  0  0  0  0999 V2000
  185.7500  178.4450  146.7490 N   0  0  0  0  0  0  0  0  0  0  0  0
  186.8660  177.8780  143.9020 C   0  0  2  0  0  3  0  0  0  0  0  0
  185.1470  178.6000  145.6100 C   0  0  0  0  0  0  0  0  0  0  0  0
  188.1570  178.0210  144.7090 C   0  0  1  0  0  3  0  0  0  0  0  0
  185.8140  178.7830  144.3680 N   0  0  0  0  0  0  0  0  0  0  0  0
  183.4570  179.2740  144.1920 C   0  0  0  0  0  3  0  0  0  0  0  0
  186.4110  176.5550  143.9190 O   0  0  0  0  0  1  0  0  0  0  0  0
  184.8170  179.3800  143.4710 C   0  0  2  0  0  3  0  0  0  0  0  0
  183.7570  178.8270  145.5430 N   0  0  0  0  0  0  0  0  0  0  0  0
  187.1910  178.5290  146.9590 C   0  0  0  0  0  2  0  0  0  0  0  0
  187.9760  177.5060  146.1520 C   0  0  2  0  0  3  0  0  0  0  0  0
  192.3600  175.6110  147.2900 N   0  0  0  0  0  1  0  0  0  0  0  0
  189.2770  177.2520  146.8560 C   0  0  0  0  0  0  0  0  0  0  0  0
  191.0720  177.4020  148.2780 C   0  0  0  0  0  3  0  0  0  0  0  0
  191.2120  176.4430  147.3800 C   0  0  0  0  0  0  0  0  0  0  0  0
  190.1110  176.3370  146.4940 N   0  0  0  0  0  0  0  0  0  0  0  0
  189.7520  178.0530  148.0220 C   0  0  0  0  0  2  0  0  0  0  0  0
  189.2990  176.1400  143.8300 O   0  0  0  0  0  0  0  0  0  0  0  0
  189.2870  177.3570  143.9570 C   0  0  0  0  0  0  0  0  0  0  0  0
  190.3740  178.1740  143.3150 C   0  0  1  0  0  3  0  0  0  0  0  0
  191.5980  178.0030  143.9670 O   0  0  0  0  0  1  0  0  0  0  0  0
  189.4920  177.9180  141.1170 O   0  0  0  0  0  0  0  0  0  0  0  0
  191.7740  177.4980  141.3130 N   0  0  0  0  0  2  0  0  0  0  0  0
  190.5100  177.8710  141.8580 C   0  0  0  0  0  0  0  0  0  0  0  0
  191.9070  177.2260  139.9940 O   0  0  0  0  0  1  0  0  0  0  0  0
  184.7720  178.7660  142.0650 C   0  0  0  0  0  2  0  0  0  0  0  0
  183.3620  178.7180  141.4920 C   0  0  0  0  0  2  0  0  0  0  0  0
  183.0640  177.3240  140.9570 C   0  0  0  0  0  2  0  0  0  0  0  0
  182.2480  175.7010  136.7930 C   0  0  2  0  0  0  0  0  0  0  0  0
  183.5100  175.6860  137.7070 C   0  0  2  0  0  0  0  0  0  0  0  0
  181.3780  175.8790  138.0260 C   0  0  0  0  0  2  0  0  0  0  0  0
  184.5420  176.8200  137.7630 C   0  0  2  0  0  3  0  0  0  0  0  0
  181.9340  174.3500  136.1610 C   0  0  0  0  0  1  0  0  0  0  0  0
  184.1390  174.4390  137.7540 O   0  0  0  0  0  1  0  0  0  0  0  0
  184.0070  177.9070  138.6730 C   0  0  0  0  0  2  0  0  0  0  0  0
  182.8520  177.2880  139.4450 C   0  0  1  0  0  3  0  0  0  0  0  0
  182.6120  175.8750  138.9210 C   0  0  2  0  0  3  0  0  0  0  0  0
  186.4970  177.7330  136.5490 C   0  0  0  0  0  2  0  0  0  0  0  0
  185.0380  177.3480  136.4280 C   0  0  0  0  0  3  0  0  0  0  0  0
  186.1130  176.4330  135.8800 C   0  0  0  0  0  2  0  0  0  0  0  0
  182.0160  176.8300  135.7680 C   0  0  2  0  0  3  0  0  0  0  0  0
  182.9720  176.7980  134.7500 O   0  0  0  0  0  1  0  0  0  0  0  0
  181.9660  178.1540  136.3680 N   0  0  0  0  0  2  0  0  0  0  0  0
  180.3050  179.4520  137.6210 C   0  0  0  0  0  2  0  0  0  0  0  0
  180.5700  178.5660  136.4010 C   0  0  1  0  0  3  0  0  0  0  0  0
  181.0370  180.7880  137.4980 C   0  0  2  0  0  3  0  0  0  0  0  0
  180.6660  181.8020  138.9100 Cl  0  0  0  0  0  0  0  0  0  0  0  0
  180.9180  180.6450  135.0070 C   0  0  0  0  0  2  0  0  0  0  0  0
  180.6050  181.5070  136.2250 C   0  0  0  0  0  2  0  0  0  0  0  0
  180.2020  179.2980  135.1080 C   0  0  0  0  0  2  0  0  0  0  0  0
  1 10  1  0  0  0  0
  2  7  1  1  0  0  0
  2  5  1  0  0  0  0
  2  4  1  0  0  0  0
  3  1  2  0  0  0  0
  4 19  1  6  0  0  0
  4 11  1  0  0  0  0
  5  3  1  0  0  0  0
  6  9  2  0  0  0  0
  8 26  1  6  0  0  0
  8  6  1  0  0  0  0
  8  5  1  0  0  0  0
  9  3  1  0  0  0  0
 11 13  1  1  0  0  0
 11 10  1  0  0  0  0
 12 15  1  0  0  0  0
 13 17  1  0  0  0  0
 15 14  2  0  0  0  0
 16 13  2  0  0  0  0
 16 15  1  0  0  0  0
 17 14  1  0  0  0  0
 18 19  2  0  0  0  0
 20 19  1  0  0  0  0
 20 21  1  1  0  0  0
 22 24  2  0  0  0  0
 23 24  1  0  0  0  0
 24 20  1  0  0  0  0
 25 23  1  0  0  0  0
 27 26  1  0  0  0  0
 28 27  1  0  0  0  0
 29 33  1  6  0  0  0
 29 30  1  0  0  0  0
 29 31  1  0  0  0  0
 30 34  1  1  0  0  0
 30 32  1  0  0  0  0
 30 37  1  0  0  0  0
 32 39  1  6  0  0  0
 32 35  1  0  0  0  0
 35 36  1  0  0  0  0
 36 28  1  1  0  0  0
 37 31  1  6  0  0  0
 37 36  1  0  0  0  0
 39 38  1  0  0  0  0
 40 39  1  0  0  0  0
 40 38  1  0  0  0  0
 41 42  1  6  0  0  0
 41 43  1  0  0  0  0
 41 29  1  0  0  0  0
 45 43  1  6  0  0  0
 45 44  1  0  0  0  0
 46 44  1  0  0  0  0
 46 47  1  1  0  0  0
 48 50  1  0  0  0  0
 48 49  1  0  0  0  0
 49 46  1  0  0  0  0
 50 45  1  0  0  0  0
M  END
>  <MODEL>
4

>  <REMARK>
 VINA RESULT:      -6.9      2.393      4.242
  Name = 
  12 active torsions:
  status: ('A' for Active; 'I' for Inactive)
    1  A    between atoms: C_3  and  C_10
    2  A    between atoms: C_3  and  N_48
    3  A    between atoms: C_5  and  C_50
    4  A    between atoms: C_13  and  N_48
    5  A    between atoms: C_14  and  C_16
    6  A    between atoms: C_16  and  C_44
    7  A    between atoms: C_20  and  C_23
    8  A    between atoms: C_28  and  C_44
    9  A    between atoms: C_31  and  C_38
   10  A    between atoms: C_31  and  C_49
   11  A    between atoms: C_38  and  C_43
   12  A    between atoms: C_39  and  C_49
                            x       y       z     vdW  Elec       q    Type
                         _______ _______ _______ _____ _____    ______ ____

>  <TORSDO>
F 12

$$$$
=
 OpenBabel11062414273D

 50 56  0  0  1  0  0  0  0  0999 V2000
  185.8410  178.3510  146.9050 N   0  0  0  0  0  0  0  0  0  0  0  0
  186.9500  177.7690  144.0580 C   0  0  2  0  0  3  0  0  0  0  0  0
  185.2260  178.4720  145.7680 C   0  0  0  0  0  0  0  0  0  0  0  0
  188.2430  177.9580  144.8530 C   0  0  1  0  0  3  0  0  0  0  0  0
  185.8780  178.6540  144.5190 N   0  0  0  0  0  0  0  0  0  0  0  0
  183.5080  179.0800  144.3540 C   0  0  0  0  0  3  0  0  0  0  0  0
  186.5300  176.4350  144.1000 O   0  0  0  0  0  1  0  0  0  0  0  0
  184.8590  179.2100  143.6210 C   0  0  2  0  0  3  0  0  0  0  0  0
  183.8290  178.6620  145.7090 N   0  0  0  0  0  0  0  0  0  0  0  0
  187.2810  178.4760  147.1030 C   0  0  0  0  0  2  0  0  0  0  0  0
  188.0870  177.4610  146.3050 C   0  0  2  0  0  3  0  0  0  0  0  0
  192.5080  175.6670  147.4650 N   0  0  0  0  0  1  0  0  0  0  0  0
  189.3980  177.2510  147.0020 C   0  0  0  0  0  0  0  0  0  0  0  0
  191.2080  177.4820  148.3940 C   0  0  0  0  0  3  0  0  0  0  0  0
  191.3500  176.4890  147.5340 C   0  0  0  0  0  0  0  0  0  0  0  0
  190.2400  176.3330  146.6680 N   0  0  0  0  0  0  0  0  0  0  0  0
  189.8780  178.1060  148.1290 C   0  0  0  0  0  2  0  0  0  0  0  0
  189.4340  176.0940  144.0040 O   0  0  0  0  0  0  0  0  0  0  0  0
  189.3840  177.3120  144.1020 C   0  0  0  0  0  0  0  0  0  0  0  0
  190.4360  178.1480  143.4260 C   0  0  1  0  0  3  0  0  0  0  0  0
  191.6740  178.0310  144.0650 O   0  0  0  0  0  1  0  0  0  0  0  0
  189.5360  177.8200  141.2460 O   0  0  0  0  0  0  0  0  0  0  0  0
  191.8290  177.4590  141.4230 N   0  0  0  0  0  2  0  0  0  0  0  0
  190.5630  177.8140  141.9750 C   0  0  0  0  0  0  0  0  0  0  0  0
  191.9540  177.1590  140.1100 O   0  0  0  0  0  1  0  0  0  0  0  0
  184.8200  178.5740  142.2250 C   0  0  0  0  0  2  0  0  0  0  0  0
  183.4140  178.5300  141.6400 C   0  0  0  0  0  2  0  0  0  0  0  0
  183.4450  178.9480  140.1780 C   0  0  0  0  0  2  0  0  0  0  0  0
  181.3790  176.9020  136.6870 C   0  0  2  0  0  0  0  0  0  0  0  0
  180.8680  177.4160  138.0660 C   0  0  2  0  0  0  0  0  0  0  0  0
  182.5470  177.8690  136.7780 C   0  0  0  0  0  2  0  0  0  0  0  0
  180.9130  176.5910  139.3580 C   0  0  2  0  0  3  0  0  0  0  0  0
  180.4940  177.3130  135.5150 C   0  0  0  0  0  1  0  0  0  0  0  0
  179.6730  178.1340  137.9770 O   0  0  0  0  0  1  0  0  0  0  0  0
  182.3090  176.6910  139.9400 C   0  0  0  0  0  2  0  0  0  0  0  0
  182.9890  177.8460  139.2230 C   0  0  1  0  0  3  0  0  0  0  0  0
  182.0560  178.3660  138.1330 C   0  0  2  0  0  3  0  0  0  0  0  0
  180.0260  174.6710  140.6470 C   0  0  0  0  0  2  0  0  0  0  0  0
  180.4040  175.1630  139.2660 C   0  0  0  0  0  3  0  0  0  0  0  0
  178.9490  175.1070  139.6790 C   0  0  0  0  0  2  0  0  0  0  0  0
  181.8590  175.4490  136.5020 C   0  0  2  0  0  3  0  0  0  0  0  0
  180.9580  174.5400  137.0600 O   0  0  0  0  0  1  0  0  0  0  0  0
  183.1980  175.2120  137.0210 N   0  0  0  0  0  2  0  0  0  0  0  0
  185.2300  175.3090  135.6520 C   0  0  0  0  0  2  0  0  0  0  0  0
  183.9540  174.5290  135.9820 C   0  0  1  0  0  3  0  0  0  0  0  0
  186.2030  175.2900  136.8310 C   0  0  2  0  0  3  0  0  0  0  0  0
  187.6860  176.1660  136.3900 Cl  0  0  0  0  0  0  0  0  0  0  0  0
  185.2840  173.0930  137.5820 C   0  0  0  0  0  2  0  0  0  0  0  0
  186.5490  173.8530  137.2040 C   0  0  0  0  0  2  0  0  0  0  0  0
  184.2880  173.1010  136.4210 C   0  0  0  0  0  2  0  0  0  0  0  0
  1 10  1  0  0  0  0
  2  7  1  1  0  0  0
  2  5  1  0  0  0  0
  2  4  1  0  0  0  0
  3  1  2  0  0  0  0
  4 19  1  6  0  0  0
  4 11  1  0  0  0  0
  5  3  1  0  0  0  0
  6  9  2  0  0  0  0
  8 26  1  6  0  0  0
  8  6  1  0  0  0  0
  8  5  1  0  0  0  0
  9  3  1  0  0  0  0
 11 13  1  1  0  0  0
 11 10  1  0  0  0  0
 12 15  1  0  0  0  0
 13 17  1  0  0  0  0
 15 14  2  0  0  0  0
 16 13  2  0  0  0  0
 16 15  1  0  0  0  0
 17 14  1  0  0  0  0
 18 19  2  0  0  0  0
 20 21  1  1  0  0  0
 20 19  1  0  0  0  0
 22 24  2  0  0  0  0
 23 24  1  0  0  0  0
 24 20  1  0  0  0  0
 25 23  1  0  0  0  0
 27 26  1  0  0  0  0
 28 27  1  0  0  0  0
 29 33  1  6  0  0  0
 29 31  1  0  0  0  0
 29 30  1  0  0  0  0
 30 34  1  6  0  0  0
 30 37  1  0  0  0  0
 30 32  1  0  0  0  0
 32 39  1  6  0  0  0
 32 35  1  0  0  0  0
 36 35  1  0  0  0  0
 36 28  1  1  0  0  0
 37 31  1  6  0  0  0
 37 36  1  0  0  0  0
 39 40  1  0  0  0  0
 39 38  1  0  0  0  0
 40 38  1  0  0  0  0
 41 29  1  0  0  0  0
 41 43  1  0  0  0  0
 41 42  1  1  0  0  0
 44 45  1  0  0  0  0
 44 46  1  0  0  0  0
 45 50  1  0  0  0  0
 45 43  1  1  0  0  0
 46 47  1  6  0  0  0
 46 49  1  0  0  0  0
 49 48  1  0  0  0  0
 50 48  1  0  0  0  0
M  END
>  <MODEL>
5

>  <REMARK>
 VINA RESULT:      -6.8      1.969      2.445
  Name = 
  12 active torsions:
  status: ('A' for Active; 'I' for Inactive)
    1  A    between atoms: C_3  and  C_10
    2  A    between atoms: C_3  and  N_48
    3  A    between atoms: C_5  and  C_50
    4  A    between atoms: C_13  and  N_48
    5  A    between atoms: C_14  and  C_16
    6  A    between atoms: C_16  and  C_44
    7  A    between atoms: C_20  and  C_23
    8  A    between atoms: C_28  and  C_44
    9  A    between atoms: C_31  and  C_38
   10  A    between atoms: C_31  and  C_49
   11  A    between atoms: C_38  and  C_43
   12  A    between atoms: C_39  and  C_49
                            x       y       z     vdW  Elec       q    Type
                         _______ _______ _______ _____ _____    ______ ____

>  <TORSDO>
F 12

$$$$
=
 OpenBabel11062414273D

 50 56  0  0  1  0  0  0  0  0999 V2000
  191.2190  176.8640  138.8700 N   0  0  0  0  0  0  0  0  0  0  0  0
  188.3850  177.8820  139.6480 C   0  0  2  0  0  3  0  0  0  0  0  0
  190.2080  177.0880  138.0870 C   0  0  0  0  0  0  0  0  0  0  0  0
  188.8860  177.3330  140.9850 C   0  0  1  0  0  3  0  0  0  0  0  0
  188.8510  177.0880  138.5090 N   0  0  0  0  0  0  0  0  0  0  0  0
  189.0330  177.0660  136.1030 C   0  0  0  0  0  3  0  0  0  0  0  0
  188.7540  179.2210  139.4890 O   0  0  0  0  0  1  0  0  0  0  0  0
  188.0600  176.8990  137.2880 C   0  0  2  0  0  3  0  0  0  0  0  0
  190.3630  177.1260  136.6850 N   0  0  0  0  0  0  0  0  0  0  0  0
  191.1300  176.4860  140.2760 C   0  0  0  0  0  2  0  0  0  0  0  0
  190.4100  177.5180  141.1310 C   0  0  2  0  0  3  0  0  0  0  0  0
  192.0430  175.5240  145.3100 N   0  0  0  0  0  1  0  0  0  0  0  0
  190.8900  177.3720  142.5450 C   0  0  0  0  0  0  0  0  0  0  0  0
  191.6130  177.8170  144.6770 C   0  0  0  0  0  3  0  0  0  0  0  0
  191.6170  176.5260  144.3970 C   0  0  0  0  0  0  0  0  0  0  0  0
  191.1720  176.2340  143.0840 N   0  0  0  0  0  0  0  0  0  0  0  0
  191.1240  178.5290  143.4590 C   0  0  0  0  0  2  0  0  0  0  0  0
  187.9780  179.1650  142.1810 O   0  0  0  0  0  0  0  0  0  0  0  0
  188.0810  177.9490  142.1050 C   0  0  0  0  0  0  0  0  0  0  0  0
  187.3610  177.0870  143.1040 C   0  0  1  0  0  3  0  0  0  0  0  0
  187.9370  175.8160  143.1960 O   0  0  0  0  0  1  0  0  0  0  0  0
  188.3610  177.9280  145.0950 O   0  0  0  0  0  0  0  0  0  0  0  0
  186.0400  178.0890  145.0220 N   0  0  0  0  0  2  0  0  0  0  0  0
  187.2970  177.7310  144.4510 C   0  0  0  0  0  0  0  0  0  0  0  0
  185.9730  178.6770  146.2390 O   0  0  0  0  0  1  0  0  0  0  0  0
  186.8400  177.8240  137.1660 C   0  0  0  0  0  2  0  0  0  0  0  0
  185.5500  177.1550  137.6210 C   0  0  0  0  0  2  0  0  0  0  0  0
  184.9000  177.9750  138.7260 C   0  0  0  0  0  2  0  0  0  0  0  0
  180.5190  178.9550  138.0240 C   0  0  2  0  0  0  0  0  0  0  0  0
  181.5780  179.5000  139.0270 C   0  0  2  0  0  0  0  0  0  0  0  0
  181.6440  178.5150  137.1020 C   0  0  0  0  0  2  0  0  0  0  0  0
  181.8820  178.8570  140.3860 C   0  0  2  0  0  3  0  0  0  0  0  0
  179.7150  180.0490  137.3280 C   0  0  0  0  0  1  0  0  0  0  0  0
  181.5740  180.8940  139.1280 O   0  0  0  0  0  1  0  0  0  0  0  0
  182.8260  177.6920  140.1630 C   0  0  0  0  0  2  0  0  0  0  0  0
  183.3770  177.8540  138.7540 C   0  0  1  0  0  3  0  0  0  0  0  0
  182.6830  179.0380  138.0880 C   0  0  2  0  0  3  0  0  0  0  0  0
  181.0510  178.6370  142.7090 C   0  0  0  0  0  2  0  0  0  0  0  0
  180.6830  178.4980  141.2470 C   0  0  0  0  0  3  0  0  0  0  0  0
  180.2300  179.7110  142.0310 C   0  0  0  0  0  2  0  0  0  0  0  0
  179.5970  177.7770  138.3940 C   0  0  2  0  0  3  0  0  0  0  0  0
  178.9340  178.0090  139.6010 O   0  0  0  0  0  1  0  0  0  0  0  0
  180.2850  176.4950  138.4380 N   0  0  0  0  0  2  0  0  0  0  0  0
  180.8500  175.1470  136.4690 C   0  0  0  0  0  2  0  0  0  0  0  0
  179.7320  175.6670  137.3770 C   0  0  1  0  0  3  0  0  0  0  0  0
  181.7500  174.1630  137.2170 C   0  0  2  0  0  3  0  0  0  0  0  0
  183.0050  173.5510  136.1170 Cl  0  0  0  0  0  0  0  0  0  0  0  0
  179.8440  173.5130  138.6940 C   0  0  0  0  0  2  0  0  0  0  0  0
  180.9240  172.9980  137.7500 C   0  0  0  0  0  2  0  0  0  0  0  0
  178.9320  174.5050  137.9720 C   0  0  0  0  0  2  0  0  0  0  0  0
  1 10  1  0  0  0  0
  2  7  1  6  0  0  0
  2  4  1  0  0  0  0
  3  5  1  0  0  0  0
  3  1  2  0  0  0  0
  4 11  1  0  0  0  0
  4 19  1  1  0  0  0
  5  2  1  0  0  0  0
  6  9  2  0  0  0  0
  6  8  1  0  0  0  0
  8 26  1  6  0  0  0
  8  5  1  0  0  0  0
  9  3  1  0  0  0  0
 10 11  1  0  0  0  0
 11 13  1  1  0  0  0
 13 16  2  0  0  0  0
 13 17  1  0  0  0  0
 15 14  2  0  0  0  0
 15 12  1  0  0  0  0
 16 15  1  0  0  0  0
 17 14  1  0  0  0  0
 19 18  2  0  0  0  0
 19 20  1  0  0  0  0
 20 21  1  1  0  0  0
 20 24  1  0  0  0  0
 23 25  1  0  0  0  0
 24 23  1  0  0  0  0
 24 22  2  0  0  0  0
 26 27  1  0  0  0  0
 27 28  1  0  0  0  0
 29 33  1  6  0  0  0
 29 41  1  0  0  0  0
 29 30  1  0  0  0  0
 30 34  1  1  0  0  0
 30 32  1  0  0  0  0
 31 29  1  0  0  0  0
 32 39  1  6  0  0  0
 35 32  1  0  0  0  0
 36 28  1  1  0  0  0
 36 35  1  0  0  0  0
 37 31  1  6  0  0  0
 37 36  1  0  0  0  0
 37 30  1  0  0  0  0
 39 40  1  0  0  0  0
 39 38  1  0  0  0  0
 40 38  1  0  0  0  0
 41 43  1  0  0  0  0
 41 42  1  1  0  0  0
 44 46  1  0  0  0  0
 44 45  1  0  0  0  0
 45 50  1  0  0  0  0
 45 43  1  1  0  0  0
 46 47  1  6  0  0  0
 46 49  1  0  0  0  0
 49 48  1  0  0  0  0
 50 48  1  0  0  0  0
M  END
>  <MODEL>
6

>  <REMARK>
 VINA RESULT:      -6.6      2.750      5.530
  Name = 
  12 active torsions:
  status: ('A' for Active; 'I' for Inactive)
    1  A    between atoms: C_3  and  C_10
    2  A    between atoms: C_3  and  N_48
    3  A    between atoms: C_5  and  C_50
    4  A    between atoms: C_13  and  N_48
    5  A    between atoms: C_14  and  C_16
    6  A    between atoms: C_16  and  C_44
    7  A    between atoms: C_20  and  C_23
    8  A    between atoms: C_28  and  C_44
    9  A    between atoms: C_31  and  C_38
   10  A    between atoms: C_31  and  C_49
   11  A    between atoms: C_38  and  C_43
   12  A    between atoms: C_39  and  C_49
                            x       y       z     vdW  Elec       q    Type
                         _______ _______ _______ _____ _____    ______ ____

>  <TORSDO>
F 12

$$$$
=
 OpenBabel11062414273D

 50 56  0  0  1  0  0  0  0  0999 V2000
  192.3830  177.2850  141.6390 N   0  0  0  0  0  0  0  0  0  0  0  0
  189.6550  176.9990  140.1740 C   0  0  2  0  0  3  0  0  0  0  0  0
  191.1960  177.5130  142.1110 C   0  0  0  0  0  0  0  0  0  0  0  0
  190.6200  177.1200  138.9940 C   0  0  1  0  0  3  0  0  0  0  0  0
  190.0620  177.8230  141.3140 N   0  0  0  0  0  0  0  0  0  0  0  0
  189.6440  178.2420  143.6530 C   0  0  0  0  0  3  0  0  0  0  0  0
  189.5130  175.6640  140.5670 O   0  0  0  0  0  1  0  0  0  0  0  0
  189.1020  178.4570  142.2250 C   0  0  2  0  0  3  0  0  0  0  0  0
  190.9810  177.6940  143.4940 N   0  0  0  0  0  0  0  0  0  0  0  0
  192.7710  177.4030  140.2380 C   0  0  0  0  0  2  0  0  0  0  0  0
  191.9850  176.4800  139.3180 C   0  0  2  0  0  3  0  0  0  0  0  0
  195.0630  177.1370  135.5490 N   0  0  0  0  0  1  0  0  0  0  0  0
  192.8180  176.2150  138.0980 C   0  0  0  0  0  0  0  0  0  0  0  0
  193.8940  175.1800  136.3550 C   0  0  0  0  0  3  0  0  0  0  0  0
  194.1740  176.4690  136.4340 C   0  0  0  0  0  0  0  0  0  0  0  0
  193.5170  177.1230  137.5050 N   0  0  0  0  0  2  0  0  0  0  0  0
  192.9500  174.8670  137.4690 C   0  0  0  0  0  3  0  0  0  0  0  0
  189.7050  175.3680  137.6870 O   0  0  0  0  0  0  0  0  0  0  0  0
  189.9580  176.5620  137.7550 C   0  0  0  0  0  0  0  0  0  0  0  0
  189.5590  177.4640  136.6200 C   0  0  1  0  0  3  0  0  0  0  0  0
  189.8800  176.9030  135.3800 O   0  0  0  0  0  1  0  0  0  0  0  0
  187.6800  178.5390  137.6140 O   0  0  0  0  0  0  0  0  0  0  0  0
  187.2040  177.3130  135.6920 N   0  0  0  0  0  2  0  0  0  0  0  0
  188.1080  177.8170  136.6740 C   0  0  0  0  0  0  0  0  0  0  0  0
  185.8900  177.6300  135.7320 O   0  0  0  0  0  1  0  0  0  0  0  0
  187.6560  177.9620  142.0780 C   0  0  0  0  0  2  0  0  0  0  0  0
  186.7630  178.9650  141.3600 C   0  0  0  0  0  2  0  0  0  0  0  0
  185.4290  179.0840  142.0810 C   0  0  0  0  0  2  0  0  0  0  0  0
  182.5520  178.0370  138.7250 C   0  0  2  0  0  0  0  0  0  0  0  0
  182.6560  179.2570  139.6880 C   0  0  2  0  0  0  0  0  0  0  0  0
  184.0260  177.7520  138.9540 C   0  0  0  0  0  2  0  0  0  0  0  0
  182.0240  179.3040  141.0850 C   0  0  2  0  0  3  0  0  0  0  0  0
  182.3480  178.4250  137.2650 C   0  0  0  0  0  1  0  0  0  0  0  0
  182.5120  180.4850  139.0370 O   0  0  0  0  0  1  0  0  0  0  0  0
  182.9410  178.5800  142.0490 C   0  0  0  0  0  2  0  0  0  0  0  0
  184.2740  178.4220  141.3330 C   0  0  1  0  0  3  0  0  0  0  0  0
  184.1290  178.9390  139.9050 C   0  0  2  0  0  3  0  0  0  0  0  0
  179.7650  179.9200  141.8930 C   0  0  0  0  0  2  0  0  0  0  0  0
  180.5760  178.8550  141.1850 C   0  0  0  0  0  3  0  0  0  0  0  0
  179.6900  179.7890  140.3890 C   0  0  0  0  0  2  0  0  0  0  0  0
  181.6780  176.8160  139.0730 C   0  0  2  0  0  3  0  0  0  0  0  0
  182.3640  175.9130  139.8880 O   0  0  0  0  0  1  0  0  0  0  0  0
  181.1470  176.1320  137.9030 N   0  0  0  0  0  2  0  0  0  0  0  0
  180.7470  173.7310  137.6110 C   0  0  0  0  0  2  0  0  0  0  0  0
  181.7910  174.8300  137.8290 C   0  0  1  0  0  3  0  0  0  0  0  0
  180.1000  173.8550  136.2310 C   0  0  2  0  0  3  0  0  0  0  0  0
  178.9310  172.5360  136.0030 Cl  0  0  0  0  0  0  0  0  0  0  0  0
  182.1760  174.9140  135.3320 C   0  0  0  0  0  2  0  0  0  0  0  0
  181.1660  173.7870  135.1440 C   0  0  0  0  0  2  0  0  0  0  0  0
  182.8350  174.8170  136.7090 C   0  0  0  0  0  2  0  0  0  0  0  0
  1  3  2  0  0  0  0
  2  7  1  1  0  0  0
  2  5  1  0  0  0  0
  3  9  1  0  0  0  0
  4 19  1  6  0  0  0
  4 11  1  0  0  0  0
  4  2  1  0  0  0  0
  5  3  1  0  0  0  0
  5  8  1  0  0  0  0
  8 26  1  1  0  0  0
  8  6  1  0  0  0  0
  9  6  2  0  0  0  0
 10  1  1  0  0  0  0
 11 13  1  6  0  0  0
 11 10  1  0  0  0  0
 12 15  1  0  0  0  0
 14 15  2  0  0  0  0
 14 17  1  0  0  0  0
 15 16  1  0  0  0  0
 16 13  1  0  0  0  0
 17 13  2  0  0  0  0
 18 19  2  0  0  0  0
 20 21  1  6  0  0  0
 20 24  1  0  0  0  0
 20 19  1  0  0  0  0
 23 25  1  0  0  0  0
 23 24  1  0  0  0  0
 24 22  2  0  0  0  0
 27 26  1  0  0  0  0
 27 28  1  0  0  0  0
 29 33  1  6  0  0  0
 29 31  1  0  0  0  0
 29 41  1  0  0  0  0
 29 30  1  0  0  0  0
 30 34  1  6  0  0  0
 30 37  1  0  0  0  0
 30 32  1  0  0  0  0
 32 39  1  6  0  0  0
 32 35  1  0  0  0  0
 36 35  1  0  0  0  0
 36 28  1  1  0  0  0
 37 31  1  6  0  0  0
 37 36  1  0  0  0  0
 39 38  1  0  0  0  0
 40 39  1  0  0  0  0
 40 38  1  0  0  0  0
 41 42  1  6  0  0  0
 43 41  1  0  0  0  0
 44 45  1  0  0  0  0
 45 43  1  6  0  0  0
 46 47  1  6  0  0  0
 46 44  1  0  0  0  0
 48 50  1  0  0  0  0
 49 48  1  0  0  0  0
 49 46  1  0  0  0  0
 50 45  1  0  0  0  0
M  END
>  <MODEL>
7

>  <REMARK>
 VINA RESULT:      -6.6      3.335      6.246
  Name = 
  12 active torsions:
  status: ('A' for Active; 'I' for Inactive)
    1  A    between atoms: C_3  and  C_10
    2  A    between atoms: C_3  and  N_48
    3  A    between atoms: C_5  and  C_50
    4  A    between atoms: C_13  and  N_48
    5  A    between atoms: C_14  and  C_16
    6  A    between atoms: C_16  and  C_44
    7  A    between atoms: C_20  and  C_23
    8  A    between atoms: C_28  and  C_44
    9  A    between atoms: C_31  and  C_38
   10  A    between atoms: C_31  and  C_49
   11  A    between atoms: C_38  and  C_43
   12  A    between atoms: C_39  and  C_49
                            x       y       z     vdW  Elec       q    Type
                         _______ _______ _______ _____ _____    ______ ____

>  <TORSDO>
F 12

$$$$
=
 OpenBabel11062414273D

 50 56  0  0  1  0  0  0  0  0999 V2000
  191.4410  177.6340  143.2980 N   0  0  0  0  0  0  0  0  0  0  0  0
  188.7400  177.6430  141.7550 C   0  0  2  0  0  3  0  0  0  0  0  0
  191.2540  177.5590  142.0160 C   0  0  0  0  0  0  0  0  0  0  0  0
  188.2880  177.2190  143.1530 C   0  0  1  0  0  3  0  0  0  0  0  0
  190.0550  177.1010  141.4060 N   0  0  0  0  0  0  0  0  0  0  0  0
  191.8580  177.2590  139.8100 C   0  0  0  0  0  3  0  0  0  0  0  0
  188.7430  179.0370  141.6340 O   0  0  0  0  0  1  0  0  0  0  0  0
  190.4280  176.7280  140.0360 C   0  0  2  0  0  3  0  0  0  0  0  0
  192.3230  177.7160  141.1100 N   0  0  0  0  0  0  0  0  0  0  0  0
  190.5020  177.1770  144.3160 C   0  0  0  0  0  2  0  0  0  0  0  0
  189.1530  177.8780  144.2470 C   0  0  2  0  0  3  0  0  0  0  0  0
  185.9950  178.5410  147.9480 N   0  0  0  0  0  1  0  0  0  0  0  0
  188.5260  177.8240  145.6090 C   0  0  0  0  0  0  0  0  0  0  0  0
  188.0780  177.3230  147.8030 C   0  0  0  0  0  3  0  0  0  0  0  0
  187.1530  178.0920  147.2570 C   0  0  0  0  0  0  0  0  0  0  0  0
  187.4150  178.4120  145.9020 N   0  0  0  0  0  0  0  0  0  0  0  0
  189.1040  177.0560  146.7520 C   0  0  0  0  0  2  0  0  0  0  0  0
  186.1090  176.7090  143.9310 O   0  0  0  0  0  0  0  0  0  0  0  0
  186.8070  177.4860  143.2960 C   0  0  0  0  0  0  0  0  0  0  0  0
  186.1850  178.7240  142.7120 C   0  0  1  0  0  3  0  0  0  0  0  0
  185.9440  178.5800  141.3420 O   0  0  0  0  0  1  0  0  0  0  0  0
  185.0000  179.8240  144.4600 O   0  0  0  0  0  0  0  0  0  0  0  0
  183.6650  178.6360  142.9670 N   0  0  0  0  0  2  0  0  0  0  0  0
  184.9300  179.1060  143.4270 C   0  0  0  0  0  0  0  0  0  0  0  0
  182.5230  178.9810  143.6060 O   0  0  0  0  0  1  0  0  0  0  0  0
  189.4550  177.2160  138.9530 C   0  0  0  0  0  2  0  0  0  0  0  0
  189.3960  176.2790  137.7540 C   0  0  0  0  0  2  0  0  0  0  0  0
  188.3590  176.7740  136.7570 C   0  0  0  0  0  2  0  0  0  0  0  0
  184.2530  175.0540  135.8460 C   0  0  2  0  0  0  0  0  0  0  0  0
  184.8130  176.5080  135.8620 C   0  0  2  0  0  0  0  0  0  0  0  0
  185.6650  174.5320  135.6420 C   0  0  0  0  0  2  0  0  0  0  0  0
  184.8760  177.3890  137.1160 C   0  0  2  0  0  3  0  0  0  0  0  0
  183.4270  174.7300  134.6070 C   0  0  0  0  0  1  0  0  0  0  0  0
  184.4260  177.2580  134.7480 O   0  0  0  0  0  1  0  0  0  0  0  0
  186.1080  177.0030  137.9090 C   0  0  0  0  0  2  0  0  0  0  0  0
  186.9720  176.1690  136.9760 C   0  0  1  0  0  3  0  0  0  0  0  0
  186.2160  175.9520  135.6680 C   0  0  2  0  0  3  0  0  0  0  0  0
  183.5640  178.7740  138.6960 C   0  0  0  0  0  2  0  0  0  0  0  0
  183.6150  177.4510  137.9620 C   0  0  0  0  0  3  0  0  0  0  0  0
  182.7150  178.5600  137.4630 C   0  0  0  0  0  2  0  0  0  0  0  0
  183.5950  174.4370  137.0960 C   0  0  2  0  0  3  0  0  0  0  0  0
  184.5470  173.8650  137.9430 O   0  0  0  0  0  1  0  0  0  0  0  0
  182.5550  173.4680  136.7830 N   0  0  0  0  0  2  0  0  0  0  0  0
  180.8630  174.8620  137.8800 C   0  0  0  0  0  2  0  0  0  0  0  0
  181.5810  173.5090  137.8630 C   0  0  1  0  0  3  0  0  0  0  0  0
  179.9850  175.0320  136.6400 C   0  0  2  0  0  3  0  0  0  0  0  0
  179.1360  176.5920  136.7240 Cl  0  0  0  0  0  0  0  0  0  0  0  0
  179.6850  172.5570  136.4890 C   0  0  0  0  0  2  0  0  0  0  0  0
  178.9670  173.9000  136.5590 C   0  0  0  0  0  2  0  0  0  0  0  0
  180.5760  172.3630  137.7160 C   0  0  0  0  0  2  0  0  0  0  0  0
  1 10  1  0  0  0  0
  2  7  1  1  0  0  0
  2  4  1  0  0  0  0
  3  1  2  0  0  0  0
  4 19  1  1  0  0  0
  4 11  1  0  0  0  0
  5  2  1  0  0  0  0
  5  3  1  0  0  0  0
  6  8  1  0  0  0  0
  6  9  2  0  0  0  0
  8 26  1  6  0  0  0
  8  5  1  0  0  0  0
  9  3  1  0  0  0  0
 11 10  1  0  0  0  0
 11 13  1  1  0  0  0
 13 16  2  0  0  0  0
 13 17  1  0  0  0  0
 15 14  2  0  0  0  0
 15 12  1  0  0  0  0
 16 15  1  0  0  0  0
 17 14  1  0  0  0  0
 19 18  2  0  0  0  0
 20 21  1  6  0  0  0
 20 19  1  0  0  0  0
 20 24  1  0  0  0  0
 23 24  1  0  0  0  0
 23 25  1  0  0  0  0
 24 22  2  0  0  0  0
 27 26  1  0  0  0  0
 28 27  1  0  0  0  0
 29 33  1  6  0  0  0
 29 30  1  0  0  0  0
 29 41  1  0  0  0  0
 30 34  1  6  0  0  0
 30 32  1  0  0  0  0
 31 29  1  0  0  0  0
 32 35  1  0  0  0  0
 32 39  1  1  0  0  0
 36 28  1  6  0  0  0
 36 35  1  0  0  0  0
 37 31  1  1  0  0  0
 37 30  1  0  0  0  0
 37 36  1  0  0  0  0
 39 38  1  0  0  0  0
 40 39  1  0  0  0  0
 40 38  1  0  0  0  0
 41 42  1  6  0  0  0
 43 41  1  0  0  0  0
 45 43  1  6  0  0  0
 45 44  1  0  0  0  0
 46 47  1  1  0  0  0
 46 44  1  0  0  0  0
 48 49  1  0  0  0  0
 48 50  1  0  0  0  0
 49 46  1  0  0  0  0
 50 45  1  0  0  0  0
M  END
>  <MODEL>
8

>  <REMARK>
 VINA RESULT:      -6.2      2.274      5.085
  Name = 
  12 active torsions:
  status: ('A' for Active; 'I' for Inactive)
    1  A    between atoms: C_3  and  C_10
    2  A    between atoms: C_3  and  N_48
    3  A    between atoms: C_5  and  C_50
    4  A    between atoms: C_13  and  N_48
    5  A    between atoms: C_14  and  C_16
    6  A    between atoms: C_16  and  C_44
    7  A    between atoms: C_20  and  C_23
    8  A    between atoms: C_28  and  C_44
    9  A    between atoms: C_31  and  C_38
   10  A    between atoms: C_31  and  C_49
   11  A    between atoms: C_38  and  C_43
   12  A    between atoms: C_39  and  C_49
                            x       y       z     vdW  Elec       q    Type
                         _______ _______ _______ _____ _____    ______ ____

>  <TORSDO>
F 12

$$$$
=
 OpenBabel11062414273D

 50 56  0  0  1  0  0  0  0  0999 V2000
  186.2390  178.0240  147.3090 N   0  0  0  0  0  0  0  0  0  0  0  0
  187.2610  177.7720  144.3820 C   0  0  2  0  0  3  0  0  0  0  0  0
  185.5790  178.2360  146.2120 C   0  0  0  0  0  0  0  0  0  0  0  0
  188.5750  177.9270  145.1480 C   0  0  1  0  0  3  0  0  0  0  0  0
  186.1780  178.5660  144.9660 N   0  0  0  0  0  0  0  0  0  0  0  0
  183.7910  178.9200  144.9250 C   0  0  0  0  0  3  0  0  0  0  0  0
  186.8870  176.4260  144.3020 O   0  0  0  0  0  1  0  0  0  0  0  0
  185.1090  179.1730  144.1640 C   0  0  2  0  0  3  0  0  0  0  0  0
  184.1760  178.3800  146.2190 N   0  0  0  0  0  0  0  0  0  0  0  0
  187.6810  178.1810  147.4700 C   0  0  0  0  0  2  0  0  0  0  0  0
  188.4890  177.2820  146.5460 C   0  0  2  0  0  3  0  0  0  0  0  0
  192.8310  175.2690  147.6450 N   0  0  0  0  0  1  0  0  0  0  0  0
  189.8320  177.0510  147.1740 C   0  0  0  0  0  0  0  0  0  0  0  0
  191.7620  177.3050  148.3900 C   0  0  0  0  0  3  0  0  0  0  0  0
  191.7530  176.1940  147.6750 C   0  0  0  0  0  0  0  0  0  0  0  0
  190.5670  176.0220  146.9180 N   0  0  0  0  0  0  0  0  0  0  0  0
  190.4690  178.0050  148.1300 C   0  0  0  0  0  2  0  0  0  0  0  0
  190.0290  176.2250  144.3730 O   0  0  0  0  0  0  0  0  0  0  0  0
  189.7080  177.4020  144.2970 C   0  0  0  0  0  0  0  0  0  0  0  0
  190.4170  178.2950  143.3170 C   0  0  1  0  0  3  0  0  0  0  0  0
  191.7710  178.4370  143.6360 O   0  0  0  0  0  1  0  0  0  0  0  0
  191.1880  177.1540  141.3740 O   0  0  0  0  0  0  0  0  0  0  0  0
  189.0830  178.1270  141.1680 N   0  0  0  0  0  2  0  0  0  0  0  0
  190.2590  177.8140  141.9110 C   0  0  0  0  0  0  0  0  0  0  0  0
  188.9290  177.6910  139.8960 O   0  0  0  0  0  1  0  0  0  0  0  0
  185.0380  178.6780  142.7120 C   0  0  0  0  0  2  0  0  0  0  0  0
  183.7950  179.1720  141.9850 C   0  0  0  0  0  2  0  0  0  0  0  0
  184.0640  179.2520  140.4890 C   0  0  0  0  0  2  0  0  0  0  0  0
  180.0130  177.6560  139.1930 C   0  0  2  0  0  0  0  0  0  0  0  0
  181.4380  177.0270  139.2270 C   0  0  2  0  0  0  0  0  0  0  0  0
  180.4440  178.6460  140.2610 C   0  0  0  0  0  2  0  0  0  0  0  0
  182.4650  177.1670  138.0960 C   0  0  2  0  0  3  0  0  0  0  0  0
  178.9310  176.7510  139.7710 C   0  0  0  0  0  1  0  0  0  0  0  0
  181.4550  175.7330  139.7540 O   0  0  0  0  0  1  0  0  0  0  0  0
  183.1530  178.5090  138.2400 C   0  0  0  0  0  2  0  0  0  0  0  0
  182.8200  179.0120  139.6360 C   0  0  1  0  0  3  0  0  0  0  0  0
  181.8420  178.0400  140.2880 C   0  0  2  0  0  3  0  0  0  0  0  0
  183.0190  176.1600  135.9020 C   0  0  0  0  0  2  0  0  0  0  0  0
  181.9590  176.9020  136.6880 C   0  0  0  0  0  3  0  0  0  0  0  0
  181.8290  175.4110  136.4600 C   0  0  0  0  0  2  0  0  0  0  0  0
  179.4850  178.3730  137.9340 C   0  0  2  0  0  3  0  0  0  0  0  0
  179.5260  177.5370  136.8160 O   0  0  0  0  0  1  0  0  0  0  0  0
  180.1720  179.6240  137.6510 N   0  0  0  0  0  2  0  0  0  0  0  0
  179.5730  181.9980  137.7850 C   0  0  0  0  0  2  0  0  0  0  0  0
  179.1600  180.6070  137.2950 C   0  0  1  0  0  3  0  0  0  0  0  0
  180.8000  182.5040  137.0270 C   0  0  2  0  0  3  0  0  0  0  0  0
  181.2170  184.1370  137.5930 Cl  0  0  0  0  0  0  0  0  0  0  0  0
  180.1540  181.1440  135.0350 C   0  0  0  0  0  2  0  0  0  0  0  0
  180.5140  182.5400  135.5300 C   0  0  0  0  0  2  0  0  0  0  0  0
  178.9310  180.6110  135.7820 C   0  0  0  0  0  2  0  0  0  0  0  0
  1 10  1  0  0  0  0
  2  7  1  1  0  0  0
  2  5  1  0  0  0  0
  2  4  1  0  0  0  0
  3  9  1  0  0  0  0
  3  1  2  0  0  0  0
  4 19  1  6  0  0  0
  4 11  1  0  0  0  0
  5  3  1  0  0  0  0
  6  9  2  0  0  0  0
  8 26  1  6  0  0  0
  8  6  1  0  0  0  0
  8  5  1  0  0  0  0
 11 13  1  1  0  0  0
 11 10  1  0  0  0  0
 12 15  1  0  0  0  0
 13 17  1  0  0  0  0
 15 14  2  0  0  0  0
 16 13  2  0  0  0  0
 16 15  1  0  0  0  0
 17 14  1  0  0  0  0
 19 18  2  0  0  0  0
 20 21  1  1  0  0  0
 20 19  1  0  0  0  0
 22 24  2  0  0  0  0
 23 24  1  0  0  0  0
 24 20  1  0  0  0  0
 25 23  1  0  0  0  0
 27 26  1  0  0  0  0
 28 27  1  0  0  0  0
 29 30  1  0  0  0  0
 29 33  1  1  0  0  0
 29 31  1  0  0  0  0
 30 34  1  1  0  0  0
 30 37  1  0  0  0  0
 32 39  1  6  0  0  0
 32 35  1  0  0  0  0
 32 30  1  0  0  0  0
 35 36  1  0  0  0  0
 36 37  1  0  0  0  0
 36 28  1  1  0  0  0
 37 31  1  6  0  0  0
 38 40  1  0  0  0  0
 38 39  1  0  0  0  0
 40 39  1  0  0  0  0
 41 42  1  6  0  0  0
 41 29  1  0  0  0  0
 43 41  1  0  0  0  0
 45 43  1  6  0  0  0
 45 44  1  0  0  0  0
 46 47  1  1  0  0  0
 46 44  1  0  0  0  0
 48 49  1  0  0  0  0
 48 50  1  0  0  0  0
 49 46  1  0  0  0  0
 50 45  1  0  0  0  0
M  END
>  <MODEL>
9

>  <REMARK>
 VINA RESULT:      -6.1      3.146      4.950
  Name = 
  12 active torsions:
  status: ('A' for Active; 'I' for Inactive)
    1  A    between atoms: C_3  and  C_10
    2  A    between atoms: C_3  and  N_48
    3  A    between atoms: C_5  and  C_50
    4  A    between atoms: C_13  and  N_48
    5  A    between atoms: C_14  and  C_16
    6  A    between atoms: C_16  and  C_44
    7  A    between atoms: C_20  and  C_23
    8  A    between atoms: C_28  and  C_44
    9  A    between atoms: C_31  and  C_38
   10  A    between atoms: C_31  and  C_49
   11  A    between atoms: C_38  and  C_43
   12  A    between atoms: C_39  and  C_49
                            x       y       z     vdW  Elec       q    Type
                         _______ _______ _______ _____ _____    ______ ____

>  <TORSDO>
F 12

$$$$
