=
 OpenBabel11062415563D

 41 45  0  0  1  0  0  0  0  0999 V2000
  182.3160  178.6340  143.8960 O   0  0  0  0  0  0  0  0  0  0  0  0
  185.0090  178.6630  140.1970 N   0  0  0  0  0  2  0  0  0  0  0  0
  184.2630  178.6430  142.9220 C   0  0  0  0  0  0  0  0  0  0  0  0
  182.0800  178.6420  142.5990 C   0  0  0  0  0  3  0  0  0  0  0  0
  183.6120  178.6420  144.1370 C   0  0  0  0  0  3  0  0  0  0  0  0
  183.5840  178.7970  140.5010 C   0  0  2  0  0  3  0  0  0  0  0  0
  186.0440  178.7900  141.1860 C   0  0  0  0  0  0  0  0  0  0  0  0
  183.2980  178.6190  141.9550 C   0  0  0  0  0  0  0  0  0  0  0  0
  185.7390  178.7190  142.6680 C   0  0  2  0  0  3  0  0  0  0  0  0
  187.2350  178.9410  140.8070 O   0  0  0  0  0  0  0  0  0  0  0  0
  180.8920  179.1450  138.1310 C   0  0  1  0  0  3  0  0  0  0  0  0
  180.4840  177.0230  139.1600 O   0  0  0  0  0  0  0  0  0  0  0  0
  180.4400  179.5070  139.5410 C   0  0  2  0  0  0  0  0  0  0  0  0
  181.0620  175.9030  138.5420 C   0  0  0  0  0  0  0  0  0  0  0  0
  182.4070  175.8000  138.4850 C   0  0  0  0  0  0  0  0  0  0  0  0
  181.6610  181.3860  138.6120 C   0  0  0  0  0  2  0  0  0  0  0  0
  183.2380  176.8430  139.1220 C   0  0  0  0  0  3  0  0  0  0  0  0
  178.9310  179.4080  139.6680 C   0  0  0  0  0  1  0  0  0  0  0  0
  182.7190  177.9900  139.5700 C   0  0  0  0  0  0  0  0  0  0  0  0
  181.0940  180.8310  139.8960 C   0  0  0  0  0  2  0  0  0  0  0  0
  181.9450  180.1750  137.7560 C   0  0  0  0  0  2  0  0  0  0  0  0
  181.2350  178.2240  139.3090 C   0  0  2  0  0  0  0  0  0  0  0  0
  183.1020  174.6650  137.8490 C   0  0  0  0  0  3  0  0  0  0  0  0
  183.4980  174.6220  136.5740 C   0  0  0  0  0  3  0  0  0  0  0  0
  183.2260  175.6790  135.6580 N   0  0  0  0  0  2  0  0  0  0  0  0
  182.0530  175.6190  134.8080 C   0  0  0  0  0  1  0  0  0  0  0  0
  180.2430  174.9230  137.9750 O   0  0  0  0  0  0  0  0  0  0  0  0
  179.6610  173.8860  138.7540 C   0  0  0  0  0  2  0  0  0  0  0  0
  180.7380  171.9580  137.8690 O   0  0  0  0  0  1  0  0  0  0  0  0
  179.5140  172.6260  137.9210 C   0  0  0  0  0  2  0  0  0  0  0  0
  186.4210  177.5080  143.2980 C   0  0  0  0  0  2  0  0  0  0  0  0
  187.6810  177.9100  144.0570 C   0  0  2  0  0  3  0  0  0  0  0  0
  188.8910  177.2790  143.4470 C   0  0  0  0  0  0  0  0  0  0  0  0
  188.8870  176.0410  143.2100 O   0  0  0  0  0  0  0  0  0  0  0  0
  190.0360  178.0730  143.1260 N   0  0  0  0  0  2  0  0  0  0  0  0
  191.2300  177.4970  142.5300 C   0  0  0  0  0  1  0  0  0  0  0  0
  187.5790  177.5840  145.5150 C   0  0  0  0  0  0  0  0  0  0  0  0
  188.7700  177.3140  146.2520 N   0  0  0  0  0  2  0  0  0  0  0  0
  186.4520  177.5480  146.0830 O   0  0  0  0  0  0  0  0  0  0  0  0
  188.9410  178.2590  148.4750 C   0  0  0  0  0  1  0  0  0  0  0  0
  188.7410  176.9930  147.6690 C   0  0  0  0  0  2  0  0  0  0  0  0
  1  5  1  0  0  0  0
  2  6  1  0  0  0  0
  2  7  1  0  0  0  0
  3  5  2  0  0  0  0
  4  1  1  0  0  0  0
  6 19  1  6  0  0  0
  6  8  1  0  0  0  0
  7  9  1  0  0  0  0
  8  4  2  0  0  0  0
  8  3  1  0  0  0  0
  9  3  1  0  0  0  0
  9 31  1  6  0  0  0
 10  7  2  0  0  0  0
 11 21  1  1  0  0  0
 11 22  1  0  0  0  0
 11 13  1  0  0  0  0
 13 18  1  1  0  0  0
 13 20  1  0  0  0  0
 14 12  1  0  0  0  0
 15 14  2  0  0  0  0
 15 17  1  0  0  0  0
 16 20  1  0  0  0  0
 17 19  2  0  0  0  0
 21 16  1  0  0  0  0
 22 12  1  1  0  0  0
 22 13  1  0  0  0  0
 22 19  1  0  0  0  0
 23 15  1  0  0  0  0
 24 23  2  0  0  0  0
 25 24  1  0  0  0  0
 26 25  1  0  0  0  0
 27 14  1  0  0  0  0
 27 28  1  0  0  0  0
 29 30  1  0  0  0  0
 30 28  1  0  0  0  0
 32 31  1  6  0  0  0
 32 37  1  0  0  0  0
 33 32  1  0  0  0  0
 34 33  2  0  0  0  0
 35 33  1  0  0  0  0
 36 35  1  0  0  0  0
 37 39  2  0  0  0  0
 37 38  1  0  0  0  0
 38 41  1  0  0  0  0
 41 40  1  0  0  0  0
M  END
>  <MODEL>
1

>  <REMARK>
 VINA RESULT:      -7.0      0.000      0.000
  Name = 
  11 active torsions:
  status: ('A' for Active; 'I' for Inactive)
    1  A    between atoms: C_2  and  C_25
    2  A    between atoms: C_5  and  C_12
    3  A    between atoms: N_10  and  C_22
    4  A    between atoms: C_12  and  O_16
    5  A    between atoms: C_13  and  O_16
    6  A    between atoms: C_14  and  C_18
    7  A    between atoms: C_17  and  C_25
    8  A    between atoms: C_17  and  C_40
    9  A    between atoms: C_20  and  C_25
   10  A    between atoms: C_21  and  N_30
   11  A    between atoms: C_28  and  C_33
                            x       y       z     vdW  Elec       q    Type
                         _______ _______ _______ _____ _____    ______ ____

>  <TORSDO>
F 11

$$$$
=
 OpenBabel11062415563D

 41 45  0  0  1  0  0  0  0  0999 V2000
  184.2220  178.4200  143.3340 O   0  0  0  0  0  0  0  0  0  0  0  0
  185.4930  178.4090  138.9390 N   0  0  0  0  0  2  0  0  0  0  0  0
  185.7190  178.4670  141.7550 C   0  0  0  0  0  0  0  0  0  0  0  0
  183.5590  178.3680  142.1960 C   0  0  0  0  0  3  0  0  0  0  0  0
  185.5200  178.4880  143.1190 C   0  0  0  0  0  3  0  0  0  0  0  0
  184.2510  178.4980  139.7080 C   0  0  2  0  0  3  0  0  0  0  0  0
  186.7950  178.6150  139.5120 C   0  0  0  0  0  0  0  0  0  0  0  0
  184.4850  178.3670  141.1760 C   0  0  0  0  0  0  0  0  0  0  0  0
  187.0150  178.5910  141.0110 C   0  0  2  0  0  3  0  0  0  0  0  0
  187.7770  178.7980  138.7470 O   0  0  0  0  0  0  0  0  0  0  0  0
  180.9240  178.6550  138.3340 C   0  0  1  0  0  3  0  0  0  0  0  0
  180.9570  176.5830  139.5330 O   0  0  0  0  0  0  0  0  0  0  0  0
  180.9400  179.0830  139.7980 C   0  0  2  0  0  0  0  0  0  0  0  0
  181.3460  175.4450  138.8100 C   0  0  0  0  0  0  0  0  0  0  0  0
  182.6020  175.3690  138.3210 C   0  0  0  0  0  0  0  0  0  0  0  0
  181.7180  180.9350  138.4390 C   0  0  0  0  0  2  0  0  0  0  0  0
  183.5540  176.4650  138.6050 C   0  0  0  0  0  3  0  0  0  0  0  0
  179.5590  178.9550  140.4150 C   0  0  0  0  0  1  0  0  0  0  0  0
  183.1630  177.6230  139.1470 C   0  0  0  0  0  0  0  0  0  0  0  0
  181.6210  180.4380  139.8610 C   0  0  0  0  0  2  0  0  0  0  0  0
  181.7550  179.6870  137.5910 C   0  0  0  0  0  2  0  0  0  0  0  0
  181.6670  177.8070  139.3750 C   0  0  2  0  0  0  0  0  0  0  0  0
  183.0970  174.2180  137.5440 C   0  0  0  0  0  3  0  0  0  0  0  0
  183.2260  174.1850  136.2150 C   0  0  0  0  0  3  0  0  0  0  0  0
  182.8280  175.2740  135.3860 N   0  0  0  0  0  2  0  0  0  0  0  0
  183.8180  175.9900  134.6040 C   0  0  0  0  0  1  0  0  0  0  0  0
  180.4270  174.4160  138.5850 O   0  0  0  0  0  0  0  0  0  0  0  0
  179.6350  174.3580  137.4060 C   0  0  0  0  0  2  0  0  0  0  0  0
  179.3580  176.2300  135.9650 O   0  0  0  0  0  1  0  0  0  0  0  0
  178.9380  175.6870  137.1790 C   0  0  0  0  0  2  0  0  0  0  0  0
  187.9300  177.4340  141.3990 C   0  0  0  0  0  2  0  0  0  0  0  0
  189.1230  177.9160  142.2190 C   0  0  2  0  0  3  0  0  0  0  0  0
  190.4060  177.6210  141.5130 C   0  0  0  0  0  0  0  0  0  0  0  0
  191.4940  177.7350  142.1380 O   0  0  0  0  0  0  0  0  0  0  0  0
  190.3990  177.2050  140.1450 N   0  0  0  0  0  2  0  0  0  0  0  0
  191.6260  176.9080  139.4240 C   0  0  0  0  0  1  0  0  0  0  0  0
  189.1190  177.3340  143.5990 C   0  0  0  0  0  0  0  0  0  0  0  0
  189.1900  178.2100  144.7230 N   0  0  0  0  0  2  0  0  0  0  0  0
  189.0550  176.0840  143.7640 O   0  0  0  0  0  0  0  0  0  0  0  0
  187.7640  177.6280  146.5920 C   0  0  0  0  0  1  0  0  0  0  0  0
  189.1890  177.7100  146.0880 C   0  0  0  0  0  2  0  0  0  0  0  0
  2  7  1  0  0  0  0
  2  6  1  0  0  0  0
  3  5  2  0  0  0  0
  4  1  1  0  0  0  0
  5  1  1  0  0  0  0
  6 19  1  6  0  0  0
  6  8  1  0  0  0  0
  7  9  1  0  0  0  0
  8  3  1  0  0  0  0
  8  4  2  0  0  0  0
  9 31  1  6  0  0  0
  9  3  1  0  0  0  0
 10  7  2  0  0  0  0
 11 21  1  6  0  0  0
 11 22  1  0  0  0  0
 11 13  1  0  0  0  0
 13 20  1  0  0  0  0
 13 18  1  1  0  0  0
 14 12  1  0  0  0  0
 15 17  1  0  0  0  0
 15 14  2  0  0  0  0
 16 20  1  0  0  0  0
 17 19  2  0  0  0  0
 21 16  1  0  0  0  0
 22 19  1  6  0  0  0
 22 12  1  0  0  0  0
 22 13  1  0  0  0  0
 23 15  1  0  0  0  0
 24 23  2  0  0  0  0
 25 24  1  0  0  0  0
 26 25  1  0  0  0  0
 27 14  1  0  0  0  0
 28 27  1  0  0  0  0
 29 30  1  0  0  0  0
 30 28  1  0  0  0  0
 32 31  1  6  0  0  0
 32 37  1  0  0  0  0
 33 34  2  0  0  0  0
 33 32  1  0  0  0  0
 35 33  1  0  0  0  0
 36 35  1  0  0  0  0
 37 39  2  0  0  0  0
 37 38  1  0  0  0  0
 38 41  1  0  0  0  0
 41 40  1  0  0  0  0
M  END
>  <MODEL>
2

>  <REMARK>
 VINA RESULT:      -5.9      1.491      1.970
  Name = 
  11 active torsions:
  status: ('A' for Active; 'I' for Inactive)
    1  A    between atoms: C_2  and  C_25
    2  A    between atoms: C_5  and  C_12
    3  A    between atoms: N_10  and  C_22
    4  A    between atoms: C_12  and  O_16
    5  A    between atoms: C_13  and  O_16
    6  A    between atoms: C_14  and  C_18
    7  A    between atoms: C_17  and  C_25
    8  A    between atoms: C_17  and  C_40
    9  A    between atoms: C_20  and  C_25
   10  A    between atoms: C_21  and  N_30
   11  A    between atoms: C_28  and  C_33
                            x       y       z     vdW  Elec       q    Type
                         _______ _______ _______ _____ _____    ______ ____

>  <TORSDO>
F 11

$$$$
=
 OpenBabel11062415563D

 41 45  0  0  1  0  0  0  0  0999 V2000
  186.8170  178.9290  139.8690 O   0  0  0  0  0  0  0  0  0  0  0  0
  184.7290  178.4770  143.9150 N   0  0  0  0  0  2  0  0  0  0  0  0
  185.0470  178.7030  141.1170 C   0  0  0  0  0  0  0  0  0  0  0  0
  187.2480  178.8720  141.1140 C   0  0  0  0  0  3  0  0  0  0  0  0
  185.5020  178.8400  139.8240 C   0  0  0  0  0  3  0  0  0  0  0  0
  186.0760  178.7540  143.4170 C   0  0  2  0  0  3  0  0  0  0  0  0
  183.5480  178.5780  143.1030 C   0  0  0  0  0  0  0  0  0  0  0  0
  186.1480  178.7000  141.9260 C   0  0  0  0  0  0  0  0  0  0  0  0
  183.6260  178.6330  141.5910 C   0  0  2  0  0  3  0  0  0  0  0  0
  182.4210  178.5990  143.6640 O   0  0  0  0  0  0  0  0  0  0  0  0
  186.8190  177.3230  146.6390 C   0  0  1  0  0  3  0  0  0  0  0  0
  188.9550  178.0200  145.8100 O   0  0  0  0  0  0  0  0  0  0  0  0
  186.7570  178.8460  146.7090 C   0  0  2  0  0  0  0  0  0  0  0  0
  189.6810  177.0720  145.0730 C   0  0  0  0  0  0  0  0  0  0  0  0
  189.1880  176.6290  143.8970 C   0  0  0  0  0  0  0  0  0  0  0  0
  184.4920  177.9750  146.7110 C   0  0  0  0  0  2  0  0  0  0  0  0
  187.9190  177.1910  143.3890 C   0  0  0  0  0  3  0  0  0  0  0  0
  187.5080  179.3630  147.9220 C   0  0  0  0  0  1  0  0  0  0  0  0
  187.1330  177.9670  144.1430 C   0  0  0  0  0  0  0  0  0  0  0  0
  185.2990  179.2420  146.5570 C   0  0  0  0  0  2  0  0  0  0  0  0
  185.4180  176.8680  146.2680 C   0  0  0  0  0  2  0  0  0  0  0  0
  187.5550  178.1730  145.5940 C   0  0  2  0  0  0  0  0  0  0  0  0
  189.8770  175.6300  143.0590 C   0  0  0  0  0  3  0  0  0  0  0  0
  190.7470  175.9110  142.0850 C   0  0  0  0  0  3  0  0  0  0  0  0
  191.0590  177.2490  141.7090 N   0  0  0  0  0  2  0  0  0  0  0  0
  191.8970  177.5010  140.5520 C   0  0  0  0  0  1  0  0  0  0  0  0
  190.8920  176.5840  145.5720 O   0  0  0  0  0  0  0  0  0  0  0  0
  191.2280  176.6700  146.9500 C   0  0  0  0  0  2  0  0  0  0  0  0
  193.0120  176.0860  148.4100 O   0  0  0  0  0  1  0  0  0  0  0  0
  192.2990  175.6510  147.2930 C   0  0  0  0  0  2  0  0  0  0  0  0
  182.9510  177.4120  140.9750 C   0  0  0  0  0  2  0  0  0  0  0  0
  181.5030  177.7080  140.5950 C   0  0  2  0  0  3  0  0  0  0  0  0
  180.9980  176.7030  139.6110 C   0  0  0  0  0  0  0  0  0  0  0  0
  179.7600  176.6280  139.3870 O   0  0  0  0  0  0  0  0  0  0  0  0
  181.9100  175.8440  138.9220 N   0  0  0  0  0  2  0  0  0  0  0  0
  181.4580  174.8560  137.9560 C   0  0  0  0  0  1  0  0  0  0  0  0
  181.3390  179.1020  140.0770 C   0  0  0  0  0  0  0  0  0  0  0  0
  181.9890  179.4730  138.8620 N   0  0  0  0  0  2  0  0  0  0  0  0
  180.6360  179.9390  140.7080 O   0  0  0  0  0  0  0  0  0  0  0  0
  180.8350  180.8020  137.1970 C   0  0  0  0  0  1  0  0  0  0  0  0
  181.8680  180.8100  138.3030 C   0  0  0  0  0  2  0  0  0  0  0  0
  1  4  1  0  0  0  0
  3  9  1  0  0  0  0
  3  8  1  0  0  0  0
  4  8  2  0  0  0  0
  5  1  1  0  0  0  0
  5  3  2  0  0  0  0
  6  2  1  0  0  0  0
  6 19  1  1  0  0  0
  7 10  2  0  0  0  0
  7  2  1  0  0  0  0
  8  6  1  0  0  0  0
  9 31  1  6  0  0  0
  9  7  1  0  0  0  0
 11 21  1  6  0  0  0
 11 13  1  0  0  0  0
 13 18  1  1  0  0  0
 14 27  1  0  0  0  0
 14 12  1  0  0  0  0
 15 14  2  0  0  0  0
 17 15  1  0  0  0  0
 17 19  2  0  0  0  0
 20 13  1  0  0  0  0
 20 16  1  0  0  0  0
 21 16  1  0  0  0  0
 22 19  1  6  0  0  0
 22 12  1  0  0  0  0
 22 11  1  0  0  0  0
 22 13  1  0  0  0  0
 23 15  1  0  0  0  0
 24 23  2  0  0  0  0
 25 24  1  0  0  0  0
 26 25  1  0  0  0  0
 27 28  1  0  0  0  0
 28 30  1  0  0  0  0
 30 29  1  0  0  0  0
 32 31  1  6  0  0  0
 33 32  1  0  0  0  0
 34 33  2  0  0  0  0
 35 33  1  0  0  0  0
 36 35  1  0  0  0  0
 37 32  1  0  0  0  0
 37 39  2  0  0  0  0
 38 37  1  0  0  0  0
 40 41  1  0  0  0  0
 41 38  1  0  0  0  0
M  END
>  <MODEL>
3

>  <REMARK>
 VINA RESULT:      -5.2      2.225      9.369
  Name = 
  11 active torsions:
  status: ('A' for Active; 'I' for Inactive)
    1  A    between atoms: C_2  and  C_25
    2  A    between atoms: C_5  and  C_12
    3  A    between atoms: N_10  and  C_22
    4  A    between atoms: C_12  and  O_16
    5  A    between atoms: C_13  and  O_16
    6  A    between atoms: C_14  and  C_18
    7  A    between atoms: C_17  and  C_25
    8  A    between atoms: C_17  and  C_40
    9  A    between atoms: C_20  and  C_25
   10  A    between atoms: C_21  and  N_30
   11  A    between atoms: C_28  and  C_33
                            x       y       z     vdW  Elec       q    Type
                         _______ _______ _______ _____ _____    ______ ____

>  <TORSDO>
F 11

$$$$
=
 OpenBabel11062415563D

 41 45  0  0  1  0  0  0  0  0999 V2000
  181.8350  177.6340  135.7140 O   0  0  0  0  0  0  0  0  0  0  0  0
  185.2260  178.1080  138.7490 N   0  0  0  0  0  2  0  0  0  0  0  0
  182.6440  178.3070  137.6200 C   0  0  0  0  0  0  0  0  0  0  0  0
  183.1040  177.2770  135.7230 C   0  0  0  0  0  3  0  0  0  0  0  0
  181.5170  178.2620  136.8280 C   0  0  0  0  0  3  0  0  0  0  0  0
  185.0650  177.6550  137.3660 C   0  0  2  0  0  3  0  0  0  0  0  0
  184.2350  178.8750  139.4520 C   0  0  0  0  0  0  0  0  0  0  0  0
  183.6360  177.6660  136.9330 C   0  0  0  0  0  0  0  0  0  0  0  0
  182.8080  178.9750  138.9520 C   0  0  2  0  0  3  0  0  0  0  0  0
  184.5580  179.4570  140.5200 O   0  0  0  0  0  0  0  0  0  0  0  0
  188.4070  176.3820  136.9270 C   0  0  1  0  0  3  0  0  0  0  0  0
  187.0850  175.0660  135.4260 O   0  0  0  0  0  0  0  0  0  0  0  0
  188.0360  177.3600  135.8180 C   0  0  2  0  0  0  0  0  0  0  0  0
  186.5550  173.8720  135.9390 C   0  0  0  0  0  0  0  0  0  0  0  0
  185.6540  173.9270  136.9430 C   0  0  0  0  0  0  0  0  0  0  0  0
  188.6490  178.6260  137.7940 C   0  0  0  0  0  2  0  0  0  0  0  0
  185.2090  175.2450  137.4430 C   0  0  0  0  0  3  0  0  0  0  0  0
  188.9090  177.1490  134.5940 C   0  0  0  0  0  1  0  0  0  0  0  0
  185.8160  176.3810  137.0860 C   0  0  0  0  0  0  0  0  0  0  0  0
  188.0040  178.7480  136.4340 C   0  0  0  0  0  2  0  0  0  0  0  0
  188.4110  177.1940  138.2110 C   0  0  0  0  0  2  0  0  0  0  0  0
  187.0560  176.2550  136.2100 C   0  0  2  0  0  0  0  0  0  0  0  0
  185.0480  172.7260  137.5490 C   0  0  0  0  0  3  0  0  0  0  0  0
  183.9100  172.1530  137.1490 C   0  0  0  0  0  3  0  0  0  0  0  0
  183.1120  172.6970  136.1020 N   0  0  0  0  0  2  0  0  0  0  0  0
  182.7910  171.8910  134.9400 C   0  0  0  0  0  1  0  0  0  0  0  0
  186.9780  172.6450  135.4220 O   0  0  0  0  0  0  0  0  0  0  0  0
  188.2760  172.1260  135.6830 C   0  0  0  0  0  2  0  0  0  0  0  0
  189.9010  173.3670  136.8970 O   0  0  0  0  0  1  0  0  0  0  0  0
  188.7570  172.5830  137.0470 C   0  0  0  0  0  2  0  0  0  0  0  0
  181.8440  178.3440  139.9520 C   0  0  0  0  0  2  0  0  0  0  0  0
  181.0260  179.4040  140.6830 C   0  0  2  0  0  3  0  0  0  0  0  0
  180.2770  178.8000  141.8260 C   0  0  0  0  0  0  0  0  0  0  0  0
  179.8600  177.6140  141.7320 O   0  0  0  0  0  0  0  0  0  0  0  0
  180.0450  179.5550  143.0180 N   0  0  0  0  0  2  0  0  0  0  0  0
  179.3230  179.0020  144.1520 C   0  0  0  0  0  1  0  0  0  0  0  0
  180.1020  180.1290  139.7550 C   0  0  0  0  0  0  0  0  0  0  0  0
  180.2770  181.5310  139.5560 N   0  0  0  0  0  2  0  0  0  0  0  0
  179.1800  179.5080  139.1580 O   0  0  0  0  0  0  0  0  0  0  0  0
  180.1640  182.6050  137.3880 C   0  0  0  0  0  1  0  0  0  0  0  0
  179.4170  182.2950  138.6670 C   0  0  0  0  0  2  0  0  0  0  0  0
  1  4  1  0  0  0  0
  1  5  1  0  0  0  0
  2  7  1  0  0  0  0
  3  9  1  0  0  0  0
  4  8  2  0  0  0  0
  5  3  2  0  0  0  0
  6 19  1  1  0  0  0
  6  2  1  0  0  0  0
  7 10  2  0  0  0  0
  8  6  1  0  0  0  0
  8  3  1  0  0  0  0
  9  7  1  0  0  0  0
  9 31  1  1  0  0  0
 11 21  1  1  0  0  0
 12 14  1  0  0  0  0
 13 18  1  6  0  0  0
 13 22  1  0  0  0  0
 13 20  1  0  0  0  0
 13 11  1  0  0  0  0
 14 15  2  0  0  0  0
 15 17  1  0  0  0  0
 15 23  1  0  0  0  0
 16 21  1  0  0  0  0
 19 17  2  0  0  0  0
 20 16  1  0  0  0  0
 22 12  1  6  0  0  0
 22 11  1  0  0  0  0
 22 19  1  0  0  0  0
 24 23  2  0  0  0  0
 25 24  1  0  0  0  0
 26 25  1  0  0  0  0
 27 28  1  0  0  0  0
 27 14  1  0  0  0  0
 28 30  1  0  0  0  0
 29 30  1  0  0  0  0
 32 31  1  6  0  0  0
 32 33  1  0  0  0  0
 33 35  1  0  0  0  0
 34 33  2  0  0  0  0
 35 36  1  0  0  0  0
 37 32  1  0  0  0  0
 38 37  1  0  0  0  0
 39 37  2  0  0  0  0
 40 41  1  0  0  0  0
 41 38  1  0  0  0  0
M  END
>  <MODEL>
4

>  <REMARK>
 VINA RESULT:      -5.1      4.379      7.860
  Name = 
  11 active torsions:
  status: ('A' for Active; 'I' for Inactive)
    1  A    between atoms: C_2  and  C_25
    2  A    between atoms: C_5  and  C_12
    3  A    between atoms: N_10  and  C_22
    4  A    between atoms: C_12  and  O_16
    5  A    between atoms: C_13  and  O_16
    6  A    between atoms: C_14  and  C_18
    7  A    between atoms: C_17  and  C_25
    8  A    between atoms: C_17  and  C_40
    9  A    between atoms: C_20  and  C_25
   10  A    between atoms: C_21  and  N_30
   11  A    between atoms: C_28  and  C_33
                            x       y       z     vdW  Elec       q    Type
                         _______ _______ _______ _____ _____    ______ ____

>  <TORSDO>
F 11

$$$$
=
 OpenBabel11062415563D

 41 45  0  0  1  0  0  0  0  0999 V2000
  185.7760  178.8460  139.9850 O   0  0  0  0  0  0  0  0  0  0  0  0
  189.5360  176.6050  138.6540 N   0  0  0  0  0  2  0  0  0  0  0  0
  187.7870  178.0780  140.3130 C   0  0  0  0  0  0  0  0  0  0  0  0
  186.1210  178.2290  138.8730 C   0  0  0  0  0  3  0  0  0  0  0  0
  186.7470  178.7870  140.8750 C   0  0  0  0  0  3  0  0  0  0  0  0
  188.2880  177.0790  138.0550 C   0  0  2  0  0  3  0  0  0  0  0  0
  190.0290  177.0640  139.9240 C   0  0  0  0  0  0  0  0  0  0  0  0
  187.3820  177.7070  139.0610 C   0  0  0  0  0  0  0  0  0  0  0  0
  189.1370  177.8000  140.9030 C   0  0  2  0  0  3  0  0  0  0  0  0
  191.2250  176.8270  140.2360 O   0  0  0  0  0  0  0  0  0  0  0  0
  187.2360  176.5430  134.6510 C   0  0  1  0  0  3  0  0  0  0  0  0
  185.6120  175.3580  135.9500 O   0  0  0  0  0  0  0  0  0  0  0  0
  186.4250  177.6500  135.3140 C   0  0  2  0  0  0  0  0  0  0  0  0
  185.8860  174.0080  136.2190 C   0  0  0  0  0  0  0  0  0  0  0  0
  186.9610  173.6880  136.9710 C   0  0  0  0  0  0  0  0  0  0  0  0
  188.5680  178.5600  134.6350 C   0  0  0  0  0  2  0  0  0  0  0  0
  187.7930  174.7710  137.5380 C   0  0  0  0  0  3  0  0  0  0  0  0
  185.1050  177.8600  134.5950 C   0  0  0  0  0  1  0  0  0  0  0  0
  187.6490  176.0470  137.1650 C   0  0  0  0  0  0  0  0  0  0  0  0
  187.3440  178.8490  135.4710 C   0  0  0  0  0  2  0  0  0  0  0  0
  188.6660  177.0540  134.5940 C   0  0  0  0  0  2  0  0  0  0  0  0
  186.6470  176.3310  136.0520 C   0  0  2  0  0  0  0  0  0  0  0  0
  187.3310  172.2990  137.2990 C   0  0  0  0  0  3  0  0  0  0  0  0
  188.0110  171.4750  136.4970 C   0  0  0  0  0  3  0  0  0  0  0  0
  188.4060  171.8500  135.1800 N   0  0  0  0  0  2  0  0  0  0  0  0
  189.7760  172.2490  134.9200 C   0  0  0  0  0  1  0  0  0  0  0  0
  185.0610  173.0120  135.6890 O   0  0  0  0  0  0  0  0  0  0  0  0
  183.6590  173.1960  135.5420 C   0  0  0  0  0  2  0  0  0  0  0  0
  183.6660  171.4790  137.1880 O   0  0  0  0  0  1  0  0  0  0  0  0
  182.9230  172.5560  136.7050 C   0  0  0  0  0  2  0  0  0  0  0  0
  188.9680  176.9920  142.1860 C   0  0  0  0  0  2  0  0  0  0  0  0
  188.8100  177.9000  143.4010 C   0  0  2  0  0  3  0  0  0  0  0  0
  190.0590  177.9130  144.2200 C   0  0  0  0  0  0  0  0  0  0  0  0
  190.7300  178.9760  144.3050 O   0  0  0  0  0  0  0  0  0  0  0  0
  190.4830  176.7340  144.9090 N   0  0  0  0  0  2  0  0  0  0  0  0
  191.6910  176.7070  145.7180 C   0  0  0  0  0  1  0  0  0  0  0  0
  187.6230  177.5170  144.2290 C   0  0  0  0  0  0  0  0  0  0  0  0
  187.1610  178.4140  145.2380 N   0  0  0  0  0  2  0  0  0  0  0  0
  187.0410  176.4130  144.0380 O   0  0  0  0  0  0  0  0  0  0  0  0
  184.7700  178.7190  145.4720 C   0  0  0  0  0  1  0  0  0  0  0  0
  186.0140  178.1030  146.0750 C   0  0  0  0  0  2  0  0  0  0  0  0
  1  5  1  0  0  0  0
  2  7  1  0  0  0  0
  3  5  2  0  0  0  0
  3  9  1  0  0  0  0
  4  8  2  0  0  0  0
  4  1  1  0  0  0  0
  6 19  1  1  0  0  0
  6  2  1  0  0  0  0
  6  8  1  0  0  0  0
  7 10  2  0  0  0  0
  7  9  1  0  0  0  0
  8  3  1  0  0  0  0
  9 31  1  1  0  0  0
 11 21  1  1  0  0  0
 11 13  1  0  0  0  0
 11 22  1  0  0  0  0
 12 14  1  0  0  0  0
 13 18  1  6  0  0  0
 13 20  1  0  0  0  0
 13 22  1  0  0  0  0
 14 15  2  0  0  0  0
 15 23  1  0  0  0  0
 15 17  1  0  0  0  0
 16 20  1  0  0  0  0
 19 17  2  0  0  0  0
 21 16  1  0  0  0  0
 22 12  1  1  0  0  0
 22 19  1  0  0  0  0
 24 23  2  0  0  0  0
 25 24  1  0  0  0  0
 26 25  1  0  0  0  0
 27 14  1  0  0  0  0
 28 27  1  0  0  0  0
 28 30  1  0  0  0  0
 30 29  1  0  0  0  0
 32 31  1  6  0  0  0
 32 33  1  0  0  0  0
 32 37  1  0  0  0  0
 33 34  2  0  0  0  0
 33 35  1  0  0  0  0
 35 36  1  0  0  0  0
 37 38  1  0  0  0  0
 38 41  1  0  0  0  0
 39 37  2  0  0  0  0
 40 41  1  0  0  0  0
M  END
>  <MODEL>
5

>  <REMARK>
 VINA RESULT:      -5.1      3.826      5.327
  Name = 
  11 active torsions:
  status: ('A' for Active; 'I' for Inactive)
    1  A    between atoms: C_2  and  C_25
    2  A    between atoms: C_5  and  C_12
    3  A    between atoms: N_10  and  C_22
    4  A    between atoms: C_12  and  O_16
    5  A    between atoms: C_13  and  O_16
    6  A    between atoms: C_14  and  C_18
    7  A    between atoms: C_17  and  C_25
    8  A    between atoms: C_17  and  C_40
    9  A    between atoms: C_20  and  C_25
   10  A    between atoms: C_21  and  N_30
   11  A    between atoms: C_28  and  C_33
                            x       y       z     vdW  Elec       q    Type
                         _______ _______ _______ _____ _____    ______ ____

>  <TORSDO>
F 11

$$$$
=
 OpenBabel11062415563D

 41 45  0  0  1  0  0  0  0  0999 V2000
  186.7610  172.3840  137.4920 O   0  0  0  0  0  0  0  0  0  0  0  0
  186.1160  176.8590  136.7960 N   0  0  0  0  0  2  0  0  0  0  0  0
  185.5040  174.1190  137.1040 C   0  0  0  0  0  0  0  0  0  0  0  0
  187.5710  173.4230  137.4430 C   0  0  0  0  0  3  0  0  0  0  0  0
  185.5130  172.7520  137.2860 C   0  0  0  0  0  3  0  0  0  0  0  0
  187.2420  175.9330  136.9170 C   0  0  2  0  0  3  0  0  0  0  0  0
  184.7630  176.4350  136.5620 C   0  0  0  0  0  0  0  0  0  0  0  0
  186.7980  174.5420  137.2270 C   0  0  0  0  0  0  0  0  0  0  0  0
  184.3350  174.9960  136.7720 C   0  0  2  0  0  3  0  0  0  0  0  0
  183.9110  177.2850  136.1950 O   0  0  0  0  0  0  0  0  0  0  0  0
  190.7630  176.6990  136.8940 C   0  0  1  0  0  3  0  0  0  0  0  0
  190.3500  175.9460  139.1290 O   0  0  0  0  0  0  0  0  0  0  0  0
  190.5200  175.2020  136.7340 C   0  0  2  0  0  0  0  0  0  0  0  0
  190.0060  176.9300  140.0690 C   0  0  0  0  0  0  0  0  0  0  0  0
  188.8550  177.6190  139.9150 C   0  0  0  0  0  0  0  0  0  0  0  0
  190.1490  176.2820  134.5940 C   0  0  0  0  0  2  0  0  0  0  0  0
  187.9600  177.2840  138.7870 C   0  0  0  0  0  3  0  0  0  0  0  0
  191.7530  174.4080  137.1240 C   0  0  0  0  0  1  0  0  0  0  0  0
  188.3390  176.4720  137.7960 C   0  0  0  0  0  0  0  0  0  0  0  0
  189.9500  174.9860  135.3430 C   0  0  0  0  0  2  0  0  0  0  0  0
  190.1640  177.3500  135.6600 C   0  0  0  0  0  2  0  0  0  0  0  0
  189.7800  175.9750  137.8240 C   0  0  2  0  0  0  0  0  0  0  0  0
  188.4160  178.6740  140.8470 C   0  0  0  0  0  3  0  0  0  0  0  0
  187.9070  178.4630  142.0630 C   0  0  0  0  0  3  0  0  0  0  0  0
  187.6750  177.1520  142.5730 N   0  0  0  0  0  2  0  0  0  0  0  0
  187.0570  176.9780  143.8730 C   0  0  0  0  0  1  0  0  0  0  0  0
  190.8650  177.2000  141.1390 O   0  0  0  0  0  0  0  0  0  0  0  0
  190.9310  176.3570  142.2820 C   0  0  0  0  0  2  0  0  0  0  0  0
  190.7690  177.1740  144.5090 O   0  0  0  0  0  1  0  0  0  0  0  0
  191.6330  177.0740  143.4200 C   0  0  0  0  0  2  0  0  0  0  0  0
  183.3030  174.9030  137.8910 C   0  0  0  0  0  2  0  0  0  0  0  0
  181.8820  174.8550  137.3370 C   0  0  2  0  0  3  0  0  0  0  0  0
  180.9670  175.7110  138.1490 C   0  0  0  0  0  0  0  0  0  0  0  0
  179.8030  175.9440  137.7260 O   0  0  0  0  0  0  0  0  0  0  0  0
  181.4030  176.2530  139.3980 N   0  0  0  0  0  2  0  0  0  0  0  0
  180.5410  177.0890  140.2180 C   0  0  0  0  0  1  0  0  0  0  0  0
  181.3700  173.4510  137.2450 C   0  0  0  0  0  0  0  0  0  0  0  0
  181.8710  172.5940  136.2210 N   0  0  0  0  0  2  0  0  0  0  0  0
  180.5040  173.0330  138.0620 O   0  0  0  0  0  0  0  0  0  0  0  0
  182.3690  170.4680  135.1720 C   0  0  0  0  0  1  0  0  0  0  0  0
  181.4170  171.2200  136.0770 C   0  0  0  0  0  2  0  0  0  0  0  0
  2  6  1  0  0  0  0
  3  8  1  0  0  0  0
  3  5  2  0  0  0  0
  4  1  1  0  0  0  0
  5  1  1  0  0  0  0
  6  8  1  0  0  0  0
  6 19  1  1  0  0  0
  7  9  1  0  0  0  0
  7  2  1  0  0  0  0
  8  4  2  0  0  0  0
  9  3  1  0  0  0  0
  9 31  1  1  0  0  0
 10  7  2  0  0  0  0
 11 21  1  6  0  0  0
 11 22  1  0  0  0  0
 12 14  1  0  0  0  0
 13 11  1  0  0  0  0
 13 18  1  1  0  0  0
 13 22  1  0  0  0  0
 14 27  1  0  0  0  0
 15 14  2  0  0  0  0
 15 23  1  0  0  0  0
 16 20  1  0  0  0  0
 16 21  1  0  0  0  0
 17 15  1  0  0  0  0
 19 17  2  0  0  0  0
 20 13  1  0  0  0  0
 22 19  1  6  0  0  0
 22 12  1  0  0  0  0
 23 24  2  0  0  0  0
 24 25  1  0  0  0  0
 25 26  1  0  0  0  0
 27 28  1  0  0  0  0
 28 30  1  0  0  0  0
 30 29  1  0  0  0  0
 32 31  1  1  0  0  0
 32 33  1  0  0  0  0
 33 35  1  0  0  0  0
 34 33  2  0  0  0  0
 35 36  1  0  0  0  0
 37 32  1  0  0  0  0
 37 39  2  0  0  0  0
 38 37  1  0  0  0  0
 40 41  1  0  0  0  0
 41 38  1  0  0  0  0
M  END
>  <MODEL>
6

>  <REMARK>
 VINA RESULT:      -5.1      3.797      9.967
  Name = 
  11 active torsions:
  status: ('A' for Active; 'I' for Inactive)
    1  A    between atoms: C_2  and  C_25
    2  A    between atoms: C_5  and  C_12
    3  A    between atoms: N_10  and  C_22
    4  A    between atoms: C_12  and  O_16
    5  A    between atoms: C_13  and  O_16
    6  A    between atoms: C_14  and  C_18
    7  A    between atoms: C_17  and  C_25
    8  A    between atoms: C_17  and  C_40
    9  A    between atoms: C_20  and  C_25
   10  A    between atoms: C_21  and  N_30
   11  A    between atoms: C_28  and  C_33
                            x       y       z     vdW  Elec       q    Type
                         _______ _______ _______ _____ _____    ______ ____

>  <TORSDO>
F 11

$$$$
=
 OpenBabel11062415563D

 41 45  0  0  1  0  0  0  0  0999 V2000
  182.1280  177.3330  137.1240 O   0  0  0  0  0  0  0  0  0  0  0  0
  186.1860  178.1710  139.0650 N   0  0  0  0  0  2  0  0  0  0  0  0
  183.3810  178.1010  138.7300 C   0  0  0  0  0  0  0  0  0  0  0  0
  183.3740  177.1030  136.7620 C   0  0  0  0  0  3  0  0  0  0  0  0
  182.0840  177.9370  138.2950 C   0  0  0  0  0  3  0  0  0  0  0  0
  185.6780  177.6910  137.7790 C   0  0  2  0  0  3  0  0  0  0  0  0
  185.3690  178.8420  140.0380 C   0  0  0  0  0  0  0  0  0  0  0  0
  184.1920  177.5550  137.7750 C   0  0  0  0  0  0  0  0  0  0  0  0
  183.8550  178.7950  139.9720 C   0  0  2  0  0  3  0  0  0  0  0  0
  185.9270  179.4630  140.9800 O   0  0  0  0  0  0  0  0  0  0  0  0
  188.9960  176.6330  136.8540 C   0  0  1  0  0  3  0  0  0  0  0  0
  187.5690  175.4460  135.3420 O   0  0  0  0  0  0  0  0  0  0  0  0
  188.4790  177.7190  135.9170 C   0  0  2  0  0  0  0  0  0  0  0  0
  187.1350  174.1770  135.7540 C   0  0  0  0  0  0  0  0  0  0  0  0
  186.3430  174.0700  136.8420 C   0  0  0  0  0  0  0  0  0  0  0  0
  189.2530  178.7660  137.9630 C   0  0  0  0  0  2  0  0  0  0  0  0
  185.9090  175.2970  137.5430 C   0  0  0  0  0  3  0  0  0  0  0  0
  189.2260  177.6950  134.5960 C   0  0  0  0  0  1  0  0  0  0  0  0
  186.4370  176.4950  137.2700 C   0  0  0  0  0  0  0  0  0  0  0  0
  188.4660  179.0200  136.7000 C   0  0  0  0  0  2  0  0  0  0  0  0
  189.1080  177.2860  138.2220 C   0  0  0  0  0  2  0  0  0  0  0  0
  187.5830  176.5310  136.2650 C   0  0  2  0  0  0  0  0  0  0  0  0
  185.8450  172.7790  137.3530 C   0  0  0  0  0  3  0  0  0  0  0  0
  184.6430  172.2590  137.0900 C   0  0  0  0  0  3  0  0  0  0  0  0
  183.6700  172.9520  136.3120 N   0  0  0  0  0  2  0  0  0  0  0  0
  182.3370  173.1680  136.8420 C   0  0  0  0  0  1  0  0  0  0  0  0
  187.5430  173.0400  135.0500 O   0  0  0  0  0  0  0  0  0  0  0  0
  188.8380  172.4780  135.2140 C   0  0  0  0  0  2  0  0  0  0  0  0
  189.9390  173.2890  137.1590 O   0  0  0  0  0  1  0  0  0  0  0  0
  189.7870  173.5120  135.7910 C   0  0  0  0  0  2  0  0  0  0  0  0
  183.2880  178.0820  141.1940 C   0  0  0  0  0  2  0  0  0  0  0  0
  182.4650  179.0290  142.0620 C   0  0  2  0  0  3  0  0  0  0  0  0
  182.8460  178.8960  143.5010 C   0  0  0  0  0  0  0  0  0  0  0  0
  181.9510  178.6610  144.3560 O   0  0  0  0  0  0  0  0  0  0  0  0
  184.2130  179.0250  143.9010 N   0  0  0  0  0  2  0  0  0  0  0  0
  184.6230  178.9000  145.2900 C   0  0  0  0  0  1  0  0  0  0  0  0
  180.9950  178.8220  141.8710 C   0  0  0  0  0  0  0  0  0  0  0  0
  180.5400  177.6490  141.1990 N   0  0  0  0  0  2  0  0  0  0  0  0
  180.1700  179.6770  142.2970 O   0  0  0  0  0  0  0  0  0  0  0  0
  178.9350  175.9280  140.6230 C   0  0  0  0  0  1  0  0  0  0  0  0
  179.1270  177.3860  140.9830 C   0  0  0  0  0  2  0  0  0  0  0  0
  1  5  1  0  0  0  0
  2  7  1  0  0  0  0
  3  9  1  0  0  0  0
  4  1  1  0  0  0  0
  4  8  2  0  0  0  0
  5  3  2  0  0  0  0
  6 19  1  1  0  0  0
  6  2  1  0  0  0  0
  7 10  2  0  0  0  0
  8  6  1  0  0  0  0
  8  3  1  0  0  0  0
  9  7  1  0  0  0  0
  9 31  1  1  0  0  0
 11 21  1  1  0  0  0
 12 14  1  0  0  0  0
 13 18  1  6  0  0  0
 13 22  1  0  0  0  0
 13 20  1  0  0  0  0
 13 11  1  0  0  0  0
 14 15  2  0  0  0  0
 15 23  1  0  0  0  0
 15 17  1  0  0  0  0
 16 21  1  0  0  0  0
 19 17  2  0  0  0  0
 20 16  1  0  0  0  0
 22 12  1  6  0  0  0
 22 11  1  0  0  0  0
 22 19  1  0  0  0  0
 24 23  2  0  0  0  0
 25 26  1  0  0  0  0
 25 24  1  0  0  0  0
 27 28  1  0  0  0  0
 27 14  1  0  0  0  0
 28 30  1  0  0  0  0
 30 29  1  0  0  0  0
 32 31  1  6  0  0  0
 32 33  1  0  0  0  0
 33 35  1  0  0  0  0
 33 34  2  0  0  0  0
 35 36  1  0  0  0  0
 37 32  1  0  0  0  0
 37 39  2  0  0  0  0
 38 37  1  0  0  0  0
 40 41  1  0  0  0  0
 41 38  1  0  0  0  0
M  END
>  <MODEL>
7

>  <REMARK>
 VINA RESULT:      -5.1      3.796      7.052
  Name = 
  11 active torsions:
  status: ('A' for Active; 'I' for Inactive)
    1  A    between atoms: C_2  and  C_25
    2  A    between atoms: C_5  and  C_12
    3  A    between atoms: N_10  and  C_22
    4  A    between atoms: C_12  and  O_16
    5  A    between atoms: C_13  and  O_16
    6  A    between atoms: C_14  and  C_18
    7  A    between atoms: C_17  and  C_25
    8  A    between atoms: C_17  and  C_40
    9  A    between atoms: C_20  and  C_25
   10  A    between atoms: C_21  and  N_30
   11  A    between atoms: C_28  and  C_33
                            x       y       z     vdW  Elec       q    Type
                         _______ _______ _______ _____ _____    ______ ____

>  <TORSDO>
F 11

$$$$
=
 OpenBabel11062415563D

 41 45  0  0  1  0  0  0  0  0999 V2000
  186.9770  178.7510  139.7900 O   0  0  0  0  0  0  0  0  0  0  0  0
  184.8910  178.5210  143.8550 N   0  0  0  0  0  2  0  0  0  0  0  0
  185.2060  178.6240  141.0490 C   0  0  0  0  0  0  0  0  0  0  0  0
  187.4100  178.7340  141.0350 C   0  0  0  0  0  3  0  0  0  0  0  0
  185.6610  178.6950  139.7500 C   0  0  0  0  0  3  0  0  0  0  0  0
  186.2430  178.7420  143.3420 C   0  0  2  0  0  3  0  0  0  0  0  0
  183.7100  178.6200  143.0420 C   0  0  0  0  0  0  0  0  0  0  0  0
  186.3090  178.6240  141.8560 C   0  0  0  0  0  0  0  0  0  0  0  0
  183.7850  178.6100  141.5280 C   0  0  2  0  0  3  0  0  0  0  0  0
  182.5860  178.6940  143.6030 O   0  0  0  0  0  0  0  0  0  0  0  0
  186.8910  177.3000  146.5800 C   0  0  1  0  0  3  0  0  0  0  0  0
  189.0480  178.0130  145.8240 O   0  0  0  0  0  0  0  0  0  0  0  0
  186.8170  178.8220  146.6550 C   0  0  2  0  0  0  0  0  0  0  0  0
  189.8040  177.0730  145.1060 C   0  0  0  0  0  0  0  0  0  0  0  0
  189.3510  176.6330  143.9130 C   0  0  0  0  0  0  0  0  0  0  0  0
  184.5590  177.9380  146.5810 C   0  0  0  0  0  2  0  0  0  0  0  0
  188.0950  177.1900  143.3670 C   0  0  0  0  0  3  0  0  0  0  0  0
  187.5260  179.3380  147.8940 C   0  0  0  0  0  1  0  0  0  0  0  0
  187.2810  177.9570  144.0990 C   0  0  0  0  0  0  0  0  0  0  0  0
  185.3630  179.2100  146.4580 C   0  0  0  0  0  2  0  0  0  0  0  0
  185.5050  176.8380  146.1630 C   0  0  0  0  0  2  0  0  0  0  0  0
  187.6550  178.1590  145.5630 C   0  0  2  0  0  0  0  0  0  0  0  0
  190.0720  175.6420  143.0920 C   0  0  0  0  0  3  0  0  0  0  0  0
  190.8100  175.9250  142.0160 C   0  0  0  0  0  3  0  0  0  0  0  0
  190.9280  177.2490  141.5020 N   0  0  0  0  0  2  0  0  0  0  0  0
  190.9920  177.4700  140.0710 C   0  0  0  0  0  1  0  0  0  0  0  0
  191.0010  176.5900  145.6410 O   0  0  0  0  0  0  0  0  0  0  0  0
  191.2130  176.4910  147.0430 C   0  0  0  0  0  2  0  0  0  0  0  0
  193.0790  176.1350  148.4730 O   0  0  0  0  0  1  0  0  0  0  0  0
  192.4450  175.6530  147.3280 C   0  0  0  0  0  2  0  0  0  0  0  0
  183.0760  177.3840  140.9640 C   0  0  0  0  0  2  0  0  0  0  0  0
  182.3280  177.7140  139.6770 C   0  0  2  0  0  3  0  0  0  0  0  0
  181.5460  178.9790  139.8280 C   0  0  0  0  0  0  0  0  0  0  0  0
  181.7850  179.9470  139.0570 O   0  0  0  0  0  0  0  0  0  0  0  0
  180.5320  179.0860  140.8290 N   0  0  0  0  0  2  0  0  0  0  0  0
  179.7490  180.2990  141.0060 C   0  0  0  0  0  1  0  0  0  0  0  0
  181.4480  176.5840  139.2410 C   0  0  0  0  0  0  0  0  0  0  0  0
  180.7100  175.8580  140.2220 N   0  0  0  0  0  2  0  0  0  0  0  0
  181.3630  176.2770  138.0190 O   0  0  0  0  0  0  0  0  0  0  0  0
  179.2890  174.1170  141.1260 C   0  0  0  0  0  1  0  0  0  0  0  0
  179.8370  174.7530  139.8660 C   0  0  0  0  0  2  0  0  0  0  0  0
  1  4  1  0  0  0  0
  3  9  1  0  0  0  0
  3  8  1  0  0  0  0
  4  8  2  0  0  0  0
  5  1  1  0  0  0  0
  5  3  2  0  0  0  0
  6  2  1  0  0  0  0
  6 19  1  1  0  0  0
  7 10  2  0  0  0  0
  7  2  1  0  0  0  0
  8  6  1  0  0  0  0
  9 31  1  1  0  0  0
  9  7  1  0  0  0  0
 11 21  1  6  0  0  0
 11 13  1  0  0  0  0
 13 18  1  1  0  0  0
 14 27  1  0  0  0  0
 14 12  1  0  0  0  0
 15 14  2  0  0  0  0
 17 15  1  0  0  0  0
 17 19  2  0  0  0  0
 20 16  1  0  0  0  0
 20 13  1  0  0  0  0
 21 16  1  0  0  0  0
 22 19  1  6  0  0  0
 22 12  1  0  0  0  0
 22 11  1  0  0  0  0
 22 13  1  0  0  0  0
 23 15  1  0  0  0  0
 24 23  2  0  0  0  0
 25 24  1  0  0  0  0
 26 25  1  0  0  0  0
 27 28  1  0  0  0  0
 28 30  1  0  0  0  0
 30 29  1  0  0  0  0
 32 33  1  0  0  0  0
 32 31  1  1  0  0  0
 33 35  1  0  0  0  0
 34 33  2  0  0  0  0
 35 36  1  0  0  0  0
 37 32  1  0  0  0  0
 37 38  1  0  0  0  0
 39 37  2  0  0  0  0
 41 38  1  0  0  0  0
 41 40  1  0  0  0  0
M  END
>  <MODEL>
8

>  <REMARK>
 VINA RESULT:      -5.1      2.395      9.354
  Name = 
  11 active torsions:
  status: ('A' for Active; 'I' for Inactive)
    1  A    between atoms: C_2  and  C_25
    2  A    between atoms: C_5  and  C_12
    3  A    between atoms: N_10  and  C_22
    4  A    between atoms: C_12  and  O_16
    5  A    between atoms: C_13  and  O_16
    6  A    between atoms: C_14  and  C_18
    7  A    between atoms: C_17  and  C_25
    8  A    between atoms: C_17  and  C_40
    9  A    between atoms: C_20  and  C_25
   10  A    between atoms: C_21  and  N_30
   11  A    between atoms: C_28  and  C_33
                            x       y       z     vdW  Elec       q    Type
                         _______ _______ _______ _____ _____    ______ ____

>  <TORSDO>
F 11

$$$$
=
 OpenBabel11062415563D

 41 45  0  0  1  0  0  0  0  0999 V2000
  185.4850  178.7140  141.7610 O   0  0  0  0  0  0  0  0  0  0  0  0
  185.3000  177.8850  137.2650 N   0  0  0  0  0  2  0  0  0  0  0  0
  186.4060  178.3910  139.8150 C   0  0  0  0  0  0  0  0  0  0  0  0
  184.4950  178.5230  140.9110 C   0  0  0  0  0  3  0  0  0  0  0  0
  186.6490  178.6520  141.1460 C   0  0  0  0  0  3  0  0  0  0  0  0
  184.3660  178.1890  138.3500 C   0  0  2  0  0  3  0  0  0  0  0  0
  186.7190  178.0880  137.3620 C   0  0  0  0  0  0  0  0  0  0  0  0
  185.0510  178.2870  139.6730 C   0  0  0  0  0  0  0  0  0  0  0  0
  187.4020  178.2960  138.6980 C   0  0  2  0  0  3  0  0  0  0  0  0
  187.4120  178.0700  136.3110 O   0  0  0  0  0  0  0  0  0  0  0  0
  180.7680  178.3630  138.2830 C   0  0  1  0  0  3  0  0  0  0  0  0
  181.2280  176.4110  139.5910 O   0  0  0  0  0  0  0  0  0  0  0  0
  181.3260  178.9230  139.5870 C   0  0  2  0  0  0  0  0  0  0  0  0
  181.3150  175.1960  138.8950 C   0  0  0  0  0  0  0  0  0  0  0  0
  182.3020  175.0210  137.9900 C   0  0  0  0  0  0  0  0  0  0  0  0
  181.5600  180.6070  137.8570 C   0  0  0  0  0  2  0  0  0  0  0  0
  183.2980  176.0950  137.7920 C   0  0  0  0  0  3  0  0  0  0  0  0
  180.2700  178.9130  140.6770 C   0  0  0  0  0  1  0  0  0  0  0  0
  183.1420  177.3140  138.3190 C   0  0  0  0  0  0  0  0  0  0  0  0
  181.9920  180.2480  139.2580 C   0  0  0  0  0  2  0  0  0  0  0  0
  181.2730  179.2860  137.1860 C   0  0  0  0  0  2  0  0  0  0  0  0
  181.8380  177.5840  139.0600 C   0  0  2  0  0  0  0  0  0  0  0  0
  182.4680  173.7820  137.2060 C   0  0  0  0  0  3  0  0  0  0  0  0
  181.9800  173.5770  135.9800 C   0  0  0  0  0  3  0  0  0  0  0  0
  181.1750  174.5440  135.3100 N   0  0  0  0  0  2  0  0  0  0  0  0
  181.8020  175.6390  134.5960 C   0  0  0  0  0  1  0  0  0  0  0  0
  180.3710  174.1920  139.1280 O   0  0  0  0  0  0  0  0  0  0  0  0
  179.0830  174.4780  139.6560 C   0  0  0  0  0  2  0  0  0  0  0  0
  179.0840  174.8430  142.0060 O   0  0  0  0  0  1  0  0  0  0  0  0
  178.9310  173.8570  141.0320 C   0  0  0  0  0  2  0  0  0  0  0  0
  188.3740  177.1560  138.9870 C   0  0  0  0  0  2  0  0  0  0  0  0
  189.8160  177.6500  139.0320 C   0  0  2  0  0  3  0  0  0  0  0  0
  190.6500  176.9450  138.0120 C   0  0  0  0  0  0  0  0  0  0  0  0
  190.3040  176.9830  136.8010 O   0  0  0  0  0  0  0  0  0  0  0  0
  191.8330  176.2460  138.4030 N   0  0  0  0  0  2  0  0  0  0  0  0
  192.6720  175.5510  137.4400 C   0  0  0  0  0  1  0  0  0  0  0  0
  190.4070  177.5130  140.4010 C   0  0  0  0  0  0  0  0  0  0  0  0
  189.5370  177.3700  141.5220 N   0  0  0  0  0  2  0  0  0  0  0  0
  191.6590  177.5250  140.5590 O   0  0  0  0  0  0  0  0  0  0  0  0
  190.3460  175.7730  143.1540 C   0  0  0  0  0  1  0  0  0  0  0  0
  190.0450  177.2310  142.8770 C   0  0  0  0  0  2  0  0  0  0  0  0
  2  7  1  0  0  0  0
  2  6  1  0  0  0  0
  3  5  2  0  0  0  0
  4  1  1  0  0  0  0
  5  1  1  0  0  0  0
  6 19  1  1  0  0  0
  6  8  1  0  0  0  0
  7  9  1  0  0  0  0
  8  3  1  0  0  0  0
  8  4  2  0  0  0  0
  9 31  1  1  0  0  0
  9  3  1  0  0  0  0
 10  7  2  0  0  0  0
 11 21  1  6  0  0  0
 11 22  1  0  0  0  0
 11 13  1  0  0  0  0
 13 18  1  1  0  0  0
 14 27  1  0  0  0  0
 14 12  1  0  0  0  0
 15 14  2  0  0  0  0
 16 20  1  0  0  0  0
 17 15  1  0  0  0  0
 17 19  2  0  0  0  0
 20 13  1  0  0  0  0
 21 16  1  0  0  0  0
 22 19  1  6  0  0  0
 22 13  1  0  0  0  0
 22 12  1  0  0  0  0
 23 15  1  0  0  0  0
 24 23  2  0  0  0  0
 25 24  1  0  0  0  0
 26 25  1  0  0  0  0
 27 28  1  0  0  0  0
 28 30  1  0  0  0  0
 30 29  1  0  0  0  0
 32 31  1  1  0  0  0
 32 37  1  0  0  0  0
 33 35  1  0  0  0  0
 33 32  1  0  0  0  0
 34 33  2  0  0  0  0
 36 35  1  0  0  0  0
 37 39  2  0  0  0  0
 37 38  1  0  0  0  0
 38 41  1  0  0  0  0
 41 40  1  0  0  0  0
M  END
>  <MODEL>
9

>  <REMARK>
 VINA RESULT:      -4.9      2.634      3.733
  Name = 
  11 active torsions:
  status: ('A' for Active; 'I' for Inactive)
    1  A    between atoms: C_2  and  C_25
    2  A    between atoms: C_5  and  C_12
    3  A    between atoms: N_10  and  C_22
    4  A    between atoms: C_12  and  O_16
    5  A    between atoms: C_13  and  O_16
    6  A    between atoms: C_14  and  C_18
    7  A    between atoms: C_17  and  C_25
    8  A    between atoms: C_17  and  C_40
    9  A    between atoms: C_20  and  C_25
   10  A    between atoms: C_21  and  N_30
   11  A    between atoms: C_28  and  C_33
                            x       y       z     vdW  Elec       q    Type
                         _______ _______ _______ _____ _____    ______ ____

>  <TORSDO>
F 11

$$$$
