=
 OpenBabel11062418063D

 63 67  0  0  1  0  0  0  0  0999 V2000
  188.6510  178.1030  140.7870 C   0  0  1  0  0  3  0  0  0  0  0  0
  189.9490  178.0450  142.9800 O   0  0  0  0  0  0  0  0  0  0  0  0
  190.6520  176.5610  141.2050 C   0  0  1  0  0  3  0  0  0  0  0  0
  189.4050  176.8340  140.3820 C   0  0  2  0  0  3  0  0  0  0  0  0
  187.7060  177.7540  141.9350 C   0  0  1  0  0  3  0  0  0  0  0  0
  191.8100  177.4910  140.8660 C   0  0  0  0  0  1  0  0  0  0  0  0
  190.2490  176.7030  142.6580 C   0  0  0  0  0  2  0  0  0  0  0  0
  188.9040  178.6470  142.2070 C   0  0  2  0  0  3  0  0  0  0  0  0
  189.6380  176.7400  138.8780 C   0  0  0  0  0  2  0  0  0  0  0  0
  190.4670  175.6310  138.5490 O   0  0  0  0  0  0  0  0  0  0  0  0
  190.9570  176.3880  136.4400 O   0  0  0  0  0  0  0  0  0  0  0  0
  190.9150  175.4210  137.2450 C   0  0  0  0  0  0  0  0  0  0  0  0
  191.3480  174.1240  136.8240 N   0  0  0  0  0  0  0  0  0  0  0  0
  191.1100  172.3590  135.3170 O   0  0  0  0  0  0  0  0  0  0  0  0
  190.6000  173.3810  135.8490 C   0  0  0  0  0  0  0  0  0  0  0  0
  189.1960  173.7750  135.5020 C   0  0  2  0  0  3  0  0  0  0  0  0
  189.2000  175.0790  134.7300 C   0  0  0  0  0  1  0  0  0  0  0  0
  188.4210  173.9150  136.6590 O   0  0  0  0  0  0  0  0  0  0  0  0
  185.7640  172.1020  134.8880 N   0  0  0  0  0  2  0  0  0  0  0  0
  184.8920  172.7930  137.0690 C   0  0  0  0  0  2  0  0  0  0  0  0
  186.2790  173.2610  137.4940 C   0  0  0  0  0  2  0  0  0  0  0  0
  187.1290  172.4380  135.2920 C   0  0  0  0  0  2  0  0  0  0  0  0
  187.1140  173.6190  136.2660 C   0  0  2  0  0  3  0  0  0  0  0  0
  183.6490  171.1810  135.6490 C   0  0  0  0  0  1  0  0  0  0  0  0
  185.0260  171.6510  136.0670 C   0  0  1  0  0  3  0  0  0  0  0  0
  192.5970  173.6950  137.2170 O   0  0  0  0  0  0  0  0  0  0  0  0
  193.7410  174.0190  136.4900 C   0  0  0  0  0  0  0  0  0  0  0  0
  195.2220  173.8450  136.7050 C   0  0  2  0  0  3  0  0  0  0  0  0
  193.9530  174.6500  135.3230 N   0  0  0  0  0  0  0  0  0  0  0  0
  195.3870  174.4970  135.4670 C   0  0  1  0  0  3  0  0  0  0  0  0
  195.7290  177.0040  134.7930 C   0  0  0  0  0  1  0  0  0  0  0  0
  196.0710  175.8290  135.6560 C   0  0  0  0  0  0  0  0  0  0  0  0
  197.0950  175.9060  136.4220 N   0  0  0  0  0  2  0  0  0  0  0  0
  195.6050  172.3750  136.5890 C   0  0  0  0  0  2  0  0  0  0  0  0
  196.8730  172.0760  137.3760 C   0  0  0  0  0  2  0  0  0  0  0  0
  197.2620  170.6190  137.2190 C   0  0  0  0  0  1  0  0  0  0  0  0
  186.5430  178.5620  141.8320 O   0  0  0  0  0  0  0  0  0  0  0  0
  185.4180  178.3970  142.6450 C   0  0  0  0  0  0  0  0  0  0  0  0
  185.5320  178.3030  144.2800 S   0  0  0  0  0  0  0  0  0  0  0  0
  184.0670  178.3870  142.0120 C   0  0  2  0  0  3  0  0  0  0  0  0
  183.9520  177.9390  139.7240 N   0  0  0  0  0  0  0  0  0  0  0  0
  184.1830  178.7640  140.6260 N   0  0  0  0  0  0  0  0  0  0  0  0
  184.1200  178.3180  138.3480 C   0  0  0  0  0  2  0  0  0  0  0  0
  183.8240  177.1330  137.4420 C   0  0  1  0  0  3  0  0  0  0  0  0
  181.5460  176.4500  136.7970 N   0  0  0  0  0  0  0  0  0  0  0  0
  181.5440  177.8630  137.2760 C   0  0  0  0  0  2  0  0  0  0  0  0
  182.6320  177.4410  136.5390 C   0  0  1  0  0  3  0  0  0  0  0  0
  180.9730  175.1510  136.6810 C   0  0  0  0  0  0  0  0  0  0  0  0
  181.5530  174.2360  135.9200 C   0  0  0  0  0  2  0  0  0  0  0  0
  179.7430  174.8030  137.4500 C   0  0  0  0  0  2  0  0  0  0  0  0
  180.0520  173.8640  138.6090 C   0  0  0  0  0  2  0  0  0  0  0  0
  179.8820  174.5500  139.9220 C   0  0  0  0  0  0  0  0  0  0  0  0
  179.5970  173.8880  140.9540 O   0  0  0  0  0  1  0  0  0  0  0  0
  180.0220  175.9300  139.9960 O   0  0  0  0  0  0  0  0  0  0  0  0
  186.0400  177.7610  136.7330 O   0  0  0  0  0  1  0  0  0  0  0  0
  185.0590  176.7720  136.6230 C   0  0  0  0  0  2  0  0  0  0  0  0
  183.2400  179.3230  142.6920 O   0  0  0  0  0  0  0  0  0  0  0  0
  181.8670  178.4570  144.4370 C   0  0  0  0  0  2  0  0  0  0  0  0
  181.9890  179.0120  143.2330 C   0  0  0  0  0  0  0  0  0  0  0  0
  179.4790  178.2260  142.5690 O   0  0  0  0  0  1  0  0  0  0  0  0
  180.9580  179.0840  140.5930 O   0  0  0  0  0  0  0  0  0  0  0  0
  179.9180  180.7990  142.4880 O   0  0  0  0  0  1  0  0  0  0  0  0
  180.5360  179.2460  142.2210 P   0  0  0  0  0  0  0  0  0  0  0  0
  1  5  1  0  0  0  0
  1  8  1  0  0  0  0
  3  7  1  0  0  0  0
  4  1  1  0  0  0  0
  4  3  1  0  0  0  0
  5  8  1  0  0  0  0
  6  3  1  0  0  0  0
  7  2  1  0  0  0  0
  8  2  1  0  0  0  0
  9  4  1  0  0  0  0
 10  9  1  0  0  0  0
 11 12  2  0  0  0  0
 12 10  1  0  0  0  0
 13 26  1  0  0  0  0
 13 12  1  0  0  0  0
 14 15  2  0  0  0  0
 15 13  1  0  0  0  0
 16 15  1  0  0  0  0
 16 18  1  0  0  0  0
 17 16  1  0  0  0  0
 19 22  1  0  0  0  0
 19 25  1  0  0  0  0
 20 21  1  0  0  0  0
 22 23  1  0  0  0  0
 23 18  1  0  0  0  0
 23 21  1  0  0  0  0
 24 25  1  0  0  0  0
 25 20  1  0  0  0  0
 27 28  1  0  0  0  0
 27 26  1  0  0  0  0
 29 30  1  0  0  0  0
 29 27  2  0  0  0  0
 30 32  1  0  0  0  0
 30 28  1  0  0  0  0
 31 32  1  0  0  0  0
 32 33  2  0  0  0  0
 34 28  1  0  0  0  0
 34 35  1  0  0  0  0
 36 35  1  0  0  0  0
 37  5  1  0  0  0  0
 37 38  1  0  0  0  0
 38 39  2  0  0  0  0
 40 38  1  0  0  0  0
 40 57  1  0  0  0  0
 41 42  2  0  0  0  0
 42 40  1  0  0  0  0
 43 41  1  0  0  0  0
 44 43  1  0  0  0  0
 45 46  1  0  0  0  0
 47 45  1  0  0  0  0
 47 46  1  0  0  0  0
 47 44  1  0  0  0  0
 48 45  1  0  0  0  0
 48 50  1  0  0  0  0
 49 48  2  0  0  0  0
 50 51  1  0  0  0  0
 51 52  1  0  0  0  0
 52 54  2  0  0  0  0
 52 53  1  0  0  0  0
 56 55  1  0  0  0  0
 56 44  1  0  0  0  0
 57 59  1  0  0  0  0
 59 58  2  0  0  0  0
 61 63  2  0  0  0  0
 63 62  1  0  0  0  0
 63 60  1  0  0  0  0
 63 59  1  0  0  0  0
M  END
>  <MODEL>
1

>  <REMARK>
 VINA RESULT:      -5.7      0.000      0.000
  Name = 
  26 active torsions:
  status: ('A' for Active; 'I' for Inactive)
    1  A    between atoms: C_1  and  C_6
    2  A    between atoms: C_1  and  C_18
    3  A    between atoms: C_2  and  O_52
    4  A    between atoms: C_4  and  N_22
    5  A    between atoms: C_4  and  O_42
    6  A    between atoms: C_4  and  C_45
    7  A    between atoms: C_7  and  O_56
    8  A    between atoms: C_7  and  C_62
    9  A    between atoms: C_8  and  C_19
   10  A    between atoms: C_8  and  C_34
   11  A    between atoms: N_11  and  C_13
   12  A    between atoms: O_12  and  C_36
   13  A    between atoms: O_12  and  C_45
   14  A    between atoms: C_13  and  C_47
   15  A    between atoms: O_15  and  C_16
   16  A    between atoms: O_15  and  C_48
   17  A    between atoms: C_18  and  C_24
   18  A    between atoms: N_20  and  C_24
   19  A    between atoms: C_26  and  C_48
   20  A    between atoms: N_28  and  O_52
   21  A    between atoms: C_33  and  C_47
   22  A    between atoms: C_35  and  C_40
   23  A    between atoms: C_38  and  O_56
   24  A    between atoms: O_42  and  C_58
   25  A    between atoms: C_47  and  C_53
   26  A    between atoms: C_58  and  P_60
                            x       y       z     vdW  Elec       q    Type
                         _______ _______ _______ _____ _____    ______ ____

>  <TORSDO>
F 26

$$$$
=
 OpenBabel11062418063D

 63 67  0  0  1  0  0  0  0  0999 V2000
  185.8670  177.8170  137.4140 C   0  0  1  0  0  3  0  0  0  0  0  0
  186.3830  176.7890  135.1400 O   0  0  0  0  0  0  0  0  0  0  0  0
  184.3820  176.0630  136.2860 C   0  0  1  0  0  3  0  0  0  0  0  0
  184.7860  176.7460  137.5800 C   0  0  2  0  0  3  0  0  0  0  0  0
  187.2310  177.1320  137.4570 C   0  0  1  0  0  3  0  0  0  0  0  0
  183.5270  176.9440  135.3840 C   0  0  0  0  0  1  0  0  0  0  0  0
  185.6660  175.6600  135.5930 C   0  0  0  0  0  2  0  0  0  0  0  0
  186.7460  177.7360  136.1510 C   0  0  2  0  0  3  0  0  0  0  0  0
  183.5980  177.2280  138.4080 C   0  0  0  0  0  2  0  0  0  0  0  0
  183.3940  178.6270  138.2580 O   0  0  0  0  0  0  0  0  0  0  0  0
  181.9710  180.4170  138.0770 O   0  0  0  0  0  0  0  0  0  0  0  0
  182.1120  179.1770  138.2400 C   0  0  0  0  0  0  0  0  0  0  0  0
  180.9590  178.3410  138.3800 N   0  0  0  0  0  0  0  0  0  0  0  0
  178.9990  177.8670  139.5530 O   0  0  0  0  0  0  0  0  0  0  0  0
  180.1270  178.4290  139.5470 C   0  0  0  0  0  0  0  0  0  0  0  0
  180.6120  179.1300  140.7800 C   0  0  2  0  0  3  0  0  0  0  0  0
  179.9040  180.4620  140.9290 C   0  0  0  0  0  1  0  0  0  0  0  0
  181.9950  179.3350  140.7200 O   0  0  0  0  0  0  0  0  0  0  0  0
  184.5950  178.1060  143.0020 N   0  0  0  0  0  2  0  0  0  0  0  0
  182.6770  178.8180  144.3470 C   0  0  0  0  0  2  0  0  0  0  0  0
  182.0070  179.4050  143.1100 C   0  0  0  0  0  2  0  0  0  0  0  0
  184.0400  178.7480  141.8120 C   0  0  0  0  0  2  0  0  0  0  0  0
  182.5110  178.6990  141.8520 C   0  0  2  0  0  3  0  0  0  0  0  0
  184.8580  178.2970  145.4090 C   0  0  0  0  0  1  0  0  0  0  0  0
  184.1920  178.8740  144.1790 C   0  0  1  0  0  3  0  0  0  0  0  0
  180.5530  177.6050  137.2890 O   0  0  0  0  0  0  0  0  0  0  0  0
  180.5110  176.2120  137.3240 C   0  0  0  0  0  0  0  0  0  0  0  0
  181.0470  175.1550  138.2530 C   0  0  2  0  0  3  0  0  0  0  0  0
  179.9960  175.2760  136.5070 N   0  0  0  0  0  0  0  0  0  0  0  0
  180.4740  174.2170  137.3730 C   0  0  1  0  0  3  0  0  0  0  0  0
  181.8430  173.5510  135.2430 C   0  0  0  0  0  1  0  0  0  0  0  0
  181.5480  173.3940  136.7020 C   0  0  0  0  0  0  0  0  0  0  0  0
  182.0710  172.4110  137.3350 N   0  0  0  0  0  2  0  0  0  0  0  0
  180.2890  175.1780  139.5750 C   0  0  0  0  0  2  0  0  0  0  0  0
  179.7110  173.8070  139.8980 C   0  0  0  0  0  2  0  0  0  0  0  0
  179.7590  173.5510  141.3920 C   0  0  0  0  0  1  0  0  0  0  0  0
  188.1680  178.0160  138.0540 O   0  0  0  0  0  0  0  0  0  0  0  0
  188.6130  177.8900  139.3730 C   0  0  0  0  0  0  0  0  0  0  0  0
  187.6720  178.3070  140.6520 S   0  0  0  0  0  0  0  0  0  0  0  0
  189.9520  177.2830  139.6270 C   0  0  2  0  0  3  0  0  0  0  0  0
  191.2940  175.6550  138.6270 N   0  0  0  0  0  0  0  0  0  0  0  0
  190.1910  176.2300  138.6720 N   0  0  0  0  0  0  0  0  0  0  0  0
  191.5310  174.6430  137.6370 C   0  0  0  0  0  2  0  0  0  0  0  0
  192.1230  175.2700  136.3840 C   0  0  1  0  0  3  0  0  0  0  0  0
  194.5310  175.3810  136.8960 N   0  0  0  0  0  0  0  0  0  0  0  0
  194.2120  176.2530  135.7280 C   0  0  0  0  0  2  0  0  0  0  0  0
  193.2850  176.1900  136.7490 C   0  0  1  0  0  3  0  0  0  0  0  0
  195.3630  174.4690  137.6080 C   0  0  0  0  0  0  0  0  0  0  0  0
  195.3540  174.4560  138.9310 C   0  0  0  0  0  2  0  0  0  0  0  0
  196.2150  173.4970  136.8630 C   0  0  0  0  0  2  0  0  0  0  0  0
  196.9750  174.1700  135.7280 C   0  0  0  0  0  2  0  0  0  0  0  0
  198.2730  174.7310  136.2030 C   0  0  0  0  0  0  0  0  0  0  0  0
  198.6400  174.5640  137.3960 O   0  0  0  0  0  1  0  0  0  0  0  0
  199.0680  175.4550  135.3250 O   0  0  0  0  0  0  0  0  0  0  0  0
  191.5100  173.3210  135.1040 O   0  0  0  0  0  1  0  0  0  0  0  0
  192.5660  174.1850  135.4080 C   0  0  0  0  0  2  0  0  0  0  0  0
  189.9630  176.7420  140.9430 O   0  0  0  0  0  0  0  0  0  0  0  0
  192.1260  177.4320  141.6680 C   0  0  0  0  0  2  0  0  0  0  0  0
  190.8570  177.1370  141.9420 C   0  0  0  0  0  0  0  0  0  0  0  0
  188.9460  176.4700  143.7480 O   0  0  0  0  0  0  0  0  0  0  0  0
  190.2250  178.6980  144.2230 O   0  0  0  0  0  1  0  0  0  0  0  0
  191.4130  176.2320  144.5710 O   0  0  0  0  0  1  0  0  0  0  0  0
  190.3070  177.1140  143.6420 P   0  0  0  0  0  0  0  0  0  0  0  0
  1  5  1  0  0  0  0
  1  4  1  0  0  0  0
  2  7  1  0  0  0  0
  2  8  1  0  0  0  0
  3  4  1  0  0  0  0
  4  9  1  0  0  0  0
  5 37  1  0  0  0  0
  6  3  1  0  0  0  0
  7  3  1  0  0  0  0
  8  1  1  0  0  0  0
  8  5  1  0  0  0  0
 10  9  1  0  0  0  0
 11 12  2  0  0  0  0
 12 10  1  0  0  0  0
 12 13  1  0  0  0  0
 13 15  1  0  0  0  0
 15 14  2  0  0  0  0
 15 16  1  0  0  0  0
 16 17  1  0  0  0  0
 18 16  1  0  0  0  0
 18 23  1  0  0  0  0
 19 25  1  0  0  0  0
 21 20  1  0  0  0  0
 22 23  1  0  0  0  0
 22 19  1  0  0  0  0
 23 21  1  0  0  0  0
 25 20  1  0  0  0  0
 25 24  1  0  0  0  0
 26 27  1  0  0  0  0
 26 13  1  0  0  0  0
 27 28  1  0  0  0  0
 28 34  1  0  0  0  0
 29 27  2  0  0  0  0
 29 30  1  0  0  0  0
 30 28  1  0  0  0  0
 31 32  1  0  0  0  0
 32 33  2  0  0  0  0
 32 30  1  0  0  0  0
 34 35  1  0  0  0  0
 35 36  1  0  0  0  0
 37 38  1  0  0  0  0
 38 40  1  0  0  0  0
 38 39  2  0  0  0  0
 40 57  1  0  0  0  0
 41 42  2  0  0  0  0
 42 40  1  0  0  0  0
 43 41  1  0  0  0  0
 44 47  1  0  0  0  0
 44 43  1  0  0  0  0
 45 48  1  0  0  0  0
 46 47  1  0  0  0  0
 46 45  1  0  0  0  0
 47 45  1  0  0  0  0
 48 49  2  0  0  0  0
 50 48  1  0  0  0  0
 51 52  1  0  0  0  0
 51 50  1  0  0  0  0
 52 53  1  0  0  0  0
 54 52  2  0  0  0  0
 55 56  1  0  0  0  0
 56 44  1  0  0  0  0
 57 59  1  0  0  0  0
 58 59  2  0  0  0  0
 59 63  1  0  0  0  0
 63 60  2  0  0  0  0
 63 61  1  0  0  0  0
 63 62  1  0  0  0  0
M  END
>  <MODEL>
2

>  <REMARK>
 VINA RESULT:      -5.4      2.645     11.616
  Name = 
  26 active torsions:
  status: ('A' for Active; 'I' for Inactive)
    1  A    between atoms: C_1  and  C_6
    2  A    between atoms: C_1  and  C_18
    3  A    between atoms: C_2  and  O_52
    4  A    between atoms: C_4  and  N_22
    5  A    between atoms: C_4  and  O_42
    6  A    between atoms: C_4  and  C_45
    7  A    between atoms: C_7  and  O_56
    8  A    between atoms: C_7  and  C_62
    9  A    between atoms: C_8  and  C_19
   10  A    between atoms: C_8  and  C_34
   11  A    between atoms: N_11  and  C_13
   12  A    between atoms: O_12  and  C_36
   13  A    between atoms: O_12  and  C_45
   14  A    between atoms: C_13  and  C_47
   15  A    between atoms: O_15  and  C_16
   16  A    between atoms: O_15  and  C_48
   17  A    between atoms: C_18  and  C_24
   18  A    between atoms: N_20  and  C_24
   19  A    between atoms: C_26  and  C_48
   20  A    between atoms: N_28  and  O_52
   21  A    between atoms: C_33  and  C_47
   22  A    between atoms: C_35  and  C_40
   23  A    between atoms: C_38  and  O_56
   24  A    between atoms: O_42  and  C_58
   25  A    between atoms: C_47  and  C_53
   26  A    between atoms: C_58  and  P_60
                            x       y       z     vdW  Elec       q    Type
                         _______ _______ _______ _____ _____    ______ ____

>  <TORSDO>
F 26

$$$$
=
 OpenBabel11062418063D

 63 67  0  0  1  0  0  0  0  0999 V2000
  186.6780  176.4380  136.9660 C   0  0  1  0  0  3  0  0  0  0  0  0
  185.4860  174.4700  135.8690 O   0  0  0  0  0  0  0  0  0  0  0  0
  187.6490  175.1140  135.0010 C   0  0  1  0  0  3  0  0  0  0  0  0
  187.6660  176.4060  135.7970 C   0  0  2  0  0  3  0  0  0  0  0  0
  185.3210  176.8910  136.4330 C   0  0  1  0  0  3  0  0  0  0  0  0
  188.3060  173.9500  135.7320 C   0  0  0  0  0  1  0  0  0  0  0  0
  186.1960  174.8140  134.6980 C   0  0  0  0  0  2  0  0  0  0  0  0
  185.4900  175.4580  136.9060 C   0  0  2  0  0  3  0  0  0  0  0  0
  189.0690  176.8540  136.1960 C   0  0  0  0  0  2  0  0  0  0  0  0
  189.2830  176.7070  137.5950 O   0  0  0  0  0  0  0  0  0  0  0  0
  190.3290  174.8740  138.4930 O   0  0  0  0  0  0  0  0  0  0  0  0
  190.4160  176.0650  138.0930 C   0  0  0  0  0  0  0  0  0  0  0  0
  191.6780  176.7390  138.1320 N   0  0  0  0  0  0  0  0  0  0  0  0
  193.4900  177.4580  139.4130 O   0  0  0  0  0  0  0  0  0  0  0  0
  192.2870  177.0850  139.3860 C   0  0  0  0  0  0  0  0  0  0  0  0
  191.4880  177.0640  140.6540 C   0  0  2  0  0  3  0  0  0  0  0  0
  190.3000  177.9980  140.5310 C   0  0  0  0  0  1  0  0  0  0  0  0
  192.2780  177.4480  141.7430 O   0  0  0  0  0  0  0  0  0  0  0  0
  191.3640  175.6310  144.8000 N   0  0  0  0  0  2  0  0  0  0  0  0
  190.7900  177.9900  145.1150 C   0  0  0  0  0  2  0  0  0  0  0  0
  191.4890  178.3530  143.8100 C   0  0  0  0  0  2  0  0  0  0  0  0
  192.1370  175.9470  143.5990 C   0  0  0  0  0  2  0  0  0  0  0  0
  191.5180  177.1450  142.8750 C   0  0  2  0  0  3  0  0  0  0  0  0
  190.7650  176.4040  147.0240 C   0  0  0  0  0  1  0  0  0  0  0  0
  191.4550  176.7600  145.7250 C   0  0  1  0  0  3  0  0  0  0  0  0
  192.3860  176.8630  136.9570 O   0  0  0  0  0  0  0  0  0  0  0  0
  193.4090  175.9770  136.6250 C   0  0  0  0  0  0  0  0  0  0  0  0
  193.5670  174.4790  136.6440 C   0  0  2  0  0  3  0  0  0  0  0  0
  194.6720  176.1350  136.1910 N   0  0  0  0  0  0  0  0  0  0  0  0
  194.8760  174.7000  136.1730 C   0  0  1  0  0  3  0  0  0  0  0  0
  195.5320  174.1910  138.6560 C   0  0  0  0  0  1  0  0  0  0  0  0
  195.8910  174.2710  137.2050 C   0  0  0  0  0  0  0  0  0  0  0  0
  197.1230  174.1700  136.8690 N   0  0  0  0  0  2  0  0  0  0  0  0
  192.7100  173.8430  135.5570 C   0  0  0  0  0  2  0  0  0  0  0  0
  193.5610  173.0190  134.6010 C   0  0  0  0  0  2  0  0  0  0  0  0
  193.1120  171.5710  134.6050 C   0  0  0  0  0  1  0  0  0  0  0  0
  184.6580  177.6350  137.4450 O   0  0  0  0  0  0  0  0  0  0  0  0
  183.2840  177.8920  137.4360 C   0  0  0  0  0  0  0  0  0  0  0  0
  182.2370  176.9920  136.5470 S   0  0  0  0  0  0  0  0  0  0  0  0
  182.7450  178.9650  138.3210 C   0  0  2  0  0  3  0  0  0  0  0  0
  183.1180  177.6610  140.2210 N   0  0  0  0  0  0  0  0  0  0  0  0
  183.2290  178.7680  139.6640 N   0  0  0  0  0  0  0  0  0  0  0  0
  183.5610  177.4960  141.5770 C   0  0  0  0  0  2  0  0  0  0  0  0
  184.2910  178.7460  142.0410 C   0  0  1  0  0  3  0  0  0  0  0  0
  185.3670  178.5930  144.2530 N   0  0  0  0  0  0  0  0  0  0  0  0
  184.8810  179.9830  144.0110 C   0  0  0  0  0  2  0  0  0  0  0  0
  184.1010  178.9450  143.5430 C   0  0  1  0  0  3  0  0  0  0  0  0
  186.3080  177.6490  144.7550 C   0  0  0  0  0  0  0  0  0  0  0  0
  187.0930  176.9870  143.9210 C   0  0  0  0  0  2  0  0  0  0  0  0
  186.4410  177.4340  146.2250 C   0  0  0  0  0  2  0  0  0  0  0  0
  187.1940  178.5770  146.8940 C   0  0  0  0  0  2  0  0  0  0  0  0
  187.9500  178.1030  148.0880 C   0  0  0  0  0  0  0  0  0  0  0  0
  189.0470  178.6370  148.4010 O   0  0  0  0  0  0  0  0  0  0  0  0
  187.4450  177.0540  148.8460 O   0  0  0  0  0  1  0  0  0  0  0  0
  186.1400  179.7050  140.8290 O   0  0  0  0  0  1  0  0  0  0  0  0
  185.7700  178.6600  141.6790 C   0  0  0  0  0  2  0  0  0  0  0  0
  181.3240  178.8910  138.3110 O   0  0  0  0  0  0  0  0  0  0  0  0
  179.9500  179.7080  140.0790 C   0  0  0  0  0  2  0  0  0  0  0  0
  180.4880  179.8610  138.8710 C   0  0  0  0  0  0  0  0  0  0  0  0
  178.9330  180.9050  136.9090 O   0  0  0  0  0  0  0  0  0  0  0  0
  181.3820  181.8090  137.0160 O   0  0  0  0  0  1  0  0  0  0  0  0
  179.4840  182.5120  138.8920 O   0  0  0  0  0  1  0  0  0  0  0  0
  180.0310  181.2730  137.8770 P   0  0  0  0  0  0  0  0  0  0  0  0
  2  8  1  0  0  0  0
  3  6  1  0  0  0  0
  3  4  1  0  0  0  0
  4  9  1  0  0  0  0
  4  1  1  0  0  0  0
  5  8  1  0  0  0  0
  5  1  1  0  0  0  0
  5 37  1  0  0  0  0
  7  3  1  0  0  0  0
  7  2  1  0  0  0  0
  8  1  1  0  0  0  0
  9 10  1  0  0  0  0
 10 12  1  0  0  0  0
 12 13  1  0  0  0  0
 12 11  2  0  0  0  0
 13 15  1  0  0  0  0
 15 14  2  0  0  0  0
 15 16  1  0  0  0  0
 16 18  1  0  0  0  0
 17 16  1  0  0  0  0
 18 23  1  0  0  0  0
 19 25  1  0  0  0  0
 20 25  1  0  0  0  0
 21 20  1  0  0  0  0
 22 19  1  0  0  0  0
 23 22  1  0  0  0  0
 23 21  1  0  0  0  0
 25 24  1  0  0  0  0
 26 13  1  0  0  0  0
 27 28  1  0  0  0  0
 27 26  1  0  0  0  0
 29 27  2  0  0  0  0
 30 29  1  0  0  0  0
 30 28  1  0  0  0  0
 30 32  1  0  0  0  0
 32 31  1  0  0  0  0
 33 32  2  0  0  0  0
 34 28  1  0  0  0  0
 35 36  1  0  0  0  0
 35 34  1  0  0  0  0
 38 37  1  0  0  0  0
 38 40  1  0  0  0  0
 39 38  2  0  0  0  0
 40 42  1  0  0  0  0
 41 43  1  0  0  0  0
 42 41  2  0  0  0  0
 43 44  1  0  0  0  0
 44 47  1  0  0  0  0
 45 48  1  0  0  0  0
 46 45  1  0  0  0  0
 47 46  1  0  0  0  0
 47 45  1  0  0  0  0
 48 50  1  0  0  0  0
 49 48  2  0  0  0  0
 50 51  1  0  0  0  0
 51 52  1  0  0  0  0
 52 53  2  0  0  0  0
 52 54  1  0  0  0  0
 55 56  1  0  0  0  0
 56 44  1  0  0  0  0
 57 40  1  0  0  0  0
 57 59  1  0  0  0  0
 59 58  2  0  0  0  0
 60 63  2  0  0  0  0
 61 63  1  0  0  0  0
 63 59  1  0  0  0  0
 63 62  1  0  0  0  0
M  END
>  <MODEL>
3

>  <REMARK>
 VINA RESULT:      -5.3      3.072      7.097
  Name = 
  26 active torsions:
  status: ('A' for Active; 'I' for Inactive)
    1  A    between atoms: C_1  and  C_6
    2  A    between atoms: C_1  and  C_18
    3  A    between atoms: C_2  and  O_52
    4  A    between atoms: C_4  and  N_22
    5  A    between atoms: C_4  and  O_42
    6  A    between atoms: C_4  and  C_45
    7  A    between atoms: C_7  and  O_56
    8  A    between atoms: C_7  and  C_62
    9  A    between atoms: C_8  and  C_19
   10  A    between atoms: C_8  and  C_34
   11  A    between atoms: N_11  and  C_13
   12  A    between atoms: O_12  and  C_36
   13  A    between atoms: O_12  and  C_45
   14  A    between atoms: C_13  and  C_47
   15  A    between atoms: O_15  and  C_16
   16  A    between atoms: O_15  and  C_48
   17  A    between atoms: C_18  and  C_24
   18  A    between atoms: N_20  and  C_24
   19  A    between atoms: C_26  and  C_48
   20  A    between atoms: N_28  and  O_52
   21  A    between atoms: C_33  and  C_47
   22  A    between atoms: C_35  and  C_40
   23  A    between atoms: C_38  and  O_56
   24  A    between atoms: O_42  and  C_58
   25  A    between atoms: C_47  and  C_53
   26  A    between atoms: C_58  and  P_60
                            x       y       z     vdW  Elec       q    Type
                         _______ _______ _______ _____ _____    ______ ____

>  <TORSDO>
F 26

$$$$
=
 OpenBabel11062418063D

 63 67  0  0  1  0  0  0  0  0999 V2000
  188.6100  178.5240  140.5890 C   0  0  1  0  0  3  0  0  0  0  0  0
  189.7440  177.1870  142.4390 O   0  0  0  0  0  0  0  0  0  0  0  0
  190.5580  176.9140  140.1790 C   0  0  1  0  0  3  0  0  0  0  0  0
  189.3780  177.6600  139.5850 C   0  0  2  0  0  3  0  0  0  0  0  0
  187.5810  177.6400  141.2910 C   0  0  1  0  0  3  0  0  0  0  0  0
  191.7480  177.8150  140.4820 C   0  0  0  0  0  1  0  0  0  0  0  0
  190.0530  176.2400  141.4380 C   0  0  0  0  0  2  0  0  0  0  0  0
  188.7660  178.1690  142.0810 C   0  0  2  0  0  3  0  0  0  0  0  0
  189.7190  178.4100  138.3010 C   0  0  0  0  0  2  0  0  0  0  0  0
  189.0000  177.8900  137.1890 O   0  0  0  0  0  0  0  0  0  0  0  0
  188.2830  175.9910  138.2560 O   0  0  0  0  0  0  0  0  0  0  0  0
  188.5430  176.5720  137.1700 C   0  0  0  0  0  0  0  0  0  0  0  0
  188.3460  175.8860  135.9300 N   0  0  0  0  0  0  0  0  0  0  0  0
  188.8470  174.0380  134.5980 O   0  0  0  0  0  0  0  0  0  0  0  0
  189.1770  174.7730  135.5670 C   0  0  0  0  0  0  0  0  0  0  0  0
  190.4640  174.5140  136.2890 C   0  0  2  0  0  3  0  0  0  0  0  0
  190.2420  173.5000  137.3930 C   0  0  0  0  0  1  0  0  0  0  0  0
  190.9740  175.6980  136.8330 O   0  0  0  0  0  0  0  0  0  0  0  0
  194.5270  176.5540  136.4800 N   0  0  0  0  0  2  0  0  0  0  0  0
  193.9880  174.8360  134.8200 C   0  0  0  0  0  2  0  0  0  0  0  0
  192.6060  174.6510  135.4360 C   0  0  0  0  0  2  0  0  0  0  0  0
  193.2550  176.3340  137.1670 C   0  0  0  0  0  2  0  0  0  0  0  0
  192.1760  175.9260  136.1600 C   0  0  2  0  0  3  0  0  0  0  0  0
  196.3430  175.4660  135.2880 C   0  0  0  0  0  1  0  0  0  0  0  0
  194.9690  175.2870  135.8980 C   0  0  1  0  0  3  0  0  0  0  0  0
  187.2190  176.1840  135.1950 O   0  0  0  0  0  0  0  0  0  0  0  0
  185.9990  175.5580  135.4440 C   0  0  0  0  0  0  0  0  0  0  0  0
  184.6730  175.9990  136.0040 C   0  0  2  0  0  3  0  0  0  0  0  0
  185.5570  174.2960  135.3080 N   0  0  0  0  0  0  0  0  0  0  0  0
  184.2540  174.6650  135.8250 C   0  0  1  0  0  3  0  0  0  0  0  0
  184.5090  172.6460  137.4720 C   0  0  0  0  0  1  0  0  0  0  0  0
  183.9800  174.0110  137.1570 C   0  0  0  0  0  0  0  0  0  0  0  0
  183.1200  174.5360  137.9490 N   0  0  0  0  0  2  0  0  0  0  0  0
  183.9610  176.9170  135.0190 C   0  0  0  0  0  2  0  0  0  0  0  0
  182.4500  176.8430  135.1940 C   0  0  0  0  0  2  0  0  0  0  0  0
  181.9950  177.8000  136.2780 C   0  0  0  0  0  1  0  0  0  0  0  0
  186.4370  178.4250  141.5950 O   0  0  0  0  0  0  0  0  0  0  0  0
  185.4470  178.7370  140.6600 C   0  0  0  0  0  0  0  0  0  0  0  0
  185.6220  178.3990  139.0630 S   0  0  0  0  0  0  0  0  0  0  0  0
  184.1610  179.3210  141.1390 C   0  0  2  0  0  3  0  0  0  0  0  0
  184.1320  178.6750  143.3820 N   0  0  0  0  0  0  0  0  0  0  0  0
  184.2530  179.5930  142.5510 N   0  0  0  0  0  0  0  0  0  0  0  0
  184.1780  178.9710  144.7870 C   0  0  0  0  0  2  0  0  0  0  0  0
  185.1730  178.0540  145.4800 C   0  0  1  0  0  3  0  0  0  0  0  0
  187.5340  177.3490  145.5370 N   0  0  0  0  0  0  0  0  0  0  0  0
  186.8390  176.7280  144.3720 C   0  0  0  0  0  2  0  0  0  0  0  0
  186.4900  178.0210  144.7080 C   0  0  1  0  0  3  0  0  0  0  0  0
  188.4620  177.3280  146.6180 C   0  0  0  0  0  0  0  0  0  0  0  0
  188.0400  177.0930  147.8500 C   0  0  0  0  0  2  0  0  0  0  0  0
  189.9170  177.5290  146.3600 C   0  0  0  0  0  2  0  0  0  0  0  0
  190.7720  176.9420  147.4760 C   0  0  0  0  0  2  0  0  0  0  0  0
  191.9300  176.1810  146.9280 C   0  0  0  0  0  0  0  0  0  0  0  0
  192.8260  175.7430  147.6960 O   0  0  0  0  0  1  0  0  0  0  0  0
  192.0270  175.9730  145.5580 O   0  0  0  0  0  0  0  0  0  0  0  0
  185.6910  179.8650  146.9830 O   0  0  0  0  0  1  0  0  0  0  0  0
  185.3910  178.5010  146.9210 C   0  0  0  0  0  2  0  0  0  0  0  0
  183.1190  178.3810  140.9030 O   0  0  0  0  0  0  0  0  0  0  0  0
  181.6650  179.8950  139.7750 C   0  0  0  0  0  2  0  0  0  0  0  0
  181.8820  178.7110  140.3410 C   0  0  0  0  0  0  0  0  0  0  0  0
  179.9890  177.5790  141.9200 O   0  0  0  0  0  1  0  0  0  0  0  0
  181.0770  176.0000  140.1450 O   0  0  0  0  0  1  0  0  0  0  0  0
  179.2960  177.9840  139.4360 O   0  0  0  0  0  0  0  0  0  0  0  0
  180.5300  177.5560  140.5110 P   0  0  0  0  0  0  0  0  0  0  0  0
  1  5  1  0  0  0  0
  1  8  1  0  0  0  0
  3  6  1  0  0  0  0
  3  7  1  0  0  0  0
  4  3  1  0  0  0  0
  4  1  1  0  0  0  0
  5 37  1  0  0  0  0
  5  8  1  0  0  0  0
  7  2  1  0  0  0  0
  8  2  1  0  0  0  0
  9  4  1  0  0  0  0
 10  9  1  0  0  0  0
 12 10  1  0  0  0  0
 12 11  2  0  0  0  0
 13 12  1  0  0  0  0
 14 15  2  0  0  0  0
 15 13  1  0  0  0  0
 15 16  1  0  0  0  0
 16 18  1  0  0  0  0
 16 17  1  0  0  0  0
 19 22  1  0  0  0  0
 20 21  1  0  0  0  0
 20 25  1  0  0  0  0
 21 23  1  0  0  0  0
 23 18  1  0  0  0  0
 23 22  1  0  0  0  0
 24 25  1  0  0  0  0
 25 19  1  0  0  0  0
 26 27  1  0  0  0  0
 26 13  1  0  0  0  0
 27 28  1  0  0  0  0
 29 27  2  0  0  0  0
 29 30  1  0  0  0  0
 30 28  1  0  0  0  0
 30 32  1  0  0  0  0
 32 31  1  0  0  0  0
 32 33  2  0  0  0  0
 34 35  1  0  0  0  0
 34 28  1  0  0  0  0
 35 36  1  0  0  0  0
 38 40  1  0  0  0  0
 38 37  1  0  0  0  0
 39 38  2  0  0  0  0
 40 42  1  0  0  0  0
 41 43  1  0  0  0  0
 42 41  2  0  0  0  0
 43 44  1  0  0  0  0
 44 56  1  0  0  0  0
 45 48  1  0  0  0  0
 46 47  1  0  0  0  0
 46 45  1  0  0  0  0
 47 44  1  0  0  0  0
 47 45  1  0  0  0  0
 48 49  2  0  0  0  0
 50 48  1  0  0  0  0
 50 51  1  0  0  0  0
 52 51  1  0  0  0  0
 52 53  1  0  0  0  0
 54 52  2  0  0  0  0
 56 55  1  0  0  0  0
 57 40  1  0  0  0  0
 58 59  2  0  0  0  0
 59 63  1  0  0  0  0
 59 57  1  0  0  0  0
 61 63  1  0  0  0  0
 62 63  2  0  0  0  0
 63 60  1  0  0  0  0
M  END
>  <MODEL>
4

>  <REMARK>
 VINA RESULT:      -5.1      2.689      8.323
  Name = 
  26 active torsions:
  status: ('A' for Active; 'I' for Inactive)
    1  A    between atoms: C_1  and  C_6
    2  A    between atoms: C_1  and  C_18
    3  A    between atoms: C_2  and  O_52
    4  A    between atoms: C_4  and  N_22
    5  A    between atoms: C_4  and  O_42
    6  A    between atoms: C_4  and  C_45
    7  A    between atoms: C_7  and  O_56
    8  A    between atoms: C_7  and  C_62
    9  A    between atoms: C_8  and  C_19
   10  A    between atoms: C_8  and  C_34
   11  A    between atoms: N_11  and  C_13
   12  A    between atoms: O_12  and  C_36
   13  A    between atoms: O_12  and  C_45
   14  A    between atoms: C_13  and  C_47
   15  A    between atoms: O_15  and  C_16
   16  A    between atoms: O_15  and  C_48
   17  A    between atoms: C_18  and  C_24
   18  A    between atoms: N_20  and  C_24
   19  A    between atoms: C_26  and  C_48
   20  A    between atoms: N_28  and  O_52
   21  A    between atoms: C_33  and  C_47
   22  A    between atoms: C_35  and  C_40
   23  A    between atoms: C_38  and  O_56
   24  A    between atoms: O_42  and  C_58
   25  A    between atoms: C_47  and  C_53
   26  A    between atoms: C_58  and  P_60
                            x       y       z     vdW  Elec       q    Type
                         _______ _______ _______ _____ _____    ______ ____

>  <TORSDO>
F 26

$$$$
=
 OpenBabel11062418063D

 63 67  0  0  1  0  0  0  0  0999 V2000
  187.6490  178.4580  137.7290 C   0  0  1  0  0  3  0  0  0  0  0  0
  189.3320  177.9390  135.8860 O   0  0  0  0  0  0  0  0  0  0  0  0
  187.0660  177.1400  135.6130 C   0  0  1  0  0  3  0  0  0  0  0  0
  186.6970  177.4720  137.0480 C   0  0  2  0  0  3  0  0  0  0  0  0
  188.8210  177.6690  138.3100 C   0  0  1  0  0  3  0  0  0  0  0  0
  186.7680  178.2730  134.6390 C   0  0  0  0  0  1  0  0  0  0  0  0
  188.5410  176.8000  135.6150 C   0  0  0  0  0  2  0  0  0  0  0  0
  189.0630  178.5950  137.1300 C   0  0  2  0  0  3  0  0  0  0  0  0
  185.2300  177.8490  137.2250 C   0  0  0  0  0  2  0  0  0  0  0  0
  184.8800  177.9460  138.6000 O   0  0  0  0  0  0  0  0  0  0  0  0
  184.5720  180.1550  139.1340 O   0  0  0  0  0  0  0  0  0  0  0  0
  184.0920  178.9920  139.0780 C   0  0  0  0  0  0  0  0  0  0  0  0
  182.7390  178.7600  139.4820 N   0  0  0  0  0  0  0  0  0  0  0  0
  181.1310  178.9110  141.1650 O   0  0  0  0  0  0  0  0  0  0  0  0
  182.3530  178.8840  140.8600 C   0  0  0  0  0  0  0  0  0  0  0  0
  183.3880  178.9210  141.9430 C   0  0  2  0  0  3  0  0  0  0  0  0
  184.1840  177.6310  141.9400 C   0  0  0  0  0  1  0  0  0  0  0  0
  182.7900  179.1030  143.1940 O   0  0  0  0  0  0  0  0  0  0  0  0
  184.5730  178.9750  146.4010 N   0  0  0  0  0  2  0  0  0  0  0  0
  186.2120  178.6790  144.6060 C   0  0  0  0  0  2  0  0  0  0  0  0
  185.0920  178.5840  143.5760 C   0  0  0  0  0  2  0  0  0  0  0  0
  183.4660  178.7820  145.4650 C   0  0  0  0  0  2  0  0  0  0  0  0
  183.8480  179.3130  144.0820 C   0  0  2  0  0  3  0  0  0  0  0  0
  186.8220  178.2590  146.9750 C   0  0  0  0  0  1  0  0  0  0  0  0
  185.7090  178.1700  145.9540 C   0  0  1  0  0  3  0  0  0  0  0  0
  181.7830  178.6180  138.5010 O   0  0  0  0  0  0  0  0  0  0  0  0
  181.2180  177.3780  138.2070 C   0  0  0  0  0  0  0  0  0  0  0  0
  181.5530  176.2540  137.2620 C   0  0  2  0  0  3  0  0  0  0  0  0
  180.1240  176.7280  138.6410 N   0  0  0  0  0  0  0  0  0  0  0  0
  180.4050  175.6090  137.7640 C   0  0  1  0  0  3  0  0  0  0  0  0
  178.9850  174.1320  136.1350 C   0  0  0  0  0  1  0  0  0  0  0  0
  179.3590  175.4730  136.6840 C   0  0  0  0  0  0  0  0  0  0  0  0
  178.9320  176.5230  136.0880 N   0  0  0  0  0  2  0  0  0  0  0  0
  182.8140  175.5330  137.7230 C   0  0  0  0  0  2  0  0  0  0  0  0
  182.7840  174.0660  137.3180 C   0  0  0  0  0  2  0  0  0  0  0  0
  183.9690  173.7370  136.4310 C   0  0  0  0  0  1  0  0  0  0  0  0
  189.2620  178.3110  139.4970 O   0  0  0  0  0  0  0  0  0  0  0  0
  189.8830  177.6360  140.5510 C   0  0  0  0  0  0  0  0  0  0  0  0
  189.0480  176.6510  141.5650 S   0  0  0  0  0  0  0  0  0  0  0  0
  191.3620  177.7530  140.7100 C   0  0  2  0  0  3  0  0  0  0  0  0
  191.4770  176.0310  139.1380 N   0  0  0  0  0  0  0  0  0  0  0  0
  192.0170  177.0270  139.6510 N   0  0  0  0  0  0  0  0  0  0  0  0
  192.1670  175.2910  138.1180 C   0  0  0  0  0  2  0  0  0  0  0  0
  192.2740  176.1270  136.8520 C   0  0  1  0  0  3  0  0  0  0  0  0
  194.5680  175.3200  136.4540 N   0  0  0  0  0  0  0  0  0  0  0  0
  194.1320  176.2060  135.3350 C   0  0  0  0  0  2  0  0  0  0  0  0
  193.7240  176.5410  136.6110 C   0  0  1  0  0  3  0  0  0  0  0  0
  195.2470  174.1830  136.9800 C   0  0  0  0  0  0  0  0  0  0  0  0
  195.4280  173.1100  136.2270 C   0  0  0  0  0  2  0  0  0  0  0  0
  195.7940  174.2140  138.3680 C   0  0  0  0  0  2  0  0  0  0  0  0
  197.2080  173.6490  138.4270 C   0  0  0  0  0  2  0  0  0  0  0  0
  198.2280  174.7310  138.3220 C   0  0  0  0  0  0  0  0  0  0  0  0
  198.3020  175.6250  139.2050 O   0  0  0  0  0  1  0  0  0  0  0  0
  199.0870  174.7590  137.2310 O   0  0  0  0  0  0  0  0  0  0  0  0
  191.2760  174.0870  136.0450 O   0  0  0  0  0  1  0  0  0  0  0  0
  191.7150  175.3570  135.6600 C   0  0  0  0  0  2  0  0  0  0  0  0
  191.7290  177.1960  141.9660 O   0  0  0  0  0  0  0  0  0  0  0  0
  191.3010  179.0750  143.3670 C   0  0  0  0  0  2  0  0  0  0  0  0
  191.3880  177.7580  143.2000 C   0  0  0  0  0  0  0  0  0  0  0  0
  192.0920  177.1190  145.7400 O   0  0  0  0  0  1  0  0  0  0  0  0
  191.5960  175.0990  144.1600 O   0  0  0  0  0  0  0  0  0  0  0  0
  189.5850  176.7220  145.1270 O   0  0  0  0  0  1  0  0  0  0  0  0
  191.1950  176.6770  144.6090 P   0  0  0  0  0  0  0  0  0  0  0  0
  1  5  1  0  0  0  0
  2  8  1  0  0  0  0
  3  7  1  0  0  0  0
  3  4  1  0  0  0  0
  4  9  1  0  0  0  0
  4  1  1  0  0  0  0
  5 37  1  0  0  0  0
  6  3  1  0  0  0  0
  7  2  1  0  0  0  0
  8  1  1  0  0  0  0
  8  5  1  0  0  0  0
  9 10  1  0  0  0  0
 10 12  1  0  0  0  0
 12 11  2  0  0  0  0
 12 13  1  0  0  0  0
 13 15  1  0  0  0  0
 15 14  2  0  0  0  0
 15 16  1  0  0  0  0
 16 18  1  0  0  0  0
 17 16  1  0  0  0  0
 18 23  1  0  0  0  0
 20 25  1  0  0  0  0
 21 23  1  0  0  0  0
 21 20  1  0  0  0  0
 22 19  1  0  0  0  0
 23 22  1  0  0  0  0
 25 19  1  0  0  0  0
 25 24  1  0  0  0  0
 26 13  1  0  0  0  0
 27 26  1  0  0  0  0
 27 29  2  0  0  0  0
 28 34  1  0  0  0  0
 28 30  1  0  0  0  0
 28 27  1  0  0  0  0
 30 29  1  0  0  0  0
 31 32  1  0  0  0  0
 32 30  1  0  0  0  0
 33 32  2  0  0  0  0
 35 34  1  0  0  0  0
 36 35  1  0  0  0  0
 37 38  1  0  0  0  0
 38 40  1  0  0  0  0
 38 39  2  0  0  0  0
 40 57  1  0  0  0  0
 41 42  2  0  0  0  0
 42 40  1  0  0  0  0
 43 41  1  0  0  0  0
 44 43  1  0  0  0  0
 45 47  1  0  0  0  0
 45 48  1  0  0  0  0
 46 45  1  0  0  0  0
 46 47  1  0  0  0  0
 47 44  1  0  0  0  0
 48 50  1  0  0  0  0
 49 48  2  0  0  0  0
 50 51  1  0  0  0  0
 52 51  1  0  0  0  0
 52 53  1  0  0  0  0
 54 52  2  0  0  0  0
 56 55  1  0  0  0  0
 56 44  1  0  0  0  0
 57 59  1  0  0  0  0
 59 58  2  0  0  0  0
 59 63  1  0  0  0  0
 61 63  2  0  0  0  0
 63 62  1  0  0  0  0
 63 60  1  0  0  0  0
M  END
>  <MODEL>
5

>  <REMARK>
 VINA RESULT:      -5.0      2.942     11.455
  Name = 
  26 active torsions:
  status: ('A' for Active; 'I' for Inactive)
    1  A    between atoms: C_1  and  C_6
    2  A    between atoms: C_1  and  C_18
    3  A    between atoms: C_2  and  O_52
    4  A    between atoms: C_4  and  N_22
    5  A    between atoms: C_4  and  O_42
    6  A    between atoms: C_4  and  C_45
    7  A    between atoms: C_7  and  O_56
    8  A    between atoms: C_7  and  C_62
    9  A    between atoms: C_8  and  C_19
   10  A    between atoms: C_8  and  C_34
   11  A    between atoms: N_11  and  C_13
   12  A    between atoms: O_12  and  C_36
   13  A    between atoms: O_12  and  C_45
   14  A    between atoms: C_13  and  C_47
   15  A    between atoms: O_15  and  C_16
   16  A    between atoms: O_15  and  C_48
   17  A    between atoms: C_18  and  C_24
   18  A    between atoms: N_20  and  C_24
   19  A    between atoms: C_26  and  C_48
   20  A    between atoms: N_28  and  O_52
   21  A    between atoms: C_33  and  C_47
   22  A    between atoms: C_35  and  C_40
   23  A    between atoms: C_38  and  O_56
   24  A    between atoms: O_42  and  C_58
   25  A    between atoms: C_47  and  C_53
   26  A    between atoms: C_58  and  P_60
                            x       y       z     vdW  Elec       q    Type
                         _______ _______ _______ _____ _____    ______ ____

>  <TORSDO>
F 26

$$$$
=
 OpenBabel11062418063D

 63 67  0  0  1  0  0  0  0  0999 V2000
  188.9230  178.5120  140.2080 C   0  0  1  0  0  3  0  0  0  0  0  0
  189.8910  177.4910  142.3340 O   0  0  0  0  0  0  0  0  0  0  0  0
  190.7530  176.7210  140.2100 C   0  0  1  0  0  3  0  0  0  0  0  0
  189.6540  177.4160  139.4280 C   0  0  2  0  0  3  0  0  0  0  0  0
  187.8070  177.8590  141.0200 C   0  0  1  0  0  3  0  0  0  0  0  0
  191.9990  177.5800  140.3870 C   0  0  0  0  0  1  0  0  0  0  0  0
  190.1570  176.3460  141.5510 C   0  0  0  0  0  2  0  0  0  0  0  0
  189.0030  178.4490  141.7460 C   0  0  2  0  0  3  0  0  0  0  0  0
  190.0920  177.8720  138.0400 C   0  0  0  0  0  2  0  0  0  0  0  0
  189.5530  177.0360  137.0230 O   0  0  0  0  0  0  0  0  0  0  0  0
  189.7360  174.9710  138.0050 O   0  0  0  0  0  0  0  0  0  0  0  0
  189.8520  175.6750  136.9670 C   0  0  0  0  0  0  0  0  0  0  0  0
  190.2640  175.0690  135.7380 N   0  0  0  0  0  0  0  0  0  0  0  0
  191.8770  173.8320  134.5940 O   0  0  0  0  0  0  0  0  0  0  0  0
  191.5990  174.5660  135.5800 C   0  0  0  0  0  0  0  0  0  0  0  0
  192.6810  174.9550  136.5420 C   0  0  2  0  0  3  0  0  0  0  0  0
  193.3890  176.2000  136.0470 C   0  0  0  0  0  1  0  0  0  0  0  0
  193.6050  173.9160  136.6950 O   0  0  0  0  0  0  0  0  0  0  0  0
  196.3680  174.5680  139.0230 N   0  0  0  0  0  2  0  0  0  0  0  0
  197.2250  174.7960  136.7410 C   0  0  0  0  0  2  0  0  0  0  0  0
  195.9130  174.2650  136.1770 C   0  0  0  0  0  2  0  0  0  0  0  0
  195.1350  173.9540  138.5330 C   0  0  0  0  0  2  0  0  0  0  0  0
  194.7720  174.5260  137.1600 C   0  0  2  0  0  3  0  0  0  0  0  0
  198.7680  174.7230  138.6830 C   0  0  0  0  0  1  0  0  0  0  0  0
  197.4620  174.2000  138.1250 C   0  0  1  0  0  3  0  0  0  0  0  0
  189.3010  174.7960  134.7920 O   0  0  0  0  0  0  0  0  0  0  0  0
  187.9650  174.6080  135.1450 C   0  0  0  0  0  0  0  0  0  0  0  0
  186.8250  173.7930  134.5940 C   0  0  2  0  0  3  0  0  0  0  0  0
  187.1760  175.1210  136.1040 N   0  0  0  0  0  0  0  0  0  0  0  0
  186.0460  174.3480  135.6280 C   0  0  1  0  0  3  0  0  0  0  0  0
  185.1870  176.7050  134.8780 C   0  0  0  0  0  1  0  0  0  0  0  0
  184.9650  175.2360  135.0610 C   0  0  0  0  0  0  0  0  0  0  0  0
  183.7790  174.7710  134.9240 N   0  0  0  0  0  2  0  0  0  0  0  0
  187.0640  172.3100  134.8440 C   0  0  0  0  0  2  0  0  0  0  0  0
  188.2480  172.0960  135.7770 C   0  0  0  0  0  2  0  0  0  0  0  0
  189.3190  171.2680  135.0930 C   0  0  0  0  0  1  0  0  0  0  0  0
  186.7180  178.7660  141.1130 O   0  0  0  0  0  0  0  0  0  0  0  0
  185.6280  178.7510  140.2390 C   0  0  0  0  0  0  0  0  0  0  0  0
  185.7640  178.2310  138.6870 S   0  0  0  0  0  0  0  0  0  0  0  0
  184.2840  179.1430  140.7550 C   0  0  2  0  0  3  0  0  0  0  0  0
  184.8780  178.7770  142.9830 N   0  0  0  0  0  0  0  0  0  0  0  0
  184.3990  179.5490  142.1330 N   0  0  0  0  0  0  0  0  0  0  0  0
  184.9390  179.1800  144.3600 C   0  0  0  0  0  2  0  0  0  0  0  0
  185.7750  178.1880  145.1550 C   0  0  1  0  0  3  0  0  0  0  0  0
  188.0970  177.3660  145.0850 N   0  0  0  0  0  0  0  0  0  0  0  0
  187.1560  176.2910  144.6550 C   0  0  0  0  0  2  0  0  0  0  0  0
  186.8640  177.5850  144.2720 C   0  0  1  0  0  3  0  0  0  0  0  0
  189.2600  177.8380  145.7580 C   0  0  0  0  0  0  0  0  0  0  0  0
  190.1740  178.5310  145.0980 C   0  0  0  0  0  2  0  0  0  0  0  0
  189.4320  177.5900  147.2190 C   0  0  0  0  0  2  0  0  0  0  0  0
  190.0950  176.2440  147.4860 C   0  0  0  0  0  2  0  0  0  0  0  0
  191.5750  176.3290  147.3310 C   0  0  0  0  0  0  0  0  0  0  0  0
  192.3000  176.6550  148.3070 O   0  0  0  0  0  1  0  0  0  0  0  0
  192.1500  176.0660  146.0940 O   0  0  0  0  0  0  0  0  0  0  0  0
  185.3720  179.3480  147.2300 O   0  0  0  0  0  1  0  0  0  0  0  0
  186.3740  178.8660  146.3830 C   0  0  0  0  0  2  0  0  0  0  0  0
  183.4160  178.0200  140.6620 O   0  0  0  0  0  0  0  0  0  0  0  0
  181.1850  178.8580  140.6490 C   0  0  0  0  0  2  0  0  0  0  0  0
  182.1250  178.0730  140.1280 C   0  0  0  0  0  0  0  0  0  0  0  0
  181.3630  177.7310  137.5470 O   0  0  0  0  0  0  0  0  0  0  0  0
  180.3710  176.0230  139.2570 O   0  0  0  0  0  1  0  0  0  0  0  0
  183.0190  175.9430  138.4840 O   0  0  0  0  0  1  0  0  0  0  0  0
  181.7020  176.9580  138.7980 P   0  0  0  0  0  0  0  0  0  0  0  0
  1  5  1  0  0  0  0
  1  8  1  0  0  0  0
  3  6  1  0  0  0  0
  3  7  1  0  0  0  0
  4  1  1  0  0  0  0
  4  3  1  0  0  0  0
  5 37  1  0  0  0  0
  5  8  1  0  0  0  0
  7  2  1  0  0  0  0
  8  2  1  0  0  0  0
  9  4  1  0  0  0  0
 10  9  1  0  0  0  0
 12 10  1  0  0  0  0
 12 11  2  0  0  0  0
 13 12  1  0  0  0  0
 14 15  2  0  0  0  0
 15 13  1  0  0  0  0
 15 16  1  0  0  0  0
 16 18  1  0  0  0  0
 17 16  1  0  0  0  0
 18 23  1  0  0  0  0
 20 25  1  0  0  0  0
 21 20  1  0  0  0  0
 21 23  1  0  0  0  0
 22 19  1  0  0  0  0
 23 22  1  0  0  0  0
 25 24  1  0  0  0  0
 25 19  1  0  0  0  0
 26 27  1  0  0  0  0
 26 13  1  0  0  0  0
 27 29  2  0  0  0  0
 28 34  1  0  0  0  0
 28 27  1  0  0  0  0
 28 30  1  0  0  0  0
 30 29  1  0  0  0  0
 31 32  1  0  0  0  0
 32 30  1  0  0  0  0
 33 32  2  0  0  0  0
 34 35  1  0  0  0  0
 36 35  1  0  0  0  0
 38 40  1  0  0  0  0
 38 37  1  0  0  0  0
 39 38  2  0  0  0  0
 40 42  1  0  0  0  0
 41 43  1  0  0  0  0
 42 41  2  0  0  0  0
 43 44  1  0  0  0  0
 44 56  1  0  0  0  0
 45 48  1  0  0  0  0
 46 45  1  0  0  0  0
 47 46  1  0  0  0  0
 47 45  1  0  0  0  0
 47 44  1  0  0  0  0
 48 50  1  0  0  0  0
 49 48  2  0  0  0  0
 50 51  1  0  0  0  0
 52 51  1  0  0  0  0
 52 53  1  0  0  0  0
 54 52  2  0  0  0  0
 56 55  1  0  0  0  0
 57 40  1  0  0  0  0
 59 58  2  0  0  0  0
 59 57  1  0  0  0  0
 60 63  2  0  0  0  0
 62 63  1  0  0  0  0
 63 61  1  0  0  0  0
 63 59  1  0  0  0  0
M  END
>  <MODEL>
6

>  <REMARK>
 VINA RESULT:      -4.9      2.745      8.009
  Name = 
  26 active torsions:
  status: ('A' for Active; 'I' for Inactive)
    1  A    between atoms: C_1  and  C_6
    2  A    between atoms: C_1  and  C_18
    3  A    between atoms: C_2  and  O_52
    4  A    between atoms: C_4  and  N_22
    5  A    between atoms: C_4  and  O_42
    6  A    between atoms: C_4  and  C_45
    7  A    between atoms: C_7  and  O_56
    8  A    between atoms: C_7  and  C_62
    9  A    between atoms: C_8  and  C_19
   10  A    between atoms: C_8  and  C_34
   11  A    between atoms: N_11  and  C_13
   12  A    between atoms: O_12  and  C_36
   13  A    between atoms: O_12  and  C_45
   14  A    between atoms: C_13  and  C_47
   15  A    between atoms: O_15  and  C_16
   16  A    between atoms: O_15  and  C_48
   17  A    between atoms: C_18  and  C_24
   18  A    between atoms: N_20  and  C_24
   19  A    between atoms: C_26  and  C_48
   20  A    between atoms: N_28  and  O_52
   21  A    between atoms: C_33  and  C_47
   22  A    between atoms: C_35  and  C_40
   23  A    between atoms: C_38  and  O_56
   24  A    between atoms: O_42  and  C_58
   25  A    between atoms: C_47  and  C_53
   26  A    between atoms: C_58  and  P_60
                            x       y       z     vdW  Elec       q    Type
                         _______ _______ _______ _____ _____    ______ ____

>  <TORSDO>
F 26

$$$$
=
 OpenBabel11062418063D

 63 67  0  0  1  0  0  0  0  0999 V2000
  188.8630  177.1710  136.7550 C   0  0  1  0  0  3  0  0  0  0  0  0
  187.8570  178.2260  134.6640 O   0  0  0  0  0  0  0  0  0  0  0  0
  186.3760  177.7270  136.5080 C   0  0  1  0  0  3  0  0  0  0  0  0
  187.4310  176.9120  137.2330 C   0  0  2  0  0  3  0  0  0  0  0  0
  189.1330  176.2770  135.5470 C   0  0  1  0  0  3  0  0  0  0  0  0
  186.3650  179.1950  136.9160 C   0  0  0  0  0  1  0  0  0  0  0  0
  186.6570  177.5770  135.0280 C   0  0  0  0  0  2  0  0  0  0  0  0
  189.0330  177.7790  135.3490 C   0  0  2  0  0  3  0  0  0  0  0  0
  187.2980  176.9600  138.7520 C   0  0  0  0  0  2  0  0  0  0  0  0
  188.3880  177.6530  139.3480 O   0  0  0  0  0  0  0  0  0  0  0  0
  189.1020  179.3740  140.6860 O   0  0  0  0  0  0  0  0  0  0  0  0
  188.1920  178.5540  140.3930 C   0  0  0  0  0  0  0  0  0  0  0  0
  186.9590  178.5720  141.1200 N   0  0  0  0  0  0  0  0  0  0  0  0
  185.8840  178.4160  143.1840 O   0  0  0  0  0  0  0  0  0  0  0  0
  186.9130  178.1750  142.4980 C   0  0  0  0  0  0  0  0  0  0  0  0
  188.0530  177.4210  143.1140 C   0  0  2  0  0  3  0  0  0  0  0  0
  187.5760  176.0650  143.5960 C   0  0  0  0  0  1  0  0  0  0  0  0
  188.5990  178.1360  144.1850 O   0  0  0  0  0  0  0  0  0  0  0  0
  191.4530  176.0650  145.2090 N   0  0  0  0  0  2  0  0  0  0  0  0
  190.2120  176.7010  147.2220 C   0  0  0  0  0  2  0  0  0  0  0  0
  189.3390  177.6470  146.4050 C   0  0  0  0  0  2  0  0  0  0  0  0
  190.7120  177.0370  144.4060 C   0  0  0  0  0  2  0  0  0  0  0  0
  189.2880  177.1900  144.9470 C   0  0  2  0  0  3  0  0  0  0  0  0
  192.4560  175.6530  147.3820 C   0  0  0  0  0  1  0  0  0  0  0  0
  191.5860  176.5860  146.5690 C   0  0  1  0  0  3  0  0  0  0  0  0
  185.8650  179.1680  140.5300 O   0  0  0  0  0  0  0  0  0  0  0  0
  184.5810  178.6500  140.6850 C   0  0  0  0  0  0  0  0  0  0  0  0
  183.5320  178.1120  139.7470 C   0  0  2  0  0  3  0  0  0  0  0  0
  183.7730  178.4670  141.7430 N   0  0  0  0  0  0  0  0  0  0  0  0
  182.7320  177.9250  140.8920 C   0  0  1  0  0  3  0  0  0  0  0  0
  180.1590  178.3110  141.1830 C   0  0  0  0  0  1  0  0  0  0  0  0
  181.5240  178.8290  140.8480 C   0  0  0  0  0  0  0  0  0  0  0  0
  181.6300  179.9930  140.3260 N   0  0  0  0  0  2  0  0  0  0  0  0
  183.9690  176.7680  139.1780 C   0  0  0  0  0  2  0  0  0  0  0  0
  183.0320  176.3120  138.0690 C   0  0  0  0  0  2  0  0  0  0  0  0
  183.8260  175.7740  136.8930 C   0  0  0  0  0  1  0  0  0  0  0  0
  190.5030  175.9030  135.5520 O   0  0  0  0  0  0  0  0  0  0  0  0
  191.0050  174.8300  136.2940 C   0  0  0  0  0  0  0  0  0  0  0  0
  191.8160  175.0510  137.7040 S   0  0  0  0  0  0  0  0  0  0  0  0
  190.7250  173.4400  135.8290 C   0  0  2  0  0  3  0  0  0  0  0  0
  192.7160  172.2850  135.4410 N   0  0  0  0  0  0  0  0  0  0  0  0
  191.8010  172.9910  134.9820 N   0  0  0  0  0  0  0  0  0  0  0  0
  193.8050  171.8870  134.5940 C   0  0  0  0  0  2  0  0  0  0  0  0
  195.1080  171.9080  135.3780 C   0  0  1  0  0  3  0  0  0  0  0  0
  196.4340  173.6020  136.5810 N   0  0  0  0  0  0  0  0  0  0  0  0
  195.2900  174.2490  135.8750 C   0  0  0  0  0  2  0  0  0  0  0  0
  195.0720  173.0070  136.4370 C   0  0  1  0  0  3  0  0  0  0  0  0
  197.7840  173.5610  137.0350 C   0  0  0  0  0  0  0  0  0  0  0  0
  198.7700  173.3810  136.1710 C   0  0  0  0  0  2  0  0  0  0  0  0
  198.0930  173.7640  138.4800 C   0  0  0  0  0  2  0  0  0  0  0  0
  196.9840  174.5300  139.1900 C   0  0  0  0  0  2  0  0  0  0  0  0
  197.5170  175.3130  140.3420 C   0  0  0  0  0  0  0  0  0  0  0  0
  196.9520  176.3780  140.7030 O   0  0  0  0  0  0  0  0  0  0  0  0
  198.6540  174.8690  141.0030 O   0  0  0  0  0  1  0  0  0  0  0  0
  196.1430  169.7420  135.1660 O   0  0  0  0  0  1  0  0  0  0  0  0
  195.3680  170.5430  136.0080 C   0  0  0  0  0  2  0  0  0  0  0  0
  189.5080  173.4440  135.0920 O   0  0  0  0  0  0  0  0  0  0  0  0
  188.7260  171.2190  134.7510 C   0  0  0  0  0  2  0  0  0  0  0  0
  188.5260  172.4550  135.2010 C   0  0  0  0  0  0  0  0  0  0  0  0
  185.9960  171.7170  135.8430 O   0  0  0  0  0  1  0  0  0  0  0  0
  186.2620  174.1300  134.8770 O   0  0  0  0  0  0  0  0  0  0  0  0
  187.0970  173.4780  137.4250 O   0  0  0  0  0  1  0  0  0  0  0  0
  186.9210  172.9090  135.8410 P   0  0  0  0  0  0  0  0  0  0  0  0
  1  4  1  0  0  0  0
  2  7  1  0  0  0  0
  2  8  1  0  0  0  0
  3  6  1  0  0  0  0
  3  4  1  0  0  0  0
  4  9  1  0  0  0  0
  5 37  1  0  0  0  0
  5  1  1  0  0  0  0
  7  3  1  0  0  0  0
  8  5  1  0  0  0  0
  8  1  1  0  0  0  0
  9 10  1  0  0  0  0
 10 12  1  0  0  0  0
 12 11  2  0  0  0  0
 12 13  1  0  0  0  0
 13 15  1  0  0  0  0
 15 16  1  0  0  0  0
 15 14  2  0  0  0  0
 16 17  1  0  0  0  0
 16 18  1  0  0  0  0
 18 23  1  0  0  0  0
 19 25  1  0  0  0  0
 21 20  1  0  0  0  0
 22 23  1  0  0  0  0
 22 19  1  0  0  0  0
 23 21  1  0  0  0  0
 25 20  1  0  0  0  0
 25 24  1  0  0  0  0
 26 27  1  0  0  0  0
 26 13  1  0  0  0  0
 27 29  2  0  0  0  0
 28 27  1  0  0  0  0
 28 30  1  0  0  0  0
 30 29  1  0  0  0  0
 32 30  1  0  0  0  0
 32 31  1  0  0  0  0
 33 32  2  0  0  0  0
 34 28  1  0  0  0  0
 35 34  1  0  0  0  0
 36 35  1  0  0  0  0
 37 38  1  0  0  0  0
 38 39  2  0  0  0  0
 40 38  1  0  0  0  0
 42 41  2  0  0  0  0
 42 40  1  0  0  0  0
 43 44  1  0  0  0  0
 43 41  1  0  0  0  0
 44 56  1  0  0  0  0
 44 47  1  0  0  0  0
 45 48  1  0  0  0  0
 46 47  1  0  0  0  0
 46 45  1  0  0  0  0
 47 45  1  0  0  0  0
 48 50  1  0  0  0  0
 49 48  2  0  0  0  0
 50 51  1  0  0  0  0
 51 52  1  0  0  0  0
 52 53  2  0  0  0  0
 52 54  1  0  0  0  0
 55 56  1  0  0  0  0
 57 59  1  0  0  0  0
 57 40  1  0  0  0  0
 58 59  2  0  0  0  0
 59 63  1  0  0  0  0
 61 63  2  0  0  0  0
 63 60  1  0  0  0  0
 63 62  1  0  0  0  0
M  END
>  <MODEL>
7

>  <REMARK>
 VINA RESULT:      -4.3      3.573     11.966
  Name = 
  26 active torsions:
  status: ('A' for Active; 'I' for Inactive)
    1  A    between atoms: C_1  and  C_6
    2  A    between atoms: C_1  and  C_18
    3  A    between atoms: C_2  and  O_52
    4  A    between atoms: C_4  and  N_22
    5  A    between atoms: C_4  and  O_42
    6  A    between atoms: C_4  and  C_45
    7  A    between atoms: C_7  and  O_56
    8  A    between atoms: C_7  and  C_62
    9  A    between atoms: C_8  and  C_19
   10  A    between atoms: C_8  and  C_34
   11  A    between atoms: N_11  and  C_13
   12  A    between atoms: O_12  and  C_36
   13  A    between atoms: O_12  and  C_45
   14  A    between atoms: C_13  and  C_47
   15  A    between atoms: O_15  and  C_16
   16  A    between atoms: O_15  and  C_48
   17  A    between atoms: C_18  and  C_24
   18  A    between atoms: N_20  and  C_24
   19  A    between atoms: C_26  and  C_48
   20  A    between atoms: N_28  and  O_52
   21  A    between atoms: C_33  and  C_47
   22  A    between atoms: C_35  and  C_40
   23  A    between atoms: C_38  and  O_56
   24  A    between atoms: O_42  and  C_58
   25  A    between atoms: C_47  and  C_53
   26  A    between atoms: C_58  and  P_60
                            x       y       z     vdW  Elec       q    Type
                         _______ _______ _______ _____ _____    ______ ____

>  <TORSDO>
F 26

$$$$
=
 OpenBabel11062418063D

 63 67  0  0  1  0  0  0  0  0999 V2000
  189.0220  176.9120  139.3680 C   0  0  1  0  0  3  0  0  0  0  0  0
  187.6640  178.6380  138.0740 O   0  0  0  0  0  0  0  0  0  0  0  0
  189.9580  178.2660  137.4070 C   0  0  1  0  0  3  0  0  0  0  0  0
  190.2630  177.4430  138.6450 C   0  0  2  0  0  3  0  0  0  0  0  0
  188.5240  177.9950  140.3220 C   0  0  1  0  0  3  0  0  0  0  0  0
  189.4940  177.4240  136.2250 C   0  0  0  0  0  1  0  0  0  0  0  0
  188.8980  179.2710  137.8070 C   0  0  0  0  0  2  0  0  0  0  0  0
  187.6910  177.6420  139.1020 C   0  0  2  0  0  3  0  0  0  0  0  0
  191.3170  176.3650  138.4130 C   0  0  0  0  0  2  0  0  0  0  0  0
  192.2460  176.7550  137.4080 O   0  0  0  0  0  0  0  0  0  0  0  0
  192.8260  176.1090  135.2860 O   0  0  0  0  0  0  0  0  0  0  0  0
  192.7790  175.8290  136.5120 C   0  0  0  0  0  0  0  0  0  0  0  0
  193.2920  174.5770  136.9770 N   0  0  0  0  0  0  0  0  0  0  0  0
  193.2200  172.2490  136.8520 O   0  0  0  0  0  0  0  0  0  0  0  0
  192.6360  173.3440  136.6410 C   0  0  0  0  0  0  0  0  0  0  0  0
  191.2380  173.3470  136.0990 C   0  0  2  0  0  3  0  0  0  0  0  0
  191.2660  173.5660  134.6000 C   0  0  0  0  0  1  0  0  0  0  0  0
  190.4730  174.3480  136.7070 O   0  0  0  0  0  0  0  0  0  0  0  0
  186.9040  173.9710  135.9330 N   0  0  0  0  0  2  0  0  0  0  0  0
  187.8080  171.7560  136.4560 C   0  0  0  0  0  2  0  0  0  0  0  0
  189.2230  172.3220  136.4850 C   0  0  0  0  0  2  0  0  0  0  0  0
  188.2500  174.5350  135.8460 C   0  0  0  0  0  2  0  0  0  0  0  0
  189.1870  173.8130  136.8170 C   0  0  2  0  0  3  0  0  0  0  0  0
  185.5490  172.0110  135.4610 C   0  0  0  0  0  1  0  0  0  0  0  0
  186.9520  172.5760  135.4960 C   0  0  1  0  0  3  0  0  0  0  0  0
  194.5330  174.5640  137.5750 O   0  0  0  0  0  0  0  0  0  0  0  0
  195.6830  174.2300  136.8610 C   0  0  0  0  0  0  0  0  0  0  0  0
  195.9950  173.9620  135.4120 C   0  0  2  0  0  3  0  0  0  0  0  0
  196.9570  173.9840  137.2120 N   0  0  0  0  0  0  0  0  0  0  0  0
  197.3190  173.7320  135.8320 C   0  0  1  0  0  3  0  0  0  0  0  0
  196.8780  171.1750  136.1850 C   0  0  0  0  0  1  0  0  0  0  0  0
  197.7010  172.2880  135.6140 C   0  0  0  0  0  0  0  0  0  0  0  0
  198.8460  172.0110  135.1110 N   0  0  0  0  0  2  0  0  0  0  0  0
  195.9090  175.2520  134.6050 C   0  0  0  0  0  2  0  0  0  0  0  0
  196.6490  176.3850  135.3020 C   0  0  0  0  0  2  0  0  0  0  0  0
  196.0110  177.7190  134.9670 C   0  0  0  0  0  1  0  0  0  0  0  0
  187.9550  177.3720  141.4650 O   0  0  0  0  0  0  0  0  0  0  0  0
  188.5940  177.3120  142.7060 C   0  0  0  0  0  0  0  0  0  0  0  0
  190.2090  177.5640  142.8660 S   0  0  0  0  0  0  0  0  0  0  0  0
  187.7710  177.0920  143.9300 C   0  0  2  0  0  3  0  0  0  0  0  0
  185.7960  178.2680  143.5260 N   0  0  0  0  0  0  0  0  0  0  0  0
  186.3730  177.1680  143.5900 N   0  0  0  0  0  0  0  0  0  0  0  0
  184.3900  178.3220  143.2330 C   0  0  0  0  0  2  0  0  0  0  0  0
  184.1640  178.1450  141.7400 C   0  0  1  0  0  3  0  0  0  0  0  0
  182.2890  178.0160  140.1460 N   0  0  0  0  0  0  0  0  0  0  0  0
  181.7890  177.8590  141.5430 C   0  0  0  0  0  2  0  0  0  0  0  0
  182.8230  178.7500  141.3320 C   0  0  1  0  0  3  0  0  0  0  0  0
  182.2830  177.7060  138.7550 C   0  0  0  0  0  0  0  0  0  0  0  0
  181.7990  178.5750  137.8830 C   0  0  0  0  0  2  0  0  0  0  0  0
  182.8630  176.4190  138.2730 C   0  0  0  0  0  2  0  0  0  0  0  0
  182.5490  176.1770  136.8020 C   0  0  0  0  0  2  0  0  0  0  0  0
  182.7950  174.7570  136.4220 C   0  0  0  0  0  0  0  0  0  0  0  0
  183.1160  173.9100  137.2970 O   0  0  0  0  0  1  0  0  0  0  0  0
  182.6880  174.3760  135.0910 O   0  0  0  0  0  0  0  0  0  0  0  0
  184.8430  179.7480  140.0730 O   0  0  0  0  0  1  0  0  0  0  0  0
  185.3120  178.7690  140.9530 C   0  0  0  0  0  2  0  0  0  0  0  0
  188.0860  178.1070  144.8770 O   0  0  0  0  0  0  0  0  0  0  0  0
  186.6760  178.4370  146.7700 C   0  0  0  0  0  2  0  0  0  0  0  0
  187.8210  178.0060  146.2460 C   0  0  0  0  0  0  0  0  0  0  0  0
  189.3270  178.3600  148.4750 O   0  0  0  0  0  1  0  0  0  0  0  0
  190.5470  177.2530  146.4470 O   0  0  0  0  0  0  0  0  0  0  0  0
  188.6640  175.8930  147.9370 O   0  0  0  0  0  1  0  0  0  0  0  0
  189.1120  177.4060  147.3260 P   0  0  0  0  0  0  0  0  0  0  0  0
  1  5  1  0  0  0  0
  2  8  1  0  0  0  0
  3  7  1  0  0  0  0
  3  4  1  0  0  0  0
  4  1  1  0  0  0  0
  5 37  1  0  0  0  0
  6  3  1  0  0  0  0
  7  2  1  0  0  0  0
  8  1  1  0  0  0  0
  8  5  1  0  0  0  0
  9  4  1  0  0  0  0
 10  9  1  0  0  0  0
 11 12  2  0  0  0  0
 12 13  1  0  0  0  0
 12 10  1  0  0  0  0
 13 26  1  0  0  0  0
 15 14  2  0  0  0  0
 15 13  1  0  0  0  0
 16 15  1  0  0  0  0
 16 18  1  0  0  0  0
 17 16  1  0  0  0  0
 18 23  1  0  0  0  0
 20 21  1  0  0  0  0
 21 23  1  0  0  0  0
 22 19  1  0  0  0  0
 22 23  1  0  0  0  0
 24 25  1  0  0  0  0
 25 19  1  0  0  0  0
 25 20  1  0  0  0  0
 27 29  2  0  0  0  0
 27 26  1  0  0  0  0
 28 30  1  0  0  0  0
 28 27  1  0  0  0  0
 30 29  1  0  0  0  0
 32 30  1  0  0  0  0
 32 31  1  0  0  0  0
 33 32  2  0  0  0  0
 34 35  1  0  0  0  0
 34 28  1  0  0  0  0
 36 35  1  0  0  0  0
 37 38  1  0  0  0  0
 38 39  2  0  0  0  0
 38 40  1  0  0  0  0
 40 57  1  0  0  0  0
 41 42  2  0  0  0  0
 42 40  1  0  0  0  0
 43 41  1  0  0  0  0
 44 43  1  0  0  0  0
 45 47  1  0  0  0  0
 45 46  1  0  0  0  0
 47 46  1  0  0  0  0
 47 44  1  0  0  0  0
 48 45  1  0  0  0  0
 49 48  2  0  0  0  0
 50 48  1  0  0  0  0
 51 50  1  0  0  0  0
 52 51  1  0  0  0  0
 52 53  1  0  0  0  0
 54 52  2  0  0  0  0
 55 56  1  0  0  0  0
 56 44  1  0  0  0  0
 57 59  1  0  0  0  0
 59 58  2  0  0  0  0
 59 63  1  0  0  0  0
 61 63  2  0  0  0  0
 63 62  1  0  0  0  0
 63 60  1  0  0  0  0
M  END
>  <MODEL>
8

>  <REMARK>
 VINA RESULT:      -4.3      2.751      4.699
  Name = 
  26 active torsions:
  status: ('A' for Active; 'I' for Inactive)
    1  A    between atoms: C_1  and  C_6
    2  A    between atoms: C_1  and  C_18
    3  A    between atoms: C_2  and  O_52
    4  A    between atoms: C_4  and  N_22
    5  A    between atoms: C_4  and  O_42
    6  A    between atoms: C_4  and  C_45
    7  A    between atoms: C_7  and  O_56
    8  A    between atoms: C_7  and  C_62
    9  A    between atoms: C_8  and  C_19
   10  A    between atoms: C_8  and  C_34
   11  A    between atoms: N_11  and  C_13
   12  A    between atoms: O_12  and  C_36
   13  A    between atoms: O_12  and  C_45
   14  A    between atoms: C_13  and  C_47
   15  A    between atoms: O_15  and  C_16
   16  A    between atoms: O_15  and  C_48
   17  A    between atoms: C_18  and  C_24
   18  A    between atoms: N_20  and  C_24
   19  A    between atoms: C_26  and  C_48
   20  A    between atoms: N_28  and  O_52
   21  A    between atoms: C_33  and  C_47
   22  A    between atoms: C_35  and  C_40
   23  A    between atoms: C_38  and  O_56
   24  A    between atoms: O_42  and  C_58
   25  A    between atoms: C_47  and  C_53
   26  A    between atoms: C_58  and  P_60
                            x       y       z     vdW  Elec       q    Type
                         _______ _______ _______ _____ _____    ______ ____

>  <TORSDO>
F 26

$$$$
=
 OpenBabel11062418063D

 63 67  0  0  1  0  0  0  0  0999 V2000
  186.9140  176.9150  136.9080 C   0  0  1  0  0  3  0  0  0  0  0  0
  186.0480  174.6960  136.0010 O   0  0  0  0  0  0  0  0  0  0  0  0
  188.0960  175.5820  135.0700 C   0  0  1  0  0  3  0  0  0  0  0  0
  187.9070  176.9290  135.7440 C   0  0  2  0  0  3  0  0  0  0  0  0
  185.5080  177.1040  136.3410 C   0  0  1  0  0  3  0  0  0  0  0  0
  188.9150  174.6040  135.9030 C   0  0  0  0  0  1  0  0  0  0  0  0
  186.7100  175.0360  134.8010 C   0  0  0  0  0  2  0  0  0  0  0  0
  185.8900  175.7630  136.9430 C   0  0  2  0  0  3  0  0  0  0  0  0
  189.2200  177.6200  136.0960 C   0  0  0  0  0  2  0  0  0  0  0  0
  189.4460  177.6240  137.5000 O   0  0  0  0  0  0  0  0  0  0  0  0
  189.6620  175.7870  138.8550 O   0  0  0  0  0  0  0  0  0  0  0  0
  190.2190  176.6390  138.1140 C   0  0  0  0  0  0  0  0  0  0  0  0
  191.6310  176.5750  137.8920 N   0  0  0  0  0  0  0  0  0  0  0  0
  193.7730  176.5660  138.8130 O   0  0  0  0  0  0  0  0  0  0  0  0
  192.5550  176.8530  138.9540 C   0  0  0  0  0  0  0  0  0  0  0  0
  192.0950  177.5370  140.2060 C   0  0  2  0  0  3  0  0  0  0  0  0
  193.2890  177.8880  141.0710 C   0  0  0  0  0  1  0  0  0  0  0  0
  191.2170  176.7180  140.9240 O   0  0  0  0  0  0  0  0  0  0  0  0
  191.4650  178.0000  144.3560 N   0  0  0  0  0  2  0  0  0  0  0  0
  191.6460  175.5590  144.4390 C   0  0  0  0  0  2  0  0  0  0  0  0
  191.2940  175.4660  142.9590 C   0  0  0  0  0  2  0  0  0  0  0  0
  191.0200  177.9510  142.9640 C   0  0  0  0  0  2  0  0  0  0  0  0
  191.6680  176.7650  142.2460 C   0  0  2  0  0  3  0  0  0  0  0  0
  191.3340  176.8880  146.5120 C   0  0  0  0  0  1  0  0  0  0  0  0
  190.9900  176.7990  145.0410 C   0  0  1  0  0  3  0  0  0  0  0  0
  192.0780  176.0440  136.7010 O   0  0  0  0  0  0  0  0  0  0  0  0
  192.5010  174.7190  136.6070 C   0  0  0  0  0  0  0  0  0  0  0  0
  193.5870  174.0010  135.8500 C   0  0  2  0  0  3  0  0  0  0  0  0
  192.0650  173.5640  137.1380 N   0  0  0  0  0  0  0  0  0  0  0  0
  193.1010  172.8220  136.4480 C   0  0  1  0  0  3  0  0  0  0  0  0
  191.2950  172.2770  134.6320 C   0  0  0  0  0  1  0  0  0  0  0  0
  192.5210  171.8980  135.4050 C   0  0  0  0  0  0  0  0  0  0  0  0
  192.9550  170.6960  135.3190 N   0  0  0  0  0  2  0  0  0  0  0  0
  194.9540  174.3620  136.4170 C   0  0  0  0  0  2  0  0  0  0  0  0
  195.1890  173.6790  137.7570 C   0  0  0  0  0  2  0  0  0  0  0  0
  196.6730  173.4950  138.0060 C   0  0  0  0  0  1  0  0  0  0  0  0
  184.7280  177.8270  137.2830 O   0  0  0  0  0  0  0  0  0  0  0  0
  183.3330  177.7730  137.3280 C   0  0  0  0  0  0  0  0  0  0  0  0
  182.4720  176.7310  136.3960 S   0  0  0  0  0  0  0  0  0  0  0  0
  182.6100  178.6330  138.3090 C   0  0  2  0  0  3  0  0  0  0  0  0
  183.5970  177.4980  140.0940 N   0  0  0  0  0  0  0  0  0  0  0  0
  183.2890  178.5880  139.5790 N   0  0  0  0  0  0  0  0  0  0  0  0
  184.2290  177.4700  141.3830 C   0  0  0  0  0  2  0  0  0  0  0  0
  184.4050  178.8870  141.9070 C   0  0  1  0  0  3  0  0  0  0  0  0
  185.3690  178.6500  144.1620 N   0  0  0  0  0  0  0  0  0  0  0  0
  184.7610  180.0030  144.0010 C   0  0  0  0  0  2  0  0  0  0  0  0
  184.1150  178.9390  143.4050 C   0  0  1  0  0  3  0  0  0  0  0  0
  186.3710  177.7600  144.6450 C   0  0  0  0  0  0  0  0  0  0  0  0
  187.1810  177.1490  143.7960 C   0  0  0  0  0  2  0  0  0  0  0  0
  186.5390  177.5480  146.1130 C   0  0  0  0  0  2  0  0  0  0  0  0
  187.9920  177.7110  146.5410 C   0  0  0  0  0  2  0  0  0  0  0  0
  188.1520  177.4980  148.0080 C   0  0  0  0  0  0  0  0  0  0  0  0
  187.9060  176.3740  148.5180 O   0  0  0  0  0  0  0  0  0  0  0  0
  188.5560  178.5550  148.8130 O   0  0  0  0  0  1  0  0  0  0  0  0
  186.3120  178.8070  140.4350 O   0  0  0  0  0  1  0  0  0  0  0  0
  185.8100  179.3950  141.5990 C   0  0  0  0  0  2  0  0  0  0  0  0
  181.2850  178.1350  138.4600 O   0  0  0  0  0  0  0  0  0  0  0  0
  178.9410  178.4530  138.7430 C   0  0  0  0  0  2  0  0  0  0  0  0
  180.1810  178.9340  138.7710 C   0  0  0  0  0  0  0  0  0  0  0  0
  180.6990  180.9150  140.5500 O   0  0  0  0  0  1  0  0  0  0  0  0
  179.0750  181.5390  138.6010 O   0  0  0  0  0  1  0  0  0  0  0  0
  181.7830  181.2010  138.1920 O   0  0  0  0  0  0  0  0  0  0  0  0
  180.4440  180.6740  139.0820 P   0  0  0  0  0  0  0  0  0  0  0  0
  1  8  1  0  0  0  0
  2  8  1  0  0  0  0
  3  4  1  0  0  0  0
  3  6  1  0  0  0  0
  4  9  1  0  0  0  0
  4  1  1  0  0  0  0
  5  1  1  0  0  0  0
  5  8  1  0  0  0  0
  5 37  1  0  0  0  0
  7  3  1  0  0  0  0
  7  2  1  0  0  0  0
  9 10  1  0  0  0  0
 10 12  1  0  0  0  0
 12 11  2  0  0  0  0
 13 12  1  0  0  0  0
 13 15  1  0  0  0  0
 14 15  2  0  0  0  0
 15 16  1  0  0  0  0
 16 18  1  0  0  0  0
 16 17  1  0  0  0  0
 18 23  1  0  0  0  0
 19 25  1  0  0  0  0
 20 25  1  0  0  0  0
 21 20  1  0  0  0  0
 22 19  1  0  0  0  0
 23 21  1  0  0  0  0
 23 22  1  0  0  0  0
 25 24  1  0  0  0  0
 26 13  1  0  0  0  0
 27 26  1  0  0  0  0
 27 29  2  0  0  0  0
 28 34  1  0  0  0  0
 28 30  1  0  0  0  0
 28 27  1  0  0  0  0
 30 29  1  0  0  0  0
 31 32  1  0  0  0  0
 32 30  1  0  0  0  0
 33 32  2  0  0  0  0
 34 35  1  0  0  0  0
 35 36  1  0  0  0  0
 37 38  1  0  0  0  0
 38 40  1  0  0  0  0
 39 38  2  0  0  0  0
 40 57  1  0  0  0  0
 40 42  1  0  0  0  0
 41 43  1  0  0  0  0
 42 41  2  0  0  0  0
 43 44  1  0  0  0  0
 44 47  1  0  0  0  0
 45 48  1  0  0  0  0
 46 45  1  0  0  0  0
 47 46  1  0  0  0  0
 47 45  1  0  0  0  0
 48 50  1  0  0  0  0
 49 48  2  0  0  0  0
 50 51  1  0  0  0  0
 51 52  1  0  0  0  0
 52 53  2  0  0  0  0
 52 54  1  0  0  0  0
 55 56  1  0  0  0  0
 56 44  1  0  0  0  0
 57 59  1  0  0  0  0
 58 59  2  0  0  0  0
 59 63  1  0  0  0  0
 61 63  1  0  0  0  0
 62 63  2  0  0  0  0
 63 60  1  0  0  0  0
M  END
>  <MODEL>
9

>  <REMARK>
 VINA RESULT:      -4.3      2.955      6.992
  Name = 
  26 active torsions:
  status: ('A' for Active; 'I' for Inactive)
    1  A    between atoms: C_1  and  C_6
    2  A    between atoms: C_1  and  C_18
    3  A    between atoms: C_2  and  O_52
    4  A    between atoms: C_4  and  N_22
    5  A    between atoms: C_4  and  O_42
    6  A    between atoms: C_4  and  C_45
    7  A    between atoms: C_7  and  O_56
    8  A    between atoms: C_7  and  C_62
    9  A    between atoms: C_8  and  C_19
   10  A    between atoms: C_8  and  C_34
   11  A    between atoms: N_11  and  C_13
   12  A    between atoms: O_12  and  C_36
   13  A    between atoms: O_12  and  C_45
   14  A    between atoms: C_13  and  C_47
   15  A    between atoms: O_15  and  C_16
   16  A    between atoms: O_15  and  C_48
   17  A    between atoms: C_18  and  C_24
   18  A    between atoms: N_20  and  C_24
   19  A    between atoms: C_26  and  C_48
   20  A    between atoms: N_28  and  O_52
   21  A    between atoms: C_33  and  C_47
   22  A    between atoms: C_35  and  C_40
   23  A    between atoms: C_38  and  O_56
   24  A    between atoms: O_42  and  C_58
   25  A    between atoms: C_47  and  C_53
   26  A    between atoms: C_58  and  P_60
                            x       y       z     vdW  Elec       q    Type
                         _______ _______ _______ _____ _____    ______ ____

>  <TORSDO>
F 26

$$$$
