=
 OpenBabel11062416323D

 29 31  0  0  1  0  0  0  0  0999 V2000
  186.5090  178.1720  144.8330 C   0  0  0  0  0  0  0  0  0  0  0  0
  184.1040  178.8530  144.6680 S   0  0  0  0  0  0  0  0  0  0  0  0
  185.5240  178.5600  147.0180 C   0  0  0  0  0  3  0  0  0  0  0  0
  187.8310  177.9310  146.7930 N   0  0  0  0  0  0  0  0  0  0  0  0
  185.4310  178.5060  145.6340 C   0  0  0  0  0  0  0  0  0  0  0  0
  186.2650  178.2200  143.4980 N   0  0  0  0  0  0  0  0  0  0  0  0
  187.7430  177.8640  145.4290 C   0  0  0  0  0  0  0  0  0  0  0  0
  186.7690  178.2630  147.5850 C   0  0  0  0  0  3  0  0  0  0  0  0
  184.9810  178.5730  143.2450 C   0  0  0  0  0  0  0  0  0  0  0  0
  190.3340  177.6220  145.2560 C   0  0  2  0  0  3  0  0  0  0  0  0
  191.2510  177.4320  142.9450 C   0  0  0  0  0  0  0  0  0  0  0  0
  192.2700  177.5670  142.0630 F   0  0  0  0  0  0  0  0  0  0  0  0
  189.9410  176.9390  142.4980 C   0  0  0  0  0  0  0  0  0  0  0  0
  188.7800  177.1130  143.3780 C   0  0  0  0  0  3  0  0  0  0  0  0
  189.7970  176.4470  141.3490 O   0  0  0  0  0  0  0  0  0  0  0  0
  188.9420  177.4790  144.6570 C   0  0  0  0  0  0  0  0  0  0  0  0
  191.4100  177.8250  144.2100 C   0  0  0  0  0  3  0  0  0  0  0  0
  190.6910  176.3940  146.0790 C   0  0  0  0  0  2  0  0  0  0  0  0
  191.1750  176.8070  147.4580 C   0  0  0  0  0  2  0  0  0  0  0  0
  192.4150  176.0640  147.8090 C   0  0  0  0  0  0  0  0  0  0  0  0
  193.1500  176.4240  148.9290 O   0  0  0  0  0  1  0  0  0  0  0  0
  192.8000  175.1100  147.0840 O   0  0  0  0  0  0  0  0  0  0  0  0
  185.3260  178.7510  140.7680 N   0  0  0  0  0  2  0  0  0  0  0  0
  184.4410  178.7110  141.8900 C   0  0  0  0  0  0  0  0  0  0  0  0
  183.1950  178.7930  141.7200 O   0  0  0  0  0  0  0  0  0  0  0  0
  185.9160  178.8340  138.1890 O   0  0  0  0  0  0  0  0  0  0  0  0
  183.5600  177.6730  138.7780 C   0  0  0  0  0  1  0  0  0  0  0  0
  184.1140  180.2820  138.9960 O   0  0  0  0  0  0  0  0  0  0  0  0
  184.7590  178.9340  139.1430 S   0  0  0  0  0  0  0  0  0  0  0  0
  1  7  2  0  0  0  0
  1  5  1  0  0  0  0
  2  5  1  0  0  0  0
  3  8  1  0  0  0  0
  4  8  2  0  0  0  0
  5  3  2  0  0  0  0
  6  1  1  0  0  0  0
  7  4  1  0  0  0  0
  9  6  2  0  0  0  0
  9  2  1  0  0  0  0
 10 18  1  6  0  0  0
 11 17  2  0  0  0  0
 12 11  1  0  0  0  0
 13 11  1  0  0  0  0
 13 14  1  0  0  0  0
 14 16  2  0  0  0  0
 15 13  2  0  0  0  0
 16 10  1  0  0  0  0
 16  7  1  0  0  0  0
 17 10  1  0  0  0  0
 18 19  1  0  0  0  0
 19 20  1  0  0  0  0
 20 21  1  0  0  0  0
 22 20  2  0  0  0  0
 23 24  1  0  0  0  0
 24  9  1  0  0  0  0
 25 24  2  0  0  0  0
 26 29  2  0  0  0  0
 27 29  1  0  0  0  0
 28 29  2  0  0  0  0
 29 23  1  0  0  0  0
M  END
>  <MODEL>
1

>  <REMARK>
 VINA RESULT:      -9.2      0.000      0.000
  Name = 
  6 active torsions:
  status: ('A' for Active; 'I' for Inactive)
    1  A    between atoms: N_1  and  S_22
    2  A    between atoms: C_2  and  C_5
    3  A    between atoms: C_2  and  C_26
    4  A    between atoms: C_7  and  C_26
    5  A    between atoms: C_17  and  C_28
    6  A    between atoms: C_18  and  C_21
                            x       y       z     vdW  Elec       q    Type
                         _______ _______ _______ _____ _____    ______ ____

>  <TORSDO>
F 6

$$$$
=
 OpenBabel11062416323D

 29 31  0  0  1  0  0  0  0  0999 V2000
  186.1970  178.2030  143.8610 C   0  0  0  0  0  0  0  0  0  0  0  0
  184.0120  178.9480  142.8870 S   0  0  0  0  0  0  0  0  0  0  0  0
  184.5310  178.6120  145.5790 C   0  0  0  0  0  3  0  0  0  0  0  0
  186.7600  177.9230  146.1520 N   0  0  0  0  0  0  0  0  0  0  0  0
  184.9180  178.5640  144.2460 C   0  0  0  0  0  0  0  0  0  0  0  0
  186.4280  178.2610  142.5230 N   0  0  0  0  0  0  0  0  0  0  0  0
  187.1430  177.8620  144.8400 C   0  0  0  0  0  0  0  0  0  0  0  0
  185.4980  178.2810  146.5360 C   0  0  0  0  0  3  0  0  0  0  0  0
  185.3170  178.6480  141.8490 C   0  0  0  0  0  0  0  0  0  0  0  0
  189.6950  177.9090  145.3810 C   0  0  2  0  0  3  0  0  0  0  0  0
  191.2090  177.2600  143.5090 C   0  0  0  0  0  0  0  0  0  0  0  0
  192.4190  177.2950  142.9020 F   0  0  0  0  0  0  0  0  0  0  0  0
  190.0960  176.5110  142.9090 C   0  0  0  0  0  0  0  0  0  0  0  0
  188.7340  176.7550  143.3940 C   0  0  0  0  0  3  0  0  0  0  0  0
  190.2950  175.7320  141.9400 O   0  0  0  0  0  0  0  0  0  0  0  0
  188.5250  177.4480  144.5220 C   0  0  0  0  0  0  0  0  0  0  0  0
  191.0000  177.9740  144.6170 C   0  0  0  0  0  3  0  0  0  0  0  0
  189.8830  176.9810  146.5720 C   0  0  0  0  0  2  0  0  0  0  0  0
  191.2280  177.2350  147.2290 C   0  0  0  0  0  2  0  0  0  0  0  0
  192.0050  175.9690  147.3060 C   0  0  0  0  0  0  0  0  0  0  0  0
  192.1380  175.1640  146.1830 O   0  0  0  0  0  0  0  0  0  0  0  0
  192.5400  175.6250  148.3920 O   0  0  0  0  0  1  0  0  0  0  0  0
  185.9190  177.8410  139.5530 N   0  0  0  0  0  2  0  0  0  0  0  0
  185.2790  178.8040  140.3930 C   0  0  0  0  0  0  0  0  0  0  0  0
  184.6780  179.7890  139.8850 O   0  0  0  0  0  0  0  0  0  0  0  0
  186.7450  179.1670  137.4170 O   0  0  0  0  0  0  0  0  0  0  0  0
  186.6170  176.4960  137.1150 C   0  0  0  0  0  1  0  0  0  0  0  0
  184.5210  178.1450  137.3380 O   0  0  0  0  0  0  0  0  0  0  0  0
  185.9310  177.9730  137.8280 S   0  0  0  0  0  0  0  0  0  0  0  0
  1  5  2  0  0  0  0
  1  7  1  0  0  0  0
  2  5  1  0  0  0  0
  3  8  2  0  0  0  0
  4  8  1  0  0  0  0
  5  3  1  0  0  0  0
  6  1  1  0  0  0  0
  7  4  2  0  0  0  0
  9  6  2  0  0  0  0
  9  2  1  0  0  0  0
 10 18  1  1  0  0  0
 11 17  2  0  0  0  0
 12 11  1  0  0  0  0
 13 14  1  0  0  0  0
 13 11  1  0  0  0  0
 14 16  2  0  0  0  0
 15 13  2  0  0  0  0
 16  7  1  0  0  0  0
 16 10  1  0  0  0  0
 17 10  1  0  0  0  0
 18 19  1  0  0  0  0
 19 20  1  0  0  0  0
 20 22  1  0  0  0  0
 21 20  2  0  0  0  0
 23 24  1  0  0  0  0
 24  9  1  0  0  0  0
 25 24  2  0  0  0  0
 26 29  2  0  0  0  0
 27 29  1  0  0  0  0
 28 29  2  0  0  0  0
 29 23  1  0  0  0  0
M  END
>  <MODEL>
2

>  <REMARK>
 VINA RESULT:      -8.7      1.280      1.598
  Name = 
  6 active torsions:
  status: ('A' for Active; 'I' for Inactive)
    1  A    between atoms: N_1  and  S_22
    2  A    between atoms: C_2  and  C_5
    3  A    between atoms: C_2  and  C_26
    4  A    between atoms: C_7  and  C_26
    5  A    between atoms: C_17  and  C_28
    6  A    between atoms: C_18  and  C_21
                            x       y       z     vdW  Elec       q    Type
                         _______ _______ _______ _____ _____    ______ ____

>  <TORSDO>
F 6

$$$$
=
 OpenBabel11062416323D

 29 31  0  0  1  0  0  0  0  0999 V2000
  185.9520  178.2260  144.2010 C   0  0  0  0  0  0  0  0  0  0  0  0
  183.6200  178.8910  143.5730 S   0  0  0  0  0  0  0  0  0  0  0  0
  184.5730  178.6470  146.1540 C   0  0  0  0  0  3  0  0  0  0  0  0
  186.8820  178.0260  146.3780 N   0  0  0  0  0  0  0  0  0  0  0  0
  184.7420  178.5680  144.7780 C   0  0  0  0  0  0  0  0  0  0  0  0
  185.9640  178.2500  142.8430 N   0  0  0  0  0  0  0  0  0  0  0  0
  187.0520  177.9360  145.0230 C   0  0  0  0  0  0  0  0  0  0  0  0
  185.6890  178.3660  146.9500 C   0  0  0  0  0  3  0  0  0  0  0  0
  184.7500  178.5910  142.3460 C   0  0  0  0  0  0  0  0  0  0  0  0
  188.5020  176.8250  143.1610 C   0  0  2  0  0  3  0  0  0  0  0  0
  190.8080  176.1610  143.8370 C   0  0  0  0  0  0  0  0  0  0  0  0
  191.9150  175.3980  143.6720 F   0  0  0  0  0  0  0  0  0  0  0  0
  190.7490  177.1620  144.9120 C   0  0  0  0  0  0  0  0  0  0  0  0
  189.4480  177.7310  145.2780 C   0  0  0  0  0  3  0  0  0  0  0  0
  191.7820  177.4680  145.5620 O   0  0  0  0  0  0  0  0  0  0  0  0
  188.3760  177.5440  144.4970 C   0  0  0  0  0  0  0  0  0  0  0  0
  189.7350  175.9500  143.0740 C   0  0  0  0  0  3  0  0  0  0  0  0
  188.5440  177.8260  142.0160 C   0  0  0  0  0  2  0  0  0  0  0  0
  189.3960  177.2900  140.8790 C   0  0  0  0  0  2  0  0  0  0  0  0
  189.0180  177.9530  139.6020 C   0  0  0  0  0  0  0  0  0  0  0  0
  187.7700  178.5450  139.4670 O   0  0  0  0  0  1  0  0  0  0  0  0
  189.8300  177.9730  138.6410 O   0  0  0  0  0  0  0  0  0  0  0  0
  183.6740  177.7160  140.2580 N   0  0  0  0  0  2  0  0  0  0  0  0
  184.4740  178.7030  140.9120 C   0  0  0  0  0  0  0  0  0  0  0  0
  184.9440  179.6740  140.2590 O   0  0  0  0  0  0  0  0  0  0  0  0
  184.6080  177.7500  137.7820 O   0  0  0  0  0  0  0  0  0  0  0  0
  182.3100  176.3880  138.1100 C   0  0  0  0  0  1  0  0  0  0  0  0
  182.5860  179.0460  138.2570 O   0  0  0  0  0  0  0  0  0  0  0  0
  183.3250  177.7740  138.5630 S   0  0  0  0  0  0  0  0  0  0  0  0
  1  5  2  0  0  0  0
  1  7  1  0  0  0  0
  2  5  1  0  0  0  0
  3  8  2  0  0  0  0
  4  8  1  0  0  0  0
  5  3  1  0  0  0  0
  6  1  1  0  0  0  0
  7  4  2  0  0  0  0
  9  6  2  0  0  0  0
  9  2  1  0  0  0  0
 10 18  1  6  0  0  0
 10 16  1  0  0  0  0
 11 13  1  0  0  0  0
 12 11  1  0  0  0  0
 13 14  1  0  0  0  0
 13 15  2  0  0  0  0
 16  7  1  0  0  0  0
 16 14  2  0  0  0  0
 17 10  1  0  0  0  0
 17 11  2  0  0  0  0
 19 18  1  0  0  0  0
 20 19  1  0  0  0  0
 21 20  1  0  0  0  0
 22 20  2  0  0  0  0
 23 24  1  0  0  0  0
 24  9  1  0  0  0  0
 25 24  2  0  0  0  0
 26 29  2  0  0  0  0
 27 29  1  0  0  0  0
 28 29  2  0  0  0  0
 29 23  1  0  0  0  0
M  END
>  <MODEL>
3

>  <REMARK>
 VINA RESULT:      -8.7      1.846      3.979
  Name = 
  6 active torsions:
  status: ('A' for Active; 'I' for Inactive)
    1  A    between atoms: N_1  and  S_22
    2  A    between atoms: C_2  and  C_5
    3  A    between atoms: C_2  and  C_26
    4  A    between atoms: C_7  and  C_26
    5  A    between atoms: C_17  and  C_28
    6  A    between atoms: C_18  and  C_21
                            x       y       z     vdW  Elec       q    Type
                         _______ _______ _______ _____ _____    ______ ____

>  <TORSDO>
F 6

$$$$
=
 OpenBabel11062416323D

 29 31  0  0  1  0  0  0  0  0999 V2000
  189.5990  177.3570  140.4850 C   0  0  0  0  0  0  0  0  0  0  0  0
  189.9690  177.4830  138.0100 S   0  0  0  0  0  0  0  0  0  0  0  0
  187.6800  178.2910  139.3280 C   0  0  0  0  0  3  0  0  0  0  0  0
  187.6930  178.0580  141.7180 N   0  0  0  0  0  0  0  0  0  0  0  0
  188.9560  177.7430  139.3220 C   0  0  0  0  0  0  0  0  0  0  0  0
  190.8630  176.8930  140.3100 N   0  0  0  0  0  0  0  0  0  0  0  0
  188.9450  177.5080  141.7180 C   0  0  0  0  0  0  0  0  0  0  0  0
  187.0570  178.4440  140.5720 C   0  0  0  0  0  3  0  0  0  0  0  0
  191.2110  176.8940  139.0000 C   0  0  0  0  0  0  0  0  0  0  0  0
  189.1290  177.7830  144.3060 C   0  0  2  0  0  3  0  0  0  0  0  0
  191.1930  176.8530  145.3490 C   0  0  0  0  0  0  0  0  0  0  0  0
  192.1010  176.8260  146.3550 F   0  0  0  0  0  0  0  0  0  0  0  0
  191.3300  175.9480  144.2000 C   0  0  0  0  0  0  0  0  0  0  0  0
  190.5470  176.2160  142.9890 C   0  0  0  0  0  3  0  0  0  0  0  0
  192.1630  175.0040  144.2200 O   0  0  0  0  0  0  0  0  0  0  0  0
  189.5450  177.1060  143.0070 C   0  0  0  0  0  0  0  0  0  0  0  0
  190.2150  177.7600  145.3600 C   0  0  0  0  0  3  0  0  0  0  0  0
  187.8880  177.1180  144.8820 C   0  0  0  0  0  2  0  0  0  0  0  0
  187.4100  177.8710  146.1110 C   0  0  0  0  0  2  0  0  0  0  0  0
  186.0830  178.4900  145.8460 C   0  0  0  0  0  0  0  0  0  0  0  0
  185.3540  179.0490  146.8860 O   0  0  0  0  0  1  0  0  0  0  0  0
  185.6190  178.5030  144.6760 O   0  0  0  0  0  0  0  0  0  0  0  0
  192.6130  175.4310  137.5230 N   0  0  0  0  0  2  0  0  0  0  0  0
  192.5230  176.4510  138.5200 C   0  0  0  0  0  0  0  0  0  0  0  0
  193.5690  176.9760  138.9890 O   0  0  0  0  0  0  0  0  0  0  0  0
  194.9600  175.9990  136.4400 O   0  0  0  0  0  0  0  0  0  0  0  0
  194.9880  173.9750  138.2140 C   0  0  0  0  0  1  0  0  0  0  0  0
  193.8750  173.9050  135.7810 O   0  0  0  0  0  0  0  0  0  0  0  0
  194.1280  174.8460  136.9250 S   0  0  0  0  0  0  0  0  0  0  0  0
  1  7  1  0  0  0  0
  2  9  1  0  0  0  0
  2  5  1  0  0  0  0
  3  8  2  0  0  0  0
  5  3  1  0  0  0  0
  5  1  2  0  0  0  0
  6  1  1  0  0  0  0
  7  4  2  0  0  0  0
  7 16  1  0  0  0  0
  8  4  1  0  0  0  0
  9  6  2  0  0  0  0
 10 18  1  1  0  0  0
 10 17  1  0  0  0  0
 11 17  2  0  0  0  0
 11 12  1  0  0  0  0
 13 15  2  0  0  0  0
 13 11  1  0  0  0  0
 14 16  2  0  0  0  0
 14 13  1  0  0  0  0
 16 10  1  0  0  0  0
 18 19  1  0  0  0  0
 20 19  1  0  0  0  0
 20 21  1  0  0  0  0
 22 20  2  0  0  0  0
 23 24  1  0  0  0  0
 24 25  2  0  0  0  0
 24  9  1  0  0  0  0
 26 29  2  0  0  0  0
 28 29  2  0  0  0  0
 29 23  1  0  0  0  0
 29 27  1  0  0  0  0
M  END
>  <MODEL>
4

>  <REMARK>
 VINA RESULT:      -8.7      4.503      7.082
  Name = 
  6 active torsions:
  status: ('A' for Active; 'I' for Inactive)
    1  A    between atoms: N_1  and  S_22
    2  A    between atoms: C_2  and  C_5
    3  A    between atoms: C_2  and  C_26
    4  A    between atoms: C_7  and  C_26
    5  A    between atoms: C_17  and  C_28
    6  A    between atoms: C_18  and  C_21
                            x       y       z     vdW  Elec       q    Type
                         _______ _______ _______ _____ _____    ______ ____

>  <TORSDO>
F 6

$$$$
=
 OpenBabel11062416323D

 29 31  0  0  1  0  0  0  0  0999 V2000
  184.0640  178.6460  142.2660 C   0  0  0  0  0  0  0  0  0  0  0  0
  183.4300  178.7110  139.8420 S   0  0  0  0  0  0  0  0  0  0  0  0
  181.6630  178.8420  141.9610 C   0  0  0  0  0  3  0  0  0  0  0  0
  182.6340  178.7920  144.1580 N   0  0  0  0  0  0  0  0  0  0  0  0
  182.9490  178.7270  141.4500 C   0  0  0  0  0  0  0  0  0  0  0  0
  185.2510  178.5950  141.6070 N   0  0  0  0  0  0  0  0  0  0  0  0
  183.9020  178.6670  143.6600 C   0  0  0  0  0  0  0  0  0  0  0  0
  181.5310  178.8760  143.3540 C   0  0  0  0  0  3  0  0  0  0  0  0
  185.0690  178.6150  140.2640 C   0  0  0  0  0  0  0  0  0  0  0  0
  186.0660  177.4580  144.4730 C   0  0  2  0  0  3  0  0  0  0  0  0
  186.7590  177.9410  146.8180 C   0  0  0  0  0  0  0  0  0  0  0  0
  187.4170  177.5960  147.9510 F   0  0  0  0  0  0  0  0  0  0  0  0
  186.0150  179.2060  146.7460 C   0  0  0  0  0  0  0  0  0  0  0  0
  185.0540  179.4020  145.6550 C   0  0  0  0  0  3  0  0  0  0  0  0
  186.1390  180.0770  147.6460 O   0  0  0  0  0  0  0  0  0  0  0  0
  185.0310  178.5670  144.6080 C   0  0  0  0  0  0  0  0  0  0  0  0
  186.7170  177.0930  145.7890 C   0  0  0  0  0  3  0  0  0  0  0  0
  187.1590  177.8630  143.4940 C   0  0  0  0  0  2  0  0  0  0  0  0
  187.9370  176.6410  143.0390 C   0  0  0  0  0  2  0  0  0  0  0  0
  189.3790  176.9770  142.9010 C   0  0  0  0  0  0  0  0  0  0  0  0
  189.7800  178.3020  142.8010 O   0  0  0  0  0  0  0  0  0  0  0  0
  190.2380  176.0570  142.8700 O   0  0  0  0  0  1  0  0  0  0  0  0
  187.5040  178.3000  139.7570 N   0  0  0  0  0  2  0  0  0  0  0  0
  186.1760  178.5780  139.3060 C   0  0  0  0  0  0  0  0  0  0  0  0
  185.9530  178.7900  138.0830 O   0  0  0  0  0  0  0  0  0  0  0  0
  190.1180  178.0010  139.4670 O   0  0  0  0  0  0  0  0  0  0  0  0
  188.6300  176.9890  137.4650 C   0  0  0  0  0  1  0  0  0  0  0  0
  188.9790  179.5890  137.9920 O   0  0  0  0  0  0  0  0  0  0  0  0
  188.8620  178.2610  138.6840 S   0  0  0  0  0  0  0  0  0  0  0  0
  1  7  1  0  0  0  0
  2  9  1  0  0  0  0
  2  5  1  0  0  0  0
  3  8  2  0  0  0  0
  5  3  1  0  0  0  0
  5  1  2  0  0  0  0
  6  1  1  0  0  0  0
  7  4  2  0  0  0  0
  7 16  1  0  0  0  0
  8  4  1  0  0  0  0
  9  6  2  0  0  0  0
 10 18  1  6  0  0  0
 10 16  1  0  0  0  0
 10 17  1  0  0  0  0
 11 12  1  0  0  0  0
 13 11  1  0  0  0  0
 13 15  2  0  0  0  0
 14 13  1  0  0  0  0
 16 14  2  0  0  0  0
 17 11  2  0  0  0  0
 19 18  1  0  0  0  0
 20 19  1  0  0  0  0
 21 20  2  0  0  0  0
 22 20  1  0  0  0  0
 24 23  1  0  0  0  0
 24  9  1  0  0  0  0
 25 24  2  0  0  0  0
 27 29  1  0  0  0  0
 28 29  2  0  0  0  0
 29 26  2  0  0  0  0
 29 23  1  0  0  0  0
M  END
>  <MODEL>
5

>  <REMARK>
 VINA RESULT:      -8.5      3.350      5.209
  Name = 
  6 active torsions:
  status: ('A' for Active; 'I' for Inactive)
    1  A    between atoms: N_1  and  S_22
    2  A    between atoms: C_2  and  C_5
    3  A    between atoms: C_2  and  C_26
    4  A    between atoms: C_7  and  C_26
    5  A    between atoms: C_17  and  C_28
    6  A    between atoms: C_18  and  C_21
                            x       y       z     vdW  Elec       q    Type
                         _______ _______ _______ _____ _____    ______ ____

>  <TORSDO>
F 6

$$$$
=
 OpenBabel11062416323D

 29 31  0  0  1  0  0  0  0  0999 V2000
  189.5570  177.7630  142.0180 C   0  0  0  0  0  0  0  0  0  0  0  0
  188.8280  178.3320  139.6890 S   0  0  0  0  0  0  0  0  0  0  0  0
  191.3240  177.3830  140.3960 C   0  0  0  0  0  3  0  0  0  0  0  0
  191.6570  176.9050  142.7270 N   0  0  0  0  0  0  0  0  0  0  0  0
  190.0370  177.7920  140.7200 C   0  0  0  0  0  0  0  0  0  0  0  0
  188.2600  178.1420  142.1560 N   0  0  0  0  0  0  0  0  0  0  0  0
  190.3940  177.3170  143.0540 C   0  0  0  0  0  0  0  0  0  0  0  0
  192.1320  176.9310  141.4460 C   0  0  0  0  0  3  0  0  0  0  0  0
  187.7210  178.4930  140.9620 C   0  0  0  0  0  0  0  0  0  0  0  0
  188.7080  177.9770  144.9320 C   0  0  2  0  0  3  0  0  0  0  0  0
  189.5620  177.7880  147.2670 C   0  0  0  0  0  0  0  0  0  0  0  0
  189.5180  178.1420  148.5730 F   0  0  0  0  0  0  0  0  0  0  0  0
  190.5490  176.8070  146.7950 C   0  0  0  0  0  0  0  0  0  0  0  0
  190.7970  176.6890  145.3540 C   0  0  0  0  0  3  0  0  0  0  0  0
  191.2290  176.1350  147.6130 O   0  0  0  0  0  0  0  0  0  0  0  0
  189.9740  177.2700  144.4690 C   0  0  0  0  0  0  0  0  0  0  0  0
  188.7590  178.3900  146.3880 C   0  0  0  0  0  3  0  0  0  0  0  0
  187.4920  177.0850  144.7290 C   0  0  0  0  0  2  0  0  0  0  0  0
  186.4520  177.3620  145.8000 C   0  0  0  0  0  2  0  0  0  0  0  0
  185.4350  178.3190  145.2870 C   0  0  0  0  0  0  0  0  0  0  0  0
  184.8400  178.1080  144.0510 O   0  0  0  0  0  0  0  0  0  0  0  0
  185.1160  179.3250  145.9740 O   0  0  0  0  0  1  0  0  0  0  0  0
  185.6000  178.6010  139.6310 N   0  0  0  0  0  2  0  0  0  0  0  0
  186.3330  178.9360  140.8110 C   0  0  0  0  0  0  0  0  0  0  0  0
  185.7890  179.6120  141.7260 O   0  0  0  0  0  0  0  0  0  0  0  0
  183.9360  180.5730  139.0380 O   0  0  0  0  0  0  0  0  0  0  0  0
  183.2410  178.1660  138.0540 C   0  0  0  0  0  1  0  0  0  0  0  0
  183.1760  178.8780  140.6330 O   0  0  0  0  0  0  0  0  0  0  0  0
  183.9650  179.1090  139.3760 S   0  0  0  0  0  0  0  0  0  0  0  0
  1  6  1  0  0  0  0
  1  7  1  0  0  0  0
  2  5  1  0  0  0  0
  2  9  1  0  0  0  0
  3  5  1  0  0  0  0
  3  8  2  0  0  0  0
  4  7  2  0  0  0  0
  5  1  2  0  0  0  0
  7 16  1  0  0  0  0
  8  4  1  0  0  0  0
  9  6  2  0  0  0  0
 10 18  1  1  0  0  0
 10 17  1  0  0  0  0
 11 12  1  0  0  0  0
 13 11  1  0  0  0  0
 13 15  2  0  0  0  0
 14 13  1  0  0  0  0
 16 10  1  0  0  0  0
 16 14  2  0  0  0  0
 17 11  2  0  0  0  0
 18 19  1  0  0  0  0
 20 19  1  0  0  0  0
 20 22  1  0  0  0  0
 21 20  2  0  0  0  0
 23 24  1  0  0  0  0
 24  9  1  0  0  0  0
 24 25  2  0  0  0  0
 26 29  2  0  0  0  0
 27 29  1  0  0  0  0
 29 23  1  0  0  0  0
 29 28  2  0  0  0  0
M  END
>  <MODEL>
6

>  <REMARK>
 VINA RESULT:      -8.3      2.568      5.180
  Name = 
  6 active torsions:
  status: ('A' for Active; 'I' for Inactive)
    1  A    between atoms: N_1  and  S_22
    2  A    between atoms: C_2  and  C_5
    3  A    between atoms: C_2  and  C_26
    4  A    between atoms: C_7  and  C_26
    5  A    between atoms: C_17  and  C_28
    6  A    between atoms: C_18  and  C_21
                            x       y       z     vdW  Elec       q    Type
                         _______ _______ _______ _____ _____    ______ ____

>  <TORSDO>
F 6

$$$$
=
 OpenBabel11062416323D

 29 31  0  0  1  0  0  0  0  0999 V2000
  186.8000  177.8440  143.6180 C   0  0  0  0  0  0  0  0  0  0  0  0
  189.0680  177.0350  144.3100 S   0  0  0  0  0  0  0  0  0  0  0  0
  187.0460  177.7910  146.0330 C   0  0  0  0  0  3  0  0  0  0  0  0
  184.9830  178.4780  145.0120 N   0  0  0  0  0  0  0  0  0  0  0  0
  187.5530  177.6030  144.7540 C   0  0  0  0  0  0  0  0  0  0  0  0
  187.4260  177.5570  142.4470 N   0  0  0  0  0  0  0  0  0  0  0  0
  185.4810  178.3050  143.7490 C   0  0  0  0  0  0  0  0  0  0  0  0
  185.7240  178.2380  146.1350 C   0  0  0  0  0  3  0  0  0  0  0  0
  188.6870  177.1070  142.6610 C   0  0  0  0  0  0  0  0  0  0  0  0
  183.1360  178.2250  142.6090 C   0  0  2  0  0  3  0  0  0  0  0  0
  183.1260  178.5250  140.1340 C   0  0  0  0  0  0  0  0  0  0  0  0
  182.5420  178.3480  138.9240 F   0  0  0  0  0  0  0  0  0  0  0  0
  184.4120  179.2260  140.2440 C   0  0  0  0  0  0  0  0  0  0  0  0
  185.1750  179.1170  141.4920 C   0  0  0  0  0  3  0  0  0  0  0  0
  184.8930  179.8450  139.2590 O   0  0  0  0  0  0  0  0  0  0  0  0
  184.6100  178.6070  142.5950 C   0  0  0  0  0  0  0  0  0  0  0  0
  182.5720  177.9910  141.2240 C   0  0  0  0  0  3  0  0  0  0  0  0
  182.3090  179.3080  143.2860 C   0  0  0  0  0  2  0  0  0  0  0  0
  180.9120  178.7930  143.5850 C   0  0  0  0  0  2  0  0  0  0  0  0
  179.9070  179.5650  142.8060 C   0  0  0  0  0  0  0  0  0  0  0  0
  178.9310  178.9000  142.0760 O   0  0  0  0  0  0  0  0  0  0  0  0
  179.9440  180.8230  142.8060 O   0  0  0  0  0  1  0  0  0  0  0  0
  189.3990  177.2370  140.2610 N   0  0  0  0  0  2  0  0  0  0  0  0
  189.5910  176.7140  141.5770 C   0  0  0  0  0  0  0  0  0  0  0  0
  190.5380  175.9160  141.8110 O   0  0  0  0  0  0  0  0  0  0  0  0
  190.3350  175.3180  138.6960 O   0  0  0  0  0  0  0  0  0  0  0  0
  189.9020  177.6740  137.4680 C   0  0  0  0  0  1  0  0  0  0  0  0
  191.8340  177.1720  139.2510 O   0  0  0  0  0  0  0  0  0  0  0  0
  190.4150  176.8000  138.9290 S   0  0  0  0  0  0  0  0  0  0  0  0
  1  7  2  0  0  0  0
  1  5  1  0  0  0  0
  2  5  1  0  0  0  0
  3  8  1  0  0  0  0
  4  8  2  0  0  0  0
  5  3  2  0  0  0  0
  6  9  2  0  0  0  0
  6  1  1  0  0  0  0
  7  4  1  0  0  0  0
  9  2  1  0  0  0  0
 10 18  1  6  0  0  0
 11 13  1  0  0  0  0
 11 17  2  0  0  0  0
 12 11  1  0  0  0  0
 13 14  1  0  0  0  0
 14 16  2  0  0  0  0
 15 13  2  0  0  0  0
 16 10  1  0  0  0  0
 16  7  1  0  0  0  0
 17 10  1  0  0  0  0
 18 19  1  0  0  0  0
 20 22  1  0  0  0  0
 20 19  1  0  0  0  0
 21 20  2  0  0  0  0
 23 24  1  0  0  0  0
 24 25  2  0  0  0  0
 24  9  1  0  0  0  0
 26 29  2  0  0  0  0
 27 29  1  0  0  0  0
 29 28  2  0  0  0  0
 29 23  1  0  0  0  0
M  END
>  <MODEL>
7

>  <REMARK>
 VINA RESULT:      -8.0      3.734      7.661
  Name = 
  6 active torsions:
  status: ('A' for Active; 'I' for Inactive)
    1  A    between atoms: N_1  and  S_22
    2  A    between atoms: C_2  and  C_5
    3  A    between atoms: C_2  and  C_26
    4  A    between atoms: C_7  and  C_26
    5  A    between atoms: C_17  and  C_28
    6  A    between atoms: C_18  and  C_21
                            x       y       z     vdW  Elec       q    Type
                         _______ _______ _______ _____ _____    ______ ____

>  <TORSDO>
F 6

$$$$
=
 OpenBabel11062416323D

 29 31  0  0  1  0  0  0  0  0999 V2000
  189.6470  177.1960  139.5150 C   0  0  0  0  0  0  0  0  0  0  0  0
  190.2460  176.5370  137.1720 S   0  0  0  0  0  0  0  0  0  0  0  0
  192.0420  176.9100  139.2370 C   0  0  0  0  0  3  0  0  0  0  0  0
  191.1040  177.5020  141.3670 N   0  0  0  0  0  0  0  0  0  0  0  0
  190.7500  176.9080  138.7290 C   0  0  0  0  0  0  0  0  0  0  0  0
  188.4520  177.0950  138.8780 N   0  0  0  0  0  0  0  0  0  0  0  0
  189.8290  177.5130  140.8700 C   0  0  0  0  0  0  0  0  0  0  0  0
  192.1940  177.2160  140.5940 C   0  0  0  0  0  3  0  0  0  0  0  0
  188.6140  176.7470  137.5780 C   0  0  0  0  0  0  0  0  0  0  0  0
  188.6100  177.2110  143.1560 C   0  0  2  0  0  3  0  0  0  0  0  0
  186.2260  177.9390  143.2160 C   0  0  0  0  0  0  0  0  0  0  0  0
  184.9840  177.8760  143.7530 F   0  0  0  0  0  0  0  0  0  0  0  0
  186.5010  178.8320  142.0820 C   0  0  0  0  0  0  0  0  0  0  0  0
  187.7380  178.6430  141.3160 C   0  0  0  0  0  3  0  0  0  0  0  0
  185.6570  179.6930  141.7220 O   0  0  0  0  0  0  0  0  0  0  0  0
  188.7140  177.8510  141.7790 C   0  0  0  0  0  0  0  0  0  0  0  0
  187.1860  177.1280  143.6640 C   0  0  0  0  0  3  0  0  0  0  0  0
  189.4350  177.9880  144.1710 C   0  0  0  0  0  2  0  0  0  0  0  0
  189.7130  177.1280  145.3920 C   0  0  0  0  0  2  0  0  0  0  0  0
  191.1510  176.7520  145.4350 C   0  0  0  0  0  0  0  0  0  0  0  0
  191.9120  177.0330  146.5620 O   0  0  0  0  0  1  0  0  0  0  0  0
  191.6810  176.1820  144.4460 O   0  0  0  0  0  0  0  0  0  0  0  0
  186.1550  176.8020  137.0930 N   0  0  0  0  0  2  0  0  0  0  0  0
  187.4930  176.5590  136.6540 C   0  0  0  0  0  0  0  0  0  0  0  0
  187.7150  176.1840  135.4710 O   0  0  0  0  0  0  0  0  0  0  0  0
  184.6300  175.1230  135.7290 O   0  0  0  0  0  0  0  0  0  0  0  0
  183.3170  177.1740  136.8740 C   0  0  0  0  0  1  0  0  0  0  0  0
  184.9900  177.3570  134.7930 O   0  0  0  0  0  0  0  0  0  0  0  0
  184.7830  176.5800  136.0620 S   0  0  0  0  0  0  0  0  0  0  0  0
  1  7  1  0  0  0  0
  2  9  1  0  0  0  0
  2  5  1  0  0  0  0
  3  8  2  0  0  0  0
  5  3  1  0  0  0  0
  5  1  2  0  0  0  0
  6  1  1  0  0  0  0
  7  4  2  0  0  0  0
  7 16  1  0  0  0  0
  8  4  1  0  0  0  0
  9  6  2  0  0  0  0
 10 17  1  0  0  0  0
 10 18  1  1  0  0  0
 11 17  2  0  0  0  0
 11 12  1  0  0  0  0
 13 11  1  0  0  0  0
 14 16  2  0  0  0  0
 14 13  1  0  0  0  0
 15 13  2  0  0  0  0
 16 10  1  0  0  0  0
 18 19  1  0  0  0  0
 19 20  1  0  0  0  0
 20 21  1  0  0  0  0
 22 20  2  0  0  0  0
 24 23  1  0  0  0  0
 24  9  1  0  0  0  0
 25 24  2  0  0  0  0
 26 29  2  0  0  0  0
 28 29  2  0  0  0  0
 29 27  1  0  0  0  0
 29 23  1  0  0  0  0
M  END
>  <MODEL>
8

>  <REMARK>
 VINA RESULT:      -7.8      3.564      5.702
  Name = 
  6 active torsions:
  status: ('A' for Active; 'I' for Inactive)
    1  A    between atoms: N_1  and  S_22
    2  A    between atoms: C_2  and  C_5
    3  A    between atoms: C_2  and  C_26
    4  A    between atoms: C_7  and  C_26
    5  A    between atoms: C_17  and  C_28
    6  A    between atoms: C_18  and  C_21
                            x       y       z     vdW  Elec       q    Type
                         _______ _______ _______ _____ _____    ______ ____

>  <TORSDO>
F 6

$$$$
=
 OpenBabel11062416323D

 29 31  0  0  1  0  0  0  0  0999 V2000
  189.7220  177.3530  140.1960 C   0  0  0  0  0  0  0  0  0  0  0  0
  190.7080  176.7450  137.9740 S   0  0  0  0  0  0  0  0  0  0  0  0
  192.1410  177.1630  140.2980 C   0  0  0  0  0  3  0  0  0  0  0  0
  190.8560  177.6930  142.2570 N   0  0  0  0  0  0  0  0  0  0  0  0
  190.9450  177.1170  139.5930 C   0  0  0  0  0  0  0  0  0  0  0  0
  188.6470  177.2140  139.3790 N   0  0  0  0  0  0  0  0  0  0  0  0
  189.6760  177.6610  141.5650 C   0  0  0  0  0  0  0  0  0  0  0  0
  192.0640  177.4580  141.6640 C   0  0  0  0  0  3  0  0  0  0  0  0
  189.0250  176.8880  138.1190 C   0  0  0  0  0  0  0  0  0  0  0  0
  188.1020  177.2480  143.6040 C   0  0  2  0  0  3  0  0  0  0  0  0
  185.7270  177.9390  143.2950 C   0  0  0  0  0  0  0  0  0  0  0  0
  184.4150  177.8360  143.6160 F   0  0  0  0  0  0  0  0  0  0  0  0
  186.1670  178.8810  142.2570 C   0  0  0  0  0  0  0  0  0  0  0  0
  187.5160  178.7420  141.7000 C   0  0  0  0  0  3  0  0  0  0  0  0
  185.3760  179.7440  141.7950 O   0  0  0  0  0  0  0  0  0  0  0  0
  188.4190  177.9460  142.2880 C   0  0  0  0  0  0  0  0  0  0  0  0
  186.6160  177.1240  143.8650 C   0  0  0  0  0  3  0  0  0  0  0  0
  188.7320  177.9940  144.7710 C   0  0  0  0  0  2  0  0  0  0  0  0
  188.1480  177.5060  146.0850 C   0  0  0  0  0  2  0  0  0  0  0  0
  189.2130  177.4340  147.1210 C   0  0  0  0  0  0  0  0  0  0  0  0
  189.1140  178.1970  148.2770 O   0  0  0  0  0  1  0  0  0  0  0  0
  190.2080  176.6840  146.9480 O   0  0  0  0  0  0  0  0  0  0  0  0
  186.6950  177.0080  137.2020 N   0  0  0  0  0  2  0  0  0  0  0  0
  188.0720  176.6680  137.0280 C   0  0  0  0  0  0  0  0  0  0  0  0
  188.4730  176.1800  135.9370 O   0  0  0  0  0  0  0  0  0  0  0  0
  185.9020  177.5150  134.7280 O   0  0  0  0  0  0  0  0  0  0  0  0
  185.3820  175.0210  135.5990 C   0  0  0  0  0  1  0  0  0  0  0  0
  184.1800  177.2560  136.4490 O   0  0  0  0  0  0  0  0  0  0  0  0
  185.5110  176.7560  135.9650 S   0  0  0  0  0  0  0  0  0  0  0  0
  1  7  1  0  0  0  0
  2  9  1  0  0  0  0
  2  5  1  0  0  0  0
  3  8  2  0  0  0  0
  5  1  2  0  0  0  0
  5  3  1  0  0  0  0
  6  1  1  0  0  0  0
  7  4  2  0  0  0  0
  7 16  1  0  0  0  0
  8  4  1  0  0  0  0
  9  6  2  0  0  0  0
 10 17  1  0  0  0  0
 10 18  1  1  0  0  0
 11 12  1  0  0  0  0
 11 17  2  0  0  0  0
 13 11  1  0  0  0  0
 14 13  1  0  0  0  0
 14 16  2  0  0  0  0
 15 13  2  0  0  0  0
 16 10  1  0  0  0  0
 18 19  1  0  0  0  0
 19 20  1  0  0  0  0
 20 21  1  0  0  0  0
 22 20  2  0  0  0  0
 24 23  1  0  0  0  0
 24  9  1  0  0  0  0
 25 24  2  0  0  0  0
 26 29  2  0  0  0  0
 27 29  1  0  0  0  0
 29 28  2  0  0  0  0
 29 23  1  0  0  0  0
M  END
>  <MODEL>
9

>  <REMARK>
 VINA RESULT:      -7.8      3.661      5.596
  Name = 
  6 active torsions:
  status: ('A' for Active; 'I' for Inactive)
    1  A    between atoms: N_1  and  S_22
    2  A    between atoms: C_2  and  C_5
    3  A    between atoms: C_2  and  C_26
    4  A    between atoms: C_7  and  C_26
    5  A    between atoms: C_17  and  C_28
    6  A    between atoms: C_18  and  C_21
                            x       y       z     vdW  Elec       q    Type
                         _______ _______ _______ _____ _____    ______ ____

>  <TORSDO>
F 6

$$$$
