=
 OpenBabel11062415513D

 44 50  0  0  1  0  0  0  0  0999 V2000
  184.1970  179.9790  139.1100 N   0  0  0  0  0  2  0  0  0  0  0  0
  180.2360  177.0070  139.1570 C   0  0  0  0  0  3  0  0  0  0  0  0
  181.2540  177.8180  139.8470 C   0  0  0  0  0  3  0  0  0  0  0  0
  187.1610  176.7750  137.6540 C   0  0  0  0  0  0  0  0  0  0  0  0
  185.5970  174.9290  136.2860 N   0  0  0  0  0  0  0  0  0  0  0  0
  183.2140  179.2960  139.9640 C   0  0  1  0  0  3  0  0  0  0  0  0
  181.0510  177.7210  135.7730 O   0  0  0  0  0  0  0  0  0  0  0  0
  185.8060  177.0140  137.4080 C   0  0  0  0  0  0  0  0  0  0  0  0
  181.1980  177.6490  137.0210 C   0  0  0  0  0  0  0  0  0  0  0  0
  183.6760  177.5880  137.3470 C   0  0  0  0  0  0  0  0  0  0  0  0
  180.2050  176.9280  137.8280 C   0  0  0  0  0  3  0  0  0  0  0  0
  187.6840  175.6020  137.1900 N   0  0  0  0  0  0  0  0  0  0  0  0
  185.0590  176.0850  136.7370 C   0  0  0  0  0  0  0  0  0  0  0  0
  186.9220  174.6920  136.5090 C   0  0  0  0  0  3  0  0  0  0  0  0
  182.3920  178.2940  137.6800 C   0  0  2  0  0  3  0  0  0  0  0  0
  185.1950  179.0810  138.6880 N   0  0  0  0  0  0  0  0  0  0  0  0
  184.9250  177.9940  137.7960 C   0  0  0  0  0  0  0  0  0  0  0  0
  182.2460  178.4320  139.1860 C   0  0  0  0  0  0  0  0  0  0  0  0
  183.7510  176.4050  136.6880 N   0  0  0  0  0  0  0  0  0  0  0  0
  188.7050  178.6270  137.8000 C   0  0  0  0  0  0  0  0  0  0  0  0
  189.3600  179.4990  137.2190 O   0  0  0  0  0  0  0  0  0  0  0  0
  188.0140  177.7040  138.4140 C   0  0  0  0  0  0  0  0  0  0  0  0
  188.0260  177.6710  139.9040 C   0  0  0  0  0  2  0  0  0  0  0  0
  189.3600  178.1500  140.4780 C   0  0  0  0  0  2  0  0  0  0  0  0
  190.2860  177.0090  140.9200 C   0  0  2  0  0  3  0  0  0  0  0  0
  190.2890  176.7970  142.4450 C   0  0  0  0  0  0  0  0  0  0  0  0
  190.2040  175.4780  142.8280 O   0  0  0  0  0  0  0  0  0  0  0  0
  191.3790  176.1230  142.9540 O   0  0  0  0  0  0  0  0  0  0  0  0
  189.6400  177.8040  143.4090 C   0  0  2  0  0  3  0  0  0  0  0  0
  190.5540  178.7800  143.8070 O   0  0  0  0  0  1  0  0  0  0  0  0
  188.2150  177.1280  147.0180 C   0  0  0  0  0  2  0  0  0  0  0  0
  188.9380  177.1650  144.6100 C   0  0  1  0  0  3  0  0  0  0  0  0
  189.7750  177.5010  146.1860 S   0  0  0  0  0  0  0  0  0  0  0  0
  187.5020  177.6490  144.7150 C   0  0  0  0  0  2  0  0  0  0  0  0
  187.1100  177.7340  146.1810 C   0  0  0  0  0  2  0  0  0  0  0  0
  191.6860  177.1320  140.3160 C   0  0  0  0  0  2  0  0  0  0  0  0
  191.7070  176.6650  138.8730 C   0  0  0  0  0  2  0  0  0  0  0  0
  190.8460  175.5820  138.7190 O   0  0  0  0  0  1  0  0  0  0  0  0
  183.8260  178.6140  141.2030 C   0  0  2  0  0  3  0  0  0  0  0  0
  183.7590  177.2250  141.0790 O   0  0  0  0  0  1  0  0  0  0  0  0
  183.1640  179.0350  142.4310 N   0  0  0  0  0  2  0  0  0  0  0  0
  184.4980  179.7740  144.3050 C   0  0  0  0  0  2  0  0  0  0  0  0
  183.9720  178.5760  143.5460 C   0  0  0  0  0  3  0  0  0  0  0  0
  183.3160  179.0030  144.8390 C   0  0  0  0  0  2  0  0  0  0  0  0
  1  6  1  0  0  0  0
  2  3  1  0  0  0  0
  4 22  1  0  0  0  0
  5 14  1  0  0  0  0
  5 13  2  0  0  0  0
  6 39  1  1  0  0  0
  7  9  2  0  0  0  0
  8  4  2  0  0  0  0
  8 17  1  0  0  0  0
  9 11  1  0  0  0  0
 10 15  1  0  0  0  0
 10 17  1  0  0  0  0
 11  2  2  0  0  0  0
 12  4  1  0  0  0  0
 13  8  1  0  0  0  0
 14 12  2  0  0  0  0
 15  9  1  1  0  0  0
 15 18  1  0  0  0  0
 16  1  1  0  0  0  0
 17 16  2  0  0  0  0
 18  3  2  0  0  0  0
 18  6  1  0  0  0  0
 19 13  1  0  0  0  0
 19 10  2  0  0  0  0
 20 22  2  0  0  0  0
 21 20  2  0  0  0  0
 22 23  1  0  0  0  0
 23 24  1  0  0  0  0
 24 25  1  0  0  0  0
 25 36  1  1  0  0  0
 25 26  1  0  0  0  0
 26 27  1  0  0  0  0
 26 28  1  0  0  0  0
 26 29  1  0  0  0  0
 27 28  1  0  0  0  0
 29 30  1  1  0  0  0
 32 29  1  6  0  0  0
 32 34  1  0  0  0  0
 32 33  1  0  0  0  0
 33 31  1  0  0  0  0
 34 35  1  0  0  0  0
 35 31  1  0  0  0  0
 37 36  1  0  0  0  0
 38 37  1  0  0  0  0
 39 40  1  6  0  0  0
 39 41  1  0  0  0  0
 41 43  1  0  0  0  0
 42 44  1  0  0  0  0
 43 42  1  0  0  0  0
 43 44  1  0  0  0  0
M  END
>  <MODEL>
1

>  <REMARK>
 VINA RESULT:      -8.2      0.000      0.000
  Name = 
  12 active torsions:
  status: ('A' for Active; 'I' for Inactive)
    1  A    between atoms: C_1  and  C_24
    2  A    between atoms: C_1  and  C_40
    3  A    between atoms: C_3  and  C_8
    4  A    between atoms: C_3  and  C_33
    5  A    between atoms: C_6  and  C_31
    6  A    between atoms: C_7  and  C_24
    7  A    between atoms: C_8  and  C_17
    8  A    between atoms: C_10  and  C_30
    9  A    between atoms: C_17  and  C_31
   10  A    between atoms: C_17  and  C_40
   11  A    between atoms: C_22  and  N_27
   12  A    between atoms: N_27  and  C_30
                            x       y       z     vdW  Elec       q    Type
                         _______ _______ _______ _____ _____    ______ ____

>  <TORSDO>
F 12

$$$$
=
 OpenBabel11062415513D

 44 50  0  0  1  0  0  0  0  0999 V2000
  182.4360  180.7260  138.7100 N   0  0  0  0  0  2  0  0  0  0  0  0
  179.9610  179.3580  134.6450 C   0  0  0  0  0  3  0  0  0  0  0  0
  180.2760  180.3360  135.7000 C   0  0  0  0  0  3  0  0  0  0  0  0
  180.3660  177.7440  141.5370 C   0  0  0  0  0  0  0  0  0  0  0  0
  179.5240  175.6690  139.8890 N   0  0  0  0  0  0  0  0  0  0  0  0
  181.4350  181.1370  137.7140 C   0  0  1  0  0  3  0  0  0  0  0  0
  182.2930  176.7980  135.4410 O   0  0  0  0  0  0  0  0  0  0  0  0
  180.7300  177.6960  140.1880 C   0  0  0  0  0  0  0  0  0  0  0  0
  181.5860  177.8270  135.6010 C   0  0  0  0  0  0  0  0  0  0  0  0
  181.3060  178.0010  138.0790 C   0  0  0  0  0  0  0  0  0  0  0  0
  180.5770  178.1790  134.5940 C   0  0  0  0  0  3  0  0  0  0  0  0
  179.5860  176.7280  142.0110 N   0  0  0  0  0  0  0  0  0  0  0  0
  180.2970  176.6660  139.3990 C   0  0  0  0  0  0  0  0  0  0  0  0
  179.1750  175.6990  141.2070 C   0  0  0  0  0  3  0  0  0  0  0  0
  181.7710  178.6880  136.8260 C   0  0  2  0  0  3  0  0  0  0  0  0
  181.8590  179.8730  139.6690 N   0  0  0  0  0  0  0  0  0  0  0  0
  181.3930  178.5580  139.3480 C   0  0  0  0  0  0  0  0  0  0  0  0
  181.1190  180.0550  136.7050 C   0  0  0  0  0  0  0  0  0  0  0  0
  180.6280  176.8270  138.1040 N   0  0  0  0  0  0  0  0  0  0  0  0
  179.8570  179.4500  143.1700 C   0  0  0  0  0  0  0  0  0  0  0  0
  179.0110  180.0210  143.8660 O   0  0  0  0  0  0  0  0  0  0  0  0
  180.7510  178.8470  142.4330 C   0  0  0  0  0  0  0  0  0  0  0  0
  182.1840  179.2280  142.5870 C   0  0  0  0  0  2  0  0  0  0  0  0
  182.8230  178.5740  143.8130 C   0  0  0  0  0  2  0  0  0  0  0  0
  184.3470  178.4330  143.7130 C   0  0  2  0  0  3  0  0  0  0  0  0
  185.0470  178.5090  145.0820 C   0  0  0  0  0  0  0  0  0  0  0  0
  185.1240  179.7800  145.6040 O   0  0  0  0  0  0  0  0  0  0  0  0
  184.2560  178.9020  146.1400 O   0  0  0  0  0  0  0  0  0  0  0  0
  186.2120  177.5750  145.4530 C   0  0  2  0  0  3  0  0  0  0  0  0
  186.5350  177.6870  146.8060 O   0  0  0  0  0  1  0  0  0  0  0  0
  189.8530  177.2740  143.9810 C   0  0  0  0  0  2  0  0  0  0  0  0
  187.4490  177.7270  144.5640 C   0  0  1  0  0  3  0  0  0  0  0  0
  189.0040  177.7490  145.5040 S   0  0  0  0  0  0  0  0  0  0  0  0
  187.5200  176.6040  143.5430 C   0  0  0  0  0  2  0  0  0  0  0  0
  188.9770  176.2570  143.2830 C   0  0  0  0  0  2  0  0  0  0  0  0
  184.9480  179.3710  142.6660 C   0  0  0  0  0  2  0  0  0  0  0  0
  185.2720  178.6300  141.3820 C   0  0  0  0  0  2  0  0  0  0  0  0
  185.2430  179.5180  140.3090 O   0  0  0  0  0  1  0  0  0  0  0  0
  180.1990  181.8310  138.3170 C   0  0  2  0  0  3  0  0  0  0  0  0
  179.1070  180.9610  138.3280 O   0  0  0  0  0  1  0  0  0  0  0  0
  179.8570  183.0470  137.5900 N   0  0  0  0  0  2  0  0  0  0  0  0
  180.8900  184.4690  135.9320 C   0  0  0  0  0  2  0  0  0  0  0  0
  181.0980  183.7010  137.2190 C   0  0  0  0  0  3  0  0  0  0  0  0
  180.8950  185.1990  137.2530 C   0  0  0  0  0  2  0  0  0  0  0  0
  1 16  1  0  0  0  0
  2  3  1  0  0  0  0
  3 18  2  0  0  0  0
  4 12  1  0  0  0  0
  4 22  1  0  0  0  0
  5 14  1  0  0  0  0
  6 39  1  1  0  0  0
  6  1  1  0  0  0  0
  7  9  2  0  0  0  0
  8  4  2  0  0  0  0
 10 19  2  0  0  0  0
 10 17  1  0  0  0  0
 11  2  2  0  0  0  0
 11  9  1  0  0  0  0
 13  5  2  0  0  0  0
 13  8  1  0  0  0  0
 14 12  2  0  0  0  0
 15  9  1  6  0  0  0
 15 10  1  0  0  0  0
 17 16  2  0  0  0  0
 17  8  1  0  0  0  0
 18 15  1  0  0  0  0
 18  6  1  0  0  0  0
 19 13  1  0  0  0  0
 20 21  2  0  0  0  0
 22 23  1  0  0  0  0
 22 20  2  0  0  0  0
 23 24  1  0  0  0  0
 25 36  1  6  0  0  0
 25 24  1  0  0  0  0
 25 26  1  0  0  0  0
 26 29  1  0  0  0  0
 26 27  1  0  0  0  0
 26 28  1  0  0  0  0
 27 28  1  0  0  0  0
 29 30  1  1  0  0  0
 31 33  1  0  0  0  0
 32 29  1  1  0  0  0
 32 33  1  0  0  0  0
 34 32  1  0  0  0  0
 35 34  1  0  0  0  0
 35 31  1  0  0  0  0
 37 36  1  0  0  0  0
 38 37  1  0  0  0  0
 39 40  1  6  0  0  0
 41 39  1  0  0  0  0
 42 43  1  0  0  0  0
 42 44  1  0  0  0  0
 43 44  1  0  0  0  0
 43 41  1  0  0  0  0
M  END
>  <MODEL>
2

>  <REMARK>
 VINA RESULT:      -7.0      3.584      6.323
  Name = 
  12 active torsions:
  status: ('A' for Active; 'I' for Inactive)
    1  A    between atoms: C_1  and  C_24
    2  A    between atoms: C_1  and  C_40
    3  A    between atoms: C_3  and  C_8
    4  A    between atoms: C_3  and  C_33
    5  A    between atoms: C_6  and  C_31
    6  A    between atoms: C_7  and  C_24
    7  A    between atoms: C_8  and  C_17
    8  A    between atoms: C_10  and  C_30
    9  A    between atoms: C_17  and  C_31
   10  A    between atoms: C_17  and  C_40
   11  A    between atoms: C_22  and  N_27
   12  A    between atoms: N_27  and  C_30
                            x       y       z     vdW  Elec       q    Type
                         _______ _______ _______ _____ _____    ______ ____

>  <TORSDO>
F 12

$$$$
=
 OpenBabel11062415513D

 44 50  0  0  1  0  0  0  0  0999 V2000
  183.8250  175.3020  137.9520 N   0  0  0  0  0  2  0  0  0  0  0  0
  179.4970  174.9680  135.5700 C   0  0  0  0  0  3  0  0  0  0  0  0
  180.9030  175.3990  135.6440 C   0  0  0  0  0  3  0  0  0  0  0  0
  182.3450  178.2120  141.1940 C   0  0  0  0  0  0  0  0  0  0  0  0
  179.6060  177.7620  141.3560 N   0  0  0  0  0  0  0  0  0  0  0  0
  183.1020  175.6350  136.7160 C   0  0  1  0  0  3  0  0  0  0  0  0
  179.2290  173.1680  138.6210 O   0  0  0  0  0  0  0  0  0  0  0  0
  181.7380  177.1660  140.4910 C   0  0  0  0  0  0  0  0  0  0  0  0
  179.7060  173.9630  137.7710 C   0  0  0  0  0  0  0  0  0  0  0  0
  181.0590  175.5720  139.1250 C   0  0  0  0  0  0  0  0  0  0  0  0
  178.9320  174.2900  136.5660 C   0  0  0  0  0  3  0  0  0  0  0  0
  181.5370  178.9960  141.9670 N   0  0  0  0  0  0  0  0  0  0  0  0
  180.3880  176.9710  140.5850 C   0  0  0  0  0  0  0  0  0  0  0  0
  180.1890  178.7760  142.0570 C   0  0  0  0  0  3  0  0  0  0  0  0
  181.0640  174.5820  137.9940 C   0  0  2  0  0  3  0  0  0  0  0  0
  183.4920  176.2040  138.9790 N   0  0  0  0  0  0  0  0  0  0  0  0
  182.1840  176.2600  139.5600 C   0  0  0  0  0  0  0  0  0  0  0  0
  181.6480  175.2180  136.7440 C   0  0  0  0  0  0  0  0  0  0  0  0
  179.9420  176.0070  139.7570 N   0  0  0  0  0  0  0  0  0  0  0  0
  184.2400  179.2950  140.1620 C   0  0  0  0  0  0  0  0  0  0  0  0
  184.6730  180.0350  139.2710 O   0  0  0  0  0  0  0  0  0  0  0  0
  183.7830  178.5130  141.1020 C   0  0  0  0  0  0  0  0  0  0  0  0
  184.7280  178.0080  142.1390 C   0  0  0  0  0  2  0  0  0  0  0  0
  186.0490  178.7790  142.1340 C   0  0  0  0  0  2  0  0  0  0  0  0
  187.2530  177.9350  141.6970 C   0  0  2  0  0  3  0  0  0  0  0  0
  187.9940  177.2890  142.8810 C   0  0  0  0  0  0  0  0  0  0  0  0
  187.6110  175.9940  143.1440 O   0  0  0  0  0  0  0  0  0  0  0  0
  188.8060  176.2190  142.5680 O   0  0  0  0  0  0  0  0  0  0  0  0
  188.4370  178.1050  144.1070 C   0  0  2  0  0  3  0  0  0  0  0  0
  189.8090  178.3580  144.0730 O   0  0  0  0  0  1  0  0  0  0  0  0
  188.0310  177.4080  147.9630 C   0  0  0  0  0  2  0  0  0  0  0  0
  188.0070  177.5080  145.4500 C   0  0  1  0  0  3  0  0  0  0  0  0
  189.3200  177.5590  146.7050 S   0  0  0  0  0  0  0  0  0  0  0  0
  186.7900  178.2350  145.9970 C   0  0  0  0  0  2  0  0  0  0  0  0
  186.8720  178.2710  147.5150 C   0  0  0  0  0  2  0  0  0  0  0  0
  188.1730  178.6930  140.7380 C   0  0  0  0  0  2  0  0  0  0  0  0
  188.3440  177.9450  139.4290 C   0  0  0  0  0  2  0  0  0  0  0  0
  187.3880  178.3780  138.5150 O   0  0  0  0  0  1  0  0  0  0  0  0
  183.3460  177.0720  136.2150 C   0  0  2  0  0  3  0  0  0  0  0  0
  184.7130  177.3060  136.0500 O   0  0  0  0  0  1  0  0  0  0  0  0
  182.7810  178.0610  137.1230 N   0  0  0  0  0  2  0  0  0  0  0  0
  180.4580  178.7150  137.2610 C   0  0  0  0  0  2  0  0  0  0  0  0
  181.7130  178.7460  136.4180 C   0  0  0  0  0  3  0  0  0  0  0  0
  181.3010  179.9660  137.2100 C   0  0  0  0  0  2  0  0  0  0  0  0
  1 16  1  0  0  0  0
  2  3  1  0  0  0  0
  2 11  2  0  0  0  0
  3 18  2  0  0  0  0
  4 12  1  0  0  0  0
  5 14  1  0  0  0  0
  6 39  1  1  0  0  0
  6 18  1  0  0  0  0
  6  1  1  0  0  0  0
  8 13  1  0  0  0  0
  8  4  2  0  0  0  0
  9 15  1  0  0  0  0
  9  7  2  0  0  0  0
 10 17  1  0  0  0  0
 10 19  2  0  0  0  0
 11  9  1  0  0  0  0
 12 14  2  0  0  0  0
 13  5  2  0  0  0  0
 15 18  1  6  0  0  0
 15 10  1  0  0  0  0
 16 17  2  0  0  0  0
 17  8  1  0  0  0  0
 19 13  1  0  0  0  0
 20 22  2  0  0  0  0
 21 20  2  0  0  0  0
 22  4  1  0  0  0  0
 22 23  1  0  0  0  0
 24 23  1  0  0  0  0
 25 36  1  1  0  0  0
 25 24  1  0  0  0  0
 25 26  1  0  0  0  0
 26 27  1  0  0  0  0
 26 29  1  0  0  0  0
 28 26  1  0  0  0  0
 28 27  1  0  0  0  0
 29 30  1  1  0  0  0
 32 29  1  6  0  0  0
 32 34  1  0  0  0  0
 32 33  1  0  0  0  0
 33 31  1  0  0  0  0
 34 35  1  0  0  0  0
 35 31  1  0  0  0  0
 37 36  1  0  0  0  0
 38 37  1  0  0  0  0
 39 40  1  1  0  0  0
 39 41  1  0  0  0  0
 43 41  1  0  0  0  0
 43 44  1  0  0  0  0
 43 42  1  0  0  0  0
 44 42  1  0  0  0  0
M  END
>  <MODEL>
3

>  <REMARK>
 VINA RESULT:      -6.9      2.317      4.873
  Name = 
  12 active torsions:
  status: ('A' for Active; 'I' for Inactive)
    1  A    between atoms: C_1  and  C_24
    2  A    between atoms: C_1  and  C_40
    3  A    between atoms: C_3  and  C_8
    4  A    between atoms: C_3  and  C_33
    5  A    between atoms: C_6  and  C_31
    6  A    between atoms: C_7  and  C_24
    7  A    between atoms: C_8  and  C_17
    8  A    between atoms: C_10  and  C_30
    9  A    between atoms: C_17  and  C_31
   10  A    between atoms: C_17  and  C_40
   11  A    between atoms: C_22  and  N_27
   12  A    between atoms: N_27  and  C_30
                            x       y       z     vdW  Elec       q    Type
                         _______ _______ _______ _____ _____    ______ ____

>  <TORSDO>
F 12

$$$$
=
 OpenBabel11062415513D

 44 50  0  0  1  0  0  0  0  0999 V2000
  183.7500  175.0650  138.2730 N   0  0  0  0  0  2  0  0  0  0  0  0
  179.8610  174.8080  135.2170 C   0  0  0  0  0  3  0  0  0  0  0  0
  181.2690  175.1390  135.4950 C   0  0  0  0  0  3  0  0  0  0  0  0
  182.0250  178.3970  140.9360 C   0  0  0  0  0  0  0  0  0  0  0  0
  179.2670  178.1710  140.6610 N   0  0  0  0  0  0  0  0  0  0  0  0
  183.2730  175.3210  136.9050 C   0  0  1  0  0  3  0  0  0  0  0  0
  178.9310  173.3590  138.3260 O   0  0  0  0  0  0  0  0  0  0  0  0
  181.4500  177.3320  140.2360 C   0  0  0  0  0  0  0  0  0  0  0  0
  179.6130  174.0240  137.5030 C   0  0  0  0  0  0  0  0  0  0  0  0
  180.8640  175.6590  138.9200 C   0  0  0  0  0  0  0  0  0  0  0  0
  179.0800  174.2800  136.1580 C   0  0  0  0  0  3  0  0  0  0  0  0
  181.1750  179.3160  141.4830 N   0  0  0  0  0  0  0  0  0  0  0  0
  180.0910  177.2490  140.1110 C   0  0  0  0  0  0  0  0  0  0  0  0
  179.8160  179.2070  141.3590 C   0  0  0  0  0  3  0  0  0  0  0  0
  180.9660  174.5600  137.9010 C   0  0  2  0  0  3  0  0  0  0  0  0
  183.3340  176.0910  139.1420 N   0  0  0  0  0  0  0  0  0  0  0  0
  181.9590  176.3030  139.4800 C   0  0  0  0  0  0  0  0  0  0  0  0
  181.8030  175.0180  136.7190 C   0  0  0  0  0  0  0  0  0  0  0  0
  179.7020  176.2400  139.3080 N   0  0  0  0  0  0  0  0  0  0  0  0
  184.1580  179.2050  140.1430 C   0  0  0  0  0  0  0  0  0  0  0  0
  184.8000  179.7970  139.2680 O   0  0  0  0  0  0  0  0  0  0  0  0
  183.4790  178.5800  141.0670 C   0  0  0  0  0  0  0  0  0  0  0  0
  184.1870  178.1400  142.3040 C   0  0  0  0  0  2  0  0  0  0  0  0
  185.7030  178.0900  142.1100 C   0  0  0  0  0  2  0  0  0  0  0  0
  186.4960  178.2150  143.4170 C   0  0  2  0  0  3  0  0  0  0  0  0
  187.8720  177.5280  143.3520 C   0  0  0  0  0  0  0  0  0  0  0  0
  187.8110  176.1600  143.2200 O   0  0  0  0  0  0  0  0  0  0  0  0
  188.1760  176.9060  142.1600 O   0  0  0  0  0  0  0  0  0  0  0  0
  189.0840  178.0580  144.1360 C   0  0  2  0  0  3  0  0  0  0  0  0
  190.1280  178.4010  143.2760 O   0  0  0  0  0  1  0  0  0  0  0  0
  191.1310  176.5000  147.1190 C   0  0  0  0  0  2  0  0  0  0  0  0
  189.5610  177.1340  145.2610 C   0  0  1  0  0  3  0  0  0  0  0  0
  191.3690  177.0890  145.4280 S   0  0  0  0  0  0  0  0  0  0  0  0
  188.9640  177.5550  146.5930 C   0  0  0  0  0  2  0  0  0  0  0  0
  189.9690  177.2750  147.6990 C   0  0  0  0  0  2  0  0  0  0  0  0
  185.6670  177.8120  144.6380 C   0  0  0  0  0  2  0  0  0  0  0  0
  185.5750  178.9450  145.6420 C   0  0  0  0  0  2  0  0  0  0  0  0
  184.2920  178.9880  146.1820 O   0  0  0  0  0  1  0  0  0  0  0  0
  183.7260  176.6760  136.3270 C   0  0  2  0  0  3  0  0  0  0  0  0
  182.9550  177.0130  135.2130 O   0  0  0  0  0  1  0  0  0  0  0  0
  185.1380  176.6620  135.9670 N   0  0  0  0  0  2  0  0  0  0  0  0
  187.2740  177.0300  137.0350 C   0  0  0  0  0  2  0  0  0  0  0  0
  185.8420  177.5030  136.9180 C   0  0  0  0  0  3  0  0  0  0  0  0
  186.9470  178.2430  136.1980 C   0  0  0  0  0  2  0  0  0  0  0  0
  1 16  1  0  0  0  0
  2  3  1  0  0  0  0
  2 11  2  0  0  0  0
  3 18  2  0  0  0  0
  4 22  1  0  0  0  0
  4 12  1  0  0  0  0
  5 14  1  0  0  0  0
  6 39  1  1  0  0  0
  6  1  1  0  0  0  0
  8  4  2  0  0  0  0
  9 15  1  0  0  0  0
  9  7  2  0  0  0  0
 10 19  2  0  0  0  0
 10 17  1  0  0  0  0
 11  9  1  0  0  0  0
 13  8  1  0  0  0  0
 13  5  2  0  0  0  0
 14 12  2  0  0  0  0
 15 18  1  6  0  0  0
 15 10  1  0  0  0  0
 16 17  2  0  0  0  0
 17  8  1  0  0  0  0
 18  6  1  0  0  0  0
 19 13  1  0  0  0  0
 20 22  2  0  0  0  0
 21 20  2  0  0  0  0
 22 23  1  0  0  0  0
 24 23  1  0  0  0  0
 25 24  1  6  0  0  0
 25 36  1  0  0  0  0
 26 25  1  0  0  0  0
 26 29  1  0  0  0  0
 27 26  1  0  0  0  0
 28 27  1  0  0  0  0
 28 26  1  0  0  0  0
 29 30  1  6  0  0  0
 31 35  1  0  0  0  0
 32 29  1  6  0  0  0
 32 33  1  0  0  0  0
 32 34  1  0  0  0  0
 33 31  1  0  0  0  0
 34 35  1  0  0  0  0
 36 37  1  0  0  0  0
 37 38  1  0  0  0  0
 39 40  1  6  0  0  0
 41 39  1  0  0  0  0
 41 43  1  0  0  0  0
 43 42  1  0  0  0  0
 44 43  1  0  0  0  0
 44 42  1  0  0  0  0
M  END
>  <MODEL>
4

>  <REMARK>
 VINA RESULT:      -6.9      2.486      5.566
  Name = 
  12 active torsions:
  status: ('A' for Active; 'I' for Inactive)
    1  A    between atoms: C_1  and  C_24
    2  A    between atoms: C_1  and  C_40
    3  A    between atoms: C_3  and  C_8
    4  A    between atoms: C_3  and  C_33
    5  A    between atoms: C_6  and  C_31
    6  A    between atoms: C_7  and  C_24
    7  A    between atoms: C_8  and  C_17
    8  A    between atoms: C_10  and  C_30
    9  A    between atoms: C_17  and  C_31
   10  A    between atoms: C_17  and  C_40
   11  A    between atoms: C_22  and  N_27
   12  A    between atoms: N_27  and  C_30
                            x       y       z     vdW  Elec       q    Type
                         _______ _______ _______ _____ _____    ______ ____

>  <TORSDO>
F 12

$$$$
=
 OpenBabel11062415513D

 44 50  0  0  1  0  0  0  0  0999 V2000
  183.6940  175.5090  138.2780 N   0  0  0  0  0  2  0  0  0  0  0  0
  179.6270  175.1430  135.4750 C   0  0  0  0  0  3  0  0  0  0  0  0
  181.0140  175.5870  135.6910 C   0  0  0  0  0  3  0  0  0  0  0  0
  181.8670  178.3890  141.3660 C   0  0  0  0  0  0  0  0  0  0  0  0
  179.1310  177.9110  141.2530 N   0  0  0  0  0  0  0  0  0  0  0  0
  183.0930  175.8410  136.9770 C   0  0  1  0  0  3  0  0  0  0  0  0
  179.0760  173.3260  138.4790 O   0  0  0  0  0  0  0  0  0  0  0  0
  181.3450  177.3410  140.6030 C   0  0  0  0  0  0  0  0  0  0  0  0
  179.6270  174.1300  137.6830 C   0  0  0  0  0  0  0  0  0  0  0  0
  180.8220  175.7460  139.1700 C   0  0  0  0  0  0  0  0  0  0  0  0
  178.9730  174.4540  136.4090 C   0  0  0  0  0  3  0  0  0  0  0  0
  180.9780  179.1630  142.0570 N   0  0  0  0  0  0  0  0  0  0  0  0
  179.9940  177.1320  140.5610 C   0  0  0  0  0  0  0  0  0  0  0  0
  179.6300  178.9290  142.0120 C   0  0  0  0  0  3  0  0  0  0  0  0
  180.9500  174.7610  138.0420 C   0  0  2  0  0  3  0  0  0  0  0  0
  183.2500  176.4030  139.2700 N   0  0  0  0  0  0  0  0  0  0  0  0
  181.8900  176.4430  139.7170 C   0  0  0  0  0  0  0  0  0  0  0  0
  181.6480  175.4090  136.8590 C   0  0  0  0  0  0  0  0  0  0  0  0
  179.6420  176.1680  139.6890 N   0  0  0  0  0  0  0  0  0  0  0  0
  183.9080  179.2320  140.3870 C   0  0  0  0  0  0  0  0  0  0  0  0
  184.4790  179.7290  139.4110 O   0  0  0  0  0  0  0  0  0  0  0  0
  183.3040  178.7060  141.4180 C   0  0  0  0  0  0  0  0  0  0  0  0
  184.0720  178.5210  142.6830 C   0  0  0  0  0  2  0  0  0  0  0  0
  185.4870  178.0030  142.4240 C   0  0  0  0  0  2  0  0  0  0  0  0
  186.4400  178.1920  143.6120 C   0  0  2  0  0  3  0  0  0  0  0  0
  187.8390  177.6030  143.3580 C   0  0  0  0  0  0  0  0  0  0  0  0
  187.8370  176.2620  143.0520 O   0  0  0  0  0  0  0  0  0  0  0  0
  188.0780  177.1570  142.0760 O   0  0  0  0  0  0  0  0  0  0  0  0
  189.0820  178.1020  144.1150 C   0  0  2  0  0  3  0  0  0  0  0  0
  190.0860  178.4950  143.2290 O   0  0  0  0  0  1  0  0  0  0  0  0
  191.2520  176.4200  146.9390 C   0  0  0  0  0  2  0  0  0  0  0  0
  189.6110  177.1260  145.1700 C   0  0  1  0  0  3  0  0  0  0  0  0
  191.4240  177.1070  145.2770 S   0  0  0  0  0  0  0  0  0  0  0  0
  189.0510  177.4610  146.5420 C   0  0  0  0  0  2  0  0  0  0  0  0
  190.0950  177.1390  147.5990 C   0  0  0  0  0  2  0  0  0  0  0  0
  185.8150  177.7380  144.9330 C   0  0  0  0  0  2  0  0  0  0  0  0
  185.5700  178.9130  145.8600 C   0  0  0  0  0  2  0  0  0  0  0  0
  184.2190  178.9740  146.1920 O   0  0  0  0  0  1  0  0  0  0  0  0
  183.3710  177.2820  136.5080 C   0  0  2  0  0  3  0  0  0  0  0  0
  184.7400  177.5560  136.5540 O   0  0  0  0  0  1  0  0  0  0  0  0
  182.6430  178.2580  137.3090 N   0  0  0  0  0  2  0  0  0  0  0  0
  180.3160  178.8990  137.1840 C   0  0  0  0  0  2  0  0  0  0  0  0
  181.6410  178.8680  136.4550 C   0  0  0  0  0  3  0  0  0  0  0  0
  181.1590  180.1490  137.0970 C   0  0  0  0  0  2  0  0  0  0  0  0
  1 16  1  0  0  0  0
  2  3  1  0  0  0  0
  2 11  2  0  0  0  0
  3 18  2  0  0  0  0
  4 22  1  0  0  0  0
  4 12  1  0  0  0  0
  5 14  1  0  0  0  0
  6 39  1  1  0  0  0
  6  1  1  0  0  0  0
  8  4  2  0  0  0  0
  9 15  1  0  0  0  0
  9  7  2  0  0  0  0
 10 19  2  0  0  0  0
 10 17  1  0  0  0  0
 11  9  1  0  0  0  0
 13  8  1  0  0  0  0
 13  5  2  0  0  0  0
 14 12  2  0  0  0  0
 15 18  1  6  0  0  0
 15 10  1  0  0  0  0
 16 17  2  0  0  0  0
 17  8  1  0  0  0  0
 18  6  1  0  0  0  0
 19 13  1  0  0  0  0
 20 22  2  0  0  0  0
 21 20  2  0  0  0  0
 22 23  1  0  0  0  0
 24 23  1  0  0  0  0
 25 24  1  6  0  0  0
 25 36  1  0  0  0  0
 26 25  1  0  0  0  0
 26 29  1  0  0  0  0
 27 26  1  0  0  0  0
 28 27  1  0  0  0  0
 28 26  1  0  0  0  0
 29 30  1  6  0  0  0
 31 35  1  0  0  0  0
 32 29  1  6  0  0  0
 32 33  1  0  0  0  0
 32 34  1  0  0  0  0
 33 31  1  0  0  0  0
 34 35  1  0  0  0  0
 36 37  1  0  0  0  0
 37 38  1  0  0  0  0
 39 40  1  1  0  0  0
 39 41  1  0  0  0  0
 43 44  1  0  0  0  0
 43 42  1  0  0  0  0
 43 41  1  0  0  0  0
 44 42  1  0  0  0  0
M  END
>  <MODEL>
5

>  <REMARK>
 VINA RESULT:      -6.8      2.916      5.533
  Name = 
  12 active torsions:
  status: ('A' for Active; 'I' for Inactive)
    1  A    between atoms: C_1  and  C_24
    2  A    between atoms: C_1  and  C_40
    3  A    between atoms: C_3  and  C_8
    4  A    between atoms: C_3  and  C_33
    5  A    between atoms: C_6  and  C_31
    6  A    between atoms: C_7  and  C_24
    7  A    between atoms: C_8  and  C_17
    8  A    between atoms: C_10  and  C_30
    9  A    between atoms: C_17  and  C_31
   10  A    between atoms: C_17  and  C_40
   11  A    between atoms: C_22  and  N_27
   12  A    between atoms: N_27  and  C_30
                            x       y       z     vdW  Elec       q    Type
                         _______ _______ _______ _____ _____    ______ ____

>  <TORSDO>
F 12

$$$$
=
 OpenBabel11062415513D

 44 50  0  0  1  0  0  0  0  0999 V2000
  186.0870  176.7670  143.6080 N   0  0  0  0  0  2  0  0  0  0  0  0
  186.2880  179.5180  147.7210 C   0  0  0  0  0  3  0  0  0  0  0  0
  185.7620  179.2420  146.3740 C   0  0  0  0  0  3  0  0  0  0  0  0
  190.3450  177.7650  142.1770 C   0  0  0  0  0  0  0  0  0  0  0  0
  191.7360  178.4270  144.4920 N   0  0  0  0  0  0  0  0  0  0  0  0
  185.5700  177.9690  144.2800 C   0  0  1  0  0  3  0  0  0  0  0  0
  188.3130  176.6390  148.2080 O   0  0  0  0  0  0  0  0  0  0  0  0
  189.7680  177.6070  143.4410 C   0  0  0  0  0  0  0  0  0  0  0  0
  187.6340  177.5010  147.5910 C   0  0  0  0  0  0  0  0  0  0  0  0
  188.5250  177.4290  145.2560 C   0  0  0  0  0  0  0  0  0  0  0  0
  187.1660  178.7000  148.2980 C   0  0  0  0  0  3  0  0  0  0  0  0
  191.6210  178.2510  142.1290 N   0  0  0  0  0  0  0  0  0  0  0  0
  190.4730  177.9470  144.5620 C   0  0  0  0  0  0  0  0  0  0  0  0
  192.3140  178.5720  143.2650 C   0  0  0  0  0  3  0  0  0  0  0  0
  187.3100  177.3020  146.1310 C   0  0  2  0  0  3  0  0  0  0  0  0
  187.3610  177.0150  143.0630 N   0  0  0  0  0  0  0  0  0  0  0  0
  188.5130  177.2610  143.8780 C   0  0  0  0  0  0  0  0  0  0  0  0
  186.2070  178.2190  145.6290 C   0  0  0  0  0  0  0  0  0  0  0  0
  189.7390  177.8540  145.6870 N   0  0  0  0  0  0  0  0  0  0  0  0
  188.6630  178.2450  140.5120 C   0  0  0  0  0  0  0  0  0  0  0  0
  187.7490  178.9790  140.1210 O   0  0  0  0  0  0  0  0  0  0  0  0
  189.6290  177.4700  140.9250 C   0  0  0  0  0  0  0  0  0  0  0  0
  190.0600  176.3360  140.0590 C   0  0  0  0  0  2  0  0  0  0  0  0
  190.4880  176.8080  138.6680 C   0  0  0  0  0  2  0  0  0  0  0  0
  189.4870  176.4510  137.5610 C   0  0  2  0  0  3  0  0  0  0  0  0
  189.6860  175.0280  137.0090 C   0  0  0  0  0  0  0  0  0  0  0  0
  190.8780  174.8440  136.3470 O   0  0  0  0  0  0  0  0  0  0  0  0
  190.7170  174.3050  137.5710 O   0  0  0  0  0  0  0  0  0  0  0  0
  188.5090  174.1850  136.4890 C   0  0  2  0  0  3  0  0  0  0  0  0
  188.3830  174.3000  135.1040 O   0  0  0  0  0  1  0  0  0  0  0  0
  184.6860  174.7780  137.2310 C   0  0  0  0  0  2  0  0  0  0  0  0
  187.1800  174.4530  137.2000 C   0  0  1  0  0  3  0  0  0  0  0  0
  186.0190  175.4270  136.1980 S   0  0  0  0  0  0  0  0  0  0  0  0
  186.5040  173.1490  137.5870 C   0  0  0  0  0  2  0  0  0  0  0  0
  184.9970  173.3200  137.4910 C   0  0  0  0  0  2  0  0  0  0  0  0
  189.4190  177.5250  136.4750 C   0  0  0  0  0  2  0  0  0  0  0  0
  188.3990  178.5950  136.8190 C   0  0  0  0  0  2  0  0  0  0  0  0
  189.0550  179.7510  137.2320 O   0  0  0  0  0  1  0  0  0  0  0  0
  185.4890  179.2100  143.3710 C   0  0  2  0  0  3  0  0  0  0  0  0
  184.5050  180.0880  143.8300 O   0  0  0  0  0  1  0  0  0  0  0  0
  185.2200  178.8450  141.9860 N   0  0  0  0  0  2  0  0  0  0  0  0
  183.4510  179.0040  140.3460 C   0  0  0  0  0  2  0  0  0  0  0  0
  183.7790  178.8150  141.8110 C   0  0  0  0  0  3  0  0  0  0  0  0
  183.4110  177.6240  140.9560 C   0  0  0  0  0  2  0  0  0  0  0  0
  1  6  1  0  0  0  0
  2 11  2  0  0  0  0
  3  2  1  0  0  0  0
  4  8  2  0  0  0  0
  5 13  2  0  0  0  0
  6 39  1  6  0  0  0
  6 18  1  0  0  0  0
  8 17  1  0  0  0  0
  8 13  1  0  0  0  0
  9  7  2  0  0  0  0
  9 11  1  0  0  0  0
 10 19  2  0  0  0  0
 12  4  1  0  0  0  0
 12 14  2  0  0  0  0
 13 19  1  0  0  0  0
 14  5  1  0  0  0  0
 15 10  1  6  0  0  0
 15  9  1  0  0  0  0
 16  1  1  0  0  0  0
 16 17  2  0  0  0  0
 17 10  1  0  0  0  0
 18 15  1  0  0  0  0
 18  3  2  0  0  0  0
 20 22  2  0  0  0  0
 21 20  2  0  0  0  0
 22  4  1  0  0  0  0
 23 22  1  0  0  0  0
 24 23  1  0  0  0  0
 25 36  1  6  0  0  0
 25 24  1  0  0  0  0
 26 25  1  0  0  0  0
 26 28  1  0  0  0  0
 27 26  1  0  0  0  0
 27 28  1  0  0  0  0
 29 30  1  6  0  0  0
 29 26  1  0  0  0  0
 31 35  1  0  0  0  0
 32 29  1  6  0  0  0
 32 34  1  0  0  0  0
 33 32  1  0  0  0  0
 33 31  1  0  0  0  0
 35 34  1  0  0  0  0
 36 37  1  0  0  0  0
 37 38  1  0  0  0  0
 39 40  1  1  0  0  0
 41 39  1  0  0  0  0
 42 44  1  0  0  0  0
 42 43  1  0  0  0  0
 43 41  1  0  0  0  0
 44 43  1  0  0  0  0
M  END
>  <MODEL>
6

>  <REMARK>
 VINA RESULT:      -6.7      3.559      7.619
  Name = 
  12 active torsions:
  status: ('A' for Active; 'I' for Inactive)
    1  A    between atoms: C_1  and  C_24
    2  A    between atoms: C_1  and  C_40
    3  A    between atoms: C_3  and  C_8
    4  A    between atoms: C_3  and  C_33
    5  A    between atoms: C_6  and  C_31
    6  A    between atoms: C_7  and  C_24
    7  A    between atoms: C_8  and  C_17
    8  A    between atoms: C_10  and  C_30
    9  A    between atoms: C_17  and  C_31
   10  A    between atoms: C_17  and  C_40
   11  A    between atoms: C_22  and  N_27
   12  A    between atoms: N_27  and  C_30
                            x       y       z     vdW  Elec       q    Type
                         _______ _______ _______ _____ _____    ______ ____

>  <TORSDO>
F 12

$$$$
=
 OpenBabel11062415513D

 44 50  0  0  1  0  0  0  0  0999 V2000
  186.0710  176.7660  143.5590 N   0  0  0  0  0  2  0  0  0  0  0  0
  186.2460  179.5050  147.6800 C   0  0  0  0  0  3  0  0  0  0  0  0
  185.7280  179.2320  146.3290 C   0  0  0  0  0  3  0  0  0  0  0  0
  190.3360  177.7690  142.1560 C   0  0  0  0  0  0  0  0  0  0  0  0
  191.7130  178.4250  144.4800 N   0  0  0  0  0  0  0  0  0  0  0  0
  185.5490  177.9650  144.2310 C   0  0  1  0  0  3  0  0  0  0  0  0
  188.2690  176.6250  148.1710 O   0  0  0  0  0  0  0  0  0  0  0  0
  189.7520  177.6080  143.4150 C   0  0  0  0  0  0  0  0  0  0  0  0
  187.5930  177.4880  147.5520 C   0  0  0  0  0  0  0  0  0  0  0  0
  188.4990  177.4240  145.2230 C   0  0  0  0  0  0  0  0  0  0  0  0
  187.1210  178.6850  148.2600 C   0  0  0  0  0  3  0  0  0  0  0  0
  191.6120  178.2550  142.1160 N   0  0  0  0  0  0  0  0  0  0  0  0
  190.4500  177.9440  144.5420 C   0  0  0  0  0  0  0  0  0  0  0  0
  192.2990  178.5730  143.2570 C   0  0  0  0  0  3  0  0  0  0  0  0
  187.2780  177.2940  146.0900 C   0  0  2  0  0  3  0  0  0  0  0  0
  187.3470  177.0160  143.0220 N   0  0  0  0  0  0  0  0  0  0  0  0
  188.4940  177.2590  143.8450 C   0  0  0  0  0  0  0  0  0  0  0  0
  186.1770  178.2110  145.5850 C   0  0  0  0  0  0  0  0  0  0  0  0
  189.7090  177.8480  145.6630 N   0  0  0  0  0  0  0  0  0  0  0  0
  188.5900  178.1840  140.5400 C   0  0  0  0  0  0  0  0  0  0  0  0
  187.6070  178.8520  140.2010 O   0  0  0  0  0  0  0  0  0  0  0  0
  189.6270  177.4770  140.8990 C   0  0  0  0  0  0  0  0  0  0  0  0
  190.1430  176.4330  139.9670 C   0  0  0  0  0  2  0  0  0  0  0  0
  190.4770  177.0090  138.5900 C   0  0  0  0  0  2  0  0  0  0  0  0
  189.7030  176.3480  137.4420 C   0  0  2  0  0  3  0  0  0  0  0  0
  190.4090  175.0980  136.8850 C   0  0  0  0  0  0  0  0  0  0  0  0
  190.1530  173.9460  137.5930 O   0  0  0  0  0  0  0  0  0  0  0  0
  189.5810  174.1150  136.3870 O   0  0  0  0  0  0  0  0  0  0  0  0
  191.7990  175.1710  136.2300 C   0  0  2  0  0  3  0  0  0  0  0  0
  191.7170  174.9600  134.8540 O   0  0  0  0  0  1  0  0  0  0  0  0
  195.1700  173.3160  137.0740 C   0  0  0  0  0  2  0  0  0  0  0  0
  192.8490  174.2650  136.8790 C   0  0  1  0  0  3  0  0  0  0  0  0
  194.0450  173.5950  135.6870 S   0  0  0  0  0  0  0  0  0  0  0  0
  193.6130  175.0140  137.9580 C   0  0  0  0  0  2  0  0  0  0  0  0
  195.0480  174.5140  137.9900 C   0  0  0  0  0  2  0  0  0  0  0  0
  189.2980  177.3530  136.3620 C   0  0  0  0  0  2  0  0  0  0  0  0
  189.0550  178.7300  136.9530 C   0  0  0  0  0  2  0  0  0  0  0  0
  187.6870  178.9900  136.9830 O   0  0  0  0  0  1  0  0  0  0  0  0
  185.4730  179.2090  143.3250 C   0  0  2  0  0  3  0  0  0  0  0  0
  184.5480  180.1250  143.8300 O   0  0  0  0  0  1  0  0  0  0  0  0
  185.1210  178.8560  141.9550 N   0  0  0  0  0  2  0  0  0  0  0  0
  183.1690  178.9690  140.5340 C   0  0  0  0  0  2  0  0  0  0  0  0
  183.6880  178.6280  141.9140 C   0  0  0  0  0  3  0  0  0  0  0  0
  183.3920  177.5270  140.9210 C   0  0  0  0  0  2  0  0  0  0  0  0
  1  6  1  0  0  0  0
  2 11  2  0  0  0  0
  3  2  1  0  0  0  0
  4  8  2  0  0  0  0
  5 13  2  0  0  0  0
  6 39  1  6  0  0  0
  6 18  1  0  0  0  0
  8 17  1  0  0  0  0
  8 13  1  0  0  0  0
  9  7  2  0  0  0  0
  9 11  1  0  0  0  0
 10 19  2  0  0  0  0
 12  4  1  0  0  0  0
 12 14  2  0  0  0  0
 13 19  1  0  0  0  0
 14  5  1  0  0  0  0
 15 10  1  6  0  0  0
 15  9  1  0  0  0  0
 16  1  1  0  0  0  0
 16 17  2  0  0  0  0
 17 10  1  0  0  0  0
 18 15  1  0  0  0  0
 18  3  2  0  0  0  0
 20 22  2  0  0  0  0
 21 20  2  0  0  0  0
 22  4  1  0  0  0  0
 23 22  1  0  0  0  0
 24 23  1  0  0  0  0
 25 36  1  6  0  0  0
 25 24  1  0  0  0  0
 26 25  1  0  0  0  0
 26 27  1  0  0  0  0
 28 26  1  0  0  0  0
 28 27  1  0  0  0  0
 29 30  1  6  0  0  0
 29 26  1  0  0  0  0
 31 35  1  0  0  0  0
 32 29  1  6  0  0  0
 32 34  1  0  0  0  0
 33 32  1  0  0  0  0
 33 31  1  0  0  0  0
 34 35  1  0  0  0  0
 36 37  1  0  0  0  0
 37 38  1  0  0  0  0
 39 40  1  1  0  0  0
 41 39  1  0  0  0  0
 42 44  1  0  0  0  0
 42 43  1  0  0  0  0
 43 41  1  0  0  0  0
 44 43  1  0  0  0  0
M  END
>  <MODEL>
7

>  <REMARK>
 VINA RESULT:      -6.6      3.717      7.822
  Name = 
  12 active torsions:
  status: ('A' for Active; 'I' for Inactive)
    1  A    between atoms: C_1  and  C_24
    2  A    between atoms: C_1  and  C_40
    3  A    between atoms: C_3  and  C_8
    4  A    between atoms: C_3  and  C_33
    5  A    between atoms: C_6  and  C_31
    6  A    between atoms: C_7  and  C_24
    7  A    between atoms: C_8  and  C_17
    8  A    between atoms: C_10  and  C_30
    9  A    between atoms: C_17  and  C_31
   10  A    between atoms: C_17  and  C_40
   11  A    between atoms: C_22  and  N_27
   12  A    between atoms: N_27  and  C_30
                            x       y       z     vdW  Elec       q    Type
                         _______ _______ _______ _____ _____    ______ ____

>  <TORSDO>
F 12

$$$$
=
 OpenBabel11062415513D

 44 50  0  0  1  0  0  0  0  0999 V2000
  186.1040  176.7580  143.3750 N   0  0  0  0  0  2  0  0  0  0  0  0
  186.1600  179.5210  147.4850 C   0  0  0  0  0  3  0  0  0  0  0  0
  185.6800  179.2390  146.1220 C   0  0  0  0  0  3  0  0  0  0  0  0
  190.4040  177.7660  142.0840 C   0  0  0  0  0  0  0  0  0  0  0  0
  191.7150  178.4390  144.4410 N   0  0  0  0  0  0  0  0  0  0  0  0
  185.5610  177.9590  144.0270 C   0  0  1  0  0  3  0  0  0  0  0  0
  188.1770  176.6500  148.0470 O   0  0  0  0  0  0  0  0  0  0  0  0
  189.7860  177.6100  143.3280 C   0  0  0  0  0  0  0  0  0  0  0  0
  187.5160  177.5070  147.4050 C   0  0  0  0  0  0  0  0  0  0  0  0
  188.4840  177.4330  145.1020 C   0  0  0  0  0  0  0  0  0  0  0  0
  187.0200  178.7070  148.0930 C   0  0  0  0  0  3  0  0  0  0  0  0
  191.6790  178.2560  142.0770 N   0  0  0  0  0  0  0  0  0  0  0  0
  190.4520  177.9550  144.4710 C   0  0  0  0  0  0  0  0  0  0  0  0
  192.3330  178.5820  143.2330 C   0  0  0  0  0  3  0  0  0  0  0  0
  187.2410  177.3040  145.9360 C   0  0  2  0  0  3  0  0  0  0  0  0
  187.3950  177.0080  142.8730 N   0  0  0  0  0  0  0  0  0  0  0  0
  188.5180  177.2600  143.7250 C   0  0  0  0  0  0  0  0  0  0  0  0
  186.1520  178.2150  145.3960 C   0  0  0  0  0  0  0  0  0  0  0  0
  189.6810  177.8630  145.5720 N   0  0  0  0  0  0  0  0  0  0  0  0
  188.6660  178.1280  140.4460 C   0  0  0  0  0  0  0  0  0  0  0  0
  187.6580  178.7550  140.1030 O   0  0  0  0  0  0  0  0  0  0  0  0
  189.7300  177.4650  140.8100 C   0  0  0  0  0  0  0  0  0  0  0  0
  190.3100  176.4650  139.8680 C   0  0  0  0  0  2  0  0  0  0  0  0
  190.6570  177.0870  138.5140 C   0  0  0  0  0  2  0  0  0  0  0  0
  191.1440  176.0690  137.4750 C   0  0  2  0  0  3  0  0  0  0  0  0
  190.0040  175.2120  136.8940 C   0  0  0  0  0  0  0  0  0  0  0  0
  190.4040  173.9740  136.4480 O   0  0  0  0  0  0  0  0  0  0  0  0
  189.7020  174.0630  137.5930 O   0  0  0  0  0  0  0  0  0  0  0  0
  188.8240  175.8370  136.1300 C   0  0  2  0  0  3  0  0  0  0  0  0
  189.2700  176.7760  135.1990 O   0  0  0  0  0  1  0  0  0  0  0  0
  185.6860  177.8230  137.4420 C   0  0  0  0  0  2  0  0  0  0  0  0
  187.7250  176.4120  137.0290 C   0  0  1  0  0  3  0  0  0  0  0  0
  187.2450  178.1040  136.5740 S   0  0  0  0  0  0  0  0  0  0  0  0
  186.4860  175.5340  136.9920 C   0  0  0  0  0  2  0  0  0  0  0  0
  185.2500  176.4090  137.1260 C   0  0  0  0  0  2  0  0  0  0  0  0
  192.3300  175.2470  137.9810 C   0  0  0  0  0  2  0  0  0  0  0  0
  193.5600  176.1140  138.1740 C   0  0  0  0  0  2  0  0  0  0  0  0
  193.8810  176.7450  136.9750 O   0  0  0  0  0  1  0  0  0  0  0  0
  185.5060  179.1980  143.1120 C   0  0  2  0  0  3  0  0  0  0  0  0
  184.5830  180.1250  143.6000 O   0  0  0  0  0  1  0  0  0  0  0  0
  185.1680  178.8390  141.7400 N   0  0  0  0  0  2  0  0  0  0  0  0
  183.2270  179.0160  140.3110 C   0  0  0  0  0  2  0  0  0  0  0  0
  183.7330  178.6270  141.6820 C   0  0  0  0  0  3  0  0  0  0  0  0
  183.4320  177.5600  140.6540 C   0  0  0  0  0  2  0  0  0  0  0  0
  1  6  1  0  0  0  0
  2 11  2  0  0  0  0
  3  2  1  0  0  0  0
  4  8  2  0  0  0  0
  5 13  2  0  0  0  0
  6 39  1  6  0  0  0
  6 18  1  0  0  0  0
  8 17  1  0  0  0  0
  8 13  1  0  0  0  0
  9  7  2  0  0  0  0
  9 11  1  0  0  0  0
 10 19  2  0  0  0  0
 12  4  1  0  0  0  0
 12 14  2  0  0  0  0
 13 19  1  0  0  0  0
 14  5  1  0  0  0  0
 15 10  1  6  0  0  0
 15  9  1  0  0  0  0
 16  1  1  0  0  0  0
 16 17  2  0  0  0  0
 17 10  1  0  0  0  0
 18 15  1  0  0  0  0
 18  3  2  0  0  0  0
 20 22  2  0  0  0  0
 21 20  2  0  0  0  0
 22  4  1  0  0  0  0
 23 22  1  0  0  0  0
 24 23  1  0  0  0  0
 25 36  1  1  0  0  0
 25 24  1  0  0  0  0
 26 25  1  0  0  0  0
 26 28  1  0  0  0  0
 27 26  1  0  0  0  0
 27 28  1  0  0  0  0
 29 30  1  1  0  0  0
 29 26  1  0  0  0  0
 32 29  1  6  0  0  0
 33 32  1  0  0  0  0
 33 31  1  0  0  0  0
 34 32  1  0  0  0  0
 34 35  1  0  0  0  0
 35 31  1  0  0  0  0
 36 37  1  0  0  0  0
 38 37  1  0  0  0  0
 39 40  1  1  0  0  0
 41 39  1  0  0  0  0
 42 44  1  0  0  0  0
 42 43  1  0  0  0  0
 43 41  1  0  0  0  0
 44 43  1  0  0  0  0
M  END
>  <MODEL>
8

>  <REMARK>
 VINA RESULT:      -6.4      3.408      7.371
  Name = 
  12 active torsions:
  status: ('A' for Active; 'I' for Inactive)
    1  A    between atoms: C_1  and  C_24
    2  A    between atoms: C_1  and  C_40
    3  A    between atoms: C_3  and  C_8
    4  A    between atoms: C_3  and  C_33
    5  A    between atoms: C_6  and  C_31
    6  A    between atoms: C_7  and  C_24
    7  A    between atoms: C_8  and  C_17
    8  A    between atoms: C_10  and  C_30
    9  A    between atoms: C_17  and  C_31
   10  A    between atoms: C_17  and  C_40
   11  A    between atoms: C_22  and  N_27
   12  A    between atoms: N_27  and  C_30
                            x       y       z     vdW  Elec       q    Type
                         _______ _______ _______ _____ _____    ______ ____

>  <TORSDO>
F 12

$$$$
=
 OpenBabel11062415513D

 44 50  0  0  1  0  0  0  0  0999 V2000
  184.8420  178.9480  138.7710 N   0  0  0  0  0  2  0  0  0  0  0  0
  180.1090  179.8440  139.9210 C   0  0  0  0  0  3  0  0  0  0  0  0
  181.4650  179.3950  140.2800 C   0  0  0  0  0  3  0  0  0  0  0  0
  183.9740  175.3970  135.9770 C   0  0  0  0  0  0  0  0  0  0  0  0
  181.3790  175.8220  135.0730 N   0  0  0  0  0  0  0  0  0  0  0  0
  183.8330  178.9070  139.8410 C   0  0  1  0  0  3  0  0  0  0  0  0
  180.6640  180.9150  136.5790 O   0  0  0  0  0  0  0  0  0  0  0  0
  183.2870  176.5790  136.2710 C   0  0  0  0  0  0  0  0  0  0  0  0
  180.8820  180.3270  137.6700 C   0  0  0  0  0  0  0  0  0  0  0  0
  182.4100  178.4450  137.0590 C   0  0  0  0  0  0  0  0  0  0  0  0
  179.8320  180.2860  138.6960 C   0  0  0  0  0  3  0  0  0  0  0  0
  183.3190  174.4660  135.2220 N   0  0  0  0  0  0  0  0  0  0  0  0
  182.0090  176.7590  135.8180 C   0  0  0  0  0  0  0  0  0  0  0  0
  182.0450  174.6710  134.7670 C   0  0  0  0  0  3  0  0  0  0  0  0
  182.2140  179.6630  137.9170 C   0  0  2  0  0  3  0  0  0  0  0  0
  184.6990  177.8410  137.9140 N   0  0  0  0  0  0  0  0  0  0  0  0
  183.5600  177.6680  137.0640 C   0  0  0  0  0  0  0  0  0  0  0  0
  182.4540  179.3190  139.3770 C   0  0  0  0  0  0  0  0  0  0  0  0
  181.4440  177.8880  136.2880 N   0  0  0  0  0  0  0  0  0  0  0  0
  185.5550  174.0820  137.2430 C   0  0  0  0  0  0  0  0  0  0  0  0
  185.7680  173.1080  137.9720 O   0  0  0  0  0  0  0  0  0  0  0  0
  185.3300  175.1130  136.4730 C   0  0  0  0  0  0  0  0  0  0  0  0
  186.4870  175.9400  136.0230 C   0  0  0  0  0  2  0  0  0  0  0  0
  187.5260  176.1220  137.1310 C   0  0  0  0  0  2  0  0  0  0  0  0
  188.9360  176.4240  136.6090 C   0  0  2  0  0  3  0  0  0  0  0  0
  190.0420  176.0290  137.6040 C   0  0  0  0  0  0  0  0  0  0  0  0
  190.0240  174.7010  137.9660 O   0  0  0  0  0  0  0  0  0  0  0  0
  190.9850  175.1410  137.1320 O   0  0  0  0  0  0  0  0  0  0  0  0
  190.5460  176.9980  138.6880 C   0  0  2  0  0  3  0  0  0  0  0  0
  191.9380  176.9780  138.7710 O   0  0  0  0  0  1  0  0  0  0  0  0
  189.5840  177.3740  142.4890 C   0  0  0  0  0  2  0  0  0  0  0  0
  189.8960  176.8010  140.0600 C   0  0  1  0  0  3  0  0  0  0  0  0
  191.0340  177.1240  141.4390 S   0  0  0  0  0  0  0  0  0  0  0  0
  188.6830  177.7020  140.2160 C   0  0  0  0  0  2  0  0  0  0  0  0
  188.5680  178.1380  141.6680 C   0  0  0  0  0  2  0  0  0  0  0  0
  189.0660  177.8560  136.0860 C   0  0  0  0  0  2  0  0  0  0  0  0
  188.1560  178.8040  136.8440 C   0  0  0  0  0  2  0  0  0  0  0  0
  188.9230  179.7550  137.5120 O   0  0  0  0  0  1  0  0  0  0  0  0
  183.8660  177.6170  140.6840 C   0  0  2  0  0  3  0  0  0  0  0  0
  182.8410  176.7530  140.2930 O   0  0  0  0  0  1  0  0  0  0  0  0
  183.7570  177.9030  142.1080 N   0  0  0  0  0  2  0  0  0  0  0  0
  184.5710  179.4160  143.8090 C   0  0  0  0  0  2  0  0  0  0  0  0
  184.8570  178.7800  142.4660 C   0  0  0  0  0  3  0  0  0  0  0  0
  185.5250  178.2500  143.7150 C   0  0  0  0  0  2  0  0  0  0  0  0
  1  6  1  0  0  0  0
  2  3  1  0  0  0  0
  4  8  2  0  0  0  0
  4 22  1  0  0  0  0
  5 13  2  0  0  0  0
  6 39  1  6  0  0  0
  7  9  2  0  0  0  0
  8 17  1  0  0  0  0
  9 15  1  0  0  0  0
  9 11  1  0  0  0  0
 10 17  1  0  0  0  0
 11  2  2  0  0  0  0
 12  4  1  0  0  0  0
 13  8  1  0  0  0  0
 13 19  1  0  0  0  0
 14  5  1  0  0  0  0
 14 12  2  0  0  0  0
 15 10  1  6  0  0  0
 15 18  1  0  0  0  0
 16  1  1  0  0  0  0
 17 16  2  0  0  0  0
 18  6  1  0  0  0  0
 18  3  2  0  0  0  0
 19 10  2  0  0  0  0
 20 21  2  0  0  0  0
 22 20  2  0  0  0  0
 23 22  1  0  0  0  0
 23 24  1  0  0  0  0
 25 36  1  1  0  0  0
 25 24  1  0  0  0  0
 25 26  1  0  0  0  0
 26 27  1  0  0  0  0
 26 29  1  0  0  0  0
 28 26  1  0  0  0  0
 28 27  1  0  0  0  0
 29 30  1  1  0  0  0
 32 29  1  6  0  0  0
 32 34  1  0  0  0  0
 32 33  1  0  0  0  0
 33 31  1  0  0  0  0
 34 35  1  0  0  0  0
 35 31  1  0  0  0  0
 36 37  1  0  0  0  0
 37 38  1  0  0  0  0
 39 40  1  6  0  0  0
 39 41  1  0  0  0  0
 41 43  1  0  0  0  0
 43 44  1  0  0  0  0
 43 42  1  0  0  0  0
 44 42  1  0  0  0  0
M  END
>  <MODEL>
9

>  <REMARK>
 VINA RESULT:      -6.3      2.284      3.881
  Name = 
  12 active torsions:
  status: ('A' for Active; 'I' for Inactive)
    1  A    between atoms: C_1  and  C_24
    2  A    between atoms: C_1  and  C_40
    3  A    between atoms: C_3  and  C_8
    4  A    between atoms: C_3  and  C_33
    5  A    between atoms: C_6  and  C_31
    6  A    between atoms: C_7  and  C_24
    7  A    between atoms: C_8  and  C_17
    8  A    between atoms: C_10  and  C_30
    9  A    between atoms: C_17  and  C_31
   10  A    between atoms: C_17  and  C_40
   11  A    between atoms: C_22  and  N_27
   12  A    between atoms: N_27  and  C_30
                            x       y       z     vdW  Elec       q    Type
                         _______ _______ _______ _____ _____    ______ ____

>  <TORSDO>
F 12

$$$$
