=
 OpenBabel11062414143D

 32 35  0  0  1  0  0  0  0  0999 V2000
  189.6510  177.3590  142.6010 N   0  0  0  0  0  0  0  0  0  0  0  0
  188.2900  175.5430  143.1730 O   0  0  0  0  0  0  0  0  0  0  0  0
  188.8670  176.6030  143.5410 C   0  0  0  0  0  0  0  0  0  0  0  0
  189.8700  177.5750  138.4750 C   0  0  0  0  0  2  0  0  0  0  0  0
  189.2080  178.4340  139.3700 O   0  0  0  0  0  0  0  0  0  0  0  0
  188.6380  177.6070  140.3560 C   0  0  0  0  0  2  0  0  0  0  0  0
  191.1410  176.9850  139.1070 C   0  0  1  0  0  3  0  0  0  0  0  0
  189.7180  176.9170  141.2090 C   0  0  1  0  0  3  0  0  0  0  0  0
  191.1260  177.1250  140.6360 C   0  0  0  0  0  2  0  0  0  0  0  0
  191.2530  175.6150  138.7380 O   0  0  0  0  0  0  0  0  0  0  0  0
  195.7080  175.2000  136.9090 O   0  0  0  0  0  1  0  0  0  0  0  0
  193.9710  176.0720  138.8860 F   0  0  0  0  0  0  0  0  0  0  0  0
  192.4610  174.0180  135.6040 C   0  0  0  0  0  3  0  0  0  0  0  0
  194.3430  174.9550  136.8080 C   0  0  0  0  0  0  0  0  0  0  0  0
  191.5970  174.4630  136.6070 C   0  0  0  0  0  3  0  0  0  0  0  0
  193.4760  175.4020  137.8150 C   0  0  0  0  0  0  0  0  0  0  0  0
  192.0980  175.1600  137.7190 C   0  0  0  0  0  0  0  0  0  0  0  0
  194.6840  173.8170  134.6990 O   0  0  0  0  0  1  0  0  0  0  0  0
  193.8320  174.2630  135.7030 C   0  0  0  0  0  0  0  0  0  0  0  0
  190.2590  178.6340  142.9800 C   0  0  0  0  0  2  0  0  0  0  0  0
  191.5030  178.3990  143.8150 C   0  0  0  0  0  1  0  0  0  0  0  0
  188.7070  177.0600  144.9580 C   0  0  0  0  0  2  0  0  0  0  0  0
  185.2810  178.5160  144.3330 C   0  0  0  0  0  0  0  0  0  0  0  0
  187.3480  177.6330  145.1840 C   0  0  0  0  0  0  0  0  0  0  0  0
  185.5670  178.2990  146.7170 C   0  0  0  0  0  3  0  0  0  0  0  0
  183.5370  179.1850  145.6110 O   0  0  0  0  0  0  0  0  0  0  0  0
  183.1010  179.4290  144.2720 C   0  0  0  0  0  2  0  0  0  0  0  0
  186.8520  177.7780  146.4960 C   0  0  0  0  0  3  0  0  0  0  0  0
  183.8420  177.9050  142.5850 F   0  0  0  0  0  0  0  0  0  0  0  0
  184.8080  178.6600  145.6050 C   0  0  0  0  0  0  0  0  0  0  0  0
  184.2600  178.9740  143.3570 C   0  0  2  0  0  3  0  0  0  0  0  0
  186.5530  178.0030  144.0840 C   0  0  0  0  0  3  0  0  0  0  0  0
  1 20  1  0  0  0  0
  1  3  1  0  0  0  0
  2  3  2  0  0  0  0
  3 22  1  0  0  0  0
  4  7  1  0  0  0  0
  4  5  1  0  0  0  0
  5  6  1  0  0  0  0
  6  8  1  0  0  0  0
  7 10  1  1  0  0  0
  7  9  1  0  0  0  0
  8  1  1  1  0  0  0
  9  8  1  0  0  0  0
 13 19  2  0  0  0  0
 13 15  1  0  0  0  0
 14 11  1  0  0  0  0
 14 16  2  0  0  0  0
 15 17  2  0  0  0  0
 16 12  1  0  0  0  0
 17 16  1  0  0  0  0
 17 10  1  0  0  0  0
 18 19  1  0  0  0  0
 19 14  1  0  0  0  0
 20 21  1  0  0  0  0
 22 24  1  0  0  0  0
 23 30  1  0  0  0  0
 24 28  2  0  0  0  0
 27 26  1  0  0  0  0
 28 25  1  0  0  0  0
 30 26  1  0  0  0  0
 30 25  2  0  0  0  0
 31 29  1  6  0  0  0
 31 27  1  0  0  0  0
 31 23  1  0  0  0  0
 32 23  2  0  0  0  0
 32 24  1  0  0  0  0
M  END
>  <MODEL>
1

>  <REMARK>
 VINA RESULT:      -9.4      0.000      0.000
  Name = 
  6 active torsions:
  status: ('A' for Active; 'I' for Inactive)
    1  A    between atoms: N_4  and  C_23
    2  A    between atoms: N_4  and  C_24
    3  A    between atoms: C_6  and  C_7
    4  A    between atoms: C_7  and  C_31
    5  A    between atoms: O_14  and  C_19
    6  A    between atoms: O_14  and  C_22
                            x       y       z     vdW  Elec       q    Type
                         _______ _______ _______ _____ _____    ______ ____

>  <TORSDO>
F 6

$$$$
=
 OpenBabel11062414143D

 32 35  0  0  1  0  0  0  0  0999 V2000
  190.5140  177.0870  142.9870 N   0  0  0  0  0  0  0  0  0  0  0  0
  190.5870  179.2620  143.8450 O   0  0  0  0  0  0  0  0  0  0  0  0
  190.4540  178.0290  144.0720 C   0  0  0  0  0  0  0  0  0  0  0  0
  192.1630  177.2590  139.1960 C   0  0  0  0  0  2  0  0  0  0  0  0
  192.7520  176.8230  140.3960 O   0  0  0  0  0  0  0  0  0  0  0  0
  192.3050  177.7080  141.3950 C   0  0  0  0  0  2  0  0  0  0  0  0
  190.6560  176.9570  139.1750 C   0  0  1  0  0  3  0  0  0  0  0  0
  190.7900  177.5710  141.6350 C   0  0  1  0  0  3  0  0  0  0  0  0
  190.1180  176.6770  140.5860 C   0  0  0  0  0  2  0  0  0  0  0  0
  189.9680  178.0600  138.5950 O   0  0  0  0  0  0  0  0  0  0  0  0
  185.1840  177.9730  137.9090 O   0  0  0  0  0  1  0  0  0  0  0  0
  187.3900  178.2440  139.5650 F   0  0  0  0  0  0  0  0  0  0  0  0
  187.9590  177.5450  135.5090 C   0  0  0  0  0  3  0  0  0  0  0  0
  186.4720  177.8760  137.3920 C   0  0  0  0  0  0  0  0  0  0  0  0
  189.0620  177.6830  136.3540 C   0  0  0  0  0  3  0  0  0  0  0  0
  187.5780  178.0150  138.2410 C   0  0  0  0  0  0  0  0  0  0  0  0
  188.8790  177.9170  137.7280 C   0  0  0  0  0  0  0  0  0  0  0  0
  185.5740  177.5010  135.1750 O   0  0  0  0  0  1  0  0  0  0  0  0
  186.6650  177.6410  136.0250 C   0  0  0  0  0  0  0  0  0  0  0  0
  190.4480  175.6470  143.2340 C   0  0  0  0  0  2  0  0  0  0  0  0
  191.7100  175.1720  143.9290 C   0  0  0  0  0  1  0  0  0  0  0  0
  190.2500  177.5720  145.4830 C   0  0  0  0  0  2  0  0  0  0  0  0
  186.5540  178.3390  145.4370 C   0  0  0  0  0  0  0  0  0  0  0  0
  188.8510  177.8330  145.9310 C   0  0  0  0  0  0  0  0  0  0  0  0
  187.2070  177.9920  147.7310 C   0  0  0  0  0  3  0  0  0  0  0  0
  184.9100  178.5300  146.9800 O   0  0  0  0  0  0  0  0  0  0  0  0
  184.2530  178.7870  145.7380 C   0  0  0  0  0  2  0  0  0  0  0  0
  188.5250  177.7660  147.3020 C   0  0  0  0  0  3  0  0  0  0  0  0
  185.0310  177.5900  143.8200 F   0  0  0  0  0  0  0  0  0  0  0  0
  186.2460  178.2790  146.7640 C   0  0  0  0  0  0  0  0  0  0  0  0
  185.3380  178.6560  144.6460 C   0  0  2  0  0  3  0  0  0  0  0  0
  187.8540  178.1200  144.9820 C   0  0  0  0  0  3  0  0  0  0  0  0
  1 20  1  0  0  0  0
  1  3  1  0  0  0  0
  2  3  2  0  0  0  0
  3 22  1  0  0  0  0
  4  5  1  0  0  0  0
  5  6  1  0  0  0  0
  6  8  1  0  0  0  0
  7 10  1  1  0  0  0
  7  4  1  0  0  0  0
  7  9  1  0  0  0  0
  8  1  1  1  0  0  0
  9  8  1  0  0  0  0
 13 19  2  0  0  0  0
 13 15  1  0  0  0  0
 14 11  1  0  0  0  0
 14 16  2  0  0  0  0
 15 17  2  0  0  0  0
 16 12  1  0  0  0  0
 17 16  1  0  0  0  0
 17 10  1  0  0  0  0
 18 19  1  0  0  0  0
 19 14  1  0  0  0  0
 20 21  1  0  0  0  0
 22 24  1  0  0  0  0
 23 30  1  0  0  0  0
 24 28  2  0  0  0  0
 27 26  1  0  0  0  0
 28 25  1  0  0  0  0
 30 26  1  0  0  0  0
 30 25  2  0  0  0  0
 31 29  1  6  0  0  0
 31 23  1  0  0  0  0
 31 27  1  0  0  0  0
 32 23  2  0  0  0  0
 32 24  1  0  0  0  0
M  END
>  <MODEL>
2

>  <REMARK>
 VINA RESULT:      -8.6      2.899      4.459
  Name = 
  6 active torsions:
  status: ('A' for Active; 'I' for Inactive)
    1  A    between atoms: N_4  and  C_23
    2  A    between atoms: N_4  and  C_24
    3  A    between atoms: C_6  and  C_7
    4  A    between atoms: C_7  and  C_31
    5  A    between atoms: O_14  and  C_19
    6  A    between atoms: O_14  and  C_22
                            x       y       z     vdW  Elec       q    Type
                         _______ _______ _______ _____ _____    ______ ____

>  <TORSDO>
F 6

$$$$
=
 OpenBabel11062414143D

 32 35  0  0  1  0  0  0  0  0999 V2000
  190.9860  177.5340  143.5040 N   0  0  0  0  0  0  0  0  0  0  0  0
  190.1080  175.9870  141.9840 O   0  0  0  0  0  0  0  0  0  0  0  0
  190.9310  176.9160  142.2060 C   0  0  0  0  0  0  0  0  0  0  0  0
  189.5490  176.8420  147.3210 C   0  0  0  0  0  2  0  0  0  0  0  0
  190.8820  176.9460  146.8860 O   0  0  0  0  0  0  0  0  0  0  0  0
  190.9390  176.2880  145.6430 C   0  0  0  0  0  2  0  0  0  0  0  0
  188.6210  177.7430  146.4910 C   0  0  1  0  0  3  0  0  0  0  0  0
  190.1210  177.0320  144.5700 C   0  0  1  0  0  3  0  0  0  0  0  0
  189.2800  178.1650  145.1710 C   0  0  0  0  0  2  0  0  0  0  0  0
  187.4040  177.0490  146.2360 O   0  0  0  0  0  0  0  0  0  0  0  0
  184.8210  178.0880  142.2850 O   0  0  0  0  0  1  0  0  0  0  0  0
  187.0180  176.9200  143.5050 F   0  0  0  0  0  0  0  0  0  0  0  0
  184.2170  178.9220  145.8320 C   0  0  0  0  0  3  0  0  0  0  0  0
  184.9890  178.1690  143.6630 C   0  0  0  0  0  0  0  0  0  0  0  0
  185.3290  178.3290  146.4340 C   0  0  0  0  0  3  0  0  0  0  0  0
  186.1050  177.5730  144.2670 C   0  0  0  0  0  0  0  0  0  0  0  0
  186.2820  177.6520  145.6550 C   0  0  0  0  0  0  0  0  0  0  0  0
  182.9370  179.4370  143.8580 O   0  0  0  0  0  1  0  0  0  0  0  0
  184.0460  178.8430  144.4480 C   0  0  0  0  0  0  0  0  0  0  0  0
  191.9900  178.5520  143.8120 C   0  0  0  0  0  2  0  0  0  0  0  0
  191.3300  179.9070  143.9910 C   0  0  0  0  0  1  0  0  0  0  0  0
  191.8520  177.3450  141.1060 C   0  0  0  0  0  2  0  0  0  0  0  0
  189.6160  177.7570  138.0930 C   0  0  0  0  0  0  0  0  0  0  0  0
  191.2210  177.1360  139.7700 C   0  0  0  0  0  0  0  0  0  0  0  0
  191.1210  175.9270  137.6500 C   0  0  0  0  0  3  0  0  0  0  0  0
  189.3860  176.7420  136.0830 O   0  0  0  0  0  0  0  0  0  0  0  0
  188.3840  177.7600  136.0750 C   0  0  0  0  0  2  0  0  0  0  0  0
  191.6970  176.1200  138.9160 C   0  0  0  0  0  3  0  0  0  0  0  0
  188.8910  179.8040  137.2080 F   0  0  0  0  0  0  0  0  0  0  0  0
  190.0770  176.7690  137.2730 C   0  0  0  0  0  0  0  0  0  0  0  0
  188.5100  178.4930  137.4300 C   0  0  2  0  0  3  0  0  0  0  0  0
  190.1680  177.9700  139.3550 C   0  0  0  0  0  3  0  0  0  0  0  0
  1 20  1  0  0  0  0
  2  3  2  0  0  0  0
  3  1  1  0  0  0  0
  5  4  1  0  0  0  0
  6  5  1  0  0  0  0
  7 10  1  6  0  0  0
  7  4  1  0  0  0  0
  8  1  1  6  0  0  0
  8  9  1  0  0  0  0
  8  6  1  0  0  0  0
  9  7  1  0  0  0  0
 11 14  1  0  0  0  0
 12 16  1  0  0  0  0
 13 15  1  0  0  0  0
 14 16  2  0  0  0  0
 14 19  1  0  0  0  0
 16 17  1  0  0  0  0
 17 10  1  0  0  0  0
 17 15  2  0  0  0  0
 18 19  1  0  0  0  0
 19 13  2  0  0  0  0
 20 21  1  0  0  0  0
 22  3  1  0  0  0  0
 23 32  1  0  0  0  0
 24 22  1  0  0  0  0
 25 28  2  0  0  0  0
 26 30  1  0  0  0  0
 27 26  1  0  0  0  0
 27 31  1  0  0  0  0
 28 24  1  0  0  0  0
 30 25  1  0  0  0  0
 30 23  2  0  0  0  0
 31 29  1  6  0  0  0
 31 23  1  0  0  0  0
 32 24  2  0  0  0  0
M  END
>  <MODEL>
3

>  <REMARK>
 VINA RESULT:      -8.6      2.740      8.912
  Name = 
  6 active torsions:
  status: ('A' for Active; 'I' for Inactive)
    1  A    between atoms: N_4  and  C_23
    2  A    between atoms: N_4  and  C_24
    3  A    between atoms: C_6  and  C_7
    4  A    between atoms: C_7  and  C_31
    5  A    between atoms: O_14  and  C_19
    6  A    between atoms: O_14  and  C_22
                            x       y       z     vdW  Elec       q    Type
                         _______ _______ _______ _____ _____    ______ ____

>  <TORSDO>
F 6

$$$$
=
 OpenBabel11062414143D

 32 35  0  0  1  0  0  0  0  0999 V2000
  184.8570  178.7040  143.3240 N   0  0  0  0  0  0  0  0  0  0  0  0
  186.5970  177.1660  143.6110 O   0  0  0  0  0  0  0  0  0  0  0  0
  185.8760  178.0690  144.1160 C   0  0  0  0  0  0  0  0  0  0  0  0
  183.4660  178.6880  139.4270 C   0  0  0  0  0  2  0  0  0  0  0  0
  182.8390  179.1790  140.5860 O   0  0  0  0  0  0  0  0  0  0  0  0
  183.1290  178.2560  141.6080 C   0  0  0  0  0  2  0  0  0  0  0  0
  184.9930  178.8430  139.5120 C   0  0  1  0  0  3  0  0  0  0  0  0
  184.6300  178.2470  141.9540 C   0  0  1  0  0  3  0  0  0  0  0  0
  185.4560  179.0720  140.9580 C   0  0  0  0  0  2  0  0  0  0  0  0
  185.6110  177.6790  138.9750 O   0  0  0  0  0  0  0  0  0  0  0  0
  190.2550  177.5120  137.6440 O   0  0  0  0  0  1  0  0  0  0  0  0
  188.2900  177.4440  139.5980 F   0  0  0  0  0  0  0  0  0  0  0  0
  187.1930  177.9080  135.6180 C   0  0  0  0  0  3  0  0  0  0  0  0
  188.9130  177.6320  137.3010 C   0  0  0  0  0  0  0  0  0  0  0  0
  186.2130  177.8730  136.6120 C   0  0  0  0  0  3  0  0  0  0  0  0
  187.9300  177.5960  138.2990 C   0  0  0  0  0  0  0  0  0  0  0  0
  186.5750  177.7180  137.9600 C   0  0  0  0  0  0  0  0  0  0  0  0
  189.5090  177.8250  134.9620 O   0  0  0  0  0  1  0  0  0  0  0  0
  188.5410  177.7880  135.9590 C   0  0  0  0  0  0  0  0  0  0  0  0
  183.9530  179.6920  143.9110 C   0  0  0  0  0  2  0  0  0  0  0  0
  182.8700  179.0030  144.7190 C   0  0  0  0  0  1  0  0  0  0  0  0
  186.0930  178.4510  145.5480 C   0  0  0  0  0  2  0  0  0  0  0  0
  189.6600  177.2310  145.7280 C   0  0  0  0  0  0  0  0  0  0  0  0
  187.3710  177.8810  146.0650 C   0  0  0  0  0  0  0  0  0  0  0  0
  188.6830  176.9810  147.9180 C   0  0  0  0  0  3  0  0  0  0  0  0
  191.0100  176.3760  147.3300 O   0  0  0  0  0  0  0  0  0  0  0  0
  191.8320  176.4030  146.1610 C   0  0  0  0  0  2  0  0  0  0  0  0
  187.4780  177.5010  147.4180 C   0  0  0  0  0  3  0  0  0  0  0  0
  191.4860  178.2010  144.6230 F   0  0  0  0  0  0  0  0  0  0  0  0
  189.7560  176.8600  147.0370 C   0  0  0  0  0  0  0  0  0  0  0  0
  190.9520  176.9940  145.0360 C   0  0  2  0  0  3  0  0  0  0  0  0
  188.4760  177.7480  145.2050 C   0  0  0  0  0  3  0  0  0  0  0  0
  1 20  1  0  0  0  0
  1  3  1  0  0  0  0
  2  3  2  0  0  0  0
  3 22  1  0  0  0  0
  4  7  1  0  0  0  0
  4  5  1  0  0  0  0
  5  6  1  0  0  0  0
  6  8  1  0  0  0  0
  7 10  1  1  0  0  0
  7  9  1  0  0  0  0
  8  1  1  1  0  0  0
  9  8  1  0  0  0  0
 13 19  2  0  0  0  0
 13 15  1  0  0  0  0
 14 11  1  0  0  0  0
 14 16  2  0  0  0  0
 15 17  2  0  0  0  0
 16 12  1  0  0  0  0
 17 16  1  0  0  0  0
 17 10  1  0  0  0  0
 18 19  1  0  0  0  0
 19 14  1  0  0  0  0
 20 21  1  0  0  0  0
 22 24  1  0  0  0  0
 23 30  1  0  0  0  0
 24 28  2  0  0  0  0
 27 26  1  0  0  0  0
 28 25  1  0  0  0  0
 30 26  1  0  0  0  0
 30 25  2  0  0  0  0
 31 29  1  1  0  0  0
 31 23  1  0  0  0  0
 31 27  1  0  0  0  0
 32 23  2  0  0  0  0
 32 24  1  0  0  0  0
M  END
>  <MODEL>
4

>  <REMARK>
 VINA RESULT:      -8.3      3.669      5.912
  Name = 
  6 active torsions:
  status: ('A' for Active; 'I' for Inactive)
    1  A    between atoms: N_4  and  C_23
    2  A    between atoms: N_4  and  C_24
    3  A    between atoms: C_6  and  C_7
    4  A    between atoms: C_7  and  C_31
    5  A    between atoms: O_14  and  C_19
    6  A    between atoms: O_14  and  C_22
                            x       y       z     vdW  Elec       q    Type
                         _______ _______ _______ _____ _____    ______ ____

>  <TORSDO>
F 6

$$$$
=
 OpenBabel11062414143D

 32 35  0  0  1  0  0  0  0  0999 V2000
  191.3900  177.6090  142.8600 N   0  0  0  0  0  0  0  0  0  0  0  0
  190.4290  175.4750  142.8530 O   0  0  0  0  0  0  0  0  0  0  0  0
  191.0190  176.3780  143.5060 C   0  0  0  0  0  0  0  0  0  0  0  0
  190.8840  176.8280  138.8290 C   0  0  0  0  0  2  0  0  0  0  0  0
  191.9150  176.4060  139.6870 O   0  0  0  0  0  0  0  0  0  0  0  0
  192.2000  177.5020  140.5230 C   0  0  0  0  0  2  0  0  0  0  0  0
  189.5500  176.9530  139.5810 C   0  0  1  0  0  3  0  0  0  0  0  0
  191.0210  177.8190  141.4610 C   0  0  1  0  0  3  0  0  0  0  0  0
  189.7640  177.0160  141.1000 C   0  0  0  0  0  2  0  0  0  0  0  0
  188.8680  178.1180  139.1300 O   0  0  0  0  0  0  0  0  0  0  0  0
  184.4950  179.1420  140.9180 O   0  0  0  0  0  1  0  0  0  0  0  0
  187.2490  178.9950  141.1880 F   0  0  0  0  0  0  0  0  0  0  0  0
  185.4900  177.8710  137.5960 C   0  0  0  0  0  3  0  0  0  0  0  0
  185.2850  178.6960  139.8640 C   0  0  0  0  0  0  0  0  0  0  0  0
  186.8760  177.8020  137.7450 C   0  0  0  0  0  3  0  0  0  0  0  0
  186.6770  178.6270  140.0140 C   0  0  0  0  0  0  0  0  0  0  0  0
  187.4800  178.1780  138.9560 C   0  0  0  0  0  0  0  0  0  0  0  0
  183.3140  178.3820  138.4940 O   0  0  0  0  0  1  0  0  0  0  0  0
  184.6930  178.3170  138.6520 C   0  0  0  0  0  0  0  0  0  0  0  0
  191.9970  178.7040  143.6150 C   0  0  0  0  0  2  0  0  0  0  0  0
  190.9520  179.7460  143.9680 C   0  0  0  0  0  1  0  0  0  0  0  0
  191.3080  176.1500  144.9580 C   0  0  0  0  0  2  0  0  0  0  0  0
  188.0450  177.6770  146.0840 C   0  0  0  0  0  0  0  0  0  0  0  0
  190.2500  176.7600  145.8150 C   0  0  0  0  0  0  0  0  0  0  0  0
  189.4790  177.4970  148.0130 C   0  0  0  0  0  3  0  0  0  0  0  0
  187.1790  178.4110  148.0410 O   0  0  0  0  0  0  0  0  0  0  0  0
  186.1360  178.6410  147.0920 C   0  0  0  0  0  2  0  0  0  0  0  0
  190.4760  176.9400  147.1950 C   0  0  0  0  0  3  0  0  0  0  0  0
  185.9190  177.0700  145.3030 F   0  0  0  0  0  0  0  0  0  0  0  0
  188.2710  177.8550  147.4170 C   0  0  0  0  0  0  0  0  0  0  0  0
  186.6790  178.1420  145.7340 C   0  0  2  0  0  3  0  0  0  0  0  0
  189.0170  177.1290  145.2480 C   0  0  0  0  0  3  0  0  0  0  0  0
  1  3  1  0  0  0  0
  1 20  1  0  0  0  0
  2  3  2  0  0  0  0
  3 22  1  0  0  0  0
  4  7  1  0  0  0  0
  4  5  1  0  0  0  0
  5  6  1  0  0  0  0
  6  8  1  0  0  0  0
  7 10  1  6  0  0  0
  7  9  1  0  0  0  0
  8  1  1  1  0  0  0
  9  8  1  0  0  0  0
 13 15  2  0  0  0  0
 13 19  1  0  0  0  0
 14 16  1  0  0  0  0
 14 11  1  0  0  0  0
 15 17  1  0  0  0  0
 16 12  1  0  0  0  0
 17 10  1  0  0  0  0
 17 16  2  0  0  0  0
 18 19  1  0  0  0  0
 19 14  2  0  0  0  0
 20 21  1  0  0  0  0
 22 24  1  0  0  0  0
 23 30  1  0  0  0  0
 24 28  2  0  0  0  0
 27 26  1  0  0  0  0
 28 25  1  0  0  0  0
 30 25  2  0  0  0  0
 30 26  1  0  0  0  0
 31 29  1  1  0  0  0
 31 23  1  0  0  0  0
 31 27  1  0  0  0  0
 32 24  1  0  0  0  0
 32 23  2  0  0  0  0
M  END
>  <MODEL>
5

>  <REMARK>
 VINA RESULT:      -8.3      3.107      5.592
  Name = 
  6 active torsions:
  status: ('A' for Active; 'I' for Inactive)
    1  A    between atoms: N_4  and  C_23
    2  A    between atoms: N_4  and  C_24
    3  A    between atoms: C_6  and  C_7
    4  A    between atoms: C_7  and  C_31
    5  A    between atoms: O_14  and  C_19
    6  A    between atoms: O_14  and  C_22
                            x       y       z     vdW  Elec       q    Type
                         _______ _______ _______ _____ _____    ______ ____

>  <TORSDO>
F 6

$$$$
=
 OpenBabel11062414143D

 32 35  0  0  1  0  0  0  0  0999 V2000
  191.3570  176.7690  138.0020 N   0  0  0  0  0  0  0  0  0  0  0  0
  193.4440  177.2080  138.9650 O   0  0  0  0  0  0  0  0  0  0  0  0
  192.7940  176.7040  138.0090 C   0  0  0  0  0  0  0  0  0  0  0  0
  188.2640  178.0950  140.4080 C   0  0  0  0  0  2  0  0  0  0  0  0
  188.2580  177.8380  139.0260 O   0  0  0  0  0  0  0  0  0  0  0  0
  189.4920  178.3070  138.5370 C   0  0  0  0  0  2  0  0  0  0  0  0
  189.2270  177.1510  141.1450 C   0  0  1  0  0  3  0  0  0  0  0  0
  190.6690  177.4760  139.0810 C   0  0  1  0  0  3  0  0  0  0  0  0
  190.2270  176.5010  140.1790 C   0  0  0  0  0  2  0  0  0  0  0  0
  189.9190  177.8840  142.1510 O   0  0  0  0  0  0  0  0  0  0  0  0
  191.9050  176.9550  146.4580 O   0  0  0  0  0  1  0  0  0  0  0  0
  192.1330  177.4370  143.7380 F   0  0  0  0  0  0  0  0  0  0  0  0
  188.3670  177.3850  145.4930 C   0  0  0  0  0  3  0  0  0  0  0  0
  190.7720  177.1770  145.6840 C   0  0  0  0  0  0  0  0  0  0  0  0
  188.4950  177.6260  144.1240 C   0  0  0  0  0  3  0  0  0  0  0  0
  190.9020  177.4200  144.3090 C   0  0  0  0  0  0  0  0  0  0  0  0
  189.7640  177.6440  143.5220 C   0  0  0  0  0  0  0  0  0  0  0  0
  189.3640  176.9210  147.6360 O   0  0  0  0  0  1  0  0  0  0  0  0
  189.5020  177.1610  146.2740 C   0  0  0  0  0  0  0  0  0  0  0  0
  190.5850  176.2680  136.8640 C   0  0  0  0  0  2  0  0  0  0  0  0
  190.1730  174.8270  137.0990 C   0  0  0  0  0  1  0  0  0  0  0  0
  193.5450  176.0580  136.8850 C   0  0  0  0  0  2  0  0  0  0  0  0
  194.2750  172.3560  137.0020 C   0  0  0  0  0  0  0  0  0  0  0  0
  194.0910  174.7330  137.3020 C   0  0  0  0  0  0  0  0  0  0  0  0
  195.5250  173.4110  138.7730 C   0  0  0  0  0  3  0  0  0  0  0  0
  195.5480  170.9860  138.2760 O   0  0  0  0  0  0  0  0  0  0  0  0
  194.9290  170.1090  137.3340 C   0  0  0  0  0  2  0  0  0  0  0  0
  194.9900  174.6510  138.3850 C   0  0  0  0  0  3  0  0  0  0  0  0
  194.5400  170.9630  135.1350 F   0  0  0  0  0  0  0  0  0  0  0  0
  195.1400  172.2810  138.0540 C   0  0  0  0  0  0  0  0  0  0  0  0
  194.0540  171.0040  136.4290 C   0  0  2  0  0  3  0  0  0  0  0  0
  193.7280  173.5730  136.5960 C   0  0  0  0  0  3  0  0  0  0  0  0
  1  3  1  0  0  0  0
  3  2  2  0  0  0  0
  4  7  1  0  0  0  0
  5  4  1  0  0  0  0
  6  5  1  0  0  0  0
  6  8  1  0  0  0  0
  7 10  1  1  0  0  0
  8  1  1  6  0  0  0
  8  9  1  0  0  0  0
  9  7  1  0  0  0  0
 10 17  1  0  0  0  0
 12 16  1  0  0  0  0
 13 19  1  0  0  0  0
 14 19  2  0  0  0  0
 14 11  1  0  0  0  0
 15 13  2  0  0  0  0
 16 14  1  0  0  0  0
 17 15  1  0  0  0  0
 17 16  2  0  0  0  0
 19 18  1  0  0  0  0
 20 21  1  0  0  0  0
 20  1  1  0  0  0  0
 22 24  1  0  0  0  0
 22  3  1  0  0  0  0
 23 30  1  0  0  0  0
 24 28  2  0  0  0  0
 27 26  1  0  0  0  0
 28 25  1  0  0  0  0
 30 26  1  0  0  0  0
 30 25  2  0  0  0  0
 31 29  1  6  0  0  0
 31 23  1  0  0  0  0
 31 27  1  0  0  0  0
 32 23  2  0  0  0  0
 32 24  1  0  0  0  0
M  END
>  <MODEL>
6

>  <REMARK>
 VINA RESULT:      -8.2      3.239      9.919
  Name = 
  6 active torsions:
  status: ('A' for Active; 'I' for Inactive)
    1  A    between atoms: N_4  and  C_23
    2  A    between atoms: N_4  and  C_24
    3  A    between atoms: C_6  and  C_7
    4  A    between atoms: C_7  and  C_31
    5  A    between atoms: O_14  and  C_19
    6  A    between atoms: O_14  and  C_22
                            x       y       z     vdW  Elec       q    Type
                         _______ _______ _______ _____ _____    ______ ____

>  <TORSDO>
F 6

$$$$
=
 OpenBabel11062414143D

 32 35  0  0  1  0  0  0  0  0999 V2000
  189.6150  177.4750  140.0570 N   0  0  0  0  0  0  0  0  0  0  0  0
  188.1160  177.4990  141.8530 O   0  0  0  0  0  0  0  0  0  0  0  0
  189.2440  177.1520  141.4080 C   0  0  0  0  0  0  0  0  0  0  0  0
  187.6310  178.8300  136.6880 C   0  0  0  0  0  2  0  0  0  0  0  0
  188.9590  178.3850  136.8110 O   0  0  0  0  0  0  0  0  0  0  0  0
  189.4300  178.8930  138.0360 C   0  0  0  0  0  2  0  0  0  0  0  0
  186.7040  178.0910  137.6670 C   0  0  1  0  0  3  0  0  0  0  0  0
  188.6970  178.2580  139.2320 C   0  0  1  0  0  3  0  0  0  0  0  0
  187.5000  177.4080  138.7880 C   0  0  0  0  0  2  0  0  0  0  0  0
  185.7730  179.0170  138.2160 O   0  0  0  0  0  0  0  0  0  0  0  0
  183.2380  178.6340  142.3130 O   0  0  0  0  0  1  0  0  0  0  0  0
  185.5290  179.3760  140.9420 F   0  0  0  0  0  0  0  0  0  0  0  0
  182.3630  177.6770  138.8550 C   0  0  0  0  0  3  0  0  0  0  0  0
  183.3320  178.4410  140.9400 C   0  0  0  0  0  0  0  0  0  0  0  0
  183.5240  178.0550  138.1760 C   0  0  0  0  0  3  0  0  0  0  0  0
  184.4970  178.8210  140.2590 C   0  0  0  0  0  0  0  0  0  0  0  0
  184.6000  178.6280  138.8740 C   0  0  0  0  0  0  0  0  0  0  0  0
  181.1070  177.4880  140.9010 O   0  0  0  0  0  1  0  0  0  0  0  0
  182.2660  177.8690  140.2350 C   0  0  0  0  0  0  0  0  0  0  0  0
  190.9490  177.1600  139.5460 C   0  0  0  0  0  2  0  0  0  0  0  0
  190.9110  175.8900  138.7170 C   0  0  0  0  0  1  0  0  0  0  0  0
  190.1840  176.4180  142.3140 C   0  0  0  0  0  2  0  0  0  0  0  0
  188.4910  177.4790  145.5170 C   0  0  0  0  0  0  0  0  0  0  0  0
  189.9580  176.8000  143.7390 C   0  0  0  0  0  0  0  0  0  0  0  0
  190.8270  177.1270  145.9990 C   0  0  0  0  0  3  0  0  0  0  0  0
  189.1310  177.8310  147.6590 O   0  0  0  0  0  0  0  0  0  0  0  0
  187.7310  178.1150  147.6630 C   0  0  0  0  0  2  0  0  0  0  0  0
  191.0330  176.7870  144.6520 C   0  0  0  0  0  3  0  0  0  0  0  0
  186.3470  176.8220  146.2040 F   0  0  0  0  0  0  0  0  0  0  0  0
  189.5350  177.4690  146.3950 C   0  0  0  0  0  0  0  0  0  0  0  0
  187.2430  177.8760  146.2170 C   0  0  2  0  0  3  0  0  0  0  0  0
  188.6670  177.1470  144.1740 C   0  0  0  0  0  3  0  0  0  0  0  0
  1  3  1  0  0  0  0
  3  2  2  0  0  0  0
  3 22  1  0  0  0  0
  4  5  1  0  0  0  0
  4  7  1  0  0  0  0
  5  6  1  0  0  0  0
  6  8  1  0  0  0  0
  7 10  1  1  0  0  0
  7  9  1  0  0  0  0
  8  1  1  6  0  0  0
  9  8  1  0  0  0  0
 10 17  1  0  0  0  0
 13 19  1  0  0  0  0
 14 11  1  0  0  0  0
 15 13  2  0  0  0  0
 15 17  1  0  0  0  0
 16 14  1  0  0  0  0
 16 12  1  0  0  0  0
 17 16  2  0  0  0  0
 19 18  1  0  0  0  0
 19 14  2  0  0  0  0
 20  1  1  0  0  0  0
 21 20  1  0  0  0  0
 22 24  1  0  0  0  0
 23 31  1  0  0  0  0
 23 30  1  0  0  0  0
 24 32  1  0  0  0  0
 24 28  2  0  0  0  0
 25 30  2  0  0  0  0
 26 27  1  0  0  0  0
 28 25  1  0  0  0  0
 30 26  1  0  0  0  0
 31 29  1  1  0  0  0
 31 27  1  0  0  0  0
 32 23  2  0  0  0  0
M  END
>  <MODEL>
7

>  <REMARK>
 VINA RESULT:      -8.1      3.456      7.096
  Name = 
  6 active torsions:
  status: ('A' for Active; 'I' for Inactive)
    1  A    between atoms: N_4  and  C_23
    2  A    between atoms: N_4  and  C_24
    3  A    between atoms: C_6  and  C_7
    4  A    between atoms: C_7  and  C_31
    5  A    between atoms: O_14  and  C_19
    6  A    between atoms: O_14  and  C_22
                            x       y       z     vdW  Elec       q    Type
                         _______ _______ _______ _____ _____    ______ ____

>  <TORSDO>
F 6

$$$$
=
 OpenBabel11062414143D

 32 35  0  0  1  0  0  0  0  0999 V2000
  190.2240  177.5600  140.6870 N   0  0  0  0  0  0  0  0  0  0  0  0
  187.9370  177.9870  140.4360 O   0  0  0  0  0  0  0  0  0  0  0  0
  189.0900  178.0150  139.9270 C   0  0  0  0  0  0  0  0  0  0  0  0
  190.9000  176.7290  144.6830 C   0  0  0  0  0  2  0  0  0  0  0  0
  191.8330  176.8700  143.6410 O   0  0  0  0  0  0  0  0  0  0  0  0
  191.2580  176.2500  142.5150 C   0  0  0  0  0  2  0  0  0  0  0  0
  189.6790  177.6370  144.4630 C   0  0  1  0  0  3  0  0  0  0  0  0
  190.0120  177.0120  142.0250 C   0  0  1  0  0  3  0  0  0  0  0  0
  189.5850  178.1110  143.0060 C   0  0  0  0  0  2  0  0  0  0  0  0
  188.4990  176.9290  144.8290 O   0  0  0  0  0  0  0  0  0  0  0  0
  184.9300  179.0030  147.3440 O   0  0  0  0  0  1  0  0  0  0  0  0
  187.4380  177.8310  147.2130 F   0  0  0  0  0  0  0  0  0  0  0  0
  185.2000  178.2530  143.7380 C   0  0  0  0  0  3  0  0  0  0  0  0
  185.4390  178.5580  146.1280 C   0  0  0  0  0  0  0  0  0  0  0  0
  186.4650  177.6640  143.6850 C   0  0  0  0  0  3  0  0  0  0  0  0
  186.7090  177.9670  146.0770 C   0  0  0  0  0  0  0  0  0  0  0  0
  187.2280  177.5160  144.8550 C   0  0  0  0  0  0  0  0  0  0  0  0
  183.4260  179.2850  144.9980 O   0  0  0  0  0  1  0  0  0  0  0  0
  184.6860  178.7000  144.9560 C   0  0  0  0  0  0  0  0  0  0  0  0
  191.5570  177.5030  140.0900 C   0  0  0  0  0  2  0  0  0  0  0  0
  191.6140  176.4240  139.0240 C   0  0  0  0  0  1  0  0  0  0  0  0
  189.2490  178.5140  138.5240 C   0  0  0  0  0  2  0  0  0  0  0  0
  187.4330  175.7680  136.6770 C   0  0  0  0  0  0  0  0  0  0  0  0
  188.3210  177.8030  137.5970 C   0  0  0  0  0  0  0  0  0  0  0  0
  186.5310  177.8770  135.9360 C   0  0  0  0  0  3  0  0  0  0  0  0
  185.7850  175.6590  135.1310 O   0  0  0  0  0  0  0  0  0  0  0  0
  186.1250  174.2930  135.3730 C   0  0  0  0  0  2  0  0  0  0  0  0
  187.4220  178.5390  136.7980 C   0  0  0  0  0  3  0  0  0  0  0  0
  186.7900  173.7080  137.5940 F   0  0  0  0  0  0  0  0  0  0  0  0
  186.5680  176.4850  135.9030 C   0  0  0  0  0  0  0  0  0  0  0  0
  187.2450  174.3150  136.4380 C   0  0  2  0  0  3  0  0  0  0  0  0
  188.3280  176.3980  137.5410 C   0  0  0  0  0  3  0  0  0  0  0  0
  3  2  2  0  0  0  0
  3  1  1  0  0  0  0
  5  4  1  0  0  0  0
  6  5  1  0  0  0  0
  7  4  1  0  0  0  0
  7 10  1  6  0  0  0
  8  1  1  6  0  0  0
  8  6  1  0  0  0  0
  8  9  1  0  0  0  0
  9  7  1  0  0  0  0
 10 17  1  0  0  0  0
 13 19  1  0  0  0  0
 14 11  1  0  0  0  0
 15 13  2  0  0  0  0
 15 17  1  0  0  0  0
 16 14  1  0  0  0  0
 16 12  1  0  0  0  0
 17 16  2  0  0  0  0
 19 18  1  0  0  0  0
 19 14  2  0  0  0  0
 20  1  1  0  0  0  0
 21 20  1  0  0  0  0
 22  3  1  0  0  0  0
 23 32  1  0  0  0  0
 24 22  1  0  0  0  0
 25 28  2  0  0  0  0
 26 27  1  0  0  0  0
 26 30  1  0  0  0  0
 27 31  1  0  0  0  0
 28 24  1  0  0  0  0
 30 25  1  0  0  0  0
 30 23  2  0  0  0  0
 31 23  1  0  0  0  0
 31 29  1  1  0  0  0
 32 24  2  0  0  0  0
M  END
>  <MODEL>
8

>  <REMARK>
 VINA RESULT:      -8.1      3.367      8.939
  Name = 
  6 active torsions:
  status: ('A' for Active; 'I' for Inactive)
    1  A    between atoms: N_4  and  C_23
    2  A    between atoms: N_4  and  C_24
    3  A    between atoms: C_6  and  C_7
    4  A    between atoms: C_7  and  C_31
    5  A    between atoms: O_14  and  C_19
    6  A    between atoms: O_14  and  C_22
                            x       y       z     vdW  Elec       q    Type
                         _______ _______ _______ _____ _____    ______ ____

>  <TORSDO>
F 6

$$$$
=
 OpenBabel11062414143D

 32 35  0  0  1  0  0  0  0  0999 V2000
  186.7840  177.9160  144.4960 N   0  0  0  0  0  0  0  0  0  0  0  0
  186.0100  179.1430  142.6600 O   0  0  0  0  0  0  0  0  0  0  0  0
  185.7480  178.5980  143.7670 C   0  0  0  0  0  0  0  0  0  0  0  0
  190.7030  176.7380  143.8900 C   0  0  0  0  0  2  0  0  0  0  0  0
  189.9330  176.6690  145.0640 O   0  0  0  0  0  0  0  0  0  0  0  0
  189.1820  177.8590  145.1090 C   0  0  0  0  0  2  0  0  0  0  0  0
  189.8280  176.5580  142.6390 C   0  0  1  0  0  3  0  0  0  0  0  0
  188.1470  177.9190  143.9700 C   0  0  1  0  0  3  0  0  0  0  0  0
  188.3430  176.7860  142.9530 C   0  0  0  0  0  2  0  0  0  0  0  0
  190.2640  177.4640  141.6310 O   0  0  0  0  0  0  0  0  0  0  0  0
  187.5120  178.7610  137.8750 O   0  0  0  0  0  1  0  0  0  0  0  0
  188.2270  178.9760  140.5450 F   0  0  0  0  0  0  0  0  0  0  0  0
  190.2680  176.3120  138.0950 C   0  0  0  0  0  3  0  0  0  0  0  0
  188.5430  177.9860  138.3950 C   0  0  0  0  0  0  0  0  0  0  0  0
  190.6180  176.4290  139.4420 C   0  0  0  0  0  3  0  0  0  0  0  0
  188.8940  178.1060  139.7470 C   0  0  0  0  0  0  0  0  0  0  0  0
  189.9320  177.3270  140.2780 C   0  0  0  0  0  0  0  0  0  0  0  0
  188.8910  176.9630  136.2290 O   0  0  0  0  0  1  0  0  0  0  0  0
  189.2330  177.0880  137.5710 C   0  0  0  0  0  0  0  0  0  0  0  0
  186.5260  177.3510  145.8200 C   0  0  0  0  0  2  0  0  0  0  0  0
  186.3940  178.4570  146.8510 C   0  0  0  0  0  1  0  0  0  0  0  0
  184.3530  178.6870  144.3050 C   0  0  0  0  0  2  0  0  0  0  0  0
  182.7250  178.0310  140.9640 C   0  0  0  0  0  0  0  0  0  0  0  0
  183.3510  178.6470  143.2010 C   0  0  0  0  0  0  0  0  0  0  0  0
  181.1000  179.1160  142.3760 C   0  0  0  0  0  3  0  0  0  0  0  0
  180.6910  178.3970  140.0430 O   0  0  0  0  0  0  0  0  0  0  0  0
  181.4350  177.7630  139.0010 C   0  0  0  0  0  2  0  0  0  0  0  0
  182.0560  179.1660  143.4040 C   0  0  0  0  0  3  0  0  0  0  0  0
  183.0400  176.1140  139.6510 F   0  0  0  0  0  0  0  0  0  0  0  0
  181.4750  178.5390  141.1640 C   0  0  0  0  0  0  0  0  0  0  0  0
  182.8360  177.4810  139.5890 C   0  0  2  0  0  3  0  0  0  0  0  0
  183.6940  178.0680  141.9660 C   0  0  0  0  0  3  0  0  0  0  0  0
  1 20  1  0  0  0  0
  2  3  2  0  0  0  0
  3 22  1  0  0  0  0
  3  1  1  0  0  0  0
  4  5  1  0  0  0  0
  5  6  1  0  0  0  0
  7 10  1  6  0  0  0
  7  9  1  0  0  0  0
  7  4  1  0  0  0  0
  8  1  1  1  0  0  0
  8  6  1  0  0  0  0
  9  8  1  0  0  0  0
 11 14  1  0  0  0  0
 13 15  1  0  0  0  0
 14 16  2  0  0  0  0
 15 17  2  0  0  0  0
 16 17  1  0  0  0  0
 16 12  1  0  0  0  0
 17 10  1  0  0  0  0
 18 19  1  0  0  0  0
 19 13  2  0  0  0  0
 19 14  1  0  0  0  0
 20 21  1  0  0  0  0
 23 30  2  0  0  0  0
 23 32  1  0  0  0  0
 24 28  1  0  0  0  0
 24 22  1  0  0  0  0
 25 28  2  0  0  0  0
 26 30  1  0  0  0  0
 27 31  1  0  0  0  0
 27 26  1  0  0  0  0
 30 25  1  0  0  0  0
 31 29  1  1  0  0  0
 31 23  1  0  0  0  0
 32 24  2  0  0  0  0
M  END
>  <MODEL>
9

>  <REMARK>
 VINA RESULT:      -8.1      3.119      5.162
  Name = 
  6 active torsions:
  status: ('A' for Active; 'I' for Inactive)
    1  A    between atoms: N_4  and  C_23
    2  A    between atoms: N_4  and  C_24
    3  A    between atoms: C_6  and  C_7
    4  A    between atoms: C_7  and  C_31
    5  A    between atoms: O_14  and  C_19
    6  A    between atoms: O_14  and  C_22
                            x       y       z     vdW  Elec       q    Type
                         _______ _______ _______ _____ _____    ______ ____

>  <TORSDO>
F 6

$$$$
