=
 OpenBabel11062412323D

 33 38  0  0  1  0  0  0  0  0999 V2000
  185.8150  178.3560  139.2940 C   0  0  1  0  0  3  0  0  0  0  0  0
  181.6810  177.8700  140.5940 C   0  0  0  0  0  2  0  0  0  0  0  0
  179.7560  181.2660  138.1560 C   0  0  0  0  0  1  0  0  0  0  0  0
  180.6120  180.0200  137.9950 C   0  0  2  0  0  0  0  0  0  0  0  0
  180.2870  179.0170  139.0820 C   0  0  0  0  0  2  0  0  0  0  0  0
  184.7090  179.2850  139.2610 N   0  0  0  0  0  0  0  0  0  0  0  0
  183.1050  177.6250  140.1140 C   0  0  2  0  0  3  0  0  0  0  0  0
  182.0590  180.3740  138.2100 C   0  0  0  0  0  2  0  0  0  0  0  0
  183.5090  178.9510  139.5960 C   0  0  0  0  0  0  0  0  0  0  0  0
  182.3930  179.9190  139.6210 C   0  0  2  0  0  3  0  0  0  0  0  0
  181.2360  179.2060  140.1730 N   0  0  2  0  0  0  0  0  0  0  0  0
  181.9540  175.6280  139.1610 C   0  0  0  0  0  1  0  0  0  0  0  0
  183.1030  176.6040  138.9850 C   0  0  0  0  0  2  0  0  0  0  0  0
  180.4310  179.4110  136.6100 C   0  0  0  0  0  2  0  0  0  0  0  0
  181.4580  178.5070  136.3220 O   0  0  0  0  0  1  0  0  0  0  0  0
  188.9450  178.7330  137.2190 C   0  0  0  0  0  2  0  0  0  0  0  0
  186.0860  176.0190  137.0130 C   0  0  2  0  0  3  0  0  0  0  0  0
  189.0020  178.7090  138.7410 C   0  0  0  0  0  2  0  0  0  0  0  0
  185.3070  175.2810  136.0350 N   0  0  0  0  0  1  0  0  0  0  0  0
  188.2800  176.3680  137.8720 C   0  0  0  0  0  2  0  0  0  0  0  0
  185.7490  177.5100  136.9100 C   0  0  0  0  0  2  0  0  0  0  0  0
  186.5340  178.3340  137.9380 C   0  0  2  0  0  3  0  0  0  0  0  0
  187.5130  175.8090  136.7600 N   0  0  0  0  0  2  0  0  0  0  0  0
  187.9920  177.8600  138.0030 C   0  0  0  0  0  0  0  0  0  0  0  0
  186.7350  178.6720  140.4700 C   0  0  0  0  0  2  0  0  0  0  0  0
  185.9300  178.8930  141.7420 C   0  0  0  0  0  2  0  0  0  0  0  0
  189.3260  175.8610  143.1240 O   0  0  0  0  0  1  0  0  0  0  0  0
  188.0320  176.2480  143.4690 C   0  0  2  0  0  3  0  0  0  0  0  0
  186.2380  177.8240  142.7790 C   0  0  1  0  0  3  0  0  0  0  0  0
  187.7380  177.6040  142.8550 C   0  0  1  0  0  3  0  0  0  0  0  0
  188.0960  177.4970  144.3290 C   0  0  1  0  0  3  0  0  0  0  0  0
  186.8040  177.6560  145.1110 C   0  0  0  0  0  2  0  0  0  0  0  0
  185.8010  178.2660  144.1610 C   0  0  0  0  0  2  0  0  0  0  0  0
  1 25  1  1  0  0  0
  4  3  1  1  0  0  0
  4  8  1  0  0  0  0
  4  5  1  0  0  0  0
  6  1  1  0  0  0  0
  6  9  2  0  0  0  0
  7 13  1  6  0  0  0
  7  2  1  0  0  0  0
  9 10  1  0  0  0  0
  9  7  1  0  0  0  0
 10  8  1  6  0  0  0
 10 11  1  0  0  0  0
 11  5  1  6  0  0  0
 11  2  1  0  0  0  0
 13 12  1  0  0  0  0
 14  4  1  0  0  0  0
 15 14  1  0  0  0  0
 16 24  1  0  0  0  0
 16 18  1  0  0  0  0
 17 19  1  6  0  0  0
 20 24  1  0  0  0  0
 21 17  1  0  0  0  0
 21 22  1  0  0  0  0
 22 24  1  0  0  0  0
 22  1  1  1  0  0  0
 23 17  1  0  0  0  0
 23 20  1  0  0  0  0
 24 18  1  0  0  0  0
 25 26  1  0  0  0  0
 28 27  1  6  0  0  0
 28 31  1  0  0  0  0
 29 26  1  6  0  0  0
 29 30  1  0  0  0  0
 29 33  1  0  0  0  0
 30 28  1  0  0  0  0
 30 31  1  0  0  0  0
 31 32  1  0  0  0  0
 33 32  1  0  0  0  0
M  END
>  <MODEL>
1

>  <REMARK>
 VINA RESULT:      -7.0      0.000      0.000
  Name = 
  7 active torsions:
  status: ('A' for Active; 'I' for Inactive)
    1  A    between atoms: C_9  and  C_25
    2  A    between atoms: C_12  and  C_20
    3  A    between atoms: C_14  and  N_17
    4  A    between atoms: C_14  and  C_21
    5  A    between atoms: C_14  and  C_23
    6  A    between atoms: C_19  and  C_30
    7  A    between atoms: C_21  and  C_25
                            x       y       z     vdW  Elec       q    Type
                         _______ _______ _______ _____ _____    ______ ____

>  <TORSDO>
F 7

$$$$
=
 OpenBabel11062412323D

 33 38  0  0  1  0  0  0  0  0999 V2000
  185.6280  178.6010  139.7720 C   0  0  1  0  0  3  0  0  0  0  0  0
  181.4130  177.9190  140.6510 C   0  0  0  0  0  2  0  0  0  0  0  0
  179.5710  181.0260  137.7990 C   0  0  0  0  0  1  0  0  0  0  0  0
  180.5120  179.8330  137.8150 C   0  0  2  0  0  0  0  0  0  0  0  0
  180.1290  178.8770  138.9250 C   0  0  0  0  0  2  0  0  0  0  0  0
  184.4800  179.4500  139.5590 N   0  0  0  0  0  0  0  0  0  0  0  0
  182.8930  177.7410  140.3440 C   0  0  2  0  0  3  0  0  0  0  0  0
  181.9030  180.2940  138.1600 C   0  0  0  0  0  2  0  0  0  0  0  0
  183.2720  179.0580  139.7860 C   0  0  0  0  0  0  0  0  0  0  0  0
  182.1050  179.9480  139.6250 C   0  0  2  0  0  3  0  0  0  0  0  0
  180.9380  179.1940  140.0970 N   0  0  2  0  0  0  0  0  0  0  0  0
  181.9200  175.6760  139.3390 C   0  0  0  0  0  1  0  0  0  0  0  0
  183.0780  176.6560  139.2920 C   0  0  0  0  0  2  0  0  0  0  0  0
  180.5240  179.1310  136.4620 C   0  0  0  0  0  2  0  0  0  0  0  0
  181.7320  178.4600  136.2560 O   0  0  0  0  0  1  0  0  0  0  0  0
  189.0980  178.6610  138.2890 C   0  0  0  0  0  2  0  0  0  0  0  0
  185.8920  176.6660  137.1410 C   0  0  2  0  0  3  0  0  0  0  0  0
  188.8750  178.3760  139.7690 C   0  0  0  0  0  2  0  0  0  0  0  0
  185.1860  176.2750  135.9350 N   0  0  0  0  0  1  0  0  0  0  0  0
  187.9220  176.4090  138.3620 C   0  0  0  0  0  2  0  0  0  0  0  0
  185.8460  178.1910  137.2860 C   0  0  0  0  0  2  0  0  0  0  0  0
  186.5660  178.6540  138.5580 C   0  0  2  0  0  3  0  0  0  0  0  0
  187.2820  176.2110  137.0620 N   0  0  0  0  0  2  0  0  0  0  0  0
  187.8820  177.8860  138.7400 C   0  0  0  0  0  0  0  0  0  0  0  0
  186.3120  178.9580  141.0890 C   0  0  0  0  0  2  0  0  0  0  0  0
  185.9820  177.9340  142.1650 C   0  0  0  0  0  2  0  0  0  0  0  0
  184.6700  178.9580  146.6220 O   0  0  0  0  0  1  0  0  0  0  0  0
  185.8170  178.8930  145.8330 C   0  0  2  0  0  3  0  0  0  0  0  0
  186.5390  178.3590  143.5160 C   0  0  1  0  0  3  0  0  0  0  0  0
  185.5280  178.0500  144.6050 C   0  0  1  0  0  3  0  0  0  0  0  0
  186.3000  177.4560  145.7720 C   0  0  1  0  0  3  0  0  0  0  0  0
  187.7620  177.4160  145.3610 C   0  0  0  0  0  2  0  0  0  0  0  0
  187.7890  177.5730  143.8580 C   0  0  0  0  0  2  0  0  0  0  0  0
  1 25  1  1  0  0  0
  4  3  1  6  0  0  0
  4  8  1  0  0  0  0
  4  5  1  0  0  0  0
  6  1  1  0  0  0  0
  6  9  2  0  0  0  0
  7 13  1  6  0  0  0
  7  2  1  0  0  0  0
  9  7  1  0  0  0  0
 10  8  1  6  0  0  0
 10  9  1  0  0  0  0
 10 11  1  0  0  0  0
 11  5  1  6  0  0  0
 11  2  1  0  0  0  0
 13 12  1  0  0  0  0
 14  4  1  0  0  0  0
 15 14  1  0  0  0  0
 16 24  1  0  0  0  0
 16 18  1  0  0  0  0
 17 19  1  6  0  0  0
 17 21  1  0  0  0  0
 20 24  1  0  0  0  0
 21 22  1  0  0  0  0
 22 24  1  0  0  0  0
 22  1  1  1  0  0  0
 23 17  1  0  0  0  0
 23 20  1  0  0  0  0
 24 18  1  0  0  0  0
 25 26  1  0  0  0  0
 28 27  1  1  0  0  0
 29 26  1  6  0  0  0
 29 33  1  0  0  0  0
 29 30  1  0  0  0  0
 30 31  1  0  0  0  0
 30 28  1  0  0  0  0
 31 28  1  0  0  0  0
 32 31  1  0  0  0  0
 33 32  1  0  0  0  0
M  END
>  <MODEL>
2

>  <REMARK>
 VINA RESULT:      -7.0      1.323      1.656
  Name = 
  7 active torsions:
  status: ('A' for Active; 'I' for Inactive)
    1  A    between atoms: C_9  and  C_25
    2  A    between atoms: C_12  and  C_20
    3  A    between atoms: C_14  and  N_17
    4  A    between atoms: C_14  and  C_21
    5  A    between atoms: C_14  and  C_23
    6  A    between atoms: C_19  and  C_30
    7  A    between atoms: C_21  and  C_25
                            x       y       z     vdW  Elec       q    Type
                         _______ _______ _______ _____ _____    ______ ____

>  <TORSDO>
F 7

$$$$
=
 OpenBabel11062412323D

 33 38  0  0  1  0  0  0  0  0999 V2000
  187.4810  177.5790  144.1660 C   0  0  1  0  0  3  0  0  0  0  0  0
  191.3300  177.1820  142.1570 C   0  0  0  0  0  2  0  0  0  0  0  0
  189.8330  176.5890  137.8460 C   0  0  0  0  0  1  0  0  0  0  0  0
  189.7300  177.5450  139.0220 C   0  0  2  0  0  0  0  0  0  0  0  0
  190.9990  177.5000  139.8470 C   0  0  0  0  0  2  0  0  0  0  0  0
  187.8120  176.9940  142.8880 N   0  0  0  0  0  0  0  0  0  0  0  0
  190.1830  177.6340  143.0500 C   0  0  2  0  0  3  0  0  0  0  0  0
  188.6420  177.0810  139.9530 C   0  0  0  0  0  2  0  0  0  0  0  0
  188.9990  177.0440  142.3860 C   0  0  0  0  0  0  0  0  0  0  0  0
  189.3490  176.3920  141.1080 C   0  0  2  0  0  3  0  0  0  0  0  0
  190.7970  176.5550  140.9390 N   0  0  2  0  0  0  0  0  0  0  0  0
  191.1210  179.7520  143.9730 C   0  0  0  0  0  1  0  0  0  0  0  0
  190.0840  179.1520  143.0400 C   0  0  0  0  0  2  0  0  0  0  0  0
  189.4310  178.9620  138.5470 C   0  0  0  0  0  2  0  0  0  0  0  0
  188.2430  179.0040  137.8110 O   0  0  0  0  0  1  0  0  0  0  0  0
  184.4340  178.3770  146.2460 C   0  0  0  0  0  2  0  0  0  0  0  0
  185.2470  179.2970  142.4940 C   0  0  2  0  0  3  0  0  0  0  0  0
  185.8380  178.7040  146.7400 C   0  0  0  0  0  2  0  0  0  0  0  0
  184.6070  179.3770  141.1950 N   0  0  0  0  0  1  0  0  0  0  0  0
  185.2760  180.2070  144.6960 C   0  0  0  0  0  2  0  0  0  0  0  0
  185.2740  177.8370  142.9580 C   0  0  0  0  0  2  0  0  0  0  0  0
  185.9580  177.6950  144.3230 C   0  0  2  0  0  3  0  0  0  0  0  0
  184.5060  180.1150  143.4560 N   0  0  0  0  0  2  0  0  0  0  0  0
  185.5030  178.8130  145.2700 C   0  0  0  0  0  0  0  0  0  0  0  0
  188.1550  176.8020  145.2940 C   0  0  0  0  0  2  0  0  0  0  0  0
  188.7020  177.7480  146.3520 C   0  0  0  0  0  2  0  0  0  0  0  0
  192.4940  174.8780  146.4800 O   0  0  0  0  0  1  0  0  0  0  0  0
  191.6040  175.5150  147.3430 C   0  0  2  0  0  3  0  0  0  0  0  0
  189.6270  177.0190  147.3150 C   0  0  1  0  0  3  0  0  0  0  0  0
  190.9130  176.6430  146.6010 C   0  0  1  0  0  3  0  0  0  0  0  0
  192.0560  176.9480  147.5570 C   0  0  1  0  0  3  0  0  0  0  0  0
  191.4350  177.5040  148.8260 C   0  0  0  0  0  2  0  0  0  0  0  0
  190.0260  177.9170  148.4690 C   0  0  0  0  0  2  0  0  0  0  0  0
  1 25  1  1  0  0  0
  2  7  1  0  0  0  0
  4  3  1  6  0  0  0
  4  5  1  0  0  0  0
  4  8  1  0  0  0  0
  6  1  1  0  0  0  0
  7 13  1  6  0  0  0
  9  6  2  0  0  0  0
  9  7  1  0  0  0  0
 10  8  1  6  0  0  0
 10  9  1  0  0  0  0
 11  5  1  6  0  0  0
 11 10  1  0  0  0  0
 11  2  1  0  0  0  0
 13 12  1  0  0  0  0
 14  4  1  0  0  0  0
 15 14  1  0  0  0  0
 16 18  1  0  0  0  0
 17 19  1  6  0  0  0
 17 21  1  0  0  0  0
 17 23  1  0  0  0  0
 20 24  1  0  0  0  0
 21 22  1  0  0  0  0
 22  1  1  6  0  0  0
 22 24  1  0  0  0  0
 23 20  1  0  0  0  0
 24 16  1  0  0  0  0
 24 18  1  0  0  0  0
 25 26  1  0  0  0  0
 28 27  1  6  0  0  0
 28 31  1  0  0  0  0
 29 26  1  6  0  0  0
 29 33  1  0  0  0  0
 30 29  1  0  0  0  0
 30 28  1  0  0  0  0
 30 31  1  0  0  0  0
 31 32  1  0  0  0  0
 33 32  1  0  0  0  0
M  END
>  <MODEL>
3

>  <REMARK>
 VINA RESULT:      -6.5      4.142      7.666
  Name = 
  7 active torsions:
  status: ('A' for Active; 'I' for Inactive)
    1  A    between atoms: C_9  and  C_25
    2  A    between atoms: C_12  and  C_20
    3  A    between atoms: C_14  and  N_17
    4  A    between atoms: C_14  and  C_21
    5  A    between atoms: C_14  and  C_23
    6  A    between atoms: C_19  and  C_30
    7  A    between atoms: C_21  and  C_25
                            x       y       z     vdW  Elec       q    Type
                         _______ _______ _______ _____ _____    ______ ____

>  <TORSDO>
F 7

$$$$
=
 OpenBabel11062412323D

 33 38  0  0  1  0  0  0  0  0999 V2000
  182.8060  178.1330  140.0130 C   0  0  1  0  0  3  0  0  0  0  0  0
  183.5780  174.9530  137.1330 C   0  0  0  0  0  2  0  0  0  0  0  0
  179.3210  173.2350  136.7990 C   0  0  0  0  0  1  0  0  0  0  0  0
  180.0960  174.5360  136.6610 C   0  0  2  0  0  0  0  0  0  0  0  0
  181.5190  174.2540  136.2270 C   0  0  0  0  0  2  0  0  0  0  0  0
  182.0520  176.9380  139.7160 N   0  0  0  0  0  0  0  0  0  0  0  0
  183.5490  176.2800  137.8770 C   0  0  2  0  0  3  0  0  0  0  0  0
  180.2220  175.1910  138.0110 C   0  0  0  0  0  2  0  0  0  0  0  0
  182.3660  176.1370  138.7550 C   0  0  0  0  0  0  0  0  0  0  0  0
  181.6300  174.8840  138.4930 C   0  0  2  0  0  3  0  0  0  0  0  0
  182.3540  174.1910  137.4210 N   0  0  2  0  0  0  0  0  0  0  0  0
  183.8550  177.0380  135.5210 C   0  0  0  0  0  1  0  0  0  0  0  0
  183.3320  177.4220  136.8930 C   0  0  0  0  0  2  0  0  0  0  0  0
  179.4010  175.4840  135.6910 C   0  0  0  0  0  2  0  0  0  0  0  0
  180.2710  176.4890  135.2620 O   0  0  0  0  0  1  0  0  0  0  0  0
  180.6360  181.0770  139.0780 C   0  0  0  0  0  2  0  0  0  0  0  0
  179.9610  178.1490  141.6370 C   0  0  2  0  0  3  0  0  0  0  0  0
  181.2200  180.1540  138.0150 C   0  0  0  0  0  2  0  0  0  0  0  0
  179.3950  177.9170  142.9540 N   0  0  0  0  0  1  0  0  0  0  0  0
  179.4620  178.8480  139.4150 C   0  0  0  0  0  2  0  0  0  0  0  0
  181.2150  179.0190  141.7680 C   0  0  0  0  0  2  0  0  0  0  0  0
  181.8610  179.2790  140.4020 C   0  0  2  0  0  3  0  0  0  0  0  0
  178.9710  178.8190  140.7920 N   0  0  0  0  0  2  0  0  0  0  0  0
  180.7880  179.5980  139.3530 C   0  0  0  0  0  0  0  0  0  0  0  0
  183.8740  177.8370  141.0630 C   0  0  0  0  0  2  0  0  0  0  0  0
  184.9340  178.9290  141.0790 C   0  0  0  0  0  2  0  0  0  0  0  0
  183.8220  179.2070  145.6960 O   0  0  0  0  0  1  0  0  0  0  0  0
  184.9380  179.2180  144.8620 C   0  0  2  0  0  3  0  0  0  0  0  0
  185.5570  179.0680  142.4600 C   0  0  1  0  0  3  0  0  0  0  0  0
  184.5590  178.6290  143.5160 C   0  0  1  0  0  3  0  0  0  0  0  0
  185.3250  177.7890  144.5270 C   0  0  1  0  0  3  0  0  0  0  0  0
  186.7680  177.7370  144.0560 C   0  0  0  0  0  2  0  0  0  0  0  0
  186.7620  178.1610  142.6060 C   0  0  0  0  0  2  0  0  0  0  0  0
  1 25  1  1  0  0  0
  2 11  1  0  0  0  0
  2  7  1  0  0  0  0
  4  3  1  1  0  0  0
  4  8  1  0  0  0  0
  5  4  1  0  0  0  0
  6  1  1  0  0  0  0
  7 13  1  6  0  0  0
  7  9  1  0  0  0  0
  9  6  2  0  0  0  0
 10  8  1  6  0  0  0
 10  9  1  0  0  0  0
 11  5  1  6  0  0  0
 11 10  1  0  0  0  0
 12 13  1  0  0  0  0
 14  4  1  0  0  0  0
 15 14  1  0  0  0  0
 16 24  1  0  0  0  0
 17 21  1  0  0  0  0
 17 19  1  1  0  0  0
 18 16  1  0  0  0  0
 18 24  1  0  0  0  0
 20 23  1  0  0  0  0
 22  1  1  6  0  0  0
 22 21  1  0  0  0  0
 23 17  1  0  0  0  0
 24 20  1  0  0  0  0
 24 22  1  0  0  0  0
 25 26  1  0  0  0  0
 28 27  1  1  0  0  0
 29 26  1  6  0  0  0
 29 33  1  0  0  0  0
 29 30  1  0  0  0  0
 30 31  1  0  0  0  0
 30 28  1  0  0  0  0
 31 28  1  0  0  0  0
 32 31  1  0  0  0  0
 33 32  1  0  0  0  0
M  END
>  <MODEL>
4

>  <REMARK>
 VINA RESULT:      -6.5      2.830      5.640
  Name = 
  7 active torsions:
  status: ('A' for Active; 'I' for Inactive)
    1  A    between atoms: C_9  and  C_25
    2  A    between atoms: C_12  and  C_20
    3  A    between atoms: C_14  and  N_17
    4  A    between atoms: C_14  and  C_21
    5  A    between atoms: C_14  and  C_23
    6  A    between atoms: C_19  and  C_30
    7  A    between atoms: C_21  and  C_25
                            x       y       z     vdW  Elec       q    Type
                         _______ _______ _______ _____ _____    ______ ____

>  <TORSDO>
F 7

$$$$
=
 OpenBabel11062412323D

 33 38  0  0  1  0  0  0  0  0999 V2000
  182.4810  177.7000  139.4670 C   0  0  1  0  0  3  0  0  0  0  0  0
  184.3540  176.8960  135.6130 C   0  0  0  0  0  2  0  0  0  0  0  0
  184.7500  172.3230  135.9460 C   0  0  0  0  0  1  0  0  0  0  0  0
  183.7220  173.4390  136.0280 C   0  0  2  0  0  0  0  0  0  0  0  0
  184.1350  174.5980  135.1460 C   0  0  0  0  0  2  0  0  0  0  0  0
  183.2490  176.5620  139.0210 N   0  0  0  0  0  0  0  0  0  0  0  0
  183.4600  177.4250  136.7260 C   0  0  2  0  0  3  0  0  0  0  0  0
  183.7010  174.0010  137.4250 C   0  0  0  0  0  2  0  0  0  0  0  0
  183.6560  176.4300  137.8040 C   0  0  0  0  0  0  0  0  0  0  0  0
  184.4940  175.2950  137.3650 C   0  0  2  0  0  3  0  0  0  0  0  0
  184.8570  175.5620  135.9690 N   0  0  2  0  0  0  0  0  0  0  0  0
  181.4560  178.8360  136.2680 C   0  0  0  0  0  1  0  0  0  0  0  0
  182.0080  177.4220  136.2710 C   0  0  0  0  0  2  0  0  0  0  0  0
  182.3340  172.9300  135.6570 C   0  0  0  0  0  2  0  0  0  0  0  0
  181.4260  173.9860  135.5480 O   0  0  0  0  0  1  0  0  0  0  0  0
  179.1450  178.4230  141.0790 C   0  0  0  0  0  2  0  0  0  0  0  0
  180.2500  175.3940  138.8020 C   0  0  2  0  0  3  0  0  0  0  0  0
  179.8510  179.4640  140.2180 C   0  0  0  0  0  2  0  0  0  0  0  0
  180.0920  173.9560  138.6940 N   0  0  0  0  0  1  0  0  0  0  0  0
  179.0980  177.4780  138.7200 C   0  0  0  0  0  2  0  0  0  0  0  0
  181.0250  175.7250  140.0820 C   0  0  0  0  0  2  0  0  0  0  0  0
  181.2340  177.2360  140.2350 C   0  0  2  0  0  3  0  0  0  0  0  0
  178.9320  176.0290  138.8350 N   0  0  0  0  0  2  0  0  0  0  0  0
  179.9500  177.9950  139.8740 C   0  0  0  0  0  0  0  0  0  0  0  0
  183.3660  178.6570  140.2610 C   0  0  0  0  0  2  0  0  0  0  0  0
  183.0700  178.5600  141.7500 C   0  0  0  0  0  2  0  0  0  0  0  0
  184.5560  179.0720  146.2410 O   0  0  0  0  0  1  0  0  0  0  0  0
  185.0080  179.2600  144.9350 C   0  0  2  0  0  3  0  0  0  0  0  0
  184.2680  178.9990  142.5780 C   0  0  1  0  0  3  0  0  0  0  0  0
  184.1430  178.4510  143.9880 C   0  0  1  0  0  3  0  0  0  0  0  0
  185.5180  177.9390  144.3880 C   0  0  1  0  0  3  0  0  0  0  0  0
  186.4430  178.1870  143.2100 C   0  0  0  0  0  2  0  0  0  0  0  0
  185.5550  178.4320  142.0120 C   0  0  0  0  0  2  0  0  0  0  0  0
  1 25  1  1  0  0  0
  2 11  1  0  0  0  0
  2  7  1  0  0  0  0
  4  3  1  6  0  0  0
  4  8  1  0  0  0  0
  5  4  1  0  0  0  0
  6  1  1  0  0  0  0
  7 13  1  6  0  0  0
  7  9  1  0  0  0  0
  9  6  2  0  0  0  0
 10  8  1  6  0  0  0
 10  9  1  0  0  0  0
 11  5  1  6  0  0  0
 11 10  1  0  0  0  0
 12 13  1  0  0  0  0
 14  4  1  0  0  0  0
 15 14  1  0  0  0  0
 17 19  1  1  0  0  0
 17 23  1  0  0  0  0
 17 21  1  0  0  0  0
 18 16  1  0  0  0  0
 20 23  1  0  0  0  0
 20 24  1  0  0  0  0
 21 22  1  0  0  0  0
 22  1  1  6  0  0  0
 24 18  1  0  0  0  0
 24 22  1  0  0  0  0
 24 16  1  0  0  0  0
 25 26  1  0  0  0  0
 28 27  1  1  0  0  0
 29 26  1  6  0  0  0
 29 30  1  0  0  0  0
 30 31  1  0  0  0  0
 30 28  1  0  0  0  0
 31 28  1  0  0  0  0
 32 31  1  0  0  0  0
 33 29  1  0  0  0  0
 33 32  1  0  0  0  0
M  END
>  <MODEL>
5

>  <REMARK>
 VINA RESULT:      -6.4      2.781      6.027
  Name = 
  7 active torsions:
  status: ('A' for Active; 'I' for Inactive)
    1  A    between atoms: C_9  and  C_25
    2  A    between atoms: C_12  and  C_20
    3  A    between atoms: C_14  and  N_17
    4  A    between atoms: C_14  and  C_21
    5  A    between atoms: C_14  and  C_23
    6  A    between atoms: C_19  and  C_30
    7  A    between atoms: C_21  and  C_25
                            x       y       z     vdW  Elec       q    Type
                         _______ _______ _______ _____ _____    ______ ____

>  <TORSDO>
F 7

$$$$
=
 OpenBabel11062412323D

 33 38  0  0  1  0  0  0  0  0999 V2000
  188.1950  177.5220  141.6500 C   0  0  1  0  0  3  0  0  0  0  0  0
  188.0360  178.6400  137.4380 C   0  0  0  0  0  2  0  0  0  0  0  0
  191.7560  176.3750  135.9520 C   0  0  0  0  0  1  0  0  0  0  0  0
  190.4450  176.1590  136.6900 C   0  0  2  0  0  0  0  0  0  0  0  0
  189.4110  177.1620  136.2250 C   0  0  0  0  0  2  0  0  0  0  0  0
  189.2280  177.5140  140.6410 N   0  0  0  0  0  0  0  0  0  0  0  0
  187.6830  178.1940  138.8500 C   0  0  2  0  0  3  0  0  0  0  0  0
  190.6400  176.4480  138.1540 C   0  0  0  0  0  2  0  0  0  0  0  0
  188.9940  177.7840  139.4020 C   0  0  0  0  0  0  0  0  0  0  0  0
  190.0630  177.8350  138.3840 C   0  0  2  0  0  3  0  0  0  0  0  0
  189.4340  178.2960  137.1410 N   0  0  2  0  0  0  0  0  0  0  0  0
  185.8820  177.0620  137.5490 C   0  0  0  0  0  1  0  0  0  0  0  0
  186.7430  176.9980  138.7980 C   0  0  0  0  0  2  0  0  0  0  0  0
  189.9480  174.7290  136.5100 C   0  0  0  0  0  2  0  0  0  0  0  0
  190.3200  173.9290  137.5930 O   0  0  0  0  0  1  0  0  0  0  0  0
  190.7870  175.5920  143.5990 C   0  0  0  0  0  2  0  0  0  0  0  0
  187.8390  177.8780  144.8870 C   0  0  2  0  0  3  0  0  0  0  0  0
  191.1860  176.5540  142.4870 C   0  0  0  0  0  2  0  0  0  0  0  0
  186.8270  177.9240  145.9270 N   0  0  0  0  0  1  0  0  0  0  0  0
  190.1840  177.9020  144.4690 C   0  0  0  0  0  2  0  0  0  0  0  0
  187.5530  176.6970  143.9530 C   0  0  0  0  0  2  0  0  0  0  0  0
  188.5870  176.6140  142.8240 C   0  0  2  0  0  3  0  0  0  0  0  0
  189.1600  177.7260  145.4990 N   0  0  0  0  0  2  0  0  0  0  0  0
  190.0000  176.8610  143.3700 C   0  0  0  0  0  0  0  0  0  0  0  0
  187.8730  178.9550  142.0650 C   0  0  0  0  0  2  0  0  0  0  0  0
  186.5080  179.3760  141.5420 C   0  0  0  0  0  2  0  0  0  0  0  0
  183.8220  179.3490  145.4690 O   0  0  0  0  0  1  0  0  0  0  0  0
  184.0130  178.6170  144.2980 C   0  0  2  0  0  3  0  0  0  0  0  0
  185.3930  178.6040  142.2320 C   0  0  1  0  0  3  0  0  0  0  0  0
  184.7410  179.4810  143.2850 C   0  0  1  0  0  3  0  0  0  0  0  0
  183.2390  179.2710  143.1680 C   0  0  1  0  0  3  0  0  0  0  0  0
  183.0180  178.2740  142.0440 C   0  0  0  0  0  2  0  0  0  0  0  0
  184.3020  178.2320  141.2480 C   0  0  0  0  0  2  0  0  0  0  0  0
  1 25  1  1  0  0  0
  2  7  1  0  0  0  0
  4  3  1  6  0  0  0
  4  8  1  0  0  0  0
  5  4  1  0  0  0  0
  6  1  1  0  0  0  0
  7 13  1  6  0  0  0
  7  9  1  0  0  0  0
  9  6  2  0  0  0  0
 10  8  1  6  0  0  0
 10  9  1  0  0  0  0
 11  5  1  6  0  0  0
 11  2  1  0  0  0  0
 11 10  1  0  0  0  0
 12 13  1  0  0  0  0
 14  4  1  0  0  0  0
 14 15  1  0  0  0  0
 17 23  1  0  0  0  0
 17 19  1  1  0  0  0
 18 24  1  0  0  0  0
 18 16  1  0  0  0  0
 20 23  1  0  0  0  0
 21 17  1  0  0  0  0
 22  1  1  6  0  0  0
 22 24  1  0  0  0  0
 22 21  1  0  0  0  0
 24 16  1  0  0  0  0
 24 20  1  0  0  0  0
 26 25  1  0  0  0  0
 28 27  1  1  0  0  0
 29 26  1  6  0  0  0
 29 30  1  0  0  0  0
 30 28  1  0  0  0  0
 31 30  1  0  0  0  0
 31 28  1  0  0  0  0
 32 31  1  0  0  0  0
 33 32  1  0  0  0  0
 33 29  1  0  0  0  0
M  END
>  <MODEL>
6

>  <REMARK>
 VINA RESULT:      -6.4      3.720      7.087
  Name = 
  7 active torsions:
  status: ('A' for Active; 'I' for Inactive)
    1  A    between atoms: C_9  and  C_25
    2  A    between atoms: C_12  and  C_20
    3  A    between atoms: C_14  and  N_17
    4  A    between atoms: C_14  and  C_21
    5  A    between atoms: C_14  and  C_23
    6  A    between atoms: C_19  and  C_30
    7  A    between atoms: C_21  and  C_25
                            x       y       z     vdW  Elec       q    Type
                         _______ _______ _______ _____ _____    ______ ____

>  <TORSDO>
F 7

$$$$
=
 OpenBabel11062412323D

 33 38  0  0  1  0  0  0  0  0999 V2000
  188.0210  177.6230  140.8470 C   0  0  1  0  0  3  0  0  0  0  0  0
  187.6430  178.1680  136.5380 C   0  0  0  0  0  2  0  0  0  0  0  0
  191.5010  176.0430  135.2030 C   0  0  0  0  0  1  0  0  0  0  0  0
  190.2360  175.8180  136.0140 C   0  0  2  0  0  0  0  0  0  0  0  0
  189.1050  176.6630  135.4670 C   0  0  0  0  0  2  0  0  0  0  0  0
  189.0210  177.5700  139.8070 N   0  0  0  0  0  0  0  0  0  0  0  0
  187.3710  177.8820  138.0080 C   0  0  2  0  0  3  0  0  0  0  0  0
  190.4470  176.3100  137.4210 C   0  0  0  0  0  2  0  0  0  0  0  0
  188.7280  177.6560  138.5540 C   0  0  0  0  0  0  0  0  0  0  0  0
  189.7590  177.6630  137.4960 C   0  0  2  0  0  3  0  0  0  0  0  0
  189.0560  177.9050  136.2310 N   0  0  2  0  0  0  0  0  0  0  0  0
  185.3280  176.6820  137.2300 C   0  0  0  0  0  1  0  0  0  0  0  0
  186.5370  176.6160  138.1450 C   0  0  0  0  0  2  0  0  0  0  0  0
  189.8600  174.3410  136.0370 C   0  0  0  0  0  2  0  0  0  0  0  0
  189.9340  173.8250  137.3330 O   0  0  0  0  0  1  0  0  0  0  0  0
  188.1370  177.1920  144.5950 C   0  0  0  0  0  2  0  0  0  0  0  0
  191.0580  177.0700  141.9440 C   0  0  2  0  0  3  0  0  0  0  0  0
  187.1800  176.3770  143.7330 C   0  0  0  0  0  2  0  0  0  0  0  0
  192.4330  177.5020  141.7680 N   0  0  0  0  0  1  0  0  0  0  0  0
  189.6240  175.6580  143.2180 C   0  0  0  0  0  2  0  0  0  0  0  0
  190.1480  178.2990  142.0390 C   0  0  0  0  0  2  0  0  0  0  0  0
  188.6780  177.8950  142.2080 C   0  0  2  0  0  3  0  0  0  0  0  0
  190.9500  176.2710  143.1660 N   0  0  0  0  0  2  0  0  0  0  0  0
  188.5510  176.7420  143.2130 C   0  0  0  0  0  0  0  0  0  0  0  0
  186.9320  178.6290  140.4820 C   0  0  0  0  0  2  0  0  0  0  0  0
  186.4470  179.3730  141.7180 C   0  0  0  0  0  2  0  0  0  0  0  0
  184.1040  179.0030  145.8430 O   0  0  0  0  0  1  0  0  0  0  0  0
  184.1010  178.4620  144.5580 C   0  0  2  0  0  3  0  0  0  0  0  0
  185.2970  178.6340  142.3870 C   0  0  1  0  0  3  0  0  0  0  0  0
  184.8550  179.3920  143.6250 C   0  0  1  0  0  3  0  0  0  0  0  0
  183.3350  179.3870  143.6290 C   0  0  1  0  0  3  0  0  0  0  0  0
  182.8920  178.6280  142.3900 C   0  0  0  0  0  2  0  0  0  0  0  0
  184.0900  178.5680  141.4720 C   0  0  0  0  0  2  0  0  0  0  0  0
  1 25  1  6  0  0  0
  2  7  1  0  0  0  0
  4  3  1  6  0  0  0
  4 14  1  0  0  0  0
  4  8  1  0  0  0  0
  5  4  1  0  0  0  0
  6  1  1  0  0  0  0
  7 13  1  6  0  0  0
  7  9  1  0  0  0  0
  9  6  2  0  0  0  0
 10  8  1  6  0  0  0
 10  9  1  0  0  0  0
 11  5  1  6  0  0  0
 11  2  1  0  0  0  0
 11 10  1  0  0  0  0
 12 13  1  0  0  0  0
 14 15  1  0  0  0  0
 17 19  1  1  0  0  0
 17 21  1  0  0  0  0
 17 23  1  0  0  0  0
 18 16  1  0  0  0  0
 21 22  1  0  0  0  0
 22  1  1  6  0  0  0
 22 24  1  0  0  0  0
 23 20  1  0  0  0  0
 24 20  1  0  0  0  0
 24 18  1  0  0  0  0
 24 16  1  0  0  0  0
 25 26  1  0  0  0  0
 28 27  1  1  0  0  0
 29 26  1  6  0  0  0
 29 30  1  0  0  0  0
 30 31  1  0  0  0  0
 30 28  1  0  0  0  0
 31 28  1  0  0  0  0
 32 31  1  0  0  0  0
 33 29  1  0  0  0  0
 33 32  1  0  0  0  0
M  END
>  <MODEL>
7

>  <REMARK>
 VINA RESULT:      -6.1      3.655      6.831
  Name = 
  7 active torsions:
  status: ('A' for Active; 'I' for Inactive)
    1  A    between atoms: C_9  and  C_25
    2  A    between atoms: C_12  and  C_20
    3  A    between atoms: C_14  and  N_17
    4  A    between atoms: C_14  and  C_21
    5  A    between atoms: C_14  and  C_23
    6  A    between atoms: C_19  and  C_30
    7  A    between atoms: C_21  and  C_25
                            x       y       z     vdW  Elec       q    Type
                         _______ _______ _______ _____ _____    ______ ____

>  <TORSDO>
F 7

$$$$
=
 OpenBabel11062412323D

 33 38  0  0  1  0  0  0  0  0999 V2000
  182.8500  177.6330  139.0230 C   0  0  1  0  0  3  0  0  0  0  0  0
  185.5510  175.3260  136.4950 C   0  0  0  0  0  2  0  0  0  0  0  0
  183.1080  171.4370  136.1930 C   0  0  0  0  0  1  0  0  0  0  0  0
  183.0000  172.9340  135.9540 C   0  0  2  0  0  0  0  0  0  0  0  0
  184.3550  173.5060  135.5960 C   0  0  0  0  0  2  0  0  0  0  0  0
  182.9500  176.2070  138.8210 N   0  0  0  0  0  0  0  0  0  0  0  0
  184.7000  176.4310  137.1040 C   0  0  2  0  0  3  0  0  0  0  0  0
  182.6120  173.6210  137.2360 C   0  0  0  0  0  2  0  0  0  0  0  0
  183.7470  175.6810  137.9530 C   0  0  0  0  0  0  0  0  0  0  0  0
  183.8930  174.2200  137.7910 C   0  0  2  0  0  3  0  0  0  0  0  0
  184.9710  174.0140  136.8170 N   0  0  2  0  0  0  0  0  0  0  0  0
  184.7340  177.1240  134.7090 C   0  0  0  0  0  1  0  0  0  0  0  0
  183.9480  177.1710  136.0070 C   0  0  0  0  0  2  0  0  0  0  0  0
  181.9700  173.2400  134.8730 C   0  0  0  0  0  2  0  0  0  0  0  0
  180.8300  172.4460  135.0290 O   0  0  0  0  0  1  0  0  0  0  0  0
  179.1850  177.6760  139.9250 C   0  0  0  0  0  2  0  0  0  0  0  0
  181.5550  180.6370  138.8320 C   0  0  2  0  0  3  0  0  0  0  0  0
  180.2210  177.0490  140.8500 C   0  0  0  0  0  2  0  0  0  0  0  0
  181.5530  181.8290  138.0050 N   0  0  0  0  0  1  0  0  0  0  0  0
  180.5940  179.6190  140.7600 C   0  0  0  0  0  2  0  0  0  0  0  0
  181.3980  179.4000  137.9410 C   0  0  0  0  0  2  0  0  0  0  0  0
  181.4130  178.1090  138.7690 C   0  0  2  0  0  3  0  0  0  0  0  0
  180.4520  180.7060  139.7920 N   0  0  0  0  0  2  0  0  0  0  0  0
  180.5670  178.2760  140.0380 C   0  0  0  0  0  0  0  0  0  0  0  0
  183.3840  178.0100  140.4030 C   0  0  0  0  0  2  0  0  0  0  0  0
  184.5320  179.0010  140.2860 C   0  0  0  0  0  2  0  0  0  0  0  0
  183.4290  179.3780  144.8980 O   0  0  0  0  0  1  0  0  0  0  0  0
  184.5270  179.4940  144.0480 C   0  0  2  0  0  3  0  0  0  0  0  0
  185.1410  179.2980  141.6480 C   0  0  1  0  0  3  0  0  0  0  0  0
  184.2200  178.7870  142.7410 C   0  0  1  0  0  3  0  0  0  0  0  0
  185.1000  178.1130  143.7820 C   0  0  1  0  0  3  0  0  0  0  0  0
  186.5330  178.2310  143.2940 C   0  0  0  0  0  2  0  0  0  0  0  0
  186.4590  178.5700  141.8230 C   0  0  0  0  0  2  0  0  0  0  0  0
  1 25  1  1  0  0  0
  2 11  1  0  0  0  0
  2  7  1  0  0  0  0
  4  3  1  1  0  0  0
  4  8  1  0  0  0  0
  5  4  1  0  0  0  0
  6  1  1  0  0  0  0
  7 13  1  6  0  0  0
  7  9  1  0  0  0  0
  9  6  2  0  0  0  0
 10  8  1  6  0  0  0
 10  9  1  0  0  0  0
 11  5  1  6  0  0  0
 11 10  1  0  0  0  0
 12 13  1  0  0  0  0
 14 15  1  0  0  0  0
 14  4  1  0  0  0  0
 16 24  1  0  0  0  0
 16 18  1  0  0  0  0
 17 19  1  6  0  0  0
 17 23  1  0  0  0  0
 21 22  1  0  0  0  0
 21 17  1  0  0  0  0
 22  1  1  1  0  0  0
 22 24  1  0  0  0  0
 23 20  1  0  0  0  0
 24 20  1  0  0  0  0
 24 18  1  0  0  0  0
 26 25  1  0  0  0  0
 28 27  1  1  0  0  0
 29 26  1  6  0  0  0
 29 33  1  0  0  0  0
 29 30  1  0  0  0  0
 30 31  1  0  0  0  0
 30 28  1  0  0  0  0
 31 28  1  0  0  0  0
 32 31  1  0  0  0  0
 33 32  1  0  0  0  0
M  END
>  <MODEL>
8

>  <REMARK>
 VINA RESULT:      -6.0      2.806      6.201
  Name = 
  7 active torsions:
  status: ('A' for Active; 'I' for Inactive)
    1  A    between atoms: C_9  and  C_25
    2  A    between atoms: C_12  and  C_20
    3  A    between atoms: C_14  and  N_17
    4  A    between atoms: C_14  and  C_21
    5  A    between atoms: C_14  and  C_23
    6  A    between atoms: C_19  and  C_30
    7  A    between atoms: C_21  and  C_25
                            x       y       z     vdW  Elec       q    Type
                         _______ _______ _______ _____ _____    ______ ____

>  <TORSDO>
F 7

$$$$
=
 OpenBabel11062412323D

 33 38  0  0  1  0  0  0  0  0999 V2000
  182.6690  176.7320  136.5500 C   0  0  1  0  0  3  0  0  0  0  0  0
  186.6000  175.0360  135.7220 C   0  0  0  0  0  2  0  0  0  0  0  0
  189.2050  178.6310  136.9340 C   0  0  0  0  0  1  0  0  0  0  0  0
  188.1210  177.7100  137.4700 C   0  0  2  0  0  0  0  0  0  0  0  0
  188.2210  176.3480  136.8160 C   0  0  0  0  0  2  0  0  0  0  0  0
  183.9380  177.3820  136.3190 N   0  0  0  0  0  0  0  0  0  0  0  0
  185.1650  175.2530  136.1810 C   0  0  2  0  0  3  0  0  0  0  0  0
  186.7700  178.2380  137.0680 C   0  0  0  0  0  2  0  0  0  0  0  0
  185.0420  176.7280  136.1840 C   0  0  0  0  0  0  0  0  0  0  0  0
  186.3270  177.3920  135.8860 C   0  0  2  0  0  3  0  0  0  0  0  0
  187.3100  176.3220  135.6780 N   0  0  2  0  0  0  0  0  0  0  0  0
  184.5770  173.2500  137.5450 C   0  0  0  0  0  1  0  0  0  0  0  0
  184.9830  174.7120  137.5910 C   0  0  0  0  0  2  0  0  0  0  0  0
  188.2010  177.6010  138.9880 C   0  0  0  0  0  2  0  0  0  0  0  0
  188.7580  178.7560  139.5440 O   0  0  0  0  0  1  0  0  0  0  0  0
  180.5140  176.5590  139.6440 C   0  0  0  0  0  2  0  0  0  0  0  0
  183.6880  178.7820  138.8940 C   0  0  2  0  0  3  0  0  0  0  0  0
  181.1190  175.3030  139.0290 C   0  0  0  0  0  2  0  0  0  0  0  0
  184.1870  180.1300  139.0960 N   0  0  0  0  0  1  0  0  0  0  0  0
  183.0200  176.7820  140.0040 C   0  0  0  0  0  2  0  0  0  0  0  0
  182.4750  178.8230  137.9600 C   0  0  0  0  0  2  0  0  0  0  0  0
  181.9190  177.4180  137.7010 C   0  0  2  0  0  3  0  0  0  0  0  0
  183.3080  178.2040  140.1850 N   0  0  0  0  0  2  0  0  0  0  0  0
  181.8820  176.6070  139.0040 C   0  0  0  0  0  0  0  0  0  0  0  0
  181.8670  176.6610  135.2540 C   0  0  0  0  0  2  0  0  0  0  0  0
  180.8570  175.5250  135.3040 C   0  0  0  0  0  2  0  0  0  0  0  0
  180.0050  171.4410  137.5930 O   0  0  0  0  0  1  0  0  0  0  0  0
  181.0400  172.1030  136.9330 C   0  0  2  0  0  3  0  0  0  0  0  0
  181.5190  174.2210  135.7260 C   0  0  1  0  0  3  0  0  0  0  0  0
  180.4540  173.1910  136.0530 C   0  0  1  0  0  3  0  0  0  0  0  0
  180.9060  171.8750  135.4390 C   0  0  1  0  0  3  0  0  0  0  0  0
  182.2340  172.1410  134.7520 C   0  0  0  0  0  2  0  0  0  0  0  0
  182.3430  173.6400  134.5940 C   0  0  0  0  0  2  0  0  0  0  0  0
  1 25  1  6  0  0  0
  2  7  1  0  0  0  0
  4  3  1  6  0  0  0
  4 14  1  0  0  0  0
  5  4  1  0  0  0  0
  6  1  1  0  0  0  0
  7  9  1  0  0  0  0
  7 13  1  1  0  0  0
  8  4  1  0  0  0  0
  9  6  2  0  0  0  0
 10  9  1  0  0  0  0
 10  8  1  1  0  0  0
 11  2  1  1  0  0  0
 11 10  1  0  0  0  0
 11  5  1  0  0  0  0
 12 13  1  0  0  0  0
 14 15  1  0  0  0  0
 17 19  1  1  0  0  0
 17 23  1  0  0  0  0
 18 16  1  0  0  0  0
 20 23  1  0  0  0  0
 21 17  1  0  0  0  0
 22  1  1  6  0  0  0
 22 21  1  0  0  0  0
 22 24  1  0  0  0  0
 24 18  1  0  0  0  0
 24 16  1  0  0  0  0
 24 20  1  0  0  0  0
 25 26  1  0  0  0  0
 28 27  1  1  0  0  0
 29 26  1  6  0  0  0
 29 30  1  0  0  0  0
 30 28  1  0  0  0  0
 31 30  1  0  0  0  0
 31 28  1  0  0  0  0
 32 31  1  0  0  0  0
 33 32  1  0  0  0  0
 33 29  1  0  0  0  0
M  END
>  <MODEL>
9

>  <REMARK>
 VINA RESULT:      -5.9      3.082      7.849
  Name = 
  7 active torsions:
  status: ('A' for Active; 'I' for Inactive)
    1  A    between atoms: C_9  and  C_25
    2  A    between atoms: C_12  and  C_20
    3  A    between atoms: C_14  and  N_17
    4  A    between atoms: C_14  and  C_21
    5  A    between atoms: C_14  and  C_23
    6  A    between atoms: C_19  and  C_30
    7  A    between atoms: C_21  and  C_25
                            x       y       z     vdW  Elec       q    Type
                         _______ _______ _______ _____ _____    ______ ____

>  <TORSDO>
F 7

$$$$
