=
 OpenBabel11062415393D

 34 35  0  0  1  0  0  0  0  0999 V2000
  185.6690  178.7410  146.8600 C   0  0  0  0  0  1  0  0  0  0  0  0
  186.0570  178.6450  145.3690 C   0  0  1  0  0  3  0  0  0  0  0  0
  188.3950  177.9610  145.2260 C   0  0  1  0  0  3  0  0  0  0  0  0
  187.8380  176.1500  143.6570 O   0  0  0  0  0  1  0  0  0  0  0  0
  187.6710  177.4860  144.0920 C   0  0  1  0  0  3  0  0  0  0  0  0
  186.9610  177.4650  145.2940 N   0  0  0  0  0  0  0  0  0  0  0  0
  189.1480  176.6710  147.1490 O   0  0  0  0  0  0  0  0  0  0  0  0
  189.4020  177.0250  145.9610 C   0  0  0  0  0  0  0  0  0  0  0  0
  190.8120  176.8170  145.4850 C   0  0  2  0  0  3  0  0  0  0  0  0
  191.7010  176.3460  146.6460 C   0  0  0  0  0  0  0  0  0  0  0  0
  191.8990  177.1140  147.7650 O   0  0  0  0  0  1  0  0  0  0  0  0
  192.3100  175.2340  146.5570 O   0  0  0  0  0  0  0  0  0  0  0  0
  191.3750  177.9670  144.7950 C   0  0  0  0  0  2  0  0  0  0  0  0
  191.7190  177.8970  143.3740 N   0  0  0  0  0  2  0  0  0  0  0  0
  191.1070  176.6880  142.7670 C   0  0  0  0  0  2  0  0  0  0  0  0
  189.5190  177.7060  141.2010 O   0  0  0  0  0  1  0  0  0  0  0  0
  190.6030  176.8530  141.3070 C   0  0  1  0  0  3  0  0  0  0  0  0
  191.7210  177.3860  140.4680 C   0  0  0  0  0  2  0  0  0  0  0  0
  191.5340  177.0140  139.1020 O   0  0  0  0  0  1  0  0  0  0  0  0
  184.8270  178.3980  144.4700 C   0  0  1  0  0  3  0  0  0  0  0  0
  183.6450  178.9060  145.2160 C   0  0  0  0  0  1  0  0  0  0  0  0
  184.9930  179.2480  143.1480 C   0  0  0  0  0  2  0  0  0  0  0  0
  183.2190  178.5950  140.2190 C   0  0  0  0  0  0  0  0  0  0  0  0
  183.3980  178.3740  141.4280 N   0  0  0  0  0  0  0  0  0  0  0  0
  184.8260  178.3540  141.8230 C   0  0  1  0  0  3  0  0  0  0  0  0
  185.4520  178.9850  140.5230 C   0  0  0  0  0  2  0  0  0  0  0  0
  184.3620  178.8450  139.4820 N   0  0  0  0  0  2  0  0  0  0  0  0
  181.7930  178.5630  139.6680 C   0  0  0  0  0  2  0  0  0  0  0  0
  180.6020  180.6110  140.0210 O   0  0  0  0  0  0  0  0  0  0  0  0
  179.9560  178.7610  144.0110 C   0  0  0  0  0  1  0  0  0  0  0  0
  180.8190  179.4230  140.4170 C   0  0  0  0  0  0  0  0  0  0  0  0
  180.1710  178.8470  141.5750 N   0  0  0  0  0  2  0  0  0  0  0  0
  179.7920  180.7830  142.8850 O   0  0  0  0  0  0  0  0  0  0  0  0
  179.9030  179.5460  142.8010 C   0  0  0  0  0  0  0  0  0  0  0  0
  2  1  1  1  0  0  0
  3  6  1  0  0  0  0
  3  8  1  1  0  0  0
  5  4  1  1  0  0  0
  5  3  1  0  0  0  0
  5  6  1  0  0  0  0
  6  2  1  0  0  0  0
  8  7  2  0  0  0  0
  9 13  1  1  0  0  0
  9  8  1  0  0  0  0
  9 10  1  0  0  0  0
 10 11  1  0  0  0  0
 12 10  2  0  0  0  0
 14 13  1  0  0  0  0
 15 14  1  0  0  0  0
 17 16  1  1  0  0  0
 17 15  1  0  0  0  0
 18 17  1  0  0  0  0
 19 18  1  0  0  0  0
 20 21  1  1  0  0  0
 20  2  1  0  0  0  0
 22 20  1  0  0  0  0
 23 24  2  0  0  0  0
 24 25  1  0  0  0  0
 25 22  1  1  0  0  0
 26 25  1  0  0  0  0
 27 23  1  0  0  0  0
 27 26  1  0  0  0  0
 28 23  1  0  0  0  0
 28 31  1  0  0  0  0
 29 31  2  0  0  0  0
 31 32  1  0  0  0  0
 32 34  1  0  0  0  0
 34 33  2  0  0  0  0
 34 30  1  0  0  0  0
M  END
>  <MODEL>
1

>  <REMARK>
 VINA RESULT:      -7.8      0.000      0.000
  Name = 
  14 active torsions:
  status: ('A' for Active; 'I' for Inactive)
    1  A    between atoms: C_2  and  C_30
    2  A    between atoms: C_3  and  C_9
    3  A    between atoms: C_3  and  N_20
    4  A    between atoms: C_4  and  C_9
    5  A    between atoms: C_8  and  C_12
    6  A    between atoms: C_8  and  C_16
    7  A    between atoms: C_9  and  C_30
    8  A    between atoms: C_10  and  C_18
    9  A    between atoms: C_10  and  C_24
   10  A    between atoms: C_14  and  C_23
   11  A    between atoms: C_18  and  N_31
   12  A    between atoms: N_20  and  C_27
   13  A    between atoms: C_23  and  C_27
   14  A    between atoms: C_24  and  C_25
                            x       y       z     vdW  Elec       q    Type
                         _______ _______ _______ _____ _____    ______ ____

>  <TORSDO>
F 14

$$$$
=
 OpenBabel11062415393D

 34 35  0  0  1  0  0  0  0  0999 V2000
  185.7320  178.7450  146.9380 C   0  0  0  0  0  1  0  0  0  0  0  0
  186.1180  178.6370  145.4470 C   0  0  1  0  0  3  0  0  0  0  0  0
  188.4490  177.9150  145.4490 C   0  0  1  0  0  3  0  0  0  0  0  0
  187.9890  176.2030  143.7430 O   0  0  0  0  0  1  0  0  0  0  0  0
  187.8090  177.5160  144.2370 C   0  0  1  0  0  3  0  0  0  0  0  0
  187.0060  177.4440  145.3770 N   0  0  0  0  0  0  0  0  0  0  0  0
  189.1150  176.6370  147.4120 O   0  0  0  0  0  0  0  0  0  0  0  0
  189.3790  176.9200  146.2080 C   0  0  0  0  0  0  0  0  0  0  0  0
  190.7560  176.5650  145.7210 C   0  0  2  0  0  3  0  0  0  0  0  0
  191.6970  176.3290  146.9140 C   0  0  0  0  0  0  0  0  0  0  0  0
  191.8580  177.2630  147.9050 O   0  0  0  0  0  1  0  0  0  0  0  0
  192.3830  175.2610  146.9670 O   0  0  0  0  0  0  0  0  0  0  0  0
  191.3060  177.5170  144.7690 C   0  0  0  0  0  2  0  0  0  0  0  0
  191.7750  177.0790  143.4540 N   0  0  0  0  0  2  0  0  0  0  0  0
  191.0330  177.8010  142.3890 C   0  0  0  0  0  2  0  0  0  0  0  0
  189.2220  177.0950  140.8940 O   0  0  0  0  0  1  0  0  0  0  0  0
  190.5610  176.9280  141.1930 C   0  0  1  0  0  3  0  0  0  0  0  0
  191.3730  177.2820  139.9880 C   0  0  0  0  0  2  0  0  0  0  0  0
  191.1390  176.3410  138.9400 O   0  0  0  0  0  1  0  0  0  0  0  0
  184.8850  178.4030  144.5490 C   0  0  1  0  0  3  0  0  0  0  0  0
  183.6990  178.8420  145.3310 C   0  0  0  0  0  1  0  0  0  0  0  0
  185.0130  179.3210  143.2690 C   0  0  0  0  0  2  0  0  0  0  0  0
  184.2310  179.1720  139.8750 C   0  0  0  0  0  0  0  0  0  0  0  0
  183.8990  178.9690  141.0550 N   0  0  0  0  0  0  0  0  0  0  0  0
  185.0070  178.4710  141.9060 C   0  0  1  0  0  3  0  0  0  0  0  0
  186.2150  178.7710  140.9410 C   0  0  0  0  0  2  0  0  0  0  0  0
  185.5680  178.9660  139.5860 N   0  0  0  0  0  2  0  0  0  0  0  0
  183.1610  179.6120  138.8760 C   0  0  0  0  0  2  0  0  0  0  0  0
  181.2460  178.2440  138.4300 O   0  0  0  0  0  0  0  0  0  0  0  0
  184.3760  175.6120  136.6850 C   0  0  0  0  0  1  0  0  0  0  0  0
  182.4670  178.4850  138.1720 C   0  0  0  0  0  0  0  0  0  0  0  0
  183.2400  177.7120  137.2240 N   0  0  0  0  0  2  0  0  0  0  0  0
  182.1590  175.6100  137.3720 O   0  0  0  0  0  0  0  0  0  0  0  0
  183.1560  176.2870  137.0590 C   0  0  0  0  0  0  0  0  0  0  0  0
  2  1  1  1  0  0  0
  3  8  1  1  0  0  0
  5  4  1  1  0  0  0
  5  6  1  0  0  0  0
  5  3  1  0  0  0  0
  6  2  1  0  0  0  0
  6  3  1  0  0  0  0
  8  7  2  0  0  0  0
  9 13  1  6  0  0  0
  9  8  1  0  0  0  0
  9 10  1  0  0  0  0
 10 12  2  0  0  0  0
 10 11  1  0  0  0  0
 14 13  1  0  0  0  0
 15 14  1  0  0  0  0
 17 16  1  6  0  0  0
 17 15  1  0  0  0  0
 18 17  1  0  0  0  0
 19 18  1  0  0  0  0
 20 21  1  1  0  0  0
 20  2  1  0  0  0  0
 22 20  1  0  0  0  0
 23 24  2  0  0  0  0
 24 25  1  0  0  0  0
 25 22  1  1  0  0  0
 26 25  1  0  0  0  0
 27 23  1  0  0  0  0
 27 26  1  0  0  0  0
 28 23  1  0  0  0  0
 30 34  1  0  0  0  0
 31 29  2  0  0  0  0
 31 28  1  0  0  0  0
 32 31  1  0  0  0  0
 34 32  1  0  0  0  0
 34 33  2  0  0  0  0
M  END
>  <MODEL>
2

>  <REMARK>
 VINA RESULT:      -7.4      1.782      2.763
  Name = 
  14 active torsions:
  status: ('A' for Active; 'I' for Inactive)
    1  A    between atoms: C_2  and  C_30
    2  A    between atoms: C_3  and  C_9
    3  A    between atoms: C_3  and  N_20
    4  A    between atoms: C_4  and  C_9
    5  A    between atoms: C_8  and  C_12
    6  A    between atoms: C_8  and  C_16
    7  A    between atoms: C_9  and  C_30
    8  A    between atoms: C_10  and  C_18
    9  A    between atoms: C_10  and  C_24
   10  A    between atoms: C_14  and  C_23
   11  A    between atoms: C_18  and  N_31
   12  A    between atoms: N_20  and  C_27
   13  A    between atoms: C_23  and  C_27
   14  A    between atoms: C_24  and  C_25
                            x       y       z     vdW  Elec       q    Type
                         _______ _______ _______ _____ _____    ______ ____

>  <TORSDO>
F 14

$$$$
=
 OpenBabel11062415393D

 34 35  0  0  1  0  0  0  0  0999 V2000
  190.7960  178.9810  144.7870 C   0  0  0  0  0  1  0  0  0  0  0  0
  189.7250  177.9310  144.4180 C   0  0  1  0  0  3  0  0  0  0  0  0
  189.6260  177.1410  142.1120 C   0  0  1  0  0  3  0  0  0  0  0  0
  190.2760  174.8680  142.7940 O   0  0  0  0  0  1  0  0  0  0  0  0
  189.5190  176.0410  143.0170 C   0  0  1  0  0  3  0  0  0  0  0  0
  190.3930  177.0520  143.4200 N   0  0  0  0  0  0  0  0  0  0  0  0
  191.7740  177.2980  140.9780 O   0  0  0  0  0  0  0  0  0  0  0  0
  190.5430  177.0350  140.8560 C   0  0  0  0  0  0  0  0  0  0  0  0
  189.9990  176.9960  139.4550 C   0  0  2  0  0  3  0  0  0  0  0  0
  190.9530  176.2170  138.5370 C   0  0  0  0  0  0  0  0  0  0  0  0
  191.8670  176.8520  137.7350 O   0  0  0  0  0  0  0  0  0  0  0  0
  190.8690  174.9510  138.4770 O   0  0  0  0  0  1  0  0  0  0  0  0
  189.6680  178.3070  138.9170 C   0  0  0  0  0  2  0  0  0  0  0  0
  188.3190  178.8570  139.0560 N   0  0  0  0  0  2  0  0  0  0  0  0
  187.3180  177.8540  138.6130 C   0  0  0  0  0  2  0  0  0  0  0  0
  187.0360  179.3200  136.6680 O   0  0  0  0  0  1  0  0  0  0  0  0
  186.7280  178.0780  137.1930 C   0  0  1  0  0  3  0  0  0  0  0  0
  187.2600  177.0220  136.2770 C   0  0  0  0  0  2  0  0  0  0  0  0
  188.2540  177.5710  135.4120 O   0  0  0  0  0  1  0  0  0  0  0  0
  189.3070  177.0840  145.6390 C   0  0  1  0  0  3  0  0  0  0  0  0
  189.7250  177.8420  146.8480 C   0  0  0  0  0  1  0  0  0  0  0  0
  187.7320  176.9540  145.6440 C   0  0  0  0  0  2  0  0  0  0  0  0
  185.0430  178.4760  144.0280 C   0  0  0  0  0  0  0  0  0  0  0  0
  186.1970  178.0190  143.9770 N   0  0  0  0  0  0  0  0  0  0  0  0
  187.0070  178.3120  145.1840 C   0  0  1  0  0  3  0  0  0  0  0  0
  185.8560  178.7980  146.1420 C   0  0  0  0  0  2  0  0  0  0  0  0
  184.7030  179.1090  145.2100 N   0  0  0  0  0  2  0  0  0  0  0  0
  184.1320  178.3100  142.8130 C   0  0  0  0  0  2  0  0  0  0  0  0
  185.6280  179.7290  141.5930 O   0  0  0  0  0  0  0  0  0  0  0  0
  182.6790  178.9250  138.3640 C   0  0  0  0  0  1  0  0  0  0  0  0
  184.6840  178.8790  141.5400 C   0  0  0  0  0  0  0  0  0  0  0  0
  184.0970  178.4290  140.2960 N   0  0  0  0  0  2  0  0  0  0  0  0
  184.4390  180.3300  138.9260 O   0  0  0  0  0  0  0  0  0  0  0  0
  183.8350  179.2660  139.1580 C   0  0  0  0  0  0  0  0  0  0  0  0
  2  1  1  1  0  0  0
  2 20  1  0  0  0  0
  3  8  1  6  0  0  0
  3  5  1  0  0  0  0
  3  6  1  0  0  0  0
  5  4  1  6  0  0  0
  5  6  1  0  0  0  0
  6  2  1  0  0  0  0
  8  7  2  0  0  0  0
  9 13  1  6  0  0  0
  9  8  1  0  0  0  0
 10  9  1  0  0  0  0
 11 10  2  0  0  0  0
 12 10  1  0  0  0  0
 13 14  1  0  0  0  0
 15 14  1  0  0  0  0
 17 16  1  6  0  0  0
 17 15  1  0  0  0  0
 18 17  1  0  0  0  0
 19 18  1  0  0  0  0
 20 22  1  0  0  0  0
 20 21  1  1  0  0  0
 23 27  1  0  0  0  0
 24 23  2  0  0  0  0
 24 25  1  0  0  0  0
 25 22  1  1  0  0  0
 25 26  1  0  0  0  0
 27 26  1  0  0  0  0
 28 23  1  0  0  0  0
 30 34  1  0  0  0  0
 31 29  2  0  0  0  0
 31 28  1  0  0  0  0
 32 31  1  0  0  0  0
 33 34  2  0  0  0  0
 34 32  1  0  0  0  0
M  END
>  <MODEL>
3

>  <REMARK>
 VINA RESULT:      -7.3      2.689      5.526
  Name = 
  14 active torsions:
  status: ('A' for Active; 'I' for Inactive)
    1  A    between atoms: C_2  and  C_30
    2  A    between atoms: C_3  and  C_9
    3  A    between atoms: C_3  and  N_20
    4  A    between atoms: C_4  and  C_9
    5  A    between atoms: C_8  and  C_12
    6  A    between atoms: C_8  and  C_16
    7  A    between atoms: C_9  and  C_30
    8  A    between atoms: C_10  and  C_18
    9  A    between atoms: C_10  and  C_24
   10  A    between atoms: C_14  and  C_23
   11  A    between atoms: C_18  and  N_31
   12  A    between atoms: N_20  and  C_27
   13  A    between atoms: C_23  and  C_27
   14  A    between atoms: C_24  and  C_25
                            x       y       z     vdW  Elec       q    Type
                         _______ _______ _______ _____ _____    ______ ____

>  <TORSDO>
F 14

$$$$
=
 OpenBabel11062415393D

 34 35  0  0  1  0  0  0  0  0999 V2000
  185.7860  178.6640  146.8160 C   0  0  0  0  0  1  0  0  0  0  0  0
  186.2310  178.5590  145.3410 C   0  0  1  0  0  3  0  0  0  0  0  0
  188.5560  177.8220  145.3920 C   0  0  1  0  0  3  0  0  0  0  0  0
  188.1130  176.0910  143.7010 O   0  0  0  0  0  1  0  0  0  0  0  0
  187.9340  177.4110  144.1750 C   0  0  1  0  0  3  0  0  0  0  0  0
  187.1120  177.3600  145.3020 N   0  0  0  0  0  0  0  0  0  0  0  0
  189.1770  176.5620  147.3800 O   0  0  0  0  0  0  0  0  0  0  0  0
  189.4670  176.8310  146.1790 C   0  0  0  0  0  0  0  0  0  0  0  0
  190.8520  176.4670  145.7240 C   0  0  2  0  0  3  0  0  0  0  0  0
  191.7900  176.3300  146.9330 C   0  0  0  0  0  0  0  0  0  0  0  0
  192.4680  175.1670  147.1970 O   0  0  0  0  0  0  0  0  0  0  0  0
  191.9130  177.3020  147.7420 O   0  0  0  0  0  1  0  0  0  0  0  0
  191.3910  177.3590  144.7090 C   0  0  0  0  0  2  0  0  0  0  0  0
  191.7400  176.8610  143.3780 N   0  0  0  0  0  2  0  0  0  0  0  0
  191.2780  177.8210  142.3440 C   0  0  0  0  0  2  0  0  0  0  0  0
  189.2710  177.9310  140.9390 O   0  0  0  0  0  1  0  0  0  0  0  0
  190.4220  177.2110  141.1990 C   0  0  1  0  0  3  0  0  0  0  0  0
  191.2500  177.1580  139.9540 C   0  0  0  0  0  2  0  0  0  0  0  0
  190.9680  175.9630  139.2240 O   0  0  0  0  0  1  0  0  0  0  0  0
  185.0320  178.3370  144.3940 C   0  0  1  0  0  3  0  0  0  0  0  0
  183.9800  179.3050  144.8030 C   0  0  0  0  0  1  0  0  0  0  0  0
  185.4870  178.6800  142.9200 C   0  0  0  0  0  2  0  0  0  0  0  0
  184.1090  178.8000  139.7200 C   0  0  0  0  0  0  0  0  0  0  0  0
  184.7710  179.3490  140.6160 N   0  0  0  0  0  0  0  0  0  0  0  0
  184.2510  179.0930  141.9810 C   0  0  1  0  0  3  0  0  0  0  0  0
  183.2570  177.9170  141.6510 C   0  0  0  0  0  2  0  0  0  0  0  0
  183.0610  178.0060  140.1520 N   0  0  0  0  0  2  0  0  0  0  0  0
  184.4950  179.0490  138.2620 C   0  0  0  0  0  2  0  0  0  0  0  0
  185.2500  176.8450  137.7080 O   0  0  0  0  0  0  0  0  0  0  0  0
  189.1580  178.9580  137.5400 C   0  0  0  0  0  1  0  0  0  0  0  0
  185.5080  178.0900  137.7150 C   0  0  0  0  0  0  0  0  0  0  0  0
  186.7520  178.6390  137.2220 N   0  0  0  0  0  2  0  0  0  0  0  0
  188.2300  176.8330  137.6200 O   0  0  0  0  0  0  0  0  0  0  0  0
  188.0470  178.0460  137.4090 C   0  0  0  0  0  0  0  0  0  0  0  0
  2  1  1  1  0  0  0
  3  8  1  1  0  0  0
  5  4  1  1  0  0  0
  5  6  1  0  0  0  0
  5  3  1  0  0  0  0
  6  2  1  0  0  0  0
  6  3  1  0  0  0  0
  8  7  2  0  0  0  0
  9 13  1  6  0  0  0
  9  8  1  0  0  0  0
  9 10  1  0  0  0  0
 10 11  2  0  0  0  0
 10 12  1  0  0  0  0
 14 13  1  0  0  0  0
 15 14  1  0  0  0  0
 17 16  1  6  0  0  0
 17 15  1  0  0  0  0
 18 17  1  0  0  0  0
 19 18  1  0  0  0  0
 20 21  1  1  0  0  0
 20  2  1  0  0  0  0
 22 20  1  0  0  0  0
 23 27  1  0  0  0  0
 23 24  2  0  0  0  0
 24 25  1  0  0  0  0
 25 22  1  1  0  0  0
 26 25  1  0  0  0  0
 27 26  1  0  0  0  0
 28 23  1  0  0  0  0
 29 31  2  0  0  0  0
 31 28  1  0  0  0  0
 32 34  1  0  0  0  0
 32 31  1  0  0  0  0
 34 30  1  0  0  0  0
 34 33  2  0  0  0  0
M  END
>  <MODEL>
4

>  <REMARK>
 VINA RESULT:      -7.3      2.348      3.895
  Name = 
  14 active torsions:
  status: ('A' for Active; 'I' for Inactive)
    1  A    between atoms: C_2  and  C_30
    2  A    between atoms: C_3  and  C_9
    3  A    between atoms: C_3  and  N_20
    4  A    between atoms: C_4  and  C_9
    5  A    between atoms: C_8  and  C_12
    6  A    between atoms: C_8  and  C_16
    7  A    between atoms: C_9  and  C_30
    8  A    between atoms: C_10  and  C_18
    9  A    between atoms: C_10  and  C_24
   10  A    between atoms: C_14  and  C_23
   11  A    between atoms: C_18  and  N_31
   12  A    between atoms: N_20  and  C_27
   13  A    between atoms: C_23  and  C_27
   14  A    between atoms: C_24  and  C_25
                            x       y       z     vdW  Elec       q    Type
                         _______ _______ _______ _____ _____    ______ ____

>  <TORSDO>
F 14

$$$$
=
 OpenBabel11062415393D

 34 35  0  0  1  0  0  0  0  0999 V2000
  191.9420  177.4050  140.1120 C   0  0  0  0  0  1  0  0  0  0  0  0
  190.5200  176.8840  140.4180 C   0  0  1  0  0  3  0  0  0  0  0  0
  189.9990  177.1770  142.7840 C   0  0  1  0  0  3  0  0  0  0  0  0
  187.9340  178.4010  142.2450 O   0  0  0  0  0  1  0  0  0  0  0  0
  188.8180  177.3260  141.9950 C   0  0  1  0  0  3  0  0  0  0  0  0
  189.9790  177.8440  141.4190 N   0  0  0  0  0  0  0  0  0  0  0  0
  191.1670  179.0700  143.7730 O   0  0  0  0  0  0  0  0  0  0  0  0
  190.2940  178.1720  143.9470 C   0  0  0  0  0  0  0  0  0  0  0  0
  189.8760  177.9070  145.3670 C   0  0  2  0  0  3  0  0  0  0  0  0
  190.8880  176.9780  146.0540 C   0  0  0  0  0  0  0  0  0  0  0  0
  190.8490  176.7340  147.4030 O   0  0  0  0  0  1  0  0  0  0  0  0
  191.8200  176.4520  145.3690 O   0  0  0  0  0  0  0  0  0  0  0  0
  188.5110  177.4230  145.4960 C   0  0  0  0  0  2  0  0  0  0  0  0
  187.6830  177.8050  146.6420 N   0  0  0  0  0  2  0  0  0  0  0  0
  186.2700  177.4220  146.3920 C   0  0  0  0  0  2  0  0  0  0  0  0
  185.5900  179.5910  147.3100 O   0  0  0  0  0  1  0  0  0  0  0  0
  185.2460  178.5900  146.4210 C   0  0  1  0  0  3  0  0  0  0  0  0
  185.1430  179.1760  145.0490 C   0  0  0  0  0  2  0  0  0  0  0  0
  185.2910  178.1550  144.0630 O   0  0  0  0  0  1  0  0  0  0  0  0
  189.6200  176.9000  139.1650 C   0  0  1  0  0  3  0  0  0  0  0  0
  189.7020  178.2720  138.5980 C   0  0  0  0  0  1  0  0  0  0  0  0
  190.2100  175.8820  138.1100 C   0  0  0  0  0  2  0  0  0  0  0  0
  187.0460  176.3050  136.7090 C   0  0  0  0  0  0  0  0  0  0  0  0
  187.7680  175.7790  137.5730 N   0  0  0  0  0  0  0  0  0  0  0  0
  189.1000  175.3730  137.0660 C   0  0  1  0  0  3  0  0  0  0  0  0
  189.0890  176.1430  135.6930 C   0  0  0  0  0  2  0  0  0  0  0  0
  187.6300  176.4770  135.4670 N   0  0  0  0  0  2  0  0  0  0  0  0
  185.6180  176.6980  137.0840 C   0  0  0  0  0  2  0  0  0  0  0  0
  186.4040  178.8600  137.7530 O   0  0  0  0  0  0  0  0  0  0  0  0
  183.5260  178.1360  141.0630 C   0  0  0  0  0  1  0  0  0  0  0  0
  185.5090  177.9650  137.8790 C   0  0  0  0  0  0  0  0  0  0  0  0
  184.3780  178.1020  138.7700 N   0  0  0  0  0  2  0  0  0  0  0  0
  185.2880  179.5100  140.4400 O   0  0  0  0  0  0  0  0  0  0  0  0
  184.4260  178.6890  140.0800 C   0  0  0  0  0  0  0  0  0  0  0  0
  2  1  1  6  0  0  0
  2  6  1  0  0  0  0
  3  8  1  1  0  0  0
  5  4  1  1  0  0  0
  5  3  1  0  0  0  0
  6  5  1  0  0  0  0
  6  3  1  0  0  0  0
  7  8  2  0  0  0  0
  8  9  1  0  0  0  0
  9 13  1  6  0  0  0
  9 10  1  0  0  0  0
 10 11  1  0  0  0  0
 12 10  2  0  0  0  0
 13 14  1  0  0  0  0
 15 17  1  0  0  0  0
 15 14  1  0  0  0  0
 17 16  1  1  0  0  0
 18 17  1  0  0  0  0
 19 18  1  0  0  0  0
 20 21  1  6  0  0  0
 20  2  1  0  0  0  0
 22 20  1  0  0  0  0
 23 28  1  0  0  0  0
 23 24  2  0  0  0  0
 25 24  1  0  0  0  0
 25 22  1  1  0  0  0
 26 25  1  0  0  0  0
 27 26  1  0  0  0  0
 27 23  1  0  0  0  0
 28 31  1  0  0  0  0
 29 31  2  0  0  0  0
 31 32  1  0  0  0  0
 32 34  1  0  0  0  0
 34 33  2  0  0  0  0
 34 30  1  0  0  0  0
M  END
>  <MODEL>
5

>  <REMARK>
 VINA RESULT:      -7.1      3.006      5.803
  Name = 
  14 active torsions:
  status: ('A' for Active; 'I' for Inactive)
    1  A    between atoms: C_2  and  C_30
    2  A    between atoms: C_3  and  C_9
    3  A    between atoms: C_3  and  N_20
    4  A    between atoms: C_4  and  C_9
    5  A    between atoms: C_8  and  C_12
    6  A    between atoms: C_8  and  C_16
    7  A    between atoms: C_9  and  C_30
    8  A    between atoms: C_10  and  C_18
    9  A    between atoms: C_10  and  C_24
   10  A    between atoms: C_14  and  C_23
   11  A    between atoms: C_18  and  N_31
   12  A    between atoms: N_20  and  C_27
   13  A    between atoms: C_23  and  C_27
   14  A    between atoms: C_24  and  C_25
                            x       y       z     vdW  Elec       q    Type
                         _______ _______ _______ _____ _____    ______ ____

>  <TORSDO>
F 14

$$$$
=
 OpenBabel11062415393D

 34 35  0  0  1  0  0  0  0  0999 V2000
  189.0050  178.0160  142.7020 C   0  0  0  0  0  1  0  0  0  0  0  0
  190.0940  177.1160  142.0790 C   0  0  1  0  0  3  0  0  0  0  0  0
  189.1770  176.9160  139.8270 C   0  0  1  0  0  3  0  0  0  0  0  0
  191.4230  177.0320  138.8300 O   0  0  0  0  0  1  0  0  0  0  0  0
  190.5550  176.5440  139.8340 C   0  0  1  0  0  3  0  0  0  0  0  0
  190.2280  177.6050  140.6800 N   0  0  0  0  0  0  0  0  0  0  0  0
  188.7660  179.0780  138.7870 O   0  0  0  0  0  0  0  0  0  0  0  0
  188.6170  177.8260  138.6910 C   0  0  0  0  0  0  0  0  0  0  0  0
  187.6070  177.3430  137.6890 C   0  0  2  0  0  3  0  0  0  0  0  0
  188.2890  177.0600  136.3420 C   0  0  0  0  0  0  0  0  0  0  0  0
  188.1390  175.8620  135.6910 O   0  0  0  0  0  0  0  0  0  0  0  0
  189.0520  177.9380  135.8300 O   0  0  0  0  0  1  0  0  0  0  0  0
  186.4550  178.2190  137.5470 C   0  0  0  0  0  2  0  0  0  0  0  0
  185.0930  177.6880  137.6160 N   0  0  0  0  0  2  0  0  0  0  0  0
  184.2490  178.5720  138.4590 C   0  0  0  0  0  2  0  0  0  0  0  0
  185.1980  179.5980  140.4740 O   0  0  0  0  0  1  0  0  0  0  0  0
  184.5190  178.4960  139.9870 C   0  0  1  0  0  3  0  0  0  0  0  0
  183.2110  178.3790  140.7030 C   0  0  0  0  0  2  0  0  0  0  0  0
  183.4020  178.5300  142.1100 O   0  0  0  0  0  1  0  0  0  0  0  0
  191.4500  177.2700  142.8010 C   0  0  1  0  0  3  0  0  0  0  0  0
  191.4600  178.6310  143.4020 C   0  0  0  0  0  1  0  0  0  0  0  0
  191.5240  176.2040  143.9640 C   0  0  0  0  0  2  0  0  0  0  0  0
  189.9890  176.5140  147.0790 C   0  0  0  0  0  0  0  0  0  0  0  0
  190.1130  176.9100  145.9080 N   0  0  0  0  0  0  0  0  0  0  0  0
  191.5130  176.8860  145.4190 C   0  0  1  0  0  3  0  0  0  0  0  0
  192.1590  176.0120  146.5580 C   0  0  0  0  0  2  0  0  0  0  0  0
  191.1480  176.0650  147.6850 N   0  0  0  0  0  2  0  0  0  0  0  0
  188.6060  176.5640  147.7280 C   0  0  0  0  0  2  0  0  0  0  0  0
  187.9740  178.7150  148.5700 O   0  0  0  0  0  0  0  0  0  0  0  0
  185.0240  178.3950  145.2600 C   0  0  0  0  0  1  0  0  0  0  0  0
  187.9100  177.8870  147.6090 C   0  0  0  0  0  0  0  0  0  0  0  0
  187.1830  178.1520  146.3860 N   0  0  0  0  0  2  0  0  0  0  0  0
  185.4980  179.6150  147.1760 O   0  0  0  0  0  0  0  0  0  0  0  0
  185.9160  178.8240  146.3110 C   0  0  0  0  0  0  0  0  0  0  0  0
  2  1  1  1  0  0  0
  2 20  1  0  0  0  0
  3  8  1  6  0  0  0
  3  5  1  0  0  0  0
  3  6  1  0  0  0  0
  5  4  1  6  0  0  0
  5  6  1  0  0  0  0
  6  2  1  0  0  0  0
  8  7  2  0  0  0  0
  9 13  1  6  0  0  0
  9  8  1  0  0  0  0
 10  9  1  0  0  0  0
 11 10  2  0  0  0  0
 12 10  1  0  0  0  0
 13 14  1  0  0  0  0
 14 15  1  0  0  0  0
 15 17  1  0  0  0  0
 17 16  1  1  0  0  0
 17 18  1  0  0  0  0
 18 19  1  0  0  0  0
 20 21  1  1  0  0  0
 20 22  1  0  0  0  0
 23 27  1  0  0  0  0
 23 28  1  0  0  0  0
 24 23  2  0  0  0  0
 25 22  1  6  0  0  0
 25 24  1  0  0  0  0
 25 26  1  0  0  0  0
 26 27  1  0  0  0  0
 30 34  1  0  0  0  0
 31 28  1  0  0  0  0
 31 29  2  0  0  0  0
 32 31  1  0  0  0  0
 34 32  1  0  0  0  0
 34 33  2  0  0  0  0
M  END
>  <MODEL>
6

>  <REMARK>
 VINA RESULT:      -7.0      2.916      8.385
  Name = 
  14 active torsions:
  status: ('A' for Active; 'I' for Inactive)
    1  A    between atoms: C_2  and  C_30
    2  A    between atoms: C_3  and  C_9
    3  A    between atoms: C_3  and  N_20
    4  A    between atoms: C_4  and  C_9
    5  A    between atoms: C_8  and  C_12
    6  A    between atoms: C_8  and  C_16
    7  A    between atoms: C_9  and  C_30
    8  A    between atoms: C_10  and  C_18
    9  A    between atoms: C_10  and  C_24
   10  A    between atoms: C_14  and  C_23
   11  A    between atoms: C_18  and  N_31
   12  A    between atoms: N_20  and  C_27
   13  A    between atoms: C_23  and  C_27
   14  A    between atoms: C_24  and  C_25
                            x       y       z     vdW  Elec       q    Type
                         _______ _______ _______ _____ _____    ______ ____

>  <TORSDO>
F 14

$$$$
=
 OpenBabel11062415393D

 34 35  0  0  1  0  0  0  0  0999 V2000
  182.5800  178.8000  144.0730 C   0  0  0  0  0  1  0  0  0  0  0  0
  183.9530  178.4140  143.4790 C   0  0  1  0  0  3  0  0  0  0  0  0
  184.0120  177.8310  141.1100 C   0  0  1  0  0  3  0  0  0  0  0  0
  185.4680  179.7490  140.6070 O   0  0  0  0  0  1  0  0  0  0  0  0
  185.1240  178.6610  141.4430 C   0  0  1  0  0  3  0  0  0  0  0  0
  183.9360  178.9800  142.1020 N   0  0  0  0  0  0  0  0  0  0  0  0
  182.1410  178.7830  139.8760 O   0  0  0  0  0  0  0  0  0  0  0  0
  183.2000  178.0950  139.8050 C   0  0  0  0  0  0  0  0  0  0  0  0
  183.3970  177.2900  138.5510 C   0  0  2  0  0  3  0  0  0  0  0  0
  182.8450  175.8690  138.7400 C   0  0  0  0  0  0  0  0  0  0  0  0
  183.5470  174.7600  138.3430 O   0  0  0  0  0  0  0  0  0  0  0  0
  181.6860  175.7090  139.2350 O   0  0  0  0  0  1  0  0  0  0  0  0
  184.7680  177.2860  138.0650 C   0  0  0  0  0  2  0  0  0  0  0  0
  185.4820  178.5390  137.8170 N   0  0  0  0  0  2  0  0  0  0  0  0
  186.8190  178.2510  137.2380 C   0  0  0  0  0  2  0  0  0  0  0  0
  188.1250  176.1820  137.0810 O   0  0  0  0  0  1  0  0  0  0  0  0
  187.6310  177.1350  137.9520 C   0  0  1  0  0  3  0  0  0  0  0  0
  188.7760  177.7640  138.6810 C   0  0  0  0  0  2  0  0  0  0  0  0
  188.8510  179.1570  138.3770 O   0  0  0  0  0  1  0  0  0  0  0  0
  185.1190  179.0440  144.2700 C   0  0  1  0  0  3  0  0  0  0  0  0
  184.8230  180.4970  144.3810 C   0  0  0  0  0  1  0  0  0  0  0  0
  185.1360  178.4200  145.7220 C   0  0  0  0  0  2  0  0  0  0  0  0
  188.5410  177.8230  145.2690 C   0  0  0  0  0  0  0  0  0  0  0  0
  187.3730  177.6910  144.8660 N   0  0  0  0  0  0  0  0  0  0  0  0
  186.3940  177.4480  145.9530 C   0  0  1  0  0  3  0  0  0  0  0  0
  187.2960  177.8260  147.1880 C   0  0  0  0  0  2  0  0  0  0  0  0
  188.7070  177.7890  146.6410 N   0  0  0  0  0  2  0  0  0  0  0  0
  189.6570  178.0000  144.2400 C   0  0  0  0  0  2  0  0  0  0  0  0
  191.0760  176.2350  143.4600 O   0  0  0  0  0  0  0  0  0  0  0  0
  192.1010  176.0650  147.7830 C   0  0  0  0  0  1  0  0  0  0  0  0
  190.8050  177.0490  144.3980 C   0  0  0  0  0  0  0  0  0  0  0  0
  191.5520  177.1030  145.6360 N   0  0  0  0  0  2  0  0  0  0  0  0
  192.2970  174.8620  145.8090 O   0  0  0  0  0  0  0  0  0  0  0  0
  192.0570  175.9600  146.3450 C   0  0  0  0  0  0  0  0  0  0  0  0
  2  1  1  1  0  0  0
  2 20  1  0  0  0  0
  3  8  1  6  0  0  0
  3  5  1  0  0  0  0
  3  6  1  0  0  0  0
  5  4  1  6  0  0  0
  5  6  1  0  0  0  0
  6  2  1  0  0  0  0
  8  7  2  0  0  0  0
  9 13  1  1  0  0  0
  9 10  1  0  0  0  0
  9  8  1  0  0  0  0
 10 12  1  0  0  0  0
 11 10  2  0  0  0  0
 14 13  1  0  0  0  0
 15 14  1  0  0  0  0
 15 17  1  0  0  0  0
 17 16  1  6  0  0  0
 17 18  1  0  0  0  0
 19 18  1  0  0  0  0
 20 21  1  1  0  0  0
 20 22  1  0  0  0  0
 23 27  1  0  0  0  0
 24 23  2  0  0  0  0
 24 25  1  0  0  0  0
 25 22  1  6  0  0  0
 25 26  1  0  0  0  0
 27 26  1  0  0  0  0
 28 31  1  0  0  0  0
 28 23  1  0  0  0  0
 29 31  2  0  0  0  0
 31 32  1  0  0  0  0
 32 34  1  0  0  0  0
 33 34  2  0  0  0  0
 34 30  1  0  0  0  0
M  END
>  <MODEL>
7

>  <REMARK>
 VINA RESULT:      -6.6      2.633      8.461
  Name = 
  14 active torsions:
  status: ('A' for Active; 'I' for Inactive)
    1  A    between atoms: C_2  and  C_30
    2  A    between atoms: C_3  and  C_9
    3  A    between atoms: C_3  and  N_20
    4  A    between atoms: C_4  and  C_9
    5  A    between atoms: C_8  and  C_12
    6  A    between atoms: C_8  and  C_16
    7  A    between atoms: C_9  and  C_30
    8  A    between atoms: C_10  and  C_18
    9  A    between atoms: C_10  and  C_24
   10  A    between atoms: C_14  and  C_23
   11  A    between atoms: C_18  and  N_31
   12  A    between atoms: N_20  and  C_27
   13  A    between atoms: C_23  and  C_27
   14  A    between atoms: C_24  and  C_25
                            x       y       z     vdW  Elec       q    Type
                         _______ _______ _______ _____ _____    ______ ____

>  <TORSDO>
F 14

$$$$
=
 OpenBabel11062415393D

 34 35  0  0  1  0  0  0  0  0999 V2000
  182.7080  179.0530  144.1860 C   0  0  0  0  0  1  0  0  0  0  0  0
  183.8570  178.4330  143.3620 C   0  0  1  0  0  3  0  0  0  0  0  0
  183.2260  177.9430  141.0560 C   0  0  1  0  0  3  0  0  0  0  0  0
  185.0320  179.3720  140.1890 O   0  0  0  0  0  1  0  0  0  0  0  0
  184.5770  178.4020  141.1130 C   0  0  1  0  0  3  0  0  0  0  0  0
  183.7060  179.0280  142.0050 N   0  0  0  0  0  0  0  0  0  0  0  0
  182.3770  178.0270  138.7760 O   0  0  0  0  0  0  0  0  0  0  0  0
  182.2630  178.4770  139.9530 C   0  0  0  0  0  0  0  0  0  0  0  0
  181.4630  179.7390  140.1160 C   0  0  2  0  0  3  0  0  0  0  0  0
  180.3820  179.5470  141.1910 C   0  0  0  0  0  0  0  0  0  0  0  0
  180.0590  180.5410  142.0800 O   0  0  0  0  0  1  0  0  0  0  0  0
  179.7970  178.4240  141.2960 O   0  0  0  0  0  0  0  0  0  0  0  0
  180.9130  180.2520  138.8710 C   0  0  0  0  0  2  0  0  0  0  0  0
  180.4930  181.6490  138.7540 N   0  0  0  0  0  2  0  0  0  0  0  0
  181.4290  182.3830  137.8640 C   0  0  0  0  0  2  0  0  0  0  0  0
  181.9010  184.7070  137.2420 O   0  0  0  0  0  1  0  0  0  0  0  0
  180.9110  183.7450  137.3250 C   0  0  1  0  0  3  0  0  0  0  0  0
  180.3270  183.5350  135.9640 C   0  0  0  0  0  2  0  0  0  0  0  0
  180.8090  182.3140  135.4030 O   0  0  0  0  0  1  0  0  0  0  0  0
  185.2410  178.8140  143.9290 C   0  0  1  0  0  3  0  0  0  0  0  0
  185.2770  180.2980  144.0070 C   0  0  0  0  0  1  0  0  0  0  0  0
  185.3630  178.2280  145.3920 C   0  0  0  0  0  2  0  0  0  0  0  0
  188.7770  177.7170  144.9050 C   0  0  0  0  0  0  0  0  0  0  0  0
  187.6110  177.5940  144.4930 N   0  0  0  0  0  0  0  0  0  0  0  0
  186.6360  177.2630  145.5590 C   0  0  1  0  0  3  0  0  0  0  0  0
  187.5310  177.5690  146.8180 C   0  0  0  0  0  2  0  0  0  0  0  0
  188.9430  177.5910  146.2730 N   0  0  0  0  0  2  0  0  0  0  0  0
  189.8910  177.9810  143.8930 C   0  0  0  0  0  2  0  0  0  0  0  0
  190.5270  175.9180  142.8540 O   0  0  0  0  0  0  0  0  0  0  0  0
  189.4130  178.1960  139.2020 C   0  0  0  0  0  1  0  0  0  0  0  0
  189.9180  177.0280  142.7360 C   0  0  0  0  0  0  0  0  0  0  0  0
  189.2440  177.4310  141.5210 N   0  0  0  0  0  2  0  0  0  0  0  0
  190.5230  176.2790  139.8950 O   0  0  0  0  0  0  0  0  0  0  0  0
  189.7310  177.1930  140.1900 C   0  0  0  0  0  0  0  0  0  0  0  0
  2 20  1  0  0  0  0
  2  1  1  1  0  0  0
  3  8  1  6  0  0  0
  3  5  1  0  0  0  0
  3  6  1  0  0  0  0
  5  4  1  6  0  0  0
  5  6  1  0  0  0  0
  6  2  1  0  0  0  0
  7  8  2  0  0  0  0
  8  9  1  0  0  0  0
  9 13  1  6  0  0  0
  9 10  1  0  0  0  0
 10 12  2  0  0  0  0
 10 11  1  0  0  0  0
 14 13  1  0  0  0  0
 15 14  1  0  0  0  0
 17 16  1  6  0  0  0
 17 15  1  0  0  0  0
 18 17  1  0  0  0  0
 19 18  1  0  0  0  0
 20 21  1  1  0  0  0
 20 22  1  0  0  0  0
 23 27  1  0  0  0  0
 24 23  2  0  0  0  0
 24 25  1  0  0  0  0
 25 22  1  6  0  0  0
 25 26  1  0  0  0  0
 27 26  1  0  0  0  0
 28 23  1  0  0  0  0
 30 34  1  0  0  0  0
 31 29  2  0  0  0  0
 31 28  1  0  0  0  0
 32 31  1  0  0  0  0
 33 34  2  0  0  0  0
 34 32  1  0  0  0  0
M  END
>  <MODEL>
8

>  <REMARK>
 VINA RESULT:      -6.6      2.697      9.535
  Name = 
  14 active torsions:
  status: ('A' for Active; 'I' for Inactive)
    1  A    between atoms: C_2  and  C_30
    2  A    between atoms: C_3  and  C_9
    3  A    between atoms: C_3  and  N_20
    4  A    between atoms: C_4  and  C_9
    5  A    between atoms: C_8  and  C_12
    6  A    between atoms: C_8  and  C_16
    7  A    between atoms: C_9  and  C_30
    8  A    between atoms: C_10  and  C_18
    9  A    between atoms: C_10  and  C_24
   10  A    between atoms: C_14  and  C_23
   11  A    between atoms: C_18  and  N_31
   12  A    between atoms: N_20  and  C_27
   13  A    between atoms: C_23  and  C_27
   14  A    between atoms: C_24  and  C_25
                            x       y       z     vdW  Elec       q    Type
                         _______ _______ _______ _____ _____    ______ ____

>  <TORSDO>
F 14

$$$$
=
 OpenBabel11062415393D

 34 35  0  0  1  0  0  0  0  0999 V2000
  186.5150  178.6360  140.6610 C   0  0  0  0  0  1  0  0  0  0  0  0
  187.7530  178.2630  139.8170 C   0  0  1  0  0  3  0  0  0  0  0  0
  189.1050  177.9800  141.8280 C   0  0  1  0  0  3  0  0  0  0  0  0
  190.5660  176.3560  140.6970 O   0  0  0  0  0  1  0  0  0  0  0  0
  189.8410  177.5700  140.6760 C   0  0  1  0  0  3  0  0  0  0  0  0
  188.4800  177.2620  140.6450 N   0  0  0  0  0  0  0  0  0  0  0  0
  188.4100  176.0780  143.1790 O   0  0  0  0  0  0  0  0  0  0  0  0
  189.1330  177.1140  143.1240 C   0  0  0  0  0  0  0  0  0  0  0  0
  189.6770  177.6240  144.4290 C   0  0  2  0  0  3  0  0  0  0  0  0
  191.1740  177.3000  144.5430 C   0  0  0  0  0  0  0  0  0  0  0  0
  192.0550  177.5740  143.5280 O   0  0  0  0  0  0  0  0  0  0  0  0
  191.6110  176.7200  145.5860 O   0  0  0  0  0  1  0  0  0  0  0  0
  188.9290  177.1760  145.5930 C   0  0  0  0  0  2  0  0  0  0  0  0
  187.9180  178.0340  146.2130 N   0  0  0  0  0  2  0  0  0  0  0  0
  186.5910  177.3680  146.1610 C   0  0  0  0  0  2  0  0  0  0  0  0
  185.6660  179.4730  147.0120 O   0  0  0  0  0  1  0  0  0  0  0  0
  185.3650  178.3050  146.3360 C   0  0  1  0  0  3  0  0  0  0  0  0
  184.8280  178.6550  144.9840 C   0  0  0  0  0  2  0  0  0  0  0  0
  183.8220  179.6620  145.0970 O   0  0  0  0  0  1  0  0  0  0  0  0
  187.3580  177.6160  138.4730 C   0  0  1  0  0  3  0  0  0  0  0  0
  186.0710  178.2390  138.0610 C   0  0  0  0  0  1  0  0  0  0  0  0
  188.4590  177.9780  137.3980 C   0  0  0  0  0  2  0  0  0  0  0  0
  191.2280  175.9170  136.9100 C   0  0  0  0  0  0  0  0  0  0  0  0
  190.5410  176.8840  136.5410 N   0  0  0  0  0  0  0  0  0  0  0  0
  189.0820  176.6720  136.7010 C   0  0  1  0  0  3  0  0  0  0  0  0
  189.1170  175.3920  137.6170 C   0  0  0  0  0  2  0  0  0  0  0  0
  190.5250  174.8590  137.4570 N   0  0  0  0  0  2  0  0  0  0  0  0
  192.7440  175.9780  136.7240 C   0  0  0  0  0  2  0  0  0  0  0  0
  193.6420  176.5760  138.8620 O   0  0  0  0  0  0  0  0  0  0  0  0
  196.1930  173.0320  138.0270 C   0  0  0  0  0  1  0  0  0  0  0  0
  193.5340  175.6830  137.9630 C   0  0  0  0  0  0  0  0  0  0  0  0
  194.1510  174.3790  138.0700 N   0  0  0  0  0  2  0  0  0  0  0  0
  196.0290  174.8790  139.4220 O   0  0  0  0  0  0  0  0  0  0  0  0
  195.4560  174.1260  138.6120 C   0  0  0  0  0  0  0  0  0  0  0  0
  2  6  1  0  0  0  0
  2  1  1  1  0  0  0
  3  8  1  1  0  0  0
  5  4  1  1  0  0  0
  5  3  1  0  0  0  0
  6  5  1  0  0  0  0
  6  3  1  0  0  0  0
  8  7  2  0  0  0  0
  8  9  1  0  0  0  0
  9 10  1  0  0  0  0
  9 13  1  1  0  0  0
 10 12  1  0  0  0  0
 11 10  2  0  0  0  0
 13 14  1  0  0  0  0
 15 14  1  0  0  0  0
 15 17  1  0  0  0  0
 17 16  1  6  0  0  0
 18 19  1  0  0  0  0
 18 17  1  0  0  0  0
 20 21  1  6  0  0  0
 20  2  1  0  0  0  0
 22 20  1  0  0  0  0
 23 27  1  0  0  0  0
 24 25  1  0  0  0  0
 24 23  2  0  0  0  0
 25 22  1  1  0  0  0
 25 26  1  0  0  0  0
 27 26  1  0  0  0  0
 28 23  1  0  0  0  0
 28 31  1  0  0  0  0
 30 34  1  0  0  0  0
 31 32  1  0  0  0  0
 31 29  2  0  0  0  0
 32 34  1  0  0  0  0
 34 33  2  0  0  0  0
M  END
>  <MODEL>
9

>  <REMARK>
 VINA RESULT:      -6.6      3.715      8.825
  Name = 
  14 active torsions:
  status: ('A' for Active; 'I' for Inactive)
    1  A    between atoms: C_2  and  C_30
    2  A    between atoms: C_3  and  C_9
    3  A    between atoms: C_3  and  N_20
    4  A    between atoms: C_4  and  C_9
    5  A    between atoms: C_8  and  C_12
    6  A    between atoms: C_8  and  C_16
    7  A    between atoms: C_9  and  C_30
    8  A    between atoms: C_10  and  C_18
    9  A    between atoms: C_10  and  C_24
   10  A    between atoms: C_14  and  C_23
   11  A    between atoms: C_18  and  N_31
   12  A    between atoms: N_20  and  C_27
   13  A    between atoms: C_23  and  C_27
   14  A    between atoms: C_24  and  C_25
                            x       y       z     vdW  Elec       q    Type
                         _______ _______ _______ _____ _____    ______ ____

>  <TORSDO>
F 14

$$$$
