=
 OpenBabel11062414203D

 45 47  0  0  1  0  0  0  0  0999 V2000
  185.5470  178.3920  142.2300 C   0  0  2  0  0  3  0  0  0  0  0  0
  186.4760  178.5570  141.3050 C   0  0  0  0  0  2  0  0  0  0  0  0
  188.5190  179.5540  142.1210 C   0  0  0  0  0  1  0  0  0  0  0  0
  187.8590  178.2220  141.7500 C   0  0  1  0  0  0  0  0  0  0  0  0
  187.6660  177.3050  142.9780 C   0  0  2  0  0  3  0  0  0  0  0  0
  186.1130  177.7760  143.8040 S   0  0  0  0  0  0  0  0  0  0  0  0
  184.1550  178.5910  141.9470 C   0  0  0  0  0  0  0  0  0  0  0  0
  182.9850  178.7580  141.7110 C   0  0  0  0  0  0  0  0  0  0  0  0
  181.5620  178.9630  141.4260 C   0  0  0  0  0  2  0  0  0  0  0  0
  180.0970  180.5880  142.5090 N   0  0  0  0  0  1  0  0  0  0  0  0
  180.8160  179.3370  142.6980 C   0  0  1  0  0  3  0  0  0  0  0  0
  179.5870  178.0280  144.2820 O   0  0  0  0  0  1  0  0  0  0  0  0
  179.8630  178.2520  143.0730 C   0  0  0  0  0  0  0  0  0  0  0  0
  179.2610  177.4940  142.0780 O   0  0  0  0  0  0  0  0  0  0  0  0
  188.7940  177.3070  143.9220 C   0  0  0  0  0  0  0  0  0  0  0  0
  189.7070  177.2850  144.7070 C   0  0  0  0  0  0  0  0  0  0  0  0
  190.7880  177.2430  145.6560 C   0  0  0  0  0  0  0  0  0  0  0  0
  191.9070  177.7240  145.3390 O   0  0  0  0  0  0  0  0  0  0  0  0
  190.6090  176.6340  147.0120 C   0  0  2  0  0  3  0  0  0  0  0  0
  189.7210  177.4940  147.8970 C   0  0  0  0  0  1  0  0  0  0  0  0
  192.3750  177.1870  148.7260 N   0  0  0  0  0  1  0  0  0  0  0  0
  192.6180  175.3610  147.3160 O   0  0  0  0  0  0  0  0  0  0  0  0
  191.9220  176.3490  147.6700 C   0  0  0  0  0  0  0  0  0  0  0  0
  188.6640  177.5190  140.6210 C   0  0  2  0  0  3  0  0  0  0  0  0
  190.1100  177.1330  141.0130 C   0  0  1  0  0  3  0  0  0  0  0  0
  190.1940  175.7920  141.3960 O   0  0  0  0  0  1  0  0  0  0  0  0
  191.1230  177.4220  139.8960 C   0  0  1  0  0  3  0  0  0  0  0  0
  192.3290  177.8740  140.4330 O   0  0  0  0  0  1  0  0  0  0  0  0
  192.6660  176.2360  138.4730 O   0  0  0  0  0  1  0  0  0  0  0  0
  191.3600  176.2340  138.9650 C   0  0  0  0  0  2  0  0  0  0  0  0
  188.6850  178.3860  139.3600 C   0  0  0  0  0  2  0  0  0  0  0  0
  188.3130  177.5590  138.1450 C   0  0  0  0  0  2  0  0  0  0  0  0
  187.0200  178.0470  137.6000 C   0  0  0  0  0  0  0  0  0  0  0  0
  185.8390  177.2560  137.7770 N   0  0  0  0  0  2  0  0  0  0  0  0
  186.9920  179.1250  136.9510 O   0  0  0  0  0  0  0  0  0  0  0  0
  183.4450  177.7520  138.3070 C   0  0  0  0  0  2  0  0  0  0  0  0
  182.6880  176.4880  138.7140 C   0  0  0  0  0  2  0  0  0  0  0  0
  183.0870  177.2670  135.1350 C   0  0  0  0  0  3  0  0  0  0  0  0
  183.9350  175.1830  136.3270 C   0  0  0  0  0  2  0  0  0  0  0  0
  184.1530  176.6680  136.0140 C   0  0  2  0  0  3  0  0  0  0  0  0
  181.8200  175.9140  137.5880 C   0  0  1  0  0  3  0  0  0  0  0  0
  181.1130  176.9850  136.7420 C   0  0  0  0  0  2  0  0  0  0  0  0
  181.7840  177.3820  135.4450 C   0  0  0  0  0  3  0  0  0  0  0  0
  182.5140  174.8240  136.7680 C   0  0  0  0  0  2  0  0  0  0  0  0
  184.5130  177.5390  137.2290 C   0  0  2  0  0  3  0  0  0  0  0  0
  1  7  1  6  0  0  0
  1  6  1  0  0  0  0
  2  4  1  0  0  0  0
  2  1  1  0  0  0  0
  4  3  1  1  0  0  0
  4  5  1  0  0  0  0
  5  6  1  0  0  0  0
  5 15  1  1  0  0  0
  8  7  3  0  0  0  0
  9  8  1  0  0  0  0
  9 11  1  0  0  0  0
 11 10  1  6  0  0  0
 11 13  1  0  0  0  0
 13 12  1  0  0  0  0
 14 13  2  0  0  0  0
 15 16  3  0  0  0  0
 16 17  1  0  0  0  0
 17 19  1  0  0  0  0
 18 17  2  0  0  0  0
 19 23  1  0  0  0  0
 19 20  1  1  0  0  0
 22 23  2  0  0  0  0
 23 21  1  0  0  0  0
 24 31  1  6  0  0  0
 24 25  1  0  0  0  0
 24  4  1  0  0  0  0
 25 26  1  6  0  0  0
 27 28  1  1  0  0  0
 27 25  1  0  0  0  0
 29 30  1  0  0  0  0
 30 27  1  0  0  0  0
 32 31  1  0  0  0  0
 33 34  1  0  0  0  0
 33 32  1  0  0  0  0
 35 33  2  0  0  0  0
 36 37  1  0  0  0  0
 38 43  2  0  0  0  0
 39 44  1  0  0  0  0
 40 38  1  1  0  0  0
 40 39  1  0  0  0  0
 40 45  1  0  0  0  0
 41 42  1  6  0  0  0
 41 37  1  0  0  0  0
 43 42  1  0  0  0  0
 44 41  1  0  0  0  0
 45 34  1  1  0  0  0
 45 36  1  0  0  0  0
M  END
>  <MODEL>
1

>  <REMARK>
 VINA RESULT:      -7.0      0.000      0.000
  Name = 
  16 active torsions:
  status: ('A' for Active; 'I' for Inactive)
    1  A    between atoms: C_1  and  C_3
    2  A    between atoms: C_1  and  C_26
    3  A    between atoms: C_3  and  C_4
    4  A    between atoms: C_3  and  C_38
    5  A    between atoms: C_4  and  C_40
    6  A    between atoms: C_9  and  C_19
    7  A    between atoms: C_12  and  C_13
    8  A    between atoms: C_13  and  CA_39
    9  A    between atoms: C_15  and  C_41
   10  A    between atoms: C_16  and  C_40
   11  A    between atoms: C_17  and  C_21
   12  A    between atoms: C_21  and  C_27
   13  A    between atoms: C_22  and  C_26
   14  A    between atoms: N_24  and  C_44
   15  A    between atoms: C_27  and  C_33
   16  A    between atoms: C_28  and  CA_39
                            x       y       z     vdW  Elec       q    Type
                         _______ _______ _______ _____ _____    ______ ____

>  <TORSDO>
F 16

$$$$
=
 OpenBabel11062414203D

 45 47  0  0  1  0  0  0  0  0999 V2000
  188.0260  177.9500  139.8590 C   0  0  2  0  0  3  0  0  0  0  0  0
  187.6810  177.7630  138.5970 C   0  0  0  0  0  2  0  0  0  0  0  0
  189.4150  178.3090  137.0070 C   0  0  0  0  0  1  0  0  0  0  0  0
  188.7440  177.1500  137.7500 C   0  0  1  0  0  0  0  0  0  0  0  0
  189.7010  176.4680  138.7530 C   0  0  2  0  0  3  0  0  0  0  0  0
  189.6630  177.4100  140.3100 S   0  0  0  0  0  0  0  0  0  0  0  0
  187.0960  178.4550  140.8290 C   0  0  0  0  0  0  0  0  0  0  0  0
  186.3170  178.8780  141.6450 C   0  0  0  0  0  0  0  0  0  0  0  0
  185.3720  179.3940  142.6390 C   0  0  0  0  0  2  0  0  0  0  0  0
  186.1590  177.9150  144.4140 N   0  0  0  0  0  1  0  0  0  0  0  0
  184.9960  178.3030  143.6290 C   0  0  1  0  0  3  0  0  0  0  0  0
  184.1400  179.0250  145.7450 O   0  0  0  0  0  1  0  0  0  0  0  0
  183.9070  178.7800  144.5310 C   0  0  0  0  0  0  0  0  0  0  0  0
  182.6300  178.9730  144.0220 O   0  0  0  0  0  0  0  0  0  0  0  0
  191.0790  176.3030  138.2620 C   0  0  0  0  0  0  0  0  0  0  0  0
  192.1990  176.1410  137.8520 C   0  0  0  0  0  0  0  0  0  0  0  0
  193.5340  175.9280  137.3580 C   0  0  0  0  0  0  0  0  0  0  0  0
  194.2060  176.9100  136.9500 O   0  0  0  0  0  0  0  0  0  0  0  0
  194.1380  174.5580  137.3180 C   0  0  2  0  0  3  0  0  0  0  0  0
  193.0830  173.4900  137.0780 C   0  0  0  0  0  1  0  0  0  0  0  0
  195.4020  175.3440  139.3540 N   0  0  0  0  0  1  0  0  0  0  0  0
  195.1830  173.0810  138.8910 O   0  0  0  0  0  0  0  0  0  0  0  0
  194.9380  174.2680  138.5490 C   0  0  0  0  0  0  0  0  0  0  0  0
  188.1460  176.1350  136.7360 C   0  0  2  0  0  3  0  0  0  0  0  0
  188.9020  176.0590  135.3880 C   0  0  1  0  0  3  0  0  0  0  0  0
  189.8760  177.0570  135.2920 O   0  0  0  0  0  1  0  0  0  0  0  0
  189.5380  174.6830  135.1430 C   0  0  1  0  0  3  0  0  0  0  0  0
  190.8950  174.8170  134.8450 O   0  0  0  0  0  1  0  0  0  0  0  0
  188.4480  172.6850  135.9390 O   0  0  0  0  0  1  0  0  0  0  0  0
  189.3340  173.7030  136.2970 C   0  0  0  0  0  2  0  0  0  0  0  0
  186.6670  176.4400  136.4820 C   0  0  0  0  0  2  0  0  0  0  0  0
  185.8530  175.1620  136.5080 C   0  0  0  0  0  2  0  0  0  0  0  0
  184.6370  175.3750  137.3340 C   0  0  0  0  0  0  0  0  0  0  0  0
  184.1260  176.7020  137.5040 N   0  0  0  0  0  2  0  0  0  0  0  0
  184.1020  174.3920  137.9090 O   0  0  0  0  0  0  0  0  0  0  0  0
  181.7230  177.4010  137.5630 C   0  0  0  0  0  2  0  0  0  0  0  0
  181.5560  178.8640  137.1550 C   0  0  0  0  0  2  0  0  0  0  0  0
  182.4360  178.0630  140.6420 C   0  0  0  0  0  3  0  0  0  0  0  0
  183.8150  179.4620  139.0240 C   0  0  0  0  0  2  0  0  0  0  0  0
  183.3990  178.0610  139.4840 C   0  0  2  0  0  3  0  0  0  0  0  0
  181.3610  179.8060  138.3490 C   0  0  1  0  0  3  0  0  0  0  0  0
  180.4790  179.2200  139.4640 C   0  0  0  0  0  2  0  0  0  0  0  0
  181.1940  178.5780  140.6320 C   0  0  0  0  0  3  0  0  0  0  0  0
  182.6570  180.4480  138.8460 C   0  0  0  0  0  2  0  0  0  0  0  0
  183.0020  177.0990  138.3520 C   0  0  2  0  0  3  0  0  0  0  0  0
  1  6  1  0  0  0  0
  1  7  1  1  0  0  0
  2  1  1  0  0  0  0
  4  3  1  6  0  0  0
  4  2  1  0  0  0  0
  4  5  1  0  0  0  0
  5 15  1  6  0  0  0
  5  6  1  0  0  0  0
  7  8  3  0  0  0  0
  8  9  1  0  0  0  0
  9 11  1  0  0  0  0
 11 10  1  1  0  0  0
 11 13  1  0  0  0  0
 13 12  1  0  0  0  0
 14 13  2  0  0  0  0
 16 15  3  0  0  0  0
 17 16  1  0  0  0  0
 18 17  2  0  0  0  0
 19 20  1  1  0  0  0
 19 17  1  0  0  0  0
 19 23  1  0  0  0  0
 23 22  2  0  0  0  0
 23 21  1  0  0  0  0
 24 31  1  6  0  0  0
 24  4  1  0  0  0  0
 25 26  1  1  0  0  0
 25 24  1  0  0  0  0
 27 28  1  1  0  0  0
 27 25  1  0  0  0  0
 27 30  1  0  0  0  0
 29 30  1  0  0  0  0
 31 32  1  0  0  0  0
 32 33  1  0  0  0  0
 33 34  1  0  0  0  0
 33 35  2  0  0  0  0
 36 45  1  0  0  0  0
 37 36  1  0  0  0  0
 40 39  1  6  0  0  0
 40 38  1  0  0  0  0
 41 37  1  6  0  0  0
 41 44  1  0  0  0  0
 41 42  1  0  0  0  0
 42 43  1  0  0  0  0
 43 38  2  0  0  0  0
 44 39  1  0  0  0  0
 45 34  1  6  0  0  0
 45 40  1  0  0  0  0
M  END
>  <MODEL>
2

>  <REMARK>
 VINA RESULT:      -6.6      3.910      5.854
  Name = 
  16 active torsions:
  status: ('A' for Active; 'I' for Inactive)
    1  A    between atoms: C_1  and  C_3
    2  A    between atoms: C_1  and  C_26
    3  A    between atoms: C_3  and  C_4
    4  A    between atoms: C_3  and  C_38
    5  A    between atoms: C_4  and  C_40
    6  A    between atoms: C_9  and  C_19
    7  A    between atoms: C_12  and  C_13
    8  A    between atoms: C_13  and  CA_39
    9  A    between atoms: C_15  and  C_41
   10  A    between atoms: C_16  and  C_40
   11  A    between atoms: C_17  and  C_21
   12  A    between atoms: C_21  and  C_27
   13  A    between atoms: C_22  and  C_26
   14  A    between atoms: N_24  and  C_44
   15  A    between atoms: C_27  and  C_33
   16  A    between atoms: C_28  and  CA_39
                            x       y       z     vdW  Elec       q    Type
                         _______ _______ _______ _____ _____    ______ ____

>  <TORSDO>
F 16

$$$$
=
 OpenBabel11062414203D

 45 47  0  0  1  0  0  0  0  0999 V2000
  189.5660  177.3950  140.3020 C   0  0  2  0  0  3  0  0  0  0  0  0
  188.4590  177.3600  141.0230 C   0  0  0  0  0  2  0  0  0  0  0  0
  188.5030  175.7550  142.8270 C   0  0  0  0  0  1  0  0  0  0  0  0
  188.6800  177.2390  142.4920 C   0  0  1  0  0  0  0  0  0  0  0  0
  190.1340  177.7170  142.7110 C   0  0  2  0  0  3  0  0  0  0  0  0
  191.0950  177.3250  141.2160 S   0  0  0  0  0  0  0  0  0  0  0  0
  189.5360  177.5900  138.8810 C   0  0  0  0  0  0  0  0  0  0  0  0
  189.5100  177.7500  137.6870 C   0  0  0  0  0  0  0  0  0  0  0  0
  189.4750  177.9460  136.2350 C   0  0  0  0  0  2  0  0  0  0  0  0
  188.9370  175.5650  136.2230 N   0  0  0  0  0  1  0  0  0  0  0  0
  188.6710  176.8390  135.5710 C   0  0  1  0  0  3  0  0  0  0  0  0
  186.4490  176.4960  136.3950 O   0  0  0  0  0  1  0  0  0  0  0  0
  187.2140  177.1520  135.6370 C   0  0  0  0  0  0  0  0  0  0  0  0
  186.6990  178.1870  134.8690 O   0  0  0  0  0  0  0  0  0  0  0  0
  190.7770  177.1710  143.9170 C   0  0  0  0  0  0  0  0  0  0  0  0
  191.2860  176.7010  144.9020 C   0  0  0  0  0  0  0  0  0  0  0  0
  191.8810  176.1240  146.0780 C   0  0  0  0  0  0  0  0  0  0  0  0
  192.5070  175.0370  145.9840 O   0  0  0  0  0  0  0  0  0  0  0  0
  191.7660  176.7900  147.4150 C   0  0  2  0  0  3  0  0  0  0  0  0
  192.5280  176.0260  148.4860 C   0  0  0  0  0  1  0  0  0  0  0  0
  189.9750  178.1790  148.5200 N   0  0  0  0  0  1  0  0  0  0  0  0
  189.4530  176.1650  147.4940 O   0  0  0  0  0  0  0  0  0  0  0  0
  190.3380  177.0030  147.8080 C   0  0  0  0  0  0  0  0  0  0  0  0
  187.6600  178.0970  143.2920 C   0  0  2  0  0  3  0  0  0  0  0  0
  187.5810  177.7540  144.7990 C   0  0  1  0  0  3  0  0  0  0  0  0
  188.4160  178.5790  145.5560 O   0  0  0  0  0  1  0  0  0  0  0  0
  186.1470  177.8190  145.3450 C   0  0  1  0  0  3  0  0  0  0  0  0
  185.9970  176.9560  146.4310 O   0  0  0  0  0  1  0  0  0  0  0  0
  185.5500  179.3650  147.0970 O   0  0  0  0  0  1  0  0  0  0  0  0
  185.6990  179.2320  145.7150 C   0  0  0  0  0  2  0  0  0  0  0  0
  186.2680  177.9960  142.6650 C   0  0  0  0  0  2  0  0  0  0  0  0
  185.8860  179.3100  142.0150 C   0  0  0  0  0  2  0  0  0  0  0  0
  185.1360  179.0350  140.7620 C   0  0  0  0  0  0  0  0  0  0  0  0
  183.7220  178.8140  140.8230 N   0  0  0  0  0  2  0  0  0  0  0  0
  185.7620  178.9550  139.6730 O   0  0  0  0  0  0  0  0  0  0  0  0
  182.4610  179.6300  138.8210 C   0  0  0  0  0  2  0  0  0  0  0  0
  181.1610  180.3260  139.2240 C   0  0  0  0  0  2  0  0  0  0  0  0
  181.2120  176.6530  138.9290 C   0  0  0  0  0  3  0  0  0  0  0  0
  180.6720  177.9890  141.0280 C   0  0  0  0  0  2  0  0  0  0  0  0
  181.7550  177.4360  140.0960 C   0  0  2  0  0  3  0  0  0  0  0  0
  179.9220  179.4410  139.0470 C   0  0  1  0  0  3  0  0  0  0  0  0
  179.9570  178.5690  137.7820 C   0  0  0  0  0  2  0  0  0  0  0  0
  180.4270  177.1400  137.9520 C   0  0  0  0  0  3  0  0  0  0  0  0
  179.5120  178.6910  140.3160 C   0  0  0  0  0  2  0  0  0  0  0  0
  182.8510  178.4420  139.7080 C   0  0  2  0  0  3  0  0  0  0  0  0
  1  7  1  1  0  0  0
  1  2  1  0  0  0  0
  1  6  1  0  0  0  0
  2  4  1  0  0  0  0
  4  5  1  0  0  0  0
  4  3  1  1  0  0  0
  4 24  1  0  0  0  0
  5 15  1  1  0  0  0
  6  5  1  0  0  0  0
  8  7  3  0  0  0  0
  9  8  1  0  0  0  0
 11 13  1  0  0  0  0
 11 10  1  1  0  0  0
 11  9  1  0  0  0  0
 13 12  1  0  0  0  0
 14 13  2  0  0  0  0
 15 16  3  0  0  0  0
 16 17  1  0  0  0  0
 17 19  1  0  0  0  0
 18 17  2  0  0  0  0
 19 23  1  0  0  0  0
 19 20  1  1  0  0  0
 22 23  2  0  0  0  0
 23 21  1  0  0  0  0
 24 31  1  6  0  0  0
 24 25  1  0  0  0  0
 25 27  1  0  0  0  0
 25 26  1  1  0  0  0
 27 30  1  0  0  0  0
 27 28  1  1  0  0  0
 30 29  1  0  0  0  0
 32 31  1  0  0  0  0
 33 34  1  0  0  0  0
 33 32  1  0  0  0  0
 35 33  2  0  0  0  0
 36 37  1  0  0  0  0
 36 45  1  0  0  0  0
 40 38  1  6  0  0  0
 40 39  1  0  0  0  0
 41 42  1  6  0  0  0
 41 37  1  0  0  0  0
 41 44  1  0  0  0  0
 42 43  1  0  0  0  0
 43 38  2  0  0  0  0
 44 39  1  0  0  0  0
 45 40  1  0  0  0  0
 45 34  1  1  0  0  0
M  END
>  <MODEL>
3

>  <REMARK>
 VINA RESULT:      -6.5      3.054      5.936
  Name = 
  16 active torsions:
  status: ('A' for Active; 'I' for Inactive)
    1  A    between atoms: C_1  and  C_3
    2  A    between atoms: C_1  and  C_26
    3  A    between atoms: C_3  and  C_4
    4  A    between atoms: C_3  and  C_38
    5  A    between atoms: C_4  and  C_40
    6  A    between atoms: C_9  and  C_19
    7  A    between atoms: C_12  and  C_13
    8  A    between atoms: C_13  and  CA_39
    9  A    between atoms: C_15  and  C_41
   10  A    between atoms: C_16  and  C_40
   11  A    between atoms: C_17  and  C_21
   12  A    between atoms: C_21  and  C_27
   13  A    between atoms: C_22  and  C_26
   14  A    between atoms: N_24  and  C_44
   15  A    between atoms: C_27  and  C_33
   16  A    between atoms: C_28  and  CA_39
                            x       y       z     vdW  Elec       q    Type
                         _______ _______ _______ _____ _____    ______ ____

>  <TORSDO>
F 16

$$$$
=
 OpenBabel11062414203D

 45 47  0  0  1  0  0  0  0  0999 V2000
  183.0360  178.5290  140.4610 C   0  0  2  0  0  3  0  0  0  0  0  0
  182.1910  177.5860  140.0810 C   0  0  0  0  0  2  0  0  0  0  0  0
  180.0570  178.4190  139.3180 C   0  0  0  0  0  1  0  0  0  0  0  0
  181.4210  177.9070  138.8460 C   0  0  1  0  0  0  0  0  0  0  0  0
  182.2460  179.0090  138.1430 C   0  0  2  0  0  3  0  0  0  0  0  0
  183.1160  179.9720  139.4190 S   0  0  0  0  0  0  0  0  0  0  0  0
  183.9130  178.3500  141.5820 C   0  0  0  0  0  0  0  0  0  0  0  0
  184.6510  178.2020  142.5240 C   0  0  0  0  0  0  0  0  0  0  0  0
  185.5460  178.0240  143.6710 C   0  0  0  0  0  2  0  0  0  0  0  0
  183.7570  179.1250  144.9140 N   0  0  0  0  0  1  0  0  0  0  0  0
  185.2010  179.0160  144.7700 C   0  0  1  0  0  3  0  0  0  0  0  0
  185.1420  178.6110  147.1290 O   0  0  0  0  0  1  0  0  0  0  0  0
  185.8110  178.5850  146.0620 C   0  0  0  0  0  0  0  0  0  0  0  0
  187.1240  178.1330  146.0830 O   0  0  0  0  0  0  0  0  0  0  0  0
  181.4610  179.8820  137.2560 C   0  0  0  0  0  0  0  0  0  0  0  0
  180.7950  180.5820  136.5380 C   0  0  0  0  0  0  0  0  0  0  0  0
  179.9820  181.4060  135.6830 C   0  0  0  0  0  0  0  0  0  0  0  0
  179.3630  180.8780  134.7230 O   0  0  0  0  0  0  0  0  0  0  0  0
  179.8610  182.8820  135.9110 C   0  0  2  0  0  3  0  0  0  0  0  0
  180.5860  183.6740  134.8340 C   0  0  0  0  0  1  0  0  0  0  0  0
  181.5440  183.9870  137.4300 N   0  0  0  0  0  1  0  0  0  0  0  0
  179.6340  182.9950  138.2950 O   0  0  0  0  0  0  0  0  0  0  0  0
  180.3240  183.2720  137.2790 C   0  0  0  0  0  0  0  0  0  0  0  0
  181.2430  176.6520  137.9460 C   0  0  2  0  0  3  0  0  0  0  0  0
  179.9540  175.8430  138.2270 C   0  0  1  0  0  3  0  0  0  0  0  0
  179.2740  175.5390  137.0450 O   0  0  0  0  0  1  0  0  0  0  0  0
  180.2240  174.5570  139.0200 C   0  0  1  0  0  3  0  0  0  0  0  0
  179.9300  174.7430  140.3720 O   0  0  0  0  0  1  0  0  0  0  0  0
  180.3850  172.3450  138.0730 O   0  0  0  0  0  1  0  0  0  0  0  0
  179.4870  173.3360  138.4730 C   0  0  0  0  0  2  0  0  0  0  0  0
  182.4630  175.7350  138.0600 C   0  0  0  0  0  2  0  0  0  0  0  0
  182.9110  175.2810  136.6850 C   0  0  0  0  0  2  0  0  0  0  0  0
  184.0730  176.1010  136.2550 C   0  0  0  0  0  0  0  0  0  0  0  0
  185.3510  175.8820  136.8640 N   0  0  0  0  0  2  0  0  0  0  0  0
  183.9060  177.0040  135.3950 O   0  0  0  0  0  0  0  0  0  0  0  0
  187.8500  175.8220  136.7500 C   0  0  0  0  0  2  0  0  0  0  0  0
  188.4740  175.8120  138.1450 C   0  0  0  0  0  2  0  0  0  0  0  0
  187.4960  179.0300  136.6410 C   0  0  0  0  0  3  0  0  0  0  0  0
  186.5970  178.0460  138.8110 C   0  0  0  0  0  2  0  0  0  0  0  0
  186.5470  178.0490  137.2790 C   0  0  2  0  0  3  0  0  0  0  0  0
  189.0050  177.1820  138.5800 C   0  0  1  0  0  3  0  0  0  0  0  0
  189.6830  177.9730  137.4490 C   0  0  0  0  0  2  0  0  0  0  0  0
  188.8360  179.0030  136.7340 C   0  0  0  0  0  3  0  0  0  0  0  0
  188.0080  177.9980  139.4050 C   0  0  0  0  0  2  0  0  0  0  0  0
  186.5700  176.6560  136.6280 C   0  0  2  0  0  3  0  0  0  0  0  0
  1  7  1  6  0  0  0
  2  1  1  0  0  0  0
  4  3  1  1  0  0  0
  4  2  1  0  0  0  0
  5 15  1  1  0  0  0
  5  4  1  0  0  0  0
  5  6  1  0  0  0  0
  6  1  1  0  0  0  0
  7  8  3  0  0  0  0
  8  9  1  0  0  0  0
  9 11  1  0  0  0  0
 11 10  1  1  0  0  0
 11 13  1  0  0  0  0
 13 14  2  0  0  0  0
 13 12  1  0  0  0  0
 16 15  3  0  0  0  0
 17 19  1  0  0  0  0
 17 16  1  0  0  0  0
 18 17  2  0  0  0  0
 19 20  1  6  0  0  0
 19 23  1  0  0  0  0
 23 21  1  0  0  0  0
 23 22  2  0  0  0  0
 24 31  1  1  0  0  0
 24 25  1  0  0  0  0
 24  4  1  0  0  0  0
 25 26  1  6  0  0  0
 25 27  1  0  0  0  0
 27 28  1  1  0  0  0
 29 30  1  0  0  0  0
 30 27  1  0  0  0  0
 32 31  1  0  0  0  0
 33 32  1  0  0  0  0
 33 34  1  0  0  0  0
 35 33  2  0  0  0  0
 36 37  1  0  0  0  0
 37 41  1  0  0  0  0
 38 43  2  0  0  0  0
 39 44  1  0  0  0  0
 40 38  1  6  0  0  0
 40 39  1  0  0  0  0
 41 42  1  6  0  0  0
 41 44  1  0  0  0  0
 43 42  1  0  0  0  0
 45 36  1  0  0  0  0
 45 34  1  1  0  0  0
 45 40  1  0  0  0  0
M  END
>  <MODEL>
4

>  <REMARK>
 VINA RESULT:      -6.3      3.945      9.554
  Name = 
  16 active torsions:
  status: ('A' for Active; 'I' for Inactive)
    1  A    between atoms: C_1  and  C_3
    2  A    between atoms: C_1  and  C_26
    3  A    between atoms: C_3  and  C_4
    4  A    between atoms: C_3  and  C_38
    5  A    between atoms: C_4  and  C_40
    6  A    between atoms: C_9  and  C_19
    7  A    between atoms: C_12  and  C_13
    8  A    between atoms: C_13  and  CA_39
    9  A    between atoms: C_15  and  C_41
   10  A    between atoms: C_16  and  C_40
   11  A    between atoms: C_17  and  C_21
   12  A    between atoms: C_21  and  C_27
   13  A    between atoms: C_22  and  C_26
   14  A    between atoms: N_24  and  C_44
   15  A    between atoms: C_27  and  C_33
   16  A    between atoms: C_28  and  CA_39
                            x       y       z     vdW  Elec       q    Type
                         _______ _______ _______ _____ _____    ______ ____

>  <TORSDO>
F 16

$$$$
=
 OpenBabel11062414203D

 45 47  0  0  1  0  0  0  0  0999 V2000
  185.5560  178.3420  142.2100 C   0  0  2  0  0  3  0  0  0  0  0  0
  186.4400  178.5330  141.2460 C   0  0  0  0  0  2  0  0  0  0  0  0
  188.4940  179.5690  141.9800 C   0  0  0  0  0  1  0  0  0  0  0  0
  187.8470  178.2260  141.6280 C   0  0  1  0  0  0  0  0  0  0  0  0
  187.7270  177.2970  142.8580 C   0  0  2  0  0  3  0  0  0  0  0  0
  186.2030  177.7300  143.7530 S   0  0  0  0  0  0  0  0  0  0  0  0
  184.1480  178.5130  141.9880 C   0  0  0  0  0  0  0  0  0  0  0  0
  182.9660  178.6540  141.8020 C   0  0  0  0  0  0  0  0  0  0  0  0
  181.5280  178.8260  141.5810 C   0  0  0  0  0  2  0  0  0  0  0  0
  180.2060  180.5420  142.7060 N   0  0  0  0  0  1  0  0  0  0  0  0
  180.8390  179.2420  142.8710 C   0  0  1  0  0  3  0  0  0  0  0  0
  179.4130  177.3710  142.4290 O   0  0  0  0  0  0  0  0  0  0  0  0
  179.8200  178.2240  143.2620 C   0  0  0  0  0  0  0  0  0  0  0  0
  179.3310  178.2070  144.5610 O   0  0  0  0  0  1  0  0  0  0  0  0
  188.8960  177.3190  143.7520 C   0  0  0  0  0  0  0  0  0  0  0  0
  189.8350  177.3470  144.5060 C   0  0  0  0  0  0  0  0  0  0  0  0
  190.9450  177.3910  145.4200 C   0  0  0  0  0  0  0  0  0  0  0  0
  192.0860  177.7020  144.9920 O   0  0  0  0  0  0  0  0  0  0  0  0
  190.7690  177.0690  146.8720 C   0  0  2  0  0  3  0  0  0  0  0  0
  191.1330  175.6230  147.1710 C   0  0  0  0  0  1  0  0  0  0  0  0
  188.4020  176.3720  147.3910 N   0  0  0  0  0  1  0  0  0  0  0  0
  189.1010  178.5570  147.7380 O   0  0  0  0  0  0  0  0  0  0  0  0
  189.3890  177.3940  147.3500 C   0  0  0  0  0  0  0  0  0  0  0  0
  188.6180  177.5470  140.4610 C   0  0  2  0  0  3  0  0  0  0  0  0
  189.9650  176.9070  140.8720 C   0  0  1  0  0  3  0  0  0  0  0  0
  190.1730  175.6900  140.2160 O   0  0  0  0  0  1  0  0  0  0  0  0
  191.1600  177.8400  140.6340 C   0  0  1  0  0  3  0  0  0  0  0  0
  191.8230  178.1030  141.8340 O   0  0  0  0  0  1  0  0  0  0  0  0
  193.4560  177.4140  140.0330 O   0  0  0  0  0  1  0  0  0  0  0  0
  192.1390  177.3220  139.5810 C   0  0  0  0  0  2  0  0  0  0  0  0
  188.8450  178.5420  139.3210 C   0  0  0  0  0  2  0  0  0  0  0  0
  188.9490  177.8120  137.9960 C   0  0  0  0  0  2  0  0  0  0  0  0
  187.7850  176.9010  137.8500 C   0  0  0  0  0  0  0  0  0  0  0  0
  186.4670  177.4530  137.7510 N   0  0  0  0  0  2  0  0  0  0  0  0
  187.9710  175.6560  137.8610 O   0  0  0  0  0  0  0  0  0  0  0  0
  184.8120  176.2960  136.2730 C   0  0  0  0  0  2  0  0  0  0  0  0
  183.9090  177.2960  135.5530 C   0  0  0  0  0  2  0  0  0  0  0  0
  183.0600  176.2600  138.9860 C   0  0  0  0  0  3  0  0  0  0  0  0
  183.5650  178.6320  138.2090 C   0  0  0  0  0  2  0  0  0  0  0  0
  184.1220  177.2650  138.6220 C   0  0  2  0  0  3  0  0  0  0  0  0
  182.5220  177.4290  136.1930 C   0  0  1  0  0  3  0  0  0  0  0  0
  181.9380  176.0960  136.6900 C   0  0  0  0  0  2  0  0  0  0  0  0
  182.1170  175.7780  138.1580 C   0  0  0  0  0  3  0  0  0  0  0  0
  182.4140  178.5750  137.2000 C   0  0  0  0  0  2  0  0  0  0  0  0
  185.2130  176.7040  137.6950 C   0  0  2  0  0  3  0  0  0  0  0  0
  1  7  1  6  0  0  0
  1  6  1  0  0  0  0
  2  4  1  0  0  0  0
  2  1  1  0  0  0  0
  4  3  1  1  0  0  0
  4  5  1  0  0  0  0
  5 15  1  1  0  0  0
  5  6  1  0  0  0  0
  8  7  3  0  0  0  0
  9  8  1  0  0  0  0
  9 11  1  0  0  0  0
 11 10  1  6  0  0  0
 11 13  1  0  0  0  0
 12 13  2  0  0  0  0
 13 14  1  0  0  0  0
 15 16  3  0  0  0  0
 16 17  1  0  0  0  0
 17 19  1  0  0  0  0
 18 17  2  0  0  0  0
 19 20  1  6  0  0  0
 19 23  1  0  0  0  0
 23 21  1  0  0  0  0
 23 22  2  0  0  0  0
 24 31  1  6  0  0  0
 24 25  1  0  0  0  0
 24  4  1  0  0  0  0
 25 26  1  6  0  0  0
 27 25  1  0  0  0  0
 27 28  1  1  0  0  0
 30 29  1  0  0  0  0
 30 27  1  0  0  0  0
 32 31  1  0  0  0  0
 33 35  2  0  0  0  0
 33 32  1  0  0  0  0
 34 33  1  0  0  0  0
 36 45  1  0  0  0  0
 37 36  1  0  0  0  0
 40 39  1  6  0  0  0
 40 38  1  0  0  0  0
 41 37  1  1  0  0  0
 41 42  1  0  0  0  0
 41 44  1  0  0  0  0
 42 43  1  0  0  0  0
 43 38  2  0  0  0  0
 44 39  1  0  0  0  0
 45 34  1  6  0  0  0
 45 40  1  0  0  0  0
M  END
>  <MODEL>
5

>  <REMARK>
 VINA RESULT:      -6.1      1.253      2.026
  Name = 
  16 active torsions:
  status: ('A' for Active; 'I' for Inactive)
    1  A    between atoms: C_1  and  C_3
    2  A    between atoms: C_1  and  C_26
    3  A    between atoms: C_3  and  C_4
    4  A    between atoms: C_3  and  C_38
    5  A    between atoms: C_4  and  C_40
    6  A    between atoms: C_9  and  C_19
    7  A    between atoms: C_12  and  C_13
    8  A    between atoms: C_13  and  CA_39
    9  A    between atoms: C_15  and  C_41
   10  A    between atoms: C_16  and  C_40
   11  A    between atoms: C_17  and  C_21
   12  A    between atoms: C_21  and  C_27
   13  A    between atoms: C_22  and  C_26
   14  A    between atoms: N_24  and  C_44
   15  A    between atoms: C_27  and  C_33
   16  A    between atoms: C_28  and  CA_39
                            x       y       z     vdW  Elec       q    Type
                         _______ _______ _______ _____ _____    ______ ____

>  <TORSDO>
F 16

$$$$
=
 OpenBabel11062414203D

 45 47  0  0  1  0  0  0  0  0999 V2000
  185.4110  178.4330  141.7770 C   0  0  2  0  0  3  0  0  0  0  0  0
  186.3630  178.8620  140.9670 C   0  0  0  0  0  2  0  0  0  0  0  0
  188.2020  179.9510  142.0910 C   0  0  0  0  0  1  0  0  0  0  0  0
  187.7490  178.6290  141.4630 C   0  0  1  0  0  0  0  0  0  0  0  0
  187.6070  177.5030  142.5130 C   0  0  2  0  0  3  0  0  0  0  0  0
  185.9590  177.6380  143.2740 S   0  0  0  0  0  0  0  0  0  0  0  0
  184.0240  178.5060  141.4170 C   0  0  0  0  0  0  0  0  0  0  0  0
  182.8590  178.5690  141.1150 C   0  0  0  0  0  0  0  0  0  0  0  0
  181.4430  178.6480  140.7440 C   0  0  0  0  0  2  0  0  0  0  0  0
  180.8560  179.3660  138.4870 N   0  0  0  0  0  1  0  0  0  0  0  0
  181.2020  179.8320  139.8210 C   0  0  1  0  0  3  0  0  0  0  0  0
  179.9600  180.8360  141.6050 O   0  0  0  0  0  1  0  0  0  0  0  0
  180.1080  180.6910  140.3620 C   0  0  0  0  0  0  0  0  0  0  0  0
  179.2580  181.3510  139.4860 O   0  0  0  0  0  0  0  0  0  0  0  0
  188.6670  177.4870  143.5330 C   0  0  0  0  0  0  0  0  0  0  0  0
  189.5370  177.4440  144.3640 C   0  0  0  0  0  0  0  0  0  0  0  0
  190.5770  177.3720  145.3560 C   0  0  0  0  0  0  0  0  0  0  0  0
  191.6900  177.9110  145.1240 O   0  0  0  0  0  0  0  0  0  0  0  0
  190.3620  176.6650  146.6590 C   0  0  2  0  0  3  0  0  0  0  0  0
  189.4070  177.4330  147.5590 C   0  0  0  0  0  1  0  0  0  0  0  0
  192.4310  175.2550  146.9570 N   0  0  0  0  0  1  0  0  0  0  0  0
  192.0730  177.1330  148.2720 O   0  0  0  0  0  0  0  0  0  0  0  0
  191.6550  176.3780  147.3550 C   0  0  0  0  0  0  0  0  0  0  0  0
  188.7060  178.2260  140.3060 C   0  0  2  0  0  3  0  0  0  0  0  0
  188.1710  178.5540  138.8920 C   0  0  1  0  0  3  0  0  0  0  0  0
  189.0540  179.3800  138.1910 O   0  0  0  0  0  1  0  0  0  0  0  0
  187.8680  177.2950  138.0680 C   0  0  1  0  0  3  0  0  0  0  0  0
  186.4900  177.1150  137.9390 O   0  0  0  0  0  1  0  0  0  0  0  0
  187.6130  177.0520  135.6830 O   0  0  0  0  0  1  0  0  0  0  0  0
  188.5430  177.2850  136.6980 C   0  0  0  0  0  2  0  0  0  0  0  0
  189.0550  176.7390  140.3950 C   0  0  0  0  0  2  0  0  0  0  0  0
  190.5290  176.5600  140.7000 C   0  0  0  0  0  2  0  0  0  0  0  0
  191.3100  176.7210  139.4470 C   0  0  0  0  0  0  0  0  0  0  0  0
  191.1600  175.7580  138.3970 N   0  0  0  0  0  2  0  0  0  0  0  0
  192.1250  177.6740  139.3460 O   0  0  0  0  0  0  0  0  0  0  0  0
  191.3140  174.7560  136.1090 C   0  0  0  0  0  2  0  0  0  0  0  0
  191.8700  173.3330  136.1580 C   0  0  0  0  0  2  0  0  0  0  0  0
  194.2140  176.1760  136.1480 C   0  0  0  0  0  3  0  0  0  0  0  0
  193.9940  174.4110  137.9700 C   0  0  0  0  0  2  0  0  0  0  0  0
  193.4390  175.6970  137.3470 C   0  0  2  0  0  3  0  0  0  0  0  0
  193.3510  173.2490  135.7710 C   0  0  1  0  0  3  0  0  0  0  0  0
  193.7440  174.1810  134.6130 C   0  0  0  0  0  2  0  0  0  0  0  0
  194.3560  175.5130  134.9870 C   0  0  0  0  0  3  0  0  0  0  0  0
  194.3050  173.2970  136.9660 C   0  0  0  0  0  2  0  0  0  0  0  0
  191.9150  175.7130  137.1450 C   0  0  2  0  0  3  0  0  0  0  0  0
  1  7  1  6  0  0  0
  1  6  1  0  0  0  0
  2  4  1  0  0  0  0
  2  1  1  0  0  0  0
  4  3  1  1  0  0  0
  4  5  1  0  0  0  0
  5  6  1  0  0  0  0
  5 15  1  1  0  0  0
  8  7  3  0  0  0  0
  9  8  1  0  0  0  0
 11 10  1  6  0  0  0
 11 13  1  0  0  0  0
 11  9  1  0  0  0  0
 13 12  1  0  0  0  0
 14 13  2  0  0  0  0
 15 16  3  0  0  0  0
 16 17  1  0  0  0  0
 17 19  1  0  0  0  0
 18 17  2  0  0  0  0
 19 23  1  0  0  0  0
 19 20  1  1  0  0  0
 21 23  1  0  0  0  0
 23 22  2  0  0  0  0
 24 31  1  6  0  0  0
 24  4  1  0  0  0  0
 25 26  1  6  0  0  0
 25 24  1  0  0  0  0
 27 28  1  6  0  0  0
 27 25  1  0  0  0  0
 29 30  1  0  0  0  0
 30 27  1  0  0  0  0
 31 32  1  0  0  0  0
 33 32  1  0  0  0  0
 34 33  1  0  0  0  0
 35 33  2  0  0  0  0
 36 37  1  0  0  0  0
 36 45  1  0  0  0  0
 40 38  1  6  0  0  0
 40 39  1  0  0  0  0
 41 42  1  6  0  0  0
 41 37  1  0  0  0  0
 41 44  1  0  0  0  0
 42 43  1  0  0  0  0
 43 38  2  0  0  0  0
 44 39  1  0  0  0  0
 45 40  1  0  0  0  0
 45 34  1  1  0  0  0
M  END
>  <MODEL>
6

>  <REMARK>
 VINA RESULT:      -5.8      2.688      5.789
  Name = 
  16 active torsions:
  status: ('A' for Active; 'I' for Inactive)
    1  A    between atoms: C_1  and  C_3
    2  A    between atoms: C_1  and  C_26
    3  A    between atoms: C_3  and  C_4
    4  A    between atoms: C_3  and  C_38
    5  A    between atoms: C_4  and  C_40
    6  A    between atoms: C_9  and  C_19
    7  A    between atoms: C_12  and  C_13
    8  A    between atoms: C_13  and  CA_39
    9  A    between atoms: C_15  and  C_41
   10  A    between atoms: C_16  and  C_40
   11  A    between atoms: C_17  and  C_21
   12  A    between atoms: C_21  and  C_27
   13  A    between atoms: C_22  and  C_26
   14  A    between atoms: N_24  and  C_44
   15  A    between atoms: C_27  and  C_33
   16  A    between atoms: C_28  and  CA_39
                            x       y       z     vdW  Elec       q    Type
                         _______ _______ _______ _____ _____    ______ ____

>  <TORSDO>
F 16

$$$$
=
 OpenBabel11062414203D

 45 47  0  0  1  0  0  0  0  0999 V2000
  183.6890  178.5290  140.7770 C   0  0  2  0  0  3  0  0  0  0  0  0
  182.6830  177.6740  140.7120 C   0  0  0  0  0  2  0  0  0  0  0  0
  180.5140  178.7130  140.4870 C   0  0  0  0  0  1  0  0  0  0  0  0
  181.6380  178.0240  139.7070 C   0  0  1  0  0  0  0  0  0  0  0  0
  182.3430  178.9870  138.7260 C   0  0  2  0  0  3  0  0  0  0  0  0
  183.6210  179.9020  139.6430 S   0  0  0  0  0  0  0  0  0  0  0  0
  184.8180  178.3020  141.6320 C   0  0  0  0  0  0  0  0  0  0  0  0
  185.7660  178.1130  142.3520 C   0  0  0  0  0  0  0  0  0  0  0  0
  186.9160  177.8810  143.2300 C   0  0  0  0  0  2  0  0  0  0  0  0
  188.4170  178.4340  141.3870 N   0  0  0  0  0  1  0  0  0  0  0  0
  188.1250  177.4470  142.4160 C   0  0  1  0  0  3  0  0  0  0  0  0
  189.8520  176.1430  143.4400 O   0  0  0  0  0  0  0  0  0  0  0  0
  189.3090  177.2720  143.3070 C   0  0  0  0  0  0  0  0  0  0  0  0
  189.8280  178.3700  143.9800 O   0  0  0  0  0  1  0  0  0  0  0  0
  181.4360  179.9030  138.0170 C   0  0  0  0  0  0  0  0  0  0  0  0
  180.6820  180.6610  137.4630 C   0  0  0  0  0  0  0  0  0  0  0  0
  179.7710  181.5720  136.8200 C   0  0  0  0  0  0  0  0  0  0  0  0
  178.9310  182.1990  137.5150 O   0  0  0  0  0  0  0  0  0  0  0  0
  179.8020  181.7840  135.3370 C   0  0  2  0  0  3  0  0  0  0  0  0
  180.8210  180.8770  134.6650 C   0  0  0  0  0  1  0  0  0  0  0  0
  178.9320  184.0400  134.6250 N   0  0  0  0  0  1  0  0  0  0  0  0
  181.1930  183.7130  135.0310 O   0  0  0  0  0  0  0  0  0  0  0  0
  180.0350  183.2190  134.9860 C   0  0  0  0  0  0  0  0  0  0  0  0
  181.0960  176.7560  138.9880 C   0  0  2  0  0  3  0  0  0  0  0  0
  179.6810  176.3230  139.4400 C   0  0  1  0  0  3  0  0  0  0  0  0
  178.9330  175.8270  138.3690 O   0  0  0  0  0  1  0  0  0  0  0  0
  179.7130  175.2920  140.5780 C   0  0  1  0  0  3  0  0  0  0  0  0
  179.1130  175.8110  141.7260 O   0  0  0  0  0  1  0  0  0  0  0  0
  179.4500  172.9560  141.1130 O   0  0  0  0  0  1  0  0  0  0  0  0
  179.0870  173.9500  140.2020 C   0  0  0  0  0  2  0  0  0  0  0  0
  182.0710  175.5890  139.1540 C   0  0  0  0  0  2  0  0  0  0  0  0
  181.9680  174.6430  137.9740 C   0  0  0  0  0  2  0  0  0  0  0  0
  182.9160  175.0780  136.9160 C   0  0  0  0  0  0  0  0  0  0  0  0
  184.3170  175.1410  137.2100 N   0  0  0  0  0  2  0  0  0  0  0  0
  182.4690  175.4290  135.7930 O   0  0  0  0  0  0  0  0  0  0  0  0
  186.6900  174.8670  136.4670 C   0  0  0  0  0  2  0  0  0  0  0  0
  187.6660  175.4650  137.4790 C   0  0  0  0  0  2  0  0  0  0  0  0
  186.0980  177.6710  134.9780 C   0  0  0  0  0  3  0  0  0  0  0  0
  185.8890  177.8730  137.5070 C   0  0  0  0  0  2  0  0  0  0  0  0
  185.4270  177.1650  136.2280 C   0  0  2  0  0  3  0  0  0  0  0  0
  188.1990  176.8420  137.0640 C   0  0  1  0  0  3  0  0  0  0  0  0
  188.4910  176.9670  135.5600 C   0  0  0  0  0  2  0  0  0  0  0  0
  187.4130  177.5990  134.7060 C   0  0  0  0  0  3  0  0  0  0  0  0
  187.4070  178.0130  137.6490 C   0  0  0  0  0  2  0  0  0  0  0  0
  185.3700  175.6310  136.3220 C   0  0  2  0  0  3  0  0  0  0  0  0
  1  7  1  6  0  0  0
  2  1  1  0  0  0  0
  4  3  1  1  0  0  0
  4  2  1  0  0  0  0
  5 15  1  1  0  0  0
  5  6  1  0  0  0  0
  5  4  1  0  0  0  0
  6  1  1  0  0  0  0
  7  8  3  0  0  0  0
  8  9  1  0  0  0  0
 11 10  1  6  0  0  0
 11  9  1  0  0  0  0
 11 13  1  0  0  0  0
 13 12  2  0  0  0  0
 13 14  1  0  0  0  0
 16 15  3  0  0  0  0
 17 16  1  0  0  0  0
 17 18  2  0  0  0  0
 19 20  1  6  0  0  0
 19 17  1  0  0  0  0
 21 23  1  0  0  0  0
 23 22  2  0  0  0  0
 23 19  1  0  0  0  0
 24 31  1  1  0  0  0
 24 25  1  0  0  0  0
 24  4  1  0  0  0  0
 25 26  1  6  0  0  0
 25 27  1  0  0  0  0
 27 28  1  1  0  0  0
 30 27  1  0  0  0  0
 30 29  1  0  0  0  0
 32 31  1  0  0  0  0
 33 34  1  0  0  0  0
 33 32  1  0  0  0  0
 35 33  2  0  0  0  0
 36 37  1  0  0  0  0
 39 44  1  0  0  0  0
 40 38  1  6  0  0  0
 40 45  1  0  0  0  0
 40 39  1  0  0  0  0
 41 42  1  6  0  0  0
 41 37  1  0  0  0  0
 41 44  1  0  0  0  0
 43 38  2  0  0  0  0
 43 42  1  0  0  0  0
 45 36  1  0  0  0  0
 45 34  1  1  0  0  0
M  END
>  <MODEL>
7

>  <REMARK>
 VINA RESULT:      -5.6      3.478      9.963
  Name = 
  16 active torsions:
  status: ('A' for Active; 'I' for Inactive)
    1  A    between atoms: C_1  and  C_3
    2  A    between atoms: C_1  and  C_26
    3  A    between atoms: C_3  and  C_4
    4  A    between atoms: C_3  and  C_38
    5  A    between atoms: C_4  and  C_40
    6  A    between atoms: C_9  and  C_19
    7  A    between atoms: C_12  and  C_13
    8  A    between atoms: C_13  and  CA_39
    9  A    between atoms: C_15  and  C_41
   10  A    between atoms: C_16  and  C_40
   11  A    between atoms: C_17  and  C_21
   12  A    between atoms: C_21  and  C_27
   13  A    between atoms: C_22  and  C_26
   14  A    between atoms: N_24  and  C_44
   15  A    between atoms: C_27  and  C_33
   16  A    between atoms: C_28  and  CA_39
                            x       y       z     vdW  Elec       q    Type
                         _______ _______ _______ _____ _____    ______ ____

>  <TORSDO>
F 16

$$$$
=
 OpenBabel11062414203D

 45 47  0  0  1  0  0  0  0  0999 V2000
  186.3500  178.1750  144.6020 C   0  0  2  0  0  3  0  0  0  0  0  0
  186.3820  177.9630  143.2980 C   0  0  0  0  0  2  0  0  0  0  0  0
  184.3070  177.1370  142.3790 C   0  0  0  0  0  1  0  0  0  0  0  0
  185.1560  178.3970  142.5700 C   0  0  1  0  0  0  0  0  0  0  0  0
  184.4800  179.4190  143.5130 C   0  0  2  0  0  3  0  0  0  0  0  0
  184.8790  178.9620  145.2290 S   0  0  0  0  0  0  0  0  0  0  0  0
  187.4780  177.8900  145.4420 C   0  0  0  0  0  0  0  0  0  0  0  0
  188.4270  177.6530  146.1460 C   0  0  0  0  0  0  0  0  0  0  0  0
  189.5790  177.3680  147.0050 C   0  0  0  0  0  2  0  0  0  0  0  0
  191.0930  177.4350  145.0920 N   0  0  0  0  0  1  0  0  0  0  0  0
  190.6540  176.6300  146.2210 C   0  0  1  0  0  3  0  0  0  0  0  0
  192.0500  177.0200  148.1270 O   0  0  0  0  0  1  0  0  0  0  0  0
  191.8130  176.3180  147.1070 C   0  0  0  0  0  0  0  0  0  0  0  0
  192.6270  175.2320  146.8150 O   0  0  0  0  0  0  0  0  0  0  0  0
  183.0280  179.5540  143.3200 C   0  0  0  0  0  0  0  0  0  0  0  0
  181.8410  179.6500  143.1370 C   0  0  0  0  0  0  0  0  0  0  0  0
  180.4260  179.7540  142.9000 C   0  0  0  0  0  0  0  0  0  0  0  0
  179.9260  180.8780  142.6340 O   0  0  0  0  0  0  0  0  0  0  0  0
  179.5350  178.5520  142.9680 C   0  0  2  0  0  3  0  0  0  0  0  0
  179.9840  177.5860  144.0530 C   0  0  0  0  0  1  0  0  0  0  0  0
  179.3070  176.4530  141.5890 N   0  0  0  0  0  1  0  0  0  0  0  0
  179.4070  178.5370  140.5740 O   0  0  0  0  0  0  0  0  0  0  0  0
  179.4230  177.8690  141.6420 C   0  0  0  0  0  0  0  0  0  0  0  0
  185.5070  179.0240  141.1910 C   0  0  2  0  0  3  0  0  0  0  0  0
  184.2920  179.2270  140.2540 C   0  0  1  0  0  3  0  0  0  0  0  0
  184.5550  180.1930  139.2800 O   0  0  0  0  0  1  0  0  0  0  0  0
  183.8370  177.9210  139.5860 C   0  0  1  0  0  3  0  0  0  0  0  0
  182.5180  177.6260  139.9360 O   0  0  0  0  0  1  0  0  0  0  0  0
  184.8250  176.8730  137.6530 O   0  0  0  0  0  1  0  0  0  0  0  0
  184.0030  177.9230  138.0680 C   0  0  0  0  0  2  0  0  0  0  0  0
  186.5740  178.1870  140.4800 C   0  0  0  0  0  2  0  0  0  0  0  0
  187.9600  178.6290  140.9050 C   0  0  0  0  0  2  0  0  0  0  0  0
  188.9650  178.0340  139.9860 C   0  0  0  0  0  0  0  0  0  0  0  0
  188.5590  177.6110  138.6790 N   0  0  0  0  0  2  0  0  0  0  0  0
  190.1460  177.8690  140.3880 O   0  0  0  0  0  0  0  0  0  0  0  0
  189.5840  177.7300  136.4000 C   0  0  0  0  0  2  0  0  0  0  0  0
  188.5550  177.4400  135.3080 C   0  0  0  0  0  2  0  0  0  0  0  0
  190.2240  174.6210  136.9930 C   0  0  0  0  0  3  0  0  0  0  0  0
  187.7220  175.0880  136.9590 C   0  0  0  0  0  2  0  0  0  0  0  0
  189.0870  175.4230  137.5690 C   0  0  2  0  0  3  0  0  0  0  0  0
  188.6500  176.0150  134.7510 C   0  0  1  0  0  3  0  0  0  0  0  0
  190.0910  175.5040  134.5940 C   0  0  0  0  0  2  0  0  0  0  0  0
  190.6370  174.6460  135.7140 C   0  0  0  0  0  3  0  0  0  0  0  0
  187.7030  175.0230  135.4290 C   0  0  0  0  0  2  0  0  0  0  0  0
  189.3910  176.9260  137.6900 C   0  0  2  0  0  3  0  0  0  0  0  0
  1  6  1  0  0  0  0
  1  7  1  6  0  0  0
  2  1  1  0  0  0  0
  4  3  1  6  0  0  0
  4  2  1  0  0  0  0
  4  5  1  0  0  0  0
  5 15  1  1  0  0  0
  5  6  1  0  0  0  0
  7  8  3  0  0  0  0
  8  9  1  0  0  0  0
 11 10  1  6  0  0  0
 11  9  1  0  0  0  0
 11 13  1  0  0  0  0
 13 12  1  0  0  0  0
 14 13  2  0  0  0  0
 16 15  3  0  0  0  0
 17 19  1  0  0  0  0
 17 16  1  0  0  0  0
 18 17  2  0  0  0  0
 19 20  1  1  0  0  0
 21 23  1  0  0  0  0
 22 23  2  0  0  0  0
 23 19  1  0  0  0  0
 24 31  1  6  0  0  0
 24  4  1  0  0  0  0
 25 26  1  6  0  0  0
 25 24  1  0  0  0  0
 27 28  1  6  0  0  0
 27 25  1  0  0  0  0
 29 30  1  0  0  0  0
 30 27  1  0  0  0  0
 31 32  1  0  0  0  0
 33 35  2  0  0  0  0
 33 32  1  0  0  0  0
 34 33  1  0  0  0  0
 36 45  1  0  0  0  0
 37 36  1  0  0  0  0
 38 40  1  0  0  0  0
 40 39  1  6  0  0  0
 40 45  1  0  0  0  0
 41 42  1  1  0  0  0
 41 37  1  0  0  0  0
 41 44  1  0  0  0  0
 42 43  1  0  0  0  0
 43 38  2  0  0  0  0
 44 39  1  0  0  0  0
 45 34  1  6  0  0  0
M  END
>  <MODEL>
8

>  <REMARK>
 VINA RESULT:      -5.6      2.339      8.467
  Name = 
  16 active torsions:
  status: ('A' for Active; 'I' for Inactive)
    1  A    between atoms: C_1  and  C_3
    2  A    between atoms: C_1  and  C_26
    3  A    between atoms: C_3  and  C_4
    4  A    between atoms: C_3  and  C_38
    5  A    between atoms: C_4  and  C_40
    6  A    between atoms: C_9  and  C_19
    7  A    between atoms: C_12  and  C_13
    8  A    between atoms: C_13  and  CA_39
    9  A    between atoms: C_15  and  C_41
   10  A    between atoms: C_16  and  C_40
   11  A    between atoms: C_17  and  C_21
   12  A    between atoms: C_21  and  C_27
   13  A    between atoms: C_22  and  C_26
   14  A    between atoms: N_24  and  C_44
   15  A    between atoms: C_27  and  C_33
   16  A    between atoms: C_28  and  CA_39
                            x       y       z     vdW  Elec       q    Type
                         _______ _______ _______ _____ _____    ______ ____

>  <TORSDO>
F 16

$$$$
=
 OpenBabel11062414203D

 45 47  0  0  1  0  0  0  0  0999 V2000
  188.5430  177.5500  141.1330 C   0  0  2  0  0  3  0  0  0  0  0  0
  188.0200  177.7700  139.9390 C   0  0  0  0  0  2  0  0  0  0  0  0
  189.5780  178.6640  138.3250 C   0  0  0  0  0  1  0  0  0  0  0  0
  188.8950  177.3770  138.7990 C   0  0  1  0  0  0  0  0  0  0  0  0
  189.9020  176.3710  139.4030 C   0  0  2  0  0  3  0  0  0  0  0  0
  190.1620  176.8060  141.1510 S   0  0  0  0  0  0  0  0  0  0  0  0
  187.8050  177.7950  142.3380 C   0  0  0  0  0  0  0  0  0  0  0  0
  187.1850  178.0040  143.3510 C   0  0  0  0  0  0  0  0  0  0  0  0
  186.4290  178.2600  144.5790 C   0  0  0  0  0  2  0  0  0  0  0  0
  188.5770  177.8670  145.6690 N   0  0  0  0  0  1  0  0  0  0  0  0
  187.1420  177.6500  145.7760 C   0  0  1  0  0  3  0  0  0  0  0  0
  187.3750  178.3620  148.0510 O   0  0  0  0  0  1  0  0  0  0  0  0
  186.6280  178.2520  147.0420 C   0  0  0  0  0  0  0  0  0  0  0  0
  185.3190  178.7110  147.1010 O   0  0  0  0  0  0  0  0  0  0  0  0
  191.1790  176.2810  138.6790 C   0  0  0  0  0  0  0  0  0  0  0  0
  192.2140  176.2260  138.0650 C   0  0  0  0  0  0  0  0  0  0  0  0
  193.4420  176.1690  137.3160 C   0  0  0  0  0  0  0  0  0  0  0  0
  194.0350  177.2390  137.0220 O   0  0  0  0  0  0  0  0  0  0  0  0
  194.0250  174.8620  136.8770 C   0  0  2  0  0  3  0  0  0  0  0  0
  192.9760  173.7600  136.8610 C   0  0  0  0  0  1  0  0  0  0  0  0
  196.5110  174.8760  137.2960 N   0  0  0  0  0  1  0  0  0  0  0  0
  195.0630  173.8210  138.7710 O   0  0  0  0  0  0  0  0  0  0  0  0
  195.2090  174.4760  137.7050 C   0  0  0  0  0  0  0  0  0  0  0  0
  188.0700  176.7480  137.6400 C   0  0  2  0  0  3  0  0  0  0  0  0
  188.3930  177.3250  136.2410 C   0  0  1  0  0  3  0  0  0  0  0  0
  189.1460  178.4980  136.3340 O   0  0  0  0  0  1  0  0  0  0  0  0
  189.1100  176.3140  135.3360 C   0  0  1  0  0  3  0  0  0  0  0  0
  190.4190  176.7270  135.0800 O   0  0  0  0  0  1  0  0  0  0  0  0
  189.8780  174.0410  135.0960 O   0  0  0  0  0  1  0  0  0  0  0  0
  189.0930  174.8870  135.8810 C   0  0  0  0  0  2  0  0  0  0  0  0
  186.5710  176.8780  137.9200 C   0  0  0  0  0  2  0  0  0  0  0  0
  186.0960  178.2830  137.6060 C   0  0  0  0  0  2  0  0  0  0  0  0
  184.9620  178.6260  138.5030 C   0  0  0  0  0  0  0  0  0  0  0  0
  183.8970  177.6850  138.6800 N   0  0  0  0  0  2  0  0  0  0  0  0
  184.9330  179.7560  139.0560 O   0  0  0  0  0  0  0  0  0  0  0  0
  181.9810  176.5910  139.8600 C   0  0  0  0  0  2  0  0  0  0  0  0
  180.9320  176.0820  138.8720 C   0  0  0  0  0  2  0  0  0  0  0  0
  180.8460  179.6150  139.9180 C   0  0  0  0  0  3  0  0  0  0  0  0
  181.1430  178.7540  137.5400 C   0  0  0  0  0  2  0  0  0  0  0  0
  181.7930  179.0360  138.8990 C   0  0  2  0  0  3  0  0  0  0  0  0
  179.7120  177.0030  138.7580 C   0  0  1  0  0  3  0  0  0  0  0  0
  179.2640  177.6090  140.0980 C   0  0  0  0  0  2  0  0  0  0  0  0
  179.7550  179.0060  140.4130 C   0  0  0  0  0  3  0  0  0  0  0  0
  179.8050  178.0130  137.6120 C   0  0  0  0  0  2  0  0  0  0  0  0
  182.6690  177.8970  139.4460 C   0  0  2  0  0  3  0  0  0  0  0  0
  1  6  1  0  0  0  0
  1  7  1  1  0  0  0
  2  1  1  0  0  0  0
  4  3  1  6  0  0  0
  4  5  1  0  0  0  0
  4  2  1  0  0  0  0
  5 15  1  6  0  0  0
  5  6  1  0  0  0  0
  7  8  3  0  0  0  0
  8  9  1  0  0  0  0
  9 11  1  0  0  0  0
 11 10  1  6  0  0  0
 11 13  1  0  0  0  0
 13 14  2  0  0  0  0
 13 12  1  0  0  0  0
 16 15  3  0  0  0  0
 17 16  1  0  0  0  0
 18 17  2  0  0  0  0
 19 20  1  1  0  0  0
 19 17  1  0  0  0  0
 19 23  1  0  0  0  0
 21 23  1  0  0  0  0
 23 22  2  0  0  0  0
 24 31  1  1  0  0  0
 24  4  1  0  0  0  0
 25 26  1  1  0  0  0
 25 24  1  0  0  0  0
 27 28  1  1  0  0  0
 27 30  1  0  0  0  0
 27 25  1  0  0  0  0
 29 30  1  0  0  0  0
 32 31  1  0  0  0  0
 32 33  1  0  0  0  0
 33 34  1  0  0  0  0
 33 35  2  0  0  0  0
 37 36  1  0  0  0  0
 38 43  2  0  0  0  0
 39 44  1  0  0  0  0
 40 39  1  6  0  0  0
 40 45  1  0  0  0  0
 40 38  1  0  0  0  0
 41 44  1  6  0  0  0
 41 37  1  0  0  0  0
 41 42  1  0  0  0  0
 42 43  1  0  0  0  0
 45 34  1  6  0  0  0
 45 36  1  0  0  0  0
M  END
>  <MODEL>
9

>  <REMARK>
 VINA RESULT:      -5.3      3.320      6.171
  Name = 
  16 active torsions:
  status: ('A' for Active; 'I' for Inactive)
    1  A    between atoms: C_1  and  C_3
    2  A    between atoms: C_1  and  C_26
    3  A    between atoms: C_3  and  C_4
    4  A    between atoms: C_3  and  C_38
    5  A    between atoms: C_4  and  C_40
    6  A    between atoms: C_9  and  C_19
    7  A    between atoms: C_12  and  C_13
    8  A    between atoms: C_13  and  CA_39
    9  A    between atoms: C_15  and  C_41
   10  A    between atoms: C_16  and  C_40
   11  A    between atoms: C_17  and  C_21
   12  A    between atoms: C_21  and  C_27
   13  A    between atoms: C_22  and  C_26
   14  A    between atoms: N_24  and  C_44
   15  A    between atoms: C_27  and  C_33
   16  A    between atoms: C_28  and  CA_39
                            x       y       z     vdW  Elec       q    Type
                         _______ _______ _______ _____ _____    ______ ____

>  <TORSDO>
F 16

$$$$
