=
 OpenBabel11062415293D

 37 40  0  0  1  0  0  0  0  0999 V2000
  187.3910  178.2510  148.2360 O   0  0  0  0  0  1  0  0  0  0  0  0
  186.9840  178.4080  146.9170 C   0  0  0  0  0  0  0  0  0  0  0  0
  184.5580  178.7210  146.8840 N   0  0  0  0  0  2  0  0  0  0  0  0
  185.7480  179.0010  146.4650 C   0  0  2  0  0  3  0  0  0  0  0  0
  186.8480  178.2620  144.6350 N   0  0  0  0  0  2  0  0  0  0  0  0
  183.7140  178.6100  145.7620 N   0  0  0  0  0  0  0  0  0  0  0  0
  185.8190  178.9270  145.0470 C   0  0  1  0  0  3  0  0  0  0  0  0
  183.8980  178.5620  143.3710 N   0  0  0  0  0  2  0  0  0  0  0  0
  187.6400  178.0260  145.8130 C   0  0  0  0  0  0  0  0  0  0  0  0
  184.4330  178.6960  144.6860 C   0  0  0  0  0  0  0  0  0  0  0  0
  188.9030  177.3240  145.7850 N   0  0  0  0  0  0  0  0  0  0  0  0
  189.7610  177.3630  144.6210 C   0  0  0  0  0  0  0  0  0  0  0  0
  189.7620  176.3020  143.6980 C   0  0  0  0  0  3  0  0  0  0  0  0
  190.6340  178.4430  144.4020 C   0  0  0  0  0  3  0  0  0  0  0  0
  191.4690  178.4730  143.2810 C   0  0  0  0  0  3  0  0  0  0  0  0
  192.2570  177.4460  141.2810 F   0  0  0  0  0  0  0  0  0  0  0  0
  190.5970  176.3290  142.5770 C   0  0  0  0  0  3  0  0  0  0  0  0
  191.4500  177.4160  142.3680 C   0  0  0  0  0  0  0  0  0  0  0  0
  189.2890  176.4870  146.9210 C   0  0  0  0  0  2  0  0  0  0  0  0
  190.6660  176.8850  147.4210 C   0  0  0  0  0  1  0  0  0  0  0  0
  184.7420  178.6770  142.1920 C   0  0  0  0  0  2  0  0  0  0  0  0
  184.0540  178.0540  140.9870 C   0  0  0  0  0  2  0  0  0  0  0  0
  184.8820  179.8730  139.7510 O   0  0  0  0  0  0  0  0  0  0  0  0
  184.4780  178.7210  139.7160 C   0  0  0  0  0  0  0  0  0  0  0  0
  184.3930  177.9870  138.4110 C   0  0  2  0  0  3  0  0  0  0  0  0
  183.5560  175.8650  137.6960 O   0  0  0  0  0  1  0  0  0  0  0  0
  183.2350  177.0000  138.4410 C   0  0  0  0  0  2  0  0  0  0  0  0
  185.6460  177.2910  138.1550 N   0  0  0  0  0  2  0  0  0  0  0  0
  186.3580  178.0140  137.1080 C   0  0  0  0  0  2  0  0  0  0  0  0
  191.5040  175.8970  137.2980 C   0  0  0  0  0  1  0  0  0  0  0  0
  189.4420  178.0690  139.2500 O   0  0  0  0  0  0  0  0  0  0  0  0
  189.5540  176.9430  136.5620 C   0  0  0  0  0  2  0  0  0  0  0  0
  188.8060  178.2740  136.4720 C   0  0  0  0  0  2  0  0  0  0  0  0
  188.0980  177.8460  138.9320 C   0  0  0  0  0  2  0  0  0  0  0  0
  190.0960  176.8920  138.8670 C   0  0  0  0  0  2  0  0  0  0  0  0
  190.6460  177.0440  137.5250 N   0  0  0  0  0  0  0  0  0  0  0  0
  187.7450  178.4590  137.5720 C   0  0  2  0  0  3  0  0  0  0  0  0
  2  1  1  0  0  0  0
  4  3  1  1  0  0  0
  4  2  1  0  0  0  0
  5  9  1  0  0  0  0
  6  3  1  0  0  0  0
  7  5  1  1  0  0  0
  7  4  1  0  0  0  0
  8 10  1  0  0  0  0
  9  2  2  0  0  0  0
 10  7  1  0  0  0  0
 10  6  2  0  0  0  0
 11  9  1  0  0  0  0
 11 19  1  0  0  0  0
 12 11  1  0  0  0  0
 13 12  2  0  0  0  0
 14 12  1  0  0  0  0
 15 14  2  0  0  0  0
 16 18  1  0  0  0  0
 17 13  1  0  0  0  0
 18 17  2  0  0  0  0
 18 15  1  0  0  0  0
 19 20  1  0  0  0  0
 21  8  1  0  0  0  0
 22 21  1  0  0  0  0
 24 23  2  0  0  0  0
 24 22  1  0  0  0  0
 25 27  1  1  0  0  0
 25 24  1  0  0  0  0
 26 27  1  0  0  0  0
 28 25  1  0  0  0  0
 29 28  1  0  0  0  0
 30 36  1  0  0  0  0
 32 36  1  0  0  0  0
 33 32  1  0  0  0  0
 33 37  1  0  0  0  0
 34 31  1  0  0  0  0
 35 31  1  0  0  0  0
 36 35  1  0  0  0  0
 37 29  1  6  0  0  0
 37 34  1  0  0  0  0
M  END
>  <MODEL>
1

>  <REMARK>
 VINA RESULT:      -8.1      0.000      0.000
  Name = 
  11 active torsions:
  status: ('A' for Active; 'I' for Inactive)
    1  A    between atoms: C_3  and  N_11
    2  A    between atoms: N_4  and  CA_30
    3  A    between atoms: N_4  and  C_37
    4  A    between atoms: C_7  and  N_11
    5  A    between atoms: N_11  and  C_29
    6  A    between atoms: C_13  and  N_24
    7  A    between atoms: C_13  and  C_34
    8  A    between atoms: C_26  and  CA_30
    9  A    between atoms: CA_30  and  C_33
   10  A    between atoms: C_33  and  C_34
   11  A    between atoms: C_36  and  C_37
                            x       y       z     vdW  Elec       q    Type
                         _______ _______ _______ _____ _____    ______ ____

>  <TORSDO>
F 11

$$$$
=
 OpenBabel11062415293D

 37 40  0  0  1  0  0  0  0  0999 V2000
  182.2370  176.2320  138.9200 O   0  0  0  0  0  1  0  0  0  0  0  0
  183.3880  176.7350  138.3250 C   0  0  0  0  0  0  0  0  0  0  0  0
  184.7600  174.8530  137.5760 N   0  0  0  0  0  2  0  0  0  0  0  0
  184.2590  176.0330  137.4120 C   0  0  2  0  0  3  0  0  0  0  0  0
  185.1780  178.0620  137.7940 N   0  0  0  0  0  2  0  0  0  0  0  0
  186.1200  174.9020  137.2090 N   0  0  0  0  0  0  0  0  0  0  0  0
  185.2720  176.9780  137.0950 C   0  0  1  0  0  3  0  0  0  0  0  0
  187.7640  176.5440  136.6140 N   0  0  0  0  0  2  0  0  0  0  0  0
  183.9250  177.9500  138.4940 C   0  0  0  0  0  0  0  0  0  0  0  0
  186.4430  176.1320  136.9570 C   0  0  0  0  0  0  0  0  0  0  0  0
  183.4240  178.9770  139.3800 N   0  0  0  0  0  0  0  0  0  0  0  0
  183.5830  178.8780  140.8140 C   0  0  0  0  0  0  0  0  0  0  0  0
  184.8660  178.8190  141.3870 C   0  0  0  0  0  3  0  0  0  0  0  0
  182.4650  178.8050  141.6630 C   0  0  0  0  0  3  0  0  0  0  0  0
  182.6230  178.6990  143.0480 C   0  0  0  0  0  3  0  0  0  0  0  0
  184.0580  178.5530  144.9440 F   0  0  0  0  0  0  0  0  0  0  0  0
  185.0270  178.7120  142.7720 C   0  0  0  0  0  3  0  0  0  0  0  0
  183.9040  178.6540  143.6030 C   0  0  0  0  0  0  0  0  0  0  0  0
  182.6670  180.0990  138.8270 C   0  0  0  0  0  2  0  0  0  0  0  0
  181.3840  179.6020  138.1860 C   0  0  0  0  0  1  0  0  0  0  0  0
  188.0780  177.9350  136.3280 C   0  0  0  0  0  2  0  0  0  0  0  0
  189.3680  178.3400  137.0250 C   0  0  0  0  0  2  0  0  0  0  0  0
  188.2260  178.7170  139.0430 O   0  0  0  0  0  0  0  0  0  0  0  0
  189.2270  178.2630  138.5130 C   0  0  0  0  0  0  0  0  0  0  0  0
  190.3140  177.6480  139.3440 C   0  0  2  0  0  3  0  0  0  0  0  0
  190.4710  175.3820  138.6010 O   0  0  0  0  0  1  0  0  0  0  0  0
  191.0890  176.6290  138.5220 C   0  0  0  0  0  2  0  0  0  0  0  0
  189.7350  177.0140  140.5210 N   0  0  0  0  0  2  0  0  0  0  0  0
  190.5860  177.3240  141.6640 C   0  0  0  0  0  2  0  0  0  0  0  0
  190.0220  177.0940  147.1990 C   0  0  0  0  0  1  0  0  0  0  0  0
  188.0110  177.8600  144.3440 O   0  0  0  0  0  0  0  0  0  0  0  0
  190.8230  177.5730  145.0610 C   0  0  0  0  0  2  0  0  0  0  0  0
  190.7460  178.5490  143.8860 C   0  0  0  0  0  2  0  0  0  0  0  0
  188.5830  177.2870  143.2030 C   0  0  0  0  0  2  0  0  0  0  0  0
  188.5260  177.1140  145.4110 C   0  0  0  0  0  2  0  0  0  0  0  0
  189.6970  177.7840  145.9650 N   0  0  0  0  0  0  0  0  0  0  0  0
  189.8190  178.0740  142.7530 C   0  0  2  0  0  3  0  0  0  0  0  0
  2  9  2  0  0  0  0
  2  1  1  0  0  0  0
  4  3  1  1  0  0  0
  4  2  1  0  0  0  0
  5  9  1  0  0  0  0
  6  3  1  0  0  0  0
  7 10  1  1  0  0  0
  7  4  1  0  0  0  0
  7  5  1  0  0  0  0
  8 10  1  0  0  0  0
  9 11  1  0  0  0  0
 10  6  2  0  0  0  0
 11 12  1  0  0  0  0
 12 13  2  0  0  0  0
 12 14  1  0  0  0  0
 13 17  1  0  0  0  0
 14 15  2  0  0  0  0
 15 18  1  0  0  0  0
 17 18  2  0  0  0  0
 18 16  1  0  0  0  0
 19 11  1  0  0  0  0
 20 19  1  0  0  0  0
 21  8  1  0  0  0  0
 21 22  1  0  0  0  0
 22 24  1  0  0  0  0
 24 23  2  0  0  0  0
 24 25  1  0  0  0  0
 25 27  1  6  0  0  0
 25 28  1  0  0  0  0
 27 26  1  0  0  0  0
 28 29  1  0  0  0  0
 31 35  1  0  0  0  0
 32 36  1  0  0  0  0
 33 32  1  0  0  0  0
 34 31  1  0  0  0  0
 35 36  1  0  0  0  0
 36 30  1  0  0  0  0
 37 29  1  6  0  0  0
 37 34  1  0  0  0  0
 37 33  1  0  0  0  0
M  END
>  <MODEL>
2

>  <REMARK>
 VINA RESULT:      -7.8      2.703      8.015
  Name = 
  11 active torsions:
  status: ('A' for Active; 'I' for Inactive)
    1  A    between atoms: C_3  and  N_11
    2  A    between atoms: N_4  and  CA_30
    3  A    between atoms: N_4  and  C_37
    4  A    between atoms: C_7  and  N_11
    5  A    between atoms: N_11  and  C_29
    6  A    between atoms: C_13  and  N_24
    7  A    between atoms: C_13  and  C_34
    8  A    between atoms: C_26  and  CA_30
    9  A    between atoms: CA_30  and  C_33
   10  A    between atoms: C_33  and  C_34
   11  A    between atoms: C_36  and  C_37
                            x       y       z     vdW  Elec       q    Type
                         _______ _______ _______ _____ _____    ______ ____

>  <TORSDO>
F 11

$$$$
=
 OpenBabel11062415293D

 37 40  0  0  1  0  0  0  0  0999 V2000
  188.2930  177.2750  135.3300 O   0  0  0  0  0  1  0  0  0  0  0  0
  188.4020  177.3390  136.7140 C   0  0  0  0  0  0  0  0  0  0  0  0
  190.7530  177.0400  137.3230 N   0  0  0  0  0  2  0  0  0  0  0  0
  189.6020  177.6100  137.4690 C   0  0  2  0  0  3  0  0  0  0  0  0
  187.9540  177.1850  138.9550 N   0  0  0  0  0  2  0  0  0  0  0  0
  191.2540  176.7320  138.6030 N   0  0  0  0  0  0  0  0  0  0  0  0
  189.1820  177.5700  138.8260 C   0  0  1  0  0  3  0  0  0  0  0  0
  190.5020  176.7550  140.8810 N   0  0  0  0  0  2  0  0  0  0  0  0
  187.4310  177.1420  137.6150 C   0  0  0  0  0  0  0  0  0  0  0  0
  190.3440  177.0050  139.4860 C   0  0  0  0  0  0  0  0  0  0  0  0
  186.0650  176.7750  137.3150 N   0  0  0  0  0  0  0  0  0  0  0  0
  184.9550  177.6090  137.7220 C   0  0  0  0  0  0  0  0  0  0  0  0
  185.1300  178.6020  138.7020 C   0  0  0  0  0  3  0  0  0  0  0  0
  183.6730  177.4250  137.1750 C   0  0  0  0  0  3  0  0  0  0  0  0
  182.6000  178.2250  137.5790 C   0  0  0  0  0  3  0  0  0  0  0  0
  181.7550  179.9920  138.9350 F   0  0  0  0  0  0  0  0  0  0  0  0
  184.0580  179.4030  139.1090 C   0  0  0  0  0  3  0  0  0  0  0  0
  182.7930  179.2150  138.5450 C   0  0  0  0  0  0  0  0  0  0  0  0
  185.7880  175.4970  136.6590 C   0  0  0  0  0  2  0  0  0  0  0  0
  186.7270  174.4260  137.1830 C   0  0  0  0  0  1  0  0  0  0  0  0
  189.4580  177.0860  141.8370 C   0  0  0  0  0  2  0  0  0  0  0  0
  189.8500  176.6210  143.2310 C   0  0  0  0  0  2  0  0  0  0  0  0
  190.6830  178.7960  143.5400 O   0  0  0  0  0  0  0  0  0  0  0  0
  190.3010  177.7690  144.0790 C   0  0  0  0  0  0  0  0  0  0  0  0
  190.3000  177.6510  145.5740 C   0  0  2  0  0  3  0  0  0  0  0  0
  191.3280  176.3580  147.3020 O   0  0  0  0  0  1  0  0  0  0  0  0
  191.5460  176.9120  146.0410 C   0  0  0  0  0  2  0  0  0  0  0  0
  189.1010  176.9500  146.0120 N   0  0  0  0  0  2  0  0  0  0  0  0
  188.2330  177.9140  146.6770 C   0  0  0  0  0  2  0  0  0  0  0  0
  184.5570  179.0240  142.6440 C   0  0  0  0  0  1  0  0  0  0  0  0
  184.5910  178.7000  146.2040 O   0  0  0  0  0  0  0  0  0  0  0  0
  186.2470  178.0210  143.9020 C   0  0  0  0  0  2  0  0  0  0  0  0
  186.5510  177.0040  145.0010 C   0  0  0  0  0  2  0  0  0  0  0  0
  185.8970  178.8750  146.6770 C   0  0  0  0  0  2  0  0  0  0  0  0
  184.5780  179.3310  144.9560 C   0  0  0  0  0  2  0  0  0  0  0  0
  184.8260  178.3530  143.9020 N   0  0  0  0  0  0  0  0  0  0  0  0
  186.7570  177.6400  146.3880 C   0  0  2  0  0  3  0  0  0  0  0  0
  1  2  1  0  0  0  0
  2  9  2  0  0  0  0
  3  4  1  0  0  0  0
  3  6  1  0  0  0  0
  4  2  1  6  0  0  0
  4  7  1  0  0  0  0
  6 10  2  0  0  0  0
  7  5  1  6  0  0  0
  7 10  1  0  0  0  0
  8 21  1  0  0  0  0
  9  5  1  0  0  0  0
 10  8  1  0  0  0  0
 11  9  1  0  0  0  0
 11 12  1  0  0  0  0
 12 13  1  0  0  0  0
 13 17  2  0  0  0  0
 14 15  1  0  0  0  0
 14 12  2  0  0  0  0
 15 18  2  0  0  0  0
 18 16  1  0  0  0  0
 18 17  1  0  0  0  0
 19 20  1  0  0  0  0
 19 11  1  0  0  0  0
 21 22  1  0  0  0  0
 22 24  1  0  0  0  0
 23 24  2  0  0  0  0
 24 25  1  0  0  0  0
 25 28  1  0  0  0  0
 25 27  1  6  0  0  0
 27 26  1  0  0  0  0
 28 29  1  0  0  0  0
 30 36  1  0  0  0  0
 31 34  1  0  0  0  0
 32 36  1  0  0  0  0
 32 33  1  0  0  0  0
 33 37  1  0  0  0  0
 35 31  1  0  0  0  0
 36 35  1  0  0  0  0
 37 29  1  6  0  0  0
 37 34  1  0  0  0  0
M  END
>  <MODEL>
3

>  <REMARK>
 VINA RESULT:      -7.7      2.767      9.201
  Name = 
  11 active torsions:
  status: ('A' for Active; 'I' for Inactive)
    1  A    between atoms: C_3  and  N_11
    2  A    between atoms: N_4  and  CA_30
    3  A    between atoms: N_4  and  C_37
    4  A    between atoms: C_7  and  N_11
    5  A    between atoms: N_11  and  C_29
    6  A    between atoms: C_13  and  N_24
    7  A    between atoms: C_13  and  C_34
    8  A    between atoms: C_26  and  CA_30
    9  A    between atoms: CA_30  and  C_33
   10  A    between atoms: C_33  and  C_34
   11  A    between atoms: C_36  and  C_37
                            x       y       z     vdW  Elec       q    Type
                         _______ _______ _______ _____ _____    ______ ____

>  <TORSDO>
F 11

$$$$
=
 OpenBabel11062415293D

 37 40  0  0  1  0  0  0  0  0999 V2000
  191.2910  175.2610  137.7480 O   0  0  0  0  0  1  0  0  0  0  0  0
  190.2860  176.0600  138.2800 C   0  0  0  0  0  0  0  0  0  0  0  0
  190.7210  176.3670  140.6680 N   0  0  0  0  0  2  0  0  0  0  0  0
  190.3480  176.8100  139.5120 C   0  0  2  0  0  3  0  0  0  0  0  0
  188.2690  177.0740  138.6670 N   0  0  0  0  0  2  0  0  0  0  0  0
  189.8070  176.8390  141.6310 N   0  0  0  0  0  0  0  0  0  0  0  0
  189.0830  177.4530  139.5970 C   0  0  1  0  0  3  0  0  0  0  0  0
  187.7040  177.9900  141.7040 N   0  0  0  0  0  2  0  0  0  0  0  0
  189.0650  176.2740  137.7730 C   0  0  0  0  0  0  0  0  0  0  0  0
  188.8340  177.4450  141.0260 C   0  0  0  0  0  0  0  0  0  0  0  0
  188.5330  175.6690  136.5730 N   0  0  0  0  0  0  0  0  0  0  0  0
  187.5220  174.6360  136.6350 C   0  0  0  0  0  0  0  0  0  0  0  0
  186.1580  174.9650  136.5370 C   0  0  0  0  0  3  0  0  0  0  0  0
  187.8740  173.2890  136.8260 C   0  0  0  0  0  3  0  0  0  0  0  0
  186.8940  172.2950  136.8950 C   0  0  0  0  0  3  0  0  0  0  0  0
  184.5940  171.6740  136.8500 F   0  0  0  0  0  0  0  0  0  0  0  0
  185.1760  173.9730  136.6070 C   0  0  0  0  0  3  0  0  0  0  0  0
  185.5450  172.6370  136.7850 C   0  0  0  0  0  0  0  0  0  0  0  0
  189.0830  176.0440  135.2710 C   0  0  0  0  0  2  0  0  0  0  0  0
  188.7710  177.4990  134.9700 C   0  0  0  0  0  1  0  0  0  0  0  0
  186.6410  178.6710  140.9840 C   0  0  0  0  0  2  0  0  0  0  0  0
  185.7300  179.4060  141.9560 C   0  0  0  0  0  2  0  0  0  0  0  0
  183.8410  178.0200  141.7830 O   0  0  0  0  0  0  0  0  0  0  0  0
  184.6910  178.4900  142.5230 C   0  0  0  0  0  0  0  0  0  0  0  0
  184.6840  178.1670  143.9870 C   0  0  2  0  0  3  0  0  0  0  0  0
  183.6920  179.1160  145.9440 O   0  0  0  0  0  1  0  0  0  0  0  0
  183.4210  178.7120  144.6370 C   0  0  0  0  0  2  0  0  0  0  0  0
  185.8650  178.7350  144.6220 N   0  0  0  0  0  2  0  0  0  0  0  0
  186.7180  177.6340  145.0550 C   0  0  0  0  0  2  0  0  0  0  0  0
  191.8960  175.9270  146.1870 C   0  0  0  0  0  1  0  0  0  0  0  0
  189.2510  177.6880  147.8270 O   0  0  0  0  0  0  0  0  0  0  0  0
  190.0490  176.8930  145.1370 C   0  0  0  0  0  2  0  0  0  0  0  0
  189.2050  178.1610  145.0090 C   0  0  0  0  0  2  0  0  0  0  0  0
  188.0360  177.3970  147.1970 C   0  0  0  0  0  2  0  0  0  0  0  0
  190.0900  176.6200  147.4890 C   0  0  0  0  0  2  0  0  0  0  0  0
  190.8950  176.9690  146.3240 N   0  0  0  0  0  0  0  0  0  0  0  0
  187.9210  178.1320  145.8560 C   0  0  2  0  0  3  0  0  0  0  0  0
  1  2  1  0  0  0  0
  3  6  1  0  0  0  0
  4  2  1  6  0  0  0
  4  7  1  0  0  0  0
  4  3  1  0  0  0  0
  7  5  1  6  0  0  0
  7 10  1  0  0  0  0
  9  2  2  0  0  0  0
  9  5  1  0  0  0  0
 10  6  2  0  0  0  0
 10  8  1  0  0  0  0
 11 12  1  0  0  0  0
 11  9  1  0  0  0  0
 12 14  1  0  0  0  0
 13 17  1  0  0  0  0
 13 12  2  0  0  0  0
 14 15  2  0  0  0  0
 17 18  2  0  0  0  0
 18 16  1  0  0  0  0
 18 15  1  0  0  0  0
 19 11  1  0  0  0  0
 20 19  1  0  0  0  0
 21  8  1  0  0  0  0
 21 22  1  0  0  0  0
 22 24  1  0  0  0  0
 23 24  2  0  0  0  0
 24 25  1  0  0  0  0
 25 28  1  0  0  0  0
 25 27  1  1  0  0  0
 27 26  1  0  0  0  0
 28 29  1  0  0  0  0
 30 36  1  0  0  0  0
 32 36  1  0  0  0  0
 33 32  1  0  0  0  0
 33 37  1  0  0  0  0
 34 31  1  0  0  0  0
 35 31  1  0  0  0  0
 36 35  1  0  0  0  0
 37 29  1  6  0  0  0
 37 34  1  0  0  0  0
M  END
>  <MODEL>
4

>  <REMARK>
 VINA RESULT:      -7.7      3.105      8.227
  Name = 
  11 active torsions:
  status: ('A' for Active; 'I' for Inactive)
    1  A    between atoms: C_3  and  N_11
    2  A    between atoms: N_4  and  CA_30
    3  A    between atoms: N_4  and  C_37
    4  A    between atoms: C_7  and  N_11
    5  A    between atoms: N_11  and  C_29
    6  A    between atoms: C_13  and  N_24
    7  A    between atoms: C_13  and  C_34
    8  A    between atoms: C_26  and  CA_30
    9  A    between atoms: CA_30  and  C_33
   10  A    between atoms: C_33  and  C_34
   11  A    between atoms: C_36  and  C_37
                            x       y       z     vdW  Elec       q    Type
                         _______ _______ _______ _____ _____    ______ ____

>  <TORSDO>
F 11

$$$$
=
 OpenBabel11062415293D

 37 40  0  0  1  0  0  0  0  0999 V2000
  191.1480  176.7460  145.7610 O   0  0  0  0  0  1  0  0  0  0  0  0
  190.4570  176.8550  144.5600 C   0  0  0  0  0  0  0  0  0  0  0  0
  192.0840  176.9960  142.7390 N   0  0  0  0  0  2  0  0  0  0  0  0
  190.9740  176.5670  143.2440 C   0  0  2  0  0  3  0  0  0  0  0  0
  188.8700  177.3490  142.9840 N   0  0  0  0  0  2  0  0  0  0  0  0
  191.8290  177.4180  141.4190 N   0  0  0  0  0  0  0  0  0  0  0  0
  189.8830  176.8290  142.3710 C   0  0  1  0  0  3  0  0  0  0  0  0
  189.9460  177.7730  139.9760 N   0  0  0  0  0  2  0  0  0  0  0  0
  189.1940  177.2660  144.3840 C   0  0  0  0  0  0  0  0  0  0  0  0
  190.5530  177.3570  141.1980 C   0  0  0  0  0  0  0  0  0  0  0  0
  188.3040  177.7250  145.4270 N   0  0  0  0  0  0  0  0  0  0  0  0
  186.9170  178.0310  145.1520 C   0  0  0  0  0  0  0  0  0  0  0  0
  186.3910  177.8610  143.8590 C   0  0  0  0  0  3  0  0  0  0  0  0
  186.0740  178.5350  146.1580 C   0  0  0  0  0  3  0  0  0  0  0  0
  184.7370  178.8400  145.8860 C   0  0  0  0  0  3  0  0  0  0  0  0
  182.9320  178.9480  144.3360 F   0  0  0  0  0  0  0  0  0  0  0  0
  185.0540  178.1670  143.5840 C   0  0  0  0  0  3  0  0  0  0  0  0
  184.2270  178.6540  144.6000 C   0  0  0  0  0  0  0  0  0  0  0  0
  188.8300  177.9650  146.7700 C   0  0  0  0  0  2  0  0  0  0  0  0
  188.4260  176.8360  147.7000 C   0  0  0  0  0  1  0  0  0  0  0  0
  188.5100  177.6770  139.7690 C   0  0  0  0  0  2  0  0  0  0  0  0
  188.2090  177.2860  138.3300 C   0  0  0  0  0  2  0  0  0  0  0  0
  187.4320  179.0430  136.9770 O   0  0  0  0  0  0  0  0  0  0  0  0
  187.1310  178.1470  137.7490 C   0  0  0  0  0  0  0  0  0  0  0  0
  185.6970  177.9210  138.1270 C   0  0  2  0  0  3  0  0  0  0  0  0
  185.0110  176.0050  136.8740 O   0  0  0  0  0  1  0  0  0  0  0  0
  184.9170  177.3950  136.9310 C   0  0  0  0  0  2  0  0  0  0  0  0
  185.1120  179.1670  138.6050 N   0  0  0  0  0  2  0  0  0  0  0  0
  184.7970  179.0030  140.0190 C   0  0  0  0  0  2  0  0  0  0  0  0
  180.6190  175.7050  138.3850 C   0  0  0  0  0  1  0  0  0  0  0  0
  181.1390  179.1520  139.1780 O   0  0  0  0  0  0  0  0  0  0  0  0
  182.4480  176.5710  139.5450 C   0  0  0  0  0  2  0  0  0  0  0  0
  182.8820  177.4740  140.7000 C   0  0  0  0  0  2  0  0  0  0  0  0
  182.5010  179.4560  139.0670 C   0  0  0  0  0  2  0  0  0  0  0  0
  180.9660  178.0110  138.3870 C   0  0  0  0  0  2  0  0  0  0  0  0
  181.0460  176.8140  139.2170 N   0  0  0  0  0  0  0  0  0  0  0  0
  183.2900  178.8900  140.2530 C   0  0  2  0  0  3  0  0  0  0  0  0
  2  1  1  0  0  0  0
  4  3  1  6  0  0  0
  4  2  1  0  0  0  0
  5  9  1  0  0  0  0
  6  3  1  0  0  0  0
  7 10  1  6  0  0  0
  7  5  1  0  0  0  0
  7  4  1  0  0  0  0
  8 10  1  0  0  0  0
  9  2  2  0  0  0  0
  9 11  1  0  0  0  0
 10  6  2  0  0  0  0
 11 19  1  0  0  0  0
 12 11  1  0  0  0  0
 12 14  1  0  0  0  0
 13 12  2  0  0  0  0
 15 14  2  0  0  0  0
 16 18  1  0  0  0  0
 17 13  1  0  0  0  0
 17 18  2  0  0  0  0
 18 15  1  0  0  0  0
 19 20  1  0  0  0  0
 21  8  1  0  0  0  0
 22 21  1  0  0  0  0
 23 24  2  0  0  0  0
 24 25  1  0  0  0  0
 24 22  1  0  0  0  0
 25 27  1  6  0  0  0
 25 28  1  0  0  0  0
 26 27  1  0  0  0  0
 28 29  1  0  0  0  0
 30 36  1  0  0  0  0
 32 33  1  0  0  0  0
 34 31  1  0  0  0  0
 34 37  1  0  0  0  0
 35 31  1  0  0  0  0
 35 36  1  0  0  0  0
 36 32  1  0  0  0  0
 37 29  1  6  0  0  0
 37 33  1  0  0  0  0
M  END
>  <MODEL>
5

>  <REMARK>
 VINA RESULT:      -7.6      2.781      5.998
  Name = 
  11 active torsions:
  status: ('A' for Active; 'I' for Inactive)
    1  A    between atoms: C_3  and  N_11
    2  A    between atoms: N_4  and  CA_30
    3  A    between atoms: N_4  and  C_37
    4  A    between atoms: C_7  and  N_11
    5  A    between atoms: N_11  and  C_29
    6  A    between atoms: C_13  and  N_24
    7  A    between atoms: C_13  and  C_34
    8  A    between atoms: C_26  and  CA_30
    9  A    between atoms: CA_30  and  C_33
   10  A    between atoms: C_33  and  C_34
   11  A    between atoms: C_36  and  C_37
                            x       y       z     vdW  Elec       q    Type
                         _______ _______ _______ _____ _____    ______ ____

>  <TORSDO>
F 11

$$$$
=
 OpenBabel11062415293D

 37 40  0  0  1  0  0  0  0  0999 V2000
  186.3660  176.8710  134.9220 O   0  0  0  0  0  1  0  0  0  0  0  0
  186.9910  176.8090  136.1620 C   0  0  0  0  0  0  0  0  0  0  0  0
  187.7630  179.0530  136.7550 N   0  0  0  0  0  2  0  0  0  0  0  0
  187.2320  177.9150  137.0580 C   0  0  2  0  0  3  0  0  0  0  0  0
  188.1720  176.0800  137.9850 N   0  0  0  0  0  2  0  0  0  0  0  0
  188.6980  179.3800  137.7580 N   0  0  0  0  0  0  0  0  0  0  0  0
  187.8870  177.3270  138.1750 C   0  0  1  0  0  3  0  0  0  0  0  0
  189.7140  178.3510  139.6720 N   0  0  0  0  0  2  0  0  0  0  0  0
  187.5110  175.7260  136.7560 C   0  0  0  0  0  0  0  0  0  0  0  0
  188.8050  178.3770  138.5740 C   0  0  0  0  0  0  0  0  0  0  0  0
  187.5580  174.3970  136.1910 N   0  0  0  0  0  0  0  0  0  0  0  0
  186.4620  173.4680  136.3590 C   0  0  0  0  0  0  0  0  0  0  0  0
  186.2400  172.4480  135.4160 C   0  0  0  0  0  3  0  0  0  0  0  0
  185.5770  173.5810  137.4450 C   0  0  0  0  0  3  0  0  0  0  0  0
  184.5130  172.6880  137.5990 C   0  0  0  0  0  3  0  0  0  0  0  0
  183.2830  170.8060  136.8090 F   0  0  0  0  0  0  0  0  0  0  0  0
  185.1750  171.5540  135.5670 C   0  0  0  0  0  3  0  0  0  0  0  0
  184.3130  171.6740  136.6600 C   0  0  0  0  0  0  0  0  0  0  0  0
  188.7690  173.9460  135.5060 C   0  0  0  0  0  2  0  0  0  0  0  0
  189.7120  173.2800  136.4910 C   0  0  0  0  0  1  0  0  0  0  0  0
  189.7930  177.2090  140.5680 C   0  0  0  0  0  2  0  0  0  0  0  0
  189.4550  177.6270  141.9900 C   0  0  0  0  0  2  0  0  0  0  0  0
  190.2000  175.5100  142.6870 O   0  0  0  0  0  0  0  0  0  0  0  0
  190.0500  176.6840  142.9880 C   0  0  0  0  0  0  0  0  0  0  0  0
  190.4410  177.1720  144.3510 C   0  0  2  0  0  3  0  0  0  0  0  0
  191.9570  176.7380  146.1480 O   0  0  0  0  0  1  0  0  0  0  0  0
  191.7440  176.5180  144.7870 C   0  0  0  0  0  2  0  0  0  0  0  0
  189.3810  176.8740  145.3050 N   0  0  0  0  0  2  0  0  0  0  0  0
  188.4410  177.9880  145.2970 C   0  0  0  0  0  2  0  0  0  0  0  0
  183.4760  179.1950  143.0840 C   0  0  0  0  0  1  0  0  0  0  0  0
  184.8100  178.1660  146.2380 O   0  0  0  0  0  0  0  0  0  0  0  0
  185.5970  178.2880  143.4320 C   0  0  0  0  0  2  0  0  0  0  0  0
  186.3760  177.1420  144.0780 C   0  0  0  0  0  2  0  0  0  0  0  0
  186.1730  178.4810  146.2930 C   0  0  0  0  0  2  0  0  0  0  0  0
  184.2880  179.0250  145.2640 C   0  0  0  0  0  2  0  0  0  0  0  0
  184.2430  178.3440  143.9740 N   0  0  0  0  0  0  0  0  0  0  0  0
  186.9960  177.5100  145.4380 C   0  0  2  0  0  3  0  0  0  0  0  0
  1  2  1  0  0  0  0
  2  9  2  0  0  0  0
  3  4  1  0  0  0  0
  3  6  1  0  0  0  0
  4  2  1  6  0  0  0
  4  7  1  0  0  0  0
  6 10  2  0  0  0  0
  7  5  1  6  0  0  0
  7 10  1  0  0  0  0
  8 21  1  0  0  0  0
  9  5  1  0  0  0  0
 10  8  1  0  0  0  0
 11 12  1  0  0  0  0
 11  9  1  0  0  0  0
 12 14  1  0  0  0  0
 13 17  1  0  0  0  0
 13 12  2  0  0  0  0
 14 15  2  0  0  0  0
 17 18  2  0  0  0  0
 18 16  1  0  0  0  0
 18 15  1  0  0  0  0
 19 11  1  0  0  0  0
 19 20  1  0  0  0  0
 21 22  1  0  0  0  0
 22 24  1  0  0  0  0
 23 24  2  0  0  0  0
 24 25  1  0  0  0  0
 25 27  1  1  0  0  0
 25 28  1  0  0  0  0
 27 26  1  0  0  0  0
 29 28  1  0  0  0  0
 30 36  1  0  0  0  0
 31 34  1  0  0  0  0
 32 36  1  0  0  0  0
 32 33  1  0  0  0  0
 33 37  1  0  0  0  0
 35 31  1  0  0  0  0
 36 35  1  0  0  0  0
 37 29  1  6  0  0  0
 37 34  1  0  0  0  0
M  END
>  <MODEL>
6

>  <REMARK>
 VINA RESULT:      -7.5      3.649      9.369
  Name = 
  11 active torsions:
  status: ('A' for Active; 'I' for Inactive)
    1  A    between atoms: C_3  and  N_11
    2  A    between atoms: N_4  and  CA_30
    3  A    between atoms: N_4  and  C_37
    4  A    between atoms: C_7  and  N_11
    5  A    between atoms: N_11  and  C_29
    6  A    between atoms: C_13  and  N_24
    7  A    between atoms: C_13  and  C_34
    8  A    between atoms: C_26  and  CA_30
    9  A    between atoms: CA_30  and  C_33
   10  A    between atoms: C_33  and  C_34
   11  A    between atoms: C_36  and  C_37
                            x       y       z     vdW  Elec       q    Type
                         _______ _______ _______ _____ _____    ______ ____

>  <TORSDO>
F 11

$$$$
=
 OpenBabel11062415293D

 37 40  0  0  1  0  0  0  0  0999 V2000
  190.6730  177.1290  147.2260 O   0  0  0  0  0  1  0  0  0  0  0  0
  190.1990  177.0470  145.9220 C   0  0  0  0  0  0  0  0  0  0  0  0
  192.0400  177.5540  144.3930 N   0  0  0  0  0  2  0  0  0  0  0  0
  190.9930  176.8740  144.7290 C   0  0  2  0  0  3  0  0  0  0  0  0
  188.8430  177.1110  144.0770 N   0  0  0  0  0  2  0  0  0  0  0  0
  191.9280  177.8810  143.0270 N   0  0  0  0  0  0  0  0  0  0  0  0
  190.0420  176.8460  143.6730 C   0  0  1  0  0  3  0  0  0  0  0  0
  190.2990  177.7400  141.2720 N   0  0  0  0  0  2  0  0  0  0  0  0
  188.9260  177.1320  145.5140 C   0  0  0  0  0  0  0  0  0  0  0  0
  190.7630  177.5050  142.6000 C   0  0  0  0  0  0  0  0  0  0  0  0
  187.7830  177.3730  146.3650 N   0  0  0  0  0  0  0  0  0  0  0  0
  186.5280  177.8500  145.8240 C   0  0  0  0  0  0  0  0  0  0  0  0
  186.3590  177.9950  144.4350 C   0  0  0  0  0  3  0  0  0  0  0  0
  185.4650  178.2090  146.6700 C   0  0  0  0  0  3  0  0  0  0  0  0
  184.2580  178.6790  146.1440 C   0  0  0  0  0  3  0  0  0  0  0  0
  182.9320  179.2600  144.2510 F   0  0  0  0  0  0  0  0  0  0  0  0
  185.1530  178.4660  143.9070 C   0  0  0  0  0  3  0  0  0  0  0  0
  184.1020  178.8060  144.7620 C   0  0  0  0  0  0  0  0  0  0  0  0
  187.9140  177.2140  147.8130 C   0  0  0  0  0  2  0  0  0  0  0  0
  188.1070  178.5670  148.4730 C   0  0  0  0  0  1  0  0  0  0  0  0
  188.9880  177.2900  140.8330 C   0  0  0  0  0  2  0  0  0  0  0  0
  188.9900  177.0370  139.3340 C   0  0  0  0  0  2  0  0  0  0  0  0
  188.8510  179.2440  138.5370 O   0  0  0  0  0  0  0  0  0  0  0  0
  188.3120  178.1490  138.5960 C   0  0  0  0  0  0  0  0  0  0  0  0
  186.9770  177.9260  137.9510 C   0  0  2  0  0  3  0  0  0  0  0  0
  187.8690  176.9640  135.9520 O   0  0  0  0  0  1  0  0  0  0  0  0
  187.1040  178.0240  136.4370 C   0  0  0  0  0  2  0  0  0  0  0  0
  186.0210  178.9090  138.4430 N   0  0  0  0  0  2  0  0  0  0  0  0
  185.6660  178.5460  139.8100 C   0  0  0  0  0  2  0  0  0  0  0  0
  180.4480  176.8030  138.9520 C   0  0  0  0  0  1  0  0  0  0  0  0
  182.2130  179.9000  139.2250 O   0  0  0  0  0  0  0  0  0  0  0  0
  182.5850  177.0760  139.8470 C   0  0  0  0  0  2  0  0  0  0  0  0
  183.4360  177.8790  140.8320 C   0  0  0  0  0  2  0  0  0  0  0  0
  183.5730  179.6860  138.9740 C   0  0  0  0  0  2  0  0  0  0  0  0
  181.5660  178.8210  138.6120 C   0  0  0  0  0  2  0  0  0  0  0  0
  181.3250  177.7660  139.5910 N   0  0  0  0  0  0  0  0  0  0  0  0
  184.2510  179.0020  140.1660 C   0  0  2  0  0  3  0  0  0  0  0  0
  2  1  1  0  0  0  0
  4  3  1  6  0  0  0
  4  2  1  0  0  0  0
  5  9  1  0  0  0  0
  6  3  1  0  0  0  0
  7 10  1  6  0  0  0
  7  5  1  0  0  0  0
  7  4  1  0  0  0  0
  8 10  1  0  0  0  0
  9  2  2  0  0  0  0
  9 11  1  0  0  0  0
 10  6  2  0  0  0  0
 11 19  1  0  0  0  0
 12 11  1  0  0  0  0
 12 14  1  0  0  0  0
 13 12  2  0  0  0  0
 15 14  2  0  0  0  0
 16 18  1  0  0  0  0
 17 13  1  0  0  0  0
 17 18  2  0  0  0  0
 18 15  1  0  0  0  0
 19 20  1  0  0  0  0
 21  8  1  0  0  0  0
 22 21  1  0  0  0  0
 23 24  2  0  0  0  0
 24 22  1  0  0  0  0
 25 27  1  6  0  0  0
 25 28  1  0  0  0  0
 25 24  1  0  0  0  0
 26 27  1  0  0  0  0
 28 29  1  0  0  0  0
 30 36  1  0  0  0  0
 32 33  1  0  0  0  0
 34 31  1  0  0  0  0
 34 37  1  0  0  0  0
 35 31  1  0  0  0  0
 35 36  1  0  0  0  0
 36 32  1  0  0  0  0
 37 29  1  6  0  0  0
 37 33  1  0  0  0  0
M  END
>  <MODEL>
7

>  <REMARK>
 VINA RESULT:      -7.5      2.713      5.928
  Name = 
  11 active torsions:
  status: ('A' for Active; 'I' for Inactive)
    1  A    between atoms: C_3  and  N_11
    2  A    between atoms: N_4  and  CA_30
    3  A    between atoms: N_4  and  C_37
    4  A    between atoms: C_7  and  N_11
    5  A    between atoms: N_11  and  C_29
    6  A    between atoms: C_13  and  N_24
    7  A    between atoms: C_13  and  C_34
    8  A    between atoms: C_26  and  CA_30
    9  A    between atoms: CA_30  and  C_33
   10  A    between atoms: C_33  and  C_34
   11  A    between atoms: C_36  and  C_37
                            x       y       z     vdW  Elec       q    Type
                         _______ _______ _______ _____ _____    ______ ____

>  <TORSDO>
F 11

$$$$
=
 OpenBabel11062415293D

 37 40  0  0  1  0  0  0  0  0999 V2000
  189.3600  177.1230  134.8890 O   0  0  0  0  0  1  0  0  0  0  0  0
  189.4700  176.8800  136.2530 C   0  0  0  0  0  0  0  0  0  0  0  0
  188.8030  178.9010  137.4590 N   0  0  0  0  0  2  0  0  0  0  0  0
  188.8230  177.6170  137.3120 C   0  0  2  0  0  3  0  0  0  0  0  0
  190.1500  176.0690  138.2850 N   0  0  0  0  0  2  0  0  0  0  0  0
  189.0550  179.1880  138.8150 N   0  0  0  0  0  0  0  0  0  0  0  0
  189.2530  176.9730  138.5040 C   0  0  1  0  0  3  0  0  0  0  0  0
  189.7160  178.0270  140.8070 N   0  0  0  0  0  2  0  0  0  0  0  0
  190.2090  175.9360  136.8530 C   0  0  0  0  0  0  0  0  0  0  0  0
  189.3480  178.0850  139.4310 C   0  0  0  0  0  0  0  0  0  0  0  0
  191.0840  175.0000  136.1840 N   0  0  0  0  0  0  0  0  0  0  0  0
  192.5160  175.2020  136.1460 C   0  0  0  0  0  0  0  0  0  0  0  0
  193.3420  174.6400  137.1350 C   0  0  0  0  0  3  0  0  0  0  0  0
  193.1090  175.9890  135.1440 C   0  0  0  0  0  3  0  0  0  0  0  0
  194.4920  176.1900  135.1160 C   0  0  0  0  0  3  0  0  0  0  0  0
  196.6410  175.8090  136.0720 F   0  0  0  0  0  0  0  0  0  0  0  0
  194.7260  174.8410  137.1100 C   0  0  0  0  0  3  0  0  0  0  0  0
  195.3010  175.6150  136.0990 C   0  0  0  0  0  0  0  0  0  0  0  0
  190.5090  173.8670  135.4590 C   0  0  0  0  0  2  0  0  0  0  0  0
  189.5690  173.0900  136.3610 C   0  0  0  0  0  1  0  0  0  0  0  0
  190.0270  176.7650  141.4590 C   0  0  0  0  0  2  0  0  0  0  0  0
  189.5930  176.8010  142.9160 C   0  0  0  0  0  2  0  0  0  0  0  0
  191.7020  177.7700  143.2800 O   0  0  0  0  0  0  0  0  0  0  0  0
  190.6790  177.3440  143.7910 C   0  0  0  0  0  0  0  0  0  0  0  0
  190.5180  177.3480  145.2820 C   0  0  2  0  0  3  0  0  0  0  0  0
  191.4160  176.4510  147.3080 O   0  0  0  0  0  1  0  0  0  0  0  0
  191.6150  176.5160  145.9290 C   0  0  0  0  0  2  0  0  0  0  0  0
  189.2070  176.8210  145.6380 N   0  0  0  0  0  2  0  0  0  0  0  0
  188.4330  177.9030  146.2350 C   0  0  0  0  0  2  0  0  0  0  0  0
  184.1740  178.9810  142.8150 C   0  0  0  0  0  1  0  0  0  0  0  0
  184.7590  178.6730  146.3280 O   0  0  0  0  0  0  0  0  0  0  0  0
  186.0420  177.9900  143.8000 C   0  0  0  0  0  2  0  0  0  0  0  0
  186.5160  176.9780  144.8430 C   0  0  0  0  0  2  0  0  0  0  0  0
  186.1210  178.8550  146.5920 C   0  0  0  0  0  2  0  0  0  0  0  0
  184.5510  179.2990  145.0940 C   0  0  0  0  0  2  0  0  0  0  0  0
  184.6360  178.3170  144.0190 N   0  0  0  0  0  0  0  0  0  0  0  0
  186.9320  177.6210  146.1790 C   0  0  2  0  0  3  0  0  0  0  0  0
  1  2  1  0  0  0  0
  2  9  2  0  0  0  0
  3  6  1  0  0  0  0
  4  2  1  6  0  0  0
  4  3  1  0  0  0  0
  4  7  1  0  0  0  0
  6 10  2  0  0  0  0
  7  5  1  6  0  0  0
  7 10  1  0  0  0  0
  8 21  1  0  0  0  0
  9  5  1  0  0  0  0
 10  8  1  0  0  0  0
 11  9  1  0  0  0  0
 12 11  1  0  0  0  0
 12 13  1  0  0  0  0
 14 12  2  0  0  0  0
 15 14  1  0  0  0  0
 15 18  2  0  0  0  0
 16 18  1  0  0  0  0
 17 13  2  0  0  0  0
 18 17  1  0  0  0  0
 19 11  1  0  0  0  0
 19 20  1  0  0  0  0
 21 22  1  0  0  0  0
 22 24  1  0  0  0  0
 23 24  2  0  0  0  0
 24 25  1  0  0  0  0
 25 28  1  0  0  0  0
 25 27  1  1  0  0  0
 27 26  1  0  0  0  0
 28 29  1  0  0  0  0
 30 36  1  0  0  0  0
 31 34  1  0  0  0  0
 32 36  1  0  0  0  0
 32 33  1  0  0  0  0
 33 37  1  0  0  0  0
 35 31  1  0  0  0  0
 36 35  1  0  0  0  0
 37 29  1  6  0  0  0
 37 34  1  0  0  0  0
M  END
>  <MODEL>
8

>  <REMARK>
 VINA RESULT:      -7.4      2.824      9.086
  Name = 
  11 active torsions:
  status: ('A' for Active; 'I' for Inactive)
    1  A    between atoms: C_3  and  N_11
    2  A    between atoms: N_4  and  CA_30
    3  A    between atoms: N_4  and  C_37
    4  A    between atoms: C_7  and  N_11
    5  A    between atoms: N_11  and  C_29
    6  A    between atoms: C_13  and  N_24
    7  A    between atoms: C_13  and  C_34
    8  A    between atoms: C_26  and  CA_30
    9  A    between atoms: CA_30  and  C_33
   10  A    between atoms: C_33  and  C_34
   11  A    between atoms: C_36  and  C_37
                            x       y       z     vdW  Elec       q    Type
                         _______ _______ _______ _____ _____    ______ ____

>  <TORSDO>
F 11

$$$$
=
 OpenBabel11062415293D

 37 40  0  0  1  0  0  0  0  0999 V2000
  181.4100  179.1010  143.2770 O   0  0  0  0  0  1  0  0  0  0  0  0
  182.3320  178.7990  142.2820 C   0  0  0  0  0  0  0  0  0  0  0  0
  184.5610  179.4230  143.0740 N   0  0  0  0  0  2  0  0  0  0  0  0
  183.7550  178.6250  142.4550 C   0  0  2  0  0  3  0  0  0  0  0  0
  183.3170  178.4390  140.2460 N   0  0  0  0  0  2  0  0  0  0  0  0
  185.7180  179.5730  142.2850 N   0  0  0  0  0  0  0  0  0  0  0  0
  184.2340  178.3270  141.1500 C   0  0  1  0  0  3  0  0  0  0  0  0
  186.4900  178.9780  140.0940 N   0  0  0  0  0  2  0  0  0  0  0  0
  182.0910  178.6320  140.9750 C   0  0  0  0  0  0  0  0  0  0  0  0
  185.5350  178.9700  141.1520 C   0  0  0  0  0  0  0  0  0  0  0  0
  180.8060  178.7800  140.3300 N   0  0  0  0  0  0  0  0  0  0  0  0
  180.3870  180.0460  139.7660 C   0  0  0  0  0  0  0  0  0  0  0  0
  181.0590  180.5900  138.6570 C   0  0  0  0  0  3  0  0  0  0  0  0
  179.3260  180.7730  140.3310 C   0  0  0  0  0  3  0  0  0  0  0  0
  178.9310  182.0000  139.7900 C   0  0  0  0  0  3  0  0  0  0  0  0
  179.2170  183.7100  138.1550 F   0  0  0  0  0  0  0  0  0  0  0  0
  180.6660  181.8180  138.1150 C   0  0  0  0  0  3  0  0  0  0  0  0
  179.6000  182.5220  138.6810 C   0  0  0  0  0  0  0  0  0  0  0  0
  179.8720  177.6550  140.3150 C   0  0  0  0  0  2  0  0  0  0  0  0
  180.2130  176.7050  139.1810 C   0  0  0  0  0  1  0  0  0  0  0  0
  186.2460  178.2780  138.8430 C   0  0  0  0  0  2  0  0  0  0  0  0
  187.4750  177.4810  138.4340 C   0  0  0  0  0  2  0  0  0  0  0  0
  188.8370  179.3520  138.0290 O   0  0  0  0  0  0  0  0  0  0  0  0
  188.7260  178.2840  138.6110 C   0  0  0  0  0  0  0  0  0  0  0  0
  189.8360  177.7750  139.4790 C   0  0  2  0  0  3  0  0  0  0  0  0
  190.3630  175.6030  138.6300 O   0  0  0  0  0  1  0  0  0  0  0  0
  190.7970  176.9280  138.6570 C   0  0  0  0  0  2  0  0  0  0  0  0
  189.2840  176.9920  140.5760 N   0  0  0  0  0  2  0  0  0  0  0  0
  189.2480  177.8400  141.7620 C   0  0  0  0  0  2  0  0  0  0  0  0
  187.1100  177.8310  146.9030 C   0  0  0  0  0  1  0  0  0  0  0  0
  190.2330  177.1210  145.3140 O   0  0  0  0  0  0  0  0  0  0  0  0
  187.4200  177.4610  144.6200 C   0  0  0  0  0  2  0  0  0  0  0  0
  188.0410  176.5320  143.5770 C   0  0  0  0  0  2  0  0  0  0  0  0
  190.2770  177.7560  144.0670 C   0  0  0  0  0  2  0  0  0  0  0  0
  189.2770  177.8380  146.0420 C   0  0  0  0  0  2  0  0  0  0  0  0
  187.9780  177.1810  145.9400 N   0  0  0  0  0  0  0  0  0  0  0  0
  189.3990  177.0240  143.0450 C   0  0  2  0  0  3  0  0  0  0  0  0
  2  1  1  0  0  0  0
  4  2  1  6  0  0  0
  4  3  1  0  0  0  0
  5  9  1  0  0  0  0
  6  3  1  0  0  0  0
  7  5  1  6  0  0  0
  7 10  1  0  0  0  0
  7  4  1  0  0  0  0
  8 10  1  0  0  0  0
  9  2  2  0  0  0  0
 10  6  2  0  0  0  0
 11  9  1  0  0  0  0
 12 11  1  0  0  0  0
 12 14  1  0  0  0  0
 13 12  2  0  0  0  0
 15 14  2  0  0  0  0
 16 18  1  0  0  0  0
 17 13  1  0  0  0  0
 17 18  2  0  0  0  0
 18 15  1  0  0  0  0
 19 11  1  0  0  0  0
 20 19  1  0  0  0  0
 21  8  1  0  0  0  0
 22 24  1  0  0  0  0
 22 21  1  0  0  0  0
 23 24  2  0  0  0  0
 24 25  1  0  0  0  0
 25 27  1  6  0  0  0
 25 28  1  0  0  0  0
 26 27  1  0  0  0  0
 28 29  1  0  0  0  0
 31 35  1  0  0  0  0
 32 36  1  0  0  0  0
 33 32  1  0  0  0  0
 34 31  1  0  0  0  0
 36 35  1  0  0  0  0
 36 30  1  0  0  0  0
 37 29  1  6  0  0  0
 37 33  1  0  0  0  0
 37 34  1  0  0  0  0
M  END
>  <MODEL>
9

>  <REMARK>
 VINA RESULT:      -7.3      3.885      8.298
  Name = 
  11 active torsions:
  status: ('A' for Active; 'I' for Inactive)
    1  A    between atoms: C_3  and  N_11
    2  A    between atoms: N_4  and  CA_30
    3  A    between atoms: N_4  and  C_37
    4  A    between atoms: C_7  and  N_11
    5  A    between atoms: N_11  and  C_29
    6  A    between atoms: C_13  and  N_24
    7  A    between atoms: C_13  and  C_34
    8  A    between atoms: C_26  and  CA_30
    9  A    between atoms: CA_30  and  C_33
   10  A    between atoms: C_33  and  C_34
   11  A    between atoms: C_36  and  C_37
                            x       y       z     vdW  Elec       q    Type
                         _______ _______ _______ _____ _____    ______ ____

>  <TORSDO>
F 11

$$$$
