=
 OpenBabel11062417183D

 26 29  0  0  1  0  0  0  0  0999 V2000
  187.3750  178.0290  142.4070 N   0  0  0  0  0  0  0  0  0  0  0  0
  187.3290  178.3920  141.1030 C   0  0  0  0  0  3  0  0  0  0  0  0
  189.3580  176.7380  142.0370 C   0  0  0  0  0  0  0  0  0  0  0  0
  189.3440  177.1140  140.6720 C   0  0  0  0  0  0  0  0  0  0  0  0
  190.4560  175.8840  142.5960 C   0  0  0  0  0  1  0  0  0  0  0  0
  188.3510  177.2210  142.8930 C   0  0  0  0  0  0  0  0  0  0  0  0
  188.2970  177.9420  140.2000 C   0  0  0  0  0  0  0  0  0  0  0  0
  188.7690  179.0720  136.6610 C   0  0  0  0  0  2  0  0  0  0  0  0
  187.8040  177.9060  136.5030 C   0  0  0  0  0  2  0  0  0  0  0  0
  185.8740  178.0160  138.0580 C   0  0  0  0  0  1  0  0  0  0  0  0
  188.1670  178.2920  138.8130 N   0  0  0  0  0  0  0  0  0  0  0  0
  189.1430  179.1200  138.1290 C   0  0  0  0  0  2  0  0  0  0  0  0
  187.3120  177.5600  137.8950 C   0  0  2  0  0  3  0  0  0  0  0  0
  191.5690  175.6800  138.3060 C   0  0  0  0  0  0  0  0  0  0  0  0
  190.3460  175.7040  138.8670 N   0  0  0  0  0  0  0  0  0  0  0  0
  191.9270  174.7650  137.2780 N   0  0  0  0  0  1  0  0  0  0  0  0
  191.7150  177.2440  139.7400 C   0  0  0  0  0  3  0  0  0  0  0  0
  192.4260  176.5910  138.8030 N   0  0  0  0  0  2  0  0  0  0  0  0
  190.4460  176.6980  139.7680 C   0  0  0  0  0  0  0  0  0  0  0  0
  188.3130  176.8440  144.3410 C   0  0  0  0  0  2  0  0  0  0  0  0
  188.5740  178.0180  145.1710 N   0  0  0  0  0  0  0  0  0  0  0  0
  190.1640  177.0310  147.4210 C   0  0  0  0  0  2  0  0  0  0  0  0
  190.0210  178.2690  145.2600 C   0  0  0  0  0  2  0  0  0  0  0  0
  190.7620  177.1720  146.0300 C   0  0  0  0  0  2  0  0  0  0  0  0
  187.9840  177.8280  146.5040 C   0  0  0  0  0  2  0  0  0  0  0  0
  188.6800  176.7230  147.3040 C   0  0  0  0  0  2  0  0  0  0  0  0
  1  6  1  0  0  0  0
  2  1  2  0  0  0  0
  3  5  1  0  0  0  0
  3  6  2  0  0  0  0
  4  3  1  0  0  0  0
  6 20  1  0  0  0  0
  7  4  2  0  0  0  0
  7  2  1  0  0  0  0
  8 12  1  0  0  0  0
  9  8  1  0  0  0  0
  9 13  1  0  0  0  0
 11  7  1  0  0  0  0
 12 11  1  0  0  0  0
 13 10  1  6  0  0  0
 13 11  1  0  0  0  0
 14 18  1  0  0  0  0
 14 15  2  0  0  0  0
 15 19  1  0  0  0  0
 16 14  1  0  0  0  0
 17 19  2  0  0  0  0
 18 17  1  0  0  0  0
 19  4  1  0  0  0  0
 20 21  1  0  0  0  0
 21 23  1  0  0  0  0
 21 25  1  0  0  0  0
 23 24  1  0  0  0  0
 24 22  1  0  0  0  0
 25 26  1  0  0  0  0
 26 22  1  0  0  0  0
M  END
>  <MODEL>
1

>  <REMARK>
 VINA RESULT:      -7.7      0.000      0.000
  Name = 
  4 active torsions:
  status: ('A' for Active; 'I' for Inactive)
    1  A    between atoms: N_9  and  C_25
    2  A    between atoms: N_10  and  C_22
    3  A    between atoms: C_12  and  C_19
    4  A    between atoms: C_22  and  C_23
                            x       y       z     vdW  Elec       q    Type
                         _______ _______ _______ _____ _____    ______ ____

>  <TORSDO>
F 4

$$$$
=
 OpenBabel11062417183D

 26 29  0  0  1  0  0  0  0  0999 V2000
  189.0760  177.5450  140.1580 N   0  0  0  0  0  0  0  0  0  0  0  0
  188.6150  177.3590  138.8980 C   0  0  0  0  0  3  0  0  0  0  0  0
  186.9960  178.5200  140.8350 C   0  0  0  0  0  0  0  0  0  0  0  0
  186.4810  178.3230  139.5310 C   0  0  0  0  0  0  0  0  0  0  0  0
  186.1460  179.1020  141.9250 C   0  0  0  0  0  1  0  0  0  0  0  0
  188.3110  178.1120  141.1250 C   0  0  0  0  0  0  0  0  0  0  0  0
  187.3190  177.7480  138.5450 C   0  0  0  0  0  0  0  0  0  0  0  0
  186.6420  178.0800  134.8760 C   0  0  0  0  0  2  0  0  0  0  0  0
  186.7800  176.5740  135.0450 C   0  0  0  0  0  2  0  0  0  0  0  0
  185.4370  175.6730  136.9270 C   0  0  0  0  0  1  0  0  0  0  0  0
  186.8980  177.5980  137.1790 N   0  0  0  0  0  0  0  0  0  0  0  0
  186.9580  178.6910  136.2270 C   0  0  0  0  0  2  0  0  0  0  0  0
  186.7620  176.3030  136.5380 C   0  0  2  0  0  3  0  0  0  0  0  0
  183.3010  179.7210  138.8000 C   0  0  0  0  0  0  0  0  0  0  0  0
  184.6150  179.9070  139.0250 N   0  0  0  0  0  0  0  0  0  0  0  0
  182.4060  180.7940  138.5360 N   0  0  0  0  0  1  0  0  0  0  0  0
  184.0300  177.7490  139.1240 C   0  0  0  0  0  3  0  0  0  0  0  0
  182.9050  178.4360  138.8510 N   0  0  0  0  0  2  0  0  0  0  0  0
  185.0680  178.6560  139.2240 C   0  0  0  0  0  0  0  0  0  0  0  0
  188.9060  178.3090  142.4840 C   0  0  0  0  0  2  0  0  0  0  0  0
  189.1820  177.0140  143.1020 N   0  0  0  0  0  0  0  0  0  0  0  0
  188.5270  177.3570  145.9340 C   0  0  0  0  0  2  0  0  0  0  0  0
  187.9510  176.4520  143.6810 C   0  0  0  0  0  2  0  0  0  0  0  0
  187.4390  177.2640  144.8750 C   0  0  0  0  0  2  0  0  0  0  0  0
  190.2310  177.1600  144.1210 C   0  0  0  0  0  2  0  0  0  0  0  0
  189.7700  177.9860  145.3260 C   0  0  0  0  0  2  0  0  0  0  0  0
  1  6  1  0  0  0  0
  2  1  2  0  0  0  0
  3  6  2  0  0  0  0
  3  5  1  0  0  0  0
  4  3  1  0  0  0  0
  6 20  1  0  0  0  0
  7  2  1  0  0  0  0
  7  4  2  0  0  0  0
  8  9  1  0  0  0  0
  8 12  1  0  0  0  0
  9 13  1  0  0  0  0
 11  7  1  0  0  0  0
 12 11  1  0  0  0  0
 13 10  1  1  0  0  0
 13 11  1  0  0  0  0
 14 18  1  0  0  0  0
 14 15  2  0  0  0  0
 15 19  1  0  0  0  0
 16 14  1  0  0  0  0
 17 19  2  0  0  0  0
 18 17  1  0  0  0  0
 19  4  1  0  0  0  0
 20 21  1  0  0  0  0
 21 23  1  0  0  0  0
 21 25  1  0  0  0  0
 23 24  1  0  0  0  0
 24 22  1  0  0  0  0
 25 26  1  0  0  0  0
 26 22  1  0  0  0  0
M  END
>  <MODEL>
2

>  <REMARK>
 VINA RESULT:      -7.2      2.397      4.881
  Name = 
  4 active torsions:
  status: ('A' for Active; 'I' for Inactive)
    1  A    between atoms: N_9  and  C_25
    2  A    between atoms: N_10  and  C_22
    3  A    between atoms: C_12  and  C_19
    4  A    between atoms: C_22  and  C_23
                            x       y       z     vdW  Elec       q    Type
                         _______ _______ _______ _____ _____    ______ ____

>  <TORSDO>
F 4

$$$$
=
 OpenBabel11062417183D

 26 29  0  0  1  0  0  0  0  0999 V2000
  187.9110  178.4050  141.0130 N   0  0  0  0  0  0  0  0  0  0  0  0
  187.7440  178.2450  139.6780 C   0  0  0  0  0  3  0  0  0  0  0  0
  189.9780  177.1970  140.9580 C   0  0  0  0  0  0  0  0  0  0  0  0
  189.8390  177.0280  139.5590 C   0  0  0  0  0  0  0  0  0  0  0  0
  191.1860  176.6880  141.6850 C   0  0  0  0  0  1  0  0  0  0  0  0
  188.9880  177.9030  141.6670 C   0  0  0  0  0  0  0  0  0  0  0  0
  188.6890  177.5490  138.9180 C   0  0  0  0  0  0  0  0  0  0  0  0
  188.7210  177.4750  135.1730 C   0  0  0  0  0  2  0  0  0  0  0  0
  188.1970  176.0890  135.5210 C   0  0  0  0  0  2  0  0  0  0  0  0
  186.3570  176.1270  137.1840 C   0  0  0  0  0  1  0  0  0  0  0  0
  188.4350  177.3400  137.5190 N   0  0  0  0  0  0  0  0  0  0  0  0
  189.0730  178.1400  136.4900 C   0  0  0  0  0  2  0  0  0  0  0  0
  187.8630  176.1110  137.0000 C   0  0  2  0  0  3  0  0  0  0  0  0
  192.0400  174.9430  137.7130 C   0  0  0  0  0  0  0  0  0  0  0  0
  190.8690  175.0930  138.3580 N   0  0  0  0  0  0  0  0  0  0  0  0
  192.4300  173.7210  137.0980 N   0  0  0  0  0  1  0  0  0  0  0  0
  192.1000  176.9620  138.3810 C   0  0  0  0  0  3  0  0  0  0  0  0
  192.8150  176.0440  137.7040 N   0  0  0  0  0  2  0  0  0  0  0  0
  190.9130  176.3720  138.7730 C   0  0  0  0  0  0  0  0  0  0  0  0
  189.0810  178.0990  143.1480 C   0  0  0  0  0  2  0  0  0  0  0  0
  188.7150  176.8660  143.8410 N   0  0  0  0  0  0  0  0  0  0  0  0
  187.5710  177.7280  146.3930 C   0  0  0  0  0  2  0  0  0  0  0  0
  187.2640  176.8290  144.0860 C   0  0  0  0  0  2  0  0  0  0  0  0
  186.8100  177.8960  145.0870 C   0  0  0  0  0  2  0  0  0  0  0  0
  189.4700  176.7560  145.0980 C   0  0  0  0  0  2  0  0  0  0  0  0
  189.0640  177.8190  146.1230 C   0  0  0  0  0  2  0  0  0  0  0  0
  1  6  1  0  0  0  0
  2  1  2  0  0  0  0
  3  6  2  0  0  0  0
  3  5  1  0  0  0  0
  4  3  1  0  0  0  0
  6 20  1  0  0  0  0
  7  4  2  0  0  0  0
  7  2  1  0  0  0  0
  8  9  1  0  0  0  0
  8 12  1  0  0  0  0
  9 13  1  0  0  0  0
 11  7  1  0  0  0  0
 12 11  1  0  0  0  0
 13 10  1  6  0  0  0
 13 11  1  0  0  0  0
 14 15  2  0  0  0  0
 15 19  1  0  0  0  0
 16 14  1  0  0  0  0
 17 19  2  0  0  0  0
 18 14  1  0  0  0  0
 18 17  1  0  0  0  0
 19  4  1  0  0  0  0
 20 21  1  0  0  0  0
 21 23  1  0  0  0  0
 21 25  1  0  0  0  0
 23 24  1  0  0  0  0
 24 22  1  0  0  0  0
 25 26  1  0  0  0  0
 26 22  1  0  0  0  0
M  END
>  <MODEL>
3

>  <REMARK>
 VINA RESULT:      -7.0      1.384      1.932
  Name = 
  4 active torsions:
  status: ('A' for Active; 'I' for Inactive)
    1  A    between atoms: N_9  and  C_25
    2  A    between atoms: N_10  and  C_22
    3  A    between atoms: C_12  and  C_19
    4  A    between atoms: C_22  and  C_23
                            x       y       z     vdW  Elec       q    Type
                         _______ _______ _______ _____ _____    ______ ____

>  <TORSDO>
F 4

$$$$
=
 OpenBabel11062417183D

 26 29  0  0  1  0  0  0  0  0999 V2000
  187.0430  178.6310  140.6000 N   0  0  0  0  0  0  0  0  0  0  0  0
  188.2080  178.1550  141.1010 C   0  0  0  0  0  3  0  0  0  0  0  0
  186.0070  178.5300  142.7560 C   0  0  0  0  0  0  0  0  0  0  0  0
  187.2170  178.0460  143.3120 C   0  0  0  0  0  0  0  0  0  0  0  0
  184.8080  178.7900  143.6170 C   0  0  0  0  0  1  0  0  0  0  0  0
  185.9500  178.8220  141.3810 C   0  0  0  0  0  0  0  0  0  0  0  0
  188.3280  177.8410  142.4580 C   0  0  0  0  0  0  0  0  0  0  0  0
  191.1720  175.6260  143.4740 C   0  0  0  0  0  2  0  0  0  0  0  0
  191.8930  176.8620  142.9560 C   0  0  0  0  0  2  0  0  0  0  0  0
  190.9970  178.9800  143.8880 C   0  0  0  0  0  1  0  0  0  0  0  0
  189.5590  177.2710  142.9320 N   0  0  0  0  0  0  0  0  0  0  0  0
  189.6960  175.8540  143.2170 C   0  0  0  0  0  2  0  0  0  0  0  0
  190.8390  177.9410  142.7930 C   0  0  2  0  0  3  0  0  0  0  0  0
  188.0520  177.8120  146.7540 C   0  0  0  0  0  0  0  0  0  0  0  0
  188.3650  178.2530  145.5220 N   0  0  0  0  0  0  0  0  0  0  0  0
  188.8780  178.0440  147.8890 N   0  0  0  0  0  1  0  0  0  0  0  0
  186.4300  177.1290  145.5580 C   0  0  0  0  0  3  0  0  0  0  0  0
  186.8940  177.1280  146.8220 N   0  0  0  0  0  2  0  0  0  0  0  0
  187.3340  177.8220  144.7740 C   0  0  0  0  0  0  0  0  0  0  0  0
  184.6930  179.3230  140.7420 C   0  0  0  0  0  2  0  0  0  0  0  0
  184.1400  178.3020  139.8560 N   0  0  0  0  0  0  0  0  0  0  0  0
  181.2750  178.8830  139.7070 C   0  0  0  0  0  2  0  0  0  0  0  0
  183.5420  178.9270  138.6660 C   0  0  0  0  0  2  0  0  0  0  0  0
  182.2990  179.7570  139.0000 C   0  0  0  0  0  2  0  0  0  0  0  0
  183.1520  177.4920  140.5840 C   0  0  0  0  0  2  0  0  0  0  0  0
  181.8990  178.2880  140.9590 C   0  0  0  0  0  2  0  0  0  0  0  0
  1  2  2  0  0  0  0
  1  6  1  0  0  0  0
  2  7  1  0  0  0  0
  3  4  1  0  0  0  0
  3  5  1  0  0  0  0
  4 19  1  0  0  0  0
  6  3  2  0  0  0  0
  7 11  1  0  0  0  0
  7  4  2  0  0  0  0
  9  8  1  0  0  0  0
 11 12  1  0  0  0  0
 12  8  1  0  0  0  0
 13 11  1  0  0  0  0
 13  9  1  0  0  0  0
 13 10  1  1  0  0  0
 14 18  1  0  0  0  0
 14 16  1  0  0  0  0
 15 14  2  0  0  0  0
 17 18  1  0  0  0  0
 19 15  1  0  0  0  0
 19 17  2  0  0  0  0
 20  6  1  0  0  0  0
 21 25  1  0  0  0  0
 21 20  1  0  0  0  0
 22 26  1  0  0  0  0
 23 24  1  0  0  0  0
 23 21  1  0  0  0  0
 24 22  1  0  0  0  0
 25 26  1  0  0  0  0
M  END
>  <MODEL>
4

>  <REMARK>
 VINA RESULT:      -6.9      3.039      7.387
  Name = 
  4 active torsions:
  status: ('A' for Active; 'I' for Inactive)
    1  A    between atoms: N_9  and  C_25
    2  A    between atoms: N_10  and  C_22
    3  A    between atoms: C_12  and  C_19
    4  A    between atoms: C_22  and  C_23
                            x       y       z     vdW  Elec       q    Type
                         _______ _______ _______ _____ _____    ______ ____

>  <TORSDO>
F 4

$$$$
=
 OpenBabel11062417183D

 26 29  0  0  1  0  0  0  0  0999 V2000
  190.4210  176.8110  142.4370 N   0  0  0  0  0  0  0  0  0  0  0  0
  190.9690  176.3920  141.2710 C   0  0  0  0  0  3  0  0  0  0  0  0
  188.7560  178.0740  141.2660 C   0  0  0  0  0  0  0  0  0  0  0  0
  189.2970  177.6390  140.0320 C   0  0  0  0  0  0  0  0  0  0  0  0
  187.5370  178.9440  141.3150 C   0  0  0  0  0  1  0  0  0  0  0  0
  189.3430  177.6340  142.4680 C   0  0  0  0  0  0  0  0  0  0  0  0
  190.4360  176.7970  140.0430 C   0  0  0  0  0  0  0  0  0  0  0  0
  192.7790  176.2090  137.1810 C   0  0  0  0  0  2  0  0  0  0  0  0
  192.0780  174.8640  137.3080 C   0  0  0  0  0  2  0  0  0  0  0  0
  189.6090  175.0560  137.4460 C   0  0  0  0  0  1  0  0  0  0  0  0
  191.0940  176.3870  138.8330 N   0  0  0  0  0  0  0  0  0  0  0  0
  192.2750  177.0630  138.3280 C   0  0  0  0  0  2  0  0  0  0  0  0
  190.9010  175.0760  138.2410 C   0  0  2  0  0  3  0  0  0  0  0  0
  187.3310  178.0450  137.1050 C   0  0  0  0  0  0  0  0  0  0  0  0
  187.5450  177.3990  138.2660 N   0  0  0  0  0  0  0  0  0  0  0  0
  186.2520  177.7270  136.2350 N   0  0  0  0  0  1  0  0  0  0  0  0
  189.0670  178.9950  137.8840 C   0  0  0  0  0  3  0  0  0  0  0  0
  188.2250  179.0150  136.8350 N   0  0  0  0  0  0  0  0  0  0  0  0
  188.6410  178.0080  138.7540 C   0  0  2  0  0  3  0  0  0  0  0  0
  188.8170  178.0740  143.7980 C   0  0  0  0  0  2  0  0  0  0  0  0
  188.3310  176.9200  144.5510 N   0  0  0  0  0  0  0  0  0  0  0  0
  187.0730  178.0370  146.9460 C   0  0  0  0  0  2  0  0  0  0  0  0
  186.8670  176.9820  144.6940 C   0  0  0  0  0  2  0  0  0  0  0  0
  186.4130  178.1460  145.5800 C   0  0  0  0  0  2  0  0  0  0  0  0
  188.9920  176.8640  145.8620 C   0  0  0  0  0  2  0  0  0  0  0  0
  188.5830  178.0240  146.7770 C   0  0  0  0  0  2  0  0  0  0  0  0
  1  6  1  0  0  0  0
  2  1  2  0  0  0  0
  3  5  1  0  0  0  0
  3  6  2  0  0  0  0
  4  7  2  0  0  0  0
  4  3  1  0  0  0  0
  6 20  1  0  0  0  0
  7  2  1  0  0  0  0
  8  9  1  0  0  0  0
  8 12  1  0  0  0  0
  9 13  1  0  0  0  0
 11  7  1  0  0  0  0
 12 11  1  0  0  0  0
 13 10  1  6  0  0  0
 13 11  1  0  0  0  0
 14 15  2  0  0  0  0
 15 19  1  0  0  0  0
 16 14  1  0  0  0  0
 17 19  1  0  0  0  0
 18 14  1  0  0  0  0
 18 17  2  0  0  0  0
 19  4  1  6  0  0  0
 20 21  1  0  0  0  0
 21 23  1  0  0  0  0
 21 25  1  0  0  0  0
 23 24  1  0  0  0  0
 24 22  1  0  0  0  0
 25 26  1  0  0  0  0
 26 22  1  0  0  0  0
M  END
>  <MODEL>
5

>  <REMARK>
 VINA RESULT:      -6.7      1.551      3.697
  Name = 
  4 active torsions:
  status: ('A' for Active; 'I' for Inactive)
    1  A    between atoms: N_9  and  C_25
    2  A    between atoms: N_10  and  C_22
    3  A    between atoms: C_12  and  C_19
    4  A    between atoms: C_22  and  C_23
                            x       y       z     vdW  Elec       q    Type
                         _______ _______ _______ _____ _____    ______ ____

>  <TORSDO>
F 4

$$$$
=
 OpenBabel11062417183D

 26 29  0  0  1  0  0  0  0  0999 V2000
  190.7250  176.4690  140.6610 N   0  0  0  0  0  0  0  0  0  0  0  0
  190.9090  175.9980  139.4040 C   0  0  0  0  0  3  0  0  0  0  0  0
  188.7130  177.5910  140.0080 C   0  0  0  0  0  0  0  0  0  0  0  0
  188.8690  177.1000  138.6900 C   0  0  0  0  0  0  0  0  0  0  0  0
  187.5220  178.4170  140.3930 C   0  0  0  0  0  1  0  0  0  0  0  0
  189.6660  177.2510  140.9870 C   0  0  0  0  0  0  0  0  0  0  0  0
  190.0010  176.3040  138.3860 C   0  0  0  0  0  0  0  0  0  0  0  0
  191.2200  175.7770  134.8840 C   0  0  0  0  0  2  0  0  0  0  0  0
  191.0690  174.3500  135.3930 C   0  0  0  0  0  2  0  0  0  0  0  0
  188.8850  173.9300  136.4920 C   0  0  0  0  0  1  0  0  0  0  0  0
  190.2740  175.8440  137.0520 N   0  0  0  0  0  0  0  0  0  0  0  0
  190.9210  176.6830  136.0610 C   0  0  0  0  0  2  0  0  0  0  0  0
  190.3010  174.4360  136.6980 C   0  0  2  0  0  3  0  0  0  0  0  0
  186.1280  177.1850  136.4360 C   0  0  0  0  0  0  0  0  0  0  0  0
  186.7640  176.5710  137.4500 N   0  0  0  0  0  0  0  0  0  0  0  0
  184.9220  176.6880  135.8700 N   0  0  0  0  0  1  0  0  0  0  0  0
  187.8230  178.4240  136.7780 C   0  0  0  0  0  3  0  0  0  0  0  0
  186.7320  178.3060  135.9990 N   0  0  0  0  0  0  0  0  0  0  0  0
  187.8310  177.3630  137.6630 C   0  0  2  0  0  3  0  0  0  0  0  0
  189.5530  177.7540  142.3920 C   0  0  0  0  0  2  0  0  0  0  0  0
  189.4150  176.6300  143.3160 N   0  0  0  0  0  0  0  0  0  0  0  0
  187.7520  177.6350  145.5050 C   0  0  0  0  0  2  0  0  0  0  0  0
  188.0000  176.2470  143.4460 C   0  0  0  0  0  2  0  0  0  0  0  0
  187.1610  177.3260  144.1390 C   0  0  0  0  0  2  0  0  0  0  0  0
  189.9930  176.9830  144.6210 C   0  0  0  0  0  2  0  0  0  0  0  0
  189.1970  178.0760  145.3410 C   0  0  0  0  0  2  0  0  0  0  0  0
  1  6  1  0  0  0  0
  2  1  2  0  0  0  0
  3  5  1  0  0  0  0
  3  6  2  0  0  0  0
  4  3  1  0  0  0  0
  6 20  1  0  0  0  0
  7  4  2  0  0  0  0
  7  2  1  0  0  0  0
  8  9  1  0  0  0  0
  8 12  1  0  0  0  0
  9 13  1  0  0  0  0
 11  7  1  0  0  0  0
 12 11  1  0  0  0  0
 13 10  1  6  0  0  0
 13 11  1  0  0  0  0
 14 15  2  0  0  0  0
 15 19  1  0  0  0  0
 16 14  1  0  0  0  0
 17 19  1  0  0  0  0
 18 14  1  0  0  0  0
 18 17  2  0  0  0  0
 19  4  1  6  0  0  0
 20 21  1  0  0  0  0
 21 23  1  0  0  0  0
 21 25  1  0  0  0  0
 23 24  1  0  0  0  0
 24 22  1  0  0  0  0
 25 26  1  0  0  0  0
 26 22  1  0  0  0  0
M  END
>  <MODEL>
6

>  <REMARK>
 VINA RESULT:      -6.6      2.143      4.169
  Name = 
  4 active torsions:
  status: ('A' for Active; 'I' for Inactive)
    1  A    between atoms: N_9  and  C_25
    2  A    between atoms: N_10  and  C_22
    3  A    between atoms: C_12  and  C_19
    4  A    between atoms: C_22  and  C_23
                            x       y       z     vdW  Elec       q    Type
                         _______ _______ _______ _____ _____    ______ ____

>  <TORSDO>
F 4

$$$$
=
 OpenBabel11062417183D

 26 29  0  0  1  0  0  0  0  0999 V2000
  186.6940  178.8010  142.0620 N   0  0  0  0  0  0  0  0  0  0  0  0
  185.5420  178.9430  141.3630 C   0  0  0  0  0  3  0  0  0  0  0  0
  187.8470  178.0220  140.1140 C   0  0  0  0  0  0  0  0  0  0  0  0
  186.6630  178.1750  139.3540 C   0  0  0  0  0  0  0  0  0  0  0  0
  189.1260  177.5720  139.4740 C   0  0  0  0  0  1  0  0  0  0  0  0
  187.8350  178.3510  141.4810 C   0  0  0  0  0  0  0  0  0  0  0  0
  185.4870  178.6280  140.0020 C   0  0  0  0  0  0  0  0  0  0  0  0
  182.5040  179.6240  137.9690 C   0  0  0  0  0  2  0  0  0  0  0  0
  182.5640  178.1200  137.7420 C   0  0  0  0  0  2  0  0  0  0  0  0
  182.8070  176.8230  139.8430 C   0  0  0  0  0  1  0  0  0  0  0  0
  184.2270  178.7230  139.3180 N   0  0  0  0  0  0  0  0  0  0  0  0
  183.7260  179.9800  138.7920 C   0  0  0  0  0  2  0  0  0  0  0  0
  183.5530  177.5690  138.7520 C   0  0  2  0  0  3  0  0  0  0  0  0
  186.5510  176.9830  136.0120 C   0  0  0  0  0  0  0  0  0  0  0  0
  186.4100  176.7340  137.3270 N   0  0  0  0  0  0  0  0  0  0  0  0
  186.3630  175.9860  135.0160 N   0  0  0  0  0  1  0  0  0  0  0  0
  186.9700  178.8620  136.9160 C   0  0  0  0  0  3  0  0  0  0  0  0
  186.8890  178.2530  135.7200 N   0  0  0  0  0  0  0  0  0  0  0  0
  186.6720  177.9280  137.8910 C   0  0  2  0  0  3  0  0  0  0  0  0
  189.0570  178.1960  142.3320 C   0  0  0  0  0  2  0  0  0  0  0  0
  188.9860  176.9470  143.0870 N   0  0  0  0  0  0  0  0  0  0  0  0
  191.3060  176.9950  144.8710 C   0  0  0  0  0  2  0  0  0  0  0  0
  188.8460  177.2260  144.5240 C   0  0  0  0  0  2  0  0  0  0  0  0
  190.0950  177.8810  145.1210 C   0  0  0  0  0  2  0  0  0  0  0  0
  190.1800  176.1330  142.8170 C   0  0  0  0  0  2  0  0  0  0  0  0
  191.4600  176.7620  143.3780 C   0  0  0  0  0  2  0  0  0  0  0  0
  2  1  2  0  0  0  0
  3  6  2  0  0  0  0
  4  7  2  0  0  0  0
  4  3  1  0  0  0  0
  5  3  1  0  0  0  0
  6  1  1  0  0  0  0
  6 20  1  0  0  0  0
  7  2  1  0  0  0  0
  8 12  1  0  0  0  0
  9  8  1  0  0  0  0
  9 13  1  0  0  0  0
 11  7  1  0  0  0  0
 12 11  1  0  0  0  0
 13 11  1  0  0  0  0
 13 10  1  1  0  0  0
 14 15  2  0  0  0  0
 15 19  1  0  0  0  0
 16 14  1  0  0  0  0
 17 19  1  0  0  0  0
 18 14  1  0  0  0  0
 18 17  2  0  0  0  0
 19  4  1  1  0  0  0
 20 21  1  0  0  0  0
 21 23  1  0  0  0  0
 22 24  1  0  0  0  0
 23 24  1  0  0  0  0
 25 21  1  0  0  0  0
 25 26  1  0  0  0  0
 26 22  1  0  0  0  0
M  END
>  <MODEL>
7

>  <REMARK>
 VINA RESULT:      -6.3      2.452      4.148
  Name = 
  4 active torsions:
  status: ('A' for Active; 'I' for Inactive)
    1  A    between atoms: N_9  and  C_25
    2  A    between atoms: N_10  and  C_22
    3  A    between atoms: C_12  and  C_19
    4  A    between atoms: C_22  and  C_23
                            x       y       z     vdW  Elec       q    Type
                         _______ _______ _______ _____ _____    ______ ____

>  <TORSDO>
F 4

$$$$
=
 OpenBabel11062417183D

 26 29  0  0  1  0  0  0  0  0999 V2000
  185.9180  178.6460  140.2860 N   0  0  0  0  0  0  0  0  0  0  0  0
  184.9550  178.6900  139.3350 C   0  0  0  0  0  3  0  0  0  0  0  0
  184.2800  178.7510  142.0300 C   0  0  0  0  0  0  0  0  0  0  0  0
  183.2510  178.7820  141.0580 C   0  0  0  0  0  0  0  0  0  0  0  0
  183.9630  178.7370  143.4950 C   0  0  0  0  0  1  0  0  0  0  0  0
  185.6210  178.6770  141.6100 C   0  0  0  0  0  0  0  0  0  0  0  0
  183.6050  178.7690  139.6870 C   0  0  0  0  0  0  0  0  0  0  0  0
  181.1710  179.9040  137.0760 C   0  0  0  0  0  2  0  0  0  0  0  0
  181.7310  178.6280  136.4650 C   0  0  0  0  0  2  0  0  0  0  0  0
  181.7340  176.7090  138.0370 C   0  0  0  0  0  1  0  0  0  0  0  0
  182.6220  178.8870  138.6450 N   0  0  0  0  0  0  0  0  0  0  0  0
  181.9470  180.1390  138.3570 C   0  0  0  0  0  2  0  0  0  0  0  0
  182.5060  177.9260  137.5630 C   0  0  2  0  0  3  0  0  0  0  0  0
  179.9580  179.3210  142.2680 C   0  0  0  0  0  0  0  0  0  0  0  0
  181.2010  179.7950  142.0670 N   0  0  0  0  0  0  0  0  0  0  0  0
  178.9310  180.0890  142.8830 N   0  0  0  0  0  1  0  0  0  0  0  0
  180.9610  177.6940  141.3340 C   0  0  0  0  0  3  0  0  0  0  0  0
  179.7690  178.0580  141.8420 N   0  0  0  0  0  2  0  0  0  0  0  0
  181.8270  178.7630  141.4730 C   0  0  0  0  0  0  0  0  0  0  0  0
  186.7470  178.6540  142.5970 C   0  0  0  0  0  2  0  0  0  0  0  0
  187.1900  177.2800  142.8180 N   0  0  0  0  0  0  0  0  0  0  0  0
  189.4160  177.4850  144.7080 C   0  0  0  0  0  2  0  0  0  0  0  0
  187.0330  176.9140  144.2350 C   0  0  0  0  0  2  0  0  0  0  0  0
  187.9770  177.6980  145.1520 C   0  0  0  0  0  2  0  0  0  0  0  0
  188.5860  177.1290  142.3810 C   0  0  0  0  0  2  0  0  0  0  0  0
  189.5650  177.9150  143.2580 C   0  0  0  0  0  2  0  0  0  0  0  0
  1  6  1  0  0  0  0
  2  7  1  0  0  0  0
  2  1  2  0  0  0  0
  3  5  1  0  0  0  0
  4 19  1  0  0  0  0
  4  3  1  0  0  0  0
  6  3  2  0  0  0  0
  6 20  1  0  0  0  0
  7  4  2  0  0  0  0
  8 12  1  0  0  0  0
  9  8  1  0  0  0  0
  9 13  1  0  0  0  0
 11  7  1  0  0  0  0
 12 11  1  0  0  0  0
 13 10  1  1  0  0  0
 13 11  1  0  0  0  0
 14 16  1  0  0  0  0
 15 14  2  0  0  0  0
 17 19  2  0  0  0  0
 17 18  1  0  0  0  0
 18 14  1  0  0  0  0
 19 15  1  0  0  0  0
 20 21  1  0  0  0  0
 21 23  1  0  0  0  0
 22 24  1  0  0  0  0
 23 24  1  0  0  0  0
 25 21  1  0  0  0  0
 25 26  1  0  0  0  0
 26 22  1  0  0  0  0
M  END
>  <MODEL>
8

>  <REMARK>
 VINA RESULT:      -6.3      4.374      7.205
  Name = 
  4 active torsions:
  status: ('A' for Active; 'I' for Inactive)
    1  A    between atoms: N_9  and  C_25
    2  A    between atoms: N_10  and  C_22
    3  A    between atoms: C_12  and  C_19
    4  A    between atoms: C_22  and  C_23
                            x       y       z     vdW  Elec       q    Type
                         _______ _______ _______ _____ _____    ______ ____

>  <TORSDO>
F 4

$$$$
=
 OpenBabel11062417183D

 26 29  0  0  1  0  0  0  0  0999 V2000
  187.4170  178.3900  140.1460 N   0  0  0  0  0  0  0  0  0  0  0  0
  186.9630  178.1230  138.8980 C   0  0  0  0  0  3  0  0  0  0  0  0
  189.4050  177.1130  139.7600 C   0  0  0  0  0  0  0  0  0  0  0  0
  188.9650  176.8310  138.4440 C   0  0  0  0  0  0  0  0  0  0  0  0
  190.7350  176.6280  140.2540 C   0  0  0  0  0  1  0  0  0  0  0  0
  188.6030  177.9100  140.5970 C   0  0  0  0  0  0  0  0  0  0  0  0
  187.7110  177.3340  138.0190 C   0  0  0  0  0  0  0  0  0  0  0  0
  185.7350  176.0370  135.1140 C   0  0  0  0  0  2  0  0  0  0  0  0
  186.0790  177.4500  134.6670 C   0  0  0  0  0  2  0  0  0  0  0  0
  188.4790  178.0090  134.9500 C   0  0  0  0  0  1  0  0  0  0  0  0
  187.1590  177.0160  136.7310 N   0  0  0  0  0  0  0  0  0  0  0  0
  186.2520  175.9010  136.5330 C   0  0  0  0  0  2  0  0  0  0  0  0
  187.1260  177.9670  135.6350 C   0  0  2  0  0  3  0  0  0  0  0  0
  191.3240  175.5830  136.1030 C   0  0  0  0  0  0  0  0  0  0  0  0
  190.8480  176.6220  136.8130 N   0  0  0  0  0  0  0  0  0  0  0  0
  192.4250  175.7010  135.2100 N   0  0  0  0  0  1  0  0  0  0  0  0
  189.7140  174.7320  137.2020 C   0  0  0  0  0  3  0  0  0  0  0  0
  190.6690  174.4240  136.3060 N   0  0  0  0  0  0  0  0  0  0  0  0
  189.8340  176.0750  137.5080 C   0  0  2  0  0  3  0  0  0  0  0  0
  189.0160  178.2280  142.0000 C   0  0  0  0  0  2  0  0  0  0  0  0
  189.1060  177.0000  142.7870 N   0  0  0  0  0  0  0  0  0  0  0  0
  188.2570  177.7500  145.4850 C   0  0  0  0  0  2  0  0  0  0  0  0
  187.7810  176.6290  143.3080 C   0  0  0  0  0  2  0  0  0  0  0  0
  187.2580  177.6260  144.3460 C   0  0  0  0  0  2  0  0  0  0  0  0
  190.0770  177.1750  143.8770 C   0  0  0  0  0  2  0  0  0  0  0  0
  189.6040  178.1820  144.9300 C   0  0  0  0  0  2  0  0  0  0  0  0
  1  6  1  0  0  0  0
  2  1  2  0  0  0  0
  3  5  1  0  0  0  0
  3  6  2  0  0  0  0
  4  3  1  0  0  0  0
  6 20  1  0  0  0  0
  7  4  2  0  0  0  0
  7  2  1  0  0  0  0
  8 12  1  0  0  0  0
  9  8  1  0  0  0  0
  9 13  1  0  0  0  0
 11  7  1  0  0  0  0
 12 11  1  0  0  0  0
 13 10  1  6  0  0  0
 13 11  1  0  0  0  0
 14 18  1  0  0  0  0
 14 15  2  0  0  0  0
 15 19  1  0  0  0  0
 16 14  1  0  0  0  0
 17 19  1  0  0  0  0
 18 17  2  0  0  0  0
 19  4  1  6  0  0  0
 20 21  1  0  0  0  0
 21 23  1  0  0  0  0
 21 25  1  0  0  0  0
 23 24  1  0  0  0  0
 24 22  1  0  0  0  0
 25 26  1  0  0  0  0
 26 22  1  0  0  0  0
M  END
>  <MODEL>
9

>  <REMARK>
 VINA RESULT:      -6.3      1.784      3.024
  Name = 
  4 active torsions:
  status: ('A' for Active; 'I' for Inactive)
    1  A    between atoms: N_9  and  C_25
    2  A    between atoms: N_10  and  C_22
    3  A    between atoms: C_12  and  C_19
    4  A    between atoms: C_22  and  C_23
                            x       y       z     vdW  Elec       q    Type
                         _______ _______ _______ _____ _____    ______ ____

>  <TORSDO>
F 4

$$$$
