=
 OpenBabel11062412513D

 50 53  0  0  1  0  0  0  0  0999 V2000
  189.7340  176.9960  139.9020 C   0  0  1  0  0  3  0  0  0  0  0  0
  191.3920  174.7340  137.2580 C   0  0  0  0  0  2  0  0  0  0  0  0
  193.0790  176.1590  138.1290 C   0  0  0  0  0  2  0  0  0  0  0  0
  192.4820  175.6420  136.9000 N   0  0  0  0  0  2  0  0  0  0  0  0
  190.2790  175.5050  137.9630 C   0  0  0  0  0  2  0  0  0  0  0  0
  190.8290  176.1680  139.2220 C   0  0  0  0  0  3  0  0  0  0  0  0
  192.0640  177.0120  138.8830 C   0  0  0  0  0  2  0  0  0  0  0  0
  190.6510  176.3410  141.9970 O   0  0  0  0  0  0  0  0  0  0  0  0
  189.3510  178.2830  142.0720 N   0  0  0  0  0  2  0  0  0  0  0  0
  189.9600  177.1890  141.3720 C   0  0  0  0  0  0  0  0  0  0  0  0
  189.4000  178.4730  143.5200 C   0  0  1  0  0  3  0  0  0  0  0  0
  187.9770  177.4350  146.4090 C   0  0  0  0  0  0  0  0  0  0  0  0
  187.9940  177.4930  147.7330 C   0  0  0  0  0  2  0  0  0  0  0  0
  189.1350  177.3500  145.6490 O   0  0  0  0  0  0  0  0  0  0  0  0
  186.7410  177.4160  145.5840 C   0  0  2  0  0  3  0  0  0  0  0  0
  186.6960  177.0380  143.2210 O   0  0  0  0  0  0  0  0  0  0  0  0
  187.3510  177.2370  144.2330 C   0  0  0  0  0  0  0  0  0  0  0  0
  188.8510  177.2490  144.2600 C   0  0  1  0  0  3  0  0  0  0  0  0
  186.0340  178.7660  145.6740 C   0  0  0  0  0  2  0  0  0  0  0  0
  183.9540  179.2750  144.0150 S   0  0  0  0  0  0  0  0  0  0  0  0
  184.5750  178.6480  145.3640 C   0  0  0  0  0  2  0  0  0  0  0  0
  182.2000  178.9010  144.1720 C   0  0  0  0  0  2  0  0  0  0  0  0
  180.0750  178.0630  141.5140 C   0  0  0  0  0  2  0  0  0  0  0  0
  181.4970  179.0990  142.8410 C   0  0  0  0  0  3  0  0  0  0  0  0
  180.2650  178.4270  142.8440 O   0  0  0  0  0  0  0  0  0  0  0  0
  181.4120  178.1700  140.8430 C   0  0  0  0  0  2  0  0  0  0  0  0
  182.3100  178.6170  141.8070 O   0  0  0  0  0  0  0  0  0  0  0  0
  191.8910  179.0480  144.3030 C   0  0  0  0  0  3  0  0  0  0  0  0
  190.7690  178.7890  143.9500 C   0  0  0  0  0  0  0  0  0  0  0  0
  189.5580  178.2300  139.2680 O   0  0  0  0  0  0  0  0  0  0  0  0
  188.2550  178.1900  138.7710 C   0  0  0  0  0  2  0  0  0  0  0  0
  188.2490  178.6250  137.3060 C   0  0  0  0  0  2  0  0  0  0  0  0
  185.0410  177.2040  137.3100 C   0  0  0  0  0  1  0  0  0  0  0  0
  187.7790  177.3460  135.3250 C   0  0  0  0  0  2  0  0  0  0  0  0
  186.5430  176.9380  137.3010 C   0  0  2  0  0  3  0  0  0  0  0  0
  187.1980  177.9810  136.5110 N   0  0  0  0  0  0  0  0  0  0  0  0
  186.9170  175.5970  136.6680 C   0  0  2  0  0  3  0  0  0  0  0  0
  187.2410  175.9340  135.2410 C   0  0  0  0  0  2  0  0  0  0  0  0
  186.1220  173.2100  136.9430 C   0  0  0  0  0  0  0  0  0  0  0  0
  185.8550  174.6010  136.7410 N   0  0  0  0  0  2  0  0  0  0  0  0
  183.6570  172.5760  137.0120 C   0  0  0  0  0  0  0  0  0  0  0  0
  185.0540  172.2670  137.0800 N   0  0  0  0  0  2  0  0  0  0  0  0
  187.3120  172.8020  137.0120 O   0  0  0  0  0  0  0  0  0  0  0  0
  183.2590  173.7490  136.7780 O   0  0  0  0  0  0  0  0  0  0  0  0
  182.6600  171.4890  137.2220 C   0  0  0  0  0  2  0  0  0  0  0  0
  181.3780  171.7490  136.4360 C   0  0  0  0  0  2  0  0  0  0  0  0
  179.0680  171.1460  136.7770 O   0  0  0  0  0  1  0  0  0  0  0  0
  180.1340  171.8680  137.3180 C   0  0  2  0  0  3  0  0  0  0  0  0
  179.7730  173.6670  139.0050 C   0  0  0  0  0  1  0  0  0  0  0  0
  179.7420  173.3230  137.5280 C   0  0  0  0  0  2  0  0  0  0  0  0
  1 30  1  6  0  0  0
  1 10  1  0  0  0  0
  2  5  1  0  0  0  0
  3  7  1  0  0  0  0
  4  2  1  0  0  0  0
  4  3  1  0  0  0  0
  5  6  1  0  0  0  0
  6  1  1  0  0  0  0
  7  6  1  0  0  0  0
  9 11  1  0  0  0  0
 10  8  2  0  0  0  0
 10  9  1  0  0  0  0
 11 29  1  1  0  0  0
 12 13  2  0  0  0  0
 14 12  1  0  0  0  0
 15 19  1  6  0  0  0
 15 12  1  0  0  0  0
 16 17  2  0  0  0  0
 17 18  1  0  0  0  0
 17 15  1  0  0  0  0
 18 11  1  6  0  0  0
 18 14  1  0  0  0  0
 20 22  1  0  0  0  0
 20 21  1  0  0  0  0
 21 19  1  0  0  0  0
 23 25  1  0  0  0  0
 24 25  1  0  0  0  0
 24 22  1  0  0  0  0
 26 23  1  0  0  0  0
 26 27  1  0  0  0  0
 27 24  1  0  0  0  0
 29 28  3  0  0  0  0
 31 30  1  0  0  0  0
 32 31  1  0  0  0  0
 34 36  1  0  0  0  0
 35 33  1  6  0  0  0
 36 35  1  0  0  0  0
 36 32  1  0  0  0  0
 37 40  1  6  0  0  0
 37 35  1  0  0  0  0
 38 34  1  0  0  0  0
 38 37  1  0  0  0  0
 39 43  2  0  0  0  0
 39 42  1  0  0  0  0
 40 39  1  0  0  0  0
 41 42  1  0  0  0  0
 41 45  1  0  0  0  0
 44 41  2  0  0  0  0
 46 45  1  0  0  0  0
 46 48  1  0  0  0  0
 48 47  1  6  0  0  0
 48 50  1  0  0  0  0
 50 49  1  0  0  0  0
M  END
>  <MODEL>
1

>  <REMARK>
 VINA RESULT:      -7.4      0.000      0.000
  Name = 
  18 active torsions:
  status: ('A' for Active; 'I' for Inactive)
    1  A    between atoms: C_2  and  C_22
    2  A    between atoms: C_2  and  C_44
    3  A    between atoms: N_7  and  C_23
    4  A    between atoms: C_11  and  C_12
    5  A    between atoms: C_11  and  O_32
    6  A    between atoms: C_12  and  N_18
    7  A    between atoms: C_16  and  C_22
    8  A    between atoms: C_20  and  C_47
    9  A    between atoms: C_25  and  C_28
   10  A    between atoms: S_27  and  C_48
   11  A    between atoms: C_28  and  O_32
   12  A    between atoms: C_28  and  C_33
   13  A    between atoms: N_29  and  C_38
   14  A    between atoms: C_30  and  C_48
   15  A    between atoms: C_34  and  C_47
   16  A    between atoms: C_38  and  C_46
   17  A    between atoms: C_38  and  C_50
   18  A    between atoms: C_40  and  C_44
                            x       y       z     vdW  Elec       q    Type
                         _______ _______ _______ _____ _____    ______ ____

>  <TORSDO>
F 18

$$$$
=
 OpenBabel11062412513D

 50 53  0  0  1  0  0  0  0  0999 V2000
  188.1660  178.4890  141.6240 C   0  0  1  0  0  3  0  0  0  0  0  0
  190.2510  177.6690  144.7610 C   0  0  0  0  0  2  0  0  0  0  0  0
  191.3130  176.6260  142.9120 C   0  0  0  0  0  2  0  0  0  0  0  0
  190.8270  176.4160  144.2730 N   0  0  0  0  0  2  0  0  0  0  0  0
  189.0190  178.0350  143.9370 C   0  0  0  0  0  2  0  0  0  0  0  0
  189.4080  178.1840  142.4690 C   0  0  0  0  0  3  0  0  0  0  0  0
  190.1430  176.9300  141.9820 C   0  0  0  0  0  2  0  0  0  0  0  0
  187.4060  177.2650  139.7320 O   0  0  0  0  0  0  0  0  0  0  0  0
  189.4160  178.4130  139.4010 N   0  0  0  0  0  2  0  0  0  0  0  0
  188.2870  178.0340  140.2000 C   0  0  0  0  0  0  0  0  0  0  0  0
  189.6880  177.9080  138.0560 C   0  0  1  0  0  3  0  0  0  0  0  0
  189.6750  175.1820  136.0530 C   0  0  0  0  0  0  0  0  0  0  0  0
  189.1030  174.5650  135.0290 C   0  0  0  0  0  2  0  0  0  0  0  0
  188.9460  175.8450  137.0300 O   0  0  0  0  0  0  0  0  0  0  0  0
  191.1400  175.2120  136.3030 C   0  0  2  0  0  3  0  0  0  0  0  0
  192.1560  176.0880  138.2870 O   0  0  0  0  0  0  0  0  0  0  0  0
  191.1500  175.9330  137.6120 C   0  0  0  0  0  0  0  0  0  0  0  0
  189.7850  176.3790  138.0450 C   0  0  1  0  0  3  0  0  0  0  0  0
  191.8350  176.0470  135.2310 C   0  0  0  0  0  2  0  0  0  0  0  0
  194.1220  174.5960  135.2620 S   0  0  0  0  0  0  0  0  0  0  0  0
  193.3240  175.9930  135.3670 C   0  0  0  0  0  2  0  0  0  0  0  0
  195.8300  175.0900  135.5430 C   0  0  0  0  0  2  0  0  0  0  0  0
  196.0140  172.7650  138.1590 C   0  0  0  0  0  2  0  0  0  0  0  0
  196.3400  174.5060  136.8480 C   0  0  0  0  0  3  0  0  0  0  0  0
  196.2250  173.1080  136.8270 O   0  0  0  0  0  0  0  0  0  0  0  0
  195.5950  174.0200  138.8660 C   0  0  0  0  0  2  0  0  0  0  0  0
  195.6070  175.0380  137.9170 O   0  0  0  0  0  0  0  0  0  0  0  0
  187.8330  178.7810  136.3390 C   0  0  0  0  0  3  0  0  0  0  0  0
  188.6690  178.3870  137.1120 C   0  0  0  0  0  0  0  0  0  0  0  0
  187.0090  177.9640  142.2090 O   0  0  0  0  0  0  0  0  0  0  0  0
  186.0190  178.9120  141.9490 C   0  0  0  0  0  2  0  0  0  0  0  0
  184.6440  178.2470  141.9990 C   0  0  0  0  0  2  0  0  0  0  0  0
  184.1030  179.6940  138.8490 C   0  0  0  0  0  1  0  0  0  0  0  0
  182.8810  177.1810  140.7590 C   0  0  0  0  0  2  0  0  0  0  0  0
  183.5120  179.3980  140.2240 C   0  0  2  0  0  3  0  0  0  0  0  0
  184.0170  178.1030  140.6810 N   0  0  0  0  0  0  0  0  0  0  0  0
  181.9850  179.3050  140.2200 C   0  0  2  0  0  3  0  0  0  0  0  0
  181.7000  177.8380  140.0800 C   0  0  0  0  0  2  0  0  0  0  0  0
  180.3570  181.0570  139.3930 C   0  0  0  0  0  0  0  0  0  0  0  0
  181.3570  180.0650  139.1460 N   0  0  0  0  0  2  0  0  0  0  0  0
  180.1590  181.7080  136.9400 C   0  0  0  0  0  0  0  0  0  0  0  0
  179.8100  181.8340  138.3230 N   0  0  0  0  0  2  0  0  0  0  0  0
  179.9520  181.2620  140.5680 O   0  0  0  0  0  0  0  0  0  0  0  0
  180.9830  180.8360  136.5510 O   0  0  0  0  0  0  0  0  0  0  0  0
  179.5360  182.6260  135.9450 C   0  0  0  0  0  2  0  0  0  0  0  0
  180.5770  183.5330  135.2940 C   0  0  0  0  0  2  0  0  0  0  0  0
  181.7280  184.7860  137.0030 O   0  0  0  0  0  1  0  0  0  0  0  0
  180.7510  184.8740  136.0080 C   0  0  2  0  0  3  0  0  0  0  0  0
  179.6350  185.8180  138.0260 C   0  0  0  0  0  1  0  0  0  0  0  0
  179.4360  185.3640  136.5930 C   0  0  0  0  0  2  0  0  0  0  0  0
  1 10  1  6  0  0  0
  1 30  1  0  0  0  0
  1  6  1  0  0  0  0
  3  4  1  0  0  0  0
  4  2  1  0  0  0  0
  5  2  1  0  0  0  0
  6  5  1  0  0  0  0
  7  6  1  0  0  0  0
  7  3  1  0  0  0  0
  8 10  2  0  0  0  0
  9 10  1  0  0  0  0
 11 29  1  6  0  0  0
 11  9  1  0  0  0  0
 12 15  1  0  0  0  0
 12 14  1  0  0  0  0
 13 12  2  0  0  0  0
 14 18  1  0  0  0  0
 15 19  1  6  0  0  0
 15 17  1  0  0  0  0
 17 18  1  0  0  0  0
 17 16  2  0  0  0  0
 18 11  1  6  0  0  0
 19 21  1  0  0  0  0
 20 21  1  0  0  0  0
 20 22  1  0  0  0  0
 22 24  1  0  0  0  0
 23 26  1  0  0  0  0
 24 27  1  0  0  0  0
 25 24  1  0  0  0  0
 25 23  1  0  0  0  0
 27 26  1  0  0  0  0
 28 29  3  0  0  0  0
 31 32  1  0  0  0  0
 31 30  1  0  0  0  0
 35 33  1  6  0  0  0
 35 36  1  0  0  0  0
 36 34  1  0  0  0  0
 36 32  1  0  0  0  0
 37 40  1  6  0  0  0
 37 35  1  0  0  0  0
 38 37  1  0  0  0  0
 38 34  1  0  0  0  0
 39 43  2  0  0  0  0
 40 39  1  0  0  0  0
 41 42  1  0  0  0  0
 42 39  1  0  0  0  0
 44 41  2  0  0  0  0
 45 41  1  0  0  0  0
 46 45  1  0  0  0  0
 46 48  1  0  0  0  0
 48 50  1  0  0  0  0
 48 47  1  1  0  0  0
 50 49  1  0  0  0  0
M  END
>  <MODEL>
2

>  <REMARK>
 VINA RESULT:      -6.1      4.750      9.968
  Name = 
  18 active torsions:
  status: ('A' for Active; 'I' for Inactive)
    1  A    between atoms: C_2  and  C_22
    2  A    between atoms: C_2  and  C_44
    3  A    between atoms: N_7  and  C_23
    4  A    between atoms: C_11  and  C_12
    5  A    between atoms: C_11  and  O_32
    6  A    between atoms: C_12  and  N_18
    7  A    between atoms: C_16  and  C_22
    8  A    between atoms: C_20  and  C_47
    9  A    between atoms: C_25  and  C_28
   10  A    between atoms: S_27  and  C_48
   11  A    between atoms: C_28  and  O_32
   12  A    between atoms: C_28  and  C_33
   13  A    between atoms: N_29  and  C_38
   14  A    between atoms: C_30  and  C_48
   15  A    between atoms: C_34  and  C_47
   16  A    between atoms: C_38  and  C_46
   17  A    between atoms: C_38  and  C_50
   18  A    between atoms: C_40  and  C_44
                            x       y       z     vdW  Elec       q    Type
                         _______ _______ _______ _____ _____    ______ ____

>  <TORSDO>
F 18

$$$$
=
 OpenBabel11062412513D

 50 53  0  0  1  0  0  0  0  0999 V2000
  185.5110  176.1270  134.9730 C   0  0  1  0  0  3  0  0  0  0  0  0
  186.8510  172.5140  135.0720 C   0  0  0  0  0  2  0  0  0  0  0  0
  184.4800  172.3920  135.1100 C   0  0  0  0  0  2  0  0  0  0  0  0
  185.7030  171.9140  135.7520 N   0  0  0  0  0  2  0  0  0  0  0  0
  186.8460  174.0270  135.2740 C   0  0  0  0  0  2  0  0  0  0  0  0
  185.5530  174.6170  134.7180 C   0  0  0  0  0  3  0  0  0  0  0  0
  184.3390  173.8970  135.3160 C   0  0  0  0  0  2  0  0  0  0  0  0
  183.5180  177.3680  134.5960 O   0  0  0  0  0  0  0  0  0  0  0  0
  183.6240  176.3130  136.6810 N   0  0  0  0  0  2  0  0  0  0  0  0
  184.1580  176.6240  135.3860 C   0  0  0  0  0  0  0  0  0  0  0  0
  182.3830  176.8640  137.2220 C   0  0  1  0  0  3  0  0  0  0  0  0
  180.8360  179.5510  138.5760 C   0  0  0  0  0  0  0  0  0  0  0  0
  179.6970  180.2100  138.7290 C   0  0  0  0  0  2  0  0  0  0  0  0
  181.2140  178.9780  137.3690 O   0  0  0  0  0  0  0  0  0  0  0  0
  181.8550  179.3750  139.6440 C   0  0  2  0  0  3  0  0  0  0  0  0
  184.0260  178.4270  139.2990 O   0  0  0  0  0  0  0  0  0  0  0  0
  182.9150  178.6730  138.8580 C   0  0  0  0  0  0  0  0  0  0  0  0
  182.4980  178.3750  137.4480 C   0  0  1  0  0  3  0  0  0  0  0  0
  181.3110  178.4590  140.7370 C   0  0  0  0  0  2  0  0  0  0  0  0
  183.3340  179.0040  142.4550 S   0  0  0  0  0  0  0  0  0  0  0  0
  181.7660  178.8900  142.0960 C   0  0  0  0  0  2  0  0  0  0  0  0
  183.3120  179.4970  144.1860 C   0  0  0  0  0  2  0  0  0  0  0  0
  185.4380  178.4480  146.7670 C   0  0  0  0  0  2  0  0  0  0  0  0
  184.0830  178.4980  145.0290 C   0  0  0  0  0  3  0  0  0  0  0  0
  184.2270  178.9840  146.3380 O   0  0  0  0  0  0  0  0  0  0  0  0
  186.1710  178.0010  145.5370 C   0  0  0  0  0  2  0  0  0  0  0  0
  185.3410  178.2740  144.4540 O   0  0  0  0  0  0  0  0  0  0  0  0
  180.3230  176.2700  135.6230 C   0  0  0  0  0  3  0  0  0  0  0  0
  181.2520  176.5380  136.3430 C   0  0  0  0  0  0  0  0  0  0  0  0
  186.4810  176.5150  135.9040 O   0  0  0  0  0  0  0  0  0  0  0  0
  187.3420  177.3500  135.1910 C   0  0  0  0  0  2  0  0  0  0  0  0
  188.7320  177.3180  135.8260 C   0  0  0  0  0  2  0  0  0  0  0  0
  187.9420  177.1240  139.2390 C   0  0  0  0  0  1  0  0  0  0  0  0
  189.9030  175.5560  136.9690 C   0  0  0  0  0  2  0  0  0  0  0  0
  189.0350  177.3780  138.2060 C   0  0  2  0  0  3  0  0  0  0  0  0
  188.7950  176.5120  137.0500 N   0  0  0  0  0  0  0  0  0  0  0  0
  190.4400  177.0580  138.7180 C   0  0  2  0  0  3  0  0  0  0  0  0
  190.6990  175.6550  138.2510 C   0  0  0  0  0  2  0  0  0  0  0  0
  191.8120  177.4670  140.8050 C   0  0  0  0  0  0  0  0  0  0  0  0
  190.5700  177.1590  140.1670 N   0  0  0  0  0  2  0  0  0  0  0  0
  190.7990  177.4830  143.1410 C   0  0  0  0  0  0  0  0  0  0  0  0
  191.8910  177.6270  142.2250 N   0  0  0  0  0  2  0  0  0  0  0  0
  192.8550  177.6110  140.1140 O   0  0  0  0  0  0  0  0  0  0  0  0
  189.6500  177.1530  142.7400 O   0  0  0  0  0  0  0  0  0  0  0  0
  191.0290  177.7300  144.5920 C   0  0  0  0  0  2  0  0  0  0  0  0
  189.8810  177.1840  145.4390 C   0  0  0  0  0  2  0  0  0  0  0  0
  191.1510  176.1960  147.2350 O   0  0  0  0  0  1  0  0  0  0  0  0
  190.1860  177.1610  146.9370 C   0  0  2  0  0  3  0  0  0  0  0  0
  188.5990  178.1500  148.5850 C   0  0  0  0  0  1  0  0  0  0  0  0
  188.9240  176.9240  147.7540 C   0  0  0  0  0  2  0  0  0  0  0  0
  1 10  1  1  0  0  0
  1 30  1  0  0  0  0
  2  5  1  0  0  0  0
  2  4  1  0  0  0  0
  3  7  1  0  0  0  0
  3  4  1  0  0  0  0
  6  1  1  0  0  0  0
  6  5  1  0  0  0  0
  6  7  1  0  0  0  0
  8 10  2  0  0  0  0
  9 11  1  0  0  0  0
 10  9  1  0  0  0  0
 11 29  1  6  0  0  0
 12 13  2  0  0  0  0
 12 15  1  0  0  0  0
 14 18  1  0  0  0  0
 14 12  1  0  0  0  0
 15 19  1  1  0  0  0
 17 16  2  0  0  0  0
 17 15  1  0  0  0  0
 18 11  1  1  0  0  0
 18 17  1  0  0  0  0
 19 21  1  0  0  0  0
 20 22  1  0  0  0  0
 21 20  1  0  0  0  0
 22 24  1  0  0  0  0
 24 25  1  0  0  0  0
 25 23  1  0  0  0  0
 26 23  1  0  0  0  0
 27 24  1  0  0  0  0
 27 26  1  0  0  0  0
 28 29  3  0  0  0  0
 31 32  1  0  0  0  0
 31 30  1  0  0  0  0
 32 36  1  0  0  0  0
 34 36  1  0  0  0  0
 34 38  1  0  0  0  0
 35 37  1  0  0  0  0
 35 33  1  1  0  0  0
 36 35  1  0  0  0  0
 37 40  1  1  0  0  0
 38 37  1  0  0  0  0
 39 42  1  0  0  0  0
 40 39  1  0  0  0  0
 41 45  1  0  0  0  0
 42 41  1  0  0  0  0
 43 39  2  0  0  0  0
 44 41  2  0  0  0  0
 45 46  1  0  0  0  0
 46 48  1  0  0  0  0
 48 47  1  6  0  0  0
 48 50  1  0  0  0  0
 50 49  1  0  0  0  0
M  END
>  <MODEL>
3

>  <REMARK>
 VINA RESULT:      -6.0      2.619      8.695
  Name = 
  18 active torsions:
  status: ('A' for Active; 'I' for Inactive)
    1  A    between atoms: C_2  and  C_22
    2  A    between atoms: C_2  and  C_44
    3  A    between atoms: N_7  and  C_23
    4  A    between atoms: C_11  and  C_12
    5  A    between atoms: C_11  and  O_32
    6  A    between atoms: C_12  and  N_18
    7  A    between atoms: C_16  and  C_22
    8  A    between atoms: C_20  and  C_47
    9  A    between atoms: C_25  and  C_28
   10  A    between atoms: S_27  and  C_48
   11  A    between atoms: C_28  and  O_32
   12  A    between atoms: C_28  and  C_33
   13  A    between atoms: N_29  and  C_38
   14  A    between atoms: C_30  and  C_48
   15  A    between atoms: C_34  and  C_47
   16  A    between atoms: C_38  and  C_46
   17  A    between atoms: C_38  and  C_50
   18  A    between atoms: C_40  and  C_44
                            x       y       z     vdW  Elec       q    Type
                         _______ _______ _______ _____ _____    ______ ____

>  <TORSDO>
F 18

$$$$
=
 OpenBabel11062412513D

 50 53  0  0  1  0  0  0  0  0999 V2000
  189.7400  176.3520  135.8810 C   0  0  1  0  0  3  0  0  0  0  0  0
  192.9850  174.7190  134.5940 C   0  0  0  0  0  2  0  0  0  0  0  0
  192.2220  173.4250  136.4320 C   0  0  0  0  0  2  0  0  0  0  0  0
  193.3860  174.0930  135.8540 N   0  0  0  0  0  2  0  0  0  0  0  0
  191.9670  175.8240  134.8590 C   0  0  0  0  0  2  0  0  0  0  0  0
  190.7410  175.2390  135.5540 C   0  0  0  0  0  3  0  0  0  0  0  0
  191.1610  174.4560  136.8030 C   0  0  0  0  0  2  0  0  0  0  0  0
  187.6990  175.9320  134.7340 O   0  0  0  0  0  0  0  0  0  0  0  0
  187.6290  175.4980  137.0310 N   0  0  0  0  0  2  0  0  0  0  0  0
  188.3110  175.9000  135.8350 C   0  0  0  0  0  0  0  0  0  0  0  0
  186.2050  175.1760  137.1070 C   0  0  1  0  0  3  0  0  0  0  0  0
  183.0260  176.2620  136.7040 C   0  0  0  0  0  0  0  0  0  0  0  0
  181.7860  175.9480  136.3560 C   0  0  0  0  0  2  0  0  0  0  0  0
  184.1370  175.8000  136.0130 O   0  0  0  0  0  0  0  0  0  0  0  0
  183.3790  177.1610  137.8330 C   0  0  2  0  0  3  0  0  0  0  0  0
  185.5940  177.9460  138.2960 O   0  0  0  0  0  0  0  0  0  0  0  0
  184.8620  177.2090  137.6530 C   0  0  0  0  0  0  0  0  0  0  0  0
  185.3470  176.3170  136.5490 C   0  0  1  0  0  3  0  0  0  0  0  0
  183.0270  176.4950  139.1600 C   0  0  0  0  0  2  0  0  0  0  0  0
  180.4460  177.0080  139.8030 S   0  0  0  0  0  0  0  0  0  0  0  0
  182.0270  177.2960  139.9340 C   0  0  0  0  0  2  0  0  0  0  0  0
  179.7230  178.2600  140.8770 C   0  0  0  0  0  2  0  0  0  0  0  0
  179.8110  180.4070  138.1080 C   0  0  0  0  0  2  0  0  0  0  0  0
  179.4200  179.5200  140.0880 C   0  0  0  0  0  3  0  0  0  0  0  0
  179.3800  179.2310  138.7160 O   0  0  0  0  0  0  0  0  0  0  0  0
  180.4920  181.2160  139.1720 C   0  0  0  0  0  2  0  0  0  0  0  0
  180.4020  180.4850  140.3520 O   0  0  0  0  0  0  0  0  0  0  0  0
  185.7000  172.8710  135.8490 C   0  0  0  0  0  3  0  0  0  0  0  0
  185.9270  173.9100  136.4160 C   0  0  0  0  0  0  0  0  0  0  0  0
  190.0250  176.9500  137.1130 O   0  0  0  0  0  0  0  0  0  0  0  0
  189.2790  178.1290  137.1150 C   0  0  0  0  0  2  0  0  0  0  0  0
  189.2480  178.7160  138.5260 C   0  0  0  0  0  2  0  0  0  0  0  0
  187.4480  178.0600  141.4650 C   0  0  0  0  0  1  0  0  0  0  0  0
  189.9770  176.7230  139.6560 C   0  0  0  0  0  2  0  0  0  0  0  0
  188.8100  178.3910  140.8630 C   0  0  2  0  0  3  0  0  0  0  0  0
  188.9180  177.7300  139.5610 N   0  0  0  0  0  0  0  0  0  0  0  0
  189.9840  177.8990  141.7110 C   0  0  2  0  0  3  0  0  0  0  0  0
  190.3450  176.5690  141.1150 C   0  0  0  0  0  2  0  0  0  0  0  0
  190.3040  178.5620  144.1320 C   0  0  0  0  0  0  0  0  0  0  0  0
  189.6660  177.7680  143.1270 N   0  0  0  0  0  2  0  0  0  0  0  0
  188.9170  177.5770  146.0260 C   0  0  0  0  0  0  0  0  0  0  0  0
  189.9190  178.4590  145.5060 N   0  0  0  0  0  2  0  0  0  0  0  0
  191.2120  179.3730  143.8090 O   0  0  0  0  0  0  0  0  0  0  0  0
  188.3060  176.7690  145.2770 O   0  0  0  0  0  0  0  0  0  0  0  0
  188.5940  177.6200  147.4810 C   0  0  0  0  0  2  0  0  0  0  0  0
  187.0890  177.7320  147.7140 C   0  0  0  0  0  2  0  0  0  0  0  0
  185.8490  179.7770  147.4150 O   0  0  0  0  0  1  0  0  0  0  0  0
  186.3900  178.6800  146.7400 C   0  0  2  0  0  3  0  0  0  0  0  0
  184.3810  178.9630  145.2920 C   0  0  0  0  0  1  0  0  0  0  0  0
  185.3130  177.9590  145.9430 C   0  0  0  0  0  2  0  0  0  0  0  0
  1 10  1  1  0  0  0
  1 30  1  0  0  0  0
  2  5  1  0  0  0  0
  2  4  1  0  0  0  0
  3  7  1  0  0  0  0
  4  3  1  0  0  0  0
  5  6  1  0  0  0  0
  6  1  1  0  0  0  0
  6  7  1  0  0  0  0
  8 10  2  0  0  0  0
  9 11  1  0  0  0  0
 10  9  1  0  0  0  0
 11 29  1  6  0  0  0
 12 15  1  0  0  0  0
 13 12  2  0  0  0  0
 14 18  1  0  0  0  0
 14 12  1  0  0  0  0
 15 19  1  1  0  0  0
 17 15  1  0  0  0  0
 17 16  2  0  0  0  0
 18 11  1  1  0  0  0
 18 17  1  0  0  0  0
 19 21  1  0  0  0  0
 20 21  1  0  0  0  0
 20 22  1  0  0  0  0
 23 25  1  0  0  0  0
 23 26  1  0  0  0  0
 24 27  1  0  0  0  0
 24 22  1  0  0  0  0
 25 24  1  0  0  0  0
 26 27  1  0  0  0  0
 28 29  3  0  0  0  0
 30 31  1  0  0  0  0
 31 32  1  0  0  0  0
 32 36  1  0  0  0  0
 34 38  1  0  0  0  0
 35 33  1  1  0  0  0
 35 37  1  0  0  0  0
 36 34  1  0  0  0  0
 36 35  1  0  0  0  0
 37 40  1  1  0  0  0
 38 37  1  0  0  0  0
 39 42  1  0  0  0  0
 40 39  1  0  0  0  0
 41 45  1  0  0  0  0
 42 41  1  0  0  0  0
 43 39  2  0  0  0  0
 44 41  2  0  0  0  0
 45 46  1  0  0  0  0
 48 47  1  1  0  0  0
 48 46  1  0  0  0  0
 49 50  1  0  0  0  0
 50 48  1  0  0  0  0
M  END
>  <MODEL>
4

>  <REMARK>
 VINA RESULT:      -5.9      2.587      7.984
  Name = 
  18 active torsions:
  status: ('A' for Active; 'I' for Inactive)
    1  A    between atoms: C_2  and  C_22
    2  A    between atoms: C_2  and  C_44
    3  A    between atoms: N_7  and  C_23
    4  A    between atoms: C_11  and  C_12
    5  A    between atoms: C_11  and  O_32
    6  A    between atoms: C_12  and  N_18
    7  A    between atoms: C_16  and  C_22
    8  A    between atoms: C_20  and  C_47
    9  A    between atoms: C_25  and  C_28
   10  A    between atoms: S_27  and  C_48
   11  A    between atoms: C_28  and  O_32
   12  A    between atoms: C_28  and  C_33
   13  A    between atoms: N_29  and  C_38
   14  A    between atoms: C_30  and  C_48
   15  A    between atoms: C_34  and  C_47
   16  A    between atoms: C_38  and  C_46
   17  A    between atoms: C_38  and  C_50
   18  A    between atoms: C_40  and  C_44
                            x       y       z     vdW  Elec       q    Type
                         _______ _______ _______ _____ _____    ______ ____

>  <TORSDO>
F 18

$$$$
=
 OpenBabel11062412513D

 50 53  0  0  1  0  0  0  0  0999 V2000
  187.7650  178.4310  141.8060 C   0  0  1  0  0  3  0  0  0  0  0  0
  190.8220  178.1560  144.1370 C   0  0  0  0  0  2  0  0  0  0  0  0
  189.0760  176.8720  145.1050 C   0  0  0  0  0  2  0  0  0  0  0  0
  190.0840  177.8940  145.3730 N   0  0  0  0  0  2  0  0  0  0  0  0
  189.8910  178.7640  143.0910 C   0  0  0  0  0  2  0  0  0  0  0  0
  188.7390  177.8040  142.8080 C   0  0  0  0  0  3  0  0  0  0  0  0
  188.0440  177.4060  144.1160 C   0  0  0  0  0  2  0  0  0  0  0  0
  187.2730  178.3140  139.4820 O   0  0  0  0  0  0  0  0  0  0  0  0
  189.4920  177.8160  140.0300 N   0  0  0  0  0  2  0  0  0  0  0  0
  188.1560  178.2070  140.3750 C   0  0  0  0  0  0  0  0  0  0  0  0
  189.9270  177.4420  138.6850 C   0  0  1  0  0  3  0  0  0  0  0  0
  188.8860  175.4830  136.1310 C   0  0  0  0  0  0  0  0  0  0  0  0
  188.1140  175.3830  135.0580 C   0  0  0  0  0  2  0  0  0  0  0  0
  188.4640  176.0980  137.3020 O   0  0  0  0  0  0  0  0  0  0  0  0
  190.2620  174.9300  136.2310 C   0  0  2  0  0  3  0  0  0  0  0  0
  191.5530  174.8690  138.2460 O   0  0  0  0  0  0  0  0  0  0  0  0
  190.5530  175.2530  137.6600 C   0  0  0  0  0  0  0  0  0  0  0  0
  189.4530  176.0320  138.3200 C   0  0  1  0  0  3  0  0  0  0  0  0
  191.2020  175.7030  135.3090 C   0  0  0  0  0  2  0  0  0  0  0  0
  193.9020  175.9030  135.3960 S   0  0  0  0  0  0  0  0  0  0  0  0
  192.5460  175.0500  135.2170 C   0  0  0  0  0  2  0  0  0  0  0  0
  195.1860  174.6660  135.1430 C   0  0  0  0  0  2  0  0  0  0  0  0
  195.1460  172.9930  138.2220 C   0  0  0  0  0  2  0  0  0  0  0  0
  195.7400  174.2000  136.4770 C   0  0  0  0  0  3  0  0  0  0  0  0
  195.1700  172.9680  136.8310 O   0  0  0  0  0  0  0  0  0  0  0  0
  195.3220  174.4250  138.6300 C   0  0  0  0  0  2  0  0  0  0  0  0
  195.4660  175.1620  137.4590 O   0  0  0  0  0  0  0  0  0  0  0  0
  189.0890  179.2460  136.8980 C   0  0  0  0  0  3  0  0  0  0  0  0
  189.4660  178.4330  137.7030 C   0  0  0  0  0  0  0  0  0  0  0  0
  186.4540  178.0000  142.0290 O   0  0  0  0  0  0  0  0  0  0  0  0
  185.6650  179.1250  141.7870 C   0  0  0  0  0  2  0  0  0  0  0  0
  184.1960  178.7900  142.0460 C   0  0  0  0  0  2  0  0  0  0  0  0
  181.3190  177.6700  140.3790 C   0  0  0  0  0  1  0  0  0  0  0  0
  184.1330  179.4350  139.7310 C   0  0  0  0  0  2  0  0  0  0  0  0
  182.8400  177.5950  140.4670 C   0  0  2  0  0  3  0  0  0  0  0  0
  183.3510  178.9110  140.8540 N   0  0  0  0  0  0  0  0  0  0  0  0
  183.5070  177.2300  139.1400 C   0  0  2  0  0  3  0  0  0  0  0  0
  183.8770  178.5510  138.5310 C   0  0  0  0  0  2  0  0  0  0  0  0
  183.1440  175.3970  137.4330 C   0  0  0  0  0  0  0  0  0  0  0  0
  182.6470  176.4640  138.2470 N   0  0  0  0  0  2  0  0  0  0  0  0
  180.8460  174.8160  136.5020 C   0  0  0  0  0  0  0  0  0  0  0  0
  182.2610  174.6200  136.6190 N   0  0  0  0  0  2  0  0  0  0  0  0
  184.3740  175.1260  137.4350 O   0  0  0  0  0  0  0  0  0  0  0  0
  180.2650  175.7550  137.1100 O   0  0  0  0  0  0  0  0  0  0  0  0
  180.0520  173.8900  135.6470 C   0  0  0  0  0  2  0  0  0  0  0  0
  179.1930  172.9510  136.4910 C   0  0  0  0  0  2  0  0  0  0  0  0
  180.6170  171.6180  137.9070 O   0  0  0  0  0  1  0  0  0  0  0  0
  179.8430  171.5910  136.7450 C   0  0  2  0  0  3  0  0  0  0  0  0
  182.1020  170.8490  135.9960 C   0  0  0  0  0  1  0  0  0  0  0  0
  180.6820  171.1480  135.5550 C   0  0  0  0  0  2  0  0  0  0  0  0
  1 10  1  6  0  0  0
  1 30  1  0  0  0  0
  1  6  1  0  0  0  0
  2  4  1  0  0  0  0
  3  4  1  0  0  0  0
  5  2  1  0  0  0  0
  6  5  1  0  0  0  0
  6  7  1  0  0  0  0
  7  3  1  0  0  0  0
  8 10  2  0  0  0  0
  9 10  1  0  0  0  0
 11 29  1  6  0  0  0
 11  9  1  0  0  0  0
 12 15  1  0  0  0  0
 12 14  1  0  0  0  0
 13 12  2  0  0  0  0
 14 18  1  0  0  0  0
 15 19  1  6  0  0  0
 15 17  1  0  0  0  0
 17 16  2  0  0  0  0
 17 18  1  0  0  0  0
 18 11  1  6  0  0  0
 21 19  1  0  0  0  0
 21 20  1  0  0  0  0
 22 20  1  0  0  0  0
 22 24  1  0  0  0  0
 23 26  1  0  0  0  0
 24 25  1  0  0  0  0
 24 27  1  0  0  0  0
 25 23  1  0  0  0  0
 27 26  1  0  0  0  0
 28 29  3  0  0  0  0
 31 30  1  0  0  0  0
 31 32  1  0  0  0  0
 34 36  1  0  0  0  0
 35 33  1  6  0  0  0
 35 36  1  0  0  0  0
 36 32  1  0  0  0  0
 37 40  1  6  0  0  0
 37 35  1  0  0  0  0
 38 37  1  0  0  0  0
 38 34  1  0  0  0  0
 39 43  2  0  0  0  0
 39 40  1  0  0  0  0
 41 42  1  0  0  0  0
 41 44  2  0  0  0  0
 42 39  1  0  0  0  0
 45 46  1  0  0  0  0
 45 41  1  0  0  0  0
 46 48  1  0  0  0  0
 48 47  1  1  0  0  0
 50 49  1  0  0  0  0
 50 48  1  0  0  0  0
M  END
>  <MODEL>
5

>  <REMARK>
 VINA RESULT:      -5.9      3.387      8.333
  Name = 
  18 active torsions:
  status: ('A' for Active; 'I' for Inactive)
    1  A    between atoms: C_2  and  C_22
    2  A    between atoms: C_2  and  C_44
    3  A    between atoms: N_7  and  C_23
    4  A    between atoms: C_11  and  C_12
    5  A    between atoms: C_11  and  O_32
    6  A    between atoms: C_12  and  N_18
    7  A    between atoms: C_16  and  C_22
    8  A    between atoms: C_20  and  C_47
    9  A    between atoms: C_25  and  C_28
   10  A    between atoms: S_27  and  C_48
   11  A    between atoms: C_28  and  O_32
   12  A    between atoms: C_28  and  C_33
   13  A    between atoms: N_29  and  C_38
   14  A    between atoms: C_30  and  C_48
   15  A    between atoms: C_34  and  C_47
   16  A    between atoms: C_38  and  C_46
   17  A    between atoms: C_38  and  C_50
   18  A    between atoms: C_40  and  C_44
                            x       y       z     vdW  Elec       q    Type
                         _______ _______ _______ _____ _____    ______ ____

>  <TORSDO>
F 18

$$$$
=
 OpenBabel11062412513D

 50 53  0  0  1  0  0  0  0  0999 V2000
  190.8300  176.9160  137.6000 C   0  0  1  0  0  3  0  0  0  0  0  0
  192.4420  173.5040  136.8160 C   0  0  0  0  0  2  0  0  0  0  0  0
  194.1460  174.9080  137.6890 C   0  0  0  0  0  2  0  0  0  0  0  0
  193.8050  173.9920  136.6030 N   0  0  0  0  0  2  0  0  0  0  0  0
  191.4500  174.6580  136.7050 C   0  0  0  0  0  2  0  0  0  0  0  0
  191.7820  175.7250  137.7450 C   0  0  0  0  0  3  0  0  0  0  0  0
  193.2530  176.1430  137.6270 C   0  0  0  0  0  2  0  0  0  0  0  0
  189.3620  176.8390  135.7300 O   0  0  0  0  0  0  0  0  0  0  0  0
  188.4610  175.9750  137.7070 N   0  0  0  0  0  2  0  0  0  0  0  0
  189.5270  176.5610  136.9480 C   0  0  0  0  0  0  0  0  0  0  0  0
  187.1150  175.7240  137.1930 C   0  0  1  0  0  3  0  0  0  0  0  0
  184.2260  177.1310  136.1370 C   0  0  0  0  0  0  0  0  0  0  0  0
  183.1090  176.9740  135.4410 C   0  0  0  0  0  2  0  0  0  0  0  0
  185.4540  176.6560  135.6990 O   0  0  0  0  0  0  0  0  0  0  0  0
  184.3130  177.8540  137.4330 C   0  0  2  0  0  3  0  0  0  0  0  0
  186.3620  178.3760  138.5560 O   0  0  0  0  0  0  0  0  0  0  0  0
  185.7900  177.7900  137.6500 C   0  0  0  0  0  0  0  0  0  0  0  0
  186.5030  176.9950  136.5960 C   0  0  1  0  0  3  0  0  0  0  0  0
  183.5820  177.0680  138.5180 C   0  0  0  0  0  2  0  0  0  0  0  0
  180.9400  177.6530  138.3840 S   0  0  0  0  0  0  0  0  0  0  0  0
  182.4010  177.8220  139.0450 C   0  0  0  0  0  2  0  0  0  0  0  0
  179.9330  178.7950  139.3450 C   0  0  0  0  0  2  0  0  0  0  0  0
  180.8570  181.2380  137.0090 C   0  0  0  0  0  2  0  0  0  0  0  0
  179.9690  180.1800  138.7270 C   0  0  0  0  0  3  0  0  0  0  0  0
  180.1560  180.0820  137.3400 O   0  0  0  0  0  0  0  0  0  0  0  0
  181.4260  181.7760  138.2890 C   0  0  0  0  0  2  0  0  0  0  0  0
  181.0070  180.9230  139.3050 O   0  0  0  0  0  0  0  0  0  0  0  0
  187.1530  173.7300  135.4110 C   0  0  0  0  0  3  0  0  0  0  0  0
  187.1360  174.6280  136.2140 C   0  0  0  0  0  0  0  0  0  0  0  0
  190.6070  177.5450  138.8290 O   0  0  0  0  0  0  0  0  0  0  0  0
  190.8060  176.5430  139.7800 C   0  0  0  0  0  2  0  0  0  0  0  0
  191.7010  177.0690  140.9020 C   0  0  0  0  0  2  0  0  0  0  0  0
  188.9370  176.0190  142.7910 C   0  0  0  0  0  1  0  0  0  0  0  0
  191.5010  178.2180  143.0050 C   0  0  0  0  0  2  0  0  0  0  0  0
  189.5990  177.1790  142.0540 C   0  0  2  0  0  3  0  0  0  0  0  0
  191.0500  177.0690  142.2160 N   0  0  0  0  0  0  0  0  0  0  0  0
  189.1930  178.5510  142.5940 C   0  0  2  0  0  3  0  0  0  0  0  0
  190.2780  178.9050  143.5700 C   0  0  0  0  0  2  0  0  0  0  0  0
  186.6710  178.7460  142.5070 C   0  0  0  0  0  0  0  0  0  0  0  0
  187.8860  178.5600  143.2400 N   0  0  0  0  0  2  0  0  0  0  0  0
  185.1930  178.4560  144.5590 C   0  0  0  0  0  0  0  0  0  0  0  0
  185.4000  178.6800  143.1600 N   0  0  0  0  0  2  0  0  0  0  0  0
  186.7130  178.9620  141.2660 O   0  0  0  0  0  0  0  0  0  0  0  0
  186.1660  178.3340  145.3510 O   0  0  0  0  0  0  0  0  0  0  0  0
  183.8020  178.3660  145.0840 C   0  0  0  0  0  2  0  0  0  0  0  0
  182.8670  179.3290  144.3550 C   0  0  0  0  0  2  0  0  0  0  0  0
  181.6810  179.2150  142.2600 O   0  0  0  0  0  1  0  0  0  0  0  0
  181.7970  178.6250  143.5200 C   0  0  2  0  0  3  0  0  0  0  0  0
  179.4410  179.4370  143.4530 C   0  0  0  0  0  1  0  0  0  0  0  0
  180.4530  178.6200  144.2340 C   0  0  0  0  0  2  0  0  0  0  0  0
  1 10  1  1  0  0  0
  1  6  1  0  0  0  0
  1 30  1  0  0  0  0
  4  2  1  0  0  0  0
  4  3  1  0  0  0  0
  5  2  1  0  0  0  0
  5  6  1  0  0  0  0
  7  3  1  0  0  0  0
  7  6  1  0  0  0  0
  8 10  2  0  0  0  0
 10  9  1  0  0  0  0
 11 29  1  6  0  0  0
 11  9  1  0  0  0  0
 12 15  1  0  0  0  0
 13 12  2  0  0  0  0
 14 12  1  0  0  0  0
 14 18  1  0  0  0  0
 15 17  1  0  0  0  0
 15 19  1  1  0  0  0
 17 16  2  0  0  0  0
 18 11  1  1  0  0  0
 18 17  1  0  0  0  0
 19 21  1  0  0  0  0
 20 21  1  0  0  0  0
 20 22  1  0  0  0  0
 23 25  1  0  0  0  0
 23 26  1  0  0  0  0
 24 27  1  0  0  0  0
 24 22  1  0  0  0  0
 25 24  1  0  0  0  0
 26 27  1  0  0  0  0
 28 29  3  0  0  0  0
 30 31  1  0  0  0  0
 31 32  1  0  0  0  0
 32 36  1  0  0  0  0
 34 38  1  0  0  0  0
 35 36  1  0  0  0  0
 35 37  1  0  0  0  0
 35 33  1  1  0  0  0
 36 34  1  0  0  0  0
 37 40  1  1  0  0  0
 37 38  1  0  0  0  0
 39 42  1  0  0  0  0
 39 40  1  0  0  0  0
 41 45  1  0  0  0  0
 41 44  2  0  0  0  0
 42 41  1  0  0  0  0
 43 39  2  0  0  0  0
 46 45  1  0  0  0  0
 48 47  1  6  0  0  0
 48 50  1  0  0  0  0
 48 46  1  0  0  0  0
 49 50  1  0  0  0  0
M  END
>  <MODEL>
6

>  <REMARK>
 VINA RESULT:      -5.5      3.154      7.316
  Name = 
  18 active torsions:
  status: ('A' for Active; 'I' for Inactive)
    1  A    between atoms: C_2  and  C_22
    2  A    between atoms: C_2  and  C_44
    3  A    between atoms: N_7  and  C_23
    4  A    between atoms: C_11  and  C_12
    5  A    between atoms: C_11  and  O_32
    6  A    between atoms: C_12  and  N_18
    7  A    between atoms: C_16  and  C_22
    8  A    between atoms: C_20  and  C_47
    9  A    between atoms: C_25  and  C_28
   10  A    between atoms: S_27  and  C_48
   11  A    between atoms: C_28  and  O_32
   12  A    between atoms: C_28  and  C_33
   13  A    between atoms: N_29  and  C_38
   14  A    between atoms: C_30  and  C_48
   15  A    between atoms: C_34  and  C_47
   16  A    between atoms: C_38  and  C_46
   17  A    between atoms: C_38  and  C_50
   18  A    between atoms: C_40  and  C_44
                            x       y       z     vdW  Elec       q    Type
                         _______ _______ _______ _____ _____    ______ ____

>  <TORSDO>
F 18

$$$$
=
 OpenBabel11062412513D

 50 53  0  0  1  0  0  0  0  0999 V2000
  183.7960  176.7950  136.7360 C   0  0  1  0  0  3  0  0  0  0  0  0
  181.6040  174.1750  134.9510 C   0  0  0  0  0  2  0  0  0  0  0  0
  180.2390  176.0710  135.3720 C   0  0  0  0  0  2  0  0  0  0  0  0
  180.3170  174.6170  135.4890 N   0  0  0  0  0  2  0  0  0  0  0  0
  182.7440  174.7180  135.8070 C   0  0  0  0  0  2  0  0  0  0  0  0
  182.6920  176.2430  135.8270 C   0  0  0  0  0  3  0  0  0  0  0  0
  181.3000  176.7230  136.2530 C   0  0  0  0  0  2  0  0  0  0  0  0
  183.3900  175.4750  138.6730 O   0  0  0  0  0  0  0  0  0  0  0  0
  183.2790  177.7840  139.0300 N   0  0  0  0  0  2  0  0  0  0  0  0
  183.4980  176.6370  138.1980 C   0  0  0  0  0  0  0  0  0  0  0  0
  182.8500  177.7270  140.4270 C   0  0  1  0  0  3  0  0  0  0  0  0
  183.6680  178.9850  143.4590 C   0  0  0  0  0  0  0  0  0  0  0  0
  183.3980  179.0080  144.7560 C   0  0  0  0  0  2  0  0  0  0  0  0
  182.6770  178.9860  142.4870 O   0  0  0  0  0  0  0  0  0  0  0  0
  185.0400  178.9920  142.8870 C   0  0  2  0  0  3  0  0  0  0  0  0
  185.5320  179.2260  140.5550 O   0  0  0  0  0  0  0  0  0  0  0  0
  184.6990  179.0690  141.4340 C   0  0  0  0  0  0  0  0  0  0  0  0
  183.2220  179.0110  141.1750 C   0  0  1  0  0  3  0  0  0  0  0  0
  185.7420  177.6730  143.1980 C   0  0  0  0  0  2  0  0  0  0  0  0
  188.1810  176.7240  143.8960 S   0  0  0  0  0  0  0  0  0  0  0  0
  187.2310  177.8270  143.2030 C   0  0  0  0  0  2  0  0  0  0  0  0
  189.8280  177.4150  143.6630 C   0  0  0  0  0  2  0  0  0  0  0  0
  191.3970  176.4440  146.6420 C   0  0  0  0  0  2  0  0  0  0  0  0
  190.5090  177.6200  145.0030 C   0  0  0  0  0  3  0  0  0  0  0  0
  191.4010  176.5670  145.2560 O   0  0  0  0  0  0  0  0  0  0  0  0
  190.1750  177.1610  147.1340 C   0  0  0  0  0  2  0  0  0  0  0  0
  189.5400  177.6890  146.0140 O   0  0  0  0  0  0  0  0  0  0  0  0
  180.2250  177.2370  140.5770 C   0  0  0  0  0  3  0  0  0  0  0  0
  181.4080  177.4570  140.5100 C   0  0  0  0  0  0  0  0  0  0  0  0
  185.0400  176.2350  136.4270 O   0  0  0  0  0  0  0  0  0  0  0  0
  185.4720  176.9340  135.2990 C   0  0  0  0  0  2  0  0  0  0  0  0
  186.9760  177.1860  135.3950 C   0  0  0  0  0  2  0  0  0  0  0  0
  189.2890  176.9200  138.0200 C   0  0  0  0  0  1  0  0  0  0  0  0
  187.6920  174.9270  135.7980 C   0  0  0  0  0  2  0  0  0  0  0  0
  189.0420  176.7290  136.5260 C   0  0  2  0  0  3  0  0  0  0  0  0
  187.6590  176.2900  136.3340 N   0  0  0  0  0  0  0  0  0  0  0  0
  189.9400  175.6640  135.8940 C   0  0  2  0  0  3  0  0  0  0  0  0
  189.1100  174.4130  135.9170 C   0  0  0  0  0  2  0  0  0  0  0  0
  191.9570  174.2590  136.4970 C   0  0  0  0  0  0  0  0  0  0  0  0
  191.1990  175.4680  136.6020 N   0  0  0  0  0  2  0  0  0  0  0  0
  193.8500  175.1220  137.9650 C   0  0  0  0  0  0  0  0  0  0  0  0
  193.2240  174.1250  137.1490 N   0  0  0  0  0  2  0  0  0  0  0  0
  191.5140  173.2970  135.8160 O   0  0  0  0  0  0  0  0  0  0  0  0
  193.2810  176.2210  138.2050 O   0  0  0  0  0  0  0  0  0  0  0  0
  195.1980  174.8510  138.5390 C   0  0  0  0  0  2  0  0  0  0  0  0
  196.0400  173.9900  137.6010 C   0  0  0  0  0  2  0  0  0  0  0  0
  197.8230  174.9230  138.9310 O   0  0  0  0  0  1  0  0  0  0  0  0
  197.5460  174.1970  137.7700 C   0  0  2  0  0  3  0  0  0  0  0  0
  197.0570  175.2820  135.5790 C   0  0  0  0  0  1  0  0  0  0  0  0
  198.1490  174.8850  136.5540 C   0  0  0  0  0  2  0  0  0  0  0  0
  1 30  1  6  0  0  0
  1 10  1  0  0  0  0
  2  4  1  0  0  0  0
  2  5  1  0  0  0  0
  3  4  1  0  0  0  0
  3  7  1  0  0  0  0
  5  6  1  0  0  0  0
  6  7  1  0  0  0  0
  6  1  1  0  0  0  0
  9 11  1  0  0  0  0
 10  8  2  0  0  0  0
 10  9  1  0  0  0  0
 11 29  1  6  0  0  0
 12 13  2  0  0  0  0
 14 12  1  0  0  0  0
 15 19  1  6  0  0  0
 15 12  1  0  0  0  0
 16 17  2  0  0  0  0
 17 15  1  0  0  0  0
 18 11  1  6  0  0  0
 18 17  1  0  0  0  0
 18 14  1  0  0  0  0
 19 21  1  0  0  0  0
 21 20  1  0  0  0  0
 22 20  1  0  0  0  0
 22 24  1  0  0  0  0
 23 26  1  0  0  0  0
 24 25  1  0  0  0  0
 24 27  1  0  0  0  0
 25 23  1  0  0  0  0
 27 26  1  0  0  0  0
 29 28  3  0  0  0  0
 31 32  1  0  0  0  0
 31 30  1  0  0  0  0
 32 36  1  0  0  0  0
 34 38  1  0  0  0  0
 34 36  1  0  0  0  0
 35 33  1  1  0  0  0
 36 35  1  0  0  0  0
 37 38  1  0  0  0  0
 37 35  1  0  0  0  0
 37 40  1  1  0  0  0
 39 40  1  0  0  0  0
 39 42  1  0  0  0  0
 41 44  2  0  0  0  0
 41 45  1  0  0  0  0
 42 41  1  0  0  0  0
 43 39  2  0  0  0  0
 46 48  1  0  0  0  0
 46 45  1  0  0  0  0
 48 47  1  1  0  0  0
 49 50  1  0  0  0  0
 50 48  1  0  0  0  0
M  END
>  <MODEL>
7

>  <REMARK>
 VINA RESULT:      -5.4      3.032      9.265
  Name = 
  18 active torsions:
  status: ('A' for Active; 'I' for Inactive)
    1  A    between atoms: C_2  and  C_22
    2  A    between atoms: C_2  and  C_44
    3  A    between atoms: N_7  and  C_23
    4  A    between atoms: C_11  and  C_12
    5  A    between atoms: C_11  and  O_32
    6  A    between atoms: C_12  and  N_18
    7  A    between atoms: C_16  and  C_22
    8  A    between atoms: C_20  and  C_47
    9  A    between atoms: C_25  and  C_28
   10  A    between atoms: S_27  and  C_48
   11  A    between atoms: C_28  and  O_32
   12  A    between atoms: C_28  and  C_33
   13  A    between atoms: N_29  and  C_38
   14  A    between atoms: C_30  and  C_48
   15  A    between atoms: C_34  and  C_47
   16  A    between atoms: C_38  and  C_46
   17  A    between atoms: C_38  and  C_50
   18  A    between atoms: C_40  and  C_44
                            x       y       z     vdW  Elec       q    Type
                         _______ _______ _______ _____ _____    ______ ____

>  <TORSDO>
F 18

$$$$
=
 OpenBabel11062412513D

 50 53  0  0  1  0  0  0  0  0999 V2000
  187.1640  178.1410  142.0280 C   0  0  1  0  0  3  0  0  0  0  0  0
  187.2240  177.7940  145.8660 C   0  0  0  0  0  2  0  0  0  0  0  0
  189.4780  177.8360  145.1230 C   0  0  0  0  0  2  0  0  0  0  0  0
  188.5210  177.1250  145.9670 N   0  0  0  0  0  2  0  0  0  0  0  0
  186.6840  177.6750  144.4430 C   0  0  0  0  0  2  0  0  0  0  0  0
  187.6670  178.3100  143.4650 C   0  0  0  0  0  3  0  0  0  0  0  0
  189.0680  177.7190  143.6590 C   0  0  0  0  0  2  0  0  0  0  0  0
  185.6380  179.9650  142.0130 O   0  0  0  0  0  0  0  0  0  0  0  0
  184.7000  177.9120  141.4010 N   0  0  0  0  0  2  0  0  0  0  0  0
  185.8060  178.7350  141.7980 C   0  0  0  0  0  0  0  0  0  0  0  0
  183.3180  178.3740  141.2880 C   0  0  1  0  0  3  0  0  0  0  0  0
  180.5990  177.9750  139.3160 C   0  0  0  0  0  0  0  0  0  0  0  0
  179.3450  178.3300  139.0760 C   0  0  0  0  0  2  0  0  0  0  0  0
  181.0830  177.7530  140.5970 O   0  0  0  0  0  0  0  0  0  0  0  0
  181.6200  177.7350  138.2620 C   0  0  2  0  0  3  0  0  0  0  0  0
  183.8000  176.8330  138.6710 O   0  0  0  0  0  0  0  0  0  0  0  0
  182.7530  177.2730  139.1200 C   0  0  0  0  0  0  0  0  0  0  0  0
  182.4400  177.3330  140.5860 C   0  0  1  0  0  3  0  0  0  0  0  0
  181.9770  179.0500  137.5740 C   0  0  0  0  0  2  0  0  0  0  0  0
  181.3460  181.5650  138.3570 S   0  0  0  0  0  0  0  0  0  0  0  0
  180.9390  180.1010  137.8180 C   0  0  0  0  0  2  0  0  0  0  0  0
  179.7510  182.3860  138.5200 C   0  0  0  0  0  2  0  0  0  0  0  0
  180.7750  184.9340  136.3430 C   0  0  0  0  0  2  0  0  0  0  0  0
  179.5850  183.4360  137.4370 C   0  0  0  0  0  3  0  0  0  0  0  0
  180.7900  183.6000  136.7370 O   0  0  0  0  0  0  0  0  0  0  0  0
  179.7460  185.6220  137.1900 C   0  0  0  0  0  2  0  0  0  0  0  0
  179.1930  184.6500  138.0170 O   0  0  0  0  0  0  0  0  0  0  0  0
  182.3460  179.0050  143.6980 C   0  0  0  0  0  3  0  0  0  0  0  0
  182.7840  178.7210  142.6120 C   0  0  0  0  0  0  0  0  0  0  0  0
  188.0820  178.6460  141.1010 O   0  0  0  0  0  0  0  0  0  0  0  0
  188.2530  177.6170  140.1750 C   0  0  0  0  0  2  0  0  0  0  0  0
  187.5870  177.9980  138.8530 C   0  0  0  0  0  2  0  0  0  0  0  0
  189.0840  175.0280  137.7350 C   0  0  0  0  0  1  0  0  0  0  0  0
  188.4880  178.1720  136.6300 C   0  0  0  0  0  2  0  0  0  0  0  0
  189.2970  176.4960  138.0930 C   0  0  2  0  0  3  0  0  0  0  0  0
  188.1040  177.2500  137.7020 N   0  0  0  0  0  0  0  0  0  0  0  0
  190.4840  177.1310  137.3660 C   0  0  2  0  0  3  0  0  0  0  0  0
  189.8760  177.7920  136.1630 C   0  0  0  0  0  2  0  0  0  0  0  0
  192.7500  176.0470  137.6750 C   0  0  0  0  0  0  0  0  0  0  0  0
  191.5090  176.1720  136.9740 N   0  0  0  0  0  2  0  0  0  0  0  0
  193.5610  174.1120  136.2340 C   0  0  0  0  0  0  0  0  0  0  0  0
  193.7060  175.0480  137.3080 N   0  0  0  0  0  2  0  0  0  0  0  0
  193.0080  176.8190  138.6370 O   0  0  0  0  0  0  0  0  0  0  0  0
  192.5490  174.1320  135.4820 O   0  0  0  0  0  0  0  0  0  0  0  0
  194.6270  173.0960  136.0050 C   0  0  0  0  0  2  0  0  0  0  0  0
  195.1760  172.5580  137.3230 C   0  0  0  0  0  2  0  0  0  0  0  0
  195.4960  170.3520  138.2420 O   0  0  0  0  0  1  0  0  0  0  0  0
  195.8580  171.1960  137.1900 C   0  0  2  0  0  3  0  0  0  0  0  0
  197.7720  172.7870  137.3290 C   0  0  0  0  0  1  0  0  0  0  0  0
  197.3710  171.3400  137.1170 C   0  0  0  0  0  2  0  0  0  0  0  0
  1 30  1  6  0  0  0
  1  6  1  0  0  0  0
  2  4  1  0  0  0  0
  3  4  1  0  0  0  0
  5  2  1  0  0  0  0
  6  7  1  0  0  0  0
  6  5  1  0  0  0  0
  7  3  1  0  0  0  0
  9 10  1  0  0  0  0
 10  8  2  0  0  0  0
 10  1  1  0  0  0  0
 11  9  1  0  0  0  0
 11 29  1  1  0  0  0
 12 14  1  0  0  0  0
 13 12  2  0  0  0  0
 15 19  1  1  0  0  0
 15 17  1  0  0  0  0
 15 12  1  0  0  0  0
 16 17  2  0  0  0  0
 17 18  1  0  0  0  0
 18 14  1  0  0  0  0
 18 11  1  1  0  0  0
 19 21  1  0  0  0  0
 20 22  1  0  0  0  0
 21 20  1  0  0  0  0
 23 25  1  0  0  0  0
 23 26  1  0  0  0  0
 24 27  1  0  0  0  0
 24 22  1  0  0  0  0
 25 24  1  0  0  0  0
 26 27  1  0  0  0  0
 29 28  3  0  0  0  0
 31 30  1  0  0  0  0
 32 31  1  0  0  0  0
 34 36  1  0  0  0  0
 35 33  1  6  0  0  0
 36 35  1  0  0  0  0
 36 32  1  0  0  0  0
 37 40  1  6  0  0  0
 37 35  1  0  0  0  0
 38 34  1  0  0  0  0
 38 37  1  0  0  0  0
 39 43  2  0  0  0  0
 40 39  1  0  0  0  0
 41 42  1  0  0  0  0
 42 39  1  0  0  0  0
 44 41  2  0  0  0  0
 45 41  1  0  0  0  0
 45 46  1  0  0  0  0
 48 46  1  0  0  0  0
 48 47  1  1  0  0  0
 50 48  1  0  0  0  0
 50 49  1  0  0  0  0
M  END
>  <MODEL>
8

>  <REMARK>
 VINA RESULT:      -5.4      4.005      8.712
  Name = 
  18 active torsions:
  status: ('A' for Active; 'I' for Inactive)
    1  A    between atoms: C_2  and  C_22
    2  A    between atoms: C_2  and  C_44
    3  A    between atoms: N_7  and  C_23
    4  A    between atoms: C_11  and  C_12
    5  A    between atoms: C_11  and  O_32
    6  A    between atoms: C_12  and  N_18
    7  A    between atoms: C_16  and  C_22
    8  A    between atoms: C_20  and  C_47
    9  A    between atoms: C_25  and  C_28
   10  A    between atoms: S_27  and  C_48
   11  A    between atoms: C_28  and  O_32
   12  A    between atoms: C_28  and  C_33
   13  A    between atoms: N_29  and  C_38
   14  A    between atoms: C_30  and  C_48
   15  A    between atoms: C_34  and  C_47
   16  A    between atoms: C_38  and  C_46
   17  A    between atoms: C_38  and  C_50
   18  A    between atoms: C_40  and  C_44
                            x       y       z     vdW  Elec       q    Type
                         _______ _______ _______ _____ _____    ______ ____

>  <TORSDO>
F 18

$$$$
=
 OpenBabel11062412513D

 50 53  0  0  1  0  0  0  0  0999 V2000
  185.7670  177.4230  136.2520 C   0  0  1  0  0  3  0  0  0  0  0  0
  183.4780  174.6060  134.9570 C   0  0  0  0  0  2  0  0  0  0  0  0
  182.2480  176.6320  134.8300 C   0  0  0  0  0  2  0  0  0  0  0  0
  182.2020  175.2440  135.2840 N   0  0  0  0  0  2  0  0  0  0  0  0
  184.6070  175.2590  135.7490 C   0  0  0  0  0  2  0  0  0  0  0  0
  184.6770  176.7460  135.4150 C   0  0  0  0  0  3  0  0  0  0  0  0
  183.3060  177.4020  135.6150 C   0  0  0  0  0  2  0  0  0  0  0  0
  186.4340  177.1400  138.5180 O   0  0  0  0  0  0  0  0  0  0  0  0
  184.1600  177.6040  138.2260 N   0  0  0  0  0  2  0  0  0  0  0  0
  185.4890  177.3990  137.7260 C   0  0  0  0  0  0  0  0  0  0  0  0
  183.7690  177.4620  139.6270 C   0  0  1  0  0  3  0  0  0  0  0  0
  183.0030  179.0070  142.5380 C   0  0  0  0  0  0  0  0  0  0  0  0
  182.1560  179.0950  143.5540 C   0  0  0  0  0  2  0  0  0  0  0  0
  182.5830  178.8410  141.2260 O   0  0  0  0  0  0  0  0  0  0  0  0
  184.4800  179.1110  142.6650 C   0  0  2  0  0  3  0  0  0  0  0  0
  185.9920  179.2270  140.8120 O   0  0  0  0  0  0  0  0  0  0  0  0
  184.8550  179.0500  141.2200 C   0  0  0  0  0  0  0  0  0  0  0  0
  183.6760  178.8270  140.3180 C   0  0  1  0  0  3  0  0  0  0  0  0
  185.0270  177.8940  143.4070 C   0  0  0  0  0  2  0  0  0  0  0  0
  187.3780  176.9490  144.3620 S   0  0  0  0  0  0  0  0  0  0  0  0
  186.3840  178.1590  143.9790 C   0  0  0  0  0  2  0  0  0  0  0  0
  188.8090  177.8080  145.0390 C   0  0  0  0  0  2  0  0  0  0  0  0
  190.9820  177.7480  142.2900 C   0  0  0  0  0  2  0  0  0  0  0  0
  190.0620  177.4350  144.2680 C   0  0  0  0  0  3  0  0  0  0  0  0
  190.3660  178.4350  143.3320 O   0  0  0  0  0  0  0  0  0  0  0  0
  190.6410  176.2990  142.4690 C   0  0  0  0  0  2  0  0  0  0  0  0
  189.8650  176.2080  143.6210 O   0  0  0  0  0  0  0  0  0  0  0  0
  181.4700  176.1120  139.8240 C   0  0  0  0  0  3  0  0  0  0  0  0
  182.5060  176.7210  139.7350 C   0  0  0  0  0  0  0  0  0  0  0  0
  187.0280  176.8800  135.9840 O   0  0  0  0  0  0  0  0  0  0  0  0
  187.7290  177.9070  135.3520 C   0  0  0  0  0  2  0  0  0  0  0  0
  189.0420  177.3640  134.7890 C   0  0  0  0  0  2  0  0  0  0  0  0
  190.9120  176.2800  137.5530 C   0  0  0  0  0  1  0  0  0  0  0  0
  189.6760  175.0490  134.6520 C   0  0  0  0  0  2  0  0  0  0  0  0
  190.9020  176.5170  136.0460 C   0  0  2  0  0  3  0  0  0  0  0  0
  189.5650  176.2140  135.5340 N   0  0  0  0  0  0  0  0  0  0  0  0
  191.8840  175.6230  135.2860 C   0  0  2  0  0  3  0  0  0  0  0  0
  191.0550  174.4550  134.8360 C   0  0  0  0  0  2  0  0  0  0  0  0
  194.2540  175.8960  136.1290 C   0  0  0  0  0  0  0  0  0  0  0  0
  193.0150  175.1820  136.0920 N   0  0  0  0  0  2  0  0  0  0  0  0
  195.2960  174.3320  137.8470 C   0  0  0  0  0  0  0  0  0  0  0  0
  195.3210  175.4750  136.9840 N   0  0  0  0  0  2  0  0  0  0  0  0
  194.4130  176.9170  135.4080 O   0  0  0  0  0  0  0  0  0  0  0  0
  194.2970  173.5650  137.8840 O   0  0  0  0  0  0  0  0  0  0  0  0
  196.4720  174.0500  138.7170 C   0  0  0  0  0  2  0  0  0  0  0  0
  197.7490  173.8960  137.8940 C   0  0  0  0  0  2  0  0  0  0  0  0
  197.7520  171.6290  137.0730 O   0  0  0  0  0  1  0  0  0  0  0  0
  197.5920  172.9640  136.6920 C   0  0  2  0  0  3  0  0  0  0  0  0
  198.3570  174.7590  135.1420 C   0  0  0  0  0  1  0  0  0  0  0  0
  198.5680  173.3230  135.5820 C   0  0  0  0  0  2  0  0  0  0  0  0
  1 30  1  1  0  0  0
  1 10  1  0  0  0  0
  2  4  1  0  0  0  0
  2  5  1  0  0  0  0
  3  4  1  0  0  0  0
  3  7  1  0  0  0  0
  6  7  1  0  0  0  0
  6  5  1  0  0  0  0
  6  1  1  0  0  0  0
  9 11  1  0  0  0  0
 10  9  1  0  0  0  0
 10  8  2  0  0  0  0
 11 29  1  6  0  0  0
 12 15  1  0  0  0  0
 12 13  2  0  0  0  0
 14 12  1  0  0  0  0
 15 19  1  1  0  0  0
 16 17  2  0  0  0  0
 17 15  1  0  0  0  0
 18 11  1  1  0  0  0
 18 17  1  0  0  0  0
 18 14  1  0  0  0  0
 19 21  1  0  0  0  0
 20 22  1  0  0  0  0
 21 20  1  0  0  0  0
 23 26  1  0  0  0  0
 23 25  1  0  0  0  0
 24 22  1  0  0  0  0
 25 24  1  0  0  0  0
 26 27  1  0  0  0  0
 27 24  1  0  0  0  0
 29 28  3  0  0  0  0
 31 30  1  0  0  0  0
 32 31  1  0  0  0  0
 32 36  1  0  0  0  0
 34 38  1  0  0  0  0
 34 36  1  0  0  0  0
 35 33  1  1  0  0  0
 36 35  1  0  0  0  0
 37 35  1  0  0  0  0
 37 40  1  1  0  0  0
 38 37  1  0  0  0  0
 39 42  1  0  0  0  0
 40 39  1  0  0  0  0
 41 44  2  0  0  0  0
 41 45  1  0  0  0  0
 42 41  1  0  0  0  0
 43 39  2  0  0  0  0
 46 45  1  0  0  0  0
 48 47  1  1  0  0  0
 48 46  1  0  0  0  0
 49 50  1  0  0  0  0
 50 48  1  0  0  0  0
M  END
>  <MODEL>
9

>  <REMARK>
 VINA RESULT:      -5.4      3.433      9.230
  Name = 
  18 active torsions:
  status: ('A' for Active; 'I' for Inactive)
    1  A    between atoms: C_2  and  C_22
    2  A    between atoms: C_2  and  C_44
    3  A    between atoms: N_7  and  C_23
    4  A    between atoms: C_11  and  C_12
    5  A    between atoms: C_11  and  O_32
    6  A    between atoms: C_12  and  N_18
    7  A    between atoms: C_16  and  C_22
    8  A    between atoms: C_20  and  C_47
    9  A    between atoms: C_25  and  C_28
   10  A    between atoms: S_27  and  C_48
   11  A    between atoms: C_28  and  O_32
   12  A    between atoms: C_28  and  C_33
   13  A    between atoms: N_29  and  C_38
   14  A    between atoms: C_30  and  C_48
   15  A    between atoms: C_34  and  C_47
   16  A    between atoms: C_38  and  C_46
   17  A    between atoms: C_38  and  C_50
   18  A    between atoms: C_40  and  C_44
                            x       y       z     vdW  Elec       q    Type
                         _______ _______ _______ _____ _____    ______ ____

>  <TORSDO>
F 18

$$$$
