=
 OpenBabel11062412083D

 54 59  0  0  1  0  0  0  0  0999 V2000
  181.3920  178.7910  138.2270 C   0  0  2  0  0  3  0  0  0  0  0  0
  182.7770  178.1470  138.2930 C   0  0  1  0  0  3  0  0  0  0  0  0
  181.6090  177.1570  136.4190 C   0  0  0  0  0  2  0  0  0  0  0  0
  183.6380  178.3060  136.0500 O   0  0  0  0  0  1  0  0  0  0  0  0
  183.0070  177.4450  136.9530 C   0  0  1  0  0  0  0  0  0  0  0  0
  180.6170  177.7840  137.3920 C   0  0  0  0  0  2  0  0  0  0  0  0
  181.5800  182.5300  137.8520 O   0  0  0  0  0  0  0  0  0  0  0  0
  181.3850  180.1670  137.5260 C   0  0  2  0  0  3  0  0  0  0  0  0
  181.2940  181.3230  138.5410 C   0  0  2  0  0  3  0  0  0  0  0  0
  180.5470  183.1130  135.7390 C   0  0  1  0  0  3  0  0  0  0  0  0
  179.3680  182.8750  135.0260 O   0  0  0  0  0  1  0  0  0  0  0  0
  179.9270  181.3860  138.8640 O   0  0  0  0  0  0  0  0  0  0  0  0
  180.8650  184.5930  135.6660 C   0  0  0  0  0  2  0  0  0  0  0  0
  179.7760  184.1090  137.8020 C   0  0  0  0  0  2  0  0  0  0  0  0
  180.0780  180.4460  136.8790 C   0  0  0  0  0  0  0  0  0  0  0  0
  180.3470  182.8270  137.2260 C   0  0  2  0  0  0  0  0  0  0  0  0
  180.2930  185.2300  136.9200 C   0  0  0  0  0  2  0  0  0  0  0  0
  179.4770  181.6180  137.5740 C   0  0  2  0  0  3  0  0  0  0  0  0
  179.6260  179.8950  135.8890 O   0  0  0  0  0  0  0  0  0  0  0  0
  184.6690  178.6170  139.7400 C   0  0  0  0  0  0  0  0  0  0  0  0
  185.4370  178.2150  140.7180 C   0  0  0  0  0  3  0  0  0  0  0  0
  183.9040  179.0150  138.7630 C   0  0  0  0  0  3  0  0  0  0  0  0
  186.1810  179.1690  141.6090 C   0  0  1  0  0  3  0  0  0  0  0  0
  185.5960  179.0640  145.8180 C   0  0  0  0  0  2  0  0  0  0  0  0
  185.7680  179.0890  143.0850 C   0  0  1  0  0  3  0  0  0  0  0  0
  186.3830  177.9350  145.1230 C   0  0  0  0  0  2  0  0  0  0  0  0
  182.1240  178.8760  144.3800 C   0  0  0  0  0  1  0  0  0  0  0  0
  184.1370  178.8990  145.7510 N   0  0  0  0  0  2  0  0  0  0  0  0
  183.6180  178.6320  144.4010 C   0  0  2  0  0  3  0  0  0  0  0  0
  184.2890  179.4570  143.2920 C   0  0  0  0  0  2  0  0  0  0  0  0
  186.0970  177.7920  143.6850 N   0  0  0  0  0  2  0  0  0  0  0  0
  187.6920  179.0310  141.4390 C   0  0  0  0  0  2  0  0  0  0  0  0
  188.0650  177.7150  140.7560 C   0  0  1  0  0  3  0  0  0  0  0  0
  188.6460  177.9220  139.3920 C   0  0  0  0  0  3  0  0  0  0  0  0
  188.9250  179.0420  139.0000 O   0  0  0  0  0  0  0  0  0  0  0  0
  188.9950  176.8680  141.6300 C   0  0  0  0  0  2  0  0  0  0  0  0
  190.2760  177.5830  142.0570 C   0  0  0  0  0  2  0  0  0  0  0  0
  191.1570  176.6800  142.8980 C   0  0  0  0  0  2  0  0  0  0  0  0
  191.4520  177.3340  144.2340 C   0  0  0  0  0  2  0  0  0  0  0  0
  190.6570  176.8350  146.5710 C   0  0  0  0  0  0  0  0  0  0  0  0
  190.3920  177.0200  145.1810 N   0  0  0  0  0  2  0  0  0  0  0  0
  191.8300  176.9720  147.0150 O   0  0  0  0  0  0  0  0  0  0  0  0
  189.6020  176.5210  147.4290 O   0  0  0  0  0  0  0  0  0  0  0  0
  188.1500  178.3340  148.5320 C   0  0  0  0  0  3  0  0  0  0  0  0
  188.8310  177.4860  148.0150 C   0  0  0  0  0  0  0  0  0  0  0  0
  183.8140  176.1320  137.0990 C   0  0  1  0  0  3  0  0  0  0  0  0
  182.3160  174.2200  137.8070 C   0  0  0  0  0  2  0  0  0  0  0  0
  183.5750  173.6230  137.2360 C   0  0  1  0  0  0  0  0  0  0  0  0
  183.0210  174.9030  136.6340 C   0  0  2  0  0  3  0  0  0  0  0  0
  184.6600  173.6560  138.0930 F   0  0  0  0  0  0  0  0  0  0  0  0
  183.3490  172.4640  136.5020 O   0  0  0  0  0  1  0  0  0  0  0  0
  185.1360  176.2080  136.3300 C   0  0  0  0  0  2  0  0  0  0  0  0
  186.3030  176.4400  137.2710 C   0  0  0  0  0  2  0  0  0  0  0  0
  187.3550  175.3790  137.0320 C   0  0  0  0  0  1  0  0  0  0  0  0
  1  6  1  6  0  0  0
  1  2  1  0  0  0  0
  2 22  1  6  0  0  0
  3  5  1  0  0  0  0
  3  6  1  0  0  0  0
  5  4  1  6  0  0  0
  5 46  1  0  0  0  0
  5  2  1  0  0  0  0
  8 15  1  6  0  0  0
  8  1  1  0  0  0  0
  8  9  1  0  0  0  0
  9  7  1  6  0  0  0
  9 12  1  0  0  0  0
 10 11  1  6  0  0  0
 10 16  1  0  0  0  0
 13 10  1  0  0  0  0
 13 17  1  0  0  0  0
 16 18  1  0  0  0  0
 16 14  1  1  0  0  0
 16  7  1  0  0  0  0
 17 14  1  0  0  0  0
 18 15  1  6  0  0  0
 18 12  1  0  0  0  0
 19 15  2  0  0  0  0
 20 21  2  0  0  0  0
 22 20  2  0  0  0  0
 23 21  1  6  0  0  0
 25 23  1  6  0  0  0
 25 30  1  0  0  0  0
 25 31  1  0  0  0  0
 26 24  1  0  0  0  0
 28 24  1  0  0  0  0
 29 27  1  1  0  0  0
 29 28  1  0  0  0  0
 30 29  1  0  0  0  0
 31 26  1  0  0  0  0
 32 23  1  0  0  0  0
 33 34  1  6  0  0  0
 33 32  1  0  0  0  0
 33 36  1  0  0  0  0
 35 34  2  0  0  0  0
 36 37  1  0  0  0  0
 37 38  1  0  0  0  0
 38 39  1  0  0  0  0
 39 41  1  0  0  0  0
 40 42  2  0  0  0  0
 40 43  1  0  0  0  0
 41 40  1  0  0  0  0
 43 45  1  0  0  0  0
 45 44  3  0  0  0  0
 46 52  1  6  0  0  0
 48 51  1  6  0  0  0
 48 47  1  0  0  0  0
 48 50  1  0  0  0  0
 49 46  1  1  0  0  0
 49 48  1  0  0  0  0
 49 47  1  0  0  0  0
 52 53  1  0  0  0  0
 54 53  1  0  0  0  0
M  END
>  <MODEL>
1

>  <REMARK>
 VINA RESULT:      -7.4      0.000      0.000
  Name = 
  18 active torsions:
  status: ('A' for Active; 'I' for Inactive)
    1  A    between atoms: C_1  and  C_54
    2  A    between atoms: C_4  and  O_34
    3  A    between atoms: C_6  and  C_14
    4  A    between atoms: N_7  and  C_12
    5  A    between atoms: C_10  and  C_14
    6  A    between atoms: C_10  and  C_24
    7  A    between atoms: C_11  and  C_14
    8  A    between atoms: C_12  and  C_41
    9  A    between atoms: C_13  and  C_24
   10  A    between atoms: C_16  and  C_25
   11  A    between atoms: C_17  and  C_19
   12  A    between atoms: C_20  and  C_26
   13  A    between atoms: C_24  and  C_46
   14  A    between atoms: C_25  and  C_45
   15  A    between atoms: C_25  and  C_54
   16  A    between atoms: O_34  and  C_43
   17  A    between atoms: C_41  and  C_51
   18  A    between atoms: C_46  and  C_51
                            x       y       z     vdW  Elec       q    Type
                         _______ _______ _______ _____ _____    ______ ____

>  <TORSDO>
F 18

$$$$
=
 OpenBabel11062412083D

 54 59  0  0  1  0  0  0  0  0999 V2000
  184.8480  179.0190  139.4720 C   0  0  2  0  0  3  0  0  0  0  0  0
  183.8260  178.5860  140.5240 C   0  0  1  0  0  3  0  0  0  0  0  0
  182.6630  178.7370  138.4060 C   0  0  0  0  0  2  0  0  0  0  0  0
  182.7190  176.6770  139.5600 O   0  0  0  0  0  1  0  0  0  0  0  0
  182.6060  178.0550  139.7690 C   0  0  1  0  0  0  0  0  0  0  0  0
  183.9520  179.5500  138.3640 C   0  0  0  0  0  2  0  0  0  0  0  0
  187.9360  177.0020  138.7270 O   0  0  0  0  0  0  0  0  0  0  0  0
  185.7100  177.8540  138.9350 C   0  0  2  0  0  3  0  0  0  0  0  0
  187.2110  178.2010  138.9550 C   0  0  2  0  0  3  0  0  0  0  0  0
  187.3990  175.4620  136.9350 C   0  0  1  0  0  3  0  0  0  0  0  0
  186.8210  175.4660  135.6620 O   0  0  0  0  0  1  0  0  0  0  0  0
  187.3960  178.9810  137.8000 O   0  0  0  0  0  0  0  0  0  0  0  0
  188.6620  174.6270  136.8890 C   0  0  0  0  0  2  0  0  0  0  0  0
  189.2560  176.9950  136.7250 C   0  0  0  0  0  2  0  0  0  0  0  0
  185.6130  177.7360  137.4580 C   0  0  0  0  0  0  0  0  0  0  0  0
  187.8670  176.8640  137.3220 C   0  0  2  0  0  0  0  0  0  0  0  0
  189.8180  175.5870  136.6600 C   0  0  0  0  0  2  0  0  0  0  0  0
  186.9630  178.0230  136.8990 C   0  0  2  0  0  3  0  0  0  0  0  0
  184.6410  177.3630  136.8220 O   0  0  0  0  0  0  0  0  0  0  0  0
  185.4950  177.9310  142.1610 C   0  0  0  0  0  0  0  0  0  0  0  0
  186.6670  178.1570  142.6930 C   0  0  0  0  0  3  0  0  0  0  0  0
  184.3260  177.7090  141.6310 C   0  0  0  0  0  3  0  0  0  0  0  0
  187.4760  177.0790  143.3590 C   0  0  1  0  0  3  0  0  0  0  0  0
  191.6790  177.6670  143.6000 C   0  0  0  0  0  2  0  0  0  0  0  0
  188.9930  177.2780  143.2350 C   0  0  1  0  0  3  0  0  0  0  0  0
  190.7220  178.8330  143.9140 C   0  0  0  0  0  2  0  0  0  0  0  0
  191.0530  176.8210  139.9870 C   0  0  0  0  0  1  0  0  0  0  0  0
  191.9290  177.4730  142.1650 N   0  0  0  0  0  2  0  0  0  0  0  0
  190.7120  177.4090  141.3410 C   0  0  2  0  0  3  0  0  0  0  0  0
  189.5630  176.6090  141.9730 C   0  0  0  0  0  2  0  0  0  0  0  0
  189.3790  178.6900  143.3260 N   0  0  0  0  0  2  0  0  0  0  0  0
  187.0520  176.8770  144.8110 C   0  0  0  0  0  2  0  0  0  0  0  0
  186.5350  178.1750  145.4340 C   0  0  1  0  0  3  0  0  0  0  0  0
  185.0990  178.0800  145.8460 C   0  0  0  0  0  3  0  0  0  0  0  0
  184.5820  178.9680  146.5020 O   0  0  0  0  0  0  0  0  0  0  0  0
  187.4160  178.6310  146.6010 C   0  0  0  0  0  2  0  0  0  0  0  0
  187.4670  177.6480  147.7690 C   0  0  0  0  0  2  0  0  0  0  0  0
  188.8410  177.6260  148.4120 C   0  0  0  0  0  2  0  0  0  0  0  0
  189.9130  177.4830  147.3490 C   0  0  0  0  0  2  0  0  0  0  0  0
  192.0500  176.1610  147.5130 C   0  0  0  0  0  0  0  0  0  0  0  0
  191.1960  177.2060  147.9770 N   0  0  0  0  0  2  0  0  0  0  0  0
  191.7140  175.4670  146.5130 O   0  0  0  0  0  0  0  0  0  0  0  0
  193.2620  175.9310  148.1650 O   0  0  0  0  0  0  0  0  0  0  0  0
  193.8860  177.1380  150.3490 C   0  0  0  0  0  3  0  0  0  0  0  0
  193.5950  176.5730  149.3260 C   0  0  0  0  0  0  0  0  0  0  0  0
  181.2730  178.3840  140.4840 C   0  0  1  0  0  3  0  0  0  0  0  0
  181.4380  179.0190  142.9270 C   0  0  0  0  0  2  0  0  0  0  0  0
  180.1890  179.6550  142.3760 C   0  0  1  0  0  0  0  0  0  0  0  0
  181.4160  179.5350  141.4880 C   0  0  2  0  0  3  0  0  0  0  0  0
  179.1230  178.7850  142.2310 F   0  0  0  0  0  0  0  0  0  0  0  0
  179.9420  180.9210  142.8970 O   0  0  0  0  0  1  0  0  0  0  0  0
  180.1720  178.7200  139.4730 C   0  0  0  0  0  2  0  0  0  0  0  0
  179.2220  177.5520  139.2920 C   0  0  0  0  0  2  0  0  0  0  0  0
  179.5500  176.4800  140.3080 C   0  0  0  0  0  1  0  0  0  0  0  0
  1  6  1  6  0  0  0
  1  2  1  0  0  0  0
  2 22  1  1  0  0  0
  3  5  1  0  0  0  0
  5  4  1  6  0  0  0
  5 46  1  0  0  0  0
  5  2  1  0  0  0  0
  6  3  1  0  0  0  0
  7  9  1  0  0  0  0
  8 15  1  6  0  0  0
  8  9  1  0  0  0  0
  8  1  1  0  0  0  0
  9 12  1  6  0  0  0
 10 11  1  6  0  0  0
 10 16  1  0  0  0  0
 13 10  1  0  0  0  0
 16 14  1  6  0  0  0
 16  7  1  0  0  0  0
 17 14  1  0  0  0  0
 17 13  1  0  0  0  0
 18 16  1  0  0  0  0
 18 15  1  1  0  0  0
 18 12  1  0  0  0  0
 19 15  2  0  0  0  0
 20 21  2  0  0  0  0
 22 20  2  0  0  0  0
 23 21  1  1  0  0  0
 23 32  1  0  0  0  0
 24 26  1  0  0  0  0
 25 31  1  0  0  0  0
 25 23  1  6  0  0  0
 28 24  1  0  0  0  0
 29 27  1  6  0  0  0
 29 30  1  0  0  0  0
 29 28  1  0  0  0  0
 30 25  1  0  0  0  0
 31 26  1  0  0  0  0
 33 32  1  1  0  0  0
 33 34  1  0  0  0  0
 33 36  1  0  0  0  0
 34 35  2  0  0  0  0
 36 37  1  0  0  0  0
 37 38  1  0  0  0  0
 39 41  1  0  0  0  0
 39 38  1  0  0  0  0
 40 41  1  0  0  0  0
 40 43  1  0  0  0  0
 42 40  2  0  0  0  0
 43 45  1  0  0  0  0
 45 44  3  0  0  0  0
 46 52  1  6  0  0  0
 48 50  1  6  0  0  0
 48 51  1  0  0  0  0
 48 47  1  0  0  0  0
 49 46  1  6  0  0  0
 49 48  1  0  0  0  0
 49 47  1  0  0  0  0
 53 52  1  0  0  0  0
 53 54  1  0  0  0  0
M  END
>  <MODEL>
2

>  <REMARK>
 VINA RESULT:      -7.1      3.427      6.875
  Name = 
  18 active torsions:
  status: ('A' for Active; 'I' for Inactive)
    1  A    between atoms: C_1  and  C_54
    2  A    between atoms: C_4  and  O_34
    3  A    between atoms: C_6  and  C_14
    4  A    between atoms: N_7  and  C_12
    5  A    between atoms: C_10  and  C_14
    6  A    between atoms: C_10  and  C_24
    7  A    between atoms: C_11  and  C_14
    8  A    between atoms: C_12  and  C_41
    9  A    between atoms: C_13  and  C_24
   10  A    between atoms: C_16  and  C_25
   11  A    between atoms: C_17  and  C_19
   12  A    between atoms: C_20  and  C_26
   13  A    between atoms: C_24  and  C_46
   14  A    between atoms: C_25  and  C_45
   15  A    between atoms: C_25  and  C_54
   16  A    between atoms: O_34  and  C_43
   17  A    between atoms: C_41  and  C_51
   18  A    between atoms: C_46  and  C_51
                            x       y       z     vdW  Elec       q    Type
                         _______ _______ _______ _____ _____    ______ ____

>  <TORSDO>
F 18

$$$$
=
 OpenBabel11062412083D

 54 59  0  0  1  0  0  0  0  0999 V2000
  182.7050  177.2790  136.3860 C   0  0  2  0  0  3  0  0  0  0  0  0
  182.8430  178.0770  137.6830 C   0  0  1  0  0  3  0  0  0  0  0  0
  180.4790  177.9000  137.1910 C   0  0  0  0  0  2  0  0  0  0  0  0
  181.3150  177.0250  139.2190 O   0  0  0  0  0  1  0  0  0  0  0  0
  181.4610  178.1030  138.3400 C   0  0  1  0  0  0  0  0  0  0  0  0
  181.3040  177.6570  135.9320 C   0  0  0  0  0  2  0  0  0  0  0  0
  184.2750  173.8730  136.6860 O   0  0  0  0  0  0  0  0  0  0  0  0
  182.7950  175.7510  136.5910 C   0  0  2  0  0  3  0  0  0  0  0  0
  184.1830  175.2050  136.2050 C   0  0  2  0  0  3  0  0  0  0  0  0
  182.5360  172.2240  136.3280 C   0  0  1  0  0  3  0  0  0  0  0  0
  181.5220  171.9240  135.4130 O   0  0  0  0  0  1  0  0  0  0  0  0
  184.1310  175.0990  134.8040 O   0  0  0  0  0  0  0  0  0  0  0  0
  183.2830  170.9470  136.6560 C   0  0  0  0  0  2  0  0  0  0  0  0
  184.5440  172.2080  134.9820 C   0  0  0  0  0  2  0  0  0  0  0  0
  182.0560  175.0120  135.5350 C   0  0  0  0  0  0  0  0  0  0  0  0
  183.5820  173.1400  135.6950 C   0  0  2  0  0  0  0  0  0  0  0  0
  184.4920  170.8940  135.7390 C   0  0  0  0  0  2  0  0  0  0  0  0
  183.0550  174.2280  134.7580 C   0  0  2  0  0  3  0  0  0  0  0  0
  180.8450  174.9630  135.3960 O   0  0  0  0  0  0  0  0  0  0  0  0
  185.2020  177.9800  138.2470 C   0  0  0  0  0  0  0  0  0  0  0  0
  186.4310  178.2600  137.9040 C   0  0  0  0  0  3  0  0  0  0  0  0
  183.9760  177.7040  138.5900 C   0  0  0  0  0  3  0  0  0  0  0  0
  187.6120  177.4790  138.4070 C   0  0  1  0  0  3  0  0  0  0  0  0
  189.7640  176.2020  134.9700 C   0  0  0  0  0  2  0  0  0  0  0  0
  188.5530  176.9940  137.2960 C   0  0  1  0  0  3  0  0  0  0  0  0
  188.6700  175.2970  135.5720 C   0  0  0  0  0  2  0  0  0  0  0  0
  192.3790  176.5100  137.6590 C   0  0  0  0  0  1  0  0  0  0  0  0
  191.0620  176.0970  135.6510 N   0  0  0  0  0  2  0  0  0  0  0  0
  190.9930  176.2340  137.1140 C   0  0  2  0  0  3  0  0  0  0  0  0
  190.0250  177.3240  137.6010 C   0  0  0  0  0  2  0  0  0  0  0  0
  188.3650  175.5730  136.9860 N   0  0  0  0  0  2  0  0  0  0  0  0
  188.3680  178.2440  139.4910 C   0  0  0  0  0  2  0  0  0  0  0  0
  188.4000  177.4700  140.8090 C   0  0  1  0  0  3  0  0  0  0  0  0
  189.7610  176.9330  141.1240 C   0  0  0  0  0  3  0  0  0  0  0  0
  190.7430  177.6540  141.0640 O   0  0  0  0  0  0  0  0  0  0  0  0
  187.8540  178.3070  141.9700 C   0  0  0  0  0  2  0  0  0  0  0  0
  187.3240  177.4820  143.1410 C   0  0  0  0  0  2  0  0  0  0  0  0
  188.2290  177.6000  144.3530 C   0  0  0  0  0  2  0  0  0  0  0  0
  187.4060  177.8770  145.5960 C   0  0  0  0  0  2  0  0  0  0  0  0
  185.0990  178.6940  146.1880 C   0  0  0  0  0  0  0  0  0  0  0  0
  186.0900  178.3710  145.2150 N   0  0  0  0  0  2  0  0  0  0  0  0
  185.3610  178.5840  147.4180 O   0  0  0  0  0  0  0  0  0  0  0  0
  183.8500  179.1490  145.7640 O   0  0  0  0  0  0  0  0  0  0  0  0
  183.0330  178.8410  143.3440 C   0  0  0  0  0  3  0  0  0  0  0  0
  183.4160  178.9840  144.4770 C   0  0  0  0  0  0  0  0  0  0  0  0
  181.1730  179.4370  139.0700 C   0  0  1  0  0  3  0  0  0  0  0  0
  179.5050  178.8930  140.8930 C   0  0  0  0  0  2  0  0  0  0  0  0
  180.0120  180.2890  141.1430 C   0  0  1  0  0  0  0  0  0  0  0  0
  180.9600  179.2450  140.5780 C   0  0  2  0  0  3  0  0  0  0  0  0
  179.4520  181.2540  140.3250 F   0  0  0  0  0  0  0  0  0  0  0  0
  180.1730  180.5820  142.4930 O   0  0  0  0  0  1  0  0  0  0  0  0
  182.2990  180.4480  138.8370 C   0  0  0  0  0  2  0  0  0  0  0  0
  181.7530  181.7620  138.3110 C   0  0  0  0  0  2  0  0  0  0  0  0
  180.9100  181.4950  137.0830 C   0  0  0  0  0  1  0  0  0  0  0  0
  1  6  1  1  0  0  0
  1  8  1  0  0  0  0
  1  2  1  0  0  0  0
  2  5  1  0  0  0  0
  2 22  1  1  0  0  0
  3  5  1  0  0  0  0
  5 46  1  0  0  0  0
  5  4  1  1  0  0  0
  6  3  1  0  0  0  0
  8 15  1  6  0  0  0
  9 12  1  6  0  0  0
  9  8  1  0  0  0  0
  9  7  1  0  0  0  0
 10 11  1  6  0  0  0
 10 13  1  0  0  0  0
 14 17  1  0  0  0  0
 16 14  1  6  0  0  0
 16 10  1  0  0  0  0
 16  7  1  0  0  0  0
 17 13  1  0  0  0  0
 18 12  1  1  0  0  0
 18 15  1  0  0  0  0
 18 16  1  0  0  0  0
 19 15  2  0  0  0  0
 20 22  2  0  0  0  0
 21 20  2  0  0  0  0
 23 21  1  6  0  0  0
 23 32  1  0  0  0  0
 24 26  1  0  0  0  0
 24 28  1  0  0  0  0
 25 30  1  0  0  0  0
 25 23  1  1  0  0  0
 26 31  1  0  0  0  0
 28 29  1  0  0  0  0
 29 30  1  0  0  0  0
 29 27  1  6  0  0  0
 31 25  1  0  0  0  0
 33 32  1  6  0  0  0
 33 34  1  0  0  0  0
 33 36  1  0  0  0  0
 35 34  2  0  0  0  0
 36 37  1  0  0  0  0
 37 38  1  0  0  0  0
 38 39  1  0  0  0  0
 40 42  2  0  0  0  0
 41 39  1  0  0  0  0
 41 40  1  0  0  0  0
 43 40  1  0  0  0  0
 44 45  3  0  0  0  0
 45 43  1  0  0  0  0
 46 52  1  1  0  0  0
 47 48  1  0  0  0  0
 48 50  1  6  0  0  0
 48 51  1  0  0  0  0
 49 46  1  6  0  0  0
 49 47  1  0  0  0  0
 49 48  1  0  0  0  0
 53 52  1  0  0  0  0
 54 53  1  0  0  0  0
M  END
>  <MODEL>
3

>  <REMARK>
 VINA RESULT:      -6.9      3.143      7.524
  Name = 
  18 active torsions:
  status: ('A' for Active; 'I' for Inactive)
    1  A    between atoms: C_1  and  C_54
    2  A    between atoms: C_4  and  O_34
    3  A    between atoms: C_6  and  C_14
    4  A    between atoms: N_7  and  C_12
    5  A    between atoms: C_10  and  C_14
    6  A    between atoms: C_10  and  C_24
    7  A    between atoms: C_11  and  C_14
    8  A    between atoms: C_12  and  C_41
    9  A    between atoms: C_13  and  C_24
   10  A    between atoms: C_16  and  C_25
   11  A    between atoms: C_17  and  C_19
   12  A    between atoms: C_20  and  C_26
   13  A    between atoms: C_24  and  C_46
   14  A    between atoms: C_25  and  C_45
   15  A    between atoms: C_25  and  C_54
   16  A    between atoms: O_34  and  C_43
   17  A    between atoms: C_41  and  C_51
   18  A    between atoms: C_46  and  C_51
                            x       y       z     vdW  Elec       q    Type
                         _______ _______ _______ _____ _____    ______ ____

>  <TORSDO>
F 18

$$$$
=
 OpenBabel11062412083D

 54 59  0  0  1  0  0  0  0  0999 V2000
  186.1420  179.2220  142.0190 C   0  0  2  0  0  3  0  0  0  0  0  0
  187.2560  178.4380  142.7150 C   0  0  1  0  0  3  0  0  0  0  0  0
  185.5380  178.8710  144.3640 C   0  0  0  0  0  2  0  0  0  0  0  0
  186.1270  176.6420  143.8540 O   0  0  0  0  0  1  0  0  0  0  0  0
  186.6780  177.9140  144.0310 C   0  0  1  0  0  0  0  0  0  0  0  0
  185.4130  179.8460  143.1990 C   0  0  0  0  0  2  0  0  0  0  0  0
  184.5090  177.6370  139.0230 O   0  0  0  0  0  0  0  0  0  0  0  0
  185.1700  178.3290  141.2160 C   0  0  2  0  0  3  0  0  0  0  0  0
  185.1940  178.6710  139.7130 C   0  0  2  0  0  3  0  0  0  0  0  0
  182.3410  176.8060  139.7170 C   0  0  1  0  0  3  0  0  0  0  0  0
  181.1970  177.2430  140.3920 O   0  0  0  0  0  1  0  0  0  0  0  0
  184.3710  179.8060  139.6090 O   0  0  0  0  0  0  0  0  0  0  0  0
  181.9100  176.0590  138.4710 C   0  0  0  0  0  2  0  0  0  0  0  0
  182.5330  178.3450  137.8630 C   0  0  0  0  0  2  0  0  0  0  0  0
  183.7560  178.7300  141.4290 C   0  0  0  0  0  0  0  0  0  0  0  0
  183.1520  177.9940  139.2030 C   0  0  2  0  0  0  0  0  0  0  0  0
  181.9400  177.0560  137.3250 C   0  0  0  0  0  2  0  0  0  0  0  0
  183.2290  179.2130  140.1230 C   0  0  2  0  0  3  0  0  0  0  0  0
  183.1070  178.5850  142.4520 O   0  0  0  0  0  0  0  0  0  0  0  0
  188.5450  177.7790  140.7660 C   0  0  0  0  0  0  0  0  0  0  0  0
  189.1070  178.1370  139.6420 C   0  0  0  0  0  3  0  0  0  0  0  0
  187.9870  177.4240  141.8880 C   0  0  0  0  0  3  0  0  0  0  0  0
  189.3500  177.1740  138.5140 C   0  0  1  0  0  3  0  0  0  0  0  0
  187.0310  177.9750  135.0430 C   0  0  0  0  0  2  0  0  0  0  0  0
  188.3710  177.3310  137.3430 C   0  0  1  0  0  3  0  0  0  0  0  0
  187.2050  179.0650  136.1190 C   0  0  0  0  0  2  0  0  0  0  0  0
  185.2090  175.1700  136.7660 C   0  0  0  0  0  1  0  0  0  0  0  0
  185.9770  176.9980  135.3520 N   0  0  0  0  0  2  0  0  0  0  0  0
  186.0660  176.4170  136.7000 C   0  0  2  0  0  3  0  0  0  0  0  0
  187.4960  176.0800  137.1500 C   0  0  0  0  0  2  0  0  0  0  0  0
  187.5640  178.5500  137.4520 N   0  0  0  0  0  2  0  0  0  0  0  0
  190.8020  177.2190  138.0440 C   0  0  0  0  0  2  0  0  0  0  0  0
  191.4480  175.8340  138.0730 C   0  0  1  0  0  3  0  0  0  0  0  0
  190.7120  174.8400  137.2290 C   0  0  0  0  0  3  0  0  0  0  0  0
  190.4500  173.7310  137.6620 O   0  0  0  0  0  0  0  0  0  0  0  0
  192.9300  175.8930  137.6900 C   0  0  0  0  0  2  0  0  0  0  0  0
  193.1900  175.8420  136.1850 C   0  0  0  0  0  2  0  0  0  0  0  0
  194.6460  176.1280  135.8670 C   0  0  0  0  0  2  0  0  0  0  0  0
  195.4590  174.8510  135.9470 C   0  0  0  0  0  2  0  0  0  0  0  0
  196.7180  174.4030  138.0810 C   0  0  0  0  0  0  0  0  0  0  0  0
  196.6100  175.0530  136.8160 N   0  0  0  0  0  2  0  0  0  0  0  0
  195.8170  173.6060  138.4620 O   0  0  0  0  0  0  0  0  0  0  0  0
  197.8370  174.6470  138.8790 O   0  0  0  0  0  0  0  0  0  0  0  0
  197.6350  175.5460  141.2800 C   0  0  0  0  0  3  0  0  0  0  0  0
  197.7280  175.1250  140.1560 C   0  0  0  0  0  0  0  0  0  0  0  0
  187.7210  177.8950  145.1750 C   0  0  1  0  0  3  0  0  0  0  0  0
  186.6140  178.5470  147.3530 C   0  0  0  0  0  2  0  0  0  0  0  0
  187.9270  177.8920  147.6900 C   0  0  1  0  0  0  0  0  0  0  0  0
  187.1310  177.3900  146.4970 C   0  0  2  0  0  3  0  0  0  0  0  0
  189.0320  178.7050  147.5120 F   0  0  0  0  0  0  0  0  0  0  0  0
  187.8690  177.0990  148.8310 O   0  0  0  0  0  1  0  0  0  0  0  0
  188.9370  177.0430  144.7980 C   0  0  0  0  0  2  0  0  0  0  0  0
  190.2250  177.8290  144.9530 C   0  0  0  0  0  2  0  0  0  0  0  0
  190.9650  177.8360  143.6330 C   0  0  0  0  0  1  0  0  0  0  0  0
  1  2  1  0  0  0  0
  1  6  1  1  0  0  0
  2 22  1  6  0  0  0
  2  5  1  0  0  0  0
  5  4  1  6  0  0  0
  5  3  1  0  0  0  0
  5 46  1  0  0  0  0
  6  3  1  0  0  0  0
  7 16  1  0  0  0  0
  8 15  1  1  0  0  0
  8  1  1  0  0  0  0
  9  7  1  6  0  0  0
  9  8  1  0  0  0  0
 10 11  1  6  0  0  0
 12  9  1  0  0  0  0
 13 10  1  0  0  0  0
 15 19  2  0  0  0  0
 16 14  1  6  0  0  0
 16 10  1  0  0  0  0
 16 18  1  0  0  0  0
 17 14  1  0  0  0  0
 17 13  1  0  0  0  0
 18 12  1  6  0  0  0
 18 15  1  0  0  0  0
 20 22  2  0  0  0  0
 21 20  2  0  0  0  0
 23 32  1  6  0  0  0
 23 21  1  0  0  0  0
 24 28  1  0  0  0  0
 24 26  1  0  0  0  0
 25 31  1  0  0  0  0
 25 23  1  1  0  0  0
 26 31  1  0  0  0  0
 28 29  1  0  0  0  0
 29 27  1  6  0  0  0
 29 30  1  0  0  0  0
 30 25  1  0  0  0  0
 32 33  1  0  0  0  0
 33 34  1  6  0  0  0
 34 35  2  0  0  0  0
 36 33  1  0  0  0  0
 37 36  1  0  0  0  0
 38 39  1  0  0  0  0
 38 37  1  0  0  0  0
 39 41  1  0  0  0  0
 40 42  2  0  0  0  0
 40 43  1  0  0  0  0
 41 40  1  0  0  0  0
 43 45  1  0  0  0  0
 45 44  3  0  0  0  0
 46 52  1  6  0  0  0
 47 48  1  0  0  0  0
 48 50  1  6  0  0  0
 48 51  1  0  0  0  0
 49 46  1  6  0  0  0
 49 47  1  0  0  0  0
 49 48  1  0  0  0  0
 52 53  1  0  0  0  0
 54 53  1  0  0  0  0
M  END
>  <MODEL>
4

>  <REMARK>
 VINA RESULT:      -6.8      4.538      8.345
  Name = 
  18 active torsions:
  status: ('A' for Active; 'I' for Inactive)
    1  A    between atoms: C_1  and  C_54
    2  A    between atoms: C_4  and  O_34
    3  A    between atoms: C_6  and  C_14
    4  A    between atoms: N_7  and  C_12
    5  A    between atoms: C_10  and  C_14
    6  A    between atoms: C_10  and  C_24
    7  A    between atoms: C_11  and  C_14
    8  A    between atoms: C_12  and  C_41
    9  A    between atoms: C_13  and  C_24
   10  A    between atoms: C_16  and  C_25
   11  A    between atoms: C_17  and  C_19
   12  A    between atoms: C_20  and  C_26
   13  A    between atoms: C_24  and  C_46
   14  A    between atoms: C_25  and  C_45
   15  A    between atoms: C_25  and  C_54
   16  A    between atoms: O_34  and  C_43
   17  A    between atoms: C_41  and  C_51
   18  A    between atoms: C_46  and  C_51
                            x       y       z     vdW  Elec       q    Type
                         _______ _______ _______ _____ _____    ______ ____

>  <TORSDO>
F 18

$$$$
=
 OpenBabel11062412083D

 54 59  0  0  1  0  0  0  0  0999 V2000
  182.2240  176.9890  136.7290 C   0  0  2  0  0  3  0  0  0  0  0  0
  182.3990  177.7240  138.0580 C   0  0  1  0  0  3  0  0  0  0  0  0
  180.0230  177.4230  137.7070 C   0  0  0  0  0  2  0  0  0  0  0  0
  181.0420  176.4990  139.6250 O   0  0  0  0  0  1  0  0  0  0  0  0
  181.0650  177.6270  138.8010 C   0  0  1  0  0  0  0  0  0  0  0  0
  180.7750  177.2990  136.3860 C   0  0  0  0  0  2  0  0  0  0  0  0
  184.0240  173.6860  136.8230 O   0  0  0  0  0  0  0  0  0  0  0  0
  182.4190  175.4600  136.8410 C   0  0  2  0  0  3  0  0  0  0  0  0
  183.8400  175.0350  136.4230 C   0  0  2  0  0  3  0  0  0  0  0  0
  182.4000  171.9460  136.3660 C   0  0  1  0  0  3  0  0  0  0  0  0
  181.4050  171.6330  135.4350 O   0  0  0  0  0  1  0  0  0  0  0  0
  183.7880  175.0100  135.0180 O   0  0  0  0  0  0  0  0  0  0  0  0
  183.2340  170.7060  136.6170 C   0  0  0  0  0  2  0  0  0  0  0  0
  184.3980  172.1480  135.0210 C   0  0  0  0  0  2  0  0  0  0  0  0
  181.7270  174.7380  135.7430 C   0  0  0  0  0  0  0  0  0  0  0  0
  183.3790  172.9680  135.7900 C   0  0  2  0  0  0  0  0  0  0  0  0
  184.4400  170.7910  135.6980 C   0  0  0  0  0  2  0  0  0  0  0  0
  182.7740  174.0720  134.9200 C   0  0  2  0  0  3  0  0  0  0  0  0
  180.5220  174.6140  135.6020 O   0  0  0  0  0  0  0  0  0  0  0  0
  184.7760  177.8510  138.5330 C   0  0  0  0  0  0  0  0  0  0  0  0
  185.9450  178.3300  138.1980 C   0  0  0  0  0  3  0  0  0  0  0  0
  183.6100  177.3770  138.8690 C   0  0  0  0  0  3  0  0  0  0  0  0
  187.2340  177.6430  138.5510 C   0  0  1  0  0  3  0  0  0  0  0  0
  189.4730  177.2350  134.9600 C   0  0  0  0  0  2  0  0  0  0  0  0
  188.1130  177.3150  137.3360 C   0  0  1  0  0  3  0  0  0  0  0  0
  187.9410  177.0640  134.9340 C   0  0  0  0  0  2  0  0  0  0  0  0
  190.7360  174.4690  137.1770 C   0  0  0  0  0  1  0  0  0  0  0  0
  190.1970  176.0290  135.3850 N   0  0  0  0  0  2  0  0  0  0  0  0
  189.7000  175.4310  136.6330 C   0  0  2  0  0  3  0  0  0  0  0  0
  189.3280  176.4520  137.7190 C   0  0  0  0  0  2  0  0  0  0  0  0
  187.3460  176.7210  136.2370 N   0  0  0  0  0  2  0  0  0  0  0  0
  188.0090  178.4190  139.6130 C   0  0  0  0  0  2  0  0  0  0  0  0
  187.5550  178.0490  141.0250 C   0  0  1  0  0  3  0  0  0  0  0  0
  188.7050  177.8450  141.9610 C   0  0  0  0  0  3  0  0  0  0  0  0
  188.5270  177.8140  143.1670 O   0  0  0  0  0  0  0  0  0  0  0  0
  186.5610  179.0710  141.5860 C   0  0  0  0  0  2  0  0  0  0  0  0
  185.2850  178.4540  142.1570 C   0  0  0  0  0  2  0  0  0  0  0  0
  184.5920  179.4070  143.1130 C   0  0  0  0  0  2  0  0  0  0  0  0
  184.2730  178.7000  144.4160 C   0  0  0  0  0  2  0  0  0  0  0  0
  185.9200  178.1280  146.2320 C   0  0  0  0  0  0  0  0  0  0  0  0
  185.4510  177.9890  144.8930 N   0  0  0  0  0  2  0  0  0  0  0  0
  185.2950  178.8590  147.0490 O   0  0  0  0  0  0  0  0  0  0  0  0
  187.0640  177.4330  146.6280 O   0  0  0  0  0  0  0  0  0  0  0  0
  188.5340  178.2280  148.5840 C   0  0  0  0  0  3  0  0  0  0  0  0
  187.8470  177.8550  147.6680 C   0  0  0  0  0  0  0  0  0  0  0  0
  180.7460  178.9010  139.6220 C   0  0  1  0  0  3  0  0  0  0  0  0
  179.6860  178.3940  141.8620 C   0  0  0  0  0  2  0  0  0  0  0  0
  180.2870  179.7720  141.9460 C   0  0  1  0  0  0  0  0  0  0  0  0
  180.9890  178.7040  141.1240 C   0  0  2  0  0  3  0  0  0  0  0  0
  179.5370  180.7590  141.3310 F   0  0  0  0  0  0  0  0  0  0  0  0
  180.8540  180.0500  143.1850 O   0  0  0  0  0  1  0  0  0  0  0  0
  181.5610  180.0980  139.1240 C   0  0  0  0  0  2  0  0  0  0  0  0
  180.6830  181.0870  138.3830 C   0  0  0  0  0  2  0  0  0  0  0  0
  180.9480  180.9740  136.8980 C   0  0  0  0  0  1  0  0  0  0  0  0
  1  6  1  1  0  0  0
  1  8  1  0  0  0  0
  1  2  1  0  0  0  0
  2  5  1  0  0  0  0
  2 22  1  1  0  0  0
  3  5  1  0  0  0  0
  5 46  1  0  0  0  0
  5  4  1  1  0  0  0
  6  3  1  0  0  0  0
  8 15  1  6  0  0  0
  9 12  1  6  0  0  0
  9  7  1  0  0  0  0
  9  8  1  0  0  0  0
 10 11  1  6  0  0  0
 10 13  1  0  0  0  0
 14 17  1  0  0  0  0
 16 14  1  6  0  0  0
 16 10  1  0  0  0  0
 16  7  1  0  0  0  0
 17 13  1  0  0  0  0
 18 12  1  1  0  0  0
 18 15  1  0  0  0  0
 18 16  1  0  0  0  0
 19 15  2  0  0  0  0
 20 22  2  0  0  0  0
 21 20  2  0  0  0  0
 23 21  1  6  0  0  0
 23 32  1  0  0  0  0
 24 28  1  0  0  0  0
 25 30  1  0  0  0  0
 25 23  1  1  0  0  0
 26 24  1  0  0  0  0
 26 31  1  0  0  0  0
 28 29  1  0  0  0  0
 29 27  1  1  0  0  0
 29 30  1  0  0  0  0
 31 25  1  0  0  0  0
 33 32  1  6  0  0  0
 33 36  1  0  0  0  0
 33 34  1  0  0  0  0
 34 35  2  0  0  0  0
 36 37  1  0  0  0  0
 37 38  1  0  0  0  0
 38 39  1  0  0  0  0
 39 41  1  0  0  0  0
 40 43  1  0  0  0  0
 40 42  2  0  0  0  0
 41 40  1  0  0  0  0
 43 45  1  0  0  0  0
 45 44  3  0  0  0  0
 46 52  1  6  0  0  0
 47 48  1  0  0  0  0
 48 50  1  6  0  0  0
 48 51  1  0  0  0  0
 49 46  1  6  0  0  0
 49 47  1  0  0  0  0
 49 48  1  0  0  0  0
 53 52  1  0  0  0  0
 54 53  1  0  0  0  0
M  END
>  <MODEL>
5

>  <REMARK>
 VINA RESULT:      -6.8      3.073      7.484
  Name = 
  18 active torsions:
  status: ('A' for Active; 'I' for Inactive)
    1  A    between atoms: C_1  and  C_54
    2  A    between atoms: C_4  and  O_34
    3  A    between atoms: C_6  and  C_14
    4  A    between atoms: N_7  and  C_12
    5  A    between atoms: C_10  and  C_14
    6  A    between atoms: C_10  and  C_24
    7  A    between atoms: C_11  and  C_14
    8  A    between atoms: C_12  and  C_41
    9  A    between atoms: C_13  and  C_24
   10  A    between atoms: C_16  and  C_25
   11  A    between atoms: C_17  and  C_19
   12  A    between atoms: C_20  and  C_26
   13  A    between atoms: C_24  and  C_46
   14  A    between atoms: C_25  and  C_45
   15  A    between atoms: C_25  and  C_54
   16  A    between atoms: O_34  and  C_43
   17  A    between atoms: C_41  and  C_51
   18  A    between atoms: C_46  and  C_51
                            x       y       z     vdW  Elec       q    Type
                         _______ _______ _______ _____ _____    ______ ____

>  <TORSDO>
F 18

$$$$
=
 OpenBabel11062412083D

 54 59  0  0  1  0  0  0  0  0999 V2000
  183.6830  177.2670  137.4660 C   0  0  2  0  0  3  0  0  0  0  0  0
  185.0220  177.5020  138.1670 C   0  0  1  0  0  3  0  0  0  0  0  0
  185.4960  177.0460  135.8370 C   0  0  0  0  0  2  0  0  0  0  0  0
  186.1700  179.1020  136.7810 O   0  0  0  0  0  1  0  0  0  0  0  0
  186.0630  177.7390  137.0710 C   0  0  1  0  0  0  0  0  0  0  0  0
  184.1120  176.5250  136.2100 C   0  0  0  0  0  2  0  0  0  0  0  0
  181.6070  180.3760  137.8930 O   0  0  0  0  0  0  0  0  0  0  0  0
  182.9530  178.5720  137.0800 C   0  0  2  0  0  3  0  0  0  0  0  0
  182.0080  179.0490  138.2000 C   0  0  2  0  0  3  0  0  0  0  0  0
  180.7990  181.0310  135.7040 C   0  0  1  0  0  3  0  0  0  0  0  0
  180.1500  180.4770  134.5970 O   0  0  0  0  0  1  0  0  0  0  0  0
  180.8580  178.2580  138.0370 O   0  0  0  0  0  0  0  0  0  0  0  0
  180.1530  182.3630  136.0260 C   0  0  0  0  0  2  0  0  0  0  0  0
  179.2540  180.6500  137.5230 C   0  0  0  0  0  2  0  0  0  0  0  0
  181.8770  178.3240  136.0860 C   0  0  0  0  0  0  0  0  0  0  0  0
  180.5740  180.1730  136.9490 C   0  0  2  0  0  0  0  0  0  0  0  0
  179.1140  182.1010  137.1030 C   0  0  0  0  0  2  0  0  0  0  0  0
  180.5820  178.6580  136.7400 C   0  0  2  0  0  3  0  0  0  0  0  0
  182.0280  178.0140  134.9160 O   0  0  0  0  0  0  0  0  0  0  0  0
  184.5210  178.1830  140.4430 C   0  0  0  0  0  0  0  0  0  0  0  0
  184.0110  177.8650  141.6030 C   0  0  0  0  0  3  0  0  0  0  0  0
  185.0330  178.4970  139.2870 C   0  0  0  0  0  3  0  0  0  0  0  0
  183.4710  178.8900  142.5590 C   0  0  1  0  0  3  0  0  0  0  0  0
  179.4670  180.2690  142.1800 C   0  0  0  0  0  2  0  0  0  0  0  0
  181.9770  179.1900  142.3690 C   0  0  1  0  0  3  0  0  0  0  0  0
  180.1070  180.1430  143.5760 C   0  0  0  0  0  2  0  0  0  0  0  0
  179.3900  176.7650  140.8090 C   0  0  0  0  0  1  0  0  0  0  0  0
  178.9350  179.0040  141.6540 N   0  0  0  0  0  2  0  0  0  0  0  0
  179.8770  177.8770  141.7160 C   0  0  2  0  0  3  0  0  0  0  0  0
  181.3230  178.2420  141.3480 C   0  0  0  0  0  2  0  0  0  0  0  0
  181.2470  179.2120  143.6400 N   0  0  0  0  0  2  0  0  0  0  0  0
  183.7910  178.5270  144.0070 C   0  0  0  0  0  2  0  0  0  0  0  0
  185.2740  178.7230  144.3230 C   0  0  1  0  0  3  0  0  0  0  0  0
  185.5470  178.7500  145.7950 C   0  0  0  0  0  3  0  0  0  0  0  0
  184.6330  178.6760  146.5980 O   0  0  0  0  0  0  0  0  0  0  0  0
  186.1450  177.6770  143.6190 C   0  0  0  0  0  2  0  0  0  0  0  0
  187.5110  177.4610  144.2680 C   0  0  0  0  0  2  0  0  0  0  0  0
  188.6220  177.4940  143.2360 C   0  0  0  0  0  2  0  0  0  0  0  0
  189.9230  177.9300  143.8830 C   0  0  0  0  0  2  0  0  0  0  0  0
  190.6510  177.1380  146.1590 C   0  0  0  0  0  0  0  0  0  0  0  0
  189.7840  177.9110  145.3320 N   0  0  0  0  0  2  0  0  0  0  0  0
  191.5890  176.4700  145.6420 O   0  0  0  0  0  0  0  0  0  0  0  0
  190.4610  177.1460  147.5410 O   0  0  0  0  0  0  0  0  0  0  0  0
  188.4040  178.2420  148.6290 C   0  0  0  0  0  3  0  0  0  0  0  0
  189.3660  177.7280  148.1200 C   0  0  0  0  0  0  0  0  0  0  0  0
  187.4510  177.1550  137.4320 C   0  0  1  0  0  3  0  0  0  0  0  0
  188.9860  178.9340  138.3680 C   0  0  0  0  0  2  0  0  0  0  0  0
  189.5450  177.5950  138.7710 C   0  0  1  0  0  0  0  0  0  0  0  0
  188.0380  177.7820  138.7030 C   0  0  2  0  0  3  0  0  0  0  0  0
  190.2220  176.9340  137.7630 F   0  0  0  0  0  0  0  0  0  0  0  0
  190.0950  177.5920  140.0480 O   0  0  0  0  0  1  0  0  0  0  0  0
  187.3840  175.6330  137.5960 C   0  0  0  0  0  2  0  0  0  0  0  0
  188.0960  174.9290  136.4580 C   0  0  0  0  0  2  0  0  0  0  0  0
  187.9080  173.4340  136.6020 C   0  0  0  0  0  1  0  0  0  0  0  0
  1  6  1  6  0  0  0
  1  2  1  0  0  0  0
  2 22  1  1  0  0  0
  3  6  1  0  0  0  0
  3  5  1  0  0  0  0
  5  4  1  6  0  0  0
  5 46  1  0  0  0  0
  5  2  1  0  0  0  0
  8 15  1  6  0  0  0
  8  1  1  0  0  0  0
  8  9  1  0  0  0  0
  9  7  1  6  0  0  0
 10 11  1  6  0  0  0
 10 13  1  0  0  0  0
 10 16  1  0  0  0  0
 12  9  1  0  0  0  0
 13 17  1  0  0  0  0
 16 14  1  1  0  0  0
 16  7  1  0  0  0  0
 17 14  1  0  0  0  0
 18 15  1  6  0  0  0
 18 16  1  0  0  0  0
 18 12  1  0  0  0  0
 19 15  2  0  0  0  0
 20 21  2  0  0  0  0
 22 20  2  0  0  0  0
 23 21  1  6  0  0  0
 23 32  1  0  0  0  0
 24 26  1  0  0  0  0
 25 23  1  1  0  0  0
 25 31  1  0  0  0  0
 26 31  1  0  0  0  0
 28 29  1  0  0  0  0
 28 24  1  0  0  0  0
 29 27  1  6  0  0  0
 30 29  1  0  0  0  0
 30 25  1  0  0  0  0
 32 33  1  0  0  0  0
 33 36  1  6  0  0  0
 33 34  1  0  0  0  0
 34 35  2  0  0  0  0
 36 37  1  0  0  0  0
 38 39  1  0  0  0  0
 38 37  1  0  0  0  0
 39 41  1  0  0  0  0
 40 43  1  0  0  0  0
 41 40  1  0  0  0  0
 42 40  2  0  0  0  0
 43 45  1  0  0  0  0
 45 44  3  0  0  0  0
 46 52  1  1  0  0  0
 47 49  1  0  0  0  0
 47 48  1  0  0  0  0
 48 50  1  6  0  0  0
 48 51  1  0  0  0  0
 49 46  1  6  0  0  0
 49 48  1  0  0  0  0
 53 54  1  0  0  0  0
 53 52  1  0  0  0  0
M  END
>  <MODEL>
6

>  <REMARK>
 VINA RESULT:      -6.4      2.258      4.196
  Name = 
  18 active torsions:
  status: ('A' for Active; 'I' for Inactive)
    1  A    between atoms: C_1  and  C_54
    2  A    between atoms: C_4  and  O_34
    3  A    between atoms: C_6  and  C_14
    4  A    between atoms: N_7  and  C_12
    5  A    between atoms: C_10  and  C_14
    6  A    between atoms: C_10  and  C_24
    7  A    between atoms: C_11  and  C_14
    8  A    between atoms: C_12  and  C_41
    9  A    between atoms: C_13  and  C_24
   10  A    between atoms: C_16  and  C_25
   11  A    between atoms: C_17  and  C_19
   12  A    between atoms: C_20  and  C_26
   13  A    between atoms: C_24  and  C_46
   14  A    between atoms: C_25  and  C_45
   15  A    between atoms: C_25  and  C_54
   16  A    between atoms: O_34  and  C_43
   17  A    between atoms: C_41  and  C_51
   18  A    between atoms: C_46  and  C_51
                            x       y       z     vdW  Elec       q    Type
                         _______ _______ _______ _____ _____    ______ ____

>  <TORSDO>
F 18

$$$$
=
 OpenBabel11062412083D

 54 59  0  0  1  0  0  0  0  0999 V2000
  182.5060  177.1560  136.3780 C   0  0  2  0  0  3  0  0  0  0  0  0
  182.7060  177.9520  137.6680 C   0  0  1  0  0  3  0  0  0  0  0  0
  180.3220  177.8110  137.2670 C   0  0  0  0  0  2  0  0  0  0  0  0
  181.2210  176.9240  139.2620 O   0  0  0  0  0  1  0  0  0  0  0  0
  181.3500  177.9990  138.3770 C   0  0  1  0  0  0  0  0  0  0  0  0
  181.0940  177.5550  135.9770 C   0  0  0  0  0  2  0  0  0  0  0  0
  184.0470  173.7430  136.7480 O   0  0  0  0  0  0  0  0  0  0  0  0
  182.5800  175.6260  136.5800 C   0  0  2  0  0  3  0  0  0  0  0  0
  183.9860  175.0770  136.2680 C   0  0  2  0  0  3  0  0  0  0  0  0
  182.3250  172.1010  136.2870 C   0  0  1  0  0  3  0  0  0  0  0  0
  181.3610  171.8090  135.3160 O   0  0  0  0  0  1  0  0  0  0  0  0
  184.0100  174.9780  134.8660 O   0  0  0  0  0  0  0  0  0  0  0  0
  183.0480  170.8210  136.6500 C   0  0  0  0  0  2  0  0  0  0  0  0
  184.4030  172.0840  135.0530 C   0  0  0  0  0  2  0  0  0  0  0  0
  181.8970  174.8950  135.4820 C   0  0  0  0  0  0  0  0  0  0  0  0
  183.4070  173.0170  135.7170 C   0  0  2  0  0  0  0  0  0  0  0  0
  184.3060  170.7680  135.8000 C   0  0  0  0  0  2  0  0  0  0  0  0
  182.9350  174.1110  134.7580 C   0  0  2  0  0  3  0  0  0  0  0  0
  180.6960  174.8500  135.2770 O   0  0  0  0  0  0  0  0  0  0  0  0
  185.0670  177.9660  138.2290 C   0  0  0  0  0  0  0  0  0  0  0  0
  186.2710  178.3760  137.9280 C   0  0  0  0  0  3  0  0  0  0  0  0
  183.8660  177.5610  138.5310 C   0  0  0  0  0  3  0  0  0  0  0  0
  187.5080  177.6320  138.3430 C   0  0  1  0  0  3  0  0  0  0  0  0
  188.8410  175.5220  134.9010 C   0  0  0  0  0  2  0  0  0  0  0  0
  188.1730  176.8500  137.2020 C   0  0  1  0  0  3  0  0  0  0  0  0
  187.8120  174.8750  135.8480 C   0  0  0  0  0  2  0  0  0  0  0  0
  191.9420  175.9840  136.9820 C   0  0  0  0  0  1  0  0  0  0  0  0
  190.2330  175.3840  135.3540 N   0  0  0  0  0  2  0  0  0  0  0  0
  190.4590  175.7840  136.7510 C   0  0  2  0  0  3  0  0  0  0  0  0
  189.6990  177.0500  137.1760 C   0  0  0  0  0  2  0  0  0  0  0  0
  187.8090  175.4300  137.2130 N   0  0  0  0  0  2  0  0  0  0  0  0
  188.5030  178.5500  139.0500 C   0  0  0  0  0  2  0  0  0  0  0  0
  188.5470  178.2820  140.5540 C   0  0  1  0  0  3  0  0  0  0  0  0
  187.1810  178.1760  141.1580 C   0  0  0  0  0  3  0  0  0  0  0  0
  186.7830  179.0160  141.9460 O   0  0  0  0  0  0  0  0  0  0  0  0
  189.3940  177.0490  140.8850 C   0  0  0  0  0  2  0  0  0  0  0  0
  189.3650  176.6470  142.3590 C   0  0  0  0  0  2  0  0  0  0  0  0
  190.6750  176.0110  142.7820 C   0  0  0  0  0  2  0  0  0  0  0  0
  191.6050  177.0610  143.3580 C   0  0  0  0  0  2  0  0  0  0  0  0
  191.2040  177.0380  145.8440 C   0  0  0  0  0  0  0  0  0  0  0  0
  191.0170  177.6330  144.5610 N   0  0  0  0  0  2  0  0  0  0  0  0
  191.9180  176.0050  145.9640 O   0  0  0  0  0  0  0  0  0  0  0  0
  190.6030  177.6230  146.9600 O   0  0  0  0  0  0  0  0  0  0  0  0
  188.3280  176.8310  147.8600 C   0  0  0  0  0  3  0  0  0  0  0  0
  189.3940  177.2000  147.4380 C   0  0  0  0  0  0  0  0  0  0  0  0
  181.1110  179.3370  139.1170 C   0  0  1  0  0  3  0  0  0  0  0  0
  179.3550  178.9310  140.8930 C   0  0  0  0  0  2  0  0  0  0  0  0
  179.9950  180.2630  141.1840 C   0  0  1  0  0  0  0  0  0  0  0  0
  180.8450  179.1390  140.6150 C   0  0  2  0  0  3  0  0  0  0  0  0
  179.5550  181.2950  140.3750 F   0  0  0  0  0  0  0  0  0  0  0  0
  180.1540  180.5110  142.5430 O   0  0  0  0  0  1  0  0  0  0  0  0
  182.2950  180.2910  138.9300 C   0  0  0  0  0  2  0  0  0  0  0  0
  181.8450  181.6100  138.3330 C   0  0  0  0  0  2  0  0  0  0  0  0
  180.7750  181.3480  137.2950 C   0  0  0  0  0  1  0  0  0  0  0  0
  1  6  1  1  0  0  0
  1  8  1  0  0  0  0
  1  2  1  0  0  0  0
  2  5  1  0  0  0  0
  2 22  1  1  0  0  0
  3  5  1  0  0  0  0
  5 46  1  0  0  0  0
  5  4  1  1  0  0  0
  6  3  1  0  0  0  0
  8 15  1  6  0  0  0
  9 12  1  6  0  0  0
  9  8  1  0  0  0  0
  9  7  1  0  0  0  0
 10 11  1  6  0  0  0
 10 13  1  0  0  0  0
 14 17  1  0  0  0  0
 16 14  1  6  0  0  0
 16 10  1  0  0  0  0
 16  7  1  0  0  0  0
 17 13  1  0  0  0  0
 18 12  1  1  0  0  0
 18 15  1  0  0  0  0
 18 16  1  0  0  0  0
 19 15  2  0  0  0  0
 20 22  2  0  0  0  0
 21 20  2  0  0  0  0
 23 21  1  6  0  0  0
 23 32  1  0  0  0  0
 24 28  1  0  0  0  0
 24 26  1  0  0  0  0
 25 31  1  0  0  0  0
 25 23  1  1  0  0  0
 26 31  1  0  0  0  0
 28 29  1  0  0  0  0
 29 27  1  6  0  0  0
 29 30  1  0  0  0  0
 30 25  1  0  0  0  0
 33 32  1  6  0  0  0
 33 36  1  0  0  0  0
 33 34  1  0  0  0  0
 34 35  2  0  0  0  0
 36 37  1  0  0  0  0
 37 38  1  0  0  0  0
 38 39  1  0  0  0  0
 39 41  1  0  0  0  0
 40 42  2  0  0  0  0
 40 43  1  0  0  0  0
 41 40  1  0  0  0  0
 43 45  1  0  0  0  0
 45 44  3  0  0  0  0
 46 52  1  1  0  0  0
 47 48  1  0  0  0  0
 48 50  1  6  0  0  0
 48 51  1  0  0  0  0
 49 46  1  6  0  0  0
 49 47  1  0  0  0  0
 49 48  1  0  0  0  0
 53 52  1  0  0  0  0
 54 53  1  0  0  0  0
M  END
>  <MODEL>
7

>  <REMARK>
 VINA RESULT:      -6.1      3.044      7.203
  Name = 
  18 active torsions:
  status: ('A' for Active; 'I' for Inactive)
    1  A    between atoms: C_1  and  C_54
    2  A    between atoms: C_4  and  O_34
    3  A    between atoms: C_6  and  C_14
    4  A    between atoms: N_7  and  C_12
    5  A    between atoms: C_10  and  C_14
    6  A    between atoms: C_10  and  C_24
    7  A    between atoms: C_11  and  C_14
    8  A    between atoms: C_12  and  C_41
    9  A    between atoms: C_13  and  C_24
   10  A    between atoms: C_16  and  C_25
   11  A    between atoms: C_17  and  C_19
   12  A    between atoms: C_20  and  C_26
   13  A    between atoms: C_24  and  C_46
   14  A    between atoms: C_25  and  C_45
   15  A    between atoms: C_25  and  C_54
   16  A    between atoms: O_34  and  C_43
   17  A    between atoms: C_41  and  C_51
   18  A    between atoms: C_46  and  C_51
                            x       y       z     vdW  Elec       q    Type
                         _______ _______ _______ _____ _____    ______ ____

>  <TORSDO>
F 18

$$$$
=
 OpenBabel11062412083D

 54 59  0  0  1  0  0  0  0  0999 V2000
  183.1560  177.6630  137.5000 C   0  0  2  0  0  3  0  0  0  0  0  0
  182.7150  177.9570  138.9340 C   0  0  1  0  0  3  0  0  0  0  0  0
  180.7330  177.3700  137.6740 C   0  0  0  0  0  2  0  0  0  0  0  0
  181.3410  176.0780  139.5540 O   0  0  0  0  0  1  0  0  0  0  0  0
  181.2990  177.3960  139.0890 C   0  0  1  0  0  0  0  0  0  0  0  0
  181.8510  177.8070  136.7330 C   0  0  0  0  0  2  0  0  0  0  0  0
  185.7160  174.9400  137.0640 O   0  0  0  0  0  0  0  0  0  0  0  0
  183.7200  176.2380  137.3090 C   0  0  2  0  0  3  0  0  0  0  0  0
  185.2160  176.2620  136.9380 C   0  0  2  0  0  3  0  0  0  0  0  0
  184.5910  173.0140  136.1160 C   0  0  1  0  0  3  0  0  0  0  0  0
  183.7370  172.6920  135.0560 O   0  0  0  0  0  1  0  0  0  0  0  0
  185.2210  176.5400  135.5600 O   0  0  0  0  0  0  0  0  0  0  0  0
  185.6980  171.9810  136.1760 C   0  0  0  0  0  2  0  0  0  0  0  0
  186.5220  173.9740  135.0220 C   0  0  0  0  0  2  0  0  0  0  0  0
  183.2680  175.6370  136.0290 C   0  0  0  0  0  0  0  0  0  0  0  0
  185.3050  174.3400  135.8520 C   0  0  2  0  0  0  0  0  0  0  0  0
  186.8760  172.5490  135.4040 C   0  0  0  0  0  2  0  0  0  0  0  0
  184.4750  175.4350  135.1810 C   0  0  2  0  0  3  0  0  0  0  0  0
  182.1370  175.2680  135.7600 O   0  0  0  0  0  0  0  0  0  0  0  0
  184.4940  178.4820  140.5000 C   0  0  0  0  0  0  0  0  0  0  0  0
  185.3140  179.3790  140.9780 C   0  0  0  0  0  3  0  0  0  0  0  0
  183.6720  177.5890  140.0260 C   0  0  0  0  0  3  0  0  0  0  0  0
  186.6270  179.0200  141.6150 C   0  0  1  0  0  3  0  0  0  0  0  0
  186.9310  178.1930  145.7740 C   0  0  0  0  0  2  0  0  0  0  0  0
  186.5260  178.7300  143.1190 C   0  0  1  0  0  3  0  0  0  0  0  0
  187.2550  177.0910  144.7460 C   0  0  0  0  0  2  0  0  0  0  0  0
  183.2960  179.0030  145.2390 C   0  0  0  0  0  1  0  0  0  0  0  0
  185.4960  178.3430  146.0510 N   0  0  0  0  0  2  0  0  0  0  0  0
  184.6560  178.4620  144.8500 C   0  0  2  0  0  3  0  0  0  0  0  0
  185.2590  179.3410  143.7420 C   0  0  0  0  0  2  0  0  0  0  0  0
  186.6480  177.3000  143.4210 N   0  0  0  0  0  2  0  0  0  0  0  0
  187.3190  177.8830  140.8690 C   0  0  0  0  0  2  0  0  0  0  0  0
  188.8010  178.1790  140.6370 C   0  0  1  0  0  3  0  0  0  0  0  0
  189.6930  177.1210  141.2080 C   0  0  0  0  0  3  0  0  0  0  0  0
  190.6990  177.4240  141.8260 O   0  0  0  0  0  0  0  0  0  0  0  0
  189.1050  178.4180  139.1550 C   0  0  0  0  0  2  0  0  0  0  0  0
  188.0980  177.7800  138.1990 C   0  0  0  0  0  2  0  0  0  0  0  0
  188.7760  176.8060  137.2540 C   0  0  0  0  0  2  0  0  0  0  0  0
  190.2800  176.9980  137.2950 C   0  0  0  0  0  2  0  0  0  0  0  0
  192.3180  175.5380  137.5260 C   0  0  0  0  0  0  0  0  0  0  0  0
  190.9230  175.7630  137.7190 N   0  0  0  0  0  2  0  0  0  0  0  0
  193.0360  176.4340  137.0010 O   0  0  0  0  0  0  0  0  0  0  0  0
  192.8770  174.3280  137.9400 O   0  0  0  0  0  0  0  0  0  0  0  0
  194.9850  173.3490  136.8390 C   0  0  0  0  0  3  0  0  0  0  0  0
  193.9980  173.8080  137.3530 C   0  0  0  0  0  0  0  0  0  0  0  0
  180.4110  178.2650  140.0130 C   0  0  1  0  0  3  0  0  0  0  0  0
  181.2090  178.1570  142.4110 C   0  0  0  0  0  2  0  0  0  0  0  0
  180.3360  179.3760  142.2780 C   0  0  1  0  0  0  0  0  0  0  0  0
  181.2200  178.9650  141.1130 C   0  0  2  0  0  3  0  0  0  0  0  0
  178.9790  179.1070  142.2660 F   0  0  0  0  0  0  0  0  0  0  0  0
  180.7870  180.4590  143.0250 O   0  0  0  0  0  1  0  0  0  0  0  0
  179.6320  179.3090  139.2070 C   0  0  0  0  0  2  0  0  0  0  0  0
  180.3810  180.6270  139.1520 C   0  0  0  0  0  2  0  0  0  0  0  0
  180.5610  181.0370  137.7060 C   0  0  0  0  0  1  0  0  0  0  0  0
  1  6  1  6  0  0  0
  1  2  1  0  0  0  0
  2  5  1  0  0  0  0
  2 22  1  1  0  0  0
  3  5  1  0  0  0  0
  5  4  1  1  0  0  0
  5 46  1  0  0  0  0
  6  3  1  0  0  0  0
  8 15  1  6  0  0  0
  8  1  1  0  0  0  0
  9 12  1  6  0  0  0
  9  7  1  0  0  0  0
  9  8  1  0  0  0  0
 10 11  1  6  0  0  0
 10 13  1  0  0  0  0
 14 17  1  0  0  0  0
 16 14  1  6  0  0  0
 16 10  1  0  0  0  0
 16  7  1  0  0  0  0
 17 13  1  0  0  0  0
 18 12  1  1  0  0  0
 18 16  1  0  0  0  0
 18 15  1  0  0  0  0
 19 15  2  0  0  0  0
 20 21  2  0  0  0  0
 21 23  1  0  0  0  0
 22 20  2  0  0  0  0
 23 32  1  6  0  0  0
 24 28  1  0  0  0  0
 25 23  1  6  0  0  0
 25 31  1  0  0  0  0
 25 30  1  0  0  0  0
 26 24  1  0  0  0  0
 29 27  1  1  0  0  0
 29 28  1  0  0  0  0
 30 29  1  0  0  0  0
 31 26  1  0  0  0  0
 33 36  1  6  0  0  0
 33 32  1  0  0  0  0
 33 34  1  0  0  0  0
 34 35  2  0  0  0  0
 37 36  1  0  0  0  0
 38 39  1  0  0  0  0
 38 37  1  0  0  0  0
 39 41  1  0  0  0  0
 40 41  1  0  0  0  0
 40 43  1  0  0  0  0
 42 40  2  0  0  0  0
 44 45  3  0  0  0  0
 45 43  1  0  0  0  0
 46 52  1  6  0  0  0
 48 50  1  6  0  0  0
 48 47  1  0  0  0  0
 48 51  1  0  0  0  0
 49 46  1  6  0  0  0
 49 48  1  0  0  0  0
 49 47  1  0  0  0  0
 53 52  1  0  0  0  0
 54 53  1  0  0  0  0
M  END
>  <MODEL>
8

>  <REMARK>
 VINA RESULT:      -5.6      3.114      7.035
  Name = 
  18 active torsions:
  status: ('A' for Active; 'I' for Inactive)
    1  A    between atoms: C_1  and  C_54
    2  A    between atoms: C_4  and  O_34
    3  A    between atoms: C_6  and  C_14
    4  A    between atoms: N_7  and  C_12
    5  A    between atoms: C_10  and  C_14
    6  A    between atoms: C_10  and  C_24
    7  A    between atoms: C_11  and  C_14
    8  A    between atoms: C_12  and  C_41
    9  A    between atoms: C_13  and  C_24
   10  A    between atoms: C_16  and  C_25
   11  A    between atoms: C_17  and  C_19
   12  A    between atoms: C_20  and  C_26
   13  A    between atoms: C_24  and  C_46
   14  A    between atoms: C_25  and  C_45
   15  A    between atoms: C_25  and  C_54
   16  A    between atoms: O_34  and  C_43
   17  A    between atoms: C_41  and  C_51
   18  A    between atoms: C_46  and  C_51
                            x       y       z     vdW  Elec       q    Type
                         _______ _______ _______ _____ _____    ______ ____

>  <TORSDO>
F 18

$$$$
=
 OpenBabel11062412083D

 54 59  0  0  1  0  0  0  0  0999 V2000
  187.1780  177.0010  135.4800 C   0  0  2  0  0  3  0  0  0  0  0  0
  186.0310  177.3800  136.4180 C   0  0  1  0  0  3  0  0  0  0  0  0
  185.4960  175.2250  135.4530 C   0  0  0  0  0  2  0  0  0  0  0  0
  185.6940  175.4340  137.7960 O   0  0  0  0  0  1  0  0  0  0  0  0
  185.2190  176.1060  136.6660 C   0  0  1  0  0  0  0  0  0  0  0  0
  186.5280  175.9490  134.5960 C   0  0  0  0  0  2  0  0  0  0  0  0
  190.6110  176.8130  137.0110 O   0  0  0  0  0  0  0  0  0  0  0  0
  188.3950  176.3910  136.2120 C   0  0  2  0  0  3  0  0  0  0  0  0
  189.6410  177.2890  136.0900 C   0  0  2  0  0  3  0  0  0  0  0  0
  191.2100  174.4720  137.1940 C   0  0  1  0  0  3  0  0  0  0  0  0
  191.2500  173.3160  136.4080 O   0  0  0  0  0  1  0  0  0  0  0  0
  190.1520  176.9920  134.8140 O   0  0  0  0  0  0  0  0  0  0  0  0
  192.5040  174.5700  137.9750 C   0  0  0  0  0  2  0  0  0  0  0  0
  192.6400  176.0190  136.0090 C   0  0  0  0  0  2  0  0  0  0  0  0
  188.9700  175.2490  135.4570 C   0  0  0  0  0  0  0  0  0  0  0  0
  191.1840  175.7220  136.3170 C   0  0  2  0  0  0  0  0  0  0  0  0
  193.4350  175.4660  137.1770 C   0  0  0  0  0  2  0  0  0  0  0  0
  190.3460  175.6390  135.0400 C   0  0  2  0  0  3  0  0  0  0  0  0
  188.4620  174.1510  135.3030 O   0  0  0  0  0  0  0  0  0  0  0  0
  187.1930  177.6460  138.5320 C   0  0  0  0  0  0  0  0  0  0  0  0
  188.0010  177.1300  139.4200 C   0  0  0  0  0  3  0  0  0  0  0  0
  186.3890  178.1600  137.6450 C   0  0  0  0  0  3  0  0  0  0  0  0
  187.9820  177.5350  140.8670 C   0  0  1  0  0  3  0  0  0  0  0  0
  191.3900  176.8470  143.3130 C   0  0  0  0  0  2  0  0  0  0  0  0
  189.3260  177.3430  141.5820 C   0  0  1  0  0  3  0  0  0  0  0  0
  190.4820  178.0630  143.5850 C   0  0  0  0  0  2  0  0  0  0  0  0
  192.8010  177.4190  139.8720 C   0  0  0  0  0  1  0  0  0  0  0  0
  192.3740  177.0680  142.2450 N   0  0  0  0  0  2  0  0  0  0  0  0
  191.8070  177.6070  140.9990 C   0  0  2  0  0  3  0  0  0  0  0  0
  190.4580  176.9890  140.6010 C   0  0  0  0  0  2  0  0  0  0  0  0
  189.6760  178.4890  142.4280 N   0  0  0  0  0  2  0  0  0  0  0  0
  187.4490  178.9550  141.0430 C   0  0  0  0  0  2  0  0  0  0  0  0
  186.1020  178.9660  141.7660 C   0  0  1  0  0  3  0  0  0  0  0  0
  184.9450  178.8530  140.8220 C   0  0  0  0  0  3  0  0  0  0  0  0
  184.7020  179.7440  140.0270 O   0  0  0  0  0  0  0  0  0  0  0  0
  186.0340  177.8910  142.8540 C   0  0  0  0  0  2  0  0  0  0  0  0
  186.6980  178.2910  144.1710 C   0  0  0  0  0  2  0  0  0  0  0  0
  185.7990  177.9870  145.3550 C   0  0  0  0  0  2  0  0  0  0  0  0
  186.6250  177.8770  146.6230 C   0  0  0  0  0  2  0  0  0  0  0  0
  189.0050  177.1990  147.0830 C   0  0  0  0  0  0  0  0  0  0  0  0
  188.0420  177.8910  146.2910 N   0  0  0  0  0  2  0  0  0  0  0  0
  188.6350  176.5280  148.0850 O   0  0  0  0  0  0  0  0  0  0  0  0
  190.3530  177.2610  146.7250 O   0  0  0  0  0  0  0  0  0  0  0  0
  192.1030  175.6540  147.7100 C   0  0  0  0  0  3  0  0  0  0  0  0
  191.2830  176.4070  147.2500 C   0  0  0  0  0  0  0  0  0  0  0  0
  183.7020  176.3830  136.8010 C   0  0  1  0  0  3  0  0  0  0  0  0
  182.1330  175.0370  135.3430 C   0  0  0  0  0  2  0  0  0  0  0  0
  181.3790  175.4200  136.5890 C   0  0  1  0  0  0  0  0  0  0  0  0
  182.8620  175.1050  136.6860 C   0  0  2  0  0  3  0  0  0  0  0  0
  180.9310  176.7290  136.6040 F   0  0  0  0  0  0  0  0  0  0  0  0
  180.5190  174.4240  137.0390 O   0  0  0  0  0  1  0  0  0  0  0  0
  183.3850  177.0870  138.1240 C   0  0  0  0  0  2  0  0  0  0  0  0
  183.2100  176.0850  139.2480 C   0  0  0  0  0  2  0  0  0  0  0  0
  182.0930  176.5470  140.1580 C   0  0  0  0  0  1  0  0  0  0  0  0
  1  6  1  6  0  0  0
  1  8  1  0  0  0  0
  1  2  1  0  0  0  0
  2  5  1  0  0  0  0
  2 22  1  1  0  0  0
  3  5  1  0  0  0  0
  5 46  1  0  0  0  0
  5  4  1  1  0  0  0
  6  3  1  0  0  0  0
  8 15  1  6  0  0  0
  9 12  1  6  0  0  0
  9  8  1  0  0  0  0
  9  7  1  0  0  0  0
 10 11  1  6  0  0  0
 10 13  1  0  0  0  0
 14 17  1  0  0  0  0
 16 14  1  6  0  0  0
 16  7  1  0  0  0  0
 16 10  1  0  0  0  0
 17 13  1  0  0  0  0
 18 12  1  1  0  0  0
 18 15  1  0  0  0  0
 18 16  1  0  0  0  0
 19 15  2  0  0  0  0
 20 21  2  0  0  0  0
 22 20  2  0  0  0  0
 23 21  1  6  0  0  0
 23 32  1  0  0  0  0
 24 26  1  0  0  0  0
 25 23  1  6  0  0  0
 25 31  1  0  0  0  0
 28 24  1  0  0  0  0
 29 27  1  6  0  0  0
 29 28  1  0  0  0  0
 30 29  1  0  0  0  0
 30 25  1  0  0  0  0
 31 26  1  0  0  0  0
 32 33  1  0  0  0  0
 33 34  1  6  0  0  0
 33 36  1  0  0  0  0
 35 34  2  0  0  0  0
 36 37  1  0  0  0  0
 37 38  1  0  0  0  0
 38 39  1  0  0  0  0
 40 42  2  0  0  0  0
 41 39  1  0  0  0  0
 41 40  1  0  0  0  0
 43 40  1  0  0  0  0
 43 45  1  0  0  0  0
 45 44  3  0  0  0  0
 46 52  1  1  0  0  0
 47 48  1  0  0  0  0
 47 49  1  0  0  0  0
 48 50  1  1  0  0  0
 48 49  1  0  0  0  0
 48 51  1  0  0  0  0
 49 46  1  6  0  0  0
 52 53  1  0  0  0  0
 53 54  1  0  0  0  0
M  END
>  <MODEL>
9

>  <REMARK>
 VINA RESULT:      -5.4      3.658      7.531
  Name = 
  18 active torsions:
  status: ('A' for Active; 'I' for Inactive)
    1  A    between atoms: C_1  and  C_54
    2  A    between atoms: C_4  and  O_34
    3  A    between atoms: C_6  and  C_14
    4  A    between atoms: N_7  and  C_12
    5  A    between atoms: C_10  and  C_14
    6  A    between atoms: C_10  and  C_24
    7  A    between atoms: C_11  and  C_14
    8  A    between atoms: C_12  and  C_41
    9  A    between atoms: C_13  and  C_24
   10  A    between atoms: C_16  and  C_25
   11  A    between atoms: C_17  and  C_19
   12  A    between atoms: C_20  and  C_26
   13  A    between atoms: C_24  and  C_46
   14  A    between atoms: C_25  and  C_45
   15  A    between atoms: C_25  and  C_54
   16  A    between atoms: O_34  and  C_43
   17  A    between atoms: C_41  and  C_51
   18  A    between atoms: C_46  and  C_51
                            x       y       z     vdW  Elec       q    Type
                         _______ _______ _______ _____ _____    ______ ____

>  <TORSDO>
F 18

$$$$
