=
 OpenBabel11062413303D

 28 31  0  0  1  0  0  0  0  0999 V2000
  185.5490  178.5060  140.2530 N   0  0  0  0  0  2  0  0  0  0  0  0
  187.0460  178.4910  136.9970 C   0  0  2  0  0  3  0  0  0  0  0  0
  187.8490  177.9380  135.8480 C   0  0  0  0  0  3  0  0  0  0  0  0
  189.7460  176.0970  140.6600 O   0  0  0  0  0  1  0  0  0  0  0  0
  189.6880  177.5170  137.3200 C   0  0  0  0  0  3  0  0  0  0  0  0
  188.8140  177.8820  141.9650 C   0  0  1  0  0  3  0  0  0  0  0  0
  184.8330  178.9220  139.0870 C   0  0  0  0  0  0  0  0  0  0  0  0
  184.2430  180.0360  139.0700 O   0  0  0  0  0  0  0  0  0  0  0  0
  184.7340  178.0300  137.8880 C   0  0  2  0  0  3  0  0  0  0  0  0
  187.9990  176.9100  142.8250 C   0  0  2  0  0  3  0  0  0  0  0  0
  183.7430  176.9170  138.1610 C   0  0  0  0  0  1  0  0  0  0  0  0
  189.0200  177.2860  140.5750 C   0  0  1  0  0  3  0  0  0  0  0  0
  189.0480  177.4680  136.0370 N   0  0  0  0  0  0  0  0  0  0  0  0
  187.9900  179.1600  141.8730 C   0  0  0  0  0  2  0  0  0  0  0  0
  185.5110  179.2840  141.4870 C   0  0  0  0  0  2  0  0  0  0  0  0
  189.1200  178.2040  138.3110 C   0  0  0  0  0  0  0  0  0  0  0  0
  187.9040  178.8590  138.0820 O   0  0  0  0  0  0  0  0  0  0  0  0
  189.7500  178.2530  139.6550 C   0  0  0  0  0  2  0  0  0  0  0  0
  186.6160  178.8660  142.4490 C   0  0  1  0  0  3  0  0  0  0  0  0
  186.5600  177.3870  142.7790 C   0  0  0  0  0  2  0  0  0  0  0  0
  186.0720  177.4260  137.4820 C   0  0  0  0  0  2  0  0  0  0  0  0
  187.7660  177.6770  145.0060 O   0  0  0  0  0  1  0  0  0  0  0  0
  188.4670  176.8220  144.2160 N   0  0  0  0  0  0  0  0  0  0  0  0
  189.8920  177.1620  144.2730 C   0  0  2  0  0  3  0  0  0  0  0  0
  190.7310  175.9820  143.8350 C   0  0  0  0  0  2  0  0  0  0  0  0
  191.6330  177.1850  145.6660 C   0  0  0  0  0  2  0  0  0  0  0  0
  190.2810  177.5420  145.5700 O   0  0  0  0  0  0  0  0  0  0  0  0
  191.8640  175.9590  144.8160 C   0  0  0  0  0  2  0  0  0  0  0  0
  1 15  1  0  0  0  0
  2  3  1  6  0  0  0
  2 21  1  0  0  0  0
  2 17  1  0  0  0  0
  3 13  2  0  0  0  0
  5 16  2  0  0  0  0
  6 14  1  6  0  0  0
  6 10  1  0  0  0  0
  7  1  1  0  0  0  0
  8  7  2  0  0  0  0
  9 11  1  1  0  0  0
  9  7  1  0  0  0  0
 10 23  1  1  0  0  0
 12  4  1  1  0  0  0
 12  6  1  0  0  0  0
 13  5  1  0  0  0  0
 14 19  1  0  0  0  0
 16 18  1  0  0  0  0
 17 16  1  0  0  0  0
 18 12  1  0  0  0  0
 19 15  1  6  0  0  0
 19 20  1  0  0  0  0
 20 10  1  0  0  0  0
 21  9  1  0  0  0  0
 23 22  1  0  0  0  0
 24 23  1  1  0  0  0
 24 27  1  0  0  0  0
 25 24  1  0  0  0  0
 25 28  1  0  0  0  0
 27 26  1  0  0  0  0
 28 26  1  0  0  0  0
M  END
>  <MODEL>
1

>  <REMARK>
 VINA RESULT:      -7.5      0.000      0.000
  Name = 
  2 active torsions:
  status: ('A' for Active; 'I' for Inactive)
    1  A    between atoms: C_5  and  N_28
    2  A    between atoms: C_13  and  N_28
                            x       y       z     vdW  Elec       q    Type
                         _______ _______ _______ _____ _____    ______ ____

>  <TORSDO>
F 2

$$$$
=
 OpenBabel11062413303D

 28 31  0  0  1  0  0  0  0  0999 V2000
  182.3480  178.6030  142.3460 N   0  0  0  0  0  2  0  0  0  0  0  0
  183.7110  178.4510  139.0350 C   0  0  2  0  0  3  0  0  0  0  0  0
  184.5860  177.9310  137.9240 C   0  0  0  0  0  3  0  0  0  0  0  0
  186.9940  177.2710  142.8130 O   0  0  0  0  0  1  0  0  0  0  0  0
  186.5140  178.1450  139.3230 C   0  0  0  0  0  3  0  0  0  0  0  0
  185.7170  178.9730  143.9230 C   0  0  1  0  0  3  0  0  0  0  0  0
  181.5210  178.6770  141.1810 C   0  0  0  0  0  0  0  0  0  0  0  0
  180.6920  179.6170  141.0520 O   0  0  0  0  0  0  0  0  0  0  0  0
  181.5940  177.6220  140.1210 C   0  0  2  0  0  3  0  0  0  0  0  0
  185.1720  177.9790  144.9530 C   0  0  2  0  0  3  0  0  0  0  0  0
  180.8920  176.3670  140.6000 C   0  0  0  0  0  1  0  0  0  0  0  0
  186.0140  178.2440  142.6150 C   0  0  1  0  0  3  0  0  0  0  0  0
  185.8650  177.7710  138.1000 N   0  0  0  0  0  0  0  0  0  0  0  0
  184.6210  180.0090  143.7110 C   0  0  0  0  0  2  0  0  0  0  0  0
  182.1680  179.5220  143.4640 C   0  0  0  0  0  2  0  0  0  0  0  0
  185.8340  178.8250  140.2460 C   0  0  0  0  0  0  0  0  0  0  0  0
  184.4940  179.1540  140.0070 O   0  0  0  0  0  0  0  0  0  0  0  0
  186.4760  179.2060  141.5310 C   0  0  0  0  0  2  0  0  0  0  0  0
  183.3680  179.5040  144.4040 C   0  0  1  0  0  3  0  0  0  0  0  0
  183.6610  178.1120  144.9320 C   0  0  0  0  0  2  0  0  0  0  0  0
  183.0220  177.2780  139.7170 C   0  0  0  0  0  2  0  0  0  0  0  0
  185.8490  179.5270  146.5480 O   0  0  0  0  0  1  0  0  0  0  0  0
  185.6890  178.1980  146.3120 N   0  0  0  0  0  0  0  0  0  0  0  0
  186.9800  177.5190  146.4580 C   0  0  2  0  0  3  0  0  0  0  0  0
  187.4650  177.6180  147.8880 C   0  0  0  0  0  2  0  0  0  0  0  0
  189.1740  177.8650  146.2650 C   0  0  0  0  0  2  0  0  0  0  0  0
  187.9540  178.0700  145.6070 O   0  0  0  0  0  0  0  0  0  0  0  0
  188.9270  177.9190  147.7530 C   0  0  0  0  0  2  0  0  0  0  0  0
  1 15  1  0  0  0  0
  2  3  1  6  0  0  0
  2 21  1  0  0  0  0
  2 17  1  0  0  0  0
  3 13  2  0  0  0  0
  5 16  2  0  0  0  0
  6 14  1  6  0  0  0
  6 10  1  0  0  0  0
  7  1  1  0  0  0  0
  8  7  2  0  0  0  0
  9 11  1  1  0  0  0
  9  7  1  0  0  0  0
 10 23  1  1  0  0  0
 12  4  1  1  0  0  0
 12  6  1  0  0  0  0
 13  5  1  0  0  0  0
 14 19  1  0  0  0  0
 16 18  1  0  0  0  0
 17 16  1  0  0  0  0
 18 12  1  0  0  0  0
 19 15  1  6  0  0  0
 19 20  1  0  0  0  0
 20 10  1  0  0  0  0
 21  9  1  0  0  0  0
 23 22  1  0  0  0  0
 24 23  1  1  0  0  0
 24 25  1  0  0  0  0
 26 28  1  0  0  0  0
 27 26  1  0  0  0  0
 27 24  1  0  0  0  0
 28 25  1  0  0  0  0
M  END
>  <MODEL>
2

>  <REMARK>
 VINA RESULT:      -6.9      2.842      3.828
  Name = 
  2 active torsions:
  status: ('A' for Active; 'I' for Inactive)
    1  A    between atoms: C_5  and  N_28
    2  A    between atoms: C_13  and  N_28
                            x       y       z     vdW  Elec       q    Type
                         _______ _______ _______ _____ _____    ______ ____

>  <TORSDO>
F 2

$$$$
=
 OpenBabel11062413303D

 28 31  0  0  1  0  0  0  0  0999 V2000
  188.3050  177.7600  140.3920 N   0  0  0  0  0  2  0  0  0  0  0  0
  185.6250  179.0860  142.3670 C   0  0  2  0  0  3  0  0  0  0  0  0
  184.2440  179.1330  142.9670 C   0  0  0  0  0  3  0  0  0  0  0  0
  184.1870  176.6760  138.0580 O   0  0  0  0  0  1  0  0  0  0  0  0
  183.2770  178.8810  140.7940 C   0  0  0  0  0  3  0  0  0  0  0  0
  186.2280  177.6750  137.2850 C   0  0  1  0  0  3  0  0  0  0  0  0
  188.5120  178.2530  141.7190 C   0  0  0  0  0  0  0  0  0  0  0  0
  189.4150  179.1030  141.9450 O   0  0  0  0  0  0  0  0  0  0  0  0
  187.6960  177.7390  142.8640 C   0  0  2  0  0  3  0  0  0  0  0  0
  186.8860  176.3080  137.0690 C   0  0  2  0  0  3  0  0  0  0  0  0
  188.1740  176.3540  143.2500 C   0  0  0  0  0  1  0  0  0  0  0  0
  185.1970  177.5740  138.4070 C   0  0  1  0  0  3  0  0  0  0  0  0
  183.1860  179.0030  142.2200 N   0  0  0  0  0  0  0  0  0  0  0  0
  187.3470  178.6280  137.6830 C   0  0  0  0  0  2  0  0  0  0  0  0
  189.2030  178.1190  139.2990 C   0  0  0  0  0  2  0  0  0  0  0  0
  184.4510  179.0690  140.1920 C   0  0  0  0  0  0  0  0  0  0  0  0
  185.5770  179.3750  140.9660 O   0  0  0  0  0  0  0  0  0  0  0  0
  184.5760  178.9270  138.7190 C   0  0  0  0  0  2  0  0  0  0  0  0
  188.5910  177.7960  137.9410 C   0  0  1  0  0  3  0  0  0  0  0  0
  188.2040  176.3350  137.8210 C   0  0  0  0  0  2  0  0  0  0  0  0
  186.2040  177.6910  142.5600 C   0  0  0  0  0  2  0  0  0  0  0  0
  186.2910  176.7240  134.8620 O   0  0  0  0  0  1  0  0  0  0  0  0
  187.1090  175.9800  135.6530 N   0  0  0  0  0  0  0  0  0  0  0  0
  186.8360  174.5570  135.4340 C   0  0  2  0  0  3  0  0  0  0  0  0
  185.8310  174.0540  136.4470 C   0  0  0  0  0  2  0  0  0  0  0  0
  187.5800  172.5260  135.9770 C   0  0  0  0  0  2  0  0  0  0  0  0
  188.0070  173.7840  135.5320 O   0  0  0  0  0  0  0  0  0  0  0  0
  186.3710  172.7190  136.8610 C   0  0  0  0  0  2  0  0  0  0  0  0
  1  7  1  0  0  0  0
  2 21  1  6  0  0  0
  2  3  1  0  0  0  0
  5 13  1  0  0  0  0
  6 14  1  1  0  0  0
  6 12  1  0  0  0  0
  7  8  2  0  0  0  0
  7  9  1  0  0  0  0
  9 11  1  6  0  0  0
 10 23  1  6  0  0  0
 10  6  1  0  0  0  0
 10 20  1  0  0  0  0
 12  4  1  6  0  0  0
 12 18  1  0  0  0  0
 13  3  2  0  0  0  0
 15  1  1  0  0  0  0
 16  5  2  0  0  0  0
 16 17  1  0  0  0  0
 17  2  1  0  0  0  0
 18 16  1  0  0  0  0
 19 14  1  1  0  0  0
 19 15  1  0  0  0  0
 20 19  1  0  0  0  0
 21  9  1  0  0  0  0
 22 23  1  0  0  0  0
 24 27  1  0  0  0  0
 24 23  1  1  0  0  0
 24 25  1  0  0  0  0
 25 28  1  0  0  0  0
 26 28  1  0  0  0  0
 27 26  1  0  0  0  0
M  END
>  <MODEL>
3

>  <REMARK>
 VINA RESULT:      -6.7      2.678      7.050
  Name = 
  2 active torsions:
  status: ('A' for Active; 'I' for Inactive)
    1  A    between atoms: C_5  and  N_28
    2  A    between atoms: C_13  and  N_28
                            x       y       z     vdW  Elec       q    Type
                         _______ _______ _______ _____ _____    ______ ____

>  <TORSDO>
F 2

$$$$
=
 OpenBabel11062413303D

 28 31  0  0  1  0  0  0  0  0999 V2000
  188.1960  177.4490  139.9170 N   0  0  0  0  0  2  0  0  0  0  0  0
  191.3320  177.1910  138.2030 C   0  0  2  0  0  3  0  0  0  0  0  0
  192.6810  176.6070  137.8710 C   0  0  0  0  0  3  0  0  0  0  0  0
  191.4190  175.7970  143.1520 O   0  0  0  0  0  1  0  0  0  0  0  0
  193.3010  176.6920  140.1800 C   0  0  0  0  0  3  0  0  0  0  0  0
  189.8260  177.5880  143.2780 C   0  0  1  0  0  3  0  0  0  0  0  0
  188.2970  177.5770  138.4960 C   0  0  0  0  0  0  0  0  0  0  0  0
  187.7900  178.5720  137.9120 O   0  0  0  0  0  0  0  0  0  0  0  0
  188.9630  176.5160  137.6750 C   0  0  2  0  0  3  0  0  0  0  0  0
  188.6980  176.6380  143.6920 C   0  0  2  0  0  3  0  0  0  0  0  0
  188.0470  175.3150  137.5520 C   0  0  0  0  0  1  0  0  0  0  0  0
  190.8410  176.8360  142.4200 C   0  0  1  0  0  3  0  0  0  0  0  0
  193.5510  176.3590  138.8070 N   0  0  0  0  0  0  0  0  0  0  0  0
  189.1710  178.6980  142.4660 C   0  0  0  0  0  2  0  0  0  0  0  0
  187.4020  178.3820  140.7090 C   0  0  0  0  0  2  0  0  0  0  0  0
  192.2300  177.4200  140.4950 C   0  0  0  0  0  0  0  0  0  0  0  0
  191.3630  177.8410  139.4780 O   0  0  0  0  0  0  0  0  0  0  0  0
  191.9370  177.7590  141.9110 C   0  0  0  0  0  2  0  0  0  0  0  0
  187.7360  178.2830  142.1930 C   0  0  1  0  0  3  0  0  0  0  0  0
  187.5510  176.8760  142.7290 C   0  0  0  0  0  2  0  0  0  0  0  0
  190.3030  176.0710  138.2480 C   0  0  0  0  0  2  0  0  0  0  0  0
  187.1150  177.5690  145.1150 O   0  0  0  0  0  1  0  0  0  0  0  0
  188.2520  176.8250  145.0800 N   0  0  0  0  0  0  0  0  0  0  0  0
  189.3030  177.5050  145.8430 C   0  0  2  0  0  3  0  0  0  0  0  0
  190.4350  176.5470  146.1430 C   0  0  0  0  0  2  0  0  0  0  0  0
  189.9060  178.0120  147.9290 C   0  0  0  0  0  2  0  0  0  0  0  0
  188.8110  178.0230  147.0540 O   0  0  0  0  0  0  0  0  0  0  0  0
  190.7910  176.8430  147.5680 C   0  0  0  0  0  2  0  0  0  0  0  0
  1 15  1  0  0  0  0
  2  3  1  1  0  0  0
  2 21  1  0  0  0  0
  2 17  1  0  0  0  0
  3 13  2  0  0  0  0
  5 16  2  0  0  0  0
  6 14  1  6  0  0  0
  6 10  1  0  0  0  0
  7  1  1  0  0  0  0
  8  7  2  0  0  0  0
  9 11  1  1  0  0  0
  9 21  1  0  0  0  0
  9  7  1  0  0  0  0
 10 23  1  1  0  0  0
 12  4  1  1  0  0  0
 12  6  1  0  0  0  0
 13  5  1  0  0  0  0
 16 18  1  0  0  0  0
 17 16  1  0  0  0  0
 18 12  1  0  0  0  0
 19 15  1  6  0  0  0
 19 14  1  0  0  0  0
 19 20  1  0  0  0  0
 20 10  1  0  0  0  0
 23 22  1  0  0  0  0
 24 23  1  1  0  0  0
 24 25  1  0  0  0  0
 24 27  1  0  0  0  0
 25 28  1  0  0  0  0
 27 26  1  0  0  0  0
 28 26  1  0  0  0  0
M  END
>  <MODEL>
4

>  <REMARK>
 VINA RESULT:      -6.6      2.284      3.302
  Name = 
  2 active torsions:
  status: ('A' for Active; 'I' for Inactive)
    1  A    between atoms: C_5  and  N_28
    2  A    between atoms: C_13  and  N_28
                            x       y       z     vdW  Elec       q    Type
                         _______ _______ _______ _____ _____    ______ ____

>  <TORSDO>
F 2

$$$$
=
 OpenBabel11062413303D

 28 31  0  0  1  0  0  0  0  0999 V2000
  190.5320  176.6530  140.2350 N   0  0  0  0  0  2  0  0  0  0  0  0
  187.8670  178.6270  141.5930 C   0  0  2  0  0  3  0  0  0  0  0  0
  186.4410  178.9710  141.9400 C   0  0  0  0  0  3  0  0  0  0  0  0
  186.6930  175.9910  137.3360 O   0  0  0  0  0  1  0  0  0  0  0  0
  185.7890  178.6250  139.6640 C   0  0  0  0  0  3  0  0  0  0  0  0
  188.9750  176.5420  136.8380 C   0  0  1  0  0  3  0  0  0  0  0  0
  190.6190  177.2590  141.5270 C   0  0  0  0  0  0  0  0  0  0  0  0
  191.6150  177.9700  141.8280 O   0  0  0  0  0  0  0  0  0  0  0  0
  189.5570  177.0260  142.5570 C   0  0  2  0  0  3  0  0  0  0  0  0
  189.4000  175.0700  136.8620 C   0  0  2  0  0  3  0  0  0  0  0  0
  189.7100  175.6370  143.1430 C   0  0  0  0  0  1  0  0  0  0  0  0
  187.7840  176.7460  137.7700 C   0  0  1  0  0  3  0  0  0  0  0  0
  185.5050  178.9290  141.0370 N   0  0  0  0  0  0  0  0  0  0  0  0
  190.1750  177.3390  137.3350 C   0  0  0  0  0  2  0  0  0  0  0  0
  191.6370  176.7280  139.2850 C   0  0  0  0  0  2  0  0  0  0  0  0
  187.0560  178.5450  139.2590 C   0  0  0  0  0  0  0  0  0  0  0  0
  188.0870  178.7510  140.1840 O   0  0  0  0  0  0  0  0  0  0  0  0
  187.3790  178.2110  137.8470 C   0  0  0  0  0  2  0  0  0  0  0  0
  191.1920  176.3510  137.8760 C   0  0  1  0  0  3  0  0  0  0  0  0
  190.5690  174.9690  137.8230 C   0  0  0  0  0  2  0  0  0  0  0  0
  188.1460  177.1890  142.0070 C   0  0  0  0  0  2  0  0  0  0  0  0
  189.6450  175.5110  134.5940 O   0  0  0  0  0  1  0  0  0  0  0  0
  189.7740  174.5450  135.5410 N   0  0  0  0  0  0  0  0  0  0  0  0
  188.9050  173.4130  135.2030 C   0  0  2  0  0  3  0  0  0  0  0  0
  187.5430  173.9100  134.7680 C   0  0  0  0  0  2  0  0  0  0  0  0
  187.4790  171.9640  136.1190 C   0  0  0  0  0  2  0  0  0  0  0  0
  188.7440  172.5400  136.2930 O   0  0  0  0  0  0  0  0  0  0  0  0
  186.5850  172.9750  135.4420 C   0  0  0  0  0  2  0  0  0  0  0  0
  1  7  1  0  0  0  0
  2  3  1  6  0  0  0
  2 21  1  0  0  0  0
  5 13  1  0  0  0  0
  6 10  1  0  0  0  0
  6 14  1  1  0  0  0
  6 12  1  0  0  0  0
  7  8  2  0  0  0  0
  7  9  1  0  0  0  0
  9 11  1  6  0  0  0
 10 23  1  6  0  0  0
 10 20  1  0  0  0  0
 12  4  1  6  0  0  0
 12 18  1  0  0  0  0
 13  3  2  0  0  0  0
 15  1  1  0  0  0  0
 16  5  2  0  0  0  0
 16 17  1  0  0  0  0
 17  2  1  0  0  0  0
 18 16  1  0  0  0  0
 19 14  1  1  0  0  0
 19 15  1  0  0  0  0
 20 19  1  0  0  0  0
 21  9  1  0  0  0  0
 22 23  1  0  0  0  0
 24 23  1  1  0  0  0
 24 27  1  0  0  0  0
 25 24  1  0  0  0  0
 25 28  1  0  0  0  0
 26 27  1  0  0  0  0
 28 26  1  0  0  0  0
M  END
>  <MODEL>
5

>  <REMARK>
 VINA RESULT:      -6.5      3.015      7.196
  Name = 
  2 active torsions:
  status: ('A' for Active; 'I' for Inactive)
    1  A    between atoms: C_5  and  N_28
    2  A    between atoms: C_13  and  N_28
                            x       y       z     vdW  Elec       q    Type
                         _______ _______ _______ _____ _____    ______ ____

>  <TORSDO>
F 2

$$$$
=
 OpenBabel11062413303D

 28 31  0  0  1  0  0  0  0  0999 V2000
  185.4700  178.5070  140.3050 N   0  0  0  0  0  2  0  0  0  0  0  0
  187.9970  178.1910  137.7840 C   0  0  2  0  0  3  0  0  0  0  0  0
  189.1240  177.5310  137.0330 C   0  0  0  0  0  3  0  0  0  0  0  0
  189.1630  176.0900  142.3300 O   0  0  0  0  0  1  0  0  0  0  0  0
  190.3220  177.2160  139.0800 C   0  0  0  0  0  3  0  0  0  0  0  0
  187.9120  177.9930  143.0880 C   0  0  1  0  0  3  0  0  0  0  0  0
  185.2190  178.8290  138.9340 C   0  0  0  0  0  0  0  0  0  0  0  0
  184.7170  179.9440  138.6270 O   0  0  0  0  0  0  0  0  0  0  0  0
  185.5030  177.8380  137.8480 C   0  0  2  0  0  3  0  0  0  0  0  0
  186.8110  177.1090  143.6830 C   0  0  2  0  0  3  0  0  0  0  0  0
  184.4330  176.7650  137.8430 C   0  0  0  0  0  1  0  0  0  0  0  0
  188.5610  177.2760  141.9070 C   0  0  1  0  0  3  0  0  0  0  0  0
  190.1630  177.0640  137.6620 N   0  0  0  0  0  0  0  0  0  0  0  0
  187.2250  179.2680  142.6170 C   0  0  0  0  0  2  0  0  0  0  0  0
  185.0390  179.3890  141.3840 C   0  0  0  0  0  2  0  0  0  0  0  0
  189.4750  177.9930  139.7550 C   0  0  0  0  0  0  0  0  0  0  0  0
  188.4420  178.6420  139.0680 O   0  0  0  0  0  0  0  0  0  0  0  0
  189.6040  178.1510  141.2270 C   0  0  0  0  0  2  0  0  0  0  0  0
  185.7260  179.0420  142.7000 C   0  0  1  0  0  3  0  0  0  0  0  0
  185.4970  177.5980  143.1020 C   0  0  0  0  0  2  0  0  0  0  0  0
  186.8730  177.1840  137.9800 C   0  0  0  0  0  2  0  0  0  0  0  0
  185.6830  177.8390  145.5790 O   0  0  0  0  0  1  0  0  0  0  0  0
  186.7650  177.1350  145.1520 N   0  0  0  0  0  0  0  0  0  0  0  0
  187.9870  177.7610  145.6660 C   0  0  2  0  0  3  0  0  0  0  0  0
  189.1160  176.7540  145.7040 C   0  0  0  0  0  2  0  0  0  0  0  0
  189.0570  178.2130  147.5700 C   0  0  0  0  0  2  0  0  0  0  0  0
  187.7970  178.2820  146.9590 O   0  0  0  0  0  0  0  0  0  0  0  0
  189.7900  177.0150  147.0170 C   0  0  0  0  0  2  0  0  0  0  0  0
  1 15  1  0  0  0  0
  2  3  1  1  0  0  0
  2 21  1  0  0  0  0
  2 17  1  0  0  0  0
  3 13  2  0  0  0  0
  5 16  2  0  0  0  0
  6 14  1  6  0  0  0
  6 10  1  0  0  0  0
  7  1  1  0  0  0  0
  8  7  2  0  0  0  0
  9 11  1  1  0  0  0
  9 21  1  0  0  0  0
  9  7  1  0  0  0  0
 10 23  1  1  0  0  0
 12  4  1  1  0  0  0
 12  6  1  0  0  0  0
 13  5  1  0  0  0  0
 14 19  1  0  0  0  0
 16 18  1  0  0  0  0
 17 16  1  0  0  0  0
 18 12  1  0  0  0  0
 19 15  1  6  0  0  0
 19 20  1  0  0  0  0
 20 10  1  0  0  0  0
 23 22  1  0  0  0  0
 24 23  1  1  0  0  0
 24 25  1  0  0  0  0
 24 27  1  0  0  0  0
 25 28  1  0  0  0  0
 27 26  1  0  0  0  0
 28 26  1  0  0  0  0
M  END
>  <MODEL>
6

>  <REMARK>
 VINA RESULT:      -6.5      1.515      1.749
  Name = 
  2 active torsions:
  status: ('A' for Active; 'I' for Inactive)
    1  A    between atoms: C_5  and  N_28
    2  A    between atoms: C_13  and  N_28
                            x       y       z     vdW  Elec       q    Type
                         _______ _______ _______ _____ _____    ______ ____

>  <TORSDO>
F 2

$$$$
=
 OpenBabel11062413303D

 28 31  0  0  1  0  0  0  0  0999 V2000
  185.4890  178.1280  138.7790 N   0  0  0  0  0  2  0  0  0  0  0  0
  182.0370  177.2350  139.1360 C   0  0  2  0  0  3  0  0  0  0  0  0
  180.8670  176.3360  139.4420 C   0  0  0  0  0  3  0  0  0  0  0  0
  185.1180  173.4590  137.4950 O   0  0  0  0  0  1  0  0  0  0  0  0
  181.7300  174.6810  137.9460 C   0  0  0  0  0  3  0  0  0  0  0  0
  186.1670  175.3220  136.4040 C   0  0  1  0  0  3  0  0  0  0  0  0
  184.5480  178.9820  139.4350 C   0  0  0  0  0  0  0  0  0  0  0  0
  184.4450  180.1910  139.0930 O   0  0  0  0  0  0  0  0  0  0  0  0
  183.7050  178.4730  140.5630 C   0  0  2  0  0  3  0  0  0  0  0  0
  187.4550  175.1510  137.2160 C   0  0  2  0  0  3  0  0  0  0  0  0
  184.5470  178.3540  141.8170 C   0  0  0  0  0  1  0  0  0  0  0  0
  184.9770  174.8200  137.2180 C   0  0  1  0  0  3  0  0  0  0  0  0
  180.7730  175.1550  138.9040 N   0  0  0  0  0  0  0  0  0  0  0  0
  186.0280  176.8150  136.1350 C   0  0  0  0  0  2  0  0  0  0  0  0
  186.4370  178.6500  137.8000 C   0  0  0  0  0  2  0  0  0  0  0  0
  182.6470  175.5190  137.4640 C   0  0  0  0  0  0  0  0  0  0  0  0
  182.6640  176.8470  137.9090 O   0  0  0  0  0  0  0  0  0  0  0  0
  183.6630  175.0480  136.4880 C   0  0  0  0  0  2  0  0  0  0  0  0
  187.0670  177.5330  136.9770 C   0  0  1  0  0  3  0  0  0  0  0  0
  187.7540  176.4980  137.8470 C   0  0  0  0  0  2  0  0  0  0  0  0
  183.0560  177.1280  140.2620 C   0  0  0  0  0  2  0  0  0  0  0  0
  188.6210  173.3350  136.3570 O   0  0  0  0  0  1  0  0  0  0  0  0
  188.5990  174.6930  136.4150 N   0  0  0  0  0  0  0  0  0  0  0  0
  189.8430  175.1750  137.0220 C   0  0  2  0  0  3  0  0  0  0  0  0
  190.6990  175.8670  135.9840 C   0  0  0  0  0  2  0  0  0  0  0  0
  191.9210  174.5280  137.5090 C   0  0  0  0  0  2  0  0  0  0  0  0
  190.5820  174.1240  137.5940 O   0  0  0  0  0  0  0  0  0  0  0  0
  192.0850  175.3760  136.2710 C   0  0  0  0  0  2  0  0  0  0  0  0
  1  7  1  0  0  0  0
  2  3  1  1  0  0  0
  2 21  1  0  0  0  0
  5 13  1  0  0  0  0
  6 14  1  1  0  0  0
  6 10  1  0  0  0  0
  6 12  1  0  0  0  0
  7  9  1  0  0  0  0
  8  7  2  0  0  0  0
  9 11  1  1  0  0  0
 10 23  1  6  0  0  0
 10 20  1  0  0  0  0
 12  4  1  6  0  0  0
 13  3  2  0  0  0  0
 15  1  1  0  0  0  0
 16 17  1  0  0  0  0
 16  5  2  0  0  0  0
 17  2  1  0  0  0  0
 18 12  1  0  0  0  0
 18 16  1  0  0  0  0
 19 14  1  1  0  0  0
 19 15  1  0  0  0  0
 19 20  1  0  0  0  0
 21  9  1  0  0  0  0
 22 23  1  0  0  0  0
 24 23  1  6  0  0  0
 24 27  1  0  0  0  0
 25 28  1  0  0  0  0
 25 24  1  0  0  0  0
 26 27  1  0  0  0  0
 28 26  1  0  0  0  0
M  END
>  <MODEL>
7

>  <REMARK>
 VINA RESULT:      -6.3      4.262      6.545
  Name = 
  2 active torsions:
  status: ('A' for Active; 'I' for Inactive)
    1  A    between atoms: C_5  and  N_28
    2  A    between atoms: C_13  and  N_28
                            x       y       z     vdW  Elec       q    Type
                         _______ _______ _______ _____ _____    ______ ____

>  <TORSDO>
F 2

$$$$
=
 OpenBabel11062413303D

 28 31  0  0  1  0  0  0  0  0999 V2000
  187.4980  177.6280  138.7140 N   0  0  0  0  0  2  0  0  0  0  0  0
  186.1290  179.2430  141.6050 C   0  0  2  0  0  3  0  0  0  0  0  0
  185.2920  179.3660  142.8530 C   0  0  0  0  0  3  0  0  0  0  0  0
  182.9790  175.9310  139.2490 O   0  0  0  0  0  1  0  0  0  0  0  0
  183.3620  178.6290  141.6470 C   0  0  0  0  0  3  0  0  0  0  0  0
  184.1200  176.8170  137.3320 C   0  0  1  0  0  3  0  0  0  0  0  0
  188.3070  178.3960  139.6090 C   0  0  0  0  0  0  0  0  0  0  0  0
  189.0560  179.3060  139.1630 O   0  0  0  0  0  0  0  0  0  0  0  0
  188.3140  178.1050  141.0780 C   0  0  2  0  0  3  0  0  0  0  0  0
  184.7510  175.4600  137.0040 C   0  0  2  0  0  3  0  0  0  0  0  0
  189.1200  176.8500  141.3470 C   0  0  0  0  0  1  0  0  0  0  0  0
  183.8750  176.9180  138.8350 C   0  0  1  0  0  3  0  0  0  0  0  0
  184.0310  179.0440  142.8460 N   0  0  0  0  0  0  0  0  0  0  0  0
  185.1260  177.8720  136.8910 C   0  0  0  0  0  2  0  0  0  0  0  0
  187.6090  177.7810  137.2680 C   0  0  0  0  0  2  0  0  0  0  0  0
  183.9910  178.7280  140.4760 C   0  0  0  0  0  0  0  0  0  0  0  0
  185.2980  179.2290  140.4400 O   0  0  0  0  0  0  0  0  0  0  0  0
  183.3280  178.2840  139.2230 C   0  0  0  0  0  2  0  0  0  0  0  0
  186.4210  177.1580  136.5440 C   0  0  1  0  0  3  0  0  0  0  0  0
  186.2460  175.6910  136.8880 C   0  0  0  0  0  2  0  0  0  0  0  0
  186.9160  177.9420  141.6610 C   0  0  0  0  0  2  0  0  0  0  0  0
  183.5030  175.7580  135.0680 O   0  0  0  0  0  1  0  0  0  0  0  0
  184.2280  174.8500  135.7730 N   0  0  0  0  0  0  0  0  0  0  0  0
  183.3760  173.7090  136.1200 C   0  0  2  0  0  3  0  0  0  0  0  0
  184.0190  172.8880  137.2150 C   0  0  0  0  0  2  0  0  0  0  0  0
  182.9520  171.5980  135.5380 C   0  0  0  0  0  2  0  0  0  0  0  0
  183.1420  172.8800  135.0070 O   0  0  0  0  0  0  0  0  0  0  0  0
  183.7930  171.4700  136.7860 C   0  0  0  0  0  2  0  0  0  0  0  0
  1  7  1  0  0  0  0
  2 21  1  1  0  0  0
  2  3  1  0  0  0  0
  5 13  1  0  0  0  0
  6 14  1  1  0  0  0
  6 12  1  0  0  0  0
  7  9  1  0  0  0  0
  8  7  2  0  0  0  0
  9 11  1  6  0  0  0
  9 21  1  0  0  0  0
 10 23  1  6  0  0  0
 10  6  1  0  0  0  0
 12 18  1  0  0  0  0
 12  4  1  6  0  0  0
 13  3  2  0  0  0  0
 15  1  1  0  0  0  0
 16  5  2  0  0  0  0
 17 16  1  0  0  0  0
 17  2  1  0  0  0  0
 18 16  1  0  0  0  0
 19 20  1  1  0  0  0
 19 14  1  0  0  0  0
 19 15  1  0  0  0  0
 20 10  1  0  0  0  0
 22 23  1  0  0  0  0
 24 23  1  6  0  0  0
 24 25  1  0  0  0  0
 26 28  1  0  0  0  0
 27 26  1  0  0  0  0
 27 24  1  0  0  0  0
 28 25  1  0  0  0  0
M  END
>  <MODEL>
8

>  <REMARK>
 VINA RESULT:      -6.2      3.294      7.798
  Name = 
  2 active torsions:
  status: ('A' for Active; 'I' for Inactive)
    1  A    between atoms: C_5  and  N_28
    2  A    between atoms: C_13  and  N_28
                            x       y       z     vdW  Elec       q    Type
                         _______ _______ _______ _____ _____    ______ ____

>  <TORSDO>
F 2

$$$$
=
 OpenBabel11062413303D

 28 31  0  0  1  0  0  0  0  0999 V2000
  183.3820  176.0270  137.9080 N   0  0  0  0  0  2  0  0  0  0  0  0
  185.7510  175.8180  135.2280 C   0  0  2  0  0  3  0  0  0  0  0  0
  187.1120  175.6890  134.5940 C   0  0  0  0  0  3  0  0  0  0  0  0
  187.4220  178.2400  139.4450 O   0  0  0  0  0  1  0  0  0  0  0  0
  187.9200  177.5050  135.9250 C   0  0  0  0  0  3  0  0  0  0  0  0
  185.1260  178.9380  139.4770 C   0  0  1  0  0  3  0  0  0  0  0  0
  183.1620  175.1970  136.7640 C   0  0  0  0  0  0  0  0  0  0  0  0
  182.0830  175.2810  136.1190 O   0  0  0  0  0  0  0  0  0  0  0  0
  184.1840  174.1890  136.3400 C   0  0  2  0  0  3  0  0  0  0  0  0
  184.8540  178.1940  140.7890 C   0  0  2  0  0  3  0  0  0  0  0  0
  184.1440  172.9960  137.2750 C   0  0  0  0  0  1  0  0  0  0  0  0
  186.2370  178.2290  138.7070 C   0  0  1  0  0  3  0  0  0  0  0  0
  188.0960  176.4580  134.9610 N   0  0  0  0  0  0  0  0  0  0  0  0
  183.8250  178.8920  138.6850 C   0  0  0  0  0  2  0  0  0  0  0  0
  182.3290  176.8890  138.4350 C   0  0  0  0  0  2  0  0  0  0  0  0
  186.6920  177.8150  136.3410 C   0  0  0  0  0  0  0  0  0  0  0  0
  185.5960  177.1070  135.8320 O   0  0  0  0  0  0  0  0  0  0  0  0
  186.4840  178.8810  137.3550 C   0  0  0  0  0  2  0  0  0  0  0  0
  182.8870  177.9330  139.3960 C   0  0  1  0  0  3  0  0  0  0  0  0
  183.6510  177.3030  140.5450 C   0  0  0  0  0  2  0  0  0  0  0  0
  185.5990  174.7520  136.3030 C   0  0  0  0  0  2  0  0  0  0  0  0
  185.5850  180.0300  142.0110 O   0  0  0  0  0  1  0  0  0  0  0  0
  184.6100  179.0870  141.9310 N   0  0  0  0  0  0  0  0  0  0  0  0
  184.5900  178.3010  143.1680 C   0  0  2  0  0  3  0  0  0  0  0  0
  183.6280  178.9140  144.1630 C   0  0  0  0  0  2  0  0  0  0  0  0
  185.6310  178.0950  145.1300 C   0  0  0  0  0  2  0  0  0  0  0  0
  185.8660  178.2270  143.7550 O   0  0  0  0  0  0  0  0  0  0  0  0
  184.3600  178.8360  145.4690 C   0  0  0  0  0  2  0  0  0  0  0  0
  1 15  1  0  0  0  0
  2  3  1  1  0  0  0
  2 17  1  0  0  0  0
  2 21  1  0  0  0  0
  3 13  2  0  0  0  0
  5 16  2  0  0  0  0
  6 14  1  6  0  0  0
  6 10  1  0  0  0  0
  7  1  1  0  0  0  0
  8  7  2  0  0  0  0
  9  7  1  0  0  0  0
  9 11  1  1  0  0  0
 10 23  1  1  0  0  0
 12  4  1  1  0  0  0
 12  6  1  0  0  0  0
 13  5  1  0  0  0  0
 14 19  1  0  0  0  0
 16 18  1  0  0  0  0
 17 16  1  0  0  0  0
 18 12  1  0  0  0  0
 19 15  1  6  0  0  0
 19 20  1  0  0  0  0
 20 10  1  0  0  0  0
 21  9  1  0  0  0  0
 23 22  1  0  0  0  0
 24 23  1  6  0  0  0
 24 27  1  0  0  0  0
 24 25  1  0  0  0  0
 25 28  1  0  0  0  0
 26 28  1  0  0  0  0
 27 26  1  0  0  0  0
M  END
>  <MODEL>
9

>  <REMARK>
 VINA RESULT:      -6.2      3.363      4.606
  Name = 
  2 active torsions:
  status: ('A' for Active; 'I' for Inactive)
    1  A    between atoms: C_5  and  N_28
    2  A    between atoms: C_13  and  N_28
                            x       y       z     vdW  Elec       q    Type
                         _______ _______ _______ _____ _____    ______ ____

>  <TORSDO>
F 2

$$$$
