=
 OpenBabel11062414403D

 68 74  0  0  1  0  0  0  0  0999 V2000
  191.2600  176.9970  143.2480 N   0  0  0  0  0  0  0  0  0  0  0  0
  191.7150  177.1120  144.6330 C   0  0  0  0  0  2  0  0  0  0  0  0
  189.8850  176.3900  146.0980 C   0  0  0  0  0  2  0  0  0  0  0  0
  192.1320  175.9590  146.8170 C   0  0  0  0  0  2  0  0  0  0  0  0
  190.2020  177.3750  147.1920 C   0  0  2  0  0  3  0  0  0  0  0  0
  191.2470  175.9990  145.5590 C   0  0  2  0  0  3  0  0  0  0  0  0
  191.4770  176.8730  147.8470 C   0  0  0  0  0  2  0  0  0  0  0  0
  189.0740  177.5350  148.2020 C   0  0  0  0  0  2  0  0  0  0  0  0
  188.2670  178.6800  147.8170 N   0  0  0  0  0  2  0  0  0  0  0  0
  185.1070  178.9910  145.6550 C   0  0  0  0  0  1  0  0  0  0  0  0
  185.8340  180.1600  147.8700 C   0  0  0  0  0  1  0  0  0  0  0  0
  186.0400  177.7260  147.5660 C   0  0  0  0  0  2  0  0  0  0  0  0
  186.0170  179.0460  146.8640 C   0  0  0  0  0  0  0  0  0  0  0  0
  187.2940  178.2060  146.8430 C   0  0  1  0  0  3  0  0  0  0  0  0
  192.2190  177.5060  142.2630 C   0  0  0  0  0  2  0  0  0  0  0  0
  191.6050  177.6330  140.8670 C   0  0  0  0  0  2  0  0  0  0  0  0
  192.6890  177.3220  139.8610 C   0  0  0  0  0  2  0  0  0  0  0  0
  192.3290  176.4010  138.7020 C   0  0  1  0  0  3  0  0  0  0  0  0
  190.9600  175.8940  138.5800 N   0  0  0  0  0  2  0  0  0  0  0  0
  190.3230  177.5370  137.0260 O   0  0  0  0  0  0  0  0  0  0  0  0
  189.9910  176.5550  137.7550 C   0  0  0  0  0  0  0  0  0  0  0  0
  187.6850  177.0810  138.3430 C   0  0  0  0  0  1  0  0  0  0  0  0
  188.5880  176.0460  137.7150 C   0  0  1  0  0  3  0  0  0  0  0  0
  188.1370  175.7960  136.2710 C   0  0  0  0  0  2  0  0  0  0  0  0
  186.2550  174.4130  136.4750 N   0  0  0  0  0  2  0  0  0  0  0  0
  187.5950  174.4480  136.0490 N   0  0  0  0  0  0  0  0  0  0  0  0
  186.0740  173.1150  137.1260 C   0  0  0  0  0  2  0  0  0  0  0  0
  187.3660  172.5080  137.3490 N   0  0  0  0  0  2  0  0  0  0  0  0
  188.3210  173.4270  136.7760 C   0  0  0  0  0  2  0  0  0  0  0  0
  193.1530  176.4950  137.4220 C   0  0  0  0  0  2  0  0  0  0  0  0
  194.0110  175.2580  137.1100 C   0  0  1  0  0  3  0  0  0  0  0  0
  193.1920  173.2330  136.5920 C   0  0  0  0  0  1  0  0  0  0  0  0
  193.4840  174.4850  136.0530 O   0  0  0  0  0  0  0  0  0  0  0  0
  195.3410  175.7000  136.8950 O   0  0  0  0  0  0  0  0  0  0  0  0
  196.9120  176.1790  135.3020 O   0  0  0  0  0  0  0  0  0  0  0  0
  195.6030  175.7050  135.5010 C   0  0  2  0  0  3  0  0  0  0  0  0
  195.8700  177.0910  135.0290 C   0  0  0  0  0  2  0  0  0  0  0  0
  190.7180  175.6800  142.9170 C   0  0  0  0  0  2  0  0  0  0  0  0
  189.1670  175.5900  142.8390 C   0  0  0  0  0  2  0  0  0  0  0  0
  188.5150  176.7990  142.1540 C   0  0  0  0  0  2  0  0  0  0  0  0
  187.7690  177.6750  143.1830 C   0  0  0  0  0  2  0  0  0  0  0  0
  186.3860  177.5970  142.9840 O   0  0  0  0  0  0  0  0  0  0  0  0
  186.1590  178.3330  141.8220 C   0  0  2  0  0  3  0  0  0  0  0  0
  187.4250  179.0020  141.3070 C   0  0  0  0  0  1  0  0  0  0  0  0
  184.9880  179.3090  141.9980 C   0  0  0  0  0  2  0  0  0  0  0  0
  181.2240  179.9450  140.3810 O   0  0  0  0  0  0  0  0  0  0  0  0
  182.0430  179.4220  139.3570 C   0  0  1  0  0  3  0  0  0  0  0  0
  182.4430  178.8400  142.1550 C   0  0  0  0  0  2  0  0  0  0  0  0
  183.6890  178.9700  141.2740 C   0  0  1  0  0  0  0  0  0  0  0  0
  183.4800  179.2020  139.8170 C   0  0  1  0  0  0  0  0  0  0  0  0
  181.1250  178.9740  141.3890 C   0  0  1  0  0  3  0  0  0  0  0  0
  183.8170  177.9320  140.3190 O   0  0  0  0  0  0  0  0  0  0  0  0
  184.5180  179.8460  139.1410 O   0  0  0  0  0  1  0  0  0  0  0  0
  181.2540  174.7420  137.7180 O   0  0  0  0  0  0  0  0  0  0  0  0
  181.4910  178.8380  136.9640 C   0  0  1  0  0  3  0  0  0  0  0  0
  181.0670  180.1660  136.8150 O   0  0  0  0  0  1  0  0  0  0  0  0
  181.3550  178.3950  138.4170 C   0  0  1  0  0  3  0  0  0  0  0  0
  181.7890  176.9130  138.6160 C   0  0  2  0  0  3  0  0  0  0  0  0
  181.2270  175.9930  137.5580 C   0  0  0  0  0  0  0  0  0  0  0  0
  180.1620  178.3460  135.0200 O   0  0  0  0  0  0  0  0  0  0  0  0
  181.3490  176.3930  139.9850 C   0  0  0  0  0  1  0  0  0  0  0  0
  180.7230  177.9170  136.0630 C   0  0  0  0  0  0  0  0  0  0  0  0
  180.6310  176.5310  136.3650 N   0  0  0  0  0  2  0  0  0  0  0  0
  180.1030  179.3240  142.2900 O   0  0  0  0  0  0  0  0  0  0  0  0
  178.9320  178.6210  144.1230 F   0  0  0  0  0  0  0  0  0  0  0  0
  179.9100  177.0750  142.8140 F   0  0  0  0  0  0  0  0  0  0  0  0
  180.0420  178.3650  143.3330 C   0  0  0  0  0  0  0  0  0  0  0  0
  181.1830  178.4230  144.1410 F   0  0  0  0  0  0  0  0  0  0  0  0
  1  2  1  0  0  0  0
  3  5  1  0  0  0  0
  4  7  1  0  0  0  0
  5  7  1  0  0  0  0
  5  8  1  1  0  0  0
  6  2  1  6  0  0  0
  6  3  1  0  0  0  0
  6  4  1  0  0  0  0
  9  8  1  0  0  0  0
 10 13  1  0  0  0  0
 13 12  1  0  0  0  0
 13 11  1  0  0  0  0
 14 13  1  0  0  0  0
 14 12  1  0  0  0  0
 14  9  1  1  0  0  0
 15  1  1  0  0  0  0
 16 15  1  0  0  0  0
 17 16  1  0  0  0  0
 18 30  1  6  0  0  0
 18 17  1  0  0  0  0
 19 18  1  0  0  0  0
 20 21  2  0  0  0  0
 21 19  1  0  0  0  0
 23 21  1  0  0  0  0
 23 22  1  6  0  0  0
 24 23  1  0  0  0  0
 25 27  1  0  0  0  0
 26 24  1  0  0  0  0
 26 25  1  0  0  0  0
 26 29  1  0  0  0  0
 27 28  1  0  0  0  0
 29 28  1  0  0  0  0
 31 30  1  6  0  0  0
 33 32  1  0  0  0  0
 33 31  1  0  0  0  0
 34 31  1  0  0  0  0
 35 36  1  0  0  0  0
 36 34  1  1  0  0  0
 37 35  1  0  0  0  0
 37 36  1  0  0  0  0
 38  1  1  0  0  0  0
 39 38  1  0  0  0  0
 40 39  1  0  0  0  0
 40 41  1  0  0  0  0
 42 41  1  0  0  0  0
 43 44  1  1  0  0  0
 43 45  1  0  0  0  0
 43 42  1  0  0  0  0
 46 51  1  0  0  0  0
 47 50  1  0  0  0  0
 47 46  1  1  0  0  0
 49 45  1  1  0  0  0
 49 48  1  0  0  0  0
 50 53  1  6  0  0  0
 50 52  1  0  0  0  0
 50 49  1  0  0  0  0
 51 48  1  0  0  0  0
 51 64  1  1  0  0  0
 52 49  1  0  0  0  0
 55 56  1  1  0  0  0
 55 57  1  0  0  0  0
 57 58  1  0  0  0  0
 57 47  1  1  0  0  0
 58 61  1  1  0  0  0
 59 54  2  0  0  0  0
 59 58  1  0  0  0  0
 60 62  2  0  0  0  0
 62 63  1  0  0  0  0
 62 55  1  0  0  0  0
 63 59  1  0  0  0  0
 64 67  1  0  0  0  0
 66 67  1  0  0  0  0
 67 65  1  0  0  0  0
 67 68  1  0  0  0  0
M  END
>  <MODEL>
1

>  <REMARK>
 VINA RESULT:      -6.0      0.000      0.000
  Name = 
  29 active torsions:
  status: ('A' for Active; 'I' for Inactive)
    1  A    between atoms: C_2  and  N_10
    2  A    between atoms: C_2  and  C_34
    3  A    between atoms: C_2  and  C_42
    4  A    between atoms: C_7  and  C_22
    5  A    between atoms: O_8  and  C_45
    6  A    between atoms: O_8  and  C_62
    7  A    between atoms: C_13  and  C_30
    8  A    between atoms: C_13  and  O_49
    9  A    between atoms: C_16  and  C_42
   10  A    between atoms: C_16  and  C_64
   11  A    between atoms: C_17  and  N_36
   12  A    between atoms: C_17  and  C_65
   13  A    between atoms: C_20  and  O_49
   14  A    between atoms: C_20  and  C_66
   15  A    between atoms: C_21  and  N_43
   16  A    between atoms: C_21  and  C_50
   17  A    between atoms: O_23  and  C_33
   18  A    between atoms: O_23  and  C_53
   19  A    between atoms: C_24  and  C_65
   20  A    between atoms: C_27  and  C_28
   21  A    between atoms: C_27  and  N_43
   22  A    between atoms: C_28  and  C_66
   23  A    between atoms: C_30  and  C_32
   24  A    between atoms: C_33  and  C_34
   25  A    between atoms: C_33  and  O_60
   26  A    between atoms: N_43  and  C_64
   27  A    between atoms: C_44  and  C_54
   28  A    between atoms: C_54  and  N_59
   29  A    between atoms: C_57  and  N_59
                            x       y       z     vdW  Elec       q    Type
                         _______ _______ _______ _____ _____    ______ ____

>  <TORSDO>
F 29

$$$$
=
 OpenBabel11062414403D

 68 74  0  0  1  0  0  0  0  0999 V2000
  191.3240  176.9280  143.3810 N   0  0  0  0  0  0  0  0  0  0  0  0
  191.7060  177.1410  144.7770 C   0  0  0  0  0  2  0  0  0  0  0  0
  189.9670  176.6090  146.4230 C   0  0  0  0  0  2  0  0  0  0  0  0
  192.2150  175.9270  146.9080 C   0  0  0  0  0  2  0  0  0  0  0  0
  190.5010  177.5420  147.4780 C   0  0  2  0  0  3  0  0  0  0  0  0
  191.2150  176.0760  145.7480 C   0  0  2  0  0  3  0  0  0  0  0  0
  191.7730  176.8970  147.9980 C   0  0  0  0  0  2  0  0  0  0  0  0
  189.5060  177.8150  148.5980 C   0  0  0  0  0  2  0  0  0  0  0  0
  188.4900  178.7270  148.1040 N   0  0  0  0  0  2  0  0  0  0  0  0
  185.4280  178.2440  145.8350 C   0  0  0  0  0  1  0  0  0  0  0  0
  186.0360  180.0780  147.5890 C   0  0  0  0  0  1  0  0  0  0  0  0
  186.2920  177.6800  148.0840 C   0  0  0  0  0  2  0  0  0  0  0  0
  186.2810  178.7070  146.9980 C   0  0  0  0  0  0  0  0  0  0  0  0
  187.5700  177.9410  147.2950 C   0  0  1  0  0  3  0  0  0  0  0  0
  192.3450  177.3460  142.4160 C   0  0  0  0  0  2  0  0  0  0  0  0
  191.7390  177.7480  141.0680 C   0  0  0  0  0  2  0  0  0  0  0  0
  192.5290  177.0480  139.9860 C   0  0  0  0  0  2  0  0  0  0  0  0
  191.7670  176.5770  138.7540 C   0  0  1  0  0  3  0  0  0  0  0  0
  190.7500  177.4470  138.1570 N   0  0  0  0  0  2  0  0  0  0  0  0
  188.9830  175.9800  138.6500 O   0  0  0  0  0  0  0  0  0  0  0  0
  189.3740  177.0500  138.0950 C   0  0  0  0  0  0  0  0  0  0  0  0
  188.9830  179.3140  137.2820 C   0  0  0  0  0  1  0  0  0  0  0  0
  188.3820  177.9350  137.4150 C   0  0  1  0  0  3  0  0  0  0  0  0
  188.0380  177.4000  136.0200 C   0  0  0  0  0  2  0  0  0  0  0  0
  185.8870  177.5630  136.9390 N   0  0  0  0  0  2  0  0  0  0  0  0
  186.6230  177.0350  135.8620 N   0  0  0  0  0  0  0  0  0  0  0  0
  184.9080  176.5360  137.2980 C   0  0  0  0  0  2  0  0  0  0  0  0
  185.2530  175.2970  136.6420 N   0  0  0  0  0  2  0  0  0  0  0  0
  186.4150  175.6010  135.8400 C   0  0  0  0  0  2  0  0  0  0  0  0
  192.4340  175.5560  137.8380 C   0  0  0  0  0  2  0  0  0  0  0  0
  192.7990  176.0790  136.4390 C   0  0  1  0  0  3  0  0  0  0  0  0
  194.6380  176.1020  135.1510 C   0  0  0  0  0  1  0  0  0  0  0  0
  194.1260  176.5550  136.3670 O   0  0  0  0  0  0  0  0  0  0  0  0
  192.5020  175.0530  135.5060 O   0  0  0  0  0  0  0  0  0  0  0  0
  191.6090  172.9660  135.7930 O   0  0  0  0  0  0  0  0  0  0  0  0
  191.3610  174.3400  135.9550 C   0  0  2  0  0  3  0  0  0  0  0  0
  190.7610  173.5640  134.8350 C   0  0  0  0  0  2  0  0  0  0  0  0
  190.7750  175.5990  143.1210 C   0  0  0  0  0  2  0  0  0  0  0  0
  189.2300  175.5280  142.9530 C   0  0  0  0  0  2  0  0  0  0  0  0
  188.6450  176.7010  142.1520 C   0  0  0  0  0  2  0  0  0  0  0  0
  187.9200  177.6940  143.0870 C   0  0  0  0  0  2  0  0  0  0  0  0
  186.5360  177.6360  142.8880 O   0  0  0  0  0  0  0  0  0  0  0  0
  186.3210  178.3670  141.7210 C   0  0  2  0  0  3  0  0  0  0  0  0
  187.6010  178.9990  141.1920 C   0  0  0  0  0  1  0  0  0  0  0  0
  185.1770  179.3740  141.8940 C   0  0  0  0  0  2  0  0  0  0  0  0
  181.3200  179.9630  140.4930 O   0  0  0  0  0  0  0  0  0  0  0  0
  182.0740  179.4060  139.4380 C   0  0  1  0  0  3  0  0  0  0  0  0
  182.6470  178.9150  142.2230 C   0  0  0  0  0  2  0  0  0  0  0  0
  183.8360  179.0140  141.2630 C   0  0  1  0  0  0  0  0  0  0  0  0
  183.5370  179.1980  139.8150 C   0  0  1  0  0  0  0  0  0  0  0  0
  181.2830  179.0260  141.5360 C   0  0  1  0  0  3  0  0  0  0  0  0
  183.9050  177.9450  140.3370 O   0  0  0  0  0  0  0  0  0  0  0  0
  184.5310  179.8170  139.0550 O   0  0  0  0  0  1  0  0  0  0  0  0
  178.9320  178.1100  135.7420 O   0  0  0  0  0  0  0  0  0  0  0  0
  180.6250  177.3380  139.4750 C   0  0  1  0  0  3  0  0  0  0  0  0
  181.5180  176.8190  140.4230 O   0  0  0  0  0  1  0  0  0  0  0  0
  181.3300  178.3490  138.5760 C   0  0  1  0  0  3  0  0  0  0  0  0
  180.3750  178.9260  137.4900 C   0  0  2  0  0  3  0  0  0  0  0  0
  179.5480  177.8580  136.8140 C   0  0  0  0  0  0  0  0  0  0  0  0
  179.9430  175.0650  139.0830 O   0  0  0  0  0  0  0  0  0  0  0  0
  181.1610  179.6770  136.4140 C   0  0  0  0  0  1  0  0  0  0  0  0
  180.0090  176.2470  138.6520 C   0  0  0  0  0  0  0  0  0  0  0  0
  179.4720  176.5340  137.3670 N   0  0  0  0  0  2  0  0  0  0  0  0
  180.3190  179.4090  142.4870 O   0  0  0  0  0  0  0  0  0  0  0  0
  179.5030  177.2770  142.6160 F   0  0  0  0  0  0  0  0  0  0  0  0
  181.2250  177.8520  143.9460 F   0  0  0  0  0  0  0  0  0  0  0  0
  180.0490  178.3180  143.3520 C   0  0  0  0  0  0  0  0  0  0  0  0
  179.1390  178.6770  144.3520 F   0  0  0  0  0  0  0  0  0  0  0  0
  1  2  1  0  0  0  0
  3  5  1  0  0  0  0
  4  7  1  0  0  0  0
  5  7  1  0  0  0  0
  5  8  1  1  0  0  0
  6  2  1  6  0  0  0
  6  3  1  0  0  0  0
  6  4  1  0  0  0  0
  9  8  1  0  0  0  0
 10 13  1  0  0  0  0
 13 14  1  0  0  0  0
 13 11  1  0  0  0  0
 13 12  1  0  0  0  0
 14 12  1  0  0  0  0
 14  9  1  1  0  0  0
 15  1  1  0  0  0  0
 16 15  1  0  0  0  0
 17 16  1  0  0  0  0
 18 30  1  6  0  0  0
 18 17  1  0  0  0  0
 19 18  1  0  0  0  0
 21 19  1  0  0  0  0
 21 20  2  0  0  0  0
 23 22  1  6  0  0  0
 23 21  1  0  0  0  0
 24 23  1  0  0  0  0
 25 27  1  0  0  0  0
 26 24  1  0  0  0  0
 26 25  1  0  0  0  0
 28 27  1  0  0  0  0
 29 26  1  0  0  0  0
 29 28  1  0  0  0  0
 31 30  1  1  0  0  0
 32 33  1  0  0  0  0
 33 31  1  0  0  0  0
 34 31  1  0  0  0  0
 35 36  1  0  0  0  0
 36 34  1  6  0  0  0
 37 35  1  0  0  0  0
 37 36  1  0  0  0  0
 38  1  1  0  0  0  0
 39 38  1  0  0  0  0
 40 39  1  0  0  0  0
 40 41  1  0  0  0  0
 42 41  1  0  0  0  0
 43 44  1  1  0  0  0
 43 45  1  0  0  0  0
 43 42  1  0  0  0  0
 46 51  1  0  0  0  0
 47 50  1  0  0  0  0
 47 46  1  1  0  0  0
 49 45  1  1  0  0  0
 49 48  1  0  0  0  0
 50 53  1  6  0  0  0
 50 52  1  0  0  0  0
 50 49  1  0  0  0  0
 51 48  1  0  0  0  0
 51 64  1  1  0  0  0
 52 49  1  0  0  0  0
 54 59  2  0  0  0  0
 55 56  1  1  0  0  0
 57 47  1  1  0  0  0
 57 55  1  0  0  0  0
 58 61  1  6  0  0  0
 58 57  1  0  0  0  0
 59 63  1  0  0  0  0
 59 58  1  0  0  0  0
 62 60  2  0  0  0  0
 62 55  1  0  0  0  0
 63 62  1  0  0  0  0
 64 67  1  0  0  0  0
 65 67  1  0  0  0  0
 67 66  1  0  0  0  0
 67 68  1  0  0  0  0
M  END
>  <MODEL>
2

>  <REMARK>
 VINA RESULT:      -5.3      1.291      2.284
  Name = 
  29 active torsions:
  status: ('A' for Active; 'I' for Inactive)
    1  A    between atoms: C_2  and  N_10
    2  A    between atoms: C_2  and  C_34
    3  A    between atoms: C_2  and  C_42
    4  A    between atoms: C_7  and  C_22
    5  A    between atoms: O_8  and  C_45
    6  A    between atoms: O_8  and  C_62
    7  A    between atoms: C_13  and  C_30
    8  A    between atoms: C_13  and  O_49
    9  A    between atoms: C_16  and  C_42
   10  A    between atoms: C_16  and  C_64
   11  A    between atoms: C_17  and  N_36
   12  A    between atoms: C_17  and  C_65
   13  A    between atoms: C_20  and  O_49
   14  A    between atoms: C_20  and  C_66
   15  A    between atoms: C_21  and  N_43
   16  A    between atoms: C_21  and  C_50
   17  A    between atoms: O_23  and  C_33
   18  A    between atoms: O_23  and  C_53
   19  A    between atoms: C_24  and  C_65
   20  A    between atoms: C_27  and  C_28
   21  A    between atoms: C_27  and  N_43
   22  A    between atoms: C_28  and  C_66
   23  A    between atoms: C_30  and  C_32
   24  A    between atoms: C_33  and  C_34
   25  A    between atoms: C_33  and  O_60
   26  A    between atoms: N_43  and  C_64
   27  A    between atoms: C_44  and  C_54
   28  A    between atoms: C_54  and  N_59
   29  A    between atoms: C_57  and  N_59
                            x       y       z     vdW  Elec       q    Type
                         _______ _______ _______ _____ _____    ______ ____

>  <TORSDO>
F 29

$$$$
=
 OpenBabel11062414403D

 68 74  0  0  1  0  0  0  0  0999 V2000
  191.0650  177.1550  143.2120 N   0  0  0  0  0  0  0  0  0  0  0  0
  191.5470  177.2900  144.5870 C   0  0  0  0  0  2  0  0  0  0  0  0
  189.6710  176.7970  146.0880 C   0  0  0  0  0  2  0  0  0  0  0  0
  191.8780  176.2130  146.8240 C   0  0  0  0  0  2  0  0  0  0  0  0
  190.0760  177.8030  147.1330 C   0  0  2  0  0  3  0  0  0  0  0  0
  190.9920  176.2660  145.5670 C   0  0  2  0  0  3  0  0  0  0  0  0
  191.3080  177.2280  147.8090 C   0  0  0  0  0  2  0  0  0  0  0  0
  188.9710  178.1080  148.1350 C   0  0  0  0  0  2  0  0  0  0  0  0
  187.8110  177.2980  147.8060 N   0  0  0  0  0  2  0  0  0  0  0  0
  184.3720  178.5520  146.6430 C   0  0  0  0  0  1  0  0  0  0  0  0
  186.2450  177.2020  145.4290 C   0  0  0  0  0  1  0  0  0  0  0  0
  186.7520  179.2180  146.7470 C   0  0  0  0  0  2  0  0  0  0  0  0
  185.8060  178.0720  146.5860 C   0  0  0  0  0  0  0  0  0  0  0  0
  186.6510  178.1770  147.8560 C   0  0  1  0  0  3  0  0  0  0  0  0
  192.1230  177.2410  142.2010 C   0  0  0  0  0  2  0  0  0  0  0  0
  191.6290  177.8760  140.8980 C   0  0  0  0  0  2  0  0  0  0  0  0
  192.3350  177.1830  139.7560 C   0  0  0  0  0  2  0  0  0  0  0  0
  191.5080  176.2460  138.8840 C   0  0  1  0  0  3  0  0  0  0  0  0
  190.1670  176.6520  138.4580 N   0  0  0  0  0  2  0  0  0  0  0  0
  190.6560  176.4260  136.1710 O   0  0  0  0  0  0  0  0  0  0  0  0
  189.8310  176.7710  137.0680 C   0  0  0  0  0  0  0  0  0  0  0  0
  188.5300  178.7570  136.5210 C   0  0  0  0  0  1  0  0  0  0  0  0
  188.4740  177.2560  136.6780 C   0  0  1  0  0  3  0  0  0  0  0  0
  188.0290  176.6280  135.3510 C   0  0  0  0  0  2  0  0  0  0  0  0
  186.3350  175.7530  136.7160 N   0  0  0  0  0  2  0  0  0  0  0  0
  187.0360  175.5560  135.5120 N   0  0  0  0  0  0  0  0  0  0  0  0
  186.1500  174.4210  137.2950 C   0  0  0  0  0  2  0  0  0  0  0  0
  186.9890  173.4760  136.5970 N   0  0  0  0  0  2  0  0  0  0  0  0
  187.6380  174.2390  135.5560 C   0  0  0  0  0  2  0  0  0  0  0  0
  192.2430  175.2400  138.0060 C   0  0  0  0  0  2  0  0  0  0  0  0
  193.7500  175.5010  137.8400 C   0  0  1  0  0  3  0  0  0  0  0  0
  195.2470  174.1050  138.7620 C   0  0  0  0  0  1  0  0  0  0  0  0
  194.4840  174.3160  137.6150 O   0  0  0  0  0  0  0  0  0  0  0  0
  193.9060  176.4790  136.8250 O   0  0  0  0  0  0  0  0  0  0  0  0
  195.8810  176.6790  135.6860 O   0  0  0  0  0  0  0  0  0  0  0  0
  194.6920  175.9330  135.7790 C   0  0  2  0  0  3  0  0  0  0  0  0
  194.9000  176.9440  134.7050 C   0  0  0  0  0  2  0  0  0  0  0  0
  190.1550  176.0270  143.0200 C   0  0  0  0  0  2  0  0  0  0  0  0
  188.6430  176.3870  142.9410 C   0  0  0  0  0  2  0  0  0  0  0  0
  188.2630  177.1670  141.6730 C   0  0  0  0  0  2  0  0  0  0  0  0
  187.4970  178.4570  142.0350 C   0  0  0  0  0  2  0  0  0  0  0  0
  186.2780  178.5130  141.3490 O   0  0  0  0  0  0  0  0  0  0  0  0
  186.6200  178.3190  140.0120 C   0  0  2  0  0  3  0  0  0  0  0  0
  187.9280  179.0060  139.6470 C   0  0  0  0  0  1  0  0  0  0  0  0
  185.4610  178.6900  139.0780 C   0  0  0  0  0  2  0  0  0  0  0  0
  181.3980  178.9320  139.8620 O   0  0  0  0  0  0  0  0  0  0  0  0
  181.5850  177.9120  138.9050 C   0  0  1  0  0  3  0  0  0  0  0  0
  183.5800  178.6310  140.8610 C   0  0  0  0  0  2  0  0  0  0  0  0
  184.0710  178.2040  139.4740 C   0  0  1  0  0  0  0  0  0  0  0  0
  183.0450  177.7670  138.4870 C   0  0  1  0  0  0  0  0  0  0  0  0
  182.0620  178.5460  141.0360 C   0  0  1  0  0  3  0  0  0  0  0  0
  183.8350  176.8380  139.1870 O   0  0  0  0  0  0  0  0  0  0  0  0
  183.3850  177.9110  137.1400 O   0  0  0  0  0  1  0  0  0  0  0  0
  178.9820  174.7070  141.7630 O   0  0  0  0  0  0  0  0  0  0  0  0
  181.3260  175.4520  138.3940 C   0  0  1  0  0  3  0  0  0  0  0  0
  181.6410  175.7710  137.0660 O   0  0  0  0  0  1  0  0  0  0  0  0
  180.6960  176.6520  139.0950 C   0  0  1  0  0  3  0  0  0  0  0  0
  180.3050  176.3270  140.5660 C   0  0  2  0  0  3  0  0  0  0  0  0
  179.5990  174.9980  140.7020 C   0  0  0  0  0  0  0  0  0  0  0  0
  180.3590  173.4270  137.5290 O   0  0  0  0  0  0  0  0  0  0  0  0
  179.3960  177.4130  141.1440 C   0  0  0  0  0  1  0  0  0  0  0  0
  180.4120  174.2650  138.4680 C   0  0  0  0  0  0  0  0  0  0  0  0
  179.5990  174.0570  139.6150 N   0  0  0  0  0  2  0  0  0  0  0  0
  181.6740  179.3810  142.1000 O   0  0  0  0  0  0  0  0  0  0  0  0
  182.0340  177.8990  143.8030 F   0  0  0  0  0  0  0  0  0  0  0  0
  183.8070  178.9380  142.8890 F   0  0  0  0  0  0  0  0  0  0  0  0
  182.4640  179.0920  143.2410 C   0  0  0  0  0  0  0  0  0  0  0  0
  182.3530  180.1000  144.2040 F   0  0  0  0  0  0  0  0  0  0  0  0
  1  2  1  0  0  0  0
  3  5  1  0  0  0  0
  4  7  1  0  0  0  0
  5  7  1  0  0  0  0
  5  8  1  1  0  0  0
  6  2  1  6  0  0  0
  6  3  1  0  0  0  0
  6  4  1  0  0  0  0
  9  8  1  0  0  0  0
 11 13  1  0  0  0  0
 12 14  1  0  0  0  0
 13 10  1  0  0  0  0
 13 12  1  0  0  0  0
 13 14  1  0  0  0  0
 14  9  1  6  0  0  0
 15  1  1  0  0  0  0
 16 15  1  0  0  0  0
 17 16  1  0  0  0  0
 18 30  1  6  0  0  0
 18 17  1  0  0  0  0
 19 18  1  0  0  0  0
 20 21  2  0  0  0  0
 21 19  1  0  0  0  0
 23 22  1  6  0  0  0
 23 21  1  0  0  0  0
 24 26  1  0  0  0  0
 24 23  1  0  0  0  0
 25 27  1  0  0  0  0
 26 29  1  0  0  0  0
 26 25  1  0  0  0  0
 28 27  1  0  0  0  0
 29 28  1  0  0  0  0
 31 30  1  6  0  0  0
 33 31  1  0  0  0  0
 33 32  1  0  0  0  0
 34 31  1  0  0  0  0
 35 36  1  0  0  0  0
 36 34  1  1  0  0  0
 37 35  1  0  0  0  0
 37 36  1  0  0  0  0
 38  1  1  0  0  0  0
 39 38  1  0  0  0  0
 40 41  1  0  0  0  0
 40 39  1  0  0  0  0
 42 41  1  0  0  0  0
 43 44  1  6  0  0  0
 43 42  1  0  0  0  0
 45 43  1  0  0  0  0
 46 51  1  0  0  0  0
 47 46  1  1  0  0  0
 48 51  1  0  0  0  0
 49 45  1  6  0  0  0
 49 48  1  0  0  0  0
 50 53  1  6  0  0  0
 50 47  1  0  0  0  0
 50 52  1  0  0  0  0
 50 49  1  0  0  0  0
 51 64  1  1  0  0  0
 52 49  1  0  0  0  0
 55 56  1  6  0  0  0
 55 62  1  0  0  0  0
 55 57  1  0  0  0  0
 57 47  1  1  0  0  0
 57 58  1  0  0  0  0
 58 59  1  0  0  0  0
 58 61  1  6  0  0  0
 59 54  2  0  0  0  0
 60 62  2  0  0  0  0
 62 63  1  0  0  0  0
 63 59  1  0  0  0  0
 64 67  1  0  0  0  0
 66 67  1  0  0  0  0
 67 65  1  0  0  0  0
 67 68  1  0  0  0  0
M  END
>  <MODEL>
3

>  <REMARK>
 VINA RESULT:      -5.0      1.584      2.166
  Name = 
  29 active torsions:
  status: ('A' for Active; 'I' for Inactive)
    1  A    between atoms: C_2  and  N_10
    2  A    between atoms: C_2  and  C_34
    3  A    between atoms: C_2  and  C_42
    4  A    between atoms: C_7  and  C_22
    5  A    between atoms: O_8  and  C_45
    6  A    between atoms: O_8  and  C_62
    7  A    between atoms: C_13  and  C_30
    8  A    between atoms: C_13  and  O_49
    9  A    between atoms: C_16  and  C_42
   10  A    between atoms: C_16  and  C_64
   11  A    between atoms: C_17  and  N_36
   12  A    between atoms: C_17  and  C_65
   13  A    between atoms: C_20  and  O_49
   14  A    between atoms: C_20  and  C_66
   15  A    between atoms: C_21  and  N_43
   16  A    between atoms: C_21  and  C_50
   17  A    between atoms: O_23  and  C_33
   18  A    between atoms: O_23  and  C_53
   19  A    between atoms: C_24  and  C_65
   20  A    between atoms: C_27  and  C_28
   21  A    between atoms: C_27  and  N_43
   22  A    between atoms: C_28  and  C_66
   23  A    between atoms: C_30  and  C_32
   24  A    between atoms: C_33  and  C_34
   25  A    between atoms: C_33  and  O_60
   26  A    between atoms: N_43  and  C_64
   27  A    between atoms: C_44  and  C_54
   28  A    between atoms: C_54  and  N_59
   29  A    between atoms: C_57  and  N_59
                            x       y       z     vdW  Elec       q    Type
                         _______ _______ _______ _____ _____    ______ ____

>  <TORSDO>
F 29

$$$$
=
 OpenBabel11062414403D

 68 74  0  0  1  0  0  0  0  0999 V2000
  189.4230  177.7760  140.1590 N   0  0  0  0  0  0  0  0  0  0  0  0
  190.8170  178.0470  140.5100 C   0  0  0  0  0  2  0  0  0  0  0  0
  192.6220  177.1640  139.1030 C   0  0  0  0  0  2  0  0  0  0  0  0
  190.9760  175.6200  139.9130 C   0  0  0  0  0  2  0  0  0  0  0  0
  191.7240  176.8190  137.9450 C   0  0  2  0  0  3  0  0  0  0  0  0
  191.7680  176.8740  140.3210 C   0  0  2  0  0  3  0  0  0  0  0  0
  190.9180  175.6110  138.3900 C   0  0  0  0  0  2  0  0  0  0  0  0
  192.4840  176.5480  136.6540 C   0  0  0  0  0  2  0  0  0  0  0  0
  193.8920  176.3860  136.9710 N   0  0  0  0  0  2  0  0  0  0  0  0
  195.8940  173.2660  137.9750 C   0  0  0  0  0  1  0  0  0  0  0  0
  196.3010  175.0980  136.1640 C   0  0  0  0  0  1  0  0  0  0  0  0
  194.1060  174.0190  136.4410 C   0  0  0  0  0  2  0  0  0  0  0  0
  195.3690  174.4120  137.1370 C   0  0  0  0  0  0  0  0  0  0  0  0
  194.0480  175.0600  137.5520 C   0  0  1  0  0  3  0  0  0  0  0  0
  188.4880  177.9290  141.2780 C   0  0  0  0  0  2  0  0  0  0  0  0
  188.6310  176.8080  142.3110 C   0  0  0  0  0  2  0  0  0  0  0  0
  187.3300  176.7210  143.0740 C   0  0  0  0  0  2  0  0  0  0  0  0
  187.1990  177.5620  144.3370 C   0  0  1  0  0  3  0  0  0  0  0  0
  188.3980  177.9080  145.1030 N   0  0  0  0  0  2  0  0  0  0  0  0
  187.6630  176.8120  147.0470 O   0  0  0  0  0  0  0  0  0  0  0  0
  188.5340  177.5390  146.4820 C   0  0  0  0  0  0  0  0  0  0  0  0
  189.3190  178.3270  148.6510 C   0  0  0  0  0  1  0  0  0  0  0  0
  189.7420  177.9730  147.2450 C   0  0  1  0  0  3  0  0  0  0  0  0
  190.7860  176.8510  147.3030 C   0  0  0  0  0  2  0  0  0  0  0  0
  191.6910  178.1510  145.5740 N   0  0  0  0  0  2  0  0  0  0  0  0
  191.7540  176.8910  146.1970 N   0  0  0  0  0  0  0  0  0  0  0  0
  191.8240  177.8960  144.1390 C   0  0  0  0  0  2  0  0  0  0  0  0
  191.6670  176.4820  143.8890 N   0  0  0  0  0  2  0  0  0  0  0  0
  191.4960  175.8820  145.1910 C   0  0  0  0  0  2  0  0  0  0  0  0
  186.0000  178.4960  144.4620 C   0  0  0  0  0  2  0  0  0  0  0  0
  184.9750  178.3930  143.3200 C   0  0  1  0  0  3  0  0  0  0  0  0
  183.4910  179.3050  144.7370 C   0  0  0  0  0  1  0  0  0  0  0  0
  183.6470  178.2920  143.7910 O   0  0  0  0  0  0  0  0  0  0  0  0
  185.1950  179.4860  142.4450 O   0  0  0  0  0  0  0  0  0  0  0  0
  184.7350  179.8280  140.2300 O   0  0  0  0  0  0  0  0  0  0  0  0
  185.4090  178.9890  141.1340 C   0  0  2  0  0  3  0  0  0  0  0  0
  184.1170  178.5910  140.5130 C   0  0  0  0  0  2  0  0  0  0  0  0
  188.9880  178.4410  138.9320 C   0  0  0  0  0  2  0  0  0  0  0  0
  187.5050  178.2060  138.5270 C   0  0  0  0  0  2  0  0  0  0  0  0
  187.2980  176.9680  137.6430 C   0  0  0  0  0  2  0  0  0  0  0  0
  186.0900  177.1640  136.7010 C   0  0  0  0  0  2  0  0  0  0  0  0
  185.0880  176.2290  136.9860 O   0  0  0  0  0  0  0  0  0  0  0  0
  184.7300  175.7120  135.7420 C   0  0  2  0  0  3  0  0  0  0  0  0
  185.1730  176.6100  134.5960 C   0  0  0  0  0  1  0  0  0  0  0  0
  183.2380  175.3580  135.6920 C   0  0  0  0  0  2  0  0  0  0  0  0
  180.0490  177.7320  136.8640 O   0  0  0  0  0  0  0  0  0  0  0  0
  179.9610  176.5200  137.5800 C   0  0  1  0  0  3  0  0  0  0  0  0
  182.4580  177.6330  136.6580 C   0  0  0  0  0  2  0  0  0  0  0  0
  182.3160  176.1080  136.6470 C   0  0  1  0  0  0  0  0  0  0  0  0
  181.0540  175.5310  137.1880 C   0  0  1  0  0  0  0  0  0  0  0  0
  181.2450  178.3650  137.2370 C   0  0  1  0  0  3  0  0  0  0  0  0
  182.2410  175.5380  137.9410 O   0  0  0  0  0  0  0  0  0  0  0  0
  180.6910  174.2740  136.6980 O   0  0  0  0  0  1  0  0  0  0  0  0
  179.6220  179.0750  141.8890 O   0  0  0  0  0  0  0  0  0  0  0  0
  179.9960  175.4470  139.8650 C   0  0  1  0  0  3  0  0  0  0  0  0
  179.6090  174.2580  139.2320 O   0  0  0  0  0  1  0  0  0  0  0  0
  179.5240  176.6560  139.0640 C   0  0  1  0  0  3  0  0  0  0  0  0
  179.9110  177.9970  139.7530 C   0  0  2  0  0  3  0  0  0  0  0  0
  179.6230  177.9960  141.2370 C   0  0  0  0  0  0  0  0  0  0  0  0
  179.1700  174.4650  141.9000 O   0  0  0  0  0  0  0  0  0  0  0  0
  179.1630  179.1730  139.1220 C   0  0  0  0  0  1  0  0  0  0  0  0
  179.4720  175.5130  141.2690 C   0  0  0  0  0  0  0  0  0  0  0  0
  179.3220  176.7670  141.9200 N   0  0  0  0  0  2  0  0  0  0  0  0
  181.2460  179.6940  136.7750 O   0  0  0  0  0  0  0  0  0  0  0  0
  181.3420  180.3720  134.5940 F   0  0  0  0  0  0  0  0  0  0  0  0
  180.2070  178.4930  135.0870 F   0  0  0  0  0  0  0  0  0  0  0  0
  180.5370  179.7690  135.5490 C   0  0  0  0  0  0  0  0  0  0  0  0
  179.3680  180.5270  135.6850 F   0  0  0  0  0  0  0  0  0  0  0  0
  1  2  1  0  0  0  0
  1 15  1  0  0  0  0
  3  6  1  0  0  0  0
  4  6  1  0  0  0  0
  5  8  1  6  0  0  0
  5  7  1  0  0  0  0
  5  3  1  0  0  0  0
  6  2  1  6  0  0  0
  7  4  1  0  0  0  0
  8  9  1  0  0  0  0
 11 13  1  0  0  0  0
 12 13  1  0  0  0  0
 12 14  1  0  0  0  0
 13 14  1  0  0  0  0
 13 10  1  0  0  0  0
 14  9  1  6  0  0  0
 15 16  1  0  0  0  0
 16 17  1  0  0  0  0
 18 17  1  6  0  0  0
 18 30  1  0  0  0  0
 18 19  1  0  0  0  0
 19 21  1  0  0  0  0
 21 20  2  0  0  0  0
 21 23  1  0  0  0  0
 23 24  1  0  0  0  0
 23 22  1  1  0  0  0
 25 26  1  0  0  0  0
 26 24  1  0  0  0  0
 27 25  1  0  0  0  0
 28 27  1  0  0  0  0
 28 29  1  0  0  0  0
 29 26  1  0  0  0  0
 31 33  1  0  0  0  0
 31 30  1  1  0  0  0
 33 32  1  0  0  0  0
 34 31  1  0  0  0  0
 35 37  1  0  0  0  0
 35 36  1  0  0  0  0
 36 34  1  1  0  0  0
 37 36  1  0  0  0  0
 38  1  1  0  0  0  0
 39 38  1  0  0  0  0
 40 39  1  0  0  0  0
 41 42  1  0  0  0  0
 41 40  1  0  0  0  0
 43 44  1  6  0  0  0
 43 42  1  0  0  0  0
 45 43  1  0  0  0  0
 46 51  1  0  0  0  0
 47 46  1  1  0  0  0
 48 51  1  0  0  0  0
 49 45  1  6  0  0  0
 49 48  1  0  0  0  0
 49 50  1  0  0  0  0
 49 52  1  0  0  0  0
 50 53  1  6  0  0  0
 50 47  1  0  0  0  0
 50 52  1  0  0  0  0
 51 64  1  6  0  0  0
 55 56  1  6  0  0  0
 55 62  1  0  0  0  0
 57 47  1  6  0  0  0
 57 58  1  0  0  0  0
 57 55  1  0  0  0  0
 58 61  1  6  0  0  0
 58 59  1  0  0  0  0
 59 54  2  0  0  0  0
 59 63  1  0  0  0  0
 62 60  2  0  0  0  0
 62 63  1  0  0  0  0
 65 67  1  0  0  0  0
 66 67  1  0  0  0  0
 67 68  1  0  0  0  0
 67 64  1  0  0  0  0
M  END
>  <MODEL>
4

>  <REMARK>
 VINA RESULT:      -4.6      3.605      8.826
  Name = 
  29 active torsions:
  status: ('A' for Active; 'I' for Inactive)
    1  A    between atoms: C_2  and  N_10
    2  A    between atoms: C_2  and  C_34
    3  A    between atoms: C_2  and  C_42
    4  A    between atoms: C_7  and  C_22
    5  A    between atoms: O_8  and  C_45
    6  A    between atoms: O_8  and  C_62
    7  A    between atoms: C_13  and  C_30
    8  A    between atoms: C_13  and  O_49
    9  A    between atoms: C_16  and  C_42
   10  A    between atoms: C_16  and  C_64
   11  A    between atoms: C_17  and  N_36
   12  A    between atoms: C_17  and  C_65
   13  A    between atoms: C_20  and  O_49
   14  A    between atoms: C_20  and  C_66
   15  A    between atoms: C_21  and  N_43
   16  A    between atoms: C_21  and  C_50
   17  A    between atoms: O_23  and  C_33
   18  A    between atoms: O_23  and  C_53
   19  A    between atoms: C_24  and  C_65
   20  A    between atoms: C_27  and  C_28
   21  A    between atoms: C_27  and  N_43
   22  A    between atoms: C_28  and  C_66
   23  A    between atoms: C_30  and  C_32
   24  A    between atoms: C_33  and  C_34
   25  A    between atoms: C_33  and  O_60
   26  A    between atoms: N_43  and  C_64
   27  A    between atoms: C_44  and  C_54
   28  A    between atoms: C_54  and  N_59
   29  A    between atoms: C_57  and  N_59
                            x       y       z     vdW  Elec       q    Type
                         _______ _______ _______ _____ _____    ______ ____

>  <TORSDO>
F 29

$$$$
=
 OpenBabel11062414403D

 68 74  0  0  1  0  0  0  0  0999 V2000
  184.7670  178.6330  142.4130 N   0  0  0  0  0  0  0  0  0  0  0  0
  184.4570  179.8770  143.1180 C   0  0  0  0  0  2  0  0  0  0  0  0
  185.8980  179.7460  145.0990 C   0  0  0  0  0  2  0  0  0  0  0  0
  183.9160  178.3970  145.0640 C   0  0  0  0  0  2  0  0  0  0  0  0
  186.3280  178.3240  144.8500 C   0  0  2  0  0  3  0  0  0  0  0  0
  184.4550  179.7730  144.6370 C   0  0  2  0  0  3  0  0  0  0  0  0
  185.1170  177.4630  145.1620 C   0  0  0  0  0  2  0  0  0  0  0  0
  187.5420  177.9110  145.6700 C   0  0  0  0  0  2  0  0  0  0  0  0
  187.1190  177.6760  147.0390 N   0  0  0  0  0  2  0  0  0  0  0  0
  190.4700  178.5190  148.7160 C   0  0  0  0  0  1  0  0  0  0  0  0
  189.5020  176.2930  147.7610 C   0  0  0  0  0  1  0  0  0  0  0  0
  188.1750  177.7550  149.2320 C   0  0  0  0  0  2  0  0  0  0  0  0
  189.2840  177.7150  148.2300 C   0  0  0  0  0  0  0  0  0  0  0  0
  187.9940  178.4650  147.8960 C   0  0  1  0  0  3  0  0  0  0  0  0
  183.5850  177.8480  142.0470 C   0  0  0  0  0  2  0  0  0  0  0  0
  182.7920  178.4920  140.9060 C   0  0  0  0  0  2  0  0  0  0  0  0
  182.6440  177.4590  139.8130 C   0  0  0  0  0  2  0  0  0  0  0  0
  181.2870  176.7850  139.6610 C   0  0  1  0  0  3  0  0  0  0  0  0
  181.2150  175.4060  139.1720 N   0  0  0  0  0  2  0  0  0  0  0  0
  181.5160  176.0210  136.9250 O   0  0  0  0  0  0  0  0  0  0  0  0
  181.2850  175.1070  137.7710 C   0  0  0  0  0  0  0  0  0  0  0  0
  180.0850  173.0220  138.1620 C   0  0  0  0  0  1  0  0  0  0  0  0
  181.1370  173.6940  137.3120 C   0  0  1  0  0  3  0  0  0  0  0  0
  180.7050  173.6400  135.8410 C   0  0  0  0  0  2  0  0  0  0  0  0
  181.3820  171.4660  135.2780 N   0  0  0  0  0  2  0  0  0  0  0  0
  181.5940  172.8290  134.9970 N   0  0  0  0  0  0  0  0  0  0  0  0
  182.7040  170.8410  135.2540 C   0  0  0  0  0  2  0  0  0  0  0  0
  183.7190  171.8680  135.2540 N   0  0  0  0  0  2  0  0  0  0  0  0
  182.9950  173.1180  135.2220 C   0  0  0  0  0  2  0  0  0  0  0  0
  180.1350  177.2760  140.5310 C   0  0  0  0  0  2  0  0  0  0  0  0
  179.8140  178.7750  140.3990 C   0  0  1  0  0  3  0  0  0  0  0  0
  180.0380  180.0970  138.5980 C   0  0  0  0  0  1  0  0  0  0  0  0
  179.2390  179.0970  139.1500 O   0  0  0  0  0  0  0  0  0  0  0  0
  179.0180  179.1440  141.5120 O   0  0  0  0  0  0  0  0  0  0  0  0
  179.3360  178.0770  143.5120 O   0  0  0  0  0  0  0  0  0  0  0  0
  179.8190  179.1040  142.6820 C   0  0  2  0  0  3  0  0  0  0  0  0
  178.9930  179.3950  143.8860 C   0  0  0  0  0  2  0  0  0  0  0  0
  185.7240  178.8020  141.3210 C   0  0  0  0  0  2  0  0  0  0  0  0
  187.2250  178.7490  141.7260 C   0  0  0  0  0  2  0  0  0  0  0  0
  188.1780  178.5900  140.5320 C   0  0  0  0  0  2  0  0  0  0  0  0
  187.4080  178.1320  139.2750 C   0  0  0  0  0  2  0  0  0  0  0  0
  187.9420  178.7270  138.1260 O   0  0  0  0  0  0  0  0  0  0  0  0
  187.0450  178.3970  137.1120 C   0  0  2  0  0  3  0  0  0  0  0  0
  185.9790  177.4170  137.5820 C   0  0  0  0  0  1  0  0  0  0  0  0
  187.7770  177.9330  135.8460 C   0  0  0  0  0  2  0  0  0  0  0  0
  189.4140  174.3350  134.5990 O   0  0  0  0  0  0  0  0  0  0  0  0
  190.4710  175.1400  135.0740 C   0  0  1  0  0  3  0  0  0  0  0  0
  187.7630  175.3480  136.0480 C   0  0  0  0  0  2  0  0  0  0  0  0
  188.5800  176.6410  135.9450 C   0  0  1  0  0  0  0  0  0  0  0  0
  189.9990  176.5230  135.5080 C   0  0  1  0  0  0  0  0  0  0  0  0
  188.5460  174.0880  135.6730 C   0  0  1  0  0  3  0  0  0  0  0  0
  189.6590  176.7020  136.8610 O   0  0  0  0  0  0  0  0  0  0  0  0
  190.5520  177.6540  134.9010 O   0  0  0  0  0  1  0  0  0  0  0  0
  194.7450  175.0220  137.7070 O   0  0  0  0  0  0  0  0  0  0  0  0
  192.0470  173.1680  135.1220 C   0  0  1  0  0  3  0  0  0  0  0  0
  190.9610  172.3840  134.7100 O   0  0  0  0  0  1  0  0  0  0  0  0
  191.5600  174.3910  135.8910 C   0  0  1  0  0  3  0  0  0  0  0  0
  192.7420  175.2730  136.3920 C   0  0  2  0  0  3  0  0  0  0  0  0
  193.8510  174.4600  137.0170 C   0  0  0  0  0  0  0  0  0  0  0  0
  193.0590  171.1180  135.8710 O   0  0  0  0  0  0  0  0  0  0  0  0
  192.2630  176.2990  137.4190 C   0  0  0  0  0  1  0  0  0  0  0  0
  193.0060  172.3730  135.9580 C   0  0  0  0  0  0  0  0  0  0  0  0
  193.8890  173.0320  136.8560 N   0  0  0  0  0  2  0  0  0  0  0  0
  187.6390  173.0680  135.3290 O   0  0  0  0  0  0  0  0  0  0  0  0
  186.1590  173.1970  137.0660 F   0  0  0  0  0  0  0  0  0  0  0  0
  186.6470  171.1720  136.2180 F   0  0  0  0  0  0  0  0  0  0  0  0
  187.1720  172.4330  136.5080 C   0  0  0  0  0  0  0  0  0  0  0  0
  188.1970  172.3000  137.4520 F   0  0  0  0  0  0  0  0  0  0  0  0
  1  2  1  0  0  0  0
  4  7  1  0  0  0  0
  5  3  1  0  0  0  0
  5  7  1  0  0  0  0
  5  8  1  1  0  0  0
  6  2  1  6  0  0  0
  6  4  1  0  0  0  0
  6  3  1  0  0  0  0
  8  9  1  0  0  0  0
 11 13  1  0  0  0  0
 13 10  1  0  0  0  0
 13 12  1  0  0  0  0
 14  9  1  6  0  0  0
 14 13  1  0  0  0  0
 14 12  1  0  0  0  0
 15  1  1  0  0  0  0
 16 15  1  0  0  0  0
 17 16  1  0  0  0  0
 18 17  1  1  0  0  0
 18 30  1  0  0  0  0
 19 18  1  0  0  0  0
 20 21  2  0  0  0  0
 21 19  1  0  0  0  0
 23 21  1  0  0  0  0
 23 22  1  1  0  0  0
 24 23  1  0  0  0  0
 26 29  1  0  0  0  0
 26 25  1  0  0  0  0
 26 24  1  0  0  0  0
 27 25  1  0  0  0  0
 28 27  1  0  0  0  0
 29 28  1  0  0  0  0
 31 30  1  6  0  0  0
 31 34  1  0  0  0  0
 32 33  1  0  0  0  0
 33 31  1  0  0  0  0
 35 37  1  0  0  0  0
 36 34  1  6  0  0  0
 36 35  1  0  0  0  0
 36 37  1  0  0  0  0
 38 39  1  0  0  0  0
 38  1  1  0  0  0  0
 40 39  1  0  0  0  0
 41 40  1  0  0  0  0
 42 41  1  0  0  0  0
 43 44  1  1  0  0  0
 43 42  1  0  0  0  0
 45 43  1  0  0  0  0
 46 51  1  0  0  0  0
 47 46  1  1  0  0  0
 47 50  1  0  0  0  0
 49 45  1  6  0  0  0
 49 48  1  0  0  0  0
 49 52  1  0  0  0  0
 50 53  1  6  0  0  0
 50 49  1  0  0  0  0
 50 52  1  0  0  0  0
 51 64  1  6  0  0  0
 51 48  1  0  0  0  0
 55 56  1  1  0  0  0
 55 57  1  0  0  0  0
 55 62  1  0  0  0  0
 57 47  1  6  0  0  0
 57 58  1  0  0  0  0
 58 59  1  0  0  0  0
 58 61  1  1  0  0  0
 59 54  2  0  0  0  0
 60 62  2  0  0  0  0
 62 63  1  0  0  0  0
 63 59  1  0  0  0  0
 64 67  1  0  0  0  0
 66 67  1  0  0  0  0
 67 65  1  0  0  0  0
 67 68  1  0  0  0  0
M  END
>  <MODEL>
5

>  <REMARK>
 VINA RESULT:      -4.1      3.378      9.982
  Name = 
  29 active torsions:
  status: ('A' for Active; 'I' for Inactive)
    1  A    between atoms: C_2  and  N_10
    2  A    between atoms: C_2  and  C_34
    3  A    between atoms: C_2  and  C_42
    4  A    between atoms: C_7  and  C_22
    5  A    between atoms: O_8  and  C_45
    6  A    between atoms: O_8  and  C_62
    7  A    between atoms: C_13  and  C_30
    8  A    between atoms: C_13  and  O_49
    9  A    between atoms: C_16  and  C_42
   10  A    between atoms: C_16  and  C_64
   11  A    between atoms: C_17  and  N_36
   12  A    between atoms: C_17  and  C_65
   13  A    between atoms: C_20  and  O_49
   14  A    between atoms: C_20  and  C_66
   15  A    between atoms: C_21  and  N_43
   16  A    between atoms: C_21  and  C_50
   17  A    between atoms: O_23  and  C_33
   18  A    between atoms: O_23  and  C_53
   19  A    between atoms: C_24  and  C_65
   20  A    between atoms: C_27  and  C_28
   21  A    between atoms: C_27  and  N_43
   22  A    between atoms: C_28  and  C_66
   23  A    between atoms: C_30  and  C_32
   24  A    between atoms: C_33  and  C_34
   25  A    between atoms: C_33  and  O_60
   26  A    between atoms: N_43  and  C_64
   27  A    between atoms: C_44  and  C_54
   28  A    between atoms: C_54  and  N_59
   29  A    between atoms: C_57  and  N_59
                            x       y       z     vdW  Elec       q    Type
                         _______ _______ _______ _____ _____    ______ ____

>  <TORSDO>
F 29

$$$$
=
 OpenBabel11062414403D

 68 74  0  0  1  0  0  0  0  0999 V2000
  186.0960  178.5880  139.1820 N   0  0  0  0  0  0  0  0  0  0  0  0
  186.7380  177.5220  138.4120 C   0  0  0  0  0  2  0  0  0  0  0  0
  188.1710  176.7730  136.5680 C   0  0  0  0  0  2  0  0  0  0  0  0
  188.6870  178.8710  137.6080 C   0  0  0  0  0  2  0  0  0  0  0  0
  189.3860  176.5590  137.4310 C   0  0  2  0  0  3  0  0  0  0  0  0
  187.5030  177.9870  137.1820 C   0  0  2  0  0  3  0  0  0  0  0  0
  189.8820  177.9450  137.8030 C   0  0  0  0  0  2  0  0  0  0  0  0
  190.4700  175.7340  136.7490 C   0  0  0  0  0  2  0  0  0  0  0  0
  191.7620  176.1430  137.2730 N   0  0  0  0  0  2  0  0  0  0  0  0
  194.5330  173.6060  138.0720 C   0  0  0  0  0  1  0  0  0  0  0  0
  194.0750  175.0970  135.9820 C   0  0  0  0  0  1  0  0  0  0  0  0
  192.2890  173.7770  137.0440 C   0  0  0  0  0  2  0  0  0  0  0  0
  193.5890  174.4790  137.2740 C   0  0  0  0  0  0  0  0  0  0  0  0
  192.3240  174.9910  137.9640 C   0  0  1  0  0  3  0  0  0  0  0  0
  185.0210  179.2760  138.4600 C   0  0  0  0  0  2  0  0  0  0  0  0
  183.9750  178.3010  137.9110 C   0  0  0  0  0  2  0  0  0  0  0  0
  182.6350  178.6980  138.4860 C   0  0  0  0  0  2  0  0  0  0  0  0
  181.4370  178.6900  137.5450 C   0  0  1  0  0  3  0  0  0  0  0  0
  181.0480  177.4450  136.8800 N   0  0  0  0  0  2  0  0  0  0  0  0
  181.8730  178.1220  134.7870 O   0  0  0  0  0  0  0  0  0  0  0  0
  181.2540  177.2560  135.4730 C   0  0  0  0  0  0  0  0  0  0  0  0
  181.9670  175.0920  134.6070 C   0  0  0  0  0  1  0  0  0  0  0  0
  180.7790  175.9980  134.8220 C   0  0  1  0  0  3  0  0  0  0  0  0
  179.7510  175.2800  135.7050 C   0  0  0  0  0  2  0  0  0  0  0  0
  180.0950  172.9870  136.0570 N   0  0  0  0  0  2  0  0  0  0  0  0
  180.3430  174.2650  136.5890 N   0  0  0  0  0  0  0  0  0  0  0  0
  179.7910  172.1280  137.2020 C   0  0  0  0  0  2  0  0  0  0  0  0
  179.5690  172.9490  138.3690 N   0  0  0  0  0  2  0  0  0  0  0  0
  179.7970  174.3050  137.9300 C   0  0  0  0  0  2  0  0  0  0  0  0
  180.3480  179.7370  137.7540 C   0  0  0  0  0  2  0  0  0  0  0  0
  180.6300  180.7540  138.8720 C   0  0  1  0  0  3  0  0  0  0  0  0
  180.4690  182.0730  137.0620 C   0  0  0  0  0  1  0  0  0  0  0  0
  180.9470  182.0360  138.3720 O   0  0  0  0  0  0  0  0  0  0  0  0
  179.5240  180.7380  139.7580 O   0  0  0  0  0  0  0  0  0  0  0  0
  179.1460  179.4440  141.6070 O   0  0  0  0  0  0  0  0  0  0  0  0
  179.9840  180.4330  141.0640 C   0  0  2  0  0  3  0  0  0  0  0  0
  178.9390  180.7610  142.0720 C   0  0  0  0  0  2  0  0  0  0  0  0
  185.7340  178.1920  140.5410 C   0  0  0  0  0  2  0  0  0  0  0  0
  185.0700  179.2980  141.4110 C   0  0  0  0  0  2  0  0  0  0  0  0
  184.0930  178.7500  142.4610 C   0  0  0  0  0  2  0  0  0  0  0  0
  184.8580  178.1730  143.6720 C   0  0  0  0  0  2  0  0  0  0  0  0
  184.1630  178.4280  144.8590 O   0  0  0  0  0  0  0  0  0  0  0  0
  185.1590  178.5470  145.8270 C   0  0  2  0  0  3  0  0  0  0  0  0
  186.0900  179.7200  145.5550 C   0  0  0  0  0  1  0  0  0  0  0  0
  185.9020  177.2210  146.0320 C   0  0  0  0  0  2  0  0  0  0  0  0
  189.6520  178.8130  145.2650 O   0  0  0  0  0  0  0  0  0  0  0  0
  189.7400  178.0800  146.4670 C   0  0  1  0  0  3  0  0  0  0  0  0
  187.8720  177.4460  144.3620 C   0  0  0  0  0  2  0  0  0  0  0  0
  187.4100  177.2300  145.8060 C   0  0  1  0  0  0  0  0  0  0  0  0
  188.3980  177.4910  146.8900 C   0  0  1  0  0  0  0  0  0  0  0  0
  189.3230  177.9160  144.2380 C   0  0  1  0  0  3  0  0  0  0  0  0
  188.0980  176.1830  146.4690 O   0  0  0  0  0  0  0  0  0  0  0  0
  187.8690  177.8280  148.1380 O   0  0  0  0  0  1  0  0  0  0  0  0
  192.7520  174.2210  145.3470 O   0  0  0  0  0  0  0  0  0  0  0  0
  191.2780  176.9590  148.1270 C   0  0  1  0  0  3  0  0  0  0  0  0
  191.1950  178.1350  148.8860 O   0  0  0  0  0  1  0  0  0  0  0  0
  191.0480  177.2600  146.6500 C   0  0  1  0  0  3  0  0  0  0  0  0
  191.1610  175.9810  145.7700 C   0  0  2  0  0  3  0  0  0  0  0  0
  192.3620  175.1350  146.1240 C   0  0  0  0  0  0  0  0  0  0  0  0
  193.2880  176.4760  149.3580 O   0  0  0  0  0  0  0  0  0  0  0  0
  191.2510  176.3420  144.2870 C   0  0  0  0  0  1  0  0  0  0  0  0
  192.5990  176.2770  148.3210 C   0  0  0  0  0  0  0  0  0  0  0  0
  193.0920  175.3750  147.3390 N   0  0  0  0  0  2  0  0  0  0  0  0
  189.5010  178.5370  142.9870 O   0  0  0  0  0  0  0  0  0  0  0  0
  187.7980  177.0860  142.5150 F   0  0  0  0  0  0  0  0  0  0  0  0
  188.4330  178.5520  140.9310 F   0  0  0  0  0  0  0  0  0  0  0  0
  188.8910  177.7490  141.9780 C   0  0  0  0  0  0  0  0  0  0  0  0
  189.7820  176.7960  141.4720 F   0  0  0  0  0  0  0  0  0  0  0  0
  1 38  1  0  0  0  0
  2  1  1  0  0  0  0
  3  6  1  0  0  0  0
  3  5  1  0  0  0  0
  4  7  1  0  0  0  0
  5  8  1  6  0  0  0
  5  7  1  0  0  0  0
  6  4  1  0  0  0  0
  6  2  1  1  0  0  0
  8  9  1  0  0  0  0
 11 13  1  0  0  0  0
 12 13  1  0  0  0  0
 12 14  1  0  0  0  0
 13 14  1  0  0  0  0
 13 10  1  0  0  0  0
 14  9  1  6  0  0  0
 15  1  1  0  0  0  0
 16 15  1  0  0  0  0
 16 17  1  0  0  0  0
 18 30  1  1  0  0  0
 18 17  1  0  0  0  0
 19 18  1  0  0  0  0
 20 21  2  0  0  0  0
 21 19  1  0  0  0  0
 23 22  1  1  0  0  0
 23 21  1  0  0  0  0
 23 24  1  0  0  0  0
 24 26  1  0  0  0  0
 25 26  1  0  0  0  0
 25 27  1  0  0  0  0
 26 29  1  0  0  0  0
 27 28  1  0  0  0  0
 29 28  1  0  0  0  0
 31 30  1  6  0  0  0
 31 34  1  0  0  0  0
 32 33  1  0  0  0  0
 33 31  1  0  0  0  0
 35 37  1  0  0  0  0
 36 34  1  6  0  0  0
 36 35  1  0  0  0  0
 36 37  1  0  0  0  0
 38 39  1  0  0  0  0
 39 40  1  0  0  0  0
 40 41  1  0  0  0  0
 41 42  1  0  0  0  0
 42 43  1  0  0  0  0
 43 44  1  6  0  0  0
 43 45  1  0  0  0  0
 47 46  1  6  0  0  0
 47 50  1  0  0  0  0
 48 49  1  0  0  0  0
 49 45  1  1  0  0  0
 49 52  1  0  0  0  0
 49 50  1  0  0  0  0
 50 53  1  1  0  0  0
 51 64  1  6  0  0  0
 51 48  1  0  0  0  0
 51 46  1  0  0  0  0
 52 50  1  0  0  0  0
 54 59  2  0  0  0  0
 55 62  1  0  0  0  0
 55 56  1  1  0  0  0
 57 47  1  1  0  0  0
 57 55  1  0  0  0  0
 58 61  1  6  0  0  0
 58 59  1  0  0  0  0
 58 57  1  0  0  0  0
 59 63  1  0  0  0  0
 62 60  2  0  0  0  0
 63 62  1  0  0  0  0
 66 67  1  0  0  0  0
 67 65  1  0  0  0  0
 67 64  1  0  0  0  0
 68 67  1  0  0  0  0
M  END
>  <MODEL>
6

>  <REMARK>
 VINA RESULT:      -4.0      3.610     11.095
  Name = 
  29 active torsions:
  status: ('A' for Active; 'I' for Inactive)
    1  A    between atoms: C_2  and  N_10
    2  A    between atoms: C_2  and  C_34
    3  A    between atoms: C_2  and  C_42
    4  A    between atoms: C_7  and  C_22
    5  A    between atoms: O_8  and  C_45
    6  A    between atoms: O_8  and  C_62
    7  A    between atoms: C_13  and  C_30
    8  A    between atoms: C_13  and  O_49
    9  A    between atoms: C_16  and  C_42
   10  A    between atoms: C_16  and  C_64
   11  A    between atoms: C_17  and  N_36
   12  A    between atoms: C_17  and  C_65
   13  A    between atoms: C_20  and  O_49
   14  A    between atoms: C_20  and  C_66
   15  A    between atoms: C_21  and  N_43
   16  A    between atoms: C_21  and  C_50
   17  A    between atoms: O_23  and  C_33
   18  A    between atoms: O_23  and  C_53
   19  A    between atoms: C_24  and  C_65
   20  A    between atoms: C_27  and  C_28
   21  A    between atoms: C_27  and  N_43
   22  A    between atoms: C_28  and  C_66
   23  A    between atoms: C_30  and  C_32
   24  A    between atoms: C_33  and  C_34
   25  A    between atoms: C_33  and  O_60
   26  A    between atoms: N_43  and  C_64
   27  A    between atoms: C_44  and  C_54
   28  A    between atoms: C_54  and  N_59
   29  A    between atoms: C_57  and  N_59
                            x       y       z     vdW  Elec       q    Type
                         _______ _______ _______ _____ _____    ______ ____

>  <TORSDO>
F 29

$$$$
=
 OpenBabel11062414403D

 68 74  0  0  1  0  0  0  0  0999 V2000
  186.3320  178.7370  139.6590 N   0  0  0  0  0  0  0  0  0  0  0  0
  186.9550  177.5590  139.0560 C   0  0  0  0  0  2  0  0  0  0  0  0
  188.0100  176.4240  137.1550 C   0  0  0  0  0  2  0  0  0  0  0  0
  188.6040  178.7100  137.5640 C   0  0  0  0  0  2  0  0  0  0  0  0
  189.3910  176.4270  137.7540 C   0  0  2  0  0  3  0  0  0  0  0  0
  187.4130  177.7380  137.6150 C   0  0  2  0  0  3  0  0  0  0  0  0
  189.8680  177.8670  137.6920 C   0  0  0  0  0  2  0  0  0  0  0  0
  190.3550  175.4810  137.0510 C   0  0  0  0  0  2  0  0  0  0  0  0
  191.4580  176.2580  136.5140 N   0  0  0  0  0  2  0  0  0  0  0  0
  194.5650  174.1630  137.3570 C   0  0  0  0  0  1  0  0  0  0  0  0
  193.5730  176.3280  138.4210 C   0  0  0  0  0  1  0  0  0  0  0  0
  193.8280  176.0850  135.9840 C   0  0  0  0  0  2  0  0  0  0  0  0
  193.6280  175.3480  137.2690 C   0  0  0  0  0  0  0  0  0  0  0  0
  192.5290  175.3200  136.2070 C   0  0  1  0  0  3  0  0  0  0  0  0
  185.3560  179.4010  138.7900 C   0  0  0  0  0  2  0  0  0  0  0  0
  184.4910  178.4010  138.0180 C   0  0  0  0  0  2  0  0  0  0  0  0
  183.0440  178.7400  138.2920 C   0  0  0  0  0  2  0  0  0  0  0  0
  181.9820  177.8380  137.6770 C   0  0  1  0  0  3  0  0  0  0  0  0
  180.7430  177.5760  138.4130 N   0  0  0  0  0  2  0  0  0  0  0  0
  181.7520  176.0420  139.8780 O   0  0  0  0  0  0  0  0  0  0  0  0
  180.6960  176.6150  139.4770 C   0  0  0  0  0  0  0  0  0  0  0  0
  179.5570  175.0810  140.9900 C   0  0  0  0  0  1  0  0  0  0  0  0
  179.3960  176.3280  140.1530 C   0  0  1  0  0  3  0  0  0  0  0  0
  178.9820  177.4930  141.0600 C   0  0  0  0  0  2  0  0  0  0  0  0
  180.3570  177.8970  142.9160 N   0  0  0  0  0  2  0  0  0  0  0  0
  180.1190  178.2660  141.5790 N   0  0  0  0  0  0  0  0  0  0  0  0
  180.6920  179.1350  143.6210 C   0  0  0  0  0  2  0  0  0  0  0  0
  180.3660  180.2650  142.7830 N   0  0  0  0  0  2  0  0  0  0  0  0
  179.8850  179.6950  141.5460 C   0  0  0  0  0  2  0  0  0  0  0  0
  181.9300  177.7150  136.1590 C   0  0  0  0  0  2  0  0  0  0  0  0
  180.9950  178.7140  135.4580 C   0  0  1  0  0  3  0  0  0  0  0  0
  179.8340  176.9320  134.7390 C   0  0  0  0  0  1  0  0  0  0  0  0
  179.6880  178.2060  135.2870 O   0  0  0  0  0  0  0  0  0  0  0  0
  181.0500  179.9330  136.1790 O   0  0  0  0  0  0  0  0  0  0  0  0
  180.3440  181.8420  135.1340 O   0  0  0  0  0  0  0  0  0  0  0  0
  179.9120  180.7130  135.8530 C   0  0  2  0  0  3  0  0  0  0  0  0
  180.0040  182.0560  136.4880 C   0  0  0  0  0  2  0  0  0  0  0  0
  185.8530  178.5130  141.0210 C   0  0  0  0  0  2  0  0  0  0  0  0
  184.6400  179.3830  141.4610 C   0  0  0  0  0  2  0  0  0  0  0  0
  183.6380  178.6350  142.3520 C   0  0  0  0  0  2  0  0  0  0  0  0
  184.3030  178.1940  143.6730 C   0  0  0  0  0  2  0  0  0  0  0  0
  184.0970  179.1530  144.6710 O   0  0  0  0  0  0  0  0  0  0  0  0
  185.3310  179.2600  145.3120 C   0  0  2  0  0  3  0  0  0  0  0  0
  186.3310  180.0740  144.5040 C   0  0  0  0  0  1  0  0  0  0  0  0
  185.8660  177.8840  145.7280 C   0  0  0  0  0  2  0  0  0  0  0  0
  189.7540  178.6520  144.5100 O   0  0  0  0  0  0  0  0  0  0  0  0
  189.8160  178.1160  145.8140 C   0  0  1  0  0  3  0  0  0  0  0  0
  187.7080  177.4910  143.9460 C   0  0  0  0  0  2  0  0  0  0  0  0
  187.3330  177.5930  145.4280 C   0  0  1  0  0  0  0  0  0  0  0  0
  188.4340  177.8470  146.3990 C   0  0  1  0  0  0  0  0  0  0  0  0
  189.2030  177.6730  143.6700 C   0  0  1  0  0  3  0  0  0  0  0  0
  187.8900  176.5620  146.2240 O   0  0  0  0  0  0  0  0  0  0  0  0
  188.0680  178.4670  147.5960 O   0  0  0  0  0  1  0  0  0  0  0  0
  192.5920  174.1220  144.5660 O   0  0  0  0  0  0  0  0  0  0  0  0
  190.9060  176.5730  147.4900 C   0  0  1  0  0  3  0  0  0  0  0  0
  190.8000  177.6230  148.4140 O   0  0  0  0  0  1  0  0  0  0  0  0
  190.9810  177.1210  146.0680 C   0  0  1  0  0  3  0  0  0  0  0  0
  191.1290  175.9840  145.0140 C   0  0  2  0  0  3  0  0  0  0  0  0
  192.1570  174.9500  145.4120 C   0  0  0  0  0  0  0  0  0  0  0  0
  192.5990  175.6610  148.9350 O   0  0  0  0  0  0  0  0  0  0  0  0
  191.5240  176.5510  143.6500 C   0  0  0  0  0  1  0  0  0  0  0  0
  192.0970  175.7090  147.7810 C   0  0  0  0  0  0  0  0  0  0  0  0
  192.6710  174.9110  146.7540 N   0  0  0  0  0  2  0  0  0  0  0  0
  189.3800  178.0450  142.3240 O   0  0  0  0  0  0  0  0  0  0  0  0
  189.7120  175.7840  142.3680 F   0  0  0  0  0  0  0  0  0  0  0  0
  188.4810  176.6580  140.7010 F   0  0  0  0  0  0  0  0  0  0  0  0
  189.5780  176.8840  141.5350 C   0  0  0  0  0  0  0  0  0  0  0  0
  190.7350  176.9930  140.7560 F   0  0  0  0  0  0  0  0  0  0  0  0
  1 38  1  0  0  0  0
  2  1  1  0  0  0  0
  3  6  1  0  0  0  0
  3  5  1  0  0  0  0
  4  6  1  0  0  0  0
  4  7  1  0  0  0  0
  5  8  1  6  0  0  0
  6  2  1  1  0  0  0
  7  5  1  0  0  0  0
  9  8  1  0  0  0  0
 12 14  1  0  0  0  0
 12 13  1  0  0  0  0
 13 10  1  0  0  0  0
 13 11  1  0  0  0  0
 14  9  1  1  0  0  0
 14 13  1  0  0  0  0
 15  1  1  0  0  0  0
 16 17  1  0  0  0  0
 16 15  1  0  0  0  0
 18 30  1  6  0  0  0
 18 17  1  0  0  0  0
 18 19  1  0  0  0  0
 19 21  1  0  0  0  0
 21 20  2  0  0  0  0
 21 23  1  0  0  0  0
 23 22  1  1  0  0  0
 23 24  1  0  0  0  0
 24 26  1  0  0  0  0
 25 27  1  0  0  0  0
 26 25  1  0  0  0  0
 28 27  1  0  0  0  0
 29 26  1  0  0  0  0
 29 28  1  0  0  0  0
 31 30  1  1  0  0  0
 31 34  1  0  0  0  0
 32 33  1  0  0  0  0
 33 31  1  0  0  0  0
 35 36  1  0  0  0  0
 35 37  1  0  0  0  0
 36 34  1  1  0  0  0
 36 37  1  0  0  0  0
 38 39  1  0  0  0  0
 39 40  1  0  0  0  0
 40 41  1  0  0  0  0
 41 42  1  0  0  0  0
 42 43  1  0  0  0  0
 43 44  1  6  0  0  0
 43 45  1  0  0  0  0
 47 46  1  6  0  0  0
 47 50  1  0  0  0  0
 48 49  1  0  0  0  0
 49 45  1  1  0  0  0
 49 52  1  0  0  0  0
 49 50  1  0  0  0  0
 50 53  1  1  0  0  0
 51 64  1  6  0  0  0
 51 48  1  0  0  0  0
 51 46  1  0  0  0  0
 52 50  1  0  0  0  0
 54 59  2  0  0  0  0
 55 62  1  0  0  0  0
 55 56  1  1  0  0  0
 57 47  1  6  0  0  0
 57 55  1  0  0  0  0
 58 61  1  6  0  0  0
 58 59  1  0  0  0  0
 58 57  1  0  0  0  0
 59 63  1  0  0  0  0
 62 60  2  0  0  0  0
 63 62  1  0  0  0  0
 66 67  1  0  0  0  0
 67 64  1  0  0  0  0
 67 65  1  0  0  0  0
 68 67  1  0  0  0  0
M  END
>  <MODEL>
7

>  <REMARK>
 VINA RESULT:      -3.8      3.567     10.995
  Name = 
  29 active torsions:
  status: ('A' for Active; 'I' for Inactive)
    1  A    between atoms: C_2  and  N_10
    2  A    between atoms: C_2  and  C_34
    3  A    between atoms: C_2  and  C_42
    4  A    between atoms: C_7  and  C_22
    5  A    between atoms: O_8  and  C_45
    6  A    between atoms: O_8  and  C_62
    7  A    between atoms: C_13  and  C_30
    8  A    between atoms: C_13  and  O_49
    9  A    between atoms: C_16  and  C_42
   10  A    between atoms: C_16  and  C_64
   11  A    between atoms: C_17  and  N_36
   12  A    between atoms: C_17  and  C_65
   13  A    between atoms: C_20  and  O_49
   14  A    between atoms: C_20  and  C_66
   15  A    between atoms: C_21  and  N_43
   16  A    between atoms: C_21  and  C_50
   17  A    between atoms: O_23  and  C_33
   18  A    between atoms: O_23  and  C_53
   19  A    between atoms: C_24  and  C_65
   20  A    between atoms: C_27  and  C_28
   21  A    between atoms: C_27  and  N_43
   22  A    between atoms: C_28  and  C_66
   23  A    between atoms: C_30  and  C_32
   24  A    between atoms: C_33  and  C_34
   25  A    between atoms: C_33  and  O_60
   26  A    between atoms: N_43  and  C_64
   27  A    between atoms: C_44  and  C_54
   28  A    between atoms: C_54  and  N_59
   29  A    between atoms: C_57  and  N_59
                            x       y       z     vdW  Elec       q    Type
                         _______ _______ _______ _____ _____    ______ ____

>  <TORSDO>
F 29

$$$$
=
 OpenBabel11062414403D

 68 74  0  0  1  0  0  0  0  0999 V2000
  186.5350  178.5140  138.0150 N   0  0  0  0  0  0  0  0  0  0  0  0
  185.2000  178.0130  138.3470 C   0  0  0  0  0  2  0  0  0  0  0  0
  183.1500  179.2940  138.7590 C   0  0  0  0  0  2  0  0  0  0  0  0
  183.1520  177.7390  136.9330 C   0  0  0  0  0  2  0  0  0  0  0  0
  182.3370  178.1000  139.1860 C   0  0  2  0  0  3  0  0  0  0  0  0
  184.0510  178.7460  137.6700 C   0  0  2  0  0  3  0  0  0  0  0  0
  182.0780  177.2990  137.9220 C   0  0  0  0  0  2  0  0  0  0  0  0
  181.0420  178.4750  139.8940 C   0  0  0  0  0  2  0  0  0  0  0  0
  180.1290  179.0430  138.9180 N   0  0  0  0  0  2  0  0  0  0  0  0
  179.5670  182.7110  137.9260 C   0  0  0  0  0  1  0  0  0  0  0  0
  180.1990  180.5980  136.5330 C   0  0  0  0  0  1  0  0  0  0  0  0
  181.3360  181.1400  138.6480 C   0  0  0  0  0  2  0  0  0  0  0  0
  180.0640  181.2820  137.8750 C   0  0  0  0  0  0  0  0  0  0  0  0
  180.0700  180.4750  139.1730 C   0  0  1  0  0  3  0  0  0  0  0  0
  187.1670  179.2770  139.0950 C   0  0  0  0  0  2  0  0  0  0  0  0
  187.9100  178.3740  140.0840 C   0  0  0  0  0  2  0  0  0  0  0  0
  187.8270  179.0240  141.4460 C   0  0  0  0  0  2  0  0  0  0  0  0
  187.5110  178.1260  142.6350 C   0  0  1  0  0  3  0  0  0  0  0  0
  186.1170  177.7860  142.9330 N   0  0  0  0  0  2  0  0  0  0  0  0
  185.3980  180.0220  142.8800 O   0  0  0  0  0  0  0  0  0  0  0  0
  185.1200  178.8050  143.0940 C   0  0  0  0  0  0  0  0  0  0  0  0
  183.5940  178.5020  144.9700 C   0  0  0  0  0  1  0  0  0  0  0  0
  183.7270  178.4190  143.4680 C   0  0  1  0  0  3  0  0  0  0  0  0
  182.7060  179.3610  142.8200 C   0  0  0  0  0  2  0  0  0  0  0  0
  181.0360  178.3870  144.1470 N   0  0  0  0  0  2  0  0  0  0  0  0
  181.5240  179.6120  143.6570 N   0  0  0  0  0  0  0  0  0  0  0  0
  179.5770  178.4850  144.0930 C   0  0  0  0  0  2  0  0  0  0  0  0
  179.2040  179.6350  143.3030 N   0  0  0  0  0  2  0  0  0  0  0  0
  180.4510  180.2600  142.9290 C   0  0  0  0  0  2  0  0  0  0  0  0
  188.5820  177.1490  143.1080 C   0  0  0  0  0  2  0  0  0  0  0  0
  188.8370  177.1490  144.6250 C   0  0  1  0  0  3  0  0  0  0  0  0
  190.6790  176.4160  145.6770 C   0  0  0  0  0  1  0  0  0  0  0  0
  190.1680  177.4900  144.9510 O   0  0  0  0  0  0  0  0  0  0  0  0
  187.8630  177.9870  145.2240 O   0  0  0  0  0  0  0  0  0  0  0  0
  186.4840  178.1950  147.0390 O   0  0  0  0  0  0  0  0  0  0  0  0
  187.2340  177.2790  146.2800 C   0  0  2  0  0  3  0  0  0  0  0  0
  187.7120  177.7800  147.5980 C   0  0  0  0  0  2  0  0  0  0  0  0
  187.4060  177.5040  137.4170 C   0  0  0  0  0  2  0  0  0  0  0  0
  186.7070  176.1880  136.9730 C   0  0  0  0  0  2  0  0  0  0  0  0
  186.9360  175.8390  135.4950 C   0  0  0  0  0  2  0  0  0  0  0  0
  186.1620  174.5610  135.1080 C   0  0  0  0  0  2  0  0  0  0  0  0
  186.5720  173.4790  135.8960 O   0  0  0  0  0  0  0  0  0  0  0  0
  187.5380  172.8340  135.1250 C   0  0  2  0  0  3  0  0  0  0  0  0
  188.1520  171.6440  135.8480 C   0  0  0  0  0  1  0  0  0  0  0  0
  188.5830  173.8230  134.5940 C   0  0  0  0  0  2  0  0  0  0  0  0
  192.7150  174.0130  134.8580 O   0  0  0  0  0  0  0  0  0  0  0  0
  192.1890  174.9690  135.7530 C   0  0  1  0  0  3  0  0  0  0  0  0
  190.7980  172.5480  135.0260 C   0  0  0  0  0  2  0  0  0  0  0  0
  189.9550  173.8050  135.2590 C   0  0  1  0  0  0  0  0  0  0  0  0
  190.6660  175.0370  135.7020 C   0  0  1  0  0  0  0  0  0  0  0  0
  192.2930  172.7450  135.2870 C   0  0  1  0  0  3  0  0  0  0  0  0
  189.9460  174.2380  136.6070 O   0  0  0  0  0  0  0  0  0  0  0  0
  190.0490  176.2510  135.3900 O   0  0  0  0  0  1  0  0  0  0  0  0
  193.0770  177.2390  140.1430 O   0  0  0  0  0  0  0  0  0  0  0  0
  194.4400  175.0030  136.8960 C   0  0  1  0  0  3  0  0  0  0  0  0
  194.7640  173.8750  136.1300 O   0  0  0  0  0  1  0  0  0  0  0  0
  192.9330  175.0870  137.1120 C   0  0  1  0  0  3  0  0  0  0  0  0
  192.5370  176.3140  137.9840 C   0  0  2  0  0  3  0  0  0  0  0  0
  193.4200  176.4740  139.2000 C   0  0  0  0  0  0  0  0  0  0  0  0
  196.2240  174.3400  138.3670 O   0  0  0  0  0  0  0  0  0  0  0  0
  191.0860  176.2050  138.4560 C   0  0  0  0  0  1  0  0  0  0  0  0
  195.1570  174.9920  138.2130 C   0  0  0  0  0  0  0  0  0  0  0  0
  194.6490  175.7360  139.3120 N   0  0  0  0  0  2  0  0  0  0  0  0
  193.0150  171.7470  134.6070 O   0  0  0  0  0  0  0  0  0  0  0  0
  193.1130  171.0890  136.7940 F   0  0  0  0  0  0  0  0  0  0  0  0
  192.3400  169.6300  135.2660 F   0  0  0  0  0  0  0  0  0  0  0  0
  193.2590  170.6590  135.4830 C   0  0  0  0  0  0  0  0  0  0  0  0
  194.5560  170.1610  135.3230 F   0  0  0  0  0  0  0  0  0  0  0  0
  1  2  1  0  0  0  0
  1 15  1  0  0  0  0
  3  5  1  0  0  0  0
  4  6  1  0  0  0  0
  4  7  1  0  0  0  0
  5  8  1  6  0  0  0
  6  2  1  1  0  0  0
  6  3  1  0  0  0  0
  7  5  1  0  0  0  0
  9  8  1  0  0  0  0
 11 13  1  0  0  0  0
 12 14  1  0  0  0  0
 13 10  1  0  0  0  0
 13 12  1  0  0  0  0
 13 14  1  0  0  0  0
 14  9  1  6  0  0  0
 15 16  1  0  0  0  0
 16 17  1  0  0  0  0
 18 17  1  6  0  0  0
 18 19  1  0  0  0  0
 18 30  1  0  0  0  0
 19 21  1  0  0  0  0
 20 21  2  0  0  0  0
 21 23  1  0  0  0  0
 23 22  1  1  0  0  0
 24 23  1  0  0  0  0
 24 26  1  0  0  0  0
 26 25  1  0  0  0  0
 27 25  1  0  0  0  0
 28 27  1  0  0  0  0
 29 28  1  0  0  0  0
 29 26  1  0  0  0  0
 31 30  1  6  0  0  0
 31 33  1  0  0  0  0
 31 34  1  0  0  0  0
 33 32  1  0  0  0  0
 35 37  1  0  0  0  0
 36 34  1  6  0  0  0
 36 35  1  0  0  0  0
 36 37  1  0  0  0  0
 38  1  1  0  0  0  0
 39 38  1  0  0  0  0
 40 39  1  0  0  0  0
 41 40  1  0  0  0  0
 41 42  1  0  0  0  0
 43 44  1  1  0  0  0
 43 42  1  0  0  0  0
 45 43  1  0  0  0  0
 46 51  1  0  0  0  0
 47 46  1  1  0  0  0
 48 49  1  0  0  0  0
 48 51  1  0  0  0  0
 49 45  1  6  0  0  0
 49 50  1  0  0  0  0
 49 52  1  0  0  0  0
 50 53  1  6  0  0  0
 50 47  1  0  0  0  0
 50 52  1  0  0  0  0
 51 64  1  6  0  0  0
 55 56  1  1  0  0  0
 55 57  1  0  0  0  0
 55 62  1  0  0  0  0
 57 47  1  6  0  0  0
 57 58  1  0  0  0  0
 58 61  1  1  0  0  0
 58 59  1  0  0  0  0
 59 63  1  0  0  0  0
 59 54  2  0  0  0  0
 62 60  2  0  0  0  0
 62 63  1  0  0  0  0
 64 67  1  0  0  0  0
 66 67  1  0  0  0  0
 67 65  1  0  0  0  0
 68 67  1  0  0  0  0
M  END
>  <MODEL>
8

>  <REMARK>
 VINA RESULT:      -3.3      4.515     11.404
  Name = 
  29 active torsions:
  status: ('A' for Active; 'I' for Inactive)
    1  A    between atoms: C_2  and  N_10
    2  A    between atoms: C_2  and  C_34
    3  A    between atoms: C_2  and  C_42
    4  A    between atoms: C_7  and  C_22
    5  A    between atoms: O_8  and  C_45
    6  A    between atoms: O_8  and  C_62
    7  A    between atoms: C_13  and  C_30
    8  A    between atoms: C_13  and  O_49
    9  A    between atoms: C_16  and  C_42
   10  A    between atoms: C_16  and  C_64
   11  A    between atoms: C_17  and  N_36
   12  A    between atoms: C_17  and  C_65
   13  A    between atoms: C_20  and  O_49
   14  A    between atoms: C_20  and  C_66
   15  A    between atoms: C_21  and  N_43
   16  A    between atoms: C_21  and  C_50
   17  A    between atoms: O_23  and  C_33
   18  A    between atoms: O_23  and  C_53
   19  A    between atoms: C_24  and  C_65
   20  A    between atoms: C_27  and  C_28
   21  A    between atoms: C_27  and  N_43
   22  A    between atoms: C_28  and  C_66
   23  A    between atoms: C_30  and  C_32
   24  A    between atoms: C_33  and  C_34
   25  A    between atoms: C_33  and  O_60
   26  A    between atoms: N_43  and  C_64
   27  A    between atoms: C_44  and  C_54
   28  A    between atoms: C_54  and  N_59
   29  A    between atoms: C_57  and  N_59
                            x       y       z     vdW  Elec       q    Type
                         _______ _______ _______ _____ _____    ______ ____

>  <TORSDO>
F 29

$$$$
=
 OpenBabel11062414403D

 68 74  0  0  1  0  0  0  0  0999 V2000
  186.7630  177.1990  143.2680 N   0  0  0  0  0  0  0  0  0  0  0  0
  185.9220  177.1690  144.4650 C   0  0  0  0  0  2  0  0  0  0  0  0
  187.1230  178.5760  146.0760 C   0  0  0  0  0  2  0  0  0  0  0  0
  184.7410  178.4070  146.2930 C   0  0  0  0  0  2  0  0  0  0  0  0
  186.8420  177.6850  147.2570 C   0  0  2  0  0  3  0  0  0  0  0  0
  185.8610  178.4770  145.2420 C   0  0  2  0  0  3  0  0  0  0  0  0
  185.3670  177.8630  147.5720 C   0  0  0  0  0  2  0  0  0  0  0  0
  187.7190  177.9910  148.4640 C   0  0  0  0  0  2  0  0  0  0  0  0
  189.1080  177.9830  148.0420 N   0  0  0  0  0  2  0  0  0  0  0  0
  191.1520  174.9390  146.8970 C   0  0  0  0  0  1  0  0  0  0  0  0
  191.8580  177.2730  147.8230 C   0  0  0  0  0  1  0  0  0  0  0  0
  190.1590  177.0430  146.0560 C   0  0  0  0  0  2  0  0  0  0  0  0
  190.7970  176.3720  147.2300 C   0  0  0  0  0  0  0  0  0  0  0  0
  189.3180  176.7510  147.2930 C   0  0  1  0  0  3  0  0  0  0  0  0
  186.0090  177.3120  142.0160 C   0  0  0  0  0  2  0  0  0  0  0  0
  184.9570  178.4230  142.0710 C   0  0  0  0  0  2  0  0  0  0  0  0
  183.6640  177.8550  141.5340 C   0  0  0  0  0  2  0  0  0  0  0  0
  183.1900  178.3520  140.1740 C   0  0  1  0  0  3  0  0  0  0  0  0
  183.1140  177.4160  139.0490 N   0  0  0  0  0  2  0  0  0  0  0  0
  185.1280  178.1560  138.0940 O   0  0  0  0  0  0  0  0  0  0  0  0
  184.1040  177.4160  138.0120 C   0  0  0  0  0  0  0  0  0  0  0  0
  184.4860  177.1850  135.6150 C   0  0  0  0  0  1  0  0  0  0  0  0
  183.9490  176.4940  136.8470 C   0  0  1  0  0  3  0  0  0  0  0  0
  184.7280  175.1930  137.0730 C   0  0  0  0  0  2  0  0  0  0  0  0
  184.6170  172.8730  137.3990 N   0  0  0  0  0  2  0  0  0  0  0  0
  183.9130  173.9820  136.8960 N   0  0  0  0  0  0  0  0  0  0  0  0
  184.3590  171.7760  136.4660 C   0  0  0  0  0  2  0  0  0  0  0  0
  183.7550  172.3020  135.2650 N   0  0  0  0  0  2  0  0  0  0  0  0
  183.6000  173.7180  135.5060 C   0  0  0  0  0  2  0  0  0  0  0  0
  182.2750  179.5700  140.1280 C   0  0  0  0  0  2  0  0  0  0  0  0
  180.9490  179.3600  139.3780 C   0  0  1  0  0  3  0  0  0  0  0  0
  179.7300  178.0850  140.7670 C   0  0  0  0  0  1  0  0  0  0  0  0
  179.8310  179.3720  140.2410 O   0  0  0  0  0  0  0  0  0  0  0  0
  180.8860  180.3210  138.3390 O   0  0  0  0  0  0  0  0  0  0  0  0
  179.9520  182.3560  137.8650 O   0  0  0  0  0  0  0  0  0  0  0  0
  180.5090  181.5720  138.8910 C   0  0  2  0  0  3  0  0  0  0  0  0
  181.2740  182.6750  138.2470 C   0  0  0  0  0  2  0  0  0  0  0  0
  187.8860  178.1290  143.3660 C   0  0  0  0  0  2  0  0  0  0  0  0
  188.6390  178.4190  142.0350 C   0  0  0  0  0  2  0  0  0  0  0  0
  190.0890  177.9130  142.0260 C   0  0  0  0  0  2  0  0  0  0  0  0
  190.1600  176.4640  141.5000 C   0  0  0  0  0  2  0  0  0  0  0  0
  189.7380  176.4040  140.1670 O   0  0  0  0  0  0  0  0  0  0  0  0
  190.4680  177.4040  139.5250 C   0  0  2  0  0  3  0  0  0  0  0  0
  189.7130  178.0020  138.3460 C   0  0  0  0  0  1  0  0  0  0  0  0
  191.8770  176.9210  139.1590 C   0  0  0  0  0  2  0  0  0  0  0  0
  192.1360  175.7570  135.1890 O   0  0  0  0  0  0  0  0  0  0  0  0
  193.2450  175.2060  135.8650 C   0  0  1  0  0  3  0  0  0  0  0  0
  190.7210  175.7570  137.1510 C   0  0  0  0  0  2  0  0  0  0  0  0
  191.9960  175.9680  137.9740 C   0  0  1  0  0  0  0  0  0  0  0  0
  193.2940  175.6170  137.3330 C   0  0  1  0  0  0  0  0  0  0  0  0
  190.9740  175.2030  135.7470 C   0  0  1  0  0  3  0  0  0  0  0  0
  192.6830  174.7650  138.2700 O   0  0  0  0  0  0  0  0  0  0  0  0
  194.4200  176.2880  137.8160 O   0  0  0  0  0  1  0  0  0  0  0  0
  192.5850  170.2290  135.9700 O   0  0  0  0  0  0  0  0  0  0  0  0
  195.1200  173.5270  135.6630 C   0  0  1  0  0  3  0  0  0  0  0  0
  195.8700  174.5480  135.0610 O   0  0  0  0  0  1  0  0  0  0  0  0
  193.6290  173.7610  135.4440 C   0  0  1  0  0  3  0  0  0  0  0  0
  192.7650  172.6300  136.0730 C   0  0  2  0  0  3  0  0  0  0  0  0
  193.3000  171.2500  135.7710 C   0  0  0  0  0  0  0  0  0  0  0  0
  196.6580  171.9880  134.6350 O   0  0  0  0  0  0  0  0  0  0  0  0
  191.3200  172.7030  135.5750 C   0  0  0  0  0  1  0  0  0  0  0  0
  195.5200  172.1790  135.1420 C   0  0  0  0  0  0  0  0  0  0  0  0
  194.6210  171.0820  135.2290 N   0  0  0  0  0  2  0  0  0  0  0  0
  189.8660  175.4970  134.9300 O   0  0  0  0  0  0  0  0  0  0  0  0
  188.9000  174.6180  136.8070 F   0  0  0  0  0  0  0  0  0  0  0  0
  188.3100  176.6910  136.1630 F   0  0  0  0  0  0  0  0  0  0  0  0
  188.6780  175.4260  135.7020 C   0  0  0  0  0  0  0  0  0  0  0  0
  187.6240  174.8810  134.9600 F   0  0  0  0  0  0  0  0  0  0  0  0
  1 38  1  0  0  0  0
  1  2  1  0  0  0  0
  3  5  1  0  0  0  0
  4  7  1  0  0  0  0
  5  7  1  0  0  0  0
  5  8  1  1  0  0  0
  6  2  1  1  0  0  0
  6  3  1  0  0  0  0
  6  4  1  0  0  0  0
  9  8  1  0  0  0  0
 10 13  1  0  0  0  0
 12 13  1  0  0  0  0
 12 14  1  0  0  0  0
 13 14  1  0  0  0  0
 13 11  1  0  0  0  0
 14  9  1  1  0  0  0
 15 16  1  0  0  0  0
 15  1  1  0  0  0  0
 17 16  1  0  0  0  0
 18 30  1  1  0  0  0
 18 17  1  0  0  0  0
 19 18  1  0  0  0  0
 21 20  2  0  0  0  0
 21 19  1  0  0  0  0
 23 22  1  6  0  0  0
 23 24  1  0  0  0  0
 23 21  1  0  0  0  0
 26 24  1  0  0  0  0
 26 25  1  0  0  0  0
 27 25  1  0  0  0  0
 28 29  1  0  0  0  0
 28 27  1  0  0  0  0
 29 26  1  0  0  0  0
 31 30  1  1  0  0  0
 31 33  1  0  0  0  0
 33 32  1  0  0  0  0
 34 31  1  0  0  0  0
 35 37  1  0  0  0  0
 35 36  1  0  0  0  0
 36 34  1  6  0  0  0
 37 36  1  0  0  0  0
 39 38  1  0  0  0  0
 40 39  1  0  0  0  0
 41 40  1  0  0  0  0
 42 41  1  0  0  0  0
 43 44  1  6  0  0  0
 43 42  1  0  0  0  0
 45 43  1  0  0  0  0
 46 51  1  0  0  0  0
 47 46  1  1  0  0  0
 47 50  1  0  0  0  0
 48 49  1  0  0  0  0
 49 52  1  0  0  0  0
 49 45  1  1  0  0  0
 50 53  1  1  0  0  0
 50 49  1  0  0  0  0
 50 52  1  0  0  0  0
 51 64  1  6  0  0  0
 51 48  1  0  0  0  0
 55 56  1  6  0  0  0
 57 55  1  0  0  0  0
 57 47  1  1  0  0  0
 57 58  1  0  0  0  0
 58 61  1  6  0  0  0
 59 54  2  0  0  0  0
 59 58  1  0  0  0  0
 60 62  2  0  0  0  0
 62 63  1  0  0  0  0
 62 55  1  0  0  0  0
 63 59  1  0  0  0  0
 64 67  1  0  0  0  0
 67 66  1  0  0  0  0
 67 65  1  0  0  0  0
 68 67  1  0  0  0  0
M  END
>  <MODEL>
9

>  <REMARK>
 VINA RESULT:      -3.3      3.291      9.891
  Name = 
  29 active torsions:
  status: ('A' for Active; 'I' for Inactive)
    1  A    between atoms: C_2  and  N_10
    2  A    between atoms: C_2  and  C_34
    3  A    between atoms: C_2  and  C_42
    4  A    between atoms: C_7  and  C_22
    5  A    between atoms: O_8  and  C_45
    6  A    between atoms: O_8  and  C_62
    7  A    between atoms: C_13  and  C_30
    8  A    between atoms: C_13  and  O_49
    9  A    between atoms: C_16  and  C_42
   10  A    between atoms: C_16  and  C_64
   11  A    between atoms: C_17  and  N_36
   12  A    between atoms: C_17  and  C_65
   13  A    between atoms: C_20  and  O_49
   14  A    between atoms: C_20  and  C_66
   15  A    between atoms: C_21  and  N_43
   16  A    between atoms: C_21  and  C_50
   17  A    between atoms: O_23  and  C_33
   18  A    between atoms: O_23  and  C_53
   19  A    between atoms: C_24  and  C_65
   20  A    between atoms: C_27  and  C_28
   21  A    between atoms: C_27  and  N_43
   22  A    between atoms: C_28  and  C_66
   23  A    between atoms: C_30  and  C_32
   24  A    between atoms: C_33  and  C_34
   25  A    between atoms: C_33  and  O_60
   26  A    between atoms: N_43  and  C_64
   27  A    between atoms: C_44  and  C_54
   28  A    between atoms: C_54  and  N_59
   29  A    between atoms: C_57  and  N_59
                            x       y       z     vdW  Elec       q    Type
                         _______ _______ _______ _____ _____    ______ ____

>  <TORSDO>
F 29

$$$$
