=
 OpenBabel11062415433D

 34 40  0  0  1  0  0  0  0  0999 V2000
  183.1920  175.8790  137.6870 C   0  0  1  0  0  3  0  0  0  0  0  0
  183.9150  177.5310  139.4180 C   0  0  1  0  0  3  0  0  0  0  0  0
  186.5180  177.2780  137.7820 C   0  0  0  0  0  0  0  0  0  0  0  0
  182.9490  177.1890  136.9320 C   0  0  2  0  0  0  0  0  0  0  0  0
  185.3570  177.1690  137.1960 C   0  0  0  0  0  0  0  0  0  0  0  0
  185.6860  176.4370  134.9770 O   0  0  0  0  0  1  0  0  0  0  0  0
  187.6700  177.3830  138.3890 C   0  0  0  0  0  0  0  0  0  0  0  0
  185.1500  177.4670  135.7530 C   0  0  1  0  0  3  0  0  0  0  0  0
  182.7140  176.7870  139.9850 C   0  0  0  0  0  2  0  0  0  0  0  0
  184.0720  177.0880  137.9490 C   0  0  2  0  0  0  0  0  0  0  0  0
  182.3820  175.7880  138.9340 C   0  0  0  0  0  0  0  0  0  0  0  0
  181.9270  178.0580  137.3330 O   0  0  0  0  0  1  0  0  0  0  0  0
  181.5050  174.9520  139.0830 O   0  0  0  0  0  0  0  0  0  0  0  0
  183.0700  177.6480  134.5940 O   0  0  0  0  0  0  0  0  0  0  0  0
  183.6590  177.4560  135.6450 C   0  0  0  0  0  0  0  0  0  0  0  0
  189.1590  177.8800  141.5690 C   0  0  2  0  0  0  0  0  0  0  0  0
  188.3850  179.0910  141.3850 N   0  0  0  0  0  2  0  0  0  0  0  0
  191.4770  177.4540  141.2190 C   0  0  0  0  0  2  0  0  0  0  0  0
  188.4620  178.0460  144.0330 C   0  0  0  0  0  2  0  0  0  0  0  0
  187.6780  177.6190  139.8630 C   0  0  1  0  0  3  0  0  0  0  0  0
  189.3020  177.4160  142.9630 C   0  0  0  0  0  0  0  0  0  0  0  0
  188.9270  176.0010  143.3210 C   0  0  0  0  0  2  0  0  0  0  0  0
  190.5460  178.0580  142.2920 C   0  0  0  0  0  0  0  0  0  0  0  0
  188.8050  176.8690  140.5260 C   0  0  0  0  0  2  0  0  0  0  0  0
  187.8170  178.9970  140.1450 O   0  0  0  0  0  0  0  0  0  0  0  0
  191.5630  176.9390  142.5920 C   0  0  0  0  0  2  0  0  0  0  0  0
  188.0500  176.6160  144.4250 C   0  0  0  0  0  2  0  0  0  0  0  0
  182.5330  179.7480  139.7020 C   0  0  0  0  0  1  0  0  0  0  0  0
  183.8370  179.0190  139.6500 C   0  0  0  0  0  0  0  0  0  0  0  0
  184.8700  179.6600  139.7620 O   0  0  0  0  0  0  0  0  0  0  0  0
  188.9650  177.2880  137.6300 C   0  0  1  0  0  3  0  0  0  0  0  0
  189.1100  175.9320  136.9570 C   0  0  0  0  0  1  0  0  0  0  0  0
  189.0890  178.4140  136.6130 C   0  0  0  0  0  2  0  0  0  0  0  0
  188.8820  179.6440  137.2370 O   0  0  0  0  0  1  0  0  0  0  0  0
  1 10  1  0  0  0  0
  1 11  1  1  0  0  0
  2 29  1  6  0  0  0
  2  9  1  0  0  0  0
  3  7  2  0  0  0  0
  4 12  1  1  0  0  0
  4  1  1  0  0  0  0
  4 10  1  0  0  0  0
  5  3  2  0  0  0  0
  8  6  1  6  0  0  0
  8  5  1  0  0  0  0
 10  5  1  6  0  0  0
 10  2  1  0  0  0  0
 11 13  2  0  0  0  0
 11  9  1  0  0  0  0
 14 15  2  0  0  0  0
 15  8  1  0  0  0  0
 15  4  1  0  0  0  0
 16 24  1  6  0  0  0
 16 23  1  0  0  0  0
 16 21  1  0  0  0  0
 17 16  1  0  0  0  0
 18 23  1  0  0  0  0
 18 26  1  0  0  0  0
 19 27  1  0  0  0  0
 20  7  1  6  0  0  0
 20 25  1  0  0  0  0
 20 24  1  0  0  0  0
 21 22  1  0  0  0  0
 21 19  1  0  0  0  0
 22 27  1  0  0  0  0
 23 26  1  0  0  0  0
 23 21  1  0  0  0  0
 25 17  1  0  0  0  0
 29 28  1  0  0  0  0
 29 30  2  0  0  0  0
 31 32  1  6  0  0  0
 31  7  1  0  0  0  0
 33 34  1  0  0  0  0
 33 31  1  0  0  0  0
M  END
>  <MODEL>
1

>  <REMARK>
 VINA RESULT:      -6.5      0.000      0.000
  Name = 
  4 active torsions:
  status: ('A' for Active; 'I' for Inactive)
    1  A    between atoms: C_3  and  C_9
    2  A    between atoms: C_8  and  C_13
    3  A    between atoms: C_8  and  C_18
    4  A    between atoms: C_17  and  C_18
                            x       y       z     vdW  Elec       q    Type
                         _______ _______ _______ _____ _____    ______ ____

>  <TORSDO>
F 4

$$$$
=
 OpenBabel11062415433D

 34 40  0  0  1  0  0  0  0  0999 V2000
  188.5670  175.3670  137.7300 C   0  0  1  0  0  3  0  0  0  0  0  0
  187.0970  177.1550  136.7830 C   0  0  1  0  0  3  0  0  0  0  0  0
  187.1580  178.0090  139.7460 C   0  0  0  0  0  0  0  0  0  0  0  0
  189.6020  176.4690  137.4830 C   0  0  2  0  0  0  0  0  0  0  0  0
  188.1980  177.4380  139.2030 C   0  0  0  0  0  0  0  0  0  0  0  0
  189.7610  176.9270  140.8950 O   0  0  0  0  0  1  0  0  0  0  0  0
  186.1030  178.5730  140.2730 C   0  0  0  0  0  0  0  0  0  0  0  0
  189.5840  177.6390  139.7060 C   0  0  1  0  0  3  0  0  0  0  0  0
  187.0470  175.9770  135.8190 C   0  0  0  0  0  2  0  0  0  0  0  0
  188.1710  176.8290  137.8410 C   0  0  2  0  0  0  0  0  0  0  0  0
  187.8870  174.9400  136.4750 C   0  0  0  0  0  0  0  0  0  0  0  0
  189.9450  176.8360  136.1760 O   0  0  0  0  0  1  0  0  0  0  0  0
  188.0120  173.8160  136.0160 O   0  0  0  0  0  0  0  0  0  0  0  0
  191.6190  176.9590  138.6580 O   0  0  0  0  0  0  0  0  0  0  0  0
  190.4000  177.0170  138.6200 C   0  0  0  0  0  0  0  0  0  0  0  0
  182.6510  179.0370  139.6090 C   0  0  2  0  0  0  0  0  0  0  0  0
  183.2480  180.2330  139.0500 N   0  0  0  0  0  2  0  0  0  0  0  0
  181.5820  178.6730  141.7070 C   0  0  0  0  0  2  0  0  0  0  0  0
  181.0580  179.1340  137.6000 C   0  0  0  0  0  2  0  0  0  0  0  0
  184.9010  178.7780  139.4120 C   0  0  1  0  0  3  0  0  0  0  0  0
  181.4380  178.5480  138.9260 C   0  0  0  0  0  0  0  0  0  0  0  0
  181.3710  177.1170  138.4570 C   0  0  0  0  0  2  0  0  0  0  0  0
  181.2530  179.2320  140.3060 C   0  0  0  0  0  0  0  0  0  0  0  0
  183.7080  178.0410  139.9620 C   0  0  0  0  0  2  0  0  0  0  0  0
  184.5870  180.1520  139.3160 O   0  0  0  0  0  0  0  0  0  0  0  0
  180.4200  178.1320  140.9910 C   0  0  0  0  0  2  0  0  0  0  0  0
  180.9860  177.6870  137.0820 C   0  0  0  0  0  2  0  0  0  0  0  0
  187.1030  178.6080  134.5940 C   0  0  0  0  0  1  0  0  0  0  0  0
  187.2540  178.4770  136.0750 C   0  0  0  0  0  0  0  0  0  0  0  0
  187.5510  179.4680  136.7220 O   0  0  0  0  0  0  0  0  0  0  0  0
  186.0930  179.0260  141.7070 C   0  0  1  0  0  3  0  0  0  0  0  0
  184.9570  178.3760  142.4810 C   0  0  0  0  0  1  0  0  0  0  0  0
  187.4320  178.7530  142.3780 C   0  0  0  0  0  2  0  0  0  0  0  0
  187.3430  177.6060  143.1680 O   0  0  0  0  0  1  0  0  0  0  0  0
  1 11  1  6  0  0  0
  1 10  1  0  0  0  0
  2 29  1  6  0  0  0
  2 10  1  0  0  0  0
  3  7  2  0  0  0  0
  4 12  1  6  0  0  0
  4  1  1  0  0  0  0
  4 10  1  0  0  0  0
  4 15  1  0  0  0  0
  5  8  1  0  0  0  0
  5  3  2  0  0  0  0
  7 31  1  0  0  0  0
  8  6  1  1  0  0  0
  9 11  1  0  0  0  0
  9  2  1  0  0  0  0
 10  5  1  1  0  0  0
 13 11  2  0  0  0  0
 15 14  2  0  0  0  0
 15  8  1  0  0  0  0
 16 24  1  1  0  0  0
 16 23  1  0  0  0  0
 17 25  1  0  0  0  0
 17 16  1  0  0  0  0
 19 21  1  0  0  0  0
 20 24  1  0  0  0  0
 20  7  1  1  0  0  0
 21 16  1  0  0  0  0
 21 23  1  0  0  0  0
 22 21  1  0  0  0  0
 23 26  1  0  0  0  0
 23 18  1  0  0  0  0
 25 20  1  0  0  0  0
 26 18  1  0  0  0  0
 27 19  1  0  0  0  0
 27 22  1  0  0  0  0
 28 29  1  0  0  0  0
 29 30  2  0  0  0  0
 31 33  1  0  0  0  0
 31 32  1  1  0  0  0
 33 34  1  0  0  0  0
M  END
>  <MODEL>
2

>  <REMARK>
 VINA RESULT:      -6.2      2.697      6.904
  Name = 
  4 active torsions:
  status: ('A' for Active; 'I' for Inactive)
    1  A    between atoms: C_3  and  C_9
    2  A    between atoms: C_8  and  C_13
    3  A    between atoms: C_8  and  C_18
    4  A    between atoms: C_17  and  C_18
                            x       y       z     vdW  Elec       q    Type
                         _______ _______ _______ _____ _____    ______ ____

>  <TORSDO>
F 4

$$$$
=
 OpenBabel11062415433D

 34 40  0  0  1  0  0  0  0  0999 V2000
  185.6560  172.9960  137.1300 C   0  0  1  0  0  3  0  0  0  0  0  0
  184.3390  175.0110  136.4580 C   0  0  1  0  0  3  0  0  0  0  0  0
  186.8800  176.3620  137.5660 C   0  0  0  0  0  0  0  0  0  0  0  0
  186.2360  173.2480  135.7350 C   0  0  2  0  0  0  0  0  0  0  0  0
  186.9550  175.2040  136.9690 C   0  0  0  0  0  0  0  0  0  0  0  0
  189.1290  174.3340  137.2600 O   0  0  0  0  0  1  0  0  0  0  0  0
  186.7830  177.5200  138.1650 C   0  0  0  0  0  0  0  0  0  0  0  0
  188.1920  174.7200  136.2990 C   0  0  1  0  0  3  0  0  0  0  0  0
  183.3470  173.8690  136.6360 C   0  0  0  0  0  2  0  0  0  0  0  0
  185.7520  174.4100  136.5860 C   0  0  2  0  0  0  0  0  0  0  0  0
  184.1900  172.7310  137.0920 C   0  0  0  0  0  0  0  0  0  0  0  0
  185.4490  173.0440  134.5950 O   0  0  0  0  0  1  0  0  0  0  0  0
  183.7130  171.6540  137.4110 O   0  0  0  0  0  0  0  0  0  0  0  0
  188.4220  172.8060  134.8890 O   0  0  0  0  0  0  0  0  0  0  0  0
  187.6950  173.5150  135.5670 C   0  0  0  0  0  0  0  0  0  0  0  0
  183.9980  178.8540  139.9080 C   0  0  2  0  0  0  0  0  0  0  0  0
  184.4270  179.9700  139.0900 N   0  0  0  0  0  2  0  0  0  0  0  0
  184.4280  178.3550  142.1980 C   0  0  0  0  0  2  0  0  0  0  0  0
  181.6150  179.6730  139.4220 C   0  0  0  0  0  2  0  0  0  0  0  0
  185.4320  178.1420  138.2940 C   0  0  1  0  0  3  0  0  0  0  0  0
  182.5490  178.7810  140.1830 C   0  0  0  0  0  0  0  0  0  0  0  0
  181.7950  177.5130  139.8770 C   0  0  0  0  0  2  0  0  0  0  0  0
  183.4760  179.2220  141.3470 C   0  0  0  0  0  0  0  0  0  0  0  0
  184.6970  177.6000  139.4920 C   0  0  0  0  0  2  0  0  0  0  0  0
  185.5410  179.5460  138.4200 O   0  0  0  0  0  0  0  0  0  0  0  0
  182.9810  178.2270  142.4150 C   0  0  0  0  0  2  0  0  0  0  0  0
  180.8210  178.3990  139.0820 C   0  0  0  0  0  2  0  0  0  0  0  0
  185.0310  176.8580  134.7210 C   0  0  0  0  0  1  0  0  0  0  0  0
  184.0780  175.8160  135.2090 C   0  0  0  0  0  0  0  0  0  0  0  0
  183.0390  175.6400  134.5940 O   0  0  0  0  0  0  0  0  0  0  0  0
  187.9970  178.2270  138.7020 C   0  0  1  0  0  3  0  0  0  0  0  0
  188.6000  177.4710  139.8760 C   0  0  0  0  0  1  0  0  0  0  0  0
  189.0330  178.4450  137.6080 C   0  0  0  0  0  2  0  0  0  0  0  0
  188.9990  179.7720  137.1780 O   0  0  0  0  0  1  0  0  0  0  0  0
  1 11  1  6  0  0  0
  2 29  1  6  0  0  0
  2 10  1  0  0  0  0
  2  9  1  0  0  0  0
  3  7  2  0  0  0  0
  4 12  1  6  0  0  0
  4 10  1  0  0  0  0
  4  1  1  0  0  0  0
  5  3  2  0  0  0  0
  7 31  1  0  0  0  0
  8  5  1  0  0  0  0
  8  6  1  1  0  0  0
  9 11  1  0  0  0  0
 10  5  1  1  0  0  0
 10  1  1  0  0  0  0
 11 13  2  0  0  0  0
 14 15  2  0  0  0  0
 15  4  1  0  0  0  0
 15  8  1  0  0  0  0
 16 24  1  6  0  0  0
 16 21  1  0  0  0  0
 16 23  1  0  0  0  0
 17 16  1  0  0  0  0
 18 26  1  0  0  0  0
 19 21  1  0  0  0  0
 20  7  1  1  0  0  0
 20 25  1  0  0  0  0
 20 24  1  0  0  0  0
 21 23  1  0  0  0  0
 22 21  1  0  0  0  0
 23 18  1  0  0  0  0
 23 26  1  0  0  0  0
 25 17  1  0  0  0  0
 27 19  1  0  0  0  0
 27 22  1  0  0  0  0
 28 29  1  0  0  0  0
 30 29  2  0  0  0  0
 31 32  1  1  0  0  0
 33 31  1  0  0  0  0
 34 33  1  0  0  0  0
M  END
>  <MODEL>
3

>  <REMARK>
 VINA RESULT:      -5.9      2.523      5.346
  Name = 
  4 active torsions:
  status: ('A' for Active; 'I' for Inactive)
    1  A    between atoms: C_3  and  C_9
    2  A    between atoms: C_8  and  C_13
    3  A    between atoms: C_8  and  C_18
    4  A    between atoms: C_17  and  C_18
                            x       y       z     vdW  Elec       q    Type
                         _______ _______ _______ _____ _____    ______ ____

>  <TORSDO>
F 4

$$$$
=
 OpenBabel11062415433D

 34 40  0  0  1  0  0  0  0  0999 V2000
  189.1530  175.9690  144.3770 C   0  0  1  0  0  3  0  0  0  0  0  0
  188.7100  177.3360  142.3310 C   0  0  1  0  0  3  0  0  0  0  0  0
  186.1700  177.9580  143.9660 C   0  0  0  0  0  0  0  0  0  0  0  0
  189.6790  177.3310  144.8400 C   0  0  2  0  0  0  0  0  0  0  0  0
  187.3070  177.7420  144.5700 C   0  0  0  0  0  0  0  0  0  0  0  0
  186.9190  177.5690  146.8910 O   0  0  0  0  0  1  0  0  0  0  0  0
  185.0400  178.1650  143.3430 C   0  0  0  0  0  0  0  0  0  0  0  0
  187.6210  178.2860  145.9190 C   0  0  1  0  0  3  0  0  0  0  0  0
  189.7190  176.2640  141.9420 C   0  0  0  0  0  2  0  0  0  0  0  0
  188.5220  177.2490  143.8590 C   0  0  2  0  0  0  0  0  0  0  0  0
  189.8840  175.4590  143.1820 C   0  0  0  0  0  0  0  0  0  0  0  0
  190.8370  177.8720  144.2720 O   0  0  0  0  0  1  0  0  0  0  0  0
  190.5710  174.4520  143.2190 O   0  0  0  0  0  0  0  0  0  0  0  0
  189.7360  178.2800  147.0280 O   0  0  0  0  0  0  0  0  0  0  0  0
  189.0820  177.9970  146.0360 C   0  0  0  0  0  0  0  0  0  0  0  0
  183.6400  178.5330  140.1060 C   0  0  2  0  0  0  0  0  0  0  0  0
  184.8140  179.3780  140.0440 N   0  0  0  0  0  2  0  0  0  0  0  0
  181.3550  179.0810  140.4990 C   0  0  0  0  0  2  0  0  0  0  0  0
  184.1910  177.9300  137.6740 C   0  0  0  0  0  2  0  0  0  0  0  0
  185.0260  178.0860  141.8520 C   0  0  1  0  0  3  0  0  0  0  0  0
  183.2480  177.8870  138.8380 C   0  0  0  0  0  0  0  0  0  0  0  0
  183.0530  176.3930  138.7910 C   0  0  0  0  0  2  0  0  0  0  0  0
  182.3720  179.0660  139.3390 C   0  0  0  0  0  0  0  0  0  0  0  0
  183.6630  177.6940  141.3430 C   0  0  0  0  0  2  0  0  0  0  0  0
  185.3860  179.3300  141.2850 O   0  0  0  0  0  0  0  0  0  0  0  0
  180.9990  178.3710  139.2640 C   0  0  0  0  0  2  0  0  0  0  0  0
  184.0230  176.4020  137.5970 C   0  0  0  0  0  2  0  0  0  0  0  0
  189.0560  179.0030  140.3290 C   0  0  0  0  0  1  0  0  0  0  0  0
  189.0740  178.6970  141.7920 C   0  0  0  0  0  0  0  0  0  0  0  0
  189.4310  179.5690  142.5670 O   0  0  0  0  0  0  0  0  0  0  0  0
  183.7800  178.4930  144.0960 C   0  0  1  0  0  3  0  0  0  0  0  0
  184.0500  178.6270  145.5870 C   0  0  0  0  0  1  0  0  0  0  0  0
  183.1260  179.7530  143.5480 C   0  0  0  0  0  2  0  0  0  0  0  0
  181.7370  179.6280  143.5940 O   0  0  0  0  0  1  0  0  0  0  0  0
  1 11  1  6  0  0  0
  1  4  1  0  0  0  0
  2 29  1  1  0  0  0
  2 10  1  0  0  0  0
  3  5  2  0  0  0  0
  4 12  1  6  0  0  0
  4 15  1  0  0  0  0
  5  8  1  0  0  0  0
  7  3  2  0  0  0  0
  7 31  1  0  0  0  0
  8 15  1  0  0  0  0
  8  6  1  1  0  0  0
  9  2  1  0  0  0  0
  9 11  1  0  0  0  0
 10  1  1  0  0  0  0
 10  5  1  1  0  0  0
 10  4  1  0  0  0  0
 11 13  2  0  0  0  0
 15 14  2  0  0  0  0
 16 24  1  1  0  0  0
 17 16  1  0  0  0  0
 17 25  1  0  0  0  0
 19 21  1  0  0  0  0
 20  7  1  1  0  0  0
 21 23  1  0  0  0  0
 21 16  1  0  0  0  0
 22 21  1  0  0  0  0
 23 16  1  0  0  0  0
 23 18  1  0  0  0  0
 24 20  1  0  0  0  0
 25 20  1  0  0  0  0
 26 23  1  0  0  0  0
 26 18  1  0  0  0  0
 27 19  1  0  0  0  0
 27 22  1  0  0  0  0
 28 29  1  0  0  0  0
 29 30  2  0  0  0  0
 31 32  1  1  0  0  0
 33 34  1  0  0  0  0
 33 31  1  0  0  0  0
M  END
>  <MODEL>
4

>  <REMARK>
 VINA RESULT:      -5.5      3.137      8.473
  Name = 
  4 active torsions:
  status: ('A' for Active; 'I' for Inactive)
    1  A    between atoms: C_3  and  C_9
    2  A    between atoms: C_8  and  C_13
    3  A    between atoms: C_8  and  C_18
    4  A    between atoms: C_17  and  C_18
                            x       y       z     vdW  Elec       q    Type
                         _______ _______ _______ _____ _____    ______ ____

>  <TORSDO>
F 4

$$$$
=
 OpenBabel11062415433D

 34 40  0  0  1  0  0  0  0  0999 V2000
  180.5400  180.5370  140.3840 C   0  0  1  0  0  3  0  0  0  0  0  0
  182.1180  179.4840  138.7560 C   0  0  1  0  0  3  0  0  0  0  0  0
  183.5040  178.7540  141.4130 C   0  0  0  0  0  0  0  0  0  0  0  0
  180.0020  179.1020  140.3720 C   0  0  2  0  0  0  0  0  0  0  0  0
  182.2030  178.8360  141.3480 C   0  0  0  0  0  0  0  0  0  0  0  0
  181.3190  178.7060  143.5320 O   0  0  0  0  0  1  0  0  0  0  0  0
  184.8080  178.6850  141.4590 C   0  0  0  0  0  0  0  0  0  0  0  0
  181.3010  178.0990  142.2740 C   0  0  1  0  0  3  0  0  0  0  0  0
  181.3440  180.5540  137.9990 C   0  0  0  0  0  2  0  0  0  0  0  0
  181.4820  179.3690  140.1560 C   0  0  2  0  0  0  0  0  0  0  0  0
  180.4780  181.1730  139.0380 C   0  0  0  0  0  0  0  0  0  0  0  0
  179.3680  178.5940  139.2320 O   0  0  0  0  0  1  0  0  0  0  0  0
  179.7650  182.1350  138.8030 O   0  0  0  0  0  0  0  0  0  0  0  0
  178.9310  177.8600  142.1040 O   0  0  0  0  0  0  0  0  0  0  0  0
  179.9660  178.3050  141.6340 C   0  0  0  0  0  0  0  0  0  0  0  0
  185.8870  178.1050  138.1310 C   0  0  2  0  0  0  0  0  0  0  0  0
  185.2800  179.4180  138.0460 N   0  0  0  0  0  2  0  0  0  0  0  0
  185.0160  175.9560  137.5830 C   0  0  0  0  0  2  0  0  0  0  0  0
  187.6130  179.0150  136.4650 C   0  0  0  0  0  2  0  0  0  0  0  0
  185.5790  178.9680  140.2120 C   0  0  1  0  0  3  0  0  0  0  0  0
  187.0170  177.8620  137.2130 C   0  0  0  0  0  0  0  0  0  0  0  0
  188.3320  177.3710  137.7620 C   0  0  0  0  0  2  0  0  0  0  0  0
  185.6680  177.1690  136.8850 C   0  0  0  0  0  0  0  0  0  0  0  0
  186.0410  177.6910  139.5590 C   0  0  0  0  0  2  0  0  0  0  0  0
  184.7880  179.6930  139.2920 O   0  0  0  0  0  0  0  0  0  0  0  0
  186.1900  175.7270  136.7310 C   0  0  0  0  0  2  0  0  0  0  0  0
  188.9750  178.5490  137.0110 C   0  0  0  0  0  2  0  0  0  0  0  0
  182.1260  178.1520  136.4900 C   0  0  0  0  0  1  0  0  0  0  0  0
  182.2350  178.1950  137.9810 C   0  0  0  0  0  0  0  0  0  0  0  0
  182.3850  177.1470  138.5860 O   0  0  0  0  0  0  0  0  0  0  0  0
  185.5270  178.3120  142.7260 C   0  0  1  0  0  3  0  0  0  0  0  0
  187.0360  178.3670  142.5380 C   0  0  0  0  0  1  0  0  0  0  0  0
  185.0920  179.1970  143.8850 C   0  0  0  0  0  2  0  0  0  0  0  0
  184.9970  178.4400  145.0530 O   0  0  0  0  0  1  0  0  0  0  0  0
  1 11  1  6  0  0  0
  2 29  1  6  0  0  0
  2 10  1  0  0  0  0
  3  7  2  0  0  0  0
  4 12  1  6  0  0  0
  4  1  1  0  0  0  0
  4 15  1  0  0  0  0
  5  3  2  0  0  0  0
  5  8  1  0  0  0  0
  7 31  1  0  0  0  0
  8  6  1  1  0  0  0
  9  2  1  0  0  0  0
  9 11  1  0  0  0  0
 10  4  1  0  0  0  0
 10  1  1  0  0  0  0
 10  5  1  1  0  0  0
 13 11  2  0  0  0  0
 15 14  2  0  0  0  0
 15  8  1  0  0  0  0
 16 24  1  1  0  0  0
 17 16  1  0  0  0  0
 17 25  1  0  0  0  0
 19 27  1  0  0  0  0
 19 21  1  0  0  0  0
 20  7  1  1  0  0  0
 21 22  1  0  0  0  0
 21 16  1  0  0  0  0
 23 21  1  0  0  0  0
 23 18  1  0  0  0  0
 23 16  1  0  0  0  0
 24 20  1  0  0  0  0
 25 20  1  0  0  0  0
 26 23  1  0  0  0  0
 26 18  1  0  0  0  0
 27 22  1  0  0  0  0
 28 29  1  0  0  0  0
 29 30  2  0  0  0  0
 31 32  1  6  0  0  0
 31 33  1  0  0  0  0
 33 34  1  0  0  0  0
M  END
>  <MODEL>
5

>  <REMARK>
 VINA RESULT:      -5.3      2.693      6.064
  Name = 
  4 active torsions:
  status: ('A' for Active; 'I' for Inactive)
    1  A    between atoms: C_3  and  C_9
    2  A    between atoms: C_8  and  C_13
    3  A    between atoms: C_8  and  C_18
    4  A    between atoms: C_17  and  C_18
                            x       y       z     vdW  Elec       q    Type
                         _______ _______ _______ _____ _____    ______ ____

>  <TORSDO>
F 4

$$$$
=
 OpenBabel11062415433D

 34 40  0  0  1  0  0  0  0  0999 V2000
  190.4130  175.6400  145.3920 C   0  0  1  0  0  3  0  0  0  0  0  0
  191.0970  177.0150  143.4200 C   0  0  1  0  0  3  0  0  0  0  0  0
  188.0700  177.6020  143.4730 C   0  0  0  0  0  0  0  0  0  0  0  0
  190.6000  177.0040  146.0630 C   0  0  2  0  0  0  0  0  0  0  0  0
  188.7210  177.3940  144.5840 C   0  0  0  0  0  0  0  0  0  0  0  0
  187.1720  177.2030  146.3530 O   0  0  0  0  0  1  0  0  0  0  0  0
  187.4350  177.8010  142.3480 C   0  0  0  0  0  0  0  0  0  0  0  0
  188.2710  177.9320  145.8970 C   0  0  1  0  0  3  0  0  0  0  0  0
  192.1720  175.9560  143.6200 C   0  0  0  0  0  2  0  0  0  0  0  0
  190.1340  176.9170  144.6200 C   0  0  2  0  0  0  0  0  0  0  0  0
  191.6680  175.1450  144.7620 C   0  0  0  0  0  0  0  0  0  0  0  0
  191.8780  177.5610  146.1900 O   0  0  0  0  0  1  0  0  0  0  0  0
  192.2450  174.1440  145.1540 O   0  0  0  0  0  0  0  0  0  0  0  0
  189.4850  177.9410  147.9530 O   0  0  0  0  0  0  0  0  0  0  0  0
  189.4550  177.6570  146.7660 C   0  0  0  0  0  0  0  0  0  0  0  0
  187.8980  178.0170  138.8390 C   0  0  2  0  0  0  0  0  0  0  0  0
  188.8330  179.0000  139.3460 N   0  0  0  0  0  2  0  0  0  0  0  0
  185.6990  178.2800  137.9580 C   0  0  0  0  0  2  0  0  0  0  0  0
  189.6970  177.5020  137.0840 C   0  0  0  0  0  2  0  0  0  0  0  0
  188.2090  177.7320  141.0730 C   0  0  1  0  0  3  0  0  0  0  0  0
  188.2970  177.3370  137.5910 C   0  0  0  0  0  0  0  0  0  0  0  0
  188.3170  175.8310  137.5360 C   0  0  0  0  0  2  0  0  0  0  0  0
  187.1670  178.3970  137.4960 C   0  0  0  0  0  0  0  0  0  0  0  0
  187.3630  177.1800  139.9550 C   0  0  0  0  0  2  0  0  0  0  0  0
  188.6750  179.0140  140.7040 O   0  0  0  0  0  0  0  0  0  0  0  0
  186.1190  177.5400  136.7610 C   0  0  0  0  0  2  0  0  0  0  0  0
  189.7600  175.9660  137.0200 C   0  0  0  0  0  2  0  0  0  0  0  0
  191.2570  179.5880  143.9310 C   0  0  0  0  0  1  0  0  0  0  0  0
  191.6750  178.3830  143.1530 C   0  0  0  0  0  0  0  0  0  0  0  0
  192.4820  178.5220  142.2480 O   0  0  0  0  0  0  0  0  0  0  0  0
  185.9640  178.1120  142.3250 C   0  0  1  0  0  3  0  0  0  0  0  0
  185.3480  177.9600  143.7070 C   0  0  0  0  0  1  0  0  0  0  0  0
  185.7060  179.5050  141.7670 C   0  0  0  0  0  2  0  0  0  0  0  0
  184.6660  179.4610  140.8380 O   0  0  0  0  0  1  0  0  0  0  0  0
  1 11  1  6  0  0  0
  1  4  1  0  0  0  0
  2 29  1  1  0  0  0
  2  9  1  0  0  0  0
  2 10  1  0  0  0  0
  3  5  2  0  0  0  0
  4 12  1  1  0  0  0
  4 15  1  0  0  0  0
  5  8  1  0  0  0  0
  7  3  2  0  0  0  0
  8  6  1  1  0  0  0
  8 15  1  0  0  0  0
  9 11  1  0  0  0  0
 10  5  1  6  0  0  0
 10  1  1  0  0  0  0
 10  4  1  0  0  0  0
 11 13  2  0  0  0  0
 15 14  2  0  0  0  0
 16 17  1  0  0  0  0
 16 24  1  1  0  0  0
 17 25  1  0  0  0  0
 19 21  1  0  0  0  0
 20  7  1  1  0  0  0
 21 16  1  0  0  0  0
 22 21  1  0  0  0  0
 23 21  1  0  0  0  0
 23 18  1  0  0  0  0
 23 16  1  0  0  0  0
 24 20  1  0  0  0  0
 25 20  1  0  0  0  0
 26 23  1  0  0  0  0
 26 18  1  0  0  0  0
 27 19  1  0  0  0  0
 27 22  1  0  0  0  0
 29 28  1  0  0  0  0
 30 29  2  0  0  0  0
 31  7  1  0  0  0  0
 31 32  1  1  0  0  0
 33 31  1  0  0  0  0
 34 33  1  0  0  0  0
M  END
>  <MODEL>
6

>  <REMARK>
 VINA RESULT:      -5.0      3.233      8.452
  Name = 
  4 active torsions:
  status: ('A' for Active; 'I' for Inactive)
    1  A    between atoms: C_3  and  C_9
    2  A    between atoms: C_8  and  C_13
    3  A    between atoms: C_8  and  C_18
    4  A    between atoms: C_17  and  C_18
                            x       y       z     vdW  Elec       q    Type
                         _______ _______ _______ _____ _____    ______ ____

>  <TORSDO>
F 4

$$$$
=
 OpenBabel11062415433D

 34 40  0  0  1  0  0  0  0  0999 V2000
  187.0860  173.5700  137.2890 C   0  0  1  0  0  3  0  0  0  0  0  0
  186.2300  175.9050  137.5460 C   0  0  1  0  0  3  0  0  0  0  0  0
  189.1430  176.2840  138.4850 C   0  0  0  0  0  0  0  0  0  0  0  0
  187.5310  174.1720  135.9530 C   0  0  2  0  0  0  0  0  0  0  0  0
  188.8560  175.4100  137.5590 C   0  0  0  0  0  0  0  0  0  0  0  0
  190.7690  174.0970  137.1290 O   0  0  0  0  0  1  0  0  0  0  0  0
  189.4080  177.1600  139.4170 C   0  0  0  0  0  0  0  0  0  0  0  0
  189.8430  174.9600  136.5390 C   0  0  1  0  0  3  0  0  0  0  0  0
  185.0190  174.9820  137.5580 C   0  0  0  0  0  2  0  0  0  0  0  0
  187.4570  175.0390  137.1980 C   0  0  2  0  0  0  0  0  0  0  0  0
  185.6070  173.6180  137.4640 C   0  0  0  0  0  0  0  0  0  0  0  0
  186.5820  174.5260  134.9860 O   0  0  0  0  0  1  0  0  0  0  0  0
  184.9240  172.6090  137.5260 O   0  0  0  0  0  0  0  0  0  0  0  0
  189.4180  173.6420  134.5940 O   0  0  0  0  0  0  0  0  0  0  0  0
  188.9790  174.1990  135.5880 C   0  0  0  0  0  0  0  0  0  0  0  0
  187.3410  178.3990  142.0180 C   0  0  2  0  0  0  0  0  0  0  0  0
  187.8700  179.6100  141.4260 N   0  0  0  0  0  2  0  0  0  0  0  0
  188.0270  177.1930  143.9560 C   0  0  0  0  0  2  0  0  0  0  0  0
  185.1630  179.7250  142.3010 C   0  0  0  0  0  2  0  0  0  0  0  0
  188.2780  177.9440  139.9970 C   0  0  1  0  0  3  0  0  0  0  0  0
  185.9820  178.5040  142.5860 C   0  0  0  0  0  0  0  0  0  0  0  0
  184.9160  177.5300  142.1550 C   0  0  0  0  0  2  0  0  0  0  0  0
  187.1690  178.4210  143.5830 C   0  0  0  0  0  0  0  0  0  0  0  0
  187.6520  177.2170  141.1590 C   0  0  0  0  0  2  0  0  0  0  0  0
  188.7260  179.2100  140.4380 O   0  0  0  0  0  0  0  0  0  0  0  0
  186.6470  177.2630  144.4550 C   0  0  0  0  0  2  0  0  0  0  0  0
  184.0510  178.7630  141.8450 C   0  0  0  0  0  2  0  0  0  0  0  0
  187.0380  178.2140  136.5850 C   0  0  0  0  0  1  0  0  0  0  0  0
  186.0200  177.1240  136.6820 C   0  0  0  0  0  0  0  0  0  0  0  0
  184.9710  177.2470  136.0710 O   0  0  0  0  0  0  0  0  0  0  0  0
  190.8150  177.3950  139.8920 C   0  0  1  0  0  3  0  0  0  0  0  0
  191.0370  176.7990  141.2740 C   0  0  0  0  0  1  0  0  0  0  0  0
  191.8290  176.8470  138.8970 C   0  0  0  0  0  2  0  0  0  0  0  0
  193.1170  176.9520  139.4220 O   0  0  0  0  0  1  0  0  0  0  0  0
  1 11  1  6  0  0  0
  2 29  1  6  0  0  0
  2  9  1  0  0  0  0
  3  7  2  0  0  0  0
  4 12  1  6  0  0  0
  4 10  1  0  0  0  0
  4  1  1  0  0  0  0
  5  3  2  0  0  0  0
  7 31  1  0  0  0  0
  8  6  1  1  0  0  0
  8  5  1  0  0  0  0
 10  1  1  0  0  0  0
 10  2  1  0  0  0  0
 10  5  1  1  0  0  0
 11 13  2  0  0  0  0
 11  9  1  0  0  0  0
 14 15  2  0  0  0  0
 15  4  1  0  0  0  0
 15  8  1  0  0  0  0
 16 24  1  6  0  0  0
 16 21  1  0  0  0  0
 16 23  1  0  0  0  0
 17 16  1  0  0  0  0
 18 26  1  0  0  0  0
 19 21  1  0  0  0  0
 20  7  1  1  0  0  0
 20 25  1  0  0  0  0
 20 24  1  0  0  0  0
 21 23  1  0  0  0  0
 22 21  1  0  0  0  0
 23 18  1  0  0  0  0
 23 26  1  0  0  0  0
 25 17  1  0  0  0  0
 27 22  1  0  0  0  0
 27 19  1  0  0  0  0
 28 29  1  0  0  0  0
 30 29  2  0  0  0  0
 31 32  1  1  0  0  0
 33 34  1  0  0  0  0
 33 31  1  0  0  0  0
M  END
>  <MODEL>
7

>  <REMARK>
 VINA RESULT:      -4.3      2.522      4.367
  Name = 
  4 active torsions:
  status: ('A' for Active; 'I' for Inactive)
    1  A    between atoms: C_3  and  C_9
    2  A    between atoms: C_8  and  C_13
    3  A    between atoms: C_8  and  C_18
    4  A    between atoms: C_17  and  C_18
                            x       y       z     vdW  Elec       q    Type
                         _______ _______ _______ _____ _____    ______ ____

>  <TORSDO>
F 4

$$$$
=
 OpenBabel11062415433D

 34 40  0  0  1  0  0  0  0  0999 V2000
  188.4400  175.9250  143.9140 C   0  0  1  0  0  3  0  0  0  0  0  0
  188.8330  177.7500  142.2510 C   0  0  1  0  0  3  0  0  0  0  0  0
  185.8620  178.2440  142.9150 C   0  0  0  0  0  0  0  0  0  0  0  0
  188.7540  177.0900  144.8570 C   0  0  2  0  0  0  0  0  0  0  0  0
  186.6750  177.7870  143.8280 C   0  0  0  0  0  0  0  0  0  0  0  0
  185.4170  177.1420  145.7170 O   0  0  0  0  0  1  0  0  0  0  0  0
  185.0630  178.6960  141.9850 C   0  0  0  0  0  0  0  0  0  0  0  0
  186.4450  177.9830  145.2850 C   0  0  1  0  0  3  0  0  0  0  0  0
  189.9070  176.6960  142.0190 C   0  0  0  0  0  2  0  0  0  0  0  0
  188.0670  177.3450  143.5270 C   0  0  2  0  0  0  0  0  0  0  0  0
  189.5730  175.6230  142.9950 C   0  0  0  0  0  0  0  0  0  0  0  0
  190.0460  177.6260  144.9140 O   0  0  0  0  0  1  0  0  0  0  0  0
  190.1860  174.5690  143.0390 O   0  0  0  0  0  0  0  0  0  0  0  0
  187.9650  177.5190  147.0670 O   0  0  0  0  0  0  0  0  0  0  0  0
  187.7450  177.5300  145.8670 C   0  0  0  0  0  0  0  0  0  0  0  0
  185.4030  178.2130  138.4880 C   0  0  2  0  0  0  0  0  0  0  0  0
  185.0120  179.6040  138.5820 N   0  0  0  0  0  2  0  0  0  0  0  0
  184.1090  176.2670  138.0230 C   0  0  0  0  0  2  0  0  0  0  0  0
  186.9170  178.9750  136.5620 C   0  0  0  0  0  2  0  0  0  0  0  0
  185.6270  178.9530  140.6260 C   0  0  1  0  0  3  0  0  0  0  0  0
  186.2900  177.8710  137.3590 C   0  0  0  0  0  0  0  0  0  0  0  0
  187.5860  177.1480  137.6200 C   0  0  0  0  0  2  0  0  0  0  0  0
  184.8090  177.4160  137.2670 C   0  0  0  0  0  0  0  0  0  0  0  0
  185.7480  177.6740  139.8390 C   0  0  0  0  0  2  0  0  0  0  0  0
  184.8090  179.8560  139.9100 O   0  0  0  0  0  0  0  0  0  0  0  0
  185.0530  175.9280  136.9500 C   0  0  0  0  0  2  0  0  0  0  0  0
  188.2620  178.2690  136.8130 C   0  0  0  0  0  2  0  0  0  0  0  0
  190.5680  179.5510  143.0610 C   0  0  0  0  0  1  0  0  0  0  0  0
  189.3860  179.1530  142.2360 C   0  0  0  0  0  0  0  0  0  0  0  0
  188.8330  180.0040  141.5590 O   0  0  0  0  0  0  0  0  0  0  0  0
  183.6120  178.9740  142.2670 C   0  0  1  0  0  3  0  0  0  0  0  0
  182.7110  178.0140  141.5050 C   0  0  0  0  0  1  0  0  0  0  0  0
  183.3240  178.9180  143.7600 C   0  0  0  0  0  2  0  0  0  0  0  0
  181.9500  178.8060  143.9760 O   0  0  0  0  0  1  0  0  0  0  0  0
  1 11  1  6  0  0  0
  1  4  1  0  0  0  0
  2 29  1  1  0  0  0
  2 10  1  0  0  0  0
  3  5  2  0  0  0  0
  4 12  1  1  0  0  0
  4 15  1  0  0  0  0
  5  8  1  0  0  0  0
  7 31  1  0  0  0  0
  7  3  2  0  0  0  0
  8  6  1  1  0  0  0
  8 15  1  0  0  0  0
  9  2  1  0  0  0  0
  9 11  1  0  0  0  0
 10  5  1  1  0  0  0
 10  1  1  0  0  0  0
 10  4  1  0  0  0  0
 11 13  2  0  0  0  0
 15 14  2  0  0  0  0
 16 17  1  0  0  0  0
 16 24  1  1  0  0  0
 17 25  1  0  0  0  0
 19 27  1  0  0  0  0
 19 21  1  0  0  0  0
 20  7  1  1  0  0  0
 21 22  1  0  0  0  0
 21 16  1  0  0  0  0
 23 21  1  0  0  0  0
 23 18  1  0  0  0  0
 23 16  1  0  0  0  0
 24 20  1  0  0  0  0
 25 20  1  0  0  0  0
 26 23  1  0  0  0  0
 26 18  1  0  0  0  0
 27 22  1  0  0  0  0
 29 28  1  0  0  0  0
 30 29  2  0  0  0  0
 31 32  1  6  0  0  0
 31 33  1  0  0  0  0
 33 34  1  0  0  0  0
M  END
>  <MODEL>
8

>  <REMARK>
 VINA RESULT:      -4.3      2.914      7.825
  Name = 
  4 active torsions:
  status: ('A' for Active; 'I' for Inactive)
    1  A    between atoms: C_3  and  C_9
    2  A    between atoms: C_8  and  C_13
    3  A    between atoms: C_8  and  C_18
    4  A    between atoms: C_17  and  C_18
                            x       y       z     vdW  Elec       q    Type
                         _______ _______ _______ _____ _____    ______ ____

>  <TORSDO>
F 4

$$$$
=
 OpenBabel11062415433D

 34 40  0  0  1  0  0  0  0  0999 V2000
  187.0830  176.3700  135.5210 C   0  0  1  0  0  3  0  0  0  0  0  0
  186.4390  178.0850  137.2220 C   0  0  1  0  0  3  0  0  0  0  0  0
  183.7870  176.5300  136.9810 C   0  0  0  0  0  0  0  0  0  0  0  0
  187.3280  175.5800  136.8110 C   0  0  2  0  0  0  0  0  0  0  0  0
  184.9280  175.9140  136.8400 C   0  0  0  0  0  0  0  0  0  0  0  0
  184.5230  173.7220  136.0680 O   0  0  0  0  0  1  0  0  0  0  0  0
  182.6540  177.1670  137.1200 C   0  0  0  0  0  0  0  0  0  0  0  0
  185.0990  174.4590  137.1040 C   0  0  1  0  0  3  0  0  0  0  0  0
  187.6430  178.6340  136.4690 C   0  0  0  0  0  2  0  0  0  0  0  0
  186.2330  176.6320  136.7510 C   0  0  2  0  0  0  0  0  0  0  0  0
  187.9280  177.5950  135.4420 C   0  0  0  0  0  0  0  0  0  0  0  0
  188.3750  175.9340  137.6690 O   0  0  0  0  0  1  0  0  0  0  0  0
  188.7930  177.7370  134.5940 O   0  0  0  0  0  0  0  0  0  0  0  0
  187.1470  173.2380  137.2230 O   0  0  0  0  0  0  0  0  0  0  0  0
  186.5850  174.3100  137.0640 C   0  0  0  0  0  0  0  0  0  0  0  0
  181.5080  180.2270  138.4970 C   0  0  2  0  0  0  0  0  0  0  0  0
  182.8310  180.0940  139.0710 N   0  0  0  0  0  2  0  0  0  0  0  0
  179.3660  179.7120  139.4050 C   0  0  0  0  0  2  0  0  0  0  0  0
  182.0360  182.7340  138.3610 C   0  0  0  0  0  2  0  0  0  0  0  0
  182.6930  178.6360  137.3870 C   0  0  1  0  0  3  0  0  0  0  0  0
  181.0520  181.6100  138.2520 C   0  0  0  0  0  0  0  0  0  0  0  0
  180.5600  182.0010  136.8830 C   0  0  0  0  0  2  0  0  0  0  0  0
  180.4120  180.8460  139.4420 C   0  0  0  0  0  0  0  0  0  0  0  0
  181.3040  179.2190  137.4130 C   0  0  0  0  0  2  0  0  0  0  0  0
  183.3230  178.9000  138.6240 O   0  0  0  0  0  0  0  0  0  0  0  0
  178.9310  181.0770  139.0850 C   0  0  0  0  0  2  0  0  0  0  0  0
  181.5650  183.1630  136.9600 C   0  0  0  0  0  2  0  0  0  0  0  0
  187.8590  178.2090  139.4300 C   0  0  0  0  0  1  0  0  0  0  0  0
  186.5500  178.2830  138.7140 C   0  0  0  0  0  0  0  0  0  0  0  0
  185.5360  178.4720  139.3660 O   0  0  0  0  0  0  0  0  0  0  0  0
  181.3360  176.4480  137.0320 C   0  0  1  0  0  3  0  0  0  0  0  0
  181.2760  175.5590  135.8000 C   0  0  0  0  0  1  0  0  0  0  0  0
  181.0660  175.6420  138.2950 C   0  0  0  0  0  2  0  0  0  0  0  0
  181.4590  176.3710  139.4180 O   0  0  0  0  0  1  0  0  0  0  0  0
  1 11  1  1  0  0  0
  1 10  1  0  0  0  0
  1  4  1  0  0  0  0
  2 29  1  1  0  0  0
  3  7  2  0  0  0  0
  4 15  1  0  0  0  0
  4 12  1  1  0  0  0
  5  3  2  0  0  0  0
  5  8  1  0  0  0  0
  8  6  1  6  0  0  0
  9  2  1  0  0  0  0
 10  4  1  0  0  0  0
 10  5  1  6  0  0  0
 10  2  1  0  0  0  0
 11  9  1  0  0  0  0
 13 11  2  0  0  0  0
 15  8  1  0  0  0  0
 15 14  2  0  0  0  0
 16 24  1  6  0  0  0
 16 17  1  0  0  0  0
 16 23  1  0  0  0  0
 18 23  1  0  0  0  0
 20  7  1  1  0  0  0
 20 24  1  0  0  0  0
 20 25  1  0  0  0  0
 21 19  1  0  0  0  0
 21 16  1  0  0  0  0
 21 23  1  0  0  0  0
 22 27  1  0  0  0  0
 22 21  1  0  0  0  0
 25 17  1  0  0  0  0
 26 18  1  0  0  0  0
 26 23  1  0  0  0  0
 27 19  1  0  0  0  0
 29 30  2  0  0  0  0
 29 28  1  0  0  0  0
 31 32  1  6  0  0  0
 31  7  1  0  0  0  0
 31 33  1  0  0  0  0
 33 34  1  0  0  0  0
M  END
>  <MODEL>
9

>  <REMARK>
 VINA RESULT:      -4.2      2.930      7.465
  Name = 
  4 active torsions:
  status: ('A' for Active; 'I' for Inactive)
    1  A    between atoms: C_3  and  C_9
    2  A    between atoms: C_8  and  C_13
    3  A    between atoms: C_8  and  C_18
    4  A    between atoms: C_17  and  C_18
                            x       y       z     vdW  Elec       q    Type
                         _______ _______ _______ _____ _____    ______ ____

>  <TORSDO>
F 4

$$$$
