=
 OpenBabel11062416053D

 43 48  0  0  1  0  0  0  0  0999 V2000
  182.0460  179.3820  142.7580 C   0  0  1  0  0  3  0  0  0  0  0  0
  183.9720  178.0850  141.9120 C   0  0  0  0  0  2  0  0  0  0  0  0
  182.5390  178.4980  141.6210 C   0  0  2  0  0  3  0  0  0  0  0  0
  184.1530  178.2970  143.4010 C   0  0  2  0  0  3  0  0  0  0  0  0
  181.7530  178.5530  143.9920 C   0  0  0  0  0  2  0  0  0  0  0  0
  183.0810  179.2710  143.8650 C   0  0  2  0  0  3  0  0  0  0  0  0
  182.3620  179.0770  140.3410 O   0  0  0  0  0  0  0  0  0  0  0  0
  178.9800  178.2700  140.4330 C   0  0  0  0  0  2  0  0  0  0  0  0
  181.4100  178.3390  139.6020 C   0  0  2  0  0  3  0  0  0  0  0  0
  180.7530  179.1980  138.5050 C   0  0  1  0  0  3  0  0  0  0  0  0
  180.3810  180.5730  139.0320 C   0  0  0  0  0  0  0  0  0  0  0  0
  179.4950  180.7140  140.2200 C   0  0  0  0  0  0  0  0  0  0  0  0
  180.9270  181.6510  138.5210 C   0  0  0  0  0  0  0  0  0  0  0  0
  179.2500  181.8660  140.6730 O   0  0  0  0  0  0  0  0  0  0  0  0
  180.3900  177.6930  140.5500 C   0  0  2  0  0  3  0  0  0  0  0  0
  178.9320  179.6170  140.8900 O   0  0  0  0  0  0  0  0  0  0  0  0
  181.4430  182.6670  138.0390 O   0  0  0  0  0  0  0  0  0  0  0  0
  181.5530  179.1760  137.1910 C   0  0  2  0  0  3  0  0  0  0  0  0
  182.3130  177.5740  135.6130 C   0  0  0  0  0  2  0  0  0  0  0  0
  180.6870  179.2220  136.0870 O   0  0  0  0  0  0  0  0  0  0  0  0
  182.3720  177.9060  137.0730 C   0  0  0  0  0  2  0  0  0  0  0  0
  181.4040  178.6330  135.0360 C   0  0  0  0  0  2  0  0  0  0  0  0
  180.3440  176.2520  140.2950 C   0  0  0  0  0  0  0  0  0  0  0  0
  180.3010  175.0650  140.0830 C   0  0  0  0  0  3  0  0  0  0  0  0
  185.5280  178.8770  143.6870 C   0  0  0  0  0  2  0  0  0  0  0  0
  187.6390  177.5220  143.5130 C   0  0  0  0  0  3  0  0  0  0  0  0
  186.4860  177.8150  144.1360 C   0  0  0  0  0  3  0  0  0  0  0  0
  189.9950  176.5060  138.4200 C   0  0  0  0  0  0  0  0  0  0  0  0
  188.8540  179.1150  137.8180 C   0  0  0  0  0  2  0  0  0  0  0  0
  189.8410  176.9840  137.0870 N   0  0  0  0  0  2  0  0  0  0  0  0
  188.1690  178.1940  142.2670 C   0  0  1  0  0  3  0  0  0  0  0  0
  187.5400  178.1470  139.7480 C   0  0  0  0  0  0  0  0  0  0  0  0
  189.9850  177.5130  139.5330 C   0  0  2  0  0  3  0  0  0  0  0  0
  189.9160  176.8760  140.9240 C   0  0  0  0  0  2  0  0  0  0  0  0
  189.6790  177.9550  141.9800 C   0  0  2  0  0  3  0  0  0  0  0  0
  188.9000  178.5900  139.2750 C   0  0  1  0  0  3  0  0  0  0  0  0
  189.8310  178.4230  136.8580 C   0  0  0  0  0  2  0  0  0  0  0  0
  190.1490  175.2750  138.6380 O   0  0  0  0  0  0  0  0  0  0  0  0
  186.6290  177.8990  138.9130 O   0  0  0  0  0  0  0  0  0  0  0  0
  187.2750  177.9190  141.1370 N   0  0  0  0  0  2  0  0  0  0  0  0
  191.1330  179.1170  143.6670 C   0  0  0  0  0  1  0  0  0  0  0  0
  191.7230  176.8400  142.9560 C   0  0  0  0  0  1  0  0  0  0  0  0
  190.5610  177.7810  143.2270 C   0  0  0  0  0  3  0  0  0  0  0  0
  1  6  1  0  0  0  0
  1  5  1  1  0  0  0
  2  4  1  0  0  0  0
  3  7  1  6  0  0  0
  3  2  1  0  0  0  0
  3  1  1  0  0  0  0
  4 25  1  6  0  0  0
  4  6  1  0  0  0  0
  6  5  1  1  0  0  0
  8 15  1  0  0  0  0
  8 16  1  0  0  0  0
  9  7  1  1  0  0  0
  9 15  1  0  0  0  0
 10 11  1  1  0  0  0
 10  9  1  0  0  0  0
 11 12  1  0  0  0  0
 12 14  2  0  0  0  0
 12 16  1  0  0  0  0
 13 11  2  0  0  0  0
 15 23  1  6  0  0  0
 17 13  2  0  0  0  0
 18 21  1  6  0  0  0
 18 10  1  0  0  0  0
 19 21  1  0  0  0  0
 20 18  1  0  0  0  0
 22 19  1  0  0  0  0
 22 20  1  0  0  0  0
 24 23  3  0  0  0  0
 25 27  1  0  0  0  0
 26 27  2  0  0  0  0
 28 38  2  0  0  0  0
 28 33  1  0  0  0  0
 30 28  1  0  0  0  0
 31 26  1  1  0  0  0
 32 40  1  0  0  0  0
 33 34  1  1  0  0  0
 34 35  1  0  0  0  0
 35 31  1  0  0  0  0
 35 43  1  1  0  0  0
 36 29  1  6  0  0  0
 36 33  1  0  0  0  0
 36 32  1  0  0  0  0
 37 30  1  0  0  0  0
 37 29  1  0  0  0  0
 39 32  2  0  0  0  0
 40 31  1  0  0  0  0
 42 43  1  0  0  0  0
 43 41  1  0  0  0  0
M  END
>  <MODEL>
1

>  <REMARK>
 VINA RESULT:      -8.0      0.000      0.000
  Name = 
  8 active torsions:
  status: ('A' for Active; 'I' for Inactive)
    1  A    between atoms: C_3  and  C_16
    2  A    between atoms: C_4  and  C_11
    3  A    between atoms: C_9  and  O_18
    4  A    between atoms: C_13  and  O_18
    5  A    between atoms: C_15  and  C_35
    6  A    between atoms: C_22  and  C_37
    7  A    between atoms: C_25  and  C_29
    8  A    between atoms: C_34  and  C_37
                            x       y       z     vdW  Elec       q    Type
                         _______ _______ _______ _____ _____    ______ ____

>  <TORSDO>
F 8

$$$$
=
 OpenBabel11062416053D

 43 48  0  0  1  0  0  0  0  0999 V2000
  183.4810  176.5370  136.8560 C   0  0  1  0  0  3  0  0  0  0  0  0
  184.9050  178.1610  138.0570 C   0  0  0  0  0  2  0  0  0  0  0  0
  183.4740  177.6990  137.8400 C   0  0  2  0  0  3  0  0  0  0  0  0
  185.6800  177.6300  136.8680 C   0  0  2  0  0  3  0  0  0  0  0  0
  183.7330  177.0320  135.4460 C   0  0  0  0  0  2  0  0  0  0  0  0
  184.8820  176.4840  136.2680 C   0  0  2  0  0  3  0  0  0  0  0  0
  182.7790  177.4170  139.0400 O   0  0  0  0  0  0  0  0  0  0  0  0
  180.1040  178.9270  137.4070 C   0  0  0  0  0  2  0  0  0  0  0  0
  181.7910  178.4000  139.2720 C   0  0  2  0  0  3  0  0  0  0  0  0
  180.5260  177.7950  139.9090 C   0  0  1  0  0  3  0  0  0  0  0  0
  180.1340  176.4960  139.2280 C   0  0  0  0  0  0  0  0  0  0  0  0
  179.8880  176.4560  137.7600 C   0  0  0  0  0  0  0  0  0  0  0  0
  180.1200  175.3700  139.9010 C   0  0  0  0  0  0  0  0  0  0  0  0
  179.6220  175.3520  137.2100 O   0  0  0  0  0  0  0  0  0  0  0  0
  181.5000  179.1730  137.9790 C   0  0  2  0  0  3  0  0  0  0  0  0
  179.9650  177.5910  136.9390 O   0  0  0  0  0  0  0  0  0  0  0  0
  180.1080  174.3080  140.5370 O   0  0  0  0  0  0  0  0  0  0  0  0
  180.6120  177.7490  141.4450 C   0  0  2  0  0  3  0  0  0  0  0  0
  180.9130  179.2690  143.2430 C   0  0  0  0  0  2  0  0  0  0  0  0
  179.3530  177.9870  142.0160 O   0  0  0  0  0  0  0  0  0  0  0  0
  181.5570  178.8120  141.9690 C   0  0  0  0  0  2  0  0  0  0  0  0
  179.6220  178.4880  143.2980 C   0  0  0  0  0  2  0  0  0  0  0  0
  181.6740  180.6060  138.2270 C   0  0  0  0  0  0  0  0  0  0  0  0
  181.8170  181.7880  138.4260 C   0  0  0  0  0  3  0  0  0  0  0  0
  187.0430  177.1260  137.3120 C   0  0  0  0  0  2  0  0  0  0  0  0
  188.7630  178.4860  138.5430 C   0  0  0  0  0  3  0  0  0  0  0  0
  188.0240  178.2510  137.4460 C   0  0  0  0  0  3  0  0  0  0  0  0
  190.3030  178.5530  144.0330 C   0  0  0  0  0  0  0  0  0  0  0  0
  188.1360  176.6220  144.2500 C   0  0  0  0  0  2  0  0  0  0  0  0
  189.7200  178.1950  145.2830 N   0  0  0  0  0  2  0  0  0  0  0  0
  188.7360  177.6760  139.8190 C   0  0  1  0  0  3  0  0  0  0  0  0
  187.7050  178.0050  142.1800 C   0  0  0  0  0  0  0  0  0  0  0  0
  190.1120  177.6170  142.8760 C   0  0  2  0  0  3  0  0  0  0  0  0
  190.5670  178.2100  141.5380 C   0  0  0  0  0  2  0  0  0  0  0  0
  190.1330  177.2990  140.3900 C   0  0  2  0  0  3  0  0  0  0  0  0
  188.6640  177.0640  142.8630 C   0  0  1  0  0  3  0  0  0  0  0  0
  189.1020  176.8820  145.4140 C   0  0  0  0  0  2  0  0  0  0  0  0
  190.9670  179.6180  143.9260 O   0  0  0  0  0  0  0  0  0  0  0  0
  186.8230  178.6070  142.8500 O   0  0  0  0  0  0  0  0  0  0  0  0
  187.8240  178.3000  140.7830 N   0  0  0  0  0  2  0  0  0  0  0  0
  191.0670  175.7460  138.6510 C   0  0  0  0  0  1  0  0  0  0  0  0
  192.6160  177.1260  139.9690 C   0  0  0  0  0  1  0  0  0  0  0  0
  191.2340  177.0900  139.3380 C   0  0  0  0  0  3  0  0  0  0  0  0
  1  5  1  6  0  0  0
  1  3  1  0  0  0  0
  3  2  1  0  0  0  0
  3  7  1  1  0  0  0
  4 25  1  1  0  0  0
  4  2  1  0  0  0  0
  6  5  1  6  0  0  0
  6  1  1  0  0  0  0
  6  4  1  0  0  0  0
  8 15  1  0  0  0  0
  9  7  1  6  0  0  0
  9 10  1  0  0  0  0
 10 11  1  6  0  0  0
 10 18  1  0  0  0  0
 11 13  2  0  0  0  0
 12 11  1  0  0  0  0
 13 17  2  0  0  0  0
 14 12  2  0  0  0  0
 15 23  1  1  0  0  0
 15  9  1  0  0  0  0
 16  8  1  0  0  0  0
 16 12  1  0  0  0  0
 18 21  1  1  0  0  0
 18 20  1  0  0  0  0
 19 22  1  0  0  0  0
 20 22  1  0  0  0  0
 21 19  1  0  0  0  0
 23 24  3  0  0  0  0
 25 27  1  0  0  0  0
 27 26  2  0  0  0  0
 28 30  1  0  0  0  0
 29 37  1  0  0  0  0
 30 37  1  0  0  0  0
 31 26  1  6  0  0  0
 31 35  1  0  0  0  0
 31 40  1  0  0  0  0
 32 39  2  0  0  0  0
 32 36  1  0  0  0  0
 33 34  1  6  0  0  0
 33 28  1  0  0  0  0
 35 43  1  6  0  0  0
 35 34  1  0  0  0  0
 36 33  1  0  0  0  0
 36 29  1  1  0  0  0
 38 28  2  0  0  0  0
 40 32  1  0  0  0  0
 41 43  1  0  0  0  0
 43 42  1  0  0  0  0
M  END
>  <MODEL>
2

>  <REMARK>
 VINA RESULT:      -7.8      2.338      5.605
  Name = 
  8 active torsions:
  status: ('A' for Active; 'I' for Inactive)
    1  A    between atoms: C_3  and  C_16
    2  A    between atoms: C_4  and  C_11
    3  A    between atoms: C_9  and  O_18
    4  A    between atoms: C_13  and  O_18
    5  A    between atoms: C_15  and  C_35
    6  A    between atoms: C_22  and  C_37
    7  A    between atoms: C_25  and  C_29
    8  A    between atoms: C_34  and  C_37
                            x       y       z     vdW  Elec       q    Type
                         _______ _______ _______ _____ _____    ______ ____

>  <TORSDO>
F 8

$$$$
=
 OpenBabel11062416053D

 43 48  0  0  1  0  0  0  0  0999 V2000
  183.4500  179.3170  143.3580 C   0  0  1  0  0  3  0  0  0  0  0  0
  184.5990  178.0680  141.5620 C   0  0  0  0  0  2  0  0  0  0  0  0
  183.2410  178.4920  142.0950 C   0  0  2  0  0  3  0  0  0  0  0  0
  185.5490  178.2050  142.7350 C   0  0  2  0  0  3  0  0  0  0  0  0
  183.8360  178.4270  144.5210 C   0  0  0  0  0  2  0  0  0  0  0  0
  184.9120  179.1520  143.7390 C   0  0  2  0  0  3  0  0  0  0  0  0
  182.4260  179.1330  141.1320 O   0  0  0  0  0  0  0  0  0  0  0  0
  179.3360  180.6900  141.4930 C   0  0  0  0  0  2  0  0  0  0  0  0
  181.0700  178.7990  141.3430 C   0  0  2  0  0  3  0  0  0  0  0  0
  180.3300  178.5570  140.0140 C   0  0  1  0  0  3  0  0  0  0  0  0
  180.6820  179.6210  138.9880 C   0  0  0  0  0  0  0  0  0  0  0  0
  180.4760  181.0630  139.2930 C   0  0  0  0  0  0  0  0  0  0  0  0
  181.2800  179.2910  137.8670 C   0  0  0  0  0  0  0  0  0  0  0  0
  180.8310  181.9280  138.4460 O   0  0  0  0  0  0  0  0  0  0  0  0
  180.3940  179.8610  142.2210 C   0  0  2  0  0  3  0  0  0  0  0  0
  179.9240  181.5210  140.4990 O   0  0  0  0  0  0  0  0  0  0  0  0
  181.8440  178.9810  136.8100 O   0  0  0  0  0  0  0  0  0  0  0  0
  180.4490  177.0990  139.5380 C   0  0  2  0  0  3  0  0  0  0  0  0
  179.6580  174.9590  140.1910 C   0  0  0  0  0  2  0  0  0  0  0  0
  179.3760  176.7670  138.6960 O   0  0  0  0  0  0  0  0  0  0  0  0
  180.4200  176.1390  140.7100 C   0  0  0  0  0  2  0  0  0  0  0  0
  179.2500  175.3740  138.7970 C   0  0  0  0  0  2  0  0  0  0  0  0
  179.7800  179.2060  143.3790 C   0  0  0  0  0  0  0  0  0  0  0  0
  179.2770  178.6710  144.3360 C   0  0  0  0  0  3  0  0  0  0  0  0
  186.8790  178.7730  142.2710 C   0  0  0  0  0  2  0  0  0  0  0  0
  188.7730  177.3830  141.3740 C   0  0  0  0  0  3  0  0  0  0  0  0
  187.9760  177.7580  142.3870 C   0  0  0  0  0  3  0  0  0  0  0  0
  187.1220  176.0370  136.0830 C   0  0  0  0  0  0  0  0  0  0  0  0
  187.0140  178.9330  135.8110 C   0  0  0  0  0  2  0  0  0  0  0  0
  186.4400  176.6790  135.0090 N   0  0  0  0  0  2  0  0  0  0  0  0
  188.7070  177.9020  139.9560 C   0  0  1  0  0  3  0  0  0  0  0  0
  186.7940  178.4010  138.2710 C   0  0  0  0  0  0  0  0  0  0  0  0
  188.1590  176.8260  136.8280 C   0  0  2  0  0  3  0  0  0  0  0  0
  188.6510  176.1290  138.1000 C   0  0  0  0  0  2  0  0  0  0  0  0
  189.5230  177.0840  138.9150 C   0  0  2  0  0  3  0  0  0  0  0  0
  187.6710  178.2810  137.0520 C   0  0  1  0  0  3  0  0  0  0  0  0
  186.8820  178.0050  134.5960 C   0  0  0  0  0  2  0  0  0  0  0  0
  186.8610  174.8400  136.3740 O   0  0  0  0  0  0  0  0  0  0  0  0
  185.5650  178.6520  138.1440 O   0  0  0  0  0  0  0  0  0  0  0  0
  187.3100  178.1540  139.5850 N   0  0  0  0  0  2  0  0  0  0  0  0
  191.7630  177.4680  139.9840 C   0  0  0  0  0  1  0  0  0  0  0  0
  191.5110  175.6220  138.3810 C   0  0  0  0  0  1  0  0  0  0  0  0
  190.7970  176.4200  139.4600 C   0  0  0  0  0  3  0  0  0  0  0  0
  1  6  1  0  0  0  0
  1  5  1  1  0  0  0
  2  3  1  0  0  0  0
  2  4  1  0  0  0  0
  3  7  1  6  0  0  0
  3  1  1  0  0  0  0
  4 25  1  6  0  0  0
  4  6  1  0  0  0  0
  6  5  1  1  0  0  0
  8 15  1  0  0  0  0
  9  7  1  6  0  0  0
  9 15  1  0  0  0  0
 10 11  1  6  0  0  0
 10  9  1  0  0  0  0
 11 12  1  0  0  0  0
 12 16  1  0  0  0  0
 13 11  2  0  0  0  0
 14 12  2  0  0  0  0
 15 23  1  1  0  0  0
 16  8  1  0  0  0  0
 17 13  2  0  0  0  0
 18 10  1  0  0  0  0
 18 21  1  1  0  0  0
 19 21  1  0  0  0  0
 20 22  1  0  0  0  0
 20 18  1  0  0  0  0
 22 19  1  0  0  0  0
 23 24  3  0  0  0  0
 25 27  1  0  0  0  0
 26 27  2  0  0  0  0
 28 38  2  0  0  0  0
 28 33  1  0  0  0  0
 30 28  1  0  0  0  0
 31 26  1  1  0  0  0
 32 40  1  0  0  0  0
 33 36  1  0  0  0  0
 33 34  1  1  0  0  0
 34 35  1  0  0  0  0
 35 43  1  1  0  0  0
 35 31  1  0  0  0  0
 36 29  1  6  0  0  0
 36 32  1  0  0  0  0
 37 30  1  0  0  0  0
 37 29  1  0  0  0  0
 39 32  2  0  0  0  0
 40 31  1  0  0  0  0
 42 43  1  0  0  0  0
 43 41  1  0  0  0  0
M  END
>  <MODEL>
3

>  <REMARK>
 VINA RESULT:      -7.0      1.841      3.131
  Name = 
  8 active torsions:
  status: ('A' for Active; 'I' for Inactive)
    1  A    between atoms: C_3  and  C_16
    2  A    between atoms: C_4  and  C_11
    3  A    between atoms: C_9  and  O_18
    4  A    between atoms: C_13  and  O_18
    5  A    between atoms: C_15  and  C_35
    6  A    between atoms: C_22  and  C_37
    7  A    between atoms: C_25  and  C_29
    8  A    between atoms: C_34  and  C_37
                            x       y       z     vdW  Elec       q    Type
                         _______ _______ _______ _____ _____    ______ ____

>  <TORSDO>
F 8

$$$$
=
 OpenBabel11062416053D

 43 48  0  0  1  0  0  0  0  0999 V2000
  183.0500  179.4800  143.3180 C   0  0  1  0  0  3  0  0  0  0  0  0
  184.0290  178.0680  141.5410 C   0  0  0  0  0  2  0  0  0  0  0  0
  182.7280  178.6080  142.1120 C   0  0  2  0  0  3  0  0  0  0  0  0
  185.0410  178.2010  142.6600 C   0  0  2  0  0  3  0  0  0  0  0  0
  183.4350  178.6250  144.5080 C   0  0  0  0  0  2  0  0  0  0  0  0
  184.5150  179.2380  143.6410 C   0  0  2  0  0  3  0  0  0  0  0  0
  181.9100  179.2520  141.1540 O   0  0  0  0  0  0  0  0  0  0  0  0
  178.9780  181.0420  141.7030 C   0  0  0  0  0  2  0  0  0  0  0  0
  180.5470  179.0230  141.4460 C   0  0  2  0  0  3  0  0  0  0  0  0
  179.7120  178.8480  140.1630 C   0  0  1  0  0  3  0  0  0  0  0  0
  180.0830  179.8870  139.1190 C   0  0  0  0  0  0  0  0  0  0  0  0
  180.0090  181.3400  139.4380 C   0  0  0  0  0  0  0  0  0  0  0  0
  180.5850  179.5190  137.9640 C   0  0  0  0  0  0  0  0  0  0  0  0
  180.3790  182.1790  138.5720 O   0  0  0  0  0  0  0  0  0  0  0  0
  180.0090  180.1290  142.3650 C   0  0  2  0  0  3  0  0  0  0  0  0
  179.5680  181.8310  140.6760 O   0  0  0  0  0  0  0  0  0  0  0  0
  181.0590  179.1720  136.8750 O   0  0  0  0  0  0  0  0  0  0  0  0
  179.6880  177.3880  139.6790 C   0  0  2  0  0  3  0  0  0  0  0  0
  180.9970  175.4240  139.9260 C   0  0  0  0  0  2  0  0  0  0  0  0
  179.0490  176.5670  140.6210 O   0  0  0  0  0  0  0  0  0  0  0  0
  181.0930  176.8540  139.4890 C   0  0  0  0  0  2  0  0  0  0  0  0
  179.5700  175.2840  140.4000 C   0  0  0  0  0  2  0  0  0  0  0  0
  179.4170  179.5170  143.5570 C   0  0  0  0  0  0  0  0  0  0  0  0
  178.9330  179.0090  144.5370 C   0  0  0  0  0  3  0  0  0  0  0  0
  186.3810  178.6550  142.1070 C   0  0  0  0  0  2  0  0  0  0  0  0
  188.6260  177.5270  142.0080 C   0  0  0  0  0  3  0  0  0  0  0  0
  187.5090  177.8500  142.6790 C   0  0  0  0  0  3  0  0  0  0  0  0
  190.2010  175.4000  136.9570 C   0  0  0  0  0  0  0  0  0  0  0  0
  188.9150  177.8230  135.9850 C   0  0  0  0  0  2  0  0  0  0  0  0
  189.8330  175.5760  135.5910 N   0  0  0  0  0  2  0  0  0  0  0  0
  188.9420  177.9050  140.5790 C   0  0  1  0  0  3  0  0  0  0  0  0
  187.9370  177.3130  138.2580 C   0  0  0  0  0  0  0  0  0  0  0  0
  190.3360  176.6260  137.8110 C   0  0  2  0  0  3  0  0  0  0  0  0
  190.4960  176.3100  139.3010 C   0  0  0  0  0  2  0  0  0  0  0  0
  190.3960  177.5960  140.1210 C   0  0  2  0  0  3  0  0  0  0  0  0
  189.1970  177.6300  137.4960 C   0  0  1  0  0  3  0  0  0  0  0  0
  189.7520  176.9300  135.0600 C   0  0  0  0  0  2  0  0  0  0  0  0
  190.4180  174.2450  137.4110 O   0  0  0  0  0  0  0  0  0  0  0  0
  186.9160  176.8960  137.6490 O   0  0  0  0  0  0  0  0  0  0  0  0
  187.8930  177.3970  139.6880 N   0  0  0  0  0  2  0  0  0  0  0  0
  192.8550  177.5700  140.6310 C   0  0  0  0  0  1  0  0  0  0  0  0
  191.2930  176.5880  142.2550 C   0  0  0  0  0  1  0  0  0  0  0  0
  191.4630  177.6920  141.2240 C   0  0  0  0  0  3  0  0  0  0  0  0
  1  6  1  0  0  0  0
  1  5  1  1  0  0  0
  2  3  1  0  0  0  0
  2  4  1  0  0  0  0
  3  7  1  6  0  0  0
  3  1  1  0  0  0  0
  4 25  1  6  0  0  0
  4  6  1  0  0  0  0
  6  5  1  1  0  0  0
  8 15  1  0  0  0  0
  9  7  1  6  0  0  0
  9 15  1  0  0  0  0
 10 11  1  6  0  0  0
 10  9  1  0  0  0  0
 11 12  1  0  0  0  0
 12 16  1  0  0  0  0
 13 11  2  0  0  0  0
 14 12  2  0  0  0  0
 15 23  1  1  0  0  0
 16  8  1  0  0  0  0
 17 13  2  0  0  0  0
 18 21  1  1  0  0  0
 18 10  1  0  0  0  0
 18 20  1  0  0  0  0
 19 22  1  0  0  0  0
 21 19  1  0  0  0  0
 22 20  1  0  0  0  0
 23 24  3  0  0  0  0
 25 27  1  0  0  0  0
 26 27  2  0  0  0  0
 28 38  2  0  0  0  0
 28 33  1  0  0  0  0
 30 28  1  0  0  0  0
 31 26  1  1  0  0  0
 32 40  1  0  0  0  0
 33 34  1  1  0  0  0
 34 35  1  0  0  0  0
 35 31  1  0  0  0  0
 35 43  1  1  0  0  0
 36 29  1  6  0  0  0
 36 33  1  0  0  0  0
 36 32  1  0  0  0  0
 37 30  1  0  0  0  0
 37 29  1  0  0  0  0
 39 32  2  0  0  0  0
 40 31  1  0  0  0  0
 41 43  1  0  0  0  0
 43 42  1  0  0  0  0
M  END
>  <MODEL>
4

>  <REMARK>
 VINA RESULT:      -6.8      1.513      2.752
  Name = 
  8 active torsions:
  status: ('A' for Active; 'I' for Inactive)
    1  A    between atoms: C_3  and  C_16
    2  A    between atoms: C_4  and  C_11
    3  A    between atoms: C_9  and  O_18
    4  A    between atoms: C_13  and  O_18
    5  A    between atoms: C_15  and  C_35
    6  A    between atoms: C_22  and  C_37
    7  A    between atoms: C_25  and  C_29
    8  A    between atoms: C_34  and  C_37
                            x       y       z     vdW  Elec       q    Type
                         _______ _______ _______ _____ _____    ______ ____

>  <TORSDO>
F 8

$$$$
=
 OpenBabel11062416053D

 43 48  0  0  1  0  0  0  0  0999 V2000
  181.3380  179.3330  143.2840 C   0  0  1  0  0  3  0  0  0  0  0  0
  183.5420  178.3160  142.8230 C   0  0  0  0  0  2  0  0  0  0  0  0
  182.1880  178.6510  142.2210 C   0  0  2  0  0  3  0  0  0  0  0  0
  183.3280  178.3390  144.3230 C   0  0  2  0  0  3  0  0  0  0  0  0
  180.8440  178.3260  144.3020 C   0  0  0  0  0  2  0  0  0  0  0  0
  182.0760  179.1550  144.6010 C   0  0  2  0  0  3  0  0  0  0  0  0
  182.2680  179.3800  141.0110 O   0  0  0  0  0  0  0  0  0  0  0  0
  179.5060  178.4050  139.1350 C   0  0  0  0  0  2  0  0  0  0  0  0
  181.9490  178.5440  139.9180 C   0  0  2  0  0  3  0  0  0  0  0  0
  182.0800  179.2880  138.5760 C   0  0  1  0  0  3  0  0  0  0  0  0
  181.4660  180.6760  138.6530 C   0  0  0  0  0  0  0  0  0  0  0  0
  180.0450  180.8520  139.0590 C   0  0  0  0  0  0  0  0  0  0  0  0
  182.2100  181.7420  138.4780 C   0  0  0  0  0  0  0  0  0  0  0  0
  179.5770  182.0180  139.1730 O   0  0  0  0  0  0  0  0  0  0  0  0
  180.5650  177.9130  140.1200 C   0  0  2  0  0  3  0  0  0  0  0  0
  179.1930  179.7760  139.3530 O   0  0  0  0  0  0  0  0  0  0  0  0
  182.9110  182.7480  138.3120 O   0  0  0  0  0  0  0  0  0  0  0  0
  183.5090  179.2170  138.0070 C   0  0  2  0  0  3  0  0  0  0  0  0
  185.5920  178.2380  138.5840 C   0  0  0  0  0  2  0  0  0  0  0  0
  183.6690  178.0650  137.2220 O   0  0  0  0  0  0  0  0  0  0  0  0
  184.5350  179.1550  139.1200 C   0  0  0  0  0  2  0  0  0  0  0  0
  185.0440  177.7930  137.2490 C   0  0  0  0  0  2  0  0  0  0  0  0
  180.6810  176.4570  140.0160 C   0  0  0  0  0  0  0  0  0  0  0  0
  180.7760  175.2570  139.9340 C   0  0  0  0  0  3  0  0  0  0  0  0
  184.5200  178.9810  145.0140 C   0  0  0  0  0  2  0  0  0  0  0  0
  186.3140  177.7900  146.3130 C   0  0  0  0  0  3  0  0  0  0  0  0
  185.0250  178.1250  146.1360 C   0  0  0  0  0  3  0  0  0  0  0  0
  190.3450  175.7770  142.8180 C   0  0  0  0  0  0  0  0  0  0  0  0
  190.1950  178.4760  141.7400 C   0  0  0  0  0  2  0  0  0  0  0  0
  190.8950  176.1260  141.5500 N   0  0  0  0  0  2  0  0  0  0  0  0
  187.4660  178.2030  145.4270 C   0  0  1  0  0  3  0  0  0  0  0  0
  187.9960  178.0040  142.8920 C   0  0  0  0  0  0  0  0  0  0  0  0
  190.0820  176.8830  143.7970 C   0  0  2  0  0  3  0  0  0  0  0  0
  189.2760  176.4290  145.0190 C   0  0  0  0  0  2  0  0  0  0  0  0
  188.8550  177.6430  145.8460 C   0  0  2  0  0  3  0  0  0  0  0  0
  189.4880  178.1160  143.0710 C   0  0  1  0  0  3  0  0  0  0  0  0
  191.3080  177.5050  141.3250 C   0  0  0  0  0  2  0  0  0  0  0  0
  190.1090  174.5710  143.0950 O   0  0  0  0  0  0  0  0  0  0  0  0
  187.5060  177.8490  141.7410 O   0  0  0  0  0  0  0  0  0  0  0  0
  187.1130  177.9860  144.0200 N   0  0  0  0  0  2  0  0  0  0  0  0
  189.0410  178.7720  148.0820 C   0  0  0  0  0  1  0  0  0  0  0  0
  190.3670  176.7460  147.6590 C   0  0  0  0  0  1  0  0  0  0  0  0
  189.0470  177.4380  147.3580 C   0  0  0  0  0  3  0  0  0  0  0  0
  1  5  1  1  0  0  0
  1  6  1  0  0  0  0
  2  4  1  0  0  0  0
  3  7  1  6  0  0  0
  3  2  1  0  0  0  0
  3  1  1  0  0  0  0
  4  6  1  0  0  0  0
  4 25  1  1  0  0  0
  6  5  1  1  0  0  0
  8 16  1  0  0  0  0
  8 15  1  0  0  0  0
  9 15  1  0  0  0  0
  9  7  1  1  0  0  0
 10 11  1  1  0  0  0
 10  9  1  0  0  0  0
 11 12  1  0  0  0  0
 12 14  2  0  0  0  0
 12 16  1  0  0  0  0
 13 11  2  0  0  0  0
 15 23  1  6  0  0  0
 17 13  2  0  0  0  0
 18 10  1  0  0  0  0
 18 21  1  1  0  0  0
 19 21  1  0  0  0  0
 20 22  1  0  0  0  0
 20 18  1  0  0  0  0
 22 19  1  0  0  0  0
 24 23  3  0  0  0  0
 25 27  1  0  0  0  0
 27 26  2  0  0  0  0
 28 38  2  0  0  0  0
 28 33  1  0  0  0  0
 30 28  1  0  0  0  0
 31 35  1  0  0  0  0
 31 26  1  1  0  0  0
 32 36  1  0  0  0  0
 32 40  1  0  0  0  0
 33 34  1  1  0  0  0
 34 35  1  0  0  0  0
 35 43  1  1  0  0  0
 36 29  1  6  0  0  0
 36 33  1  0  0  0  0
 37 30  1  0  0  0  0
 37 29  1  0  0  0  0
 39 32  2  0  0  0  0
 40 31  1  0  0  0  0
 43 42  1  0  0  0  0
 43 41  1  0  0  0  0
M  END
>  <MODEL>
5

>  <REMARK>
 VINA RESULT:      -6.7      2.215      2.981
  Name = 
  8 active torsions:
  status: ('A' for Active; 'I' for Inactive)
    1  A    between atoms: C_3  and  C_16
    2  A    between atoms: C_4  and  C_11
    3  A    between atoms: C_9  and  O_18
    4  A    between atoms: C_13  and  O_18
    5  A    between atoms: C_15  and  C_35
    6  A    between atoms: C_22  and  C_37
    7  A    between atoms: C_25  and  C_29
    8  A    between atoms: C_34  and  C_37
                            x       y       z     vdW  Elec       q    Type
                         _______ _______ _______ _____ _____    ______ ____

>  <TORSDO>
F 8

$$$$
=
 OpenBabel11062416053D

 43 48  0  0  1  0  0  0  0  0999 V2000
  182.6940  175.1170  136.5760 C   0  0  1  0  0  3  0  0  0  0  0  0
  184.0140  177.1730  136.9470 C   0  0  0  0  0  2  0  0  0  0  0  0
  182.6530  176.5280  137.1460 C   0  0  2  0  0  3  0  0  0  0  0  0
  184.6810  176.3650  135.8530 C   0  0  2  0  0  3  0  0  0  0  0  0
  182.6630  175.1510  135.0620 C   0  0  0  0  0  2  0  0  0  0  0  0
  183.9870  175.0140  135.7850 C   0  0  2  0  0  3  0  0  0  0  0  0
  182.1870  176.5820  138.4820 O   0  0  0  0  0  0  0  0  0  0  0  0
  179.2160  177.5320  136.9410 C   0  0  0  0  0  2  0  0  0  0  0  0
  181.1740  177.5600  138.6040 C   0  0  2  0  0  3  0  0  0  0  0  0
  180.0530  177.1020  139.5560 C   0  0  1  0  0  3  0  0  0  0  0  0
  179.6630  175.6580  139.2900 C   0  0  0  0  0  0  0  0  0  0  0  0
  179.2220  175.2310  137.9340 C   0  0  0  0  0  0  0  0  0  0  0  0
  179.8200  174.7450  140.2200 C   0  0  0  0  0  0  0  0  0  0  0  0
  178.9610  174.0140  137.7260 O   0  0  0  0  0  0  0  0  0  0  0  0
  180.6560  177.9620  137.2170 C   0  0  2  0  0  3  0  0  0  0  0  0
  179.1080  176.1160  136.8510 O   0  0  0  0  0  0  0  0  0  0  0  0
  179.9680  173.8840  141.0970 O   0  0  0  0  0  0  0  0  0  0  0  0
  180.3520  177.4580  141.0230 C   0  0  2  0  0  3  0  0  0  0  0  0
  180.7930  179.4000  142.3130 C   0  0  0  0  0  2  0  0  0  0  0  0
  179.1690  177.7980  141.6970 O   0  0  0  0  0  0  0  0  0  0  0  0
  181.2860  178.6480  141.1140 C   0  0  0  0  0  2  0  0  0  0  0  0
  179.5770  178.6230  142.7550 C   0  0  0  0  0  2  0  0  0  0  0  0
  180.7630  179.4150  137.0670 C   0  0  0  0  0  0  0  0  0  0  0  0
  180.8470  180.6130  136.9470 C   0  0  0  0  0  3  0  0  0  0  0  0
  186.1540  176.1660  136.1700 C   0  0  0  0  0  2  0  0  0  0  0  0
  187.7260  177.9220  137.0470 C   0  0  0  0  0  3  0  0  0  0  0  0
  186.9090  177.4590  136.0870 C   0  0  0  0  0  3  0  0  0  0  0  0
  191.6230  177.4750  141.1860 C   0  0  0  0  0  0  0  0  0  0  0  0
  189.2960  176.6770  142.7410 C   0  0  0  0  0  2  0  0  0  0  0  0
  191.6310  177.4390  142.6110 N   0  0  0  0  0  2  0  0  0  0  0  0
  188.0240  177.2410  138.3630 C   0  0  1  0  0  3  0  0  0  0  0  0
  188.4610  178.0500  140.7920 C   0  0  0  0  0  0  0  0  0  0  0  0
  190.5700  176.6800  140.4700 C   0  0  2  0  0  3  0  0  0  0  0  0
  190.5050  176.9800  138.9690 C   0  0  0  0  0  2  0  0  0  0  0  0
  189.2720  176.3140  138.3580 C   0  0  2  0  0  3  0  0  0  0  0  0
  189.2090  176.8080  141.2000 C   0  0  1  0  0  3  0  0  0  0  0  0
  190.7200  176.5260  143.2910 C   0  0  0  0  0  2  0  0  0  0  0  0
  192.4900  178.1450  140.5650 O   0  0  0  0  0  0  0  0  0  0  0  0
  188.3030  178.9930  141.6130 O   0  0  0  0  0  0  0  0  0  0  0  0
  187.9900  178.2250  139.4490 N   0  0  0  0  0  2  0  0  0  0  0  0
  189.5970  174.1110  137.1940 C   0  0  0  0  0  1  0  0  0  0  0  0
  190.9060  176.0540  136.4510 C   0  0  0  0  0  1  0  0  0  0  0  0
  189.5650  175.6190  137.0180 C   0  0  0  0  0  3  0  0  0  0  0  0
  1  5  1  6  0  0  0
  1  3  1  0  0  0  0
  2  3  1  0  0  0  0
  3  7  1  1  0  0  0
  4 25  1  1  0  0  0
  4  2  1  0  0  0  0
  6  5  1  6  0  0  0
  6  4  1  0  0  0  0
  6  1  1  0  0  0  0
  8 15  1  0  0  0  0
  9  7  1  6  0  0  0
  9 10  1  0  0  0  0
 10 11  1  1  0  0  0
 10 18  1  0  0  0  0
 11 13  2  0  0  0  0
 12 11  1  0  0  0  0
 13 17  2  0  0  0  0
 14 12  2  0  0  0  0
 15 23  1  1  0  0  0
 15  9  1  0  0  0  0
 16  8  1  0  0  0  0
 16 12  1  0  0  0  0
 18 21  1  6  0  0  0
 18 20  1  0  0  0  0
 19 22  1  0  0  0  0
 20 22  1  0  0  0  0
 21 19  1  0  0  0  0
 24 23  3  0  0  0  0
 27 25  1  0  0  0  0
 27 26  2  0  0  0  0
 28 30  1  0  0  0  0
 29 37  1  0  0  0  0
 30 37  1  0  0  0  0
 31 26  1  6  0  0  0
 31 40  1  0  0  0  0
 32 36  1  0  0  0  0
 32 39  2  0  0  0  0
 33 34  1  6  0  0  0
 33 28  1  0  0  0  0
 33 36  1  0  0  0  0
 35 43  1  6  0  0  0
 35 31  1  0  0  0  0
 35 34  1  0  0  0  0
 36 29  1  1  0  0  0
 38 28  2  0  0  0  0
 40 32  1  0  0  0  0
 42 43  1  0  0  0  0
 43 41  1  0  0  0  0
M  END
>  <MODEL>
6

>  <REMARK>
 VINA RESULT:      -6.6      2.525      5.830
  Name = 
  8 active torsions:
  status: ('A' for Active; 'I' for Inactive)
    1  A    between atoms: C_3  and  C_16
    2  A    between atoms: C_4  and  C_11
    3  A    between atoms: C_9  and  O_18
    4  A    between atoms: C_13  and  O_18
    5  A    between atoms: C_15  and  C_35
    6  A    between atoms: C_22  and  C_37
    7  A    between atoms: C_25  and  C_29
    8  A    between atoms: C_34  and  C_37
                            x       y       z     vdW  Elec       q    Type
                         _______ _______ _______ _____ _____    ______ ____

>  <TORSDO>
F 8

$$$$
=
 OpenBabel11062416053D

 43 48  0  0  1  0  0  0  0  0999 V2000
  184.4470  177.4760  138.6310 C   0  0  1  0  0  3  0  0  0  0  0  0
  183.4520  179.2790  139.9970 C   0  0  0  0  0  2  0  0  0  0  0  0
  183.1970  178.3190  138.8480 C   0  0  2  0  0  3  0  0  0  0  0  0
  184.9590  179.3560  140.1260 C   0  0  2  0  0  3  0  0  0  0  0  0
  185.5300  178.2910  137.9540 C   0  0  0  0  0  2  0  0  0  0  0  0
  185.5460  178.1210  139.4600 C   0  0  2  0  0  3  0  0  0  0  0  0
  182.0190  177.5490  139.0000 O   0  0  0  0  0  0  0  0  0  0  0  0
  178.9860  178.6270  137.6810 C   0  0  0  0  0  2  0  0  0  0  0  0
  180.9330  178.3850  139.3410 C   0  0  2  0  0  3  0  0  0  0  0  0
  179.8490  177.6190  140.1230 C   0  0  1  0  0  3  0  0  0  0  0  0
  179.5740  176.2630  139.4960 C   0  0  0  0  0  0  0  0  0  0  0  0
  179.1710  176.1580  138.0670 C   0  0  0  0  0  0  0  0  0  0  0  0
  179.8000  175.1610  140.1720 C   0  0  0  0  0  0  0  0  0  0  0  0
  179.0060  175.0160  137.5570 O   0  0  0  0  0  0  0  0  0  0  0  0
  180.3870  179.0820  138.0870 C   0  0  2  0  0  3  0  0  0  0  0  0
  178.9890  177.2750  137.2380 O   0  0  0  0  0  0  0  0  0  0  0  0
  180.0140  174.1210  140.8090 O   0  0  0  0  0  0  0  0  0  0  0  0
  180.1160  177.6180  141.6390 C   0  0  2  0  0  3  0  0  0  0  0  0
  180.6950  179.1770  143.3310 C   0  0  0  0  0  2  0  0  0  0  0  0
  178.9450  177.9330  142.3450 O   0  0  0  0  0  0  0  0  0  0  0  0
  181.1620  178.6500  142.0090 C   0  0  0  0  0  2  0  0  0  0  0  0
  179.3870  178.4620  143.5660 C   0  0  0  0  0  2  0  0  0  0  0  0
  180.3790  180.5300  138.3080 C   0  0  0  0  0  0  0  0  0  0  0  0
  180.3680  181.7220  138.4910 C   0  0  0  0  0  3  0  0  0  0  0  0
  185.3620  179.3850  141.5910 C   0  0  0  0  0  2  0  0  0  0  0  0
  185.5870  177.5250  143.2670 C   0  0  0  0  0  3  0  0  0  0  0  0
  184.8900  178.1580  142.3100 C   0  0  0  0  0  3  0  0  0  0  0  0
  189.4880  176.3710  147.2640 C   0  0  0  0  0  0  0  0  0  0  0  0
  191.2740  177.5520  145.2920 C   0  0  0  0  0  2  0  0  0  0  0  0
  190.9040  176.2180  147.3250 N   0  0  0  0  0  2  0  0  0  0  0  0
  186.9520  177.9240  143.7800 C   0  0  1  0  0  3  0  0  0  0  0  0
  189.2350  176.7180  144.0550 C   0  0  0  0  0  0  0  0  0  0  0  0
  188.9400  177.5040  146.4470 C   0  0  2  0  0  3  0  0  0  0  0  0
  187.4220  177.4320  146.2560 C   0  0  0  0  0  2  0  0  0  0  0  0
  186.9740  178.4770  145.2340 C   0  0  2  0  0  3  0  0  0  0  0  0
  189.7370  177.6510  145.1260 C   0  0  1  0  0  3  0  0  0  0  0  0
  191.7440  177.2430  146.7200 C   0  0  0  0  0  2  0  0  0  0  0  0
  188.7380  175.5810  147.8950 O   0  0  0  0  0  0  0  0  0  0  0  0
  189.9490  175.7530  143.6700 O   0  0  0  0  0  0  0  0  0  0  0  0
  187.9150  176.8520  143.5130 N   0  0  0  0  0  2  0  0  0  0  0  0
  185.9580  180.0020  146.9510 C   0  0  0  0  0  1  0  0  0  0  0  0
  184.5470  178.2860  145.9010 C   0  0  0  0  0  1  0  0  0  0  0  0
  185.7090  179.2360  145.6640 C   0  0  0  0  0  3  0  0  0  0  0  0
  1  5  1  6  0  0  0
  1  3  1  0  0  0  0
  1  6  1  0  0  0  0
  2  4  1  0  0  0  0
  3  7  1  1  0  0  0
  3  2  1  0  0  0  0
  4 25  1  1  0  0  0
  6  5  1  6  0  0  0
  6  4  1  0  0  0  0
  8 15  1  0  0  0  0
  9  7  1  6  0  0  0
  9 10  1  0  0  0  0
 10 11  1  6  0  0  0
 10 18  1  0  0  0  0
 11 13  2  0  0  0  0
 12 11  1  0  0  0  0
 13 17  2  0  0  0  0
 14 12  2  0  0  0  0
 15 23  1  1  0  0  0
 15  9  1  0  0  0  0
 16  8  1  0  0  0  0
 16 12  1  0  0  0  0
 18 21  1  6  0  0  0
 18 20  1  0  0  0  0
 19 22  1  0  0  0  0
 20 22  1  0  0  0  0
 21 19  1  0  0  0  0
 23 24  3  0  0  0  0
 25 27  1  0  0  0  0
 27 26  2  0  0  0  0
 28 30  1  0  0  0  0
 28 38  2  0  0  0  0
 29 37  1  0  0  0  0
 31 26  1  1  0  0  0
 31 35  1  0  0  0  0
 32 36  1  0  0  0  0
 33 34  1  6  0  0  0
 33 28  1  0  0  0  0
 35 43  1  1  0  0  0
 35 34  1  0  0  0  0
 36 29  1  1  0  0  0
 36 33  1  0  0  0  0
 37 30  1  0  0  0  0
 39 32  2  0  0  0  0
 40 31  1  0  0  0  0
 40 32  1  0  0  0  0
 43 42  1  0  0  0  0
 43 41  1  0  0  0  0
M  END
>  <MODEL>
7

>  <REMARK>
 VINA RESULT:      -6.5      3.024      5.922
  Name = 
  8 active torsions:
  status: ('A' for Active; 'I' for Inactive)
    1  A    between atoms: C_3  and  C_16
    2  A    between atoms: C_4  and  C_11
    3  A    between atoms: C_9  and  O_18
    4  A    between atoms: C_13  and  O_18
    5  A    between atoms: C_15  and  C_35
    6  A    between atoms: C_22  and  C_37
    7  A    between atoms: C_25  and  C_29
    8  A    between atoms: C_34  and  C_37
                            x       y       z     vdW  Elec       q    Type
                         _______ _______ _______ _____ _____    ______ ____

>  <TORSDO>
F 8

$$$$
=
 OpenBabel11062416053D

 43 48  0  0  1  0  0  0  0  0999 V2000
  182.1160  178.6480  138.7320 C   0  0  1  0  0  3  0  0  0  0  0  0
  183.1130  177.1690  140.4420 C   0  0  0  0  0  2  0  0  0  0  0  0
  182.5850  177.2280  139.0180 C   0  0  2  0  0  3  0  0  0  0  0  0
  182.5160  178.3740  141.1390 C   0  0  2  0  0  3  0  0  0  0  0  0
  180.8000  178.9280  139.4300 C   0  0  0  0  0  2  0  0  0  0  0  0
  182.1010  179.3710  140.0680 C   0  0  2  0  0  3  0  0  0  0  0  0
  183.4920  176.7290  138.0530 O   0  0  0  0  0  0  0  0  0  0  0  0
  183.8590  176.7820  134.5940 C   0  0  0  0  0  2  0  0  0  0  0  0
  182.7940  176.3330  136.8900 C   0  0  2  0  0  3  0  0  0  0  0  0
  183.1310  174.8840  136.4900 C   0  0  1  0  0  3  0  0  0  0  0  0
  184.6240  174.6200  136.5870 C   0  0  0  0  0  0  0  0  0  0  0  0
  185.5920  175.4670  135.8370 C   0  0  0  0  0  0  0  0  0  0  0  0
  185.0870  173.7200  137.4220 C   0  0  0  0  0  0  0  0  0  0  0  0
  186.8290  175.2630  135.9820 O   0  0  0  0  0  0  0  0  0  0  0  0
  183.0400  177.3400  135.7570 C   0  0  2  0  0  3  0  0  0  0  0  0
  185.1990  176.5120  134.9870 O   0  0  0  0  0  0  0  0  0  0  0  0
  185.5230  172.8710  138.2090 O   0  0  0  0  0  0  0  0  0  0  0  0
  182.2210  173.8600  137.1900 C   0  0  2  0  0  3  0  0  0  0  0  0
  179.9240  173.2620  137.2080 C   0  0  0  0  0  2  0  0  0  0  0  0
  182.0750  172.7100  136.3990 O   0  0  0  0  0  0  0  0  0  0  0  0
  180.8360  174.4310  137.4220 C   0  0  0  0  0  2  0  0  0  0  0  0
  180.8550  172.1460  136.7980 C   0  0  0  0  0  2  0  0  0  0  0  0
  181.7510  177.8190  135.2540 C   0  0  0  0  0  0  0  0  0  0  0  0
  180.6880  178.2160  134.8440 C   0  0  0  0  0  3  0  0  0  0  0  0
  183.5440  179.0120  142.0580 C   0  0  0  0  0  2  0  0  0  0  0  0
  184.4750  178.3080  144.2860 C   0  0  0  0  0  3  0  0  0  0  0  0
  183.4350  178.4760  143.4540 C   0  0  0  0  0  3  0  0  0  0  0  0
  189.4520  175.9280  142.8410 C   0  0  0  0  0  0  0  0  0  0  0  0
  189.9640  178.5930  141.7880 C   0  0  0  0  0  2  0  0  0  0  0  0
  190.5100  176.1980  141.9250 N   0  0  0  0  0  2  0  0  0  0  0  0
  185.9210  178.6180  143.9700 C   0  0  1  0  0  3  0  0  0  0  0  0
  187.4570  178.2980  141.9000 C   0  0  0  0  0  0  0  0  0  0  0  0
  188.8790  177.0820  143.6110 C   0  0  2  0  0  3  0  0  0  0  0  0
  187.6020  176.7220  144.3780 C   0  0  0  0  0  2  0  0  0  0  0  0
  186.9580  177.9880  144.9420 C   0  0  2  0  0  3  0  0  0  0  0  0
  188.7370  178.3240  142.6950 C   0  0  1  0  0  3  0  0  0  0  0  0
  191.0760  177.5400  141.8890 C   0  0  0  0  0  2  0  0  0  0  0  0
  189.0360  174.7500  142.9990 O   0  0  0  0  0  0  0  0  0  0  0  0
  187.4900  178.1330  140.6510 O   0  0  0  0  0  0  0  0  0  0  0  0
  186.1810  178.3740  142.5470 N   0  0  0  0  0  2  0  0  0  0  0  0
  185.9460  179.1410  146.9300 C   0  0  0  0  0  1  0  0  0  0  0  0
  187.6080  177.3690  147.3010 C   0  0  0  0  0  1  0  0  0  0  0  0
  186.4780  177.8240  146.3930 C   0  0  0  0  0  3  0  0  0  0  0  0
  1  3  1  0  0  0  0
  1  5  1  1  0  0  0
  1  6  1  0  0  0  0
  2  4  1  0  0  0  0
  3  7  1  6  0  0  0
  3  2  1  0  0  0  0
  4 25  1  1  0  0  0
  6  5  1  1  0  0  0
  6  4  1  0  0  0  0
  8 16  1  0  0  0  0
  8 15  1  0  0  0  0
  9  7  1  1  0  0  0
 10 11  1  1  0  0  0
 10  9  1  0  0  0  0
 10 18  1  0  0  0  0
 11 13  2  0  0  0  0
 12 14  2  0  0  0  0
 12 11  1  0  0  0  0
 13 17  2  0  0  0  0
 15 23  1  6  0  0  0
 15  9  1  0  0  0  0
 16 12  1  0  0  0  0
 18 21  1  6  0  0  0
 19 21  1  0  0  0  0
 20 22  1  0  0  0  0
 20 18  1  0  0  0  0
 22 19  1  0  0  0  0
 24 23  3  0  0  0  0
 25 27  1  0  0  0  0
 27 26  2  0  0  0  0
 28 38  2  0  0  0  0
 28 33  1  0  0  0  0
 29 37  1  0  0  0  0
 30 28  1  0  0  0  0
 31 26  1  1  0  0  0
 31 35  1  0  0  0  0
 32 40  1  0  0  0  0
 32 36  1  0  0  0  0
 33 34  1  6  0  0  0
 34 35  1  0  0  0  0
 35 43  1  1  0  0  0
 36 29  1  6  0  0  0
 36 33  1  0  0  0  0
 37 30  1  0  0  0  0
 39 32  2  0  0  0  0
 40 31  1  0  0  0  0
 43 41  1  0  0  0  0
 43 42  1  0  0  0  0
M  END
>  <MODEL>
8

>  <REMARK>
 VINA RESULT:      -6.5      2.872      5.522
  Name = 
  8 active torsions:
  status: ('A' for Active; 'I' for Inactive)
    1  A    between atoms: C_3  and  C_16
    2  A    between atoms: C_4  and  C_11
    3  A    between atoms: C_9  and  O_18
    4  A    between atoms: C_13  and  O_18
    5  A    between atoms: C_15  and  C_35
    6  A    between atoms: C_22  and  C_37
    7  A    between atoms: C_25  and  C_29
    8  A    between atoms: C_34  and  C_37
                            x       y       z     vdW  Elec       q    Type
                         _______ _______ _______ _____ _____    ______ ____

>  <TORSDO>
F 8

$$$$
=
 OpenBabel11062416053D

 43 48  0  0  1  0  0  0  0  0999 V2000
  184.2180  176.9060  137.8620 C   0  0  1  0  0  3  0  0  0  0  0  0
  182.9420  178.8740  138.6380 C   0  0  0  0  0  2  0  0  0  0  0  0
  182.8920  177.6450  137.7470 C   0  0  2  0  0  3  0  0  0  0  0  0
  184.4150  179.1310  138.8810 C   0  0  2  0  0  3  0  0  0  0  0  0
  185.3070  177.6390  137.1050 C   0  0  0  0  0  2  0  0  0  0  0  0
  185.1640  177.8380  138.6000 C   0  0  2  0  0  3  0  0  0  0  0  0
  181.7660  176.8200  137.9790 O   0  0  0  0  0  0  0  0  0  0  0  0
  179.1240  176.9280  135.7180 C   0  0  0  0  0  2  0  0  0  0  0  0
  180.5760  177.5450  137.7460 C   0  0  2  0  0  3  0  0  0  0  0  0
  179.3770  176.9220  138.4850 C   0  0  1  0  0  3  0  0  0  0  0  0
  179.3650  175.4100  138.3380 C   0  0  0  0  0  0  0  0  0  0  0  0
  179.3610  174.7810  136.9890 C   0  0  0  0  0  0  0  0  0  0  0  0
  179.4770  174.6380  139.3940 C   0  0  0  0  0  0  0  0  0  0  0  0
  179.4120  173.5240  136.8950 O   0  0  0  0  0  0  0  0  0  0  0  0
  180.3360  177.7000  136.2380 C   0  0  2  0  0  3  0  0  0  0  0  0
  179.3320  175.5230  135.7980 O   0  0  0  0  0  0  0  0  0  0  0  0
  179.5820  173.9110  140.3890 O   0  0  0  0  0  0  0  0  0  0  0  0
  179.2330  177.4580  139.9200 C   0  0  2  0  0  3  0  0  0  0  0  0
  180.5930  178.5120  141.5550 C   0  0  0  0  0  2  0  0  0  0  0  0
  178.9310  178.8280  139.9060 O   0  0  0  0  0  0  0  0  0  0  0  0
  180.5230  177.2850  140.6980 C   0  0  0  0  0  2  0  0  0  0  0  0
  179.3840  179.3150  141.1410 C   0  0  0  0  0  2  0  0  0  0  0  0
  180.1760  179.1210  135.9210 C   0  0  0  0  0  0  0  0  0  0  0  0
  180.0490  180.2920  135.6610 C   0  0  0  0  0  3  0  0  0  0  0  0
  184.6460  179.5520  140.3220 C   0  0  0  0  0  2  0  0  0  0  0  0
  184.9840  177.9820  142.2570 C   0  0  0  0  0  3  0  0  0  0  0  0
  184.2130  178.4820  141.2790 C   0  0  0  0  0  3  0  0  0  0  0  0
  190.2350  175.9590  143.1870 C   0  0  0  0  0  0  0  0  0  0  0  0
  190.9870  178.6260  142.2960 C   0  0  0  0  0  2  0  0  0  0  0  0
  191.5630  176.2860  142.7880 N   0  0  0  0  0  2  0  0  0  0  0  0
  186.4060  178.3950  142.5630 C   0  0  1  0  0  3  0  0  0  0  0  0
  188.6920  178.1390  141.3570 C   0  0  0  0  0  0  0  0  0  0  0  0
  189.3220  177.0850  143.5750 C   0  0  2  0  0  3  0  0  0  0  0  0
  187.8640  176.6470  143.7510 C   0  0  0  0  0  2  0  0  0  0  0  0
  186.9670  177.8740  143.9160 C   0  0  2  0  0  3  0  0  0  0  0  0
  189.5090  178.2870  142.6140 C   0  0  1  0  0  3  0  0  0  0  0  0
  192.0110  177.6670  142.9170 C   0  0  0  0  0  2  0  0  0  0  0  0
  189.8620  174.7570  143.2220 O   0  0  0  0  0  0  0  0  0  0  0  0
  189.2620  177.9440  140.2500 O   0  0  0  0  0  0  0  0  0  0  0  0
  187.2600  178.1330  141.3990 N   0  0  0  0  0  2  0  0  0  0  0  0
  185.1820  179.0160  145.2640 C   0  0  0  0  0  1  0  0  0  0  0  0
  186.5830  177.3110  146.3480 C   0  0  0  0  0  1  0  0  0  0  0  0
  185.9270  177.7120  145.0370 C   0  0  0  0  0  3  0  0  0  0  0  0
  1  5  1  6  0  0  0
  1  6  1  0  0  0  0
  2  4  1  0  0  0  0
  3  1  1  0  0  0  0
  3  7  1  1  0  0  0
  3  2  1  0  0  0  0
  4 25  1  1  0  0  0
  6  5  1  6  0  0  0
  6  4  1  0  0  0  0
  8 16  1  0  0  0  0
  8 15  1  0  0  0  0
  9  7  1  6  0  0  0
  9 10  1  0  0  0  0
 10 11  1  1  0  0  0
 10 18  1  0  0  0  0
 11 13  2  0  0  0  0
 12 11  1  0  0  0  0
 13 17  2  0  0  0  0
 14 12  2  0  0  0  0
 15 23  1  1  0  0  0
 15  9  1  0  0  0  0
 16 12  1  0  0  0  0
 18 21  1  1  0  0  0
 20 18  1  0  0  0  0
 20 22  1  0  0  0  0
 21 19  1  0  0  0  0
 22 19  1  0  0  0  0
 24 23  3  0  0  0  0
 25 27  1  0  0  0  0
 27 26  2  0  0  0  0
 28 38  2  0  0  0  0
 28 33  1  0  0  0  0
 29 37  1  0  0  0  0
 30 37  1  0  0  0  0
 30 28  1  0  0  0  0
 31 26  1  6  0  0  0
 31 35  1  0  0  0  0
 32 40  1  0  0  0  0
 32 36  1  0  0  0  0
 33 34  1  6  0  0  0
 34 35  1  0  0  0  0
 35 43  1  1  0  0  0
 36 29  1  6  0  0  0
 36 33  1  0  0  0  0
 39 32  2  0  0  0  0
 40 31  1  0  0  0  0
 43 41  1  0  0  0  0
 43 42  1  0  0  0  0
M  END
>  <MODEL>
9

>  <REMARK>
 VINA RESULT:      -6.4      2.461      5.149
  Name = 
  8 active torsions:
  status: ('A' for Active; 'I' for Inactive)
    1  A    between atoms: C_3  and  C_16
    2  A    between atoms: C_4  and  C_11
    3  A    between atoms: C_9  and  O_18
    4  A    between atoms: C_13  and  O_18
    5  A    between atoms: C_15  and  C_35
    6  A    between atoms: C_22  and  C_37
    7  A    between atoms: C_25  and  C_29
    8  A    between atoms: C_34  and  C_37
                            x       y       z     vdW  Elec       q    Type
                         _______ _______ _______ _____ _____    ______ ____

>  <TORSDO>
F 8

$$$$
