=
 OpenBabel11062412133D

 55 58  0  0  1  0  0  0  0  0999 V2000
  189.9610  177.6690  138.0620 C   0  0  1  0  0  3  0  0  0  0  0  0
  189.2270  178.1900  139.3060 C   0  0  1  0  0  3  0  0  0  0  0  0
  188.0690  178.9020  138.9900 O   0  0  0  0  0  1  0  0  0  0  0  0
  188.9610  177.1100  140.3540 C   0  0  0  0  0  2  0  0  0  0  0  0
  189.7570  176.0750  142.5480 C   0  0  0  0  0  2  0  0  0  0  0  0
  188.4940  175.7710  143.0740 O   0  0  0  0  0  0  0  0  0  0  0  0
  189.7150  177.3360  141.6730 C   0  0  2  0  0  3  0  0  0  0  0  0
  187.6220  177.8190  144.0100 C   0  0  1  0  0  3  0  0  0  0  0  0
  188.3990  176.5210  144.2520 C   0  0  0  0  0  2  0  0  0  0  0  0
  189.3110  178.4850  142.3980 O   0  0  0  0  0  0  0  0  0  0  0  0
  187.9250  178.4230  142.6380 C   0  0  0  0  0  2  0  0  0  0  0  0
  186.2510  177.5680  144.1080 O   0  0  0  0  0  0  0  0  0  0  0  0
  184.7280  178.8550  142.8210 C   0  0  0  0  0  3  0  0  0  0  0  0
  185.5710  179.4310  146.3380 O   0  0  0  0  0  0  0  0  0  0  0  0
  182.7360  178.7510  144.2120 C   0  0  0  0  0  0  0  0  0  0  0  0
  183.3980  178.7860  142.9060 C   0  0  0  0  0  3  0  0  0  0  0  0
  181.4930  178.5760  144.2870 O   0  0  0  0  0  0  0  0  0  0  0  0
  183.5020  178.9570  145.3950 N   0  0  0  0  0  2  0  0  0  0  0  0
  184.9180  179.1130  145.3100 C   0  0  0  0  0  0  0  0  0  0  0  0
  185.6410  178.8250  144.0230 C   0  0  1  0  0  3  0  0  0  0  0  0
  190.4030  176.3270  138.1390 O   0  0  0  0  0  0  0  0  0  0  0  0
  191.8060  176.2890  138.1030 C   0  0  0  0  0  2  0  0  0  0  0  0
  194.5250  175.4730  137.7750 O   0  0  0  0  0  0  0  0  0  0  0  0
  192.2470  174.9600  137.7070 N   0  0  0  0  0  2  0  0  0  0  0  0
  193.6270  174.6250  137.5340 C   0  0  0  0  0  0  0  0  0  0  0  0
  192.9010  172.6290  136.5060 F   0  0  0  0  0  0  0  0  0  0  0  0
  194.0090  173.2780  137.0190 C   0  0  1  0  0  3  0  0  0  0  0  0
  195.0550  173.4180  135.9340 C   0  0  0  0  0  1  0  0  0  0  0  0
  189.2610  178.0370  136.7480 C   0  0  0  0  0  2  0  0  0  0  0  0
  185.7300  174.0220  135.5570 N   0  0  0  0  0  0  0  0  0  0  0  0
  185.4130  175.1440  136.1500 C   0  0  0  0  0  0  0  0  0  0  0  0
  189.3750  176.0080  135.1350 C   0  0  0  0  0  0  0  0  0  0  0  0
  188.0130  171.2040  134.7740 N   0  0  0  0  0  0  0  0  0  0  0  0
  190.5110  176.3740  134.7300 O   0  0  0  0  0  0  0  0  0  0  0  0
  188.3150  173.8520  135.7390 C   0  0  1  0  0  3  0  0  0  0  0  0
  188.7910  174.7390  134.5940 C   0  0  0  0  0  2  0  0  0  0  0  0
  186.9550  173.2770  135.4290 C   0  0  2  0  0  3  0  0  0  0  0  0
  186.8590  172.0330  134.9470 C   0  0  0  0  0  3  0  0  0  0  0  0
  189.3550  172.7780  136.0680 C   0  0  0  0  0  2  0  0  0  0  0  0
  186.3150  175.9920  136.9510 C   0  0  0  0  0  3  0  0  0  0  0  0
  189.3650  171.7130  134.9760 C   0  0  0  0  0  2  0  0  0  0  0  0
  187.4630  176.4390  136.5330 C   0  0  0  0  0  0  0  0  0  0  0  0
  188.6370  176.8320  136.1160 C   0  0  0  0  0  0  0  0  0  0  0  0
  183.9770  175.5340  136.1600 C   0  0  0  0  0  2  0  0  0  0  0  0
  183.1680  174.4330  136.6510 N   0  0  0  0  0  2  0  0  0  0  0  0
  181.7850  174.8070  136.4240 C   0  0  0  0  0  2  0  0  0  0  0  0
  181.6380  176.3140  136.5570 C   0  0  0  0  0  2  0  0  0  0  0  0
  179.8690  177.6690  137.5940 N   0  0  0  0  0  1  0  0  0  0  0  0
  180.9400  176.7200  137.8520 C   0  0  2  0  0  3  0  0  0  0  0  0
  181.3200  178.1090  140.1360 O   0  0  0  0  0  0  0  0  0  0  0  0
  182.8550  176.2530  139.6790 O   0  0  0  0  0  0  0  0  0  0  0  0
  182.0800  177.3830  139.0600 S   0  0  0  0  0  0  0  0  0  0  0  0
  183.2140  178.5030  138.2570 C   0  0  0  0  0  2  0  0  0  0  0  0
  184.3640  180.4380  139.0480 O   0  0  0  0  0  1  0  0  0  0  0  0
  184.2210  179.0640  139.2460 C   0  0  0  0  0  2  0  0  0  0  0  0
  1 29  1  6  0  0  0
  1 21  1  0  0  0  0
  1  2  1  0  0  0  0
  2  3  1  6  0  0  0
  2  4  1  0  0  0  0
  5  6  1  0  0  0  0
  6  9  1  0  0  0  0
  7  4  1  6  0  0  0
  7 10  1  0  0  0  0
  7  5  1  0  0  0  0
  8 12  1  6  0  0  0
  8  9  1  0  0  0  0
 10 11  1  0  0  0  0
 11  8  1  0  0  0  0
 13 16  2  0  0  0  0
 13 20  1  0  0  0  0
 15 17  2  0  0  0  0
 15 18  1  0  0  0  0
 16 15  1  0  0  0  0
 19 18  1  0  0  0  0
 19 14  2  0  0  0  0
 20 12  1  1  0  0  0
 20 19  1  0  0  0  0
 22 21  1  0  0  0  0
 24 22  1  0  0  0  0
 25 24  1  0  0  0  0
 25 23  2  0  0  0  0
 26 27  1  0  0  0  0
 27 28  1  6  0  0  0
 27 25  1  0  0  0  0
 30 31  2  0  0  0  0
 31 44  1  0  0  0  0
 31 40  1  0  0  0  0
 32 43  1  0  0  0  0
 33 38  2  0  0  0  0
 33 41  1  0  0  0  0
 34 32  2  0  0  0  0
 35 36  1  6  0  0  0
 35 39  1  0  0  0  0
 36 32  1  0  0  0  0
 37 38  1  6  0  0  0
 37 30  1  0  0  0  0
 37 35  1  0  0  0  0
 41 39  1  0  0  0  0
 42 40  2  0  0  0  0
 43 42  2  0  0  0  0
 43 29  1  0  0  0  0
 44 45  1  0  0  0  0
 46 47  1  0  0  0  0
 46 45  1  0  0  0  0
 47 49  1  0  0  0  0
 49 48  1  6  0  0  0
 49 52  1  0  0  0  0
 52 51  2  0  0  0  0
 52 50  2  0  0  0  0
 53 52  1  0  0  0  0
 53 55  1  0  0  0  0
 54 55  1  0  0  0  0
M  END
>  <MODEL>
1

>  <REMARK>
 VINA RESULT:      -6.8      0.000      0.000
  Name = 
  19 active torsions:
  status: ('A' for Active; 'I' for Inactive)
    1  A    between atoms: C_2  and  C_5
    2  A    between atoms: C_2  and  C_18
    3  A    between atoms: C_5  and  C_17
    4  A    between atoms: C_7  and  C_26
    5  A    between atoms: C_9  and  N_16
    6  A    between atoms: C_9  and  O_47
    7  A    between atoms: C_18  and  O_47
    8  A    between atoms: C_18  and  C_49
    9  A    between atoms: C_21  and  S_30
   10  A    between atoms: C_21  and  C_32
   11  A    between atoms: C_23  and  S_30
   12  A    between atoms: C_23  and  C_41
   13  A    between atoms: C_26  and  N_55
   14  A    between atoms: C_27  and  C_32
   15  A    between atoms: C_27  and  N_55
   16  A    between atoms: C_31  and  O_43
   17  A    between atoms: C_37  and  C_51
   18  A    between atoms: O_43  and  C_54
   19  A    between atoms: C_44  and  C_49
                            x       y       z     vdW  Elec       q    Type
                         _______ _______ _______ _____ _____    ______ ____

>  <TORSDO>
F 19

$$$$
=
 OpenBabel11062412133D

 55 58  0  0  1  0  0  0  0  0999 V2000
  189.3110  178.0000  142.5960 C   0  0  1  0  0  3  0  0  0  0  0  0
  188.0600  177.4890  143.3230 C   0  0  1  0  0  3  0  0  0  0  0  0
  187.9230  178.0280  144.6040 O   0  0  0  0  0  1  0  0  0  0  0  0
  186.7760  177.6360  142.5070 C   0  0  0  0  0  2  0  0  0  0  0  0
  185.0270  178.9110  143.8600 C   0  0  0  0  0  2  0  0  0  0  0  0
  183.9170  178.1340  143.5000 O   0  0  0  0  0  0  0  0  0  0  0  0
  186.0600  178.9770  142.7270 C   0  0  2  0  0  3  0  0  0  0  0  0
  183.2170  178.8940  141.3180 C   0  0  1  0  0  3  0  0  0  0  0  0
  183.0550  179.0140  142.8360 C   0  0  0  0  0  2  0  0  0  0  0  0
  185.5370  179.5710  141.5500 O   0  0  0  0  0  0  0  0  0  0  0  0
  184.6730  178.6600  140.9120 C   0  0  0  0  0  2  0  0  0  0  0  0
  182.4340  177.8370  140.8470 O   0  0  0  0  0  0  0  0  0  0  0  0
  181.3340  178.7820  138.9690 C   0  0  0  0  0  3  0  0  0  0  0  0
  179.6890  177.3460  141.9080 O   0  0  0  0  0  0  0  0  0  0  0  0
  179.8580  176.9600  138.3250 C   0  0  0  0  0  0  0  0  0  0  0  0
  180.7320  178.0900  138.0000 C   0  0  0  0  0  3  0  0  0  0  0  0
  179.3810  176.2450  137.4070 O   0  0  0  0  0  0  0  0  0  0  0  0
  179.5200  176.7000  139.6840 N   0  0  0  0  0  2  0  0  0  0  0  0
  180.0960  177.4880  140.7260 C   0  0  0  0  0  0  0  0  0  0  0  0
  181.2340  178.4250  140.4320 C   0  0  1  0  0  3  0  0  0  0  0  0
  190.0480  178.9920  143.2850 O   0  0  0  0  0  0  0  0  0  0  0  0
  191.2500  178.4420  143.7610 C   0  0  0  0  0  2  0  0  0  0  0  0
  191.8200  175.8770  144.8830 O   0  0  0  0  0  0  0  0  0  0  0  0
  191.0960  178.0800  145.1630 N   0  0  0  0  0  2  0  0  0  0  0  0
  191.3740  176.7660  145.6540 C   0  0  0  0  0  0  0  0  0  0  0  0
  192.1190  176.8690  147.8910 F   0  0  0  0  0  0  0  0  0  0  0  0
  191.0910  176.4270  147.0790 C   0  0  1  0  0  3  0  0  0  0  0  0
  189.7940  177.0730  147.5160 C   0  0  0  0  0  1  0  0  0  0  0  0
  190.1610  176.8770  141.9910 C   0  0  0  0  0  2  0  0  0  0  0  0
  188.9370  177.3360  136.6710 N   0  0  0  0  0  0  0  0  0  0  0  0
  188.1000  177.5560  137.6520 C   0  0  0  0  0  0  0  0  0  0  0  0
  191.6210  177.0880  139.8560 C   0  0  0  0  0  0  0  0  0  0  0  0
  191.8120  175.6160  135.0740 N   0  0  0  0  0  0  0  0  0  0  0  0
  192.6690  177.0990  140.5550 O   0  0  0  0  0  0  0  0  0  0  0  0
  190.9140  176.0270  137.7320 C   0  0  1  0  0  3  0  0  0  0  0  0
  191.7490  177.1350  138.3650 C   0  0  0  0  0  2  0  0  0  0  0  0
  190.1430  176.5590  136.5490 C   0  0  2  0  0  3  0  0  0  0  0  0
  190.6170  176.3690  135.3130 C   0  0  0  0  0  3  0  0  0  0  0  0
  191.7870  174.8190  137.3800 C   0  0  0  0  0  2  0  0  0  0  0  0
  188.1680  176.9700  139.0040 C   0  0  0  0  0  3  0  0  0  0  0  0
  192.6530  175.1400  136.1670 C   0  0  0  0  0  2  0  0  0  0  0  0
  189.2160  177.0260  139.7740 C   0  0  0  0  0  0  0  0  0  0  0  0
  190.2960  177.0420  140.5090 C   0  0  0  0  0  0  0  0  0  0  0  0
  186.8730  178.3390  137.3460 C   0  0  0  0  0  2  0  0  0  0  0  0
  185.6960  177.5080  137.5260 N   0  0  0  0  0  2  0  0  0  0  0  0
  185.2010  177.2050  136.1970 C   0  0  0  0  0  2  0  0  0  0  0  0
  185.6600  175.8160  135.7870 C   0  0  0  0  0  2  0  0  0  0  0  0
  186.8470  174.1240  137.1170 N   0  0  0  0  0  1  0  0  0  0  0  0
  185.5790  174.8120  136.9340 C   0  0  2  0  0  3  0  0  0  0  0  0
  184.2090  173.1810  135.2750 O   0  0  0  0  0  0  0  0  0  0  0  0
  184.5030  172.4390  137.5930 O   0  0  0  0  0  0  0  0  0  0  0  0
  184.2560  173.6300  136.7110 S   0  0  0  0  0  0  0  0  0  0  0  0
  182.7020  174.3840  137.1610 C   0  0  0  0  0  2  0  0  0  0  0  0
  180.7220  173.2840  137.9120 O   0  0  0  0  0  1  0  0  0  0  0  0
  181.5330  173.4870  136.7950 C   0  0  0  0  0  2  0  0  0  0  0  0
  1 29  1  1  0  0  0
  1 21  1  0  0  0  0
  1  2  1  0  0  0  0
  2  3  1  1  0  0  0
  4  2  1  0  0  0  0
  6  5  1  0  0  0  0
  7  4  1  6  0  0  0
  7  5  1  0  0  0  0
  8 12  1  1  0  0  0
  8  9  1  0  0  0  0
  9  6  1  0  0  0  0
 10  7  1  0  0  0  0
 11  8  1  0  0  0  0
 11 10  1  0  0  0  0
 13 20  1  0  0  0  0
 15 18  1  0  0  0  0
 16 15  1  0  0  0  0
 16 13  2  0  0  0  0
 17 15  2  0  0  0  0
 18 19  1  0  0  0  0
 19 14  2  0  0  0  0
 20 19  1  0  0  0  0
 20 12  1  6  0  0  0
 21 22  1  0  0  0  0
 22 24  1  0  0  0  0
 23 25  2  0  0  0  0
 24 25  1  0  0  0  0
 25 27  1  0  0  0  0
 27 28  1  1  0  0  0
 27 26  1  0  0  0  0
 30 31  2  0  0  0  0
 31 40  1  0  0  0  0
 32 43  1  0  0  0  0
 32 34  2  0  0  0  0
 33 38  2  0  0  0  0
 33 41  1  0  0  0  0
 35 39  1  6  0  0  0
 35 36  1  0  0  0  0
 36 32  1  0  0  0  0
 37 38  1  1  0  0  0
 37 30  1  0  0  0  0
 37 35  1  0  0  0  0
 40 42  2  0  0  0  0
 41 39  1  0  0  0  0
 42 43  2  0  0  0  0
 43 29  1  0  0  0  0
 44 45  1  0  0  0  0
 44 31  1  0  0  0  0
 46 45  1  0  0  0  0
 47 46  1  0  0  0  0
 47 49  1  0  0  0  0
 49 48  1  6  0  0  0
 50 52  2  0  0  0  0
 52 49  1  0  0  0  0
 52 53  1  0  0  0  0
 52 51  2  0  0  0  0
 55 53  1  0  0  0  0
 55 54  1  0  0  0  0
M  END
>  <MODEL>
2

>  <REMARK>
 VINA RESULT:      -6.8      3.131      6.149
  Name = 
  19 active torsions:
  status: ('A' for Active; 'I' for Inactive)
    1  A    between atoms: C_2  and  C_5
    2  A    between atoms: C_2  and  C_18
    3  A    between atoms: C_5  and  C_17
    4  A    between atoms: C_7  and  C_26
    5  A    between atoms: C_9  and  N_16
    6  A    between atoms: C_9  and  O_47
    7  A    between atoms: C_18  and  O_47
    8  A    between atoms: C_18  and  C_49
    9  A    between atoms: C_21  and  S_30
   10  A    between atoms: C_21  and  C_32
   11  A    between atoms: C_23  and  S_30
   12  A    between atoms: C_23  and  C_41
   13  A    between atoms: C_26  and  N_55
   14  A    between atoms: C_27  and  C_32
   15  A    between atoms: C_27  and  N_55
   16  A    between atoms: C_31  and  O_43
   17  A    between atoms: C_37  and  C_51
   18  A    between atoms: O_43  and  C_54
   19  A    between atoms: C_44  and  C_49
                            x       y       z     vdW  Elec       q    Type
                         _______ _______ _______ _____ _____    ______ ____

>  <TORSDO>
F 19

$$$$
=
 OpenBabel11062412133D

 55 58  0  0  1  0  0  0  0  0999 V2000
  190.7440  176.6470  139.2780 C   0  0  1  0  0  3  0  0  0  0  0  0
  190.1390  176.0070  138.0210 C   0  0  1  0  0  3  0  0  0  0  0  0
  190.2620  174.6170  138.0110 O   0  0  0  0  0  1  0  0  0  0  0  0
  188.7040  176.4510  137.7410 C   0  0  0  0  0  2  0  0  0  0  0  0
  187.3220  177.6640  135.9690 C   0  0  0  0  0  2  0  0  0  0  0  0
  186.0580  177.2610  136.4180 O   0  0  0  0  0  0  0  0  0  0  0  0
  188.3860  176.5930  136.2450 C   0  0  2  0  0  3  0  0  0  0  0  0
  185.7080  175.0220  135.5850 C   0  0  1  0  0  3  0  0  0  0  0  0
  185.5130  176.5240  135.3600 C   0  0  0  0  0  2  0  0  0  0  0  0
  188.1110  175.3720  135.5790 O   0  0  0  0  0  0  0  0  0  0  0  0
  187.0570  174.7080  136.2360 C   0  0  0  0  0  2  0  0  0  0  0  0
  184.6830  174.5340  136.3990 O   0  0  0  0  0  0  0  0  0  0  0  0
  184.1950  172.2120  136.3280 C   0  0  0  0  0  3  0  0  0  0  0  0
  182.3230  174.8420  134.5980 O   0  0  0  0  0  0  0  0  0  0  0  0
  181.8630  172.2020  137.0150 C   0  0  0  0  0  0  0  0  0  0  0  0
  183.2030  171.6130  136.9890 C   0  0  0  0  0  3  0  0  0  0  0  0
  180.9610  171.6930  137.7280 O   0  0  0  0  0  0  0  0  0  0  0  0
  181.5750  173.3330  136.1970 N   0  0  0  0  0  2  0  0  0  0  0  0
  182.6110  173.9340  135.4210 C   0  0  0  0  0  0  0  0  0  0  0  0
  184.0480  173.5460  135.6370 C   0  0  1  0  0  3  0  0  0  0  0  0
  192.1520  176.7890  139.2670 O   0  0  0  0  0  0  0  0  0  0  0  0
  192.6490  176.4630  137.9940 C   0  0  0  0  0  2  0  0  0  0  0  0
  194.0820  175.2190  135.8580 O   0  0  0  0  0  0  0  0  0  0  0  0
  193.8840  175.7040  138.1350 N   0  0  0  0  0  2  0  0  0  0  0  0
  194.5360  175.0820  137.0240 C   0  0  0  0  0  0  0  0  0  0  0  0
  196.8900  174.9800  137.1510 F   0  0  0  0  0  0  0  0  0  0  0  0
  195.7360  174.2250  137.2480 C   0  0  1  0  0  3  0  0  0  0  0  0
  195.6670  173.5870  138.6200 C   0  0  0  0  0  1  0  0  0  0  0  0
  189.9810  177.8900  139.7520 C   0  0  0  0  0  2  0  0  0  0  0  0
  185.8230  177.9510  143.3180 N   0  0  0  0  0  0  0  0  0  0  0  0
  185.7620  178.4020  142.0920 C   0  0  0  0  0  0  0  0  0  0  0  0
  189.5430  176.6240  141.9740 C   0  0  0  0  0  0  0  0  0  0  0  0
  187.5570  177.2610  146.5260 N   0  0  0  0  0  2  0  0  0  0  0  0
  190.6200  175.9840  141.8400 O   0  0  0  0  0  0  0  0  0  0  0  0
  188.3560  177.7300  143.8470 C   0  0  1  0  0  3  0  0  0  0  0  0
  188.7180  176.3960  143.2030 C   0  0  0  0  0  2  0  0  0  0  0  0
  186.9020  177.7440  144.2490 C   0  0  0  0  0  0  0  0  0  0  0  0
  186.5650  177.4880  145.5170 C   0  0  0  0  0  3  0  0  0  0  0  0
  189.2990  178.0490  145.0100 C   0  0  0  0  0  2  0  0  0  0  0  0
  186.8940  178.8990  141.2880 C   0  0  0  0  0  3  0  0  0  0  0  0
  188.9750  177.1540  146.2010 C   0  0  0  0  0  2  0  0  0  0  0  0
  187.9910  178.2310  141.0780 C   0  0  0  0  0  0  0  0  0  0  0  0
  189.1070  177.5690  140.9250 C   0  0  0  0  0  0  0  0  0  0  0  0
  184.4120  178.5870  141.4940 C   0  0  0  0  0  2  0  0  0  0  0  0
  184.4920  179.4850  140.3560 N   0  0  0  0  0  2  0  0  0  0  0  0
  183.3330  179.2040  139.5300 C   0  0  0  0  0  2  0  0  0  0  0  0
  183.5030  177.8540  138.8560 C   0  0  0  0  0  2  0  0  0  0  0  0
  182.7130  175.5320  139.0170 N   0  0  0  0  0  1  0  0  0  0  0  0
  182.3140  176.9270  139.0970 C   0  0  2  0  0  3  0  0  0  0  0  0
  180.2380  175.9710  137.6610 O   0  0  0  0  0  0  0  0  0  0  0  0
  180.0030  178.2150  138.6210 O   0  0  0  0  0  0  0  0  0  0  0  0
  180.9600  177.2530  137.9750 S   0  0  0  0  0  0  0  0  0  0  0  0
  181.5950  177.9760  136.4710 C   0  0  0  0  0  2  0  0  0  0  0  0
  180.6960  179.6400  135.0170 O   0  0  0  0  0  1  0  0  0  0  0  0
  181.1370  179.4160  136.3210 C   0  0  0  0  0  2  0  0  0  0  0  0
  1 29  1  6  0  0  0
  2  3  1  1  0  0  0
  2  1  1  0  0  0  0
  4  2  1  0  0  0  0
  5  7  1  0  0  0  0
  5  6  1  0  0  0  0
  7  4  1  1  0  0  0
  8 11  1  0  0  0  0
  8 12  1  1  0  0  0
  9  8  1  0  0  0  0
  9  6  1  0  0  0  0
 10 11  1  0  0  0  0
 10  7  1  0  0  0  0
 13 16  2  0  0  0  0
 14 19  2  0  0  0  0
 15 17  2  0  0  0  0
 16 15  1  0  0  0  0
 18 15  1  0  0  0  0
 19 20  1  0  0  0  0
 19 18  1  0  0  0  0
 20 13  1  0  0  0  0
 20 12  1  1  0  0  0
 21  1  1  0  0  0  0
 22 24  1  0  0  0  0
 22 21  1  0  0  0  0
 23 25  2  0  0  0  0
 25 27  1  0  0  0  0
 25 24  1  0  0  0  0
 26 27  1  0  0  0  0
 27 28  1  1  0  0  0
 29 43  1  0  0  0  0
 30 37  1  0  0  0  0
 31 30  2  0  0  0  0
 32 36  1  0  0  0  0
 34 32  2  0  0  0  0
 35 36  1  1  0  0  0
 35 37  1  0  0  0  0
 35 39  1  0  0  0  0
 37 38  2  0  0  0  0
 38 33  1  0  0  0  0
 39 41  1  0  0  0  0
 40 31  1  0  0  0  0
 41 33  1  0  0  0  0
 42 40  2  0  0  0  0
 43 42  2  0  0  0  0
 43 32  1  0  0  0  0
 44 31  1  0  0  0  0
 45 44  1  0  0  0  0
 46 45  1  0  0  0  0
 47 49  1  0  0  0  0
 47 46  1  0  0  0  0
 49 48  1  6  0  0  0
 50 52  2  0  0  0  0
 52 51  2  0  0  0  0
 52 49  1  0  0  0  0
 53 52  1  0  0  0  0
 54 55  1  0  0  0  0
 55 53  1  0  0  0  0
M  END
>  <MODEL>
3

>  <REMARK>
 VINA RESULT:      -6.6      2.792      7.161
  Name = 
  19 active torsions:
  status: ('A' for Active; 'I' for Inactive)
    1  A    between atoms: C_2  and  C_5
    2  A    between atoms: C_2  and  C_18
    3  A    between atoms: C_5  and  C_17
    4  A    between atoms: C_7  and  C_26
    5  A    between atoms: C_9  and  N_16
    6  A    between atoms: C_9  and  O_47
    7  A    between atoms: C_18  and  O_47
    8  A    between atoms: C_18  and  C_49
    9  A    between atoms: C_21  and  S_30
   10  A    between atoms: C_21  and  C_32
   11  A    between atoms: C_23  and  S_30
   12  A    between atoms: C_23  and  C_41
   13  A    between atoms: C_26  and  N_55
   14  A    between atoms: C_27  and  C_32
   15  A    between atoms: C_27  and  N_55
   16  A    between atoms: C_31  and  O_43
   17  A    between atoms: C_37  and  C_51
   18  A    between atoms: O_43  and  C_54
   19  A    between atoms: C_44  and  C_49
                            x       y       z     vdW  Elec       q    Type
                         _______ _______ _______ _____ _____    ______ ____

>  <TORSDO>
F 19

$$$$
=
 OpenBabel11062412133D

 55 58  0  0  1  0  0  0  0  0999 V2000
  183.1440  176.2170  136.0260 C   0  0  1  0  0  3  0  0  0  0  0  0
  182.4940  176.6390  137.3510 C   0  0  1  0  0  3  0  0  0  0  0  0
  182.9950  175.9330  138.4460 O   0  0  0  0  0  1  0  0  0  0  0  0
  182.5190  178.1480  137.5890 C   0  0  0  0  0  2  0  0  0  0  0  0
  181.2350  180.3460  137.3880 C   0  0  0  0  0  2  0  0  0  0  0  0
  181.6030  180.8850  138.6290 O   0  0  0  0  0  0  0  0  0  0  0  0
  181.1420  178.8150  137.4440 C   0  0  2  0  0  3  0  0  0  0  0  0
  180.1750  179.8570  140.2820 C   0  0  1  0  0  3  0  0  0  0  0  0
  180.4020  181.0360  139.3310 C   0  0  0  0  0  2  0  0  0  0  0  0
  180.1650  178.3640  138.3660 O   0  0  0  0  0  0  0  0  0  0  0  0
  180.6470  178.5330  139.6780 C   0  0  0  0  0  2  0  0  0  0  0  0
  180.8570  180.0840  141.4800 O   0  0  0  0  0  0  0  0  0  0  0  0
  182.8360  178.8440  141.9020 C   0  0  0  0  0  3  0  0  0  0  0  0
  179.5240  178.1170  143.2850 O   0  0  0  0  0  0  0  0  0  0  0  0
  182.8940  178.8680  144.3320 C   0  0  0  0  0  0  0  0  0  0  0  0
  183.5530  178.8980  143.0250 C   0  0  0  0  0  3  0  0  0  0  0  0
  183.5650  179.0300  145.3840 O   0  0  0  0  0  0  0  0  0  0  0  0
  181.4940  178.6170  144.4090 N   0  0  0  0  0  2  0  0  0  0  0  0
  180.7280  178.4760  143.2130 C   0  0  0  0  0  0  0  0  0  0  0  0
  181.3270  178.8270  141.8790 C   0  0  1  0  0  3  0  0  0  0  0  0
  182.2410  175.8740  134.9920 O   0  0  0  0  0  0  0  0  0  0  0  0
  182.2970  174.4900  134.7560 C   0  0  0  0  0  2  0  0  0  0  0  0
  182.4660  171.7200  135.4380 O   0  0  0  0  0  0  0  0  0  0  0  0
  183.3110  173.8910  135.6120 N   0  0  0  0  0  2  0  0  0  0  0  0
  183.3210  172.4980  135.9370 C   0  0  0  0  0  0  0  0  0  0  0  0
  185.3600  171.3500  136.2380 F   0  0  0  0  0  0  0  0  0  0  0  0
  184.3190  171.9660  136.9080 C   0  0  1  0  0  3  0  0  0  0  0  0
  184.8660  173.0930  137.7580 C   0  0  0  0  0  1  0  0  0  0  0  0
  184.2900  177.1390  135.5930 C   0  0  0  0  0  2  0  0  0  0  0  0
  188.3120  177.5110  139.2950 N   0  0  0  0  0  0  0  0  0  0  0  0
  187.1320  178.0620  139.4160 C   0  0  0  0  0  0  0  0  0  0  0  0
  186.4640  175.7760  135.9810 C   0  0  0  0  0  0  0  0  0  0  0  0
  191.2470  176.3270  137.3560 N   0  0  0  0  0  0  0  0  0  0  0  0
  186.1650  175.0010  135.0330 O   0  0  0  0  0  0  0  0  0  0  0  0
  188.5280  176.8880  136.7820 C   0  0  1  0  0  3  0  0  0  0  0  0
  187.7630  175.5710  136.6970 C   0  0  0  0  0  2  0  0  0  0  0  0
  189.0960  177.0780  138.1670 C   0  0  2  0  0  3  0  0  0  0  0  0
  190.3770  176.7730  138.4020 C   0  0  0  0  0  3  0  0  0  0  0  0
  189.5920  176.9750  135.6850 C   0  0  0  0  0  2  0  0  0  0  0  0
  186.2350  178.4540  138.3120 C   0  0  0  0  0  3  0  0  0  0  0  0
  190.7530  176.0440  136.0130 C   0  0  0  0  0  2  0  0  0  0  0  0
  185.8570  177.6550  137.3570 C   0  0  0  0  0  0  0  0  0  0  0  0
  185.5340  176.8540  136.3770 C   0  0  0  0  0  0  0  0  0  0  0  0
  186.7080  178.4860  140.7770 C   0  0  0  0  0  2  0  0  0  0  0  0
  187.7610  178.2000  141.7360 N   0  0  0  0  0  2  0  0  0  0  0  0
  187.1230  177.5420  142.8600 C   0  0  0  0  0  2  0  0  0  0  0  0
  188.0420  176.4610  143.4040 C   0  0  0  0  0  2  0  0  0  0  0  0
  188.1400  177.9540  145.3540 N   0  0  0  0  0  1  0  0  0  0  0  0
  188.8590  176.9380  144.6020 C   0  0  2  0  0  3  0  0  0  0  0  0
  190.9710  176.7800  142.9280 O   0  0  0  0  0  0  0  0  0  0  0  0
  190.3740  179.0010  143.7800 O   0  0  0  0  0  0  0  0  0  0  0  0
  190.4740  177.5410  144.1270 S   0  0  0  0  0  0  0  0  0  0  0  0
  191.6100  177.3380  145.4890 C   0  0  0  0  0  2  0  0  0  0  0  0
  192.0060  176.1340  147.5110 O   0  0  0  0  0  1  0  0  0  0  0  0
  191.0390  176.4050  146.5420 C   0  0  0  0  0  2  0  0  0  0  0  0
  1 29  1  6  0  0  0
  1  2  1  0  0  0  0
  2  4  1  0  0  0  0
  2  3  1  1  0  0  0
  5  7  1  0  0  0  0
  5  6  1  0  0  0  0
  6  9  1  0  0  0  0
  7  4  1  1  0  0  0
  7 10  1  0  0  0  0
  8 12  1  1  0  0  0
  9  8  1  0  0  0  0
 10 11  1  0  0  0  0
 11  8  1  0  0  0  0
 13 16  2  0  0  0  0
 15 18  1  0  0  0  0
 15 17  2  0  0  0  0
 16 15  1  0  0  0  0
 19 14  2  0  0  0  0
 19 18  1  0  0  0  0
 20 12  1  1  0  0  0
 20 13  1  0  0  0  0
 20 19  1  0  0  0  0
 21  1  1  0  0  0  0
 22 21  1  0  0  0  0
 22 24  1  0  0  0  0
 23 25  2  0  0  0  0
 24 25  1  0  0  0  0
 25 27  1  0  0  0  0
 26 27  1  0  0  0  0
 27 28  1  6  0  0  0
 29 43  1  0  0  0  0
 30 31  2  0  0  0  0
 31 44  1  0  0  0  0
 32 43  1  0  0  0  0
 32 36  1  0  0  0  0
 33 38  2  0  0  0  0
 34 32  2  0  0  0  0
 35 39  1  6  0  0  0
 35 37  1  0  0  0  0
 36 35  1  0  0  0  0
 37 38  1  1  0  0  0
 37 30  1  0  0  0  0
 39 41  1  0  0  0  0
 40 31  1  0  0  0  0
 41 33  1  0  0  0  0
 42 40  2  0  0  0  0
 43 42  2  0  0  0  0
 44 45  1  0  0  0  0
 45 46  1  0  0  0  0
 46 47  1  0  0  0  0
 47 49  1  0  0  0  0
 49 48  1  6  0  0  0
 50 52  2  0  0  0  0
 51 52  2  0  0  0  0
 52 49  1  0  0  0  0
 52 53  1  0  0  0  0
 53 55  1  0  0  0  0
 55 54  1  0  0  0  0
M  END
>  <MODEL>
4

>  <REMARK>
 VINA RESULT:      -6.6      3.202      7.702
  Name = 
  19 active torsions:
  status: ('A' for Active; 'I' for Inactive)
    1  A    between atoms: C_2  and  C_5
    2  A    between atoms: C_2  and  C_18
    3  A    between atoms: C_5  and  C_17
    4  A    between atoms: C_7  and  C_26
    5  A    between atoms: C_9  and  N_16
    6  A    between atoms: C_9  and  O_47
    7  A    between atoms: C_18  and  O_47
    8  A    between atoms: C_18  and  C_49
    9  A    between atoms: C_21  and  S_30
   10  A    between atoms: C_21  and  C_32
   11  A    between atoms: C_23  and  S_30
   12  A    between atoms: C_23  and  C_41
   13  A    between atoms: C_26  and  N_55
   14  A    between atoms: C_27  and  C_32
   15  A    between atoms: C_27  and  N_55
   16  A    between atoms: C_31  and  O_43
   17  A    between atoms: C_37  and  C_51
   18  A    between atoms: O_43  and  C_54
   19  A    between atoms: C_44  and  C_49
                            x       y       z     vdW  Elec       q    Type
                         _______ _______ _______ _____ _____    ______ ____

>  <TORSDO>
F 19

$$$$
=
 OpenBabel11062412133D

 55 58  0  0  1  0  0  0  0  0999 V2000
  188.6430  177.0540  138.5170 C   0  0  1  0  0  3  0  0  0  0  0  0
  187.4590  177.7140  137.7980 C   0  0  1  0  0  3  0  0  0  0  0  0
  187.6890  179.0590  137.5030 O   0  0  0  0  0  1  0  0  0  0  0  0
  186.9810  176.9390  136.5700 C   0  0  0  0  0  2  0  0  0  0  0  0
  186.7140  174.5870  135.6140 C   0  0  0  0  0  2  0  0  0  0  0  0
  185.6730  174.8720  134.7200 O   0  0  0  0  0  0  0  0  0  0  0  0
  186.6380  175.4710  136.8660 C   0  0  2  0  0  3  0  0  0  0  0  0
  183.6350  174.9000  136.0130 C   0  0  1  0  0  3  0  0  0  0  0  0
  184.5990  174.0840  135.1470 C   0  0  0  0  0  2  0  0  0  0  0  0
  185.4380  175.2780  137.5950 O   0  0  0  0  0  0  0  0  0  0  0  0
  184.3720  175.8950  136.9120 C   0  0  0  0  0  2  0  0  0  0  0  0
  182.7440  175.5970  135.1920 O   0  0  0  0  0  0  0  0  0  0  0  0
  181.6780  173.7880  136.2980 C   0  0  0  0  0  3  0  0  0  0  0  0
  180.0500  176.8810  135.2030 O   0  0  0  0  0  0  0  0  0  0  0  0
  180.6480  174.9320  138.1810 C   0  0  0  0  0  0  0  0  0  0  0  0
  181.3190  173.7760  137.5830 C   0  0  0  0  0  3  0  0  0  0  0  0
  180.4110  174.9590  139.4150 O   0  0  0  0  0  0  0  0  0  0  0  0
  180.2310  176.0110  137.3490 N   0  0  0  0  0  2  0  0  0  0  0  0
  180.5390  175.9980  135.9550 C   0  0  0  0  0  0  0  0  0  0  0  0
  181.5010  174.9860  135.3970 C   0  0  1  0  0  3  0  0  0  0  0  0
  189.5820  176.4150  137.6730 O   0  0  0  0  0  0  0  0  0  0  0  0
  190.8840  176.6870  138.1240 C   0  0  0  0  0  2  0  0  0  0  0  0
  193.6300  176.7430  137.3370 O   0  0  0  0  0  0  0  0  0  0  0  0
  191.7260  175.5180  137.9140 N   0  0  0  0  0  2  0  0  0  0  0  0
  193.0890  175.6170  137.4920 C   0  0  0  0  0  0  0  0  0  0  0  0
  194.1680  173.7030  138.3520 F   0  0  0  0  0  0  0  0  0  0  0  0
  193.8660  174.3810  137.1850 C   0  0  1  0  0  3  0  0  0  0  0  0
  193.0630  173.4780  136.2740 C   0  0  0  0  0  1  0  0  0  0  0  0
  189.2610  177.9390  139.6060 C   0  0  0  0  0  2  0  0  0  0  0  0
  186.0370  177.8860  144.0350 N   0  0  0  0  0  0  0  0  0  0  0  0
  185.6710  178.3020  142.8490 C   0  0  0  0  0  0  0  0  0  0  0  0
  189.4140  176.7100  141.8860 C   0  0  0  0  0  0  0  0  0  0  0  0
  188.4960  177.3660  146.7640 N   0  0  0  0  0  2  0  0  0  0  0  0
  190.4650  176.1210  141.5150 O   0  0  0  0  0  0  0  0  0  0  0  0
  188.6320  177.8040  143.9670 C   0  0  1  0  0  3  0  0  0  0  0  0
  188.9070  176.4740  143.2750 C   0  0  0  0  0  2  0  0  0  0  0  0
  187.3100  177.7570  144.6930 C   0  0  0  0  0  0  0  0  0  0  0  0
  187.2890  177.5180  146.0090 C   0  0  0  0  0  3  0  0  0  0  0  0
  189.7980  178.1990  144.8760 C   0  0  0  0  0  2  0  0  0  0  0  0
  186.5600  178.8330  141.7990 C   0  0  0  0  0  3  0  0  0  0  0  0
  189.8050  177.3200  146.1220 C   0  0  0  0  0  2  0  0  0  0  0  0
  187.6140  178.2150  141.3510 C   0  0  0  0  0  0  0  0  0  0  0  0
  188.6990  177.6060  140.9530 C   0  0  0  0  0  0  0  0  0  0  0  0
  184.2120  178.4050  142.5770 C   0  0  0  0  0  2  0  0  0  0  0  0
  183.9910  178.7790  141.1920 N   0  0  0  0  0  2  0  0  0  0  0  0
  183.4700  177.5990  140.5270 C   0  0  0  0  0  2  0  0  0  0  0  0
  182.1430  177.9320  139.8670 C   0  0  0  0  0  2  0  0  0  0  0  0
  180.3510  178.1940  141.5290 N   0  0  0  0  0  1  0  0  0  0  0  0
  181.3060  178.9050  140.6950 C   0  0  2  0  0  3  0  0  0  0  0  0
  179.2470  179.4990  139.0550 O   0  0  0  0  0  0  0  0  0  0  0  0
  180.0510  181.2760  140.5390 O   0  0  0  0  0  0  0  0  0  0  0  0
  180.4680  180.1150  139.6810 S   0  0  0  0  0  0  0  0  0  0  0  0
  181.5760  180.6940  138.4070 C   0  0  0  0  0  2  0  0  0  0  0  0
  180.7060  181.3160  136.2730 O   0  0  0  0  0  1  0  0  0  0  0  0
  181.1240  180.2240  137.0350 C   0  0  0  0  0  2  0  0  0  0  0  0
  1 29  1  6  0  0  0
  2  3  1  6  0  0  0
  2  1  1  0  0  0  0
  4  2  1  0  0  0  0
  5  7  1  0  0  0  0
  6  9  1  0  0  0  0
  6  5  1  0  0  0  0
  7  4  1  6  0  0  0
  7 10  1  0  0  0  0
  8 12  1  6  0  0  0
  8 11  1  0  0  0  0
  9  8  1  0  0  0  0
 11 10  1  0  0  0  0
 13 16  2  0  0  0  0
 14 19  2  0  0  0  0
 15 17  2  0  0  0  0
 16 15  1  0  0  0  0
 18 15  1  0  0  0  0
 19 18  1  0  0  0  0
 20 12  1  1  0  0  0
 20 19  1  0  0  0  0
 20 13  1  0  0  0  0
 21 22  1  0  0  0  0
 21  1  1  0  0  0  0
 23 25  2  0  0  0  0
 24 22  1  0  0  0  0
 25 24  1  0  0  0  0
 27 28  1  6  0  0  0
 27 25  1  0  0  0  0
 27 26  1  0  0  0  0
 29 43  1  0  0  0  0
 30 37  1  0  0  0  0
 31 30  2  0  0  0  0
 32 36  1  0  0  0  0
 34 32  2  0  0  0  0
 35 36  1  1  0  0  0
 35 37  1  0  0  0  0
 35 39  1  0  0  0  0
 37 38  2  0  0  0  0
 38 33  1  0  0  0  0
 39 41  1  0  0  0  0
 40 31  1  0  0  0  0
 41 33  1  0  0  0  0
 42 40  2  0  0  0  0
 43 42  2  0  0  0  0
 43 32  1  0  0  0  0
 44 31  1  0  0  0  0
 45 44  1  0  0  0  0
 46 45  1  0  0  0  0
 47 46  1  0  0  0  0
 47 49  1  0  0  0  0
 49 48  1  6  0  0  0
 50 52  2  0  0  0  0
 52 51  2  0  0  0  0
 52 49  1  0  0  0  0
 53 52  1  0  0  0  0
 54 55  1  0  0  0  0
 55 53  1  0  0  0  0
M  END
>  <MODEL>
5

>  <REMARK>
 VINA RESULT:      -6.4      2.684      7.072
  Name = 
  19 active torsions:
  status: ('A' for Active; 'I' for Inactive)
    1  A    between atoms: C_2  and  C_5
    2  A    between atoms: C_2  and  C_18
    3  A    between atoms: C_5  and  C_17
    4  A    between atoms: C_7  and  C_26
    5  A    between atoms: C_9  and  N_16
    6  A    between atoms: C_9  and  O_47
    7  A    between atoms: C_18  and  O_47
    8  A    between atoms: C_18  and  C_49
    9  A    between atoms: C_21  and  S_30
   10  A    between atoms: C_21  and  C_32
   11  A    between atoms: C_23  and  S_30
   12  A    between atoms: C_23  and  C_41
   13  A    between atoms: C_26  and  N_55
   14  A    between atoms: C_27  and  C_32
   15  A    between atoms: C_27  and  N_55
   16  A    between atoms: C_31  and  O_43
   17  A    between atoms: C_37  and  C_51
   18  A    between atoms: O_43  and  C_54
   19  A    between atoms: C_44  and  C_49
                            x       y       z     vdW  Elec       q    Type
                         _______ _______ _______ _____ _____    ______ ____

>  <TORSDO>
F 19

$$$$
=
 OpenBabel11062412133D

 55 58  0  0  1  0  0  0  0  0999 V2000
  184.1810  177.6780  138.4080 C   0  0  1  0  0  3  0  0  0  0  0  0
  185.4870  178.4660  138.5750 C   0  0  1  0  0  3  0  0  0  0  0  0
  185.3020  179.6830  139.2350 O   0  0  0  0  0  1  0  0  0  0  0  0
  186.6170  177.6490  139.2010 C   0  0  0  0  0  2  0  0  0  0  0  0
  188.9380  176.9290  138.4180 C   0  0  0  0  0  2  0  0  0  0  0  0
  189.2970  176.2000  139.5600 O   0  0  0  0  0  0  0  0  0  0  0  0
  188.0180  178.1070  138.7680 C   0  0  2  0  0  3  0  0  0  0  0  0
  190.0240  177.8060  141.2090 C   0  0  1  0  0  3  0  0  0  0  0  0
  190.4200  176.8560  140.0750 C   0  0  0  0  0  2  0  0  0  0  0  0
  188.6350  179.0360  139.6420 O   0  0  0  0  0  0  0  0  0  0  0  0
  188.6840  178.4940  140.9410 C   0  0  0  0  0  2  0  0  0  0  0  0
  189.9410  177.0940  142.4080 O   0  0  0  0  0  0  0  0  0  0  0  0
  188.4850  177.6160  144.2080 C   0  0  0  0  0  3  0  0  0  0  0  0
  191.8760  178.9240  143.7560 O   0  0  0  0  0  0  0  0  0  0  0  0
  189.8830  177.0610  146.1180 C   0  0  0  0  0  0  0  0  0  0  0  0
  188.5840  177.1270  145.4450 C   0  0  0  0  0  3  0  0  0  0  0  0
  189.9870  176.5000  147.2390 O   0  0  0  0  0  0  0  0  0  0  0  0
  191.0200  177.6700  145.5140 N   0  0  0  0  0  2  0  0  0  0  0  0
  190.9080  178.2680  144.2230 C   0  0  0  0  0  0  0  0  0  0  0  0
  189.6740  178.0560  143.3900 C   0  0  1  0  0  3  0  0  0  0  0  0
  183.0310  178.2880  138.9630 O   0  0  0  0  0  0  0  0  0  0  0  0
  182.5180  177.4800  139.9910 C   0  0  0  0  0  2  0  0  0  0  0  0
  184.6220  177.5280  141.9240 O   0  0  0  0  0  0  0  0  0  0  0  0
  182.5030  178.2320  141.2380 N   0  0  0  0  0  2  0  0  0  0  0  0
  183.5810  178.1890  142.1770 C   0  0  0  0  0  0  0  0  0  0  0  0
  182.4230  178.3520  144.2260 F   0  0  0  0  0  0  0  0  0  0  0  0
  183.4590  178.8920  143.4860 C   0  0  1  0  0  3  0  0  0  0  0  0
  184.7510  178.7640  144.2650 C   0  0  0  0  0  1  0  0  0  0  0  0
  183.9880  177.1200  136.9920 C   0  0  0  0  0  2  0  0  0  0  0  0
  187.7460  173.5680  135.1860 N   0  0  0  0  0  0  0  0  0  0  0  0
  187.8610  174.8690  135.1310 C   0  0  0  0  0  0  0  0  0  0  0  0
  184.3800  174.5920  137.4280 C   0  0  0  0  0  0  0  0  0  0  0  0
  185.8260  170.3930  135.1160 N   0  0  0  0  0  0  0  0  0  0  0  0
  183.4150  174.5660  138.2380 O   0  0  0  0  0  0  0  0  0  0  0  0
  185.2270  173.1160  135.6270 C   0  0  1  0  0  3  0  0  0  0  0  0
  185.1090  173.3180  137.1340 C   0  0  0  0  0  2  0  0  0  0  0  0
  186.6220  172.6720  135.2630 C   0  0  2  0  0  3  0  0  0  0  0  0
  186.8680  171.3730  135.0590 C   0  0  0  0  0  3  0  0  0  0  0  0
  184.1450  172.1610  135.1170 C   0  0  0  0  0  2  0  0  0  0  0  0
  186.7530  175.8420  135.0900 C   0  0  0  0  0  3  0  0  0  0  0  0
  184.4720  170.7330  135.5390 C   0  0  0  0  0  2  0  0  0  0  0  0
  185.7800  175.8800  135.9530 C   0  0  0  0  0  0  0  0  0  0  0  0
  184.7820  175.8670  136.7960 C   0  0  0  0  0  0  0  0  0  0  0  0
  189.2250  175.4310  134.9300 C   0  0  0  0  0  2  0  0  0  0  0  0
  190.1890  174.6870  135.7200 N   0  0  0  0  0  2  0  0  0  0  0  0
  191.4300  174.7000  134.9710 C   0  0  0  0  0  2  0  0  0  0  0  0
  192.3090  175.8380  135.4640 C   0  0  0  0  0  2  0  0  0  0  0  0
  193.2530  176.7040  137.5610 N   0  0  0  0  0  1  0  0  0  0  0  0
  193.0140  175.5040  136.7770 C   0  0  2  0  0  3  0  0  0  0  0  0
  194.9130  174.6420  135.0620 O   0  0  0  0  0  0  0  0  0  0  0  0
  195.6350  175.2650  137.3210 O   0  0  0  0  0  0  0  0  0  0  0  0
  194.5430  174.6130  136.5200 S   0  0  0  0  0  0  0  0  0  0  0  0
  194.3450  172.9230  137.0610 C   0  0  0  0  0  2  0  0  0  0  0  0
  195.4180  171.3410  138.4890 O   0  0  0  0  0  1  0  0  0  0  0  0
  195.0590  172.6850  138.3800 C   0  0  0  0  0  2  0  0  0  0  0  0
  1 29  1  6  0  0  0
  1  2  1  0  0  0  0
  1 21  1  0  0  0  0
  2  4  1  0  0  0  0
  2  3  1  1  0  0  0
  5  7  1  0  0  0  0
  5  6  1  0  0  0  0
  6  9  1  0  0  0  0
  7  4  1  1  0  0  0
  7 10  1  0  0  0  0
  8 12  1  1  0  0  0
  9  8  1  0  0  0  0
 10 11  1  0  0  0  0
 11  8  1  0  0  0  0
 13 16  2  0  0  0  0
 14 19  2  0  0  0  0
 15 17  2  0  0  0  0
 16 15  1  0  0  0  0
 18 15  1  0  0  0  0
 19 18  1  0  0  0  0
 20 12  1  6  0  0  0
 20 13  1  0  0  0  0
 20 19  1  0  0  0  0
 21 22  1  0  0  0  0
 22 24  1  0  0  0  0
 23 25  2  0  0  0  0
 24 25  1  0  0  0  0
 25 27  1  0  0  0  0
 27 26  1  0  0  0  0
 27 28  1  1  0  0  0
 30 37  1  0  0  0  0
 31 30  2  0  0  0  0
 32 34  2  0  0  0  0
 33 41  1  0  0  0  0
 35 39  1  1  0  0  0
 35 36  1  0  0  0  0
 36 32  1  0  0  0  0
 37 38  1  1  0  0  0
 37 35  1  0  0  0  0
 38 33  2  0  0  0  0
 39 41  1  0  0  0  0
 40 31  1  0  0  0  0
 40 42  2  0  0  0  0
 42 43  2  0  0  0  0
 43 29  1  0  0  0  0
 43 32  1  0  0  0  0
 44 31  1  0  0  0  0
 44 45  1  0  0  0  0
 46 47  1  0  0  0  0
 46 45  1  0  0  0  0
 47 49  1  0  0  0  0
 49 48  1  6  0  0  0
 50 52  2  0  0  0  0
 52 49  1  0  0  0  0
 52 53  1  0  0  0  0
 52 51  2  0  0  0  0
 53 55  1  0  0  0  0
 55 54  1  0  0  0  0
M  END
>  <MODEL>
6

>  <REMARK>
 VINA RESULT:      -6.2      3.449      8.086
  Name = 
  19 active torsions:
  status: ('A' for Active; 'I' for Inactive)
    1  A    between atoms: C_2  and  C_5
    2  A    between atoms: C_2  and  C_18
    3  A    between atoms: C_5  and  C_17
    4  A    between atoms: C_7  and  C_26
    5  A    between atoms: C_9  and  N_16
    6  A    between atoms: C_9  and  O_47
    7  A    between atoms: C_18  and  O_47
    8  A    between atoms: C_18  and  C_49
    9  A    between atoms: C_21  and  S_30
   10  A    between atoms: C_21  and  C_32
   11  A    between atoms: C_23  and  S_30
   12  A    between atoms: C_23  and  C_41
   13  A    between atoms: C_26  and  N_55
   14  A    between atoms: C_27  and  C_32
   15  A    between atoms: C_27  and  N_55
   16  A    between atoms: C_31  and  O_43
   17  A    between atoms: C_37  and  C_51
   18  A    between atoms: O_43  and  C_54
   19  A    between atoms: C_44  and  C_49
                            x       y       z     vdW  Elec       q    Type
                         _______ _______ _______ _____ _____    ______ ____

>  <TORSDO>
F 19

$$$$
=
 OpenBabel11062412133D

 55 58  0  0  1  0  0  0  0  0999 V2000
  189.9300  177.5430  138.2960 C   0  0  1  0  0  3  0  0  0  0  0  0
  189.2010  177.9200  139.5930 C   0  0  1  0  0  3  0  0  0  0  0  0
  187.9260  178.4400  139.3640 O   0  0  0  0  0  1  0  0  0  0  0  0
  189.1770  176.7950  140.6280 C   0  0  0  0  0  2  0  0  0  0  0  0
  189.8000  176.0270  142.9820 C   0  0  0  0  0  2  0  0  0  0  0  0
  188.4990  175.7840  143.4430 O   0  0  0  0  0  0  0  0  0  0  0  0
  189.8310  177.1770  141.9640 C   0  0  2  0  0  3  0  0  0  0  0  0
  187.5710  177.9240  144.0640 C   0  0  1  0  0  3  0  0  0  0  0  0
  188.3200  176.6670  144.5140 C   0  0  0  0  0  2  0  0  0  0  0  0
  189.3800  178.4020  142.5160 O   0  0  0  0  0  0  0  0  0  0  0  0
  187.9800  178.3650  142.6570 C   0  0  0  0  0  2  0  0  0  0  0  0
  186.1950  177.6820  144.0870 O   0  0  0  0  0  0  0  0  0  0  0  0
  184.7680  179.1720  142.9140 C   0  0  0  0  0  3  0  0  0  0  0  0
  185.3860  179.2040  146.5240 O   0  0  0  0  0  0  0  0  0  0  0  0
  182.6890  178.8960  144.1460 C   0  0  0  0  0  0  0  0  0  0  0  0
  183.4340  179.1130  142.9040 C   0  0  0  0  0  3  0  0  0  0  0  0
  181.4430  178.7330  144.1160 O   0  0  0  0  0  0  0  0  0  0  0  0
  183.3790  178.9100  145.3920 N   0  0  0  0  0  2  0  0  0  0  0  0
  184.7990  179.0530  145.4200 C   0  0  0  0  0  0  0  0  0  0  0  0
  185.6000  178.9480  144.1530 C   0  0  1  0  0  3  0  0  0  0  0  0
  189.6680  178.3850  137.1890 O   0  0  0  0  0  0  0  0  0  0  0  0
  189.2240  177.6140  136.1030 C   0  0  0  0  0  2  0  0  0  0  0  0
  187.2190  175.9480  137.2730 O   0  0  0  0  0  0  0  0  0  0  0  0
  187.7870  177.7820  135.9420 N   0  0  0  0  0  2  0  0  0  0  0  0
  186.8360  176.8930  136.5350 C   0  0  0  0  0  0  0  0  0  0  0  0
  184.8950  175.9270  135.6030 F   0  0  0  0  0  0  0  0  0  0  0  0
  185.3820  177.0520  136.2410 C   0  0  1  0  0  3  0  0  0  0  0  0
  184.6160  177.2700  137.5290 C   0  0  0  0  0  1  0  0  0  0  0  0
  191.4110  177.2090  138.5080 C   0  0  0  0  0  2  0  0  0  0  0  0
  191.4630  172.6290  135.5040 N   0  0  0  0  0  0  0  0  0  0  0  0
  190.3830  173.2300  135.9310 C   0  0  0  0  0  0  0  0  0  0  0  0
  193.2300  176.0810  137.0410 C   0  0  0  0  0  0  0  0  0  0  0  0
  195.0110  171.5760  135.7770 N   0  0  0  0  0  0  0  0  0  0  0  0
  194.0250  177.0330  137.2680 O   0  0  0  0  0  0  0  0  0  0  0  0
  193.4050  173.6130  136.9210 C   0  0  1  0  0  3  0  0  0  0  0  0
  193.7040  174.9290  136.2110 C   0  0  0  0  0  2  0  0  0  0  0  0
  192.8320  172.6100  135.9500 C   0  0  2  0  0  3  0  0  0  0  0  0
  193.6310  171.6830  135.4100 C   0  0  0  0  0  3  0  0  0  0  0  0
  194.6450  173.0930  137.6520 C   0  0  0  0  0  2  0  0  0  0  0  0
  190.2780  174.0960  137.1200 C   0  0  0  0  0  3  0  0  0  0  0  0
  195.6550  172.5550  136.6450 C   0  0  0  0  0  2  0  0  0  0  0  0
  191.0430  175.1250  137.3450 C   0  0  0  0  0  0  0  0  0  0  0  0
  191.8550  176.1210  137.5810 C   0  0  0  0  0  0  0  0  0  0  0  0
  189.0980  172.8930  135.2590 C   0  0  0  0  0  2  0  0  0  0  0  0
  188.1370  172.4180  136.2380 N   0  0  0  0  0  2  0  0  0  0  0  0
  187.1370  171.6710  135.5000 C   0  0  0  0  0  2  0  0  0  0  0  0
  185.8380  172.4590  135.4610 C   0  0  0  0  0  2  0  0  0  0  0  0
  184.2120  170.6220  135.3180 N   0  0  0  0  0  1  0  0  0  0  0  0
  184.6880  171.7210  136.1410 C   0  0  2  0  0  3  0  0  0  0  0  0
  183.7760  173.7810  137.6290 O   0  0  0  0  0  0  0  0  0  0  0  0
  182.9190  173.5800  135.3400 O   0  0  0  0  0  0  0  0  0  0  0  0
  183.3360  172.8130  136.5640 S   0  0  0  0  0  0  0  0  0  0  0  0
  181.9540  171.8500  137.1540 C   0  0  0  0  0  2  0  0  0  0  0  0
  180.2690  173.1630  138.2160 O   0  0  0  0  0  1  0  0  0  0  0  0
  180.6500  172.6100  136.9930 C   0  0  0  0  0  2  0  0  0  0  0  0
  1 29  1  1  0  0  0
  1  2  1  0  0  0  0
  2  3  1  6  0  0  0
  2  4  1  0  0  0  0
  5  6  1  0  0  0  0
  6  9  1  0  0  0  0
  7  4  1  6  0  0  0
  7 10  1  0  0  0  0
  7  5  1  0  0  0  0
  8 12  1  6  0  0  0
  8  9  1  0  0  0  0
 10 11  1  0  0  0  0
 11  8  1  0  0  0  0
 13 20  1  0  0  0  0
 15 18  1  0  0  0  0
 16 13  2  0  0  0  0
 16 15  1  0  0  0  0
 17 15  2  0  0  0  0
 18 19  1  0  0  0  0
 19 14  2  0  0  0  0
 20 12  1  6  0  0  0
 20 19  1  0  0  0  0
 21  1  1  0  0  0  0
 22 21  1  0  0  0  0
 24 22  1  0  0  0  0
 24 25  1  0  0  0  0
 25 23  2  0  0  0  0
 26 27  1  0  0  0  0
 27 25  1  0  0  0  0
 27 28  1  1  0  0  0
 30 31  2  0  0  0  0
 30 37  1  0  0  0  0
 31 40  1  0  0  0  0
 32 34  2  0  0  0  0
 32 43  1  0  0  0  0
 33 41  1  0  0  0  0
 35 36  1  6  0  0  0
 35 39  1  0  0  0  0
 36 32  1  0  0  0  0
 37 38  1  6  0  0  0
 37 35  1  0  0  0  0
 38 33  2  0  0  0  0
 40 42  2  0  0  0  0
 41 39  1  0  0  0  0
 42 43  2  0  0  0  0
 43 29  1  0  0  0  0
 44 31  1  0  0  0  0
 44 45  1  0  0  0  0
 46 45  1  0  0  0  0
 47 46  1  0  0  0  0
 47 49  1  0  0  0  0
 49 48  1  6  0  0  0
 49 52  1  0  0  0  0
 51 52  2  0  0  0  0
 52 53  1  0  0  0  0
 52 50  2  0  0  0  0
 55 53  1  0  0  0  0
 55 54  1  0  0  0  0
M  END
>  <MODEL>
7

>  <REMARK>
 VINA RESULT:      -6.1      2.511      5.007
  Name = 
  19 active torsions:
  status: ('A' for Active; 'I' for Inactive)
    1  A    between atoms: C_2  and  C_5
    2  A    between atoms: C_2  and  C_18
    3  A    between atoms: C_5  and  C_17
    4  A    between atoms: C_7  and  C_26
    5  A    between atoms: C_9  and  N_16
    6  A    between atoms: C_9  and  O_47
    7  A    between atoms: C_18  and  O_47
    8  A    between atoms: C_18  and  C_49
    9  A    between atoms: C_21  and  S_30
   10  A    between atoms: C_21  and  C_32
   11  A    between atoms: C_23  and  S_30
   12  A    between atoms: C_23  and  C_41
   13  A    between atoms: C_26  and  N_55
   14  A    between atoms: C_27  and  C_32
   15  A    between atoms: C_27  and  N_55
   16  A    between atoms: C_31  and  O_43
   17  A    between atoms: C_37  and  C_51
   18  A    between atoms: O_43  and  C_54
   19  A    between atoms: C_44  and  C_49
                            x       y       z     vdW  Elec       q    Type
                         _______ _______ _______ _____ _____    ______ ____

>  <TORSDO>
F 19

$$$$
=
 OpenBabel11062412133D

 55 58  0  0  1  0  0  0  0  0999 V2000
  188.5000  177.6560  138.5280 C   0  0  1  0  0  3  0  0  0  0  0  0
  188.8110  176.1620  138.3650 C   0  0  1  0  0  3  0  0  0  0  0  0
  188.0390  175.5560  137.3720 O   0  0  0  0  0  1  0  0  0  0  0  0
  190.2990  175.8640  138.1860 C   0  0  0  0  0  2  0  0  0  0  0  0
  190.4040  174.7810  135.8770 C   0  0  0  0  0  2  0  0  0  0  0  0
  191.1410  173.6460  136.2420 O   0  0  0  0  0  0  0  0  0  0  0  0
  190.7810  175.9970  136.7330 C   0  0  2  0  0  3  0  0  0  0  0  0
  193.4540  174.3280  136.3550 C   0  0  1  0  0  3  0  0  0  0  0  0
  192.3280  173.7300  135.5060 C   0  0  0  0  0  2  0  0  0  0  0  0
  192.1440  176.3590  136.5910 O   0  0  0  0  0  0  0  0  0  0  0  0
  192.9480  175.4330  137.2840 C   0  0  0  0  0  2  0  0  0  0  0  0
  194.0470  173.3210  137.1210 O   0  0  0  0  0  0  0  0  0  0  0  0
  195.7840  174.2880  135.8240 C   0  0  0  0  0  3  0  0  0  0  0  0
  196.0720  171.2560  137.8580 O   0  0  0  0  0  0  0  0  0  0  0  0
  197.5340  174.5350  137.4940 C   0  0  0  0  0  0  0  0  0  0  0  0
  196.8050  174.9950  136.3100 C   0  0  0  0  0  3  0  0  0  0  0  0
  198.4230  175.2580  138.0110 O   0  0  0  0  0  0  0  0  0  0  0  0
  197.2570  173.2460  138.0330 N   0  0  0  0  0  2  0  0  0  0  0  0
  196.2190  172.4440  137.4700 C   0  0  0  0  0  0  0  0  0  0  0  0
  195.2560  173.0330  136.4760 C   0  0  1  0  0  3  0  0  0  0  0  0
  187.1380  178.0090  138.3870 O   0  0  0  0  0  0  0  0  0  0  0  0
  186.9410  178.6490  137.1520 C   0  0  0  0  0  2  0  0  0  0  0  0
  184.3880  177.5270  137.7750 O   0  0  0  0  0  0  0  0  0  0  0  0
  186.1610  177.7850  136.2770 N   0  0  0  0  0  2  0  0  0  0  0  0
  184.8990  177.2330  136.6630 C   0  0  0  0  0  0  0  0  0  0  0  0
  183.7870  175.1600  136.4850 F   0  0  0  0  0  0  0  0  0  0  0  0
  184.2020  176.2670  135.7670 C   0  0  1  0  0  3  0  0  0  0  0  0
  183.0010  176.9290  135.1260 C   0  0  0  0  0  1  0  0  0  0  0  0
  189.2040  178.2930  139.7330 C   0  0  0  0  0  2  0  0  0  0  0  0
  185.7150  177.8930  143.9380 N   0  0  0  0  0  0  0  0  0  0  0  0
  185.4150  178.3810  142.7620 C   0  0  0  0  0  0  0  0  0  0  0  0
  189.2410  176.9170  141.9330 C   0  0  0  0  0  0  0  0  0  0  0  0
  188.0110  177.2300  146.7760 N   0  0  0  0  0  2  0  0  0  0  0  0
  190.3240  176.3710  141.5910 O   0  0  0  0  0  0  0  0  0  0  0  0
  188.3100  177.8570  144.0280 C   0  0  1  0  0  3  0  0  0  0  0  0
  188.6540  176.5800  143.2680 C   0  0  0  0  0  2  0  0  0  0  0  0
  186.9480  177.7390  144.6650 C   0  0  0  0  0  0  0  0  0  0  0  0
  186.8500  177.4130  145.9580 C   0  0  0  0  0  3  0  0  0  0  0  0
  189.4100  178.2080  145.0330 C   0  0  0  0  0  2  0  0  0  0  0  0
  186.3560  178.9950  141.8060 C   0  0  0  0  0  3  0  0  0  0  0  0
  189.3580  177.2480  146.2160 C   0  0  0  0  0  2  0  0  0  0  0  0
  187.4470  178.4250  141.3850 C   0  0  0  0  0  0  0  0  0  0  0  0
  188.5660  177.8610  141.0170 C   0  0  0  0  0  0  0  0  0  0  0  0
  183.9730  178.4790  142.4060 C   0  0  0  0  0  2  0  0  0  0  0  0
  183.2160  178.9780  143.5390 N   0  0  0  0  0  2  0  0  0  0  0  0
  181.8150  178.8420  143.1870 C   0  0  0  0  0  2  0  0  0  0  0  0
  181.6470  179.0240  141.6880 C   0  0  0  0  0  2  0  0  0  0  0  0
  179.7210  177.5880  142.2030 N   0  0  0  0  0  1  0  0  0  0  0  0
  180.3950  178.3330  141.1530 C   0  0  2  0  0  3  0  0  0  0  0  0
  182.0190  176.4990  140.0170 O   0  0  0  0  0  0  0  0  0  0  0  0
  179.6150  176.2980  139.5800 O   0  0  0  0  0  0  0  0  0  0  0  0
  180.7500  177.2660  139.7620 S   0  0  0  0  0  0  0  0  0  0  0  0
  180.9240  178.2520  138.2850 C   0  0  0  0  0  2  0  0  0  0  0  0
  179.0730  179.1200  137.0540 O   0  0  0  0  0  1  0  0  0  0  0  0
  179.8090  177.9590  137.2970 C   0  0  0  0  0  2  0  0  0  0  0  0
  1 29  1  1  0  0  0
  2  3  1  6  0  0  0
  2  1  1  0  0  0  0
  4  2  1  0  0  0  0
  5  6  1  0  0  0  0
  5  7  1  0  0  0  0
  7  4  1  1  0  0  0
  8 12  1  1  0  0  0
  8 11  1  0  0  0  0
  9  6  1  0  0  0  0
  9  8  1  0  0  0  0
 10  7  1  0  0  0  0
 10 11  1  0  0  0  0
 13 16  2  0  0  0  0
 13 20  1  0  0  0  0
 15 17  2  0  0  0  0
 15 18  1  0  0  0  0
 16 15  1  0  0  0  0
 19 14  2  0  0  0  0
 19 18  1  0  0  0  0
 20 12  1  1  0  0  0
 20 19  1  0  0  0  0
 21  1  1  0  0  0  0
 22 21  1  0  0  0  0
 24 25  1  0  0  0  0
 24 22  1  0  0  0  0
 25 23  2  0  0  0  0
 27 28  1  1  0  0  0
 27 26  1  0  0  0  0
 27 25  1  0  0  0  0
 29 43  1  0  0  0  0
 30 37  1  0  0  0  0
 31 30  2  0  0  0  0
 32 36  1  0  0  0  0
 34 32  2  0  0  0  0
 35 36  1  1  0  0  0
 35 37  1  0  0  0  0
 35 39  1  0  0  0  0
 37 38  2  0  0  0  0
 38 33  1  0  0  0  0
 39 41  1  0  0  0  0
 40 31  1  0  0  0  0
 41 33  1  0  0  0  0
 42 40  2  0  0  0  0
 43 42  2  0  0  0  0
 43 32  1  0  0  0  0
 44 31  1  0  0  0  0
 44 45  1  0  0  0  0
 46 45  1  0  0  0  0
 47 46  1  0  0  0  0
 49 47  1  0  0  0  0
 49 48  1  1  0  0  0
 51 52  2  0  0  0  0
 52 50  2  0  0  0  0
 52 49  1  0  0  0  0
 53 52  1  0  0  0  0
 54 55  1  0  0  0  0
 55 53  1  0  0  0  0
M  END
>  <MODEL>
8

>  <REMARK>
 VINA RESULT:      -6.0      3.070      9.292
  Name = 
  19 active torsions:
  status: ('A' for Active; 'I' for Inactive)
    1  A    between atoms: C_2  and  C_5
    2  A    between atoms: C_2  and  C_18
    3  A    between atoms: C_5  and  C_17
    4  A    between atoms: C_7  and  C_26
    5  A    between atoms: C_9  and  N_16
    6  A    between atoms: C_9  and  O_47
    7  A    between atoms: C_18  and  O_47
    8  A    between atoms: C_18  and  C_49
    9  A    between atoms: C_21  and  S_30
   10  A    between atoms: C_21  and  C_32
   11  A    between atoms: C_23  and  S_30
   12  A    between atoms: C_23  and  C_41
   13  A    between atoms: C_26  and  N_55
   14  A    between atoms: C_27  and  C_32
   15  A    between atoms: C_27  and  N_55
   16  A    between atoms: C_31  and  O_43
   17  A    between atoms: C_37  and  C_51
   18  A    between atoms: O_43  and  C_54
   19  A    between atoms: C_44  and  C_49
                            x       y       z     vdW  Elec       q    Type
                         _______ _______ _______ _____ _____    ______ ____

>  <TORSDO>
F 19

$$$$
=
 OpenBabel11062412133D

 55 58  0  0  1  0  0  0  0  0999 V2000
  191.1170  176.9690  139.4070 C   0  0  1  0  0  3  0  0  0  0  0  0
  190.9480  176.1570  138.1150 C   0  0  1  0  0  3  0  0  0  0  0  0
  190.7420  174.7980  138.3550 O   0  0  0  0  0  1  0  0  0  0  0  0
  189.8960  176.7310  137.1670 C   0  0  0  0  0  2  0  0  0  0  0  0
  188.6860  176.0480  135.0250 C   0  0  0  0  0  2  0  0  0  0  0  0
  187.7570  177.0970  134.9990 O   0  0  0  0  0  0  0  0  0  0  0  0
  189.0530  175.6560  136.4630 C   0  0  2  0  0  3  0  0  0  0  0  0
  185.9950  176.5030  136.5390 C   0  0  1  0  0  3  0  0  0  0  0  0
  186.5050  176.4790  135.0950 C   0  0  0  0  0  2  0  0  0  0  0  0
  187.9340  175.2010  137.2040 O   0  0  0  0  0  0  0  0  0  0  0  0
  187.1240  176.3000  137.5510 C   0  0  0  0  0  2  0  0  0  0  0  0
  185.3660  177.7240  136.7920 O   0  0  0  0  0  0  0  0  0  0  0  0
  184.8340  178.2700  139.0400 C   0  0  0  0  0  3  0  0  0  0  0  0
  182.4920  176.9570  136.5490 O   0  0  0  0  0  0  0  0  0  0  0  0
  182.9690  179.7990  138.7210 C   0  0  0  0  0  0  0  0  0  0  0  0
  184.1740  179.3620  139.4310 C   0  0  0  0  0  3  0  0  0  0  0  0
  182.4150  180.8860  139.0250 O   0  0  0  0  0  0  0  0  0  0  0  0
  182.4070  178.9660  137.7110 N   0  0  0  0  0  2  0  0  0  0  0  0
  183.0620  177.7540  137.3390 C   0  0  0  0  0  0  0  0  0  0  0  0
  184.4560  177.4610  137.8230 C   0  0  1  0  0  3  0  0  0  0  0  0
  192.3690  177.6100  139.5590 O   0  0  0  0  0  0  0  0  0  0  0  0
  193.4030  176.6850  139.3440 C   0  0  0  0  0  2  0  0  0  0  0  0
  194.4320  174.4110  137.9510 O   0  0  0  0  0  0  0  0  0  0  0  0
  193.7260  176.6390  137.9250 N   0  0  0  0  0  2  0  0  0  0  0  0
  194.2660  175.4730  137.2950 C   0  0  0  0  0  0  0  0  0  0  0  0
  194.2400  176.6950  135.2770 F   0  0  0  0  0  0  0  0  0  0  0  0
  194.6810  175.5230  135.8640 C   0  0  1  0  0  3  0  0  0  0  0  0
  196.1900  175.4460  135.7600 C   0  0  0  0  0  1  0  0  0  0  0  0
  189.9040  177.8500  139.7300 C   0  0  0  0  0  2  0  0  0  0  0  0
  186.6320  177.7490  144.1230 N   0  0  0  0  0  0  0  0  0  0  0  0
  186.2900  178.2100  142.9470 C   0  0  0  0  0  0  0  0  0  0  0  0
  190.0010  176.5500  141.9740 C   0  0  0  0  0  0  0  0  0  0  0  0
  189.0480  177.0840  146.8600 N   0  0  0  0  0  2  0  0  0  0  0  0
  191.0410  175.9460  141.5960 O   0  0  0  0  0  0  0  0  0  0  0  0
  189.2250  177.6020  144.0790 C   0  0  1  0  0  3  0  0  0  0  0  0
  189.4730  176.2860  143.3500 C   0  0  0  0  0  2  0  0  0  0  0  0
  187.8950  177.5670  144.7900 C   0  0  0  0  0  0  0  0  0  0  0  0
  187.8530  177.2900  146.0980 C   0  0  0  0  0  3  0  0  0  0  0  0
  190.3910  177.9390  145.0120 C   0  0  0  0  0  2  0  0  0  0  0  0
  187.2040  178.7490  141.9220 C   0  0  0  0  0  3  0  0  0  0  0  0
  190.3620  177.0240  146.2300 C   0  0  0  0  0  2  0  0  0  0  0  0
  188.2460  178.1170  141.4660 C   0  0  0  0  0  0  0  0  0  0  0  0
  189.3190  177.4910  141.0610 C   0  0  0  0  0  0  0  0  0  0  0  0
  184.8370  178.3580  142.6640 C   0  0  0  0  0  2  0  0  0  0  0  0
  184.2970  179.4750  143.4180 N   0  0  0  0  0  2  0  0  0  0  0  0
  182.8830  179.2030  143.5950 C   0  0  0  0  0  2  0  0  0  0  0  0
  182.3500  178.4650  142.3790 C   0  0  0  0  0  2  0  0  0  0  0  0
  180.2360  179.5790  142.9510 N   0  0  0  0  0  1  0  0  0  0  0  0
  181.0440  179.0610  141.8600 C   0  0  2  0  0  3  0  0  0  0  0  0
  181.0360  177.0440  140.0660 O   0  0  0  0  0  0  0  0  0  0  0  0
  179.3090  177.0090  141.8070 O   0  0  0  0  0  0  0  0  0  0  0  0
  180.1030  177.8940  140.8860 S   0  0  0  0  0  0  0  0  0  0  0  0
  178.9860  178.7780  139.8120 C   0  0  0  0  0  2  0  0  0  0  0  0
  179.6260  180.8550  138.8270 O   0  0  0  0  0  1  0  0  0  0  0  0
  179.1250  180.2790  139.9950 C   0  0  0  0  0  2  0  0  0  0  0  0
  1 21  1  0  0  0  0
  1 29  1  6  0  0  0
  2  3  1  1  0  0  0
  2  1  1  0  0  0  0
  4  2  1  0  0  0  0
  5  7  1  0  0  0  0
  6  5  1  0  0  0  0
  6  9  1  0  0  0  0
  7  4  1  1  0  0  0
  7 10  1  0  0  0  0
  8 12  1  1  0  0  0
  8 11  1  0  0  0  0
  9  8  1  0  0  0  0
 10 11  1  0  0  0  0
 13 16  2  0  0  0  0
 14 19  2  0  0  0  0
 15 17  2  0  0  0  0
 15 16  1  0  0  0  0
 18 15  1  0  0  0  0
 19 18  1  0  0  0  0
 19 20  1  0  0  0  0
 20 12  1  6  0  0  0
 20 13  1  0  0  0  0
 22 21  1  0  0  0  0
 24 22  1  0  0  0  0
 25 24  1  0  0  0  0
 25 23  2  0  0  0  0
 26 27  1  0  0  0  0
 27 28  1  1  0  0  0
 27 25  1  0  0  0  0
 29 43  1  0  0  0  0
 30 37  1  0  0  0  0
 31 30  2  0  0  0  0
 32 36  1  0  0  0  0
 34 32  2  0  0  0  0
 35 36  1  1  0  0  0
 35 37  1  0  0  0  0
 35 39  1  0  0  0  0
 37 38  2  0  0  0  0
 38 33  1  0  0  0  0
 39 41  1  0  0  0  0
 40 31  1  0  0  0  0
 41 33  1  0  0  0  0
 42 40  2  0  0  0  0
 43 42  2  0  0  0  0
 43 32  1  0  0  0  0
 44 31  1  0  0  0  0
 44 45  1  0  0  0  0
 45 46  1  0  0  0  0
 47 46  1  0  0  0  0
 49 47  1  0  0  0  0
 49 48  1  1  0  0  0
 50 52  2  0  0  0  0
 52 51  2  0  0  0  0
 52 49  1  0  0  0  0
 53 55  1  0  0  0  0
 53 52  1  0  0  0  0
 54 55  1  0  0  0  0
M  END
>  <MODEL>
9

>  <REMARK>
 VINA RESULT:      -6.0      2.932      6.732
  Name = 
  19 active torsions:
  status: ('A' for Active; 'I' for Inactive)
    1  A    between atoms: C_2  and  C_5
    2  A    between atoms: C_2  and  C_18
    3  A    between atoms: C_5  and  C_17
    4  A    between atoms: C_7  and  C_26
    5  A    between atoms: C_9  and  N_16
    6  A    between atoms: C_9  and  O_47
    7  A    between atoms: C_18  and  O_47
    8  A    between atoms: C_18  and  C_49
    9  A    between atoms: C_21  and  S_30
   10  A    between atoms: C_21  and  C_32
   11  A    between atoms: C_23  and  S_30
   12  A    between atoms: C_23  and  C_41
   13  A    between atoms: C_26  and  N_55
   14  A    between atoms: C_27  and  C_32
   15  A    between atoms: C_27  and  N_55
   16  A    between atoms: C_31  and  O_43
   17  A    between atoms: C_37  and  C_51
   18  A    between atoms: O_43  and  C_54
   19  A    between atoms: C_44  and  C_49
                            x       y       z     vdW  Elec       q    Type
                         _______ _______ _______ _____ _____    ______ ____

>  <TORSDO>
F 19

$$$$
