=
 OpenBabel11062417203D

 60 65  0  0  1  0  0  0  0  0999 V2000
  185.2650  177.5340  141.9390 O   0  0  0  0  0  0  0  0  0  0  0  0
  185.8650  179.1500  144.2600 C   0  0  1  0  0  3  0  0  0  0  0  0
  186.8030  178.0410  143.7420 C   0  0  1  0  0  3  0  0  0  0  0  0
  184.2310  178.2590  142.5600 C   0  0  1  0  0  3  0  0  0  0  0  0
  184.7940  179.5190  143.2290 C   0  0  0  0  0  2  0  0  0  0  0  0
  186.0310  176.9610  142.9700 C   0  0  0  0  0  2  0  0  0  0  0  0
  185.6230  179.5670  146.6020 O   0  0  0  0  0  1  0  0  0  0  0  0
  185.2080  178.7300  145.5650 C   0  0  0  0  0  2  0  0  0  0  0  0
  188.0350  178.5570  142.9780 C   0  0  2  0  0  3  0  0  0  0  0  0
  189.7000  178.0170  141.1980 C   0  0  0  0  0  2  0  0  0  0  0  0
  188.4050  178.4080  140.5210 C   0  0  2  0  0  3  0  0  0  0  0  0
  188.3740  177.6250  141.8200 C   0  0  2  0  0  3  0  0  0  0  0  0
  188.0950  177.4520  139.3880 C   0  0  0  0  0  2  0  0  0  0  0  0
  187.9620  178.2210  138.0920 C   0  0  0  0  0  2  0  0  0  0  0  0
  189.3130  178.2650  137.3970 C   0  0  0  0  0  2  0  0  0  0  0  0
  189.8460  176.8640  137.0930 C   0  0  2  0  0  3  0  0  0  0  0  0
  191.1370  175.4870  138.6350 N   0  0  0  0  0  1  0  0  0  0  0  0
  192.1650  176.3790  136.7550 O   0  0  0  0  0  1  0  0  0  0  0  0
  191.2080  176.6290  137.7410 C   0  0  1  0  0  3  0  0  0  0  0  0
  189.9140  176.6580  135.7120 O   0  0  0  0  0  0  0  0  0  0  0  0
  188.7140  176.0190  135.3870 C   0  0  0  0  0  2  0  0  0  0  0  0
  188.6410  174.6580  136.0630 C   0  0  0  0  0  2  0  0  0  0  0  0
  187.3000  174.4650  136.7560 C   0  0  2  0  0  3  0  0  0  0  0  0
  186.9340  172.9800  136.7250 C   0  0  0  0  0  2  0  0  0  0  0  0
  184.8580  175.0560  136.7240 C   0  0  0  0  0  2  0  0  0  0  0  0
  184.5000  173.5700  136.6950 C   0  0  2  0  0  3  0  0  0  0  0  0
  186.2130  175.2830  136.0530 C   0  0  0  0  0  2  0  0  0  0  0  0
  183.2750  173.3730  137.3320 O   0  0  0  0  0  1  0  0  0  0  0  0
  185.5820  172.7560  137.4010 C   0  0  0  0  0  2  0  0  0  0  0  0
  189.2540  178.7370  143.8830 C   0  0  0  0  0  2  0  0  0  0  0  0
  189.0980  177.9880  146.0490 O   0  0  0  0  0  0  0  0  0  0  0  0
  191.8450  178.1550  144.7440 C   0  0  0  0  0  1  0  0  0  0  0  0
  189.3970  177.5890  144.7820 N   0  0  0  0  0  0  0  0  0  0  0  0
  190.7620  177.0800  144.8520 C   0  0  0  0  0  0  0  0  0  0  0  0
  189.6160  177.0220  146.8660 N   0  0  0  0  0  2  0  0  0  0  0  0
  190.9780  175.9910  143.8200 C   0  0  0  0  0  1  0  0  0  0  0  0
  190.8130  176.5110  146.2220 C   0  0  0  0  0  2  0  0  0  0  0  0
  183.1390  178.6150  141.5520 C   0  0  0  0  0  2  0  0  0  0  0  0
  183.6870  179.3070  140.3070 C   0  0  0  0  0  2  0  0  0  0  0  0
  183.6900  178.3540  139.1210 C   0  0  0  0  0  2  0  0  0  0  0  0
  182.3870  177.6300  138.9910 C   0  0  0  0  0  0  0  0  0  0  0  0
  182.2020  176.5060  139.6950 C   0  0  0  0  0  3  0  0  0  0  0  0
  179.9780  175.7280  140.4470 O   0  0  0  0  0  0  0  0  0  0  0  0
  180.8490  174.6670  138.7320 N   0  0  0  0  0  0  0  0  0  0  0  0
  178.9600  173.0730  138.3570 C   0  0  0  0  0  1  0  0  0  0  0  0
  179.0970  174.8310  140.1260 N   0  0  0  0  0  0  0  0  0  0  0  0
  181.0090  175.6450  139.6420 C   0  0  0  0  0  0  0  0  0  0  0  0
  179.6380  174.1840  139.0790 C   0  0  0  0  0  0  0  0  0  0  0  0
  181.7020  177.6970  136.5920 C   0  0  0  0  0  2  0  0  0  0  0  0
  181.3690  178.1340  138.0120 C   0  0  2  0  0  3  0  0  0  0  0  0
  180.8760  179.8870  136.2860 C   0  0  1  0  0  3  0  0  0  0  0  0
  181.2710  179.9550  138.0260 S   0  0  0  0  0  0  0  0  0  0  0  0
  181.0920  178.7170  135.6990 C   0  0  0  0  0  2  0  0  0  0  0  0
  180.1480  181.0040  135.6050 C   0  0  0  0  0  2  0  0  0  0  0  0
  180.3330  183.3490  135.3250 C   0  0  0  0  0  3  0  0  0  0  0  0
  180.7970  182.2700  135.8450 N   0  0  0  0  0  0  0  0  0  0  0  0
  180.9880  184.6770  135.5820 C   0  0  0  0  0  2  0  0  0  0  0  0
  179.9670  184.4290  137.8040 N   0  0  0  0  0  1  0  0  0  0  0  0
  181.0800  185.0140  137.0690 C   0  0  1  0  0  3  0  0  0  0  0  0
  182.2920  184.5630  137.5990 O   0  0  0  0  0  1  0  0  0  0  0  0
  1  4  1  0  0  0  0
  1  6  1  0  0  0  0
  2  8  1  1  0  0  0
  3  9  1  6  0  0  0
  3  2  1  0  0  0  0
  4 38  1  6  0  0  0
  4  5  1  0  0  0  0
  5  2  1  0  0  0  0
  6  3  1  0  0  0  0
  8  7  1  0  0  0  0
  9 30  1  1  0  0  0
 10 12  1  0  0  0  0
 11 13  1  6  0  0  0
 11 10  1  0  0  0  0
 11 12  1  0  0  0  0
 12  9  1  1  0  0  0
 14 13  1  0  0  0  0
 15 14  1  0  0  0  0
 16 15  1  6  0  0  0
 16 19  1  0  0  0  0
 19 18  1  6  0  0  0
 19 17  1  0  0  0  0
 20 16  1  0  0  0  0
 21 20  1  0  0  0  0
 21 22  1  0  0  0  0
 23 22  1  6  0  0  0
 24 23  1  0  0  0  0
 24 29  1  0  0  0  0
 26 25  1  0  0  0  0
 26 28  1  1  0  0  0
 26 29  1  0  0  0  0
 27 25  1  0  0  0  0
 27 23  1  0  0  0  0
 30 33  1  0  0  0  0
 31 35  1  0  0  0  0
 32 34  1  0  0  0  0
 33 34  1  0  0  0  0
 33 31  1  0  0  0  0
 34 37  1  0  0  0  0
 36 34  1  0  0  0  0
 37 35  1  0  0  0  0
 39 38  1  0  0  0  0
 40 39  1  0  0  0  0
 41 40  1  0  0  0  0
 41 42  2  0  0  0  0
 44 48  1  0  0  0  0
 44 47  2  0  0  0  0
 45 48  1  0  0  0  0
 46 43  1  0  0  0  0
 47 42  1  0  0  0  0
 47 43  1  0  0  0  0
 48 46  2  0  0  0  0
 49 50  1  0  0  0  0
 50 52  1  0  0  0  0
 50 41  1  1  0  0  0
 51 54  1  1  0  0  0
 51 52  1  0  0  0  0
 53 51  1  0  0  0  0
 53 49  1  0  0  0  0
 54 56  1  0  0  0  0
 55 57  1  0  0  0  0
 55 56  2  0  0  0  0
 57 59  1  0  0  0  0
 59 60  1  1  0  0  0
 59 58  1  0  0  0  0
M  END
>  <MODEL>
1

>  <REMARK>
 VINA RESULT:      -5.7      0.000      0.000
  Name = 
  24 active torsions:
  status: ('A' for Active; 'I' for Inactive)
    1  A    between atoms: C_2  and  C_16
    2  A    between atoms: C_2  and  O_24
    3  A    between atoms: C_2  and  C_48
    4  A    between atoms: C_5  and  C_25
    5  A    between atoms: C_7  and  C_29
    6  A    between atoms: C_7  and  C_35
    7  A    between atoms: C_10  and  C_12
    8  A    between atoms: C_10  and  C_50
    9  A    between atoms: C_14  and  C_27
   10  A    between atoms: C_14  and  C_30
   11  A    between atoms: C_15  and  C_25
   12  A    between atoms: C_16  and  C_27
   13  A    between atoms: C_17  and  C_23
   14  A    between atoms: C_17  and  C_39
   15  A    between atoms: C_17  and  C_59
   16  A    between atoms: C_18  and  C_19
   17  A    between atoms: C_18  and  C_40
   18  A    between atoms: C_19  and  C_35
   19  A    between atoms: C_21  and  C_60
   20  A    between atoms: O_24  and  C_50
   21  A    between atoms: N_34  and  C_55
   22  A    between atoms: N_36  and  C_39
   23  A    between atoms: C_37  and  C_44
   24  A    between atoms: C_41  and  C_55
                            x       y       z     vdW  Elec       q    Type
                         _______ _______ _______ _____ _____    ______ ____

>  <TORSDO>
F 24

$$$$
=
 OpenBabel11062417203D

 60 65  0  0  1  0  0  0  0  0999 V2000
  184.1270  176.3260  137.2610 O   0  0  0  0  0  0  0  0  0  0  0  0
  181.5000  176.7880  136.1460 C   0  0  1  0  0  3  0  0  0  0  0  0
  181.7400  176.4960  137.6400 C   0  0  1  0  0  3  0  0  0  0  0  0
  183.9410  176.2270  135.8700 C   0  0  1  0  0  3  0  0  0  0  0  0
  182.8000  177.1460  135.4190 C   0  0  0  0  0  2  0  0  0  0  0  0
  183.0270  175.6880  137.8610 C   0  0  0  0  0  2  0  0  0  0  0  0
  180.2940  174.7420  136.4270 O   0  0  0  0  0  1  0  0  0  0  0  0
  180.8350  175.6000  135.4680 C   0  0  0  0  0  2  0  0  0  0  0  0
  181.6460  177.7320  138.5530 C   0  0  2  0  0  3  0  0  0  0  0  0
  181.8950  178.5120  140.9110 C   0  0  0  0  0  2  0  0  0  0  0  0
  183.2600  178.5550  140.2600 C   0  0  2  0  0  3  0  0  0  0  0  0
  182.2870  177.4470  139.9060 C   0  0  2  0  0  3  0  0  0  0  0  0
  184.3060  177.9840  141.1930 C   0  0  0  0  0  2  0  0  0  0  0  0
  185.4510  178.9630  141.3390 C   0  0  0  0  0  2  0  0  0  0  0  0
  185.5210  179.4370  142.7800 C   0  0  0  0  0  2  0  0  0  0  0  0
  184.8050  178.4800  143.7340 C   0  0  2  0  0  3  0  0  0  0  0  0
  183.2380  180.3200  144.0560 N   0  0  0  0  0  1  0  0  0  0  0  0
  182.9830  178.3650  145.2810 O   0  0  0  0  0  1  0  0  0  0  0  0
  183.9270  179.2340  144.7300 C   0  0  1  0  0  3  0  0  0  0  0  0
  185.7300  177.6740  144.4020 O   0  0  0  0  0  0  0  0  0  0  0  0
  186.6950  178.5630  144.8850 C   0  0  0  0  0  2  0  0  0  0  0  0
  187.0940  178.1890  146.3050 C   0  0  0  0  0  2  0  0  0  0  0  0
  188.3360  177.3100  146.3100 C   0  0  2  0  0  3  0  0  0  0  0  0
  189.0590  177.4800  147.6460 C   0  0  0  0  0  2  0  0  0  0  0  0
  190.5360  176.8430  145.1900 C   0  0  0  0  0  2  0  0  0  0  0  0
  191.2520  177.0130  146.5290 C   0  0  2  0  0  3  0  0  0  0  0  0
  189.2690  177.6980  145.1590 C   0  0  0  0  0  2  0  0  0  0  0  0
  192.3910  176.2080  146.5540 O   0  0  0  0  0  1  0  0  0  0  0  0
  190.3220  176.6200  147.6750 C   0  0  0  0  0  2  0  0  0  0  0  0
  180.2080  178.2130  138.7430 C   0  0  0  0  0  2  0  0  0  0  0  0
  179.1150  179.6800  140.1320 O   0  0  0  0  0  0  0  0  0  0  0  0
  179.1080  180.2120  137.1330 C   0  0  0  0  0  1  0  0  0  0  0  0
  180.1910  179.5650  139.3060 N   0  0  0  0  0  0  0  0  0  0  0  0
  180.0160  180.6060  138.2990 C   0  0  0  0  0  0  0  0  0  0  0  0
  178.9310  181.0240  140.3050 N   0  0  0  0  0  2  0  0  0  0  0  0
  181.3600  181.0930  137.7960 C   0  0  0  0  0  1  0  0  0  0  0  0
  179.3340  181.6750  139.0710 C   0  0  0  0  0  2  0  0  0  0  0  0
  185.2360  176.5560  135.1260 C   0  0  0  0  0  2  0  0  0  0  0  0
  186.2980  175.4700  135.2790 C   0  0  0  0  0  2  0  0  0  0  0  0
  187.6810  176.0260  134.9760 C   0  0  0  0  0  2  0  0  0  0  0  0
  188.3800  176.4740  136.2210 C   0  0  0  0  0  0  0  0  0  0  0  0
  187.6510  176.9860  137.2200 C   0  0  0  0  0  3  0  0  0  0  0  0
  187.9740  178.7330  138.9420 O   0  0  0  0  0  0  0  0  0  0  0  0
  188.9470  176.8000  139.3240 N   0  0  0  0  0  0  0  0  0  0  0  0
  189.9670  177.3930  141.5280 C   0  0  0  0  0  1  0  0  0  0  0  0
  188.5750  178.8800  140.0830 N   0  0  0  0  0  0  0  0  0  0  0  0
  188.1820  177.5220  138.4840 C   0  0  0  0  0  0  0  0  0  0  0  0
  189.1710  177.6950  140.3070 C   0  0  0  0  0  0  0  0  0  0  0  0
  190.4780  176.2990  134.8790 C   0  0  0  0  0  2  0  0  0  0  0  0
  189.8790  176.4190  136.2740 C   0  0  2  0  0  3  0  0  0  0  0  0
  191.8800  174.9110  136.1740 C   0  0  1  0  0  3  0  0  0  0  0  0
  190.4630  174.9990  137.2560 S   0  0  0  0  0  0  0  0  0  0  0  0
  191.7880  175.6200  135.0570 C   0  0  0  0  0  2  0  0  0  0  0  0
  193.1580  174.2630  136.6100 C   0  0  0  0  0  2  0  0  0  0  0  0
  195.4770  174.3910  136.1370 C   0  0  0  0  0  3  0  0  0  0  0  0
  194.2940  174.8520  135.9410 N   0  0  0  0  0  0  0  0  0  0  0  0
  196.6650  174.9830  135.4330 C   0  0  0  0  0  2  0  0  0  0  0  0
  199.0940  175.3540  135.4760 N   0  0  0  0  0  1  0  0  0  0  0  0
  197.9710  174.7690  136.1960 C   0  0  1  0  0  3  0  0  0  0  0  0
  197.8850  175.3200  137.4770 O   0  0  0  0  0  1  0  0  0  0  0  0
  1  6  1  0  0  0  0
  2  8  1  6  0  0  0
  2  3  1  0  0  0  0
  3  6  1  0  0  0  0
  3  9  1  1  0  0  0
  4 38  1  6  0  0  0
  4  1  1  0  0  0  0
  5  4  1  0  0  0  0
  5  2  1  0  0  0  0
  8  7  1  0  0  0  0
  9 30  1  1  0  0  0
 11 10  1  0  0  0  0
 11 13  1  1  0  0  0
 12  9  1  6  0  0  0
 12 11  1  0  0  0  0
 12 10  1  0  0  0  0
 13 14  1  0  0  0  0
 14 15  1  0  0  0  0
 16 15  1  1  0  0  0
 16 20  1  0  0  0  0
 16 19  1  0  0  0  0
 19 17  1  6  0  0  0
 19 18  1  0  0  0  0
 20 21  1  0  0  0  0
 21 22  1  0  0  0  0
 23 22  1  1  0  0  0
 23 24  1  0  0  0  0
 24 29  1  0  0  0  0
 25 26  1  0  0  0  0
 26 28  1  6  0  0  0
 26 29  1  0  0  0  0
 27 25  1  0  0  0  0
 27 23  1  0  0  0  0
 30 33  1  0  0  0  0
 31 35  1  0  0  0  0
 32 34  1  0  0  0  0
 33 31  1  0  0  0  0
 34 37  1  0  0  0  0
 34 33  1  0  0  0  0
 36 34  1  0  0  0  0
 37 35  1  0  0  0  0
 38 39  1  0  0  0  0
 40 39  1  0  0  0  0
 40 41  1  0  0  0  0
 41 42  2  0  0  0  0
 42 47  1  0  0  0  0
 43 46  1  0  0  0  0
 44 48  1  0  0  0  0
 46 48  2  0  0  0  0
 47 43  1  0  0  0  0
 47 44  2  0  0  0  0
 48 45  1  0  0  0  0
 49 53  1  0  0  0  0
 49 50  1  0  0  0  0
 50 41  1  6  0  0  0
 50 52  1  0  0  0  0
 51 54  1  1  0  0  0
 51 52  1  0  0  0  0
 53 51  1  0  0  0  0
 56 55  2  0  0  0  0
 56 54  1  0  0  0  0
 57 55  1  0  0  0  0
 57 59  1  0  0  0  0
 59 58  1  6  0  0  0
 59 60  1  0  0  0  0
M  END
>  <MODEL>
2

>  <REMARK>
 VINA RESULT:      -5.5      3.356     11.165
  Name = 
  24 active torsions:
  status: ('A' for Active; 'I' for Inactive)
    1  A    between atoms: C_2  and  C_16
    2  A    between atoms: C_2  and  O_24
    3  A    between atoms: C_2  and  C_48
    4  A    between atoms: C_5  and  C_25
    5  A    between atoms: C_7  and  C_29
    6  A    between atoms: C_7  and  C_35
    7  A    between atoms: C_10  and  C_12
    8  A    between atoms: C_10  and  C_50
    9  A    between atoms: C_14  and  C_27
   10  A    between atoms: C_14  and  C_30
   11  A    between atoms: C_15  and  C_25
   12  A    between atoms: C_16  and  C_27
   13  A    between atoms: C_17  and  C_23
   14  A    between atoms: C_17  and  C_39
   15  A    between atoms: C_17  and  C_59
   16  A    between atoms: C_18  and  C_19
   17  A    between atoms: C_18  and  C_40
   18  A    between atoms: C_19  and  C_35
   19  A    between atoms: C_21  and  C_60
   20  A    between atoms: O_24  and  C_50
   21  A    between atoms: N_34  and  C_55
   22  A    between atoms: N_36  and  C_39
   23  A    between atoms: C_37  and  C_44
   24  A    between atoms: C_41  and  C_55
                            x       y       z     vdW  Elec       q    Type
                         _______ _______ _______ _____ _____    ______ ____

>  <TORSDO>
F 24

$$$$
=
 OpenBabel11062417203D

 60 65  0  0  1  0  0  0  0  0999 V2000
  188.9190  178.1200  141.3820 O   0  0  0  0  0  0  0  0  0  0  0  0
  189.3280  176.7610  143.9010 C   0  0  1  0  0  3  0  0  0  0  0  0
  188.3380  177.9300  143.7260 C   0  0  1  0  0  3  0  0  0  0  0  0
  190.0690  177.3270  141.5600 C   0  0  1  0  0  3  0  0  0  0  0  0
  189.7840  176.1940  142.5530 C   0  0  0  0  0  2  0  0  0  0  0  0
  188.7480  178.8530  142.5690 C   0  0  0  0  0  2  0  0  0  0  0  0
  190.3200  178.4730  145.2430 O   0  0  0  0  0  1  0  0  0  0  0  0
  190.5340  177.1980  144.7170 C   0  0  0  0  0  2  0  0  0  0  0  0
  186.8600  177.5060  143.6580 C   0  0  2  0  0  3  0  0  0  0  0  0
  185.4360  179.4210  142.9250 C   0  0  0  0  0  2  0  0  0  0  0  0
  184.6640  178.1440  142.6740 C   0  0  2  0  0  3  0  0  0  0  0  0
  186.1670  178.1720  142.4740 C   0  0  2  0  0  3  0  0  0  0  0  0
  184.0070  178.1870  141.3110 C   0  0  0  0  0  2  0  0  0  0  0  0
  182.7440  179.0180  141.3770 C   0  0  0  0  0  2  0  0  0  0  0  0
  181.6220  178.1740  141.9580 C   0  0  0  0  0  2  0  0  0  0  0  0
  180.2470  178.7890  141.6940 C   0  0  2  0  0  3  0  0  0  0  0  0
  179.5750  181.1300  141.7860 N   0  0  0  0  0  1  0  0  0  0  0  0
  178.9830  179.6960  143.5120 O   0  0  0  0  0  1  0  0  0  0  0  0
  179.9900  179.9950  142.5920 C   0  0  1  0  0  3  0  0  0  0  0  0
  179.2450  177.8290  141.8580 O   0  0  0  0  0  0  0  0  0  0  0  0
  179.3230  177.0310  140.7130 C   0  0  0  0  0  2  0  0  0  0  0  0
  179.4460  177.9020  139.4710 C   0  0  0  0  0  2  0  0  0  0  0  0
  180.4470  177.3120  138.4890 C   0  0  2  0  0  3  0  0  0  0  0  0
  181.3030  176.2740  139.2150 C   0  0  0  0  0  2  0  0  0  0  0  0
  182.3740  177.8140  136.9560 C   0  0  0  0  0  2  0  0  0  0  0  0
  183.2230  176.7740  137.6860 C   0  0  2  0  0  3  0  0  0  0  0  0
  181.3410  178.4130  137.9110 C   0  0  0  0  0  2  0  0  0  0  0  0
  184.1430  176.2170  136.7970 O   0  0  0  0  0  1  0  0  0  0  0  0
  182.3310  175.6740  138.2560 C   0  0  0  0  0  2  0  0  0  0  0  0
  186.1020  177.8090  144.9500 C   0  0  0  0  0  2  0  0  0  0  0  0
  187.6260  176.8960  146.4060 O   0  0  0  0  0  0  0  0  0  0  0  0
  185.0020  177.9780  147.5100 C   0  0  0  0  0  1  0  0  0  0  0  0
  187.0390  178.0700  146.0440 N   0  0  0  0  0  0  0  0  0  0  0  0
  186.3910  178.5650  147.2530 C   0  0  0  0  0  0  0  0  0  0  0  0
  188.1650  177.1240  147.6420 N   0  0  0  0  0  2  0  0  0  0  0  0
  186.3440  180.0790  147.2520 C   0  0  0  0  0  1  0  0  0  0  0  0
  187.3010  178.0760  148.3190 C   0  0  0  0  0  2  0  0  0  0  0  0
  190.5560  176.7720  140.2210 C   0  0  0  0  0  2  0  0  0  0  0  0
  189.4870  176.8310  139.1330 C   0  0  0  0  0  2  0  0  0  0  0  0
  190.0820  177.3220  137.8210 C   0  0  0  0  0  2  0  0  0  0  0  0
  191.1500  176.4000  137.3210 C   0  0  0  0  0  0  0  0  0  0  0  0
  192.3840  176.5090  137.8290 C   0  0  0  0  0  3  0  0  0  0  0  0
  193.9460  174.5950  137.9540 O   0  0  0  0  0  0  0  0  0  0  0  0
  194.3650  176.0910  136.4000 N   0  0  0  0  0  0  0  0  0  0  0  0
  196.3880  174.9850  135.4350 C   0  0  0  0  0  1  0  0  0  0  0  0
  195.0080  174.1610  137.3470 N   0  0  0  0  0  0  0  0  0  0  0  0
  193.5570  175.7240  137.4120 C   0  0  0  0  0  0  0  0  0  0  0  0
  195.2600  175.0830  136.4010 C   0  0  0  0  0  0  0  0  0  0  0  0
  189.8510  176.0690  135.2160 C   0  0  0  0  0  2  0  0  0  0  0  0
  190.8270  175.4500  136.2070 C   0  0  2  0  0  3  0  0  0  0  0  0
  189.1330  173.8230  135.3250 C   0  0  1  0  0  3  0  0  0  0  0  0
  190.0810  173.9100  136.8360 S   0  0  0  0  0  0  0  0  0  0  0  0
  189.1250  174.9300  134.5950 C   0  0  0  0  0  2  0  0  0  0  0  0
  188.5780  172.5260  134.8230 C   0  0  0  0  0  2  0  0  0  0  0  0
  186.4940  172.9320  135.8730 C   0  0  0  0  0  3  0  0  0  0  0  0
  187.1350  172.5400  134.8320 N   0  0  0  0  0  0  0  0  0  0  0  0
  184.9920  172.9690  135.8890 C   0  0  0  0  0  2  0  0  0  0  0  0
  183.0420  172.0450  137.0660 N   0  0  0  0  0  1  0  0  0  0  0  0
  184.3770  171.7460  136.5680 C   0  0  1  0  0  3  0  0  0  0  0  0
  184.3260  170.6680  135.6810 O   0  0  0  0  0  1  0  0  0  0  0  0
  1  4  1  0  0  0  0
  1  6  1  0  0  0  0
  2  8  1  6  0  0  0
  3  9  1  6  0  0  0
  3  2  1  0  0  0  0
  4 38  1  6  0  0  0
  4  5  1  0  0  0  0
  5  2  1  0  0  0  0
  6  3  1  0  0  0  0
  8  7  1  0  0  0  0
  9 30  1  1  0  0  0
 11 13  1  6  0  0  0
 11 10  1  0  0  0  0
 12 11  1  0  0  0  0
 12 10  1  0  0  0  0
 12  9  1  1  0  0  0
 13 14  1  0  0  0  0
 14 15  1  0  0  0  0
 16 20  1  0  0  0  0
 16 15  1  1  0  0  0
 16 19  1  0  0  0  0
 19 17  1  6  0  0  0
 19 18  1  0  0  0  0
 21 20  1  0  0  0  0
 22 21  1  0  0  0  0
 23 24  1  0  0  0  0
 23 22  1  1  0  0  0
 25 26  1  0  0  0  0
 25 27  1  0  0  0  0
 26 28  1  6  0  0  0
 26 29  1  0  0  0  0
 27 23  1  0  0  0  0
 29 24  1  0  0  0  0
 30 33  1  0  0  0  0
 31 35  1  0  0  0  0
 33 31  1  0  0  0  0
 33 34  1  0  0  0  0
 34 32  1  0  0  0  0
 34 37  1  0  0  0  0
 35 37  1  0  0  0  0
 36 34  1  0  0  0  0
 39 38  1  0  0  0  0
 40 39  1  0  0  0  0
 41 40  1  0  0  0  0
 41 42  2  0  0  0  0
 44 48  1  0  0  0  0
 44 47  2  0  0  0  0
 45 48  1  0  0  0  0
 46 43  1  0  0  0  0
 47 42  1  0  0  0  0
 47 43  1  0  0  0  0
 48 46  2  0  0  0  0
 49 50  1  0  0  0  0
 50 52  1  0  0  0  0
 50 41  1  1  0  0  0
 51 54  1  6  0  0  0
 51 52  1  0  0  0  0
 53 49  1  0  0  0  0
 53 51  1  0  0  0  0
 54 56  1  0  0  0  0
 55 57  1  0  0  0  0
 56 55  2  0  0  0  0
 57 59  1  0  0  0  0
 59 60  1  6  0  0  0
 59 58  1  0  0  0  0
M  END
>  <MODEL>
3

>  <REMARK>
 VINA RESULT:      -5.1      3.258      9.239
  Name = 
  24 active torsions:
  status: ('A' for Active; 'I' for Inactive)
    1  A    between atoms: C_2  and  C_16
    2  A    between atoms: C_2  and  O_24
    3  A    between atoms: C_2  and  C_48
    4  A    between atoms: C_5  and  C_25
    5  A    between atoms: C_7  and  C_29
    6  A    between atoms: C_7  and  C_35
    7  A    between atoms: C_10  and  C_12
    8  A    between atoms: C_10  and  C_50
    9  A    between atoms: C_14  and  C_27
   10  A    between atoms: C_14  and  C_30
   11  A    between atoms: C_15  and  C_25
   12  A    between atoms: C_16  and  C_27
   13  A    between atoms: C_17  and  C_23
   14  A    between atoms: C_17  and  C_39
   15  A    between atoms: C_17  and  C_59
   16  A    between atoms: C_18  and  C_19
   17  A    between atoms: C_18  and  C_40
   18  A    between atoms: C_19  and  C_35
   19  A    between atoms: C_21  and  C_60
   20  A    between atoms: O_24  and  C_50
   21  A    between atoms: N_34  and  C_55
   22  A    between atoms: N_36  and  C_39
   23  A    between atoms: C_37  and  C_44
   24  A    between atoms: C_41  and  C_55
                            x       y       z     vdW  Elec       q    Type
                         _______ _______ _______ _____ _____    ______ ____

>  <TORSDO>
F 24

$$$$
=
 OpenBabel11062417203D

 60 65  0  0  1  0  0  0  0  0999 V2000
  189.1460  178.1720  141.4090 O   0  0  0  0  0  0  0  0  0  0  0  0
  189.5420  176.6930  143.8610 C   0  0  1  0  0  3  0  0  0  0  0  0
  188.5160  177.8360  143.7240 C   0  0  1  0  0  3  0  0  0  0  0  0
  190.3180  177.4100  141.5730 C   0  0  1  0  0  3  0  0  0  0  0  0
  190.0500  176.2170  142.4970 C   0  0  0  0  0  2  0  0  0  0  0  0
  188.9210  178.8340  142.6290 C   0  0  0  0  0  2  0  0  0  0  0  0
  191.7140  176.1540  144.7030 O   0  0  0  0  0  1  0  0  0  0  0  0
  190.7130  177.1260  144.7300 C   0  0  0  0  0  2  0  0  0  0  0  0
  187.0560  177.3670  143.5960 C   0  0  2  0  0  3  0  0  0  0  0  0
  185.2090  179.0420  143.4740 C   0  0  0  0  0  2  0  0  0  0  0  0
  184.8240  177.8610  142.6100 C   0  0  2  0  0  3  0  0  0  0  0  0
  186.2720  178.3050  142.6840 C   0  0  2  0  0  3  0  0  0  0  0  0
  184.2520  178.3380  141.2920 C   0  0  0  0  0  2  0  0  0  0  0  0
  183.0860  179.2680  141.5480 C   0  0  0  0  0  2  0  0  0  0  0  0
  181.7880  178.4920  141.4010 C   0  0  0  0  0  2  0  0  0  0  0  0
  180.6230  179.1840  142.1110 C   0  0  2  0  0  3  0  0  0  0  0  0
  179.1980  179.1480  144.0880 N   0  0  0  0  0  1  0  0  0  0  0  0
  179.4160  177.2350  142.7930 O   0  0  0  0  0  1  0  0  0  0  0  0
  180.1010  178.3510  143.2770 C   0  0  1  0  0  3  0  0  0  0  0  0
  179.5960  179.4630  141.2040 O   0  0  0  0  0  0  0  0  0  0  0  0
  180.0660  180.5420  140.4520 C   0  0  0  0  0  2  0  0  0  0  0  0
  178.9370  181.1420  139.6270 C   0  0  0  0  0  2  0  0  0  0  0  0
  179.1540  180.8940  138.1420 C   0  0  2  0  0  3  0  0  0  0  0  0
  179.1570  179.3860  137.8860 C   0  0  0  0  0  2  0  0  0  0  0  0
  180.7200  181.2150  136.2040 C   0  0  0  0  0  2  0  0  0  0  0  0
  180.7180  179.7070  135.9540 C   0  0  2  0  0  3  0  0  0  0  0  0
  180.4830  181.5010  137.6870 C   0  0  0  0  0  2  0  0  0  0  0  0
  180.9090  179.4610  134.5940 O   0  0  0  0  0  1  0  0  0  0  0  0
  179.3890  179.1040  136.4020 C   0  0  0  0  0  2  0  0  0  0  0  0
  186.3580  177.2440  144.9500 C   0  0  0  0  0  2  0  0  0  0  0  0
  187.8780  176.8620  146.6290 O   0  0  0  0  0  0  0  0  0  0  0  0
  185.0670  177.7730  147.3680 C   0  0  0  0  0  1  0  0  0  0  0  0
  187.1760  177.8470  146.0040 N   0  0  0  0  0  0  0  0  0  0  0  0
  186.3860  178.4810  147.0540 C   0  0  0  0  0  0  0  0  0  0  0  0
  188.2960  177.4070  147.8120 N   0  0  0  0  0  2  0  0  0  0  0  0
  186.1500  179.9430  146.7330 C   0  0  0  0  0  1  0  0  0  0  0  0
  187.2730  178.3470  148.2360 C   0  0  0  0  0  2  0  0  0  0  0  0
  190.8550  176.9460  140.2190 C   0  0  0  0  0  2  0  0  0  0  0  0
  189.8140  177.0390  139.1070 C   0  0  0  0  0  2  0  0  0  0  0  0
  190.4600  177.4840  137.8030 C   0  0  0  0  0  2  0  0  0  0  0  0
  191.1860  176.3580  137.1350 C   0  0  0  0  0  0  0  0  0  0  0  0
  192.4900  176.1910  137.3900 C   0  0  0  0  0  3  0  0  0  0  0  0
  194.1420  175.3680  135.7430 O   0  0  0  0  0  0  0  0  0  0  0  0
  193.4560  173.9140  137.2410 N   0  0  0  0  0  0  0  0  0  0  0  0
  194.8420  171.9840  136.4650 C   0  0  0  0  0  1  0  0  0  0  0  0
  194.7810  174.2730  135.4650 N   0  0  0  0  0  0  0  0  0  0  0  0
  193.3620  175.1750  136.7790 C   0  0  0  0  0  0  0  0  0  0  0  0
  194.3530  173.3880  136.3830 C   0  0  0  0  0  0  0  0  0  0  0  0
  189.5100  176.3500  135.2860 C   0  0  0  0  0  2  0  0  0  0  0  0
  190.4540  175.5120  136.1360 C   0  0  2  0  0  3  0  0  0  0  0  0
  188.2860  174.3600  135.6210 C   0  0  1  0  0  3  0  0  0  0  0  0
  189.4670  174.2150  136.9520 S   0  0  0  0  0  0  0  0  0  0  0  0
  188.4310  175.4280  134.8470 C   0  0  0  0  0  2  0  0  0  0  0  0
  187.3510  173.2420  135.2790 C   0  0  0  0  0  2  0  0  0  0  0  0
  185.2610  172.5110  136.1240 C   0  0  0  0  0  3  0  0  0  0  0  0
  186.4320  172.9840  136.3610 N   0  0  0  0  0  0  0  0  0  0  0  0
  184.3010  172.2210  137.2420 C   0  0  0  0  0  2  0  0  0  0  0  0
  182.6690  174.0580  137.2130 N   0  0  0  0  0  1  0  0  0  0  0  0
  182.8700  172.6460  136.9200 C   0  0  1  0  0  3  0  0  0  0  0  0
  182.5740  172.3900  135.5780 O   0  0  0  0  0  1  0  0  0  0  0  0
  1  4  1  0  0  0  0
  1  6  1  0  0  0  0
  2  8  1  1  0  0  0
  3  9  1  6  0  0  0
  3  2  1  0  0  0  0
  4 38  1  6  0  0  0
  4  5  1  0  0  0  0
  5  2  1  0  0  0  0
  6  3  1  0  0  0  0
  7  8  1  0  0  0  0
  9 30  1  1  0  0  0
 11 13  1  6  0  0  0
 11 12  1  0  0  0  0
 11 10  1  0  0  0  0
 12 10  1  0  0  0  0
 12  9  1  1  0  0  0
 13 14  1  0  0  0  0
 15 14  1  0  0  0  0
 16 15  1  6  0  0  0
 16 19  1  0  0  0  0
 19 18  1  6  0  0  0
 19 17  1  0  0  0  0
 20 16  1  0  0  0  0
 21 20  1  0  0  0  0
 22 21  1  0  0  0  0
 23 22  1  1  0  0  0
 24 23  1  0  0  0  0
 25 27  1  0  0  0  0
 26 28  1  6  0  0  0
 26 25  1  0  0  0  0
 26 29  1  0  0  0  0
 27 23  1  0  0  0  0
 29 24  1  0  0  0  0
 30 33  1  0  0  0  0
 31 35  1  0  0  0  0
 33 31  1  0  0  0  0
 33 34  1  0  0  0  0
 34 32  1  0  0  0  0
 34 37  1  0  0  0  0
 35 37  1  0  0  0  0
 36 34  1  0  0  0  0
 39 38  1  0  0  0  0
 40 39  1  0  0  0  0
 41 42  2  0  0  0  0
 41 40  1  0  0  0  0
 43 47  1  0  0  0  0
 46 43  1  0  0  0  0
 46 48  2  0  0  0  0
 47 44  2  0  0  0  0
 47 42  1  0  0  0  0
 48 45  1  0  0  0  0
 48 44  1  0  0  0  0
 49 50  1  0  0  0  0
 50 52  1  0  0  0  0
 50 41  1  1  0  0  0
 51 54  1  6  0  0  0
 51 52  1  0  0  0  0
 53 49  1  0  0  0  0
 53 51  1  0  0  0  0
 54 56  1  0  0  0  0
 55 56  2  0  0  0  0
 55 57  1  0  0  0  0
 59 60  1  6  0  0  0
 59 58  1  0  0  0  0
 59 57  1  0  0  0  0
M  END
>  <MODEL>
4

>  <REMARK>
 VINA RESULT:      -4.9      3.079      9.294
  Name = 
  24 active torsions:
  status: ('A' for Active; 'I' for Inactive)
    1  A    between atoms: C_2  and  C_16
    2  A    between atoms: C_2  and  O_24
    3  A    between atoms: C_2  and  C_48
    4  A    between atoms: C_5  and  C_25
    5  A    between atoms: C_7  and  C_29
    6  A    between atoms: C_7  and  C_35
    7  A    between atoms: C_10  and  C_12
    8  A    between atoms: C_10  and  C_50
    9  A    between atoms: C_14  and  C_27
   10  A    between atoms: C_14  and  C_30
   11  A    between atoms: C_15  and  C_25
   12  A    between atoms: C_16  and  C_27
   13  A    between atoms: C_17  and  C_23
   14  A    between atoms: C_17  and  C_39
   15  A    between atoms: C_17  and  C_59
   16  A    between atoms: C_18  and  C_19
   17  A    between atoms: C_18  and  C_40
   18  A    between atoms: C_19  and  C_35
   19  A    between atoms: C_21  and  C_60
   20  A    between atoms: O_24  and  C_50
   21  A    between atoms: N_34  and  C_55
   22  A    between atoms: N_36  and  C_39
   23  A    between atoms: C_37  and  C_44
   24  A    between atoms: C_41  and  C_55
                            x       y       z     vdW  Elec       q    Type
                         _______ _______ _______ _____ _____    ______ ____

>  <TORSDO>
F 24

$$$$
=
 OpenBabel11062417203D

 60 65  0  0  1  0  0  0  0  0999 V2000
  190.3900  177.6850  138.1120 O   0  0  0  0  0  0  0  0  0  0  0  0
  187.5350  177.4340  138.4950 C   0  0  1  0  0  3  0  0  0  0  0  0
  188.1740  177.8000  137.1400 C   0  0  1  0  0  3  0  0  0  0  0  0
  189.8650  177.7090  139.4180 C   0  0  1  0  0  3  0  0  0  0  0  0
  188.5710  176.8900  139.4840 C   0  0  0  0  0  2  0  0  0  0  0  0
  189.5400  178.4780  137.3210 C   0  0  0  0  0  2  0  0  0  0  0  0
  186.4120  178.3500  140.3970 O   0  0  0  0  0  1  0  0  0  0  0  0
  186.8250  178.6380  139.0950 C   0  0  0  0  0  2  0  0  0  0  0  0
  188.2080  176.6460  136.1220 C   0  0  2  0  0  3  0  0  0  0  0  0
  186.4810  178.1760  135.1680 C   0  0  0  0  0  2  0  0  0  0  0  0
  185.7640  177.0460  135.8750 C   0  0  2  0  0  3  0  0  0  0  0  0
  187.0570  176.7740  135.1310 C   0  0  2  0  0  3  0  0  0  0  0  0
  184.6170  176.5400  135.0260 C   0  0  0  0  0  2  0  0  0  0  0  0
  184.7680  175.0520  134.7950 C   0  0  0  0  0  2  0  0  0  0  0  0
  183.3920  174.4310  134.6260 C   0  0  0  0  0  2  0  0  0  0  0  0
  182.8160  173.9440  135.9560 C   0  0  2  0  0  3  0  0  0  0  0  0
  184.0620  171.9980  135.1770 N   0  0  0  0  0  1  0  0  0  0  0  0
  184.0350  172.5150  137.4390 O   0  0  0  0  0  1  0  0  0  0  0  0
  183.2660  172.5200  136.2740 C   0  0  1  0  0  3  0  0  0  0  0  0
  181.4210  174.0290  135.9440 O   0  0  0  0  0  0  0  0  0  0  0  0
  181.1090  174.9170  136.9770 C   0  0  0  0  0  2  0  0  0  0  0  0
  182.3760  175.5550  137.5260 C   0  0  0  0  0  2  0  0  0  0  0  0
  182.0690  176.8770  138.2130 C   0  0  2  0  0  3  0  0  0  0  0  0
  181.1100  177.6820  137.3340 C   0  0  0  0  0  2  0  0  0  0  0  0
  183.0440  179.0190  139.0930 C   0  0  0  0  0  2  0  0  0  0  0  0
  182.0810  179.8170  138.2130 C   0  0  2  0  0  3  0  0  0  0  0  0
  183.3570  177.6730  138.4410 C   0  0  0  0  0  2  0  0  0  0  0  0
  181.7830  181.0310  138.8310 O   0  0  0  0  0  1  0  0  0  0  0  0
  180.7950  179.0250  137.9910 C   0  0  0  0  0  2  0  0  0  0  0  0
  188.1770  175.2720  136.7910 C   0  0  0  0  0  2  0  0  0  0  0  0
  187.3600  173.2180  136.1690 O   0  0  0  0  0  0  0  0  0  0  0  0
  190.2910  173.4570  136.9630 C   0  0  0  0  0  1  0  0  0  0  0  0
  188.2060  174.2120  135.7810 N   0  0  0  0  0  0  0  0  0  0  0  0
  189.5120  173.5750  135.6520 C   0  0  0  0  0  0  0  0  0  0  0  0
  187.7170  172.1260  135.4270 N   0  0  0  0  0  2  0  0  0  0  0  0
  190.3430  174.2740  134.5940 C   0  0  0  0  0  1  0  0  0  0  0  0
  189.1500  172.2070  135.2060 C   0  0  0  0  0  2  0  0  0  0  0  0
  190.8930  177.1920  140.4240 C   0  0  0  0  0  2  0  0  0  0  0  0
  191.0840  178.1330  141.6100 C   0  0  0  0  0  2  0  0  0  0  0  0
  189.8630  178.1100  142.5170 C   0  0  0  0  0  2  0  0  0  0  0  0
  190.1420  177.3910  143.7990 C   0  0  0  0  0  0  0  0  0  0  0  0
  191.3990  177.0170  144.0680 C   0  0  0  0  0  3  0  0  0  0  0  0
  192.1070  174.9750  145.2710 O   0  0  0  0  0  0  0  0  0  0  0  0
  192.0140  176.8200  146.4600 N   0  0  0  0  0  0  0  0  0  0  0  0
  192.7660  175.8330  148.6300 C   0  0  0  0  0  1  0  0  0  0  0  0
  192.4710  174.6220  146.4650 N   0  0  0  0  0  0  0  0  0  0  0  0
  191.8360  176.2570  145.2510 C   0  0  0  0  0  0  0  0  0  0  0  0
  192.4080  175.7550  147.1880 C   0  0  0  0  0  0  0  0  0  0  0  0
  187.7650  176.6340  143.8900 C   0  0  0  0  0  2  0  0  0  0  0  0
  188.9940  177.0320  144.6960 C   0  0  2  0  0  3  0  0  0  0  0  0
  186.8400  177.8420  145.6940 C   0  0  1  0  0  3  0  0  0  0  0  0
  188.5260  178.4250  145.7750 S   0  0  0  0  0  0  0  0  0  0  0  0
  186.5960  176.9370  144.7560 C   0  0  0  0  0  2  0  0  0  0  0  0
  185.8410  178.1890  146.7540 C   0  0  0  0  0  2  0  0  0  0  0  0
  184.0150  178.3960  145.2590 C   0  0  0  0  0  3  0  0  0  0  0  0
  184.7230  178.9130  146.1970 N   0  0  0  0  0  0  0  0  0  0  0  0
  182.8380  179.1310  144.6830 C   0  0  0  0  0  2  0  0  0  0  0  0
  183.8170  178.3110  142.5840 N   0  0  0  0  0  1  0  0  0  0  0  0
  182.9340  179.3090  143.1690 C   0  0  1  0  0  3  0  0  0  0  0  0
  181.6660  179.2270  142.5850 O   0  0  0  0  0  1  0  0  0  0  0  0
  1  4  1  0  0  0  0
  2  8  1  1  0  0  0
  2  5  1  0  0  0  0
  3  9  1  6  0  0  0
  3  6  1  0  0  0  0
  3  2  1  0  0  0  0
  4  5  1  0  0  0  0
  4 38  1  1  0  0  0
  6  1  1  0  0  0  0
  8  7  1  0  0  0  0
  9 30  1  1  0  0  0
 10 11  1  0  0  0  0
 11 13  1  6  0  0  0
 12 10  1  0  0  0  0
 12 11  1  0  0  0  0
 12  9  1  1  0  0  0
 14 13  1  0  0  0  0
 15 14  1  0  0  0  0
 16 15  1  6  0  0  0
 16 19  1  0  0  0  0
 19 17  1  6  0  0  0
 19 18  1  0  0  0  0
 20 16  1  0  0  0  0
 20 21  1  0  0  0  0
 21 22  1  0  0  0  0
 23 22  1  6  0  0  0
 23 27  1  0  0  0  0
 24 29  1  0  0  0  0
 24 23  1  0  0  0  0
 26 28  1  1  0  0  0
 26 25  1  0  0  0  0
 27 25  1  0  0  0  0
 29 26  1  0  0  0  0
 33 31  1  0  0  0  0
 33 30  1  0  0  0  0
 34 33  1  0  0  0  0
 34 32  1  0  0  0  0
 35 31  1  0  0  0  0
 36 34  1  0  0  0  0
 37 35  1  0  0  0  0
 37 34  1  0  0  0  0
 38 39  1  0  0  0  0
 39 40  1  0  0  0  0
 40 41  1  0  0  0  0
 41 42  2  0  0  0  0
 42 47  1  0  0  0  0
 43 46  1  0  0  0  0
 44 48  1  0  0  0  0
 46 48  2  0  0  0  0
 47 43  1  0  0  0  0
 47 44  2  0  0  0  0
 48 45  1  0  0  0  0
 49 50  1  0  0  0  0
 49 53  1  0  0  0  0
 50 41  1  6  0  0  0
 50 52  1  0  0  0  0
 51 52  1  0  0  0  0
 51 54  1  1  0  0  0
 53 51  1  0  0  0  0
 55 56  2  0  0  0  0
 56 54  1  0  0  0  0
 57 55  1  0  0  0  0
 59 58  1  6  0  0  0
 59 57  1  0  0  0  0
 60 59  1  0  0  0  0
M  END
>  <MODEL>
5

>  <REMARK>
 VINA RESULT:      -4.6      3.370      9.311
  Name = 
  24 active torsions:
  status: ('A' for Active; 'I' for Inactive)
    1  A    between atoms: C_2  and  C_16
    2  A    between atoms: C_2  and  O_24
    3  A    between atoms: C_2  and  C_48
    4  A    between atoms: C_5  and  C_25
    5  A    between atoms: C_7  and  C_29
    6  A    between atoms: C_7  and  C_35
    7  A    between atoms: C_10  and  C_12
    8  A    between atoms: C_10  and  C_50
    9  A    between atoms: C_14  and  C_27
   10  A    between atoms: C_14  and  C_30
   11  A    between atoms: C_15  and  C_25
   12  A    between atoms: C_16  and  C_27
   13  A    between atoms: C_17  and  C_23
   14  A    between atoms: C_17  and  C_39
   15  A    between atoms: C_17  and  C_59
   16  A    between atoms: C_18  and  C_19
   17  A    between atoms: C_18  and  C_40
   18  A    between atoms: C_19  and  C_35
   19  A    between atoms: C_21  and  C_60
   20  A    between atoms: O_24  and  C_50
   21  A    between atoms: N_34  and  C_55
   22  A    between atoms: N_36  and  C_39
   23  A    between atoms: C_37  and  C_44
   24  A    between atoms: C_41  and  C_55
                            x       y       z     vdW  Elec       q    Type
                         _______ _______ _______ _____ _____    ______ ____

>  <TORSDO>
F 24

$$$$
=
 OpenBabel11062417203D

 60 65  0  0  1  0  0  0  0  0999 V2000
  189.9250  178.5610  142.2560 O   0  0  0  0  0  0  0  0  0  0  0  0
  190.2030  176.2410  143.9590 C   0  0  1  0  0  3  0  0  0  0  0  0
  189.3030  177.4420  144.3130 C   0  0  1  0  0  3  0  0  0  0  0  0
  191.0120  177.6880  142.0610 C   0  0  1  0  0  3  0  0  0  0  0  0
  190.6340  176.2650  142.4890 C   0  0  0  0  0  2  0  0  0  0  0  0
  189.7930  178.7350  143.6450 C   0  0  0  0  0  2  0  0  0  0  0  0
  192.0870  174.9840  144.7250 O   0  0  0  0  0  1  0  0  0  0  0  0
  191.4280  176.2070  144.8600 C   0  0  0  0  0  2  0  0  0  0  0  0
  187.7990  177.1920  144.1010 C   0  0  2  0  0  3  0  0  0  0  0  0
  185.6630  178.4070  143.6600 C   0  0  0  0  0  2  0  0  0  0  0  0
  186.1830  177.8850  142.3390 C   0  0  2  0  0  3  0  0  0  0  0  0
  187.1550  178.3790  143.3930 C   0  0  2  0  0  3  0  0  0  0  0  0
  186.0650  178.9520  141.2710 C   0  0  0  0  0  2  0  0  0  0  0  0
  184.6380  179.0220  140.7720 C   0  0  0  0  0  2  0  0  0  0  0  0
  184.1120  177.6110  140.5670 C   0  0  0  0  0  2  0  0  0  0  0  0
  182.8530  177.5900  139.6990 C   0  0  2  0  0  3  0  0  0  0  0  0
  180.9190  176.1260  139.4610 N   0  0  0  0  0  1  0  0  0  0  0  0
  182.8260  175.7230  138.2030 O   0  0  0  0  0  1  0  0  0  0  0  0
  182.3710  176.1650  139.4460 C   0  0  1  0  0  3  0  0  0  0  0  0
  183.0830  178.2550  138.4910 O   0  0  0  0  0  0  0  0  0  0  0  0
  181.8880  178.9280  138.2220 C   0  0  0  0  0  2  0  0  0  0  0  0
  181.8080  180.2090  139.0380 C   0  0  0  0  0  2  0  0  0  0  0  0
  181.0290  181.2830  138.2930 C   0  0  2  0  0  3  0  0  0  0  0  0
  180.7160  180.7820  136.8820 C   0  0  0  0  0  2  0  0  0  0  0  0
  181.0770  183.6430  137.4320 C   0  0  0  0  0  2  0  0  0  0  0  0
  180.7630  183.1350  136.0250 C   0  0  2  0  0  3  0  0  0  0  0  0
  181.8430  182.5780  138.2160 C   0  0  0  0  0  2  0  0  0  0  0  0
  180.0420  184.1050  135.3290 O   0  0  0  0  0  1  0  0  0  0  0  0
  179.9460  181.8470  136.1030 C   0  0  0  0  0  2  0  0  0  0  0  0
  187.0630  176.8950  145.4070 C   0  0  0  0  0  2  0  0  0  0  0  0
  188.2860  176.7590  147.3470 O   0  0  0  0  0  0  0  0  0  0  0  0
  185.3590  177.5860  147.5080 C   0  0  0  0  0  1  0  0  0  0  0  0
  187.6660  177.6410  146.5140 N   0  0  0  0  0  0  0  0  0  0  0  0
  186.6860  178.3300  147.3460 C   0  0  0  0  0  0  0  0  0  0  0  0
  188.4750  177.4370  148.5190 N   0  0  0  0  0  2  0  0  0  0  0  0
  186.4550  179.7400  146.8400 C   0  0  0  0  0  1  0  0  0  0  0  0
  187.3620  178.3580  148.6670 C   0  0  0  0  0  2  0  0  0  0  0  0
  191.4740  177.7170  140.6030 C   0  0  0  0  0  2  0  0  0  0  0  0
  190.8940  176.5720  139.7770 C   0  0  0  0  0  2  0  0  0  0  0  0
  189.3740  176.6320  139.7680 C   0  0  0  0  0  2  0  0  0  0  0  0
  188.8320  176.6810  138.3740 C   0  0  0  0  0  0  0  0  0  0  0  0
  187.7100  177.3730  138.1420 C   0  0  0  0  0  3  0  0  0  0  0  0
  187.5150  178.0130  135.7600 O   0  0  0  0  0  0  0  0  0  0  0  0
  185.7690  177.0140  136.6450 N   0  0  0  0  0  0  0  0  0  0  0  0
  184.3400  177.0060  134.5940 C   0  0  0  0  0  1  0  0  0  0  0  0
  186.6490  177.9370  134.7970 N   0  0  0  0  0  0  0  0  0  0  0  0
  187.0160  177.4780  136.8480 C   0  0  0  0  0  0  0  0  0  0  0  0
  185.5830  177.3280  135.3470 C   0  0  0  0  0  0  0  0  0  0  0  0
  188.7200  174.6230  136.9650 C   0  0  0  0  0  2  0  0  0  0  0  0
  189.5110  175.8800  137.3020 C   0  0  2  0  0  3  0  0  0  0  0  0
  190.9570  173.8830  136.8400 C   0  0  1  0  0  3  0  0  0  0  0  0
  191.1850  175.3660  137.8090 S   0  0  0  0  0  0  0  0  0  0  0  0
  189.7120  173.6440  136.4510 C   0  0  0  0  0  2  0  0  0  0  0  0
  192.1240  173.0990  136.3240 C   0  0  0  0  0  2  0  0  0  0  0  0
  194.0930  174.4000  136.5400 C   0  0  0  0  0  3  0  0  0  0  0  0
  193.3410  173.4690  137.0060 N   0  0  0  0  0  0  0  0  0  0  0  0
  195.3520  174.8070  137.2490 C   0  0  0  0  0  2  0  0  0  0  0  0
  197.1720  173.1660  137.4450 N   0  0  0  0  0  1  0  0  0  0  0  0
  196.6090  174.2180  136.6110 C   0  0  1  0  0  3  0  0  0  0  0  0
  196.3220  173.7160  135.3380 O   0  0  0  0  0  1  0  0  0  0  0  0
  1  6  1  0  0  0  0
  2  3  1  0  0  0  0
  2  8  1  1  0  0  0
  3  9  1  6  0  0  0
  4 38  1  6  0  0  0
  4  1  1  0  0  0  0
  4  5  1  0  0  0  0
  5  2  1  0  0  0  0
  6  3  1  0  0  0  0
  7  8  1  0  0  0  0
  9 30  1  1  0  0  0
 11 13  1  6  0  0  0
 11 12  1  0  0  0  0
 11 10  1  0  0  0  0
 12 10  1  0  0  0  0
 12  9  1  1  0  0  0
 14 13  1  0  0  0  0
 15 14  1  0  0  0  0
 16 15  1  1  0  0  0
 19 18  1  6  0  0  0
 19 17  1  0  0  0  0
 19 16  1  0  0  0  0
 20 16  1  0  0  0  0
 21 20  1  0  0  0  0
 21 22  1  0  0  0  0
 23 22  1  1  0  0  0
 24 23  1  0  0  0  0
 25 27  1  0  0  0  0
 26 28  1  6  0  0  0
 26 29  1  0  0  0  0
 26 25  1  0  0  0  0
 27 23  1  0  0  0  0
 29 24  1  0  0  0  0
 30 33  1  0  0  0  0
 31 35  1  0  0  0  0
 33 34  1  0  0  0  0
 33 31  1  0  0  0  0
 34 32  1  0  0  0  0
 34 37  1  0  0  0  0
 35 37  1  0  0  0  0
 36 34  1  0  0  0  0
 39 38  1  0  0  0  0
 40 39  1  0  0  0  0
 41 40  1  0  0  0  0
 42 41  2  0  0  0  0
 43 47  1  0  0  0  0
 44 47  2  0  0  0  0
 45 48  1  0  0  0  0
 46 48  2  0  0  0  0
 46 43  1  0  0  0  0
 47 42  1  0  0  0  0
 48 44  1  0  0  0  0
 49 50  1  0  0  0  0
 50 52  1  0  0  0  0
 50 41  1  1  0  0  0
 51 54  1  6  0  0  0
 51 52  1  0  0  0  0
 53 51  1  0  0  0  0
 53 49  1  0  0  0  0
 54 56  1  0  0  0  0
 55 56  2  0  0  0  0
 55 57  1  0  0  0  0
 59 60  1  6  0  0  0
 59 57  1  0  0  0  0
 59 58  1  0  0  0  0
M  END
>  <MODEL>
6

>  <REMARK>
 VINA RESULT:      -4.4      3.100      9.149
  Name = 
  24 active torsions:
  status: ('A' for Active; 'I' for Inactive)
    1  A    between atoms: C_2  and  C_16
    2  A    between atoms: C_2  and  O_24
    3  A    between atoms: C_2  and  C_48
    4  A    between atoms: C_5  and  C_25
    5  A    between atoms: C_7  and  C_29
    6  A    between atoms: C_7  and  C_35
    7  A    between atoms: C_10  and  C_12
    8  A    between atoms: C_10  and  C_50
    9  A    between atoms: C_14  and  C_27
   10  A    between atoms: C_14  and  C_30
   11  A    between atoms: C_15  and  C_25
   12  A    between atoms: C_16  and  C_27
   13  A    between atoms: C_17  and  C_23
   14  A    between atoms: C_17  and  C_39
   15  A    between atoms: C_17  and  C_59
   16  A    between atoms: C_18  and  C_19
   17  A    between atoms: C_18  and  C_40
   18  A    between atoms: C_19  and  C_35
   19  A    between atoms: C_21  and  C_60
   20  A    between atoms: O_24  and  C_50
   21  A    between atoms: N_34  and  C_55
   22  A    between atoms: N_36  and  C_39
   23  A    between atoms: C_37  and  C_44
   24  A    between atoms: C_41  and  C_55
                            x       y       z     vdW  Elec       q    Type
                         _______ _______ _______ _____ _____    ______ ____

>  <TORSDO>
F 24

$$$$
=
 OpenBabel11062417203D

 60 65  0  0  1  0  0  0  0  0999 V2000
  189.1980  177.8000  141.2610 O   0  0  0  0  0  0  0  0  0  0  0  0
  190.2150  176.4760  143.6210 C   0  0  1  0  0  3  0  0  0  0  0  0
  189.2350  177.6650  143.6800 C   0  0  1  0  0  3  0  0  0  0  0  0
  190.3400  176.9840  141.1560 C   0  0  1  0  0  3  0  0  0  0  0  0
  190.3000  175.8760  142.2140 C   0  0  0  0  0  2  0  0  0  0  0  0
  189.3510  178.5580  142.4350 C   0  0  0  0  0  2  0  0  0  0  0  0
  191.5390  178.1640  144.6770 O   0  0  0  0  0  1  0  0  0  0  0  0
  191.5990  176.8990  144.0910 C   0  0  0  0  0  2  0  0  0  0  0  0
  187.7820  177.2740  144.0020 C   0  0  2  0  0  3  0  0  0  0  0  0
  185.4910  178.2010  144.3540 C   0  0  0  0  0  2  0  0  0  0  0  0
  185.6640  177.9390  142.8750 C   0  0  2  0  0  3  0  0  0  0  0  0
  186.8370  178.4330  143.6990 C   0  0  2  0  0  3  0  0  0  0  0  0
  185.1310  179.1040  142.0680 C   0  0  0  0  0  2  0  0  0  0  0  0
  183.6560  179.2910  142.3510 C   0  0  0  0  0  2  0  0  0  0  0  0
  182.8860  178.1150  141.7750 C   0  0  0  0  0  2  0  0  0  0  0  0
  181.4630  178.5050  141.3730 C   0  0  2  0  0  3  0  0  0  0  0  0
  179.9220  179.9660  142.5700 N   0  0  0  0  0  1  0  0  0  0  0  0
  179.5720  177.6730  142.5810 O   0  0  0  0  0  1  0  0  0  0  0  0
  180.5580  178.6610  142.5920 C   0  0  1  0  0  3  0  0  0  0  0  0
  180.9340  177.5660  140.4830 O   0  0  0  0  0  0  0  0  0  0  0  0
  181.9660  177.3120  139.5760 C   0  0  0  0  0  2  0  0  0  0  0  0
  182.0100  175.8320  139.2270 C   0  0  0  0  0  2  0  0  0  0  0  0
  181.4000  175.5760  137.8560 C   0  0  2  0  0  3  0  0  0  0  0  0
  179.8770  175.5400  137.9880 C   0  0  0  0  0  2  0  0  0  0  0  0
  181.2610  173.9710  135.9280 C   0  0  0  0  0  2  0  0  0  0  0  0
  179.7390  173.9410  136.0660 C   0  0  2  0  0  3  0  0  0  0  0  0
  181.9050  174.2470  137.2870 C   0  0  0  0  0  2  0  0  0  0  0  0
  179.1620  173.7130  134.8160 O   0  0  0  0  0  1  0  0  0  0  0  0
  179.2360  175.2680  136.6280 C   0  0  0  0  0  2  0  0  0  0  0  0
  187.6040  176.8160  145.4490 C   0  0  0  0  0  2  0  0  0  0  0  0
  189.5240  176.9880  146.6980 O   0  0  0  0  0  0  0  0  0  0  0  0
  186.8470  176.7950  148.1360 C   0  0  0  0  0  1  0  0  0  0  0  0
  188.3910  177.6590  146.3530 N   0  0  0  0  0  0  0  0  0  0  0  0
  187.7130  177.9420  147.6130 C   0  0  0  0  0  0  0  0  0  0  0  0
  190.0020  177.6270  147.8090 N   0  0  0  0  0  2  0  0  0  0  0  0
  186.9080  179.2210  147.5090 C   0  0  0  0  0  1  0  0  0  0  0  0
  188.8520  178.1210  148.5470 C   0  0  0  0  0  2  0  0  0  0  0  0
  190.4570  176.3950  139.7500 C   0  0  0  0  0  2  0  0  0  0  0  0
  189.8830  177.3130  138.6740 C   0  0  0  0  0  2  0  0  0  0  0  0
  190.7790  177.3260  137.4450 C   0  0  0  0  0  2  0  0  0  0  0  0
  191.5970  176.0760  137.3460 C   0  0  0  0  0  0  0  0  0  0  0  0
  192.8550  176.0920  137.8020 C   0  0  0  0  0  3  0  0  0  0  0  0
  194.4540  174.4600  138.7520 O   0  0  0  0  0  0  0  0  0  0  0  0
  194.1160  174.3410  136.5840 N   0  0  0  0  0  0  0  0  0  0  0  0
  195.6470  172.4170  136.1320 C   0  0  0  0  0  1  0  0  0  0  0  0
  195.2080  173.4840  138.3480 N   0  0  0  0  0  0  0  0  0  0  0  0
  193.8090  174.9730  137.7320 C   0  0  0  0  0  0  0  0  0  0  0  0
  194.9990  173.4200  137.0210 C   0  0  0  0  0  0  0  0  0  0  0  0
  191.0420  175.0390  135.1440 C   0  0  0  0  0  2  0  0  0  0  0  0
  191.0130  174.8780  136.6570 C   0  0  2  0  0  3  0  0  0  0  0  0
  188.9770  173.9580  135.5160 C   0  0  1  0  0  3  0  0  0  0  0  0
  189.2810  174.5980  137.1550 S   0  0  0  0  0  0  0  0  0  0  0  0
  189.9280  174.2030  134.6240 C   0  0  0  0  0  2  0  0  0  0  0  0
  187.8380  173.0270  135.2380 C   0  0  0  0  0  2  0  0  0  0  0  0
  186.3550  174.6820  136.0590 C   0  0  0  0  0  3  0  0  0  0  0  0
  186.6480  173.4360  135.9440 N   0  0  0  0  0  0  0  0  0  0  0  0
  185.1100  175.1210  136.7750 C   0  0  0  0  0  2  0  0  0  0  0  0
  185.9550  177.4280  136.7100 N   0  0  0  0  0  1  0  0  0  0  0  0
  184.7760  176.5920  136.5340 C   0  0  1  0  0  3  0  0  0  0  0  0
  184.2500  176.7710  135.2510 O   0  0  0  0  0  1  0  0  0  0  0  0
  1  6  1  0  0  0  0
  2  3  1  0  0  0  0
  2  8  1  6  0  0  0
  3  9  1  6  0  0  0
  4 38  1  6  0  0  0
  4  1  1  0  0  0  0
  4  5  1  0  0  0  0
  5  2  1  0  0  0  0
  6  3  1  0  0  0  0
  8  7  1  0  0  0  0
  9 30  1  1  0  0  0
 11 13  1  6  0  0  0
 11 12  1  0  0  0  0
 11 10  1  0  0  0  0
 12  9  1  1  0  0  0
 12 10  1  0  0  0  0
 13 14  1  0  0  0  0
 15 14  1  0  0  0  0
 16 15  1  1  0  0  0
 16 19  1  0  0  0  0
 18 19  1  0  0  0  0
 19 17  1  6  0  0  0
 20 16  1  0  0  0  0
 21 20  1  0  0  0  0
 22 21  1  0  0  0  0
 23 24  1  0  0  0  0
 23 22  1  1  0  0  0
 25 26  1  0  0  0  0
 25 27  1  0  0  0  0
 26 28  1  6  0  0  0
 26 29  1  0  0  0  0
 27 23  1  0  0  0  0
 29 24  1  0  0  0  0
 30 33  1  0  0  0  0
 31 35  1  0  0  0  0
 33 31  1  0  0  0  0
 33 34  1  0  0  0  0
 34 32  1  0  0  0  0
 34 37  1  0  0  0  0
 35 37  1  0  0  0  0
 36 34  1  0  0  0  0
 39 38  1  0  0  0  0
 40 39  1  0  0  0  0
 41 40  1  0  0  0  0
 41 42  2  0  0  0  0
 44 48  1  0  0  0  0
 44 47  2  0  0  0  0
 45 48  1  0  0  0  0
 46 43  1  0  0  0  0
 47 42  1  0  0  0  0
 47 43  1  0  0  0  0
 48 46  2  0  0  0  0
 49 50  1  0  0  0  0
 50 52  1  0  0  0  0
 50 41  1  1  0  0  0
 51 54  1  1  0  0  0
 51 52  1  0  0  0  0
 53 49  1  0  0  0  0
 53 51  1  0  0  0  0
 54 56  1  0  0  0  0
 55 57  1  0  0  0  0
 56 55  2  0  0  0  0
 59 60  1  6  0  0  0
 59 58  1  0  0  0  0
 59 57  1  0  0  0  0
M  END
>  <MODEL>
7

>  <REMARK>
 VINA RESULT:      -4.4      3.625      8.638
  Name = 
  24 active torsions:
  status: ('A' for Active; 'I' for Inactive)
    1  A    between atoms: C_2  and  C_16
    2  A    between atoms: C_2  and  O_24
    3  A    between atoms: C_2  and  C_48
    4  A    between atoms: C_5  and  C_25
    5  A    between atoms: C_7  and  C_29
    6  A    between atoms: C_7  and  C_35
    7  A    between atoms: C_10  and  C_12
    8  A    between atoms: C_10  and  C_50
    9  A    between atoms: C_14  and  C_27
   10  A    between atoms: C_14  and  C_30
   11  A    between atoms: C_15  and  C_25
   12  A    between atoms: C_16  and  C_27
   13  A    between atoms: C_17  and  C_23
   14  A    between atoms: C_17  and  C_39
   15  A    between atoms: C_17  and  C_59
   16  A    between atoms: C_18  and  C_19
   17  A    between atoms: C_18  and  C_40
   18  A    between atoms: C_19  and  C_35
   19  A    between atoms: C_21  and  C_60
   20  A    between atoms: O_24  and  C_50
   21  A    between atoms: N_34  and  C_55
   22  A    between atoms: N_36  and  C_39
   23  A    between atoms: C_37  and  C_44
   24  A    between atoms: C_41  and  C_55
                            x       y       z     vdW  Elec       q    Type
                         _______ _______ _______ _____ _____    ______ ____

>  <TORSDO>
F 24

$$$$
=
 OpenBabel11062417203D

 60 65  0  0  1  0  0  0  0  0999 V2000
  183.8620  175.5260  136.5570 O   0  0  0  0  0  0  0  0  0  0  0  0
  181.7640  177.4510  136.0580 C   0  0  1  0  0  3  0  0  0  0  0  0
  181.5060  175.9350  136.1650 C   0  0  1  0  0  3  0  0  0  0  0  0
  184.2030  176.8190  136.1170 C   0  0  1  0  0  3  0  0  0  0  0  0
  183.1510  177.8330  136.5830 C   0  0  0  0  0  2  0  0  0  0  0  0
  182.7540  175.1200  135.7930 C   0  0  0  0  0  2  0  0  0  0  0  0
  181.2390  179.2670  134.5940 O   0  0  0  0  0  1  0  0  0  0  0  0
  181.6050  177.9210  134.6200 C   0  0  0  0  0  2  0  0  0  0  0  0
  180.8770  175.4910  137.4980 C   0  0  2  0  0  3  0  0  0  0  0  0
  180.7180  175.9980  139.9370 C   0  0  0  0  0  2  0  0  0  0  0  0
  180.5180  177.2920  139.1780 C   0  0  2  0  0  3  0  0  0  0  0  0
  181.4970  176.2550  138.6620 C   0  0  2  0  0  3  0  0  0  0  0  0
  181.3100  178.4080  139.8250 C   0  0  0  0  0  2  0  0  0  0  0  0
  181.8700  177.9370  141.1500 C   0  0  0  0  0  2  0  0  0  0  0  0
  182.5190  179.1110  141.8620 C   0  0  0  0  0  2  0  0  0  0  0  0
  184.0190  178.8980  142.0690 C   0  0  2  0  0  3  0  0  0  0  0  0
  184.3200  179.8550  139.8470 N   0  0  0  0  0  1  0  0  0  0  0  0
  186.1350  178.9210  140.9510 O   0  0  0  0  0  1  0  0  0  0  0  0
  184.7600  178.7970  140.7390 C   0  0  1  0  0  3  0  0  0  0  0  0
  184.2470  177.7600  142.8480 O   0  0  0  0  0  0  0  0  0  0  0  0
  184.1610  178.2080  144.1690 C   0  0  0  0  0  2  0  0  0  0  0  0
  185.0190  179.4500  144.3620 C   0  0  0  0  0  2  0  0  0  0  0  0
  186.0760  179.2220  145.4320 C   0  0  2  0  0  3  0  0  0  0  0  0
  186.5800  177.7820  145.3340 C   0  0  0  0  0  2  0  0  0  0  0  0
  186.5400  179.2060  147.9020 C   0  0  0  0  0  2  0  0  0  0  0  0
  187.0440  177.7660  147.7960 C   0  0  2  0  0  3  0  0  0  0  0  0
  185.4900  179.4750  146.8240 C   0  0  0  0  0  2  0  0  0  0  0  0
  188.0200  177.5420  148.7670 O   0  0  0  0  0  1  0  0  0  0  0  0
  187.6340  177.5180  146.4090 C   0  0  0  0  0  2  0  0  0  0  0  0
  180.9990  173.9860  137.7320 C   0  0  0  0  0  2  0  0  0  0  0  0
  179.3640  173.2070  136.3190 O   0  0  0  0  0  0  0  0  0  0  0  0
  181.0050  171.2000  137.9190 C   0  0  0  0  0  1  0  0  0  0  0  0
  180.7130  173.2510  136.4970 N   0  0  0  0  0  0  0  0  0  0  0  0
  181.1410  171.8570  136.5440 C   0  0  0  0  0  0  0  0  0  0  0  0
  179.1490  172.2080  135.4090 N   0  0  0  0  0  2  0  0  0  0  0  0
  182.5540  171.7160  136.0160 C   0  0  0  0  0  1  0  0  0  0  0  0
  180.1760  171.2040  135.6240 C   0  0  0  0  0  2  0  0  0  0  0  0
  185.5970  177.2080  136.6100 C   0  0  0  0  0  2  0  0  0  0  0  0
  186.6920  176.8950  135.5950 C   0  0  0  0  0  2  0  0  0  0  0  0
  187.7850  177.9520  135.6410 C   0  0  0  0  0  2  0  0  0  0  0  0
  189.1130  177.3570  135.9920 C   0  0  0  0  0  0  0  0  0  0  0  0
  189.7490  176.6150  135.0770 C   0  0  0  0  0  3  0  0  0  0  0  0
  192.1940  176.4930  135.4320 O   0  0  0  0  0  0  0  0  0  0  0  0
  191.1300  174.5730  135.3260 N   0  0  0  0  0  0  0  0  0  0  0  0
  193.1160  173.0950  135.6750 C   0  0  0  0  0  1  0  0  0  0  0  0
  193.1130  175.5920  135.5910 N   0  0  0  0  0  0  0  0  0  0  0  0
  191.0280  175.9150  135.2750 C   0  0  0  0  0  0  0  0  0  0  0  0
  192.4560  174.4200  135.5210 C   0  0  0  0  0  0  0  0  0  0  0  0
  190.0220  176.1970  138.0070 C   0  0  0  0  0  2  0  0  0  0  0  0
  189.6450  177.5340  137.3840 C   0  0  2  0  0  3  0  0  0  0  0  0
  189.0910  177.3790  139.8250 C   0  0  1  0  0  3  0  0  0  0  0  0
  188.4180  178.3300  138.4720 S   0  0  0  0  0  0  0  0  0  0  0  0
  189.8940  176.3830  139.4760 C   0  0  0  0  0  2  0  0  0  0  0  0
  188.9320  177.8210  141.2480 C   0  0  0  0  0  2  0  0  0  0  0  0
  189.8610  176.7440  143.1430 C   0  0  0  0  0  3  0  0  0  0  0  0
  190.0520  177.3950  142.0520 N   0  0  0  0  0  0  0  0  0  0  0  0
  191.0180  176.2790  143.9800 C   0  0  0  0  0  2  0  0  0  0  0  0
  192.0660  176.6080  146.1790 N   0  0  0  0  0  1  0  0  0  0  0  0
  191.3980  177.2780  145.0720 C   0  0  1  0  0  3  0  0  0  0  0  0
  192.2210  178.2810  144.5530 O   0  0  0  0  0  1  0  0  0  0  0  0
  2  8  1  6  0  0  0
  2  3  1  0  0  0  0
  2  5  1  0  0  0  0
  3  9  1  1  0  0  0
  4  1  1  0  0  0  0
  4  5  1  0  0  0  0
  4 38  1  1  0  0  0
  6  3  1  0  0  0  0
  6  1  1  0  0  0  0
  7  8  1  0  0  0  0
  9 30  1  1  0  0  0
 11 13  1  1  0  0  0
 11 10  1  0  0  0  0
 12  9  1  6  0  0  0
 12 11  1  0  0  0  0
 12 10  1  0  0  0  0
 13 14  1  0  0  0  0
 14 15  1  0  0  0  0
 16 15  1  6  0  0  0
 16 20  1  0  0  0  0
 19 17  1  6  0  0  0
 19 18  1  0  0  0  0
 19 16  1  0  0  0  0
 20 21  1  0  0  0  0
 21 22  1  0  0  0  0
 23 22  1  6  0  0  0
 23 27  1  0  0  0  0
 24 23  1  0  0  0  0
 24 29  1  0  0  0  0
 26 25  1  0  0  0  0
 26 28  1  1  0  0  0
 27 25  1  0  0  0  0
 29 26  1  0  0  0  0
 31 33  1  0  0  0  0
 33 34  1  0  0  0  0
 33 30  1  0  0  0  0
 34 32  1  0  0  0  0
 35 37  1  0  0  0  0
 35 31  1  0  0  0  0
 36 34  1  0  0  0  0
 37 34  1  0  0  0  0
 39 40  1  0  0  0  0
 39 38  1  0  0  0  0
 40 41  1  0  0  0  0
 42 47  1  0  0  0  0
 42 41  2  0  0  0  0
 43 46  1  0  0  0  0
 44 48  1  0  0  0  0
 47 44  2  0  0  0  0
 47 43  1  0  0  0  0
 48 46  2  0  0  0  0
 48 45  1  0  0  0  0
 49 53  1  0  0  0  0
 50 41  1  6  0  0  0
 50 49  1  0  0  0  0
 50 52  1  0  0  0  0
 51 54  1  1  0  0  0
 52 51  1  0  0  0  0
 53 51  1  0  0  0  0
 54 56  1  0  0  0  0
 55 57  1  0  0  0  0
 56 55  2  0  0  0  0
 57 59  1  0  0  0  0
 59 60  1  6  0  0  0
 59 58  1  0  0  0  0
M  END
>  <MODEL>
8

>  <REMARK>
 VINA RESULT:      -4.3      3.032     10.928
  Name = 
  24 active torsions:
  status: ('A' for Active; 'I' for Inactive)
    1  A    between atoms: C_2  and  C_16
    2  A    between atoms: C_2  and  O_24
    3  A    between atoms: C_2  and  C_48
    4  A    between atoms: C_5  and  C_25
    5  A    between atoms: C_7  and  C_29
    6  A    between atoms: C_7  and  C_35
    7  A    between atoms: C_10  and  C_12
    8  A    between atoms: C_10  and  C_50
    9  A    between atoms: C_14  and  C_27
   10  A    between atoms: C_14  and  C_30
   11  A    between atoms: C_15  and  C_25
   12  A    between atoms: C_16  and  C_27
   13  A    between atoms: C_17  and  C_23
   14  A    between atoms: C_17  and  C_39
   15  A    between atoms: C_17  and  C_59
   16  A    between atoms: C_18  and  C_19
   17  A    between atoms: C_18  and  C_40
   18  A    between atoms: C_19  and  C_35
   19  A    between atoms: C_21  and  C_60
   20  A    between atoms: O_24  and  C_50
   21  A    between atoms: N_34  and  C_55
   22  A    between atoms: N_36  and  C_39
   23  A    between atoms: C_37  and  C_44
   24  A    between atoms: C_41  and  C_55
                            x       y       z     vdW  Elec       q    Type
                         _______ _______ _______ _____ _____    ______ ____

>  <TORSDO>
F 24

$$$$
=
 OpenBabel11062417203D

 60 65  0  0  1  0  0  0  0  0999 V2000
  186.9060  175.6280  138.2250 O   0  0  0  0  0  0  0  0  0  0  0  0
  188.7080  175.8880  135.9790 C   0  0  1  0  0  3  0  0  0  0  0  0
  188.6520  176.9060  137.1360 C   0  0  1  0  0  3  0  0  0  0  0  0
  186.6600  174.8860  137.0550 C   0  0  1  0  0  3  0  0  0  0  0  0
  187.9780  174.5870  136.3290 C   0  0  0  0  0  2  0  0  0  0  0  0
  187.2740  176.9200  137.8130 C   0  0  0  0  0  2  0  0  0  0  0  0
  188.0300  177.8740  134.8340 O   0  0  0  0  0  1  0  0  0  0  0  0
  188.1230  176.4870  134.7090 C   0  0  0  0  0  2  0  0  0  0  0  0
  189.8120  176.7890  138.1410 C   0  0  2  0  0  3  0  0  0  0  0  0
  190.5510  177.4400  140.4350 C   0  0  0  0  0  2  0  0  0  0  0  0
  189.0810  177.0870  140.5020 C   0  0  2  0  0  3  0  0  0  0  0  0
  189.6360  177.7900  139.2780 C   0  0  2  0  0  3  0  0  0  0  0  0
  188.3330  178.1080  141.3330 C   0  0  0  0  0  2  0  0  0  0  0  0
  187.1960  177.4340  142.0700 C   0  0  0  0  0  2  0  0  0  0  0  0
  186.7140  178.3470  143.1850 C   0  0  0  0  0  2  0  0  0  0  0  0
  185.3700  177.8940  143.7560 C   0  0  2  0  0  3  0  0  0  0  0  0
  183.6360  178.2980  142.0900 N   0  0  0  0  0  1  0  0  0  0  0  0
  183.2570  178.8730  144.3060 O   0  0  0  0  0  1  0  0  0  0  0  0
  184.2340  178.8100  143.3110 C   0  0  1  0  0  3  0  0  0  0  0  0
  185.4310  177.8250  145.1500 O   0  0  0  0  0  0  0  0  0  0  0  0
  186.4850  178.6710  145.5040 C   0  0  0  0  0  2  0  0  0  0  0  0
  187.0060  178.3150  146.8890 C   0  0  0  0  0  2  0  0  0  0  0  0
  188.1940  177.3690  146.7990 C   0  0  2  0  0  3  0  0  0  0  0  0
  189.0980  177.5890  148.0120 C   0  0  0  0  0  2  0  0  0  0  0  0
  190.1990  176.7000  145.4400 C   0  0  0  0  0  2  0  0  0  0  0  0
  191.0960  176.9210  146.6580 C   0  0  2  0  0  3  0  0  0  0  0  0
  188.9820  177.6220  145.5100 C   0  0  0  0  0  2  0  0  0  0  0  0
  192.1890  176.0560  146.5950 O   0  0  0  0  0  1  0  0  0  0  0  0
  190.3110  176.6620  147.9420 C   0  0  0  0  0  2  0  0  0  0  0  0
  191.1790  176.9740  137.4850 C   0  0  0  0  0  2  0  0  0  0  0  0
  193.1510  176.8740  138.6590 O   0  0  0  0  0  0  0  0  0  0  0  0
  193.0930  175.8500  135.7910 C   0  0  0  0  0  1  0  0  0  0  0  0
  192.1720  176.1000  138.1150 N   0  0  0  0  0  0  0  0  0  0  0  0
  192.8540  175.2260  137.1670 C   0  0  0  0  0  0  0  0  0  0  0  0
  194.2060  176.0310  138.8710 N   0  0  0  0  0  2  0  0  0  0  0  0
  192.1250  173.9040  137.0410 C   0  0  0  0  0  1  0  0  0  0  0  0
  194.1740  175.0300  137.8180 C   0  0  0  0  0  2  0  0  0  0  0  0
  185.9090  173.5940  137.3800 C   0  0  0  0  0  2  0  0  0  0  0  0
  186.3810  172.4090  136.5430 C   0  0  0  0  0  2  0  0  0  0  0  0
  185.3910  172.1110  135.4270 C   0  0  0  0  0  2  0  0  0  0  0  0
  184.1920  173.0050  135.5010 C   0  0  0  0  0  0  0  0  0  0  0  0
  184.1060  174.0380  134.6540 C   0  0  0  0  0  3  0  0  0  0  0  0
  181.7450  174.7760  134.6110 O   0  0  0  0  0  0  0  0  0  0  0  0
  183.2610  176.3670  134.6300 N   0  0  0  0  0  0  0  0  0  0  0  0
  181.6820  178.3050  134.6210 C   0  0  0  0  0  1  0  0  0  0  0  0
  181.0690  175.8840  134.5990 N   0  0  0  0  0  0  0  0  0  0  0  0
  183.0290  175.0410  134.6280 C   0  0  0  0  0  0  0  0  0  0  0  0
  182.0030  176.8520  134.6060 C   0  0  0  0  0  0  0  0  0  0  0  0
  181.8730  172.2290  136.0020 C   0  0  0  0  0  2  0  0  0  0  0  0
  183.1750  172.7700  136.5780 C   0  0  2  0  0  3  0  0  0  0  0  0
  181.1290  173.6880  137.7010 C   0  0  1  0  0  3  0  0  0  0  0  0
  182.7900  174.3050  137.4810 S   0  0  0  0  0  0  0  0  0  0  0  0
  180.8060  172.6430  136.9500 C   0  0  0  0  0  2  0  0  0  0  0  0
  180.2520  174.1780  138.8120 C   0  0  0  0  0  2  0  0  0  0  0  0
  179.9520  176.3620  139.6820 C   0  0  0  0  0  3  0  0  0  0  0  0
  180.7570  175.4120  139.3660 N   0  0  0  0  0  0  0  0  0  0  0  0
  180.4620  177.6430  140.2760 C   0  0  0  0  0  2  0  0  0  0  0  0
  179.5760  177.9070  142.5530 N   0  0  0  0  0  1  0  0  0  0  0  0
  179.4320  178.3330  141.1690 C   0  0  1  0  0  3  0  0  0  0  0  0
  179.5600  179.7220  141.0800 O   0  0  0  0  0  1  0  0  0  0  0  0
  2  8  1  6  0  0  0
  2  5  1  0  0  0  0
  2  3  1  0  0  0  0
  3  6  1  0  0  0  0
  3  9  1  1  0  0  0
  4 38  1  1  0  0  0
  4  1  1  0  0  0  0
  5  4  1  0  0  0  0
  6  1  1  0  0  0  0
  8  7  1  0  0  0  0
  9 30  1  6  0  0  0
 10 11  1  0  0  0  0
 11 13  1  1  0  0  0
 12  9  1  6  0  0  0
 12 10  1  0  0  0  0
 12 11  1  0  0  0  0
 13 14  1  0  0  0  0
 14 15  1  0  0  0  0
 16 15  1  1  0  0  0
 16 20  1  0  0  0  0
 19 17  1  6  0  0  0
 19 16  1  0  0  0  0
 19 18  1  0  0  0  0
 20 21  1  0  0  0  0
 21 22  1  0  0  0  0
 23 22  1  1  0  0  0
 23 24  1  0  0  0  0
 25 27  1  0  0  0  0
 25 26  1  0  0  0  0
 26 28  1  6  0  0  0
 26 29  1  0  0  0  0
 27 23  1  0  0  0  0
 29 24  1  0  0  0  0
 30 33  1  0  0  0  0
 31 35  1  0  0  0  0
 32 34  1  0  0  0  0
 33 31  1  0  0  0  0
 34 37  1  0  0  0  0
 34 33  1  0  0  0  0
 36 34  1  0  0  0  0
 37 35  1  0  0  0  0
 39 38  1  0  0  0  0
 40 41  1  0  0  0  0
 40 39  1  0  0  0  0
 42 41  2  0  0  0  0
 43 47  1  0  0  0  0
 46 48  2  0  0  0  0
 46 43  1  0  0  0  0
 47 44  2  0  0  0  0
 47 42  1  0  0  0  0
 48 45  1  0  0  0  0
 48 44  1  0  0  0  0
 49 50  1  0  0  0  0
 49 53  1  0  0  0  0
 50 41  1  6  0  0  0
 50 52  1  0  0  0  0
 51 54  1  1  0  0  0
 52 51  1  0  0  0  0
 53 51  1  0  0  0  0
 54 56  1  0  0  0  0
 55 57  1  0  0  0  0
 56 55  2  0  0  0  0
 57 59  1  0  0  0  0
 59 60  1  1  0  0  0
 59 58  1  0  0  0  0
M  END
>  <MODEL>
9

>  <REMARK>
 VINA RESULT:      -4.3      3.153      8.148
  Name = 
  24 active torsions:
  status: ('A' for Active; 'I' for Inactive)
    1  A    between atoms: C_2  and  C_16
    2  A    between atoms: C_2  and  O_24
    3  A    between atoms: C_2  and  C_48
    4  A    between atoms: C_5  and  C_25
    5  A    between atoms: C_7  and  C_29
    6  A    between atoms: C_7  and  C_35
    7  A    between atoms: C_10  and  C_12
    8  A    between atoms: C_10  and  C_50
    9  A    between atoms: C_14  and  C_27
   10  A    between atoms: C_14  and  C_30
   11  A    between atoms: C_15  and  C_25
   12  A    between atoms: C_16  and  C_27
   13  A    between atoms: C_17  and  C_23
   14  A    between atoms: C_17  and  C_39
   15  A    between atoms: C_17  and  C_59
   16  A    between atoms: C_18  and  C_19
   17  A    between atoms: C_18  and  C_40
   18  A    between atoms: C_19  and  C_35
   19  A    between atoms: C_21  and  C_60
   20  A    between atoms: O_24  and  C_50
   21  A    between atoms: N_34  and  C_55
   22  A    between atoms: N_36  and  C_39
   23  A    between atoms: C_37  and  C_44
   24  A    between atoms: C_41  and  C_55
                            x       y       z     vdW  Elec       q    Type
                         _______ _______ _______ _____ _____    ______ ____

>  <TORSDO>
F 24

$$$$
