=
 OpenBabel11062414443D

 27 30  0  0  1  0  0  0  0  0999 V2000
  187.7590  176.7810  142.6700 O   0  0  0  0  0  0  0  0  0  0  0  0
  189.7850  178.0250  142.1560 C   0  0  2  0  0  3  0  0  0  0  0  0
  191.2920  178.0580  142.4590 C   0  0  0  0  0  2  0  0  0  0  0  0
  191.8410  176.7610  142.4320 O   0  0  0  0  0  0  0  0  0  0  0  0
  189.8350  175.7460  143.2790 C   0  0  0  0  0  2  0  0  0  0  0  0
  191.3070  176.0670  143.5330 C   0  0  0  0  0  2  0  0  0  0  0  0
  189.0590  177.0520  143.1090 C   0  0  2  0  0  3  0  0  0  0  0  0
  188.9290  177.3570  138.0660 N   0  0  0  0  0  2  0  0  0  0  0  0
  186.7730  178.5250  138.3720 N   0  0  0  0  0  1  0  0  0  0  0  0
  188.0050  178.0610  138.9040 C   0  0  0  0  0  0  0  0  0  0  0  0
  189.5120  177.7480  140.7450 N   0  0  0  0  0  0  0  0  0  0  0  0
  190.2900  176.7520  139.9980 C   0  0  0  0  0  2  0  0  0  0  0  0
  190.2930  177.0960  138.5130 C   0  0  0  0  0  2  0  0  0  0  0  0
  188.2980  178.2670  140.1870 C   0  0  0  0  0  3  0  0  0  0  0  0
  187.0080  176.6040  143.8340 C   0  0  0  0  0  2  0  0  0  0  0  0
  188.5660  178.2900  148.6290 C   0  0  0  0  0  2  0  0  0  0  0  0
  185.5490  178.9720  146.2790 C   0  0  1  0  0  3  0  0  0  0  0  0
  185.7250  178.6140  144.7920 C   0  0  0  0  0  0  0  0  0  0  0  0
  184.6180  178.1220  146.8860 O   0  0  0  0  0  1  0  0  0  0  0  0
  187.4550  177.5560  146.1000 C   0  0  1  0  0  3  0  0  0  0  0  0
  187.0690  178.4900  148.3460 C   0  0  0  0  0  2  0  0  0  0  0  0
  187.0740  177.8720  144.6760 C   0  0  1  0  0  3  0  0  0  0  0  0
  188.9430  177.4570  146.3920 C   0  0  0  0  0  2  0  0  0  0  0  0
  186.9280  178.7350  146.8550 C   0  0  2  0  0  3  0  0  0  0  0  0
  185.7870  179.7770  144.0480 F   0  0  0  0  0  0  0  0  0  0  0  0
  184.6620  177.8460  144.3380 F   0  0  0  0  0  0  0  0  0  0  0  0
  189.1260  177.1920  147.8250 N   0  0  0  0  0  2  0  0  0  0  0  0
  1 15  1  0  0  0  0
  2 11  1  6  0  0  0
  2  3  1  0  0  0  0
  2  7  1  0  0  0  0
  4  3  1  0  0  0  0
  4  6  1  0  0  0  0
  5  6  1  0  0  0  0
  7  1  1  6  0  0  0
  7  5  1  0  0  0  0
  8 13  1  0  0  0  0
  8 10  1  0  0  0  0
  9 10  1  0  0  0  0
 10 14  2  0  0  0  0
 12 11  1  0  0  0  0
 13 12  1  0  0  0  0
 14 11  1  0  0  0  0
 17 24  1  0  0  0  0
 17 19  1  1  0  0  0
 18 17  1  0  0  0  0
 20 23  1  6  0  0  0
 20 24  1  0  0  0  0
 21 16  1  0  0  0  0
 22 15  1  6  0  0  0
 22 18  1  0  0  0  0
 22 20  1  0  0  0  0
 23 27  1  0  0  0  0
 24 21  1  1  0  0  0
 25 18  1  0  0  0  0
 26 18  1  0  0  0  0
 27 16  1  0  0  0  0
M  END
>  <MODEL>
1

>  <REMARK>
 VINA RESULT:      -8.2      0.000      0.000
  Name = 
  4 active torsions:
  status: ('A' for Active; 'I' for Inactive)
    1  A    between atoms: O_7  and  C_22
    2  A    between atoms: O_7  and  C_25
    3  A    between atoms: C_9  and  N_12
    4  A    between atoms: C_17  and  C_25
                            x       y       z     vdW  Elec       q    Type
                         _______ _______ _______ _____ _____    ______ ____

>  <TORSDO>
F 4

$$$$
=
 OpenBabel11062414443D

 27 30  0  0  1  0  0  0  0  0999 V2000
  187.6860  176.9820  142.6030 O   0  0  0  0  0  0  0  0  0  0  0  0
  189.8160  178.0260  142.0650 C   0  0  2  0  0  3  0  0  0  0  0  0
  191.3140  177.9560  142.4020 C   0  0  0  0  0  2  0  0  0  0  0  0
  191.7560  176.6200  142.4660 O   0  0  0  0  0  0  0  0  0  0  0  0
  189.6580  175.8240  143.3220 C   0  0  0  0  0  2  0  0  0  0  0  0
  191.1460  176.0400  143.5930 C   0  0  0  0  0  2  0  0  0  0  0  0
  188.9950  177.1740  143.0560 C   0  0  2  0  0  3  0  0  0  0  0  0
  189.0940  176.9020  138.0490 N   0  0  0  0  0  2  0  0  0  0  0  0
  191.1060  175.4700  138.1350 N   0  0  0  0  0  1  0  0  0  0  0  0
  190.2100  176.3700  138.7720 C   0  0  0  0  0  0  0  0  0  0  0  0
  189.5490  177.6850  140.6660 N   0  0  0  0  0  0  0  0  0  0  0  0
  188.6250  178.4810  139.8490 C   0  0  0  0  0  2  0  0  0  0  0  0
  188.0280  177.6180  138.7440 C   0  0  0  0  0  2  0  0  0  0  0  0
  190.4140  176.7310  140.0370 C   0  0  0  0  0  3  0  0  0  0  0  0
  186.9280  176.7540  143.7530 C   0  0  0  0  0  2  0  0  0  0  0  0
  188.5570  178.2550  148.5860 C   0  0  0  0  0  2  0  0  0  0  0  0
  185.4770  178.9810  146.3330 C   0  0  1  0  0  3  0  0  0  0  0  0
  185.6270  178.6930  144.8270 C   0  0  0  0  0  0  0  0  0  0  0  0
  184.5760  178.0860  146.9200 O   0  0  0  0  0  1  0  0  0  0  0  0
  187.4060  177.6120  146.0510 C   0  0  1  0  0  3  0  0  0  0  0  0
  187.0510  178.4370  148.3440 C   0  0  0  0  0  2  0  0  0  0  0  0
  186.9880  177.9850  144.6500 C   0  0  1  0  0  3  0  0  0  0  0  0
  188.9020  177.5300  146.3060 C   0  0  0  0  0  2  0  0  0  0  0  0
  186.8730  178.7450  146.8690 C   0  0  2  0  0  3  0  0  0  0  0  0
  185.6520  179.8890  144.1360 F   0  0  0  0  0  0  0  0  0  0  0  0
  184.5700  177.9250  144.3610 F   0  0  0  0  0  0  0  0  0  0  0  0
  189.1200  177.2060  147.7220 N   0  0  0  0  0  2  0  0  0  0  0  0
  1 15  1  0  0  0  0
  2 11  1  6  0  0  0
  2  3  1  0  0  0  0
  2  7  1  0  0  0  0
  3  4  1  0  0  0  0
  4  6  1  0  0  0  0
  5  6  1  0  0  0  0
  7  1  1  6  0  0  0
  7  5  1  0  0  0  0
  8 13  1  0  0  0  0
  8 10  1  0  0  0  0
  9 10  1  0  0  0  0
 10 14  2  0  0  0  0
 12 11  1  0  0  0  0
 13 12  1  0  0  0  0
 14 11  1  0  0  0  0
 17 24  1  0  0  0  0
 17 19  1  1  0  0  0
 18 17  1  0  0  0  0
 20 23  1  6  0  0  0
 20 24  1  0  0  0  0
 21 16  1  0  0  0  0
 22 15  1  6  0  0  0
 22 18  1  0  0  0  0
 22 20  1  0  0  0  0
 23 27  1  0  0  0  0
 24 21  1  1  0  0  0
 25 18  1  0  0  0  0
 26 18  1  0  0  0  0
 27 16  1  0  0  0  0
M  END
>  <MODEL>
2

>  <REMARK>
 VINA RESULT:      -8.1      0.610      1.422
  Name = 
  4 active torsions:
  status: ('A' for Active; 'I' for Inactive)
    1  A    between atoms: O_7  and  C_22
    2  A    between atoms: O_7  and  C_25
    3  A    between atoms: C_9  and  N_12
    4  A    between atoms: C_17  and  C_25
                            x       y       z     vdW  Elec       q    Type
                         _______ _______ _______ _____ _____    ______ ____

>  <TORSDO>
F 4

$$$$
=
 OpenBabel11062414443D

 27 30  0  0  1  0  0  0  0  0999 V2000
  187.5260  178.2900  140.2860 O   0  0  0  0  0  0  0  0  0  0  0  0
  188.4790  178.2250  138.0500 C   0  0  2  0  0  3  0  0  0  0  0  0
  189.7660  177.8530  137.2950 C   0  0  0  0  0  2  0  0  0  0  0  0
  190.3020  176.6420  137.7760 O   0  0  0  0  0  0  0  0  0  0  0  0
  189.5620  177.0510  140.0250 C   0  0  0  0  0  2  0  0  0  0  0  0
  190.7560  176.8870  139.0850 C   0  0  0  0  0  2  0  0  0  0  0  0
  188.7280  178.2480  139.5720 C   0  0  2  0  0  3  0  0  0  0  0  0
  185.2860  175.6420  137.0270 N   0  0  0  0  0  2  0  0  0  0  0  0
  186.9150  173.8000  136.7780 N   0  0  0  0  0  1  0  0  0  0  0  0
  186.6330  175.1580  137.0860 C   0  0  0  0  0  0  0  0  0  0  0  0
  187.3520  177.3710  137.6710 N   0  0  0  0  0  0  0  0  0  0  0  0
  186.0550  177.9430  137.2880 C   0  0  0  0  0  2  0  0  0  0  0  0
  184.9370  176.9470  137.5780 C   0  0  0  0  0  2  0  0  0  0  0  0
  187.6210  175.9860  137.4180 C   0  0  0  0  0  3  0  0  0  0  0  0
  187.8840  178.6480  141.5880 C   0  0  0  0  0  2  0  0  0  0  0  0
  183.9540  178.9210  145.1570 C   0  0  0  0  0  2  0  0  0  0  0  0
  187.4270  177.1930  144.9620 C   0  0  1  0  0  3  0  0  0  0  0  0
  188.0410  177.0110  143.5620 C   0  0  0  0  0  0  0  0  0  0  0  0
  188.1620  178.1210  145.7080 O   0  0  0  0  0  1  0  0  0  0  0  0
  186.2340  178.6090  143.4640 C   0  0  1  0  0  3  0  0  0  0  0  0
  185.3120  178.5080  145.7450 C   0  0  0  0  0  2  0  0  0  0  0  0
  187.1260  177.7740  142.5790 C   0  0  1  0  0  3  0  0  0  0  0  0
  184.8550  178.9310  142.9150 C   0  0  0  0  0  2  0  0  0  0  0  0
  186.0460  177.7360  144.6640 C   0  0  2  0  0  3  0  0  0  0  0  0
  188.0320  175.6690  143.2320 F   0  0  0  0  0  0  0  0  0  0  0  0
  189.3490  177.4730  143.5300 F   0  0  0  0  0  0  0  0  0  0  0  0
  184.1150  179.7040  143.9220 N   0  0  0  0  0  2  0  0  0  0  0  0
  1 15  1  0  0  0  0
  2  3  1  6  0  0  0
  2  7  1  0  0  0  0
  3  4  1  0  0  0  0
  4  6  1  0  0  0  0
  6  5  1  0  0  0  0
  7  5  1  0  0  0  0
  7  1  1  1  0  0  0
  8 10  1  0  0  0  0
  8 13  1  0  0  0  0
  9 10  1  0  0  0  0
 10 14  2  0  0  0  0
 11  2  1  0  0  0  0
 12 13  1  0  0  0  0
 12 11  1  0  0  0  0
 14 11  1  0  0  0  0
 16 21  1  0  0  0  0
 17 19  1  1  0  0  0
 18 17  1  0  0  0  0
 20 23  1  6  0  0  0
 20 24  1  0  0  0  0
 22 15  1  6  0  0  0
 22 20  1  0  0  0  0
 22 18  1  0  0  0  0
 23 27  1  0  0  0  0
 24 17  1  0  0  0  0
 24 21  1  1  0  0  0
 25 18  1  0  0  0  0
 26 18  1  0  0  0  0
 27 16  1  0  0  0  0
M  END
>  <MODEL>
3

>  <REMARK>
 VINA RESULT:      -8.1      2.861      4.284
  Name = 
  4 active torsions:
  status: ('A' for Active; 'I' for Inactive)
    1  A    between atoms: O_7  and  C_22
    2  A    between atoms: O_7  and  C_25
    3  A    between atoms: C_9  and  N_12
    4  A    between atoms: C_17  and  C_25
                            x       y       z     vdW  Elec       q    Type
                         _______ _______ _______ _____ _____    ______ ____

>  <TORSDO>
F 4

$$$$
=
 OpenBabel11062414443D

 27 30  0  0  1  0  0  0  0  0999 V2000
  188.1430  177.5050  140.4760 O   0  0  0  0  0  0  0  0  0  0  0  0
  188.3950  178.3550  138.2110 C   0  0  2  0  0  3  0  0  0  0  0  0
  189.3970  178.4080  137.0460 C   0  0  0  0  0  2  0  0  0  0  0  0
  190.0280  177.1620  136.8640 O   0  0  0  0  0  0  0  0  0  0  0  0
  189.9890  176.6460  139.2100 C   0  0  0  0  0  2  0  0  0  0  0  0
  190.8510  176.9510  137.9860 C   0  0  0  0  0  2  0  0  0  0  0  0
  189.0810  177.8420  139.4950 C   0  0  2  0  0  3  0  0  0  0  0  0
  184.8430  176.2910  137.1960 N   0  0  0  0  0  2  0  0  0  0  0  0
  183.5400  178.0910  138.2780 N   0  0  0  0  0  1  0  0  0  0  0  0
  184.7930  177.5400  137.8950 C   0  0  0  0  0  0  0  0  0  0  0  0
  187.1910  177.5960  137.8680 N   0  0  0  0  0  0  0  0  0  0  0  0
  187.2650  176.1860  137.4670 C   0  0  0  0  0  2  0  0  0  0  0  0
  186.0810  175.8330  136.5730 C   0  0  0  0  0  2  0  0  0  0  0  0
  185.9220  178.1770  138.1980 C   0  0  0  0  0  3  0  0  0  0  0  0
  188.5480  178.1900  141.6240 C   0  0  0  0  0  2  0  0  0  0  0  0
  187.4030  177.5850  146.7800 C   0  0  0  0  0  2  0  0  0  0  0  0
  190.4590  176.8480  144.4980 C   0  0  1  0  0  3  0  0  0  0  0  0
  190.1970  176.7630  142.9830 C   0  0  0  0  0  0  0  0  0  0  0  0
  191.2240  177.9780  144.8060 O   0  0  0  0  0  1  0  0  0  0  0  0
  188.3200  177.8080  144.0820 C   0  0  1  0  0  3  0  0  0  0  0  0
  188.9070  177.5850  146.4640 C   0  0  0  0  0  2  0  0  0  0  0  0
  188.7310  177.1980  142.7660 C   0  0  1  0  0  3  0  0  0  0  0  0
  186.8440  177.7170  144.4320 C   0  0  0  0  0  2  0  0  0  0  0  0
  189.0680  176.9830  145.0800 C   0  0  2  0  0  3  0  0  0  0  0  0
  190.3410  175.4530  142.5690 F   0  0  0  0  0  0  0  0  0  0  0  0
  191.0920  177.5580  142.2800 F   0  0  0  0  0  0  0  0  0  0  0  0
  186.6360  178.3150  145.7580 N   0  0  0  0  0  2  0  0  0  0  0  0
  1 15  1  0  0  0  0
  2  3  1  6  0  0  0
  2  7  1  0  0  0  0
  4  3  1  0  0  0  0
  4  6  1  0  0  0  0
  5  7  1  0  0  0  0
  6  5  1  0  0  0  0
  7  1  1  1  0  0  0
  8 10  1  0  0  0  0
 10 14  2  0  0  0  0
 10  9  1  0  0  0  0
 11 14  1  0  0  0  0
 11  2  1  0  0  0  0
 12 11  1  0  0  0  0
 13  8  1  0  0  0  0
 13 12  1  0  0  0  0
 17 19  1  6  0  0  0
 17 24  1  0  0  0  0
 18 17  1  0  0  0  0
 20 23  1  1  0  0  0
 20 24  1  0  0  0  0
 21 16  1  0  0  0  0
 22 15  1  6  0  0  0
 22 18  1  0  0  0  0
 22 20  1  0  0  0  0
 23 27  1  0  0  0  0
 24 21  1  1  0  0  0
 25 18  1  0  0  0  0
 26 18  1  0  0  0  0
 27 16  1  0  0  0  0
M  END
>  <MODEL>
4

>  <REMARK>
 VINA RESULT:      -8.0      2.811      4.370
  Name = 
  4 active torsions:
  status: ('A' for Active; 'I' for Inactive)
    1  A    between atoms: O_7  and  C_22
    2  A    between atoms: O_7  and  C_25
    3  A    between atoms: C_9  and  N_12
    4  A    between atoms: C_17  and  C_25
                            x       y       z     vdW  Elec       q    Type
                         _______ _______ _______ _____ _____    ______ ____

>  <TORSDO>
F 4

$$$$
=
 OpenBabel11062414443D

 27 30  0  0  1  0  0  0  0  0999 V2000
  187.5160  177.8760  140.5030 O   0  0  0  0  0  0  0  0  0  0  0  0
  188.2560  178.3620  138.2380 C   0  0  2  0  0  3  0  0  0  0  0  0
  189.4960  178.2920  137.3310 C   0  0  0  0  0  2  0  0  0  0  0  0
  190.1850  177.0770  137.5100 O   0  0  0  0  0  0  0  0  0  0  0  0
  189.6250  176.9470  139.8430 C   0  0  0  0  0  2  0  0  0  0  0  0
  190.7350  177.1050  138.8050 C   0  0  0  0  0  2  0  0  0  0  0  0
  188.6440  178.1100  139.7100 C   0  0  2  0  0  3  0  0  0  0  0  0
  185.0790  175.9360  136.8510 N   0  0  0  0  0  2  0  0  0  0  0  0
  183.4890  177.6910  137.5570 N   0  0  0  0  0  1  0  0  0  0  0  0
  184.8240  177.2220  137.4250 C   0  0  0  0  0  0  0  0  0  0  0  0
  187.1830  177.4810  137.7740 N   0  0  0  0  0  0  0  0  0  0  0  0
  187.4240  176.0580  137.5100 C   0  0  0  0  0  2  0  0  0  0  0  0
  186.4320  175.5420  136.4740 C   0  0  0  0  0  2  0  0  0  0  0  0
  185.8380  177.9730  137.8480 C   0  0  0  0  0  3  0  0  0  0  0  0
  187.7830  178.5100  141.7190 C   0  0  0  0  0  2  0  0  0  0  0  0
  185.0470  178.3540  146.2740 C   0  0  0  0  0  2  0  0  0  0  0  0
  188.4930  177.0500  145.0470 C   0  0  1  0  0  3  0  0  0  0  0  0
  188.6940  176.9260  143.5250 C   0  0  0  0  0  0  0  0  0  0  0  0
  189.2980  178.0680  145.5700 O   0  0  0  0  0  1  0  0  0  0  0  0
  186.7620  178.2970  143.9890 C   0  0  1  0  0  3  0  0  0  0  0  0
  186.5550  178.1130  146.4360 C   0  0  0  0  0  2  0  0  0  0  0  0
  187.4510  177.5640  142.8660 C   0  0  1  0  0  3  0  0  0  0  0  0
  185.2540  178.4460  143.8680 C   0  0  0  0  0  2  0  0  0  0  0  0
  187.0310  177.4220  145.1720 C   0  0  2  0  0  3  0  0  0  0  0  0
  188.7470  175.5890  143.1810 F   0  0  0  0  0  0  0  0  0  0  0  0
  189.8730  177.5410  143.1290 F   0  0  0  0  0  0  0  0  0  0  0  0
  184.7520  179.1360  145.0630 N   0  0  0  0  0  2  0  0  0  0  0  0
  1 15  1  0  0  0  0
  2  3  1  6  0  0  0
  2  7  1  0  0  0  0
  3  4  1  0  0  0  0
  4  6  1  0  0  0  0
  6  5  1  0  0  0  0
  7  5  1  0  0  0  0
  7  1  1  1  0  0  0
  8 10  1  0  0  0  0
 10  9  1  0  0  0  0
 10 14  2  0  0  0  0
 11 14  1  0  0  0  0
 11  2  1  0  0  0  0
 12 11  1  0  0  0  0
 13  8  1  0  0  0  0
 13 12  1  0  0  0  0
 16 21  1  0  0  0  0
 17 24  1  0  0  0  0
 17 19  1  6  0  0  0
 18 17  1  0  0  0  0
 20 23  1  6  0  0  0
 20 24  1  0  0  0  0
 22 15  1  6  0  0  0
 22 18  1  0  0  0  0
 22 20  1  0  0  0  0
 23 27  1  0  0  0  0
 24 21  1  1  0  0  0
 25 18  1  0  0  0  0
 26 18  1  0  0  0  0
 27 16  1  0  0  0  0
M  END
>  <MODEL>
5

>  <REMARK>
 VINA RESULT:      -8.0      2.744      4.030
  Name = 
  4 active torsions:
  status: ('A' for Active; 'I' for Inactive)
    1  A    between atoms: O_7  and  C_22
    2  A    between atoms: O_7  and  C_25
    3  A    between atoms: C_9  and  N_12
    4  A    between atoms: C_17  and  C_25
                            x       y       z     vdW  Elec       q    Type
                         _______ _______ _______ _____ _____    ______ ____

>  <TORSDO>
F 4

$$$$
=
 OpenBabel11062414443D

 27 30  0  0  1  0  0  0  0  0999 V2000
  189.3820  176.7800  140.0240 O   0  0  0  0  0  0  0  0  0  0  0  0
  188.9210  176.3250  137.6790 C   0  0  2  0  0  3  0  0  0  0  0  0
  188.4880  177.0180  136.3770 C   0  0  0  0  0  2  0  0  0  0  0  0
  189.1510  178.2500  136.2150 O   0  0  0  0  0  0  0  0  0  0  0  0
  189.2070  178.6840  138.5780 C   0  0  0  0  0  2  0  0  0  0  0  0
  188.6630  179.1120  137.2150 C   0  0  0  0  0  2  0  0  0  0  0  0
  188.7290  177.2660  138.8870 C   0  0  2  0  0  3  0  0  0  0  0  0
  192.8770  174.8260  137.5550 N   0  0  0  0  0  2  0  0  0  0  0  0
  193.6500  176.9020  138.6510 N   0  0  0  0  0  1  0  0  0  0  0  0
  192.5940  176.1060  138.1310 C   0  0  0  0  0  0  0  0  0  0  0  0
  190.2790  175.7850  137.5910 N   0  0  0  0  0  0  0  0  0  0  0  0
  190.5940  174.6530  136.7110 C   0  0  0  0  0  2  0  0  0  0  0  0
  191.7990  173.8900  137.2510 C   0  0  0  0  0  2  0  0  0  0  0  0
  191.3410  176.5550  138.1680 C   0  0  0  0  0  3  0  0  0  0  0  0
  189.0020  177.6350  141.0600 C   0  0  0  0  0  2  0  0  0  0  0  0
  186.4620  177.7530  145.7290 C   0  0  0  0  0  2  0  0  0  0  0  0
  190.0370  176.8300  144.5240 C   0  0  1  0  0  3  0  0  0  0  0  0
  190.2100  176.5070  143.0280 C   0  0  0  0  0  0  0  0  0  0  0  0
  190.6810  178.0280  144.8490 O   0  0  0  0  0  1  0  0  0  0  0  0
  188.0960  177.6140  143.3890 C   0  0  1  0  0  3  0  0  0  0  0  0
  187.9940  177.7770  145.8440 C   0  0  0  0  0  2  0  0  0  0  0  0
  188.8620  176.8350  142.3500 C   0  0  1  0  0  3  0  0  0  0  0  0
  186.5810  177.5070  143.3280 C   0  0  0  0  0  2  0  0  0  0  0  0
  188.5380  176.9840  144.6710 C   0  0  2  0  0  3  0  0  0  0  0  0
  190.4690  175.1580  142.8800 F   0  0  0  0  0  0  0  0  0  0  0  0
  191.2620  177.2300  142.4830 F   0  0  0  0  0  0  0  0  0  0  0  0
  186.0090  178.2850  144.4340 N   0  0  0  0  0  2  0  0  0  0  0  0
  1 15  1  0  0  0  0
  2  3  1  6  0  0  0
  2  7  1  0  0  0  0
  4  3  1  0  0  0  0
  4  6  1  0  0  0  0
  5  7  1  0  0  0  0
  6  5  1  0  0  0  0
  7  1  1  1  0  0  0
  8 10  1  0  0  0  0
 10 14  2  0  0  0  0
 10  9  1  0  0  0  0
 11  2  1  0  0  0  0
 11 14  1  0  0  0  0
 12 13  1  0  0  0  0
 12 11  1  0  0  0  0
 13  8  1  0  0  0  0
 16 21  1  0  0  0  0
 17 24  1  0  0  0  0
 17 19  1  6  0  0  0
 18 17  1  0  0  0  0
 20 23  1  6  0  0  0
 20 24  1  0  0  0  0
 22 15  1  6  0  0  0
 22 18  1  0  0  0  0
 22 20  1  0  0  0  0
 23 27  1  0  0  0  0
 24 21  1  1  0  0  0
 25 18  1  0  0  0  0
 26 18  1  0  0  0  0
 27 16  1  0  0  0  0
M  END
>  <MODEL>
6

>  <REMARK>
 VINA RESULT:      -7.8      3.221      5.010
  Name = 
  4 active torsions:
  status: ('A' for Active; 'I' for Inactive)
    1  A    between atoms: O_7  and  C_22
    2  A    between atoms: O_7  and  C_25
    3  A    between atoms: C_9  and  N_12
    4  A    between atoms: C_17  and  C_25
                            x       y       z     vdW  Elec       q    Type
                         _______ _______ _______ _____ _____    ______ ____

>  <TORSDO>
F 4

$$$$
=
 OpenBabel11062414443D

 27 30  0  0  1  0  0  0  0  0999 V2000
  187.9290  177.2800  142.0600 O   0  0  0  0  0  0  0  0  0  0  0  0
  190.2170  178.0690  141.8290 C   0  0  2  0  0  3  0  0  0  0  0  0
  191.6310  177.8580  142.3960 C   0  0  0  0  0  2  0  0  0  0  0  0
  191.9080  176.4870  142.5650 O   0  0  0  0  0  0  0  0  0  0  0  0
  189.6290  175.9550  143.1080 C   0  0  0  0  0  2  0  0  0  0  0  0
  191.0740  176.0250  143.6000 C   0  0  0  0  0  2  0  0  0  0  0  0
  189.1670  177.3540  142.7040 C   0  0  2  0  0  3  0  0  0  0  0  0
  189.9540  177.1360  137.7100 N   0  0  0  0  0  2  0  0  0  0  0  0
  188.4250  179.0550  137.4180 N   0  0  0  0  0  1  0  0  0  0  0  0
  189.2470  178.2550  138.2560 C   0  0  0  0  0  0  0  0  0  0  0  0
  190.1290  177.6960  140.4160 N   0  0  0  0  0  0  0  0  0  0  0  0
  190.5710  176.3780  139.9450 C   0  0  0  0  0  2  0  0  0  0  0  0
  190.9910  176.4590  138.4820 C   0  0  0  0  0  2  0  0  0  0  0  0
  189.3500  178.5360  139.5530 C   0  0  0  0  0  3  0  0  0  0  0  0
  187.1830  178.3440  142.5710 C   0  0  0  0  0  2  0  0  0  0  0  0
  181.9670  178.9410  143.4060 C   0  0  0  0  0  2  0  0  0  0  0  0
  185.1050  178.4220  145.6350 C   0  0  1  0  0  3  0  0  0  0  0  0
  186.3610  177.8470  144.9540 C   0  0  0  0  0  0  0  0  0  0  0  0
  185.3130  179.7530  146.0130 O   0  0  0  0  0  1  0  0  0  0  0  0
  184.8040  178.6270  143.2820 C   0  0  1  0  0  3  0  0  0  0  0  0
  182.8410  179.2480  144.6320 C   0  0  0  0  0  2  0  0  0  0  0  0
  186.0560  177.8010  143.4400 C   0  0  1  0  0  3  0  0  0  0  0  0
  183.8950  178.2530  142.1220 C   0  0  0  0  0  2  0  0  0  0  0  0
  184.0570  178.3440  144.5460 C   0  0  2  0  0  3  0  0  0  0  0  0
  186.5750  176.5590  145.4070 F   0  0  0  0  0  0  0  0  0  0  0  0
  187.4780  178.6170  145.2420 F   0  0  0  0  0  0  0  0  0  0  0  0
  182.7130  179.1240  142.1510 N   0  0  0  0  0  2  0  0  0  0  0  0
  1 15  1  0  0  0  0
  2 11  1  6  0  0  0
  2  3  1  0  0  0  0
  2  7  1  0  0  0  0
  3  4  1  0  0  0  0
  4  6  1  0  0  0  0
  5  6  1  0  0  0  0
  7  1  1  6  0  0  0
  7  5  1  0  0  0  0
  8 10  1  0  0  0  0
  8 13  1  0  0  0  0
  9 10  1  0  0  0  0
 10 14  2  0  0  0  0
 12 11  1  0  0  0  0
 13 12  1  0  0  0  0
 14 11  1  0  0  0  0
 16 21  1  0  0  0  0
 17 19  1  6  0  0  0
 18 26  1  0  0  0  0
 18 25  1  0  0  0  0
 18 17  1  0  0  0  0
 20 23  1  6  0  0  0
 20 22  1  0  0  0  0
 20 24  1  0  0  0  0
 22 15  1  6  0  0  0
 22 18  1  0  0  0  0
 23 27  1  0  0  0  0
 24 21  1  1  0  0  0
 24 17  1  0  0  0  0
 27 16  1  0  0  0  0
M  END
>  <MODEL>
7

>  <REMARK>
 VINA RESULT:      -7.8      2.237      3.344
  Name = 
  4 active torsions:
  status: ('A' for Active; 'I' for Inactive)
    1  A    between atoms: O_7  and  C_22
    2  A    between atoms: O_7  and  C_25
    3  A    between atoms: C_9  and  N_12
    4  A    between atoms: C_17  and  C_25
                            x       y       z     vdW  Elec       q    Type
                         _______ _______ _______ _____ _____    ______ ____

>  <TORSDO>
F 4

$$$$
=
 OpenBabel11062414443D

 27 30  0  0  1  0  0  0  0  0999 V2000
  188.7990  178.2780  142.5400 O   0  0  0  0  0  0  0  0  0  0  0  0
  189.7610  176.8260  144.2380 C   0  0  2  0  0  3  0  0  0  0  0  0
  191.0560  176.5880  145.0310 C   0  0  0  0  0  2  0  0  0  0  0  0
  191.6100  177.8060  145.4720 O   0  0  0  0  0  0  0  0  0  0  0  0
  190.8560  179.0070  143.5320 C   0  0  0  0  0  2  0  0  0  0  0  0
  192.0550  178.4920  144.3270 C   0  0  0  0  0  2  0  0  0  0  0  0
  190.0040  177.8210  143.0840 C   0  0  2  0  0  3  0  0  0  0  0  0
  186.6420  178.0550  146.8210 N   0  0  0  0  0  2  0  0  0  0  0  0
  188.2530  178.0520  148.6950 N   0  0  0  0  0  1  0  0  0  0  0  0
  187.9710  177.8570  147.3160 C   0  0  0  0  0  0  0  0  0  0  0  0
  188.6490  177.2220  145.1040 N   0  0  0  0  0  0  0  0  0  0  0  0
  187.2540  177.0910  144.6650 C   0  0  0  0  0  2  0  0  0  0  0  0
  186.3800  178.1100  145.3860 C   0  0  0  0  0  2  0  0  0  0  0  0
  188.9390  177.4780  146.4850 C   0  0  0  0  0  3  0  0  0  0  0  0
  188.5980  177.5070  141.3930 C   0  0  0  0  0  2  0  0  0  0  0  0
  183.9410  179.0650  139.3560 C   0  0  0  0  0  2  0  0  0  0  0  0
  187.3960  178.0130  137.9270 C   0  0  1  0  0  3  0  0  0  0  0  0
  188.5990  178.0740  138.8860 C   0  0  0  0  0  0  0  0  0  0  0  0
  187.0900  176.6870  137.6000 O   0  0  0  0  0  1  0  0  0  0  0  0
  186.5400  178.1770  140.1430 C   0  0  1  0  0  3  0  0  0  0  0  0
  184.8390  178.3060  138.3670 C   0  0  0  0  0  2  0  0  0  0  0  0
  188.0260  178.3860  140.2870 C   0  0  1  0  0  3  0  0  0  0  0  0
  185.6540  179.0040  141.0600 C   0  0  0  0  0  2  0  0  0  0  0  0
  186.2750  178.6240  138.7410 C   0  0  2  0  0  3  0  0  0  0  0  0
  189.4340  179.1050  138.5040 F   0  0  0  0  0  0  0  0  0  0  0  0
  189.3120  176.8830  138.8630 F   0  0  0  0  0  0  0  0  0  0  0  0
  184.2490  178.7070  140.7500 N   0  0  0  0  0  2  0  0  0  0  0  0
  2  3  1  1  0  0  0
  2 11  1  0  0  0  0
  3  4  1  0  0  0  0
  5  6  1  0  0  0  0
  6  4  1  0  0  0  0
  7  1  1  1  0  0  0
  7  5  1  0  0  0  0
  7  2  1  0  0  0  0
  8 10  1  0  0  0  0
 10  9  1  0  0  0  0
 11 14  1  0  0  0  0
 12 11  1  0  0  0  0
 12 13  1  0  0  0  0
 13  8  1  0  0  0  0
 14 10  2  0  0  0  0
 15  1  1  0  0  0  0
 16 27  1  0  0  0  0
 17 19  1  1  0  0  0
 17 24  1  0  0  0  0
 17 18  1  0  0  0  0
 18 22  1  0  0  0  0
 20 22  1  0  0  0  0
 20 23  1  1  0  0  0
 21 16  1  0  0  0  0
 22 15  1  1  0  0  0
 24 21  1  6  0  0  0
 24 20  1  0  0  0  0
 25 18  1  0  0  0  0
 26 18  1  0  0  0  0
 27 23  1  0  0  0  0
M  END
>  <MODEL>
8

>  <REMARK>
 VINA RESULT:      -7.7      3.011      6.772
  Name = 
  4 active torsions:
  status: ('A' for Active; 'I' for Inactive)
    1  A    between atoms: O_7  and  C_22
    2  A    between atoms: O_7  and  C_25
    3  A    between atoms: C_9  and  N_12
    4  A    between atoms: C_17  and  C_25
                            x       y       z     vdW  Elec       q    Type
                         _______ _______ _______ _____ _____    ______ ____

>  <TORSDO>
F 4

$$$$
=
 OpenBabel11062414443D

 27 30  0  0  1  0  0  0  0  0999 V2000
  188.8940  178.2220  142.4210 O   0  0  0  0  0  0  0  0  0  0  0  0
  189.8120  176.8120  144.1770 C   0  0  2  0  0  3  0  0  0  0  0  0
  191.0670  176.6290  145.0460 C   0  0  0  0  0  2  0  0  0  0  0  0
  191.5420  177.8690  145.5170 O   0  0  0  0  0  0  0  0  0  0  0  0
  190.8550  179.0380  143.5330 C   0  0  0  0  0  2  0  0  0  0  0  0
  192.0260  178.5730  144.3990 C   0  0  0  0  0  2  0  0  0  0  0  0
  190.0820  177.8170  143.0370 C   0  0  2  0  0  3  0  0  0  0  0  0
  186.4950  177.9130  146.5620 N   0  0  0  0  0  2  0  0  0  0  0  0
  188.0050  178.0720  148.5120 N   0  0  0  0  0  1  0  0  0  0  0  0
  187.8070  177.8180  147.1280 C   0  0  0  0  0  0  0  0  0  0  0  0
  188.6350  177.1610  144.9740 N   0  0  0  0  0  0  0  0  0  0  0  0
  187.2760  176.9260  144.4730 C   0  0  0  0  0  2  0  0  0  0  0  0
  186.3030  177.9090  145.1150 C   0  0  0  0  0  2  0  0  0  0  0  0
  188.8380  177.4780  146.3580 C   0  0  0  0  0  3  0  0  0  0  0  0
  188.6810  177.3040  141.3910 C   0  0  0  0  0  2  0  0  0  0  0  0
  188.1440  177.7740  136.1230 C   0  0  0  0  0  2  0  0  0  0  0  0
  190.9360  176.5790  138.5440 C   0  0  1  0  0  3  0  0  0  0  0  0
  190.8330  177.0340  140.0120 C   0  0  0  0  0  0  0  0  0  0  0  0
  190.7260  175.2000  138.4380 O   0  0  0  0  0  1  0  0  0  0  0  0
  188.7210  177.3820  138.8940 C   0  0  1  0  0  3  0  0  0  0  0  0
  189.2560  176.8080  136.5590 C   0  0  0  0  0  2  0  0  0  0  0  0
  189.4640  177.7360  140.1570 C   0  0  1  0  0  3  0  0  0  0  0  0
  187.6910  178.3910  138.4150 C   0  0  0  0  0  2  0  0  0  0  0  0
  189.8110  177.3340  137.8700 C   0  0  2  0  0  3  0  0  0  0  0  0
  191.8350  177.9480  140.2770 F   0  0  0  0  0  0  0  0  0  0  0  0
  190.9650  175.9560  140.8760 F   0  0  0  0  0  0  0  0  0  0  0  0
  187.1060  177.9070  137.1580 N   0  0  0  0  0  2  0  0  0  0  0  0
  2 11  1  1  0  0  0
  2  3  1  0  0  0  0
  3  4  1  0  0  0  0
  5  6  1  0  0  0  0
  6  4  1  0  0  0  0
  7  1  1  1  0  0  0
  7  5  1  0  0  0  0
  7  2  1  0  0  0  0
  8 10  1  0  0  0  0
 10  9  1  0  0  0  0
 11 14  1  0  0  0  0
 12 11  1  0  0  0  0
 12 13  1  0  0  0  0
 13  8  1  0  0  0  0
 14 10  2  0  0  0  0
 15  1  1  0  0  0  0
 16 21  1  0  0  0  0
 16 27  1  0  0  0  0
 17 19  1  1  0  0  0
 17 18  1  0  0  0  0
 18 22  1  0  0  0  0
 18 25  1  0  0  0  0
 18 26  1  0  0  0  0
 20 23  1  6  0  0  0
 20 22  1  0  0  0  0
 22 15  1  1  0  0  0
 24 21  1  6  0  0  0
 24 17  1  0  0  0  0
 24 20  1  0  0  0  0
 27 23  1  0  0  0  0
M  END
>  <MODEL>
9

>  <REMARK>
 VINA RESULT:      -7.6      2.808      7.424
  Name = 
  4 active torsions:
  status: ('A' for Active; 'I' for Inactive)
    1  A    between atoms: O_7  and  C_22
    2  A    between atoms: O_7  and  C_25
    3  A    between atoms: C_9  and  N_12
    4  A    between atoms: C_17  and  C_25
                            x       y       z     vdW  Elec       q    Type
                         _______ _______ _______ _____ _____    ______ ____

>  <TORSDO>
F 4

$$$$
