=
 OpenBabel11062413293D

 30 32  0  0  1  0  0  0  0  0999 V2000
  189.8840  176.6700  141.7970 O   0  0  0  0  0  0  0  0  0  0  0  0
  187.4100  177.8810  141.6070 C   0  0  2  0  0  3  0  0  0  0  0  0
  188.0290  177.6690  143.0100 C   0  0  2  0  0  3  0  0  0  0  0  0
  188.5730  179.5260  140.1970 O   0  0  0  0  0  1  0  0  0  0  0  0
  189.9000  176.5630  144.0740 O   0  0  0  0  0  1  0  0  0  0  0  0
  190.3670  177.1280  138.2890 C   0  0  0  0  0  1  0  0  0  0  0  0
  189.8160  177.5290  140.6780 C   0  0  1  0  0  3  0  0  0  0  0  0
  189.5520  177.3710  142.9850 C   0  0  1  0  0  0  0  0  0  0  0  0
  188.1610  177.3930  139.2930 N   0  0  0  0  0  2  0  0  0  0  0  0
  189.4580  176.7350  139.4390 C   0  0  1  0  0  3  0  0  0  0  0  0
  188.4460  178.1660  140.4950 C   0  0  1  0  0  0  0  0  0  0  0  0
  185.0820  178.3740  140.7260 C   0  0  0  0  0  0  0  0  0  0  0  0
  183.8110  177.9160  141.3710 C   0  0  0  0  0  2  0  0  0  0  0  0
  186.2220  178.8810  141.5850 C   0  0  1  0  0  3  0  0  0  0  0  0
  185.1760  178.3720  139.5100 O   0  0  0  0  0  0  0  0  0  0  0  0
  185.7430  179.2840  142.9700 C   0  0  0  0  0  3  0  0  0  0  0  0
  183.3530  178.9900  142.3500 C   0  0  0  0  0  2  0  0  0  0  0  0
  184.4500  179.3170  143.3260 C   0  0  0  0  0  3  0  0  0  0  0  0
  190.3170  178.6990  143.1440 C   0  0  0  0  0  2  0  0  0  0  0  0
  191.7540  178.4780  143.5870 C   0  0  0  0  0  1  0  0  0  0  0  0
  187.2340  176.5650  143.7060 C   0  0  0  0  0  2  0  0  0  0  0  0
  186.3720  177.1580  144.8070 C   0  0  0  0  0  2  0  0  0  0  0  0
  187.2440  177.8540  145.8520 C   0  0  1  0  0  3  0  0  0  0  0  0
  186.4800  178.9050  146.6550 C   0  0  0  0  0  1  0  0  0  0  0  0
  187.9570  176.9490  146.6700 O   0  0  0  0  0  0  0  0  0  0  0  0
  189.1200  177.5780  147.1480 C   0  0  0  0  0  2  0  0  0  0  0  0
  191.4160  176.5530  147.2710 C   0  0  0  0  0  0  0  0  0  0  0  0
  192.3120  175.4970  147.8100 C   0  0  0  0  0  1  0  0  0  0  0  0
  191.8780  177.4200  146.4830 O   0  0  0  0  0  0  0  0  0  0  0  0
  190.0400  176.5740  147.6520 N   0  0  0  0  0  2  0  0  0  0  0  0
  1  8  1  0  0  0  0
  2 14  1  1  0  0  0
  2  3  1  0  0  0  0
  3 21  1  6  0  0  0
  7  1  1  1  0  0  0
  8  3  1  0  0  0  0
  8 19  1  0  0  0  0
  8  5  1  1  0  0  0
  9 10  1  0  0  0  0
  9 11  1  0  0  0  0
 10  6  1  6  0  0  0
 10  7  1  0  0  0  0
 11  4  1  6  0  0  0
 11  7  1  0  0  0  0
 11  2  1  0  0  0  0
 12 13  1  0  0  0  0
 12 14  1  0  0  0  0
 13 17  1  0  0  0  0
 14 16  1  1  0  0  0
 15 12  2  0  0  0  0
 16 18  2  0  0  0  0
 17 18  1  0  0  0  0
 19 20  1  0  0  0  0
 21 22  1  0  0  0  0
 22 23  1  0  0  0  0
 23 24  1  1  0  0  0
 23 25  1  0  0  0  0
 25 26  1  0  0  0  0
 26 30  1  0  0  0  0
 27 30  1  0  0  0  0
 27 28  1  0  0  0  0
 29 27  2  0  0  0  0
M  END
>  <MODEL>
1

>  <REMARK>
 VINA RESULT:      -7.0      0.000      0.000
  Name = 
  8 active torsions:
  status: ('A' for Active; 'I' for Inactive)
    1  A    between atoms: C_1  and  C_20
    2  A    between atoms: C_3  and  C_21
    3  A    between atoms: C_3  and  O_24
    4  A    between atoms: C_5  and  O_24
    5  A    between atoms: C_5  and  N_30
    6  A    between atoms: C_7  and  C_8
    7  A    between atoms: C_10  and  C_22
    8  A    between atoms: C_21  and  C_22
                            x       y       z     vdW  Elec       q    Type
                         _______ _______ _______ _____ _____    ______ ____

>  <TORSDO>
F 8

$$$$
=
 OpenBabel11062413293D

 30 32  0  0  1  0  0  0  0  0999 V2000
  183.5110  180.0020  139.3500 O   0  0  0  0  0  0  0  0  0  0  0  0
  183.5050  177.8810  137.5840 C   0  0  2  0  0  3  0  0  0  0  0  0
  184.6440  177.9770  138.6270 C   0  0  2  0  0  3  0  0  0  0  0  0
  181.2810  177.4020  138.5170 O   0  0  0  0  0  1  0  0  0  0  0  0
  185.5280  179.4990  140.2880 O   0  0  0  0  0  1  0  0  0  0  0  0
  180.1460  180.7650  138.4320 C   0  0  0  0  0  1  0  0  0  0  0  0
  182.2000  179.5400  139.1070 C   0  0  1  0  0  3  0  0  0  0  0  0
  184.3390  178.9420  139.8040 C   0  0  1  0  0  0  0  0  0  0  0  0
  181.4990  179.2530  137.0810 N   0  0  0  0  0  2  0  0  0  0  0  0
  181.5530  180.3720  138.0190 C   0  0  1  0  0  3  0  0  0  0  0  0
  182.1430  178.4140  138.0850 C   0  0  1  0  0  0  0  0  0  0  0  0
  184.0130  176.4880  135.5250 C   0  0  0  0  0  0  0  0  0  0  0  0
  185.2940  175.7480  135.2900 C   0  0  0  0  0  2  0  0  0  0  0  0
  183.3870  176.4900  136.9040 C   0  0  1  0  0  3  0  0  0  0  0  0
  183.4640  177.0520  134.5940 O   0  0  0  0  0  0  0  0  0  0  0  0
  183.9130  175.3500  137.7600 C   0  0  0  0  0  3  0  0  0  0  0  0
  185.1450  174.3390  135.8510 C   0  0  0  0  0  2  0  0  0  0  0  0
  184.7240  174.3860  137.2940 C   0  0  0  0  0  3  0  0  0  0  0  0
  183.7150  178.1320  140.9570 C   0  0  0  0  0  2  0  0  0  0  0  0
  184.5110  178.2720  142.2440 C   0  0  0  0  0  1  0  0  0  0  0  0
  185.9240  178.3570  137.8830 C   0  0  0  0  0  2  0  0  0  0  0  0
  187.0100  177.3310  138.1530 C   0  0  0  0  0  2  0  0  0  0  0  0
  188.3550  178.0230  138.3720 C   0  0  1  0  0  3  0  0  0  0  0  0
  188.7520  178.9280  137.2080 C   0  0  0  0  0  1  0  0  0  0  0  0
  188.4490  178.6680  139.6260 O   0  0  0  0  0  0  0  0  0  0  0  0
  188.9300  177.7540  140.5800 C   0  0  0  0  0  2  0  0  0  0  0  0
  188.3240  176.9800  142.8970 C   0  0  0  0  0  0  0  0  0  0  0  0
  187.5050  177.1560  144.1250 C   0  0  0  0  0  1  0  0  0  0  0  0
  189.1540  176.0350  142.8320 O   0  0  0  0  0  0  0  0  0  0  0  0
  188.1620  177.8850  141.8060 N   0  0  0  0  0  2  0  0  0  0  0  0
  1  8  1  0  0  0  0
  2 14  1  1  0  0  0
  2 11  1  0  0  0  0
  2  3  1  0  0  0  0
  3 21  1  6  0  0  0
  3  8  1  0  0  0  0
  7  1  1  6  0  0  0
  8  5  1  1  0  0  0
  8 19  1  0  0  0  0
  9 10  1  0  0  0  0
  9 11  1  0  0  0  0
 10  6  1  1  0  0  0
 10  7  1  0  0  0  0
 11  4  1  1  0  0  0
 11  7  1  0  0  0  0
 12 14  1  0  0  0  0
 13 12  1  0  0  0  0
 13 17  1  0  0  0  0
 14 16  1  1  0  0  0
 15 12  2  0  0  0  0
 17 18  1  0  0  0  0
 18 16  2  0  0  0  0
 19 20  1  0  0  0  0
 21 22  1  0  0  0  0
 22 23  1  0  0  0  0
 23 24  1  6  0  0  0
 23 25  1  0  0  0  0
 25 26  1  0  0  0  0
 26 30  1  0  0  0  0
 27 28  1  0  0  0  0
 29 27  2  0  0  0  0
 30 27  1  0  0  0  0
M  END
>  <MODEL>
2

>  <REMARK>
 VINA RESULT:      -7.0      3.714      7.069
  Name = 
  8 active torsions:
  status: ('A' for Active; 'I' for Inactive)
    1  A    between atoms: C_1  and  C_20
    2  A    between atoms: C_3  and  C_21
    3  A    between atoms: C_3  and  O_24
    4  A    between atoms: C_5  and  O_24
    5  A    between atoms: C_5  and  N_30
    6  A    between atoms: C_7  and  C_8
    7  A    between atoms: C_10  and  C_22
    8  A    between atoms: C_21  and  C_22
                            x       y       z     vdW  Elec       q    Type
                         _______ _______ _______ _____ _____    ______ ____

>  <TORSDO>
F 8

$$$$
=
 OpenBabel11062413293D

 30 32  0  0  1  0  0  0  0  0999 V2000
  189.2440  176.3780  147.0440 O   0  0  0  0  0  0  0  0  0  0  0  0
  189.7860  177.2200  144.4710 C   0  0  2  0  0  3  0  0  0  0  0  0
  188.4240  177.5920  145.1050 C   0  0  2  0  0  3  0  0  0  0  0  0
  191.7370  178.3220  145.4830 O   0  0  0  0  0  1  0  0  0  0  0  0
  187.0880  177.1190  147.0660 O   0  0  0  0  0  1  0  0  0  0  0  0
  192.6890  175.5510  147.4900 C   0  0  0  0  0  1  0  0  0  0  0  0
  190.5970  176.7550  146.9010 C   0  0  1  0  0  3  0  0  0  0  0  0
  188.3850  177.4360  146.6480 C   0  0  1  0  0  0  0  0  0  0  0  0
  191.7820  175.9790  145.2680 N   0  0  0  0  0  2  0  0  0  0  0  0
  191.4460  175.5340  146.6180 C   0  0  1  0  0  3  0  0  0  0  0  0
  190.9570  177.1610  145.4800 C   0  0  1  0  0  0  0  0  0  0  0  0
  190.9370  177.2140  142.2100 C   0  0  0  0  0  0  0  0  0  0  0  0
  190.3040  176.7620  140.9310 C   0  0  0  0  0  2  0  0  0  0  0  0
  190.1360  178.0360  143.1980 C   0  0  1  0  0  3  0  0  0  0  0  0
  192.1070  176.9490  142.4300 O   0  0  0  0  0  0  0  0  0  0  0  0
  188.9270  178.6800  142.5400 C   0  0  0  0  0  3  0  0  0  0  0  0
  189.6440  177.9650  140.2690 C   0  0  0  0  0  2  0  0  0  0  0  0
  188.6900  178.6340  141.2190 C   0  0  0  0  0  3  0  0  0  0  0  0
  188.7500  178.7890  147.2900 C   0  0  0  0  0  2  0  0  0  0  0  0
  188.7110  178.7270  148.8080 C   0  0  0  0  0  1  0  0  0  0  0  0
  187.3460  176.7590  144.4110 C   0  0  0  0  0  2  0  0  0  0  0  0
  186.4870  177.6470  143.5290 C   0  0  0  0  0  2  0  0  0  0  0  0
  185.1810  178.0020  144.2380 C   0  0  1  0  0  3  0  0  0  0  0  0
  185.3470  179.1330  145.2510 C   0  0  0  0  0  1  0  0  0  0  0  0
  184.1060  178.2160  143.3470 O   0  0  0  0  0  0  0  0  0  0  0  0
  184.6020  178.2750  142.0320 C   0  0  0  0  0  2  0  0  0  0  0  0
  183.7020  179.2590  139.8980 C   0  0  0  0  0  0  0  0  0  0  0  0
  182.5440  179.5060  138.9980 C   0  0  0  0  0  1  0  0  0  0  0  0
  184.8420  179.6880  139.5780 O   0  0  0  0  0  0  0  0  0  0  0  0
  183.5080  178.5380  141.1140 N   0  0  0  0  0  2  0  0  0  0  0  0
  2 14  1  6  0  0  0
  2  3  1  0  0  0  0
  2 11  1  0  0  0  0
  3 21  1  6  0  0  0
  3  8  1  0  0  0  0
  7  1  1  6  0  0  0
  8  1  1  0  0  0  0
  8  5  1  1  0  0  0
  8 19  1  0  0  0  0
  9 11  1  0  0  0  0
  9 10  1  0  0  0  0
 10  7  1  0  0  0  0
 10  6  1  1  0  0  0
 11  4  1  6  0  0  0
 11  7  1  0  0  0  0
 12 15  2  0  0  0  0
 12 14  1  0  0  0  0
 13 12  1  0  0  0  0
 14 16  1  6  0  0  0
 17 13  1  0  0  0  0
 17 18  1  0  0  0  0
 18 16  2  0  0  0  0
 19 20  1  0  0  0  0
 22 23  1  0  0  0  0
 22 21  1  0  0  0  0
 23 24  1  6  0  0  0
 25 23  1  0  0  0  0
 26 25  1  0  0  0  0
 27 30  1  0  0  0  0
 28 27  1  0  0  0  0
 29 27  2  0  0  0  0
 30 26  1  0  0  0  0
M  END
>  <MODEL>
3

>  <REMARK>
 VINA RESULT:      -6.7      1.917      6.515
  Name = 
  8 active torsions:
  status: ('A' for Active; 'I' for Inactive)
    1  A    between atoms: C_1  and  C_20
    2  A    between atoms: C_3  and  C_21
    3  A    between atoms: C_3  and  O_24
    4  A    between atoms: C_5  and  O_24
    5  A    between atoms: C_5  and  N_30
    6  A    between atoms: C_7  and  C_8
    7  A    between atoms: C_10  and  C_22
    8  A    between atoms: C_21  and  C_22
                            x       y       z     vdW  Elec       q    Type
                         _______ _______ _______ _____ _____    ______ ____

>  <TORSDO>
F 8

$$$$
=
 OpenBabel11062413293D

 30 32  0  0  1  0  0  0  0  0999 V2000
  189.9850  178.2770  139.5540 O   0  0  0  0  0  0  0  0  0  0  0  0
  189.2860  177.5890  142.1350 C   0  0  2  0  0  3  0  0  0  0  0  0
  188.1630  177.8980  141.1170 C   0  0  2  0  0  3  0  0  0  0  0  0
  190.5530  175.5280  141.6880 O   0  0  0  0  0  1  0  0  0  0  0  0
  187.8620  178.7550  138.8740 O   0  0  0  0  0  1  0  0  0  0  0  0
  193.3190  177.1530  140.1670 C   0  0  0  0  0  1  0  0  0  0  0  0
  190.8400  177.2780  140.0690 C   0  0  1  0  0  3  0  0  0  0  0  0
  188.6290  177.8670  139.6370 C   0  0  1  0  0  0  0  0  0  0  0  0
  191.7640  177.5200  142.0080 N   0  0  0  0  0  2  0  0  0  0  0  0
  192.0910  177.9110  140.6390 C   0  0  1  0  0  3  0  0  0  0  0  0
  190.5340  176.9160  141.5150 C   0  0  1  0  0  0  0  0  0  0  0  0
  189.4850  177.4000  144.6570 C   0  0  0  0  0  0  0  0  0  0  0  0
  188.7160  178.2290  145.6390 C   0  0  0  0  0  2  0  0  0  0  0  0
  188.7960  176.8660  143.4190 C   0  0  1  0  0  3  0  0  0  0  0  0
  190.6520  177.1280  144.8830 O   0  0  0  0  0  0  0  0  0  0  0  0
  187.2840  176.8670  143.5740 C   0  0  0  0  0  3  0  0  0  0  0  0
  187.4210  177.4990  145.9750 C   0  0  0  0  0  2  0  0  0  0  0  0
  186.6580  177.1710  144.7220 C   0  0  0  0  0  3  0  0  0  0  0  0
  188.3840  176.4550  139.0720 C   0  0  0  0  0  2  0  0  0  0  0  0
  188.2540  176.4630  137.5570 C   0  0  0  0  0  1  0  0  0  0  0  0
  187.5450  179.2420  141.5020 C   0  0  0  0  0  2  0  0  0  0  0  0
  186.1160  179.0440  141.9740 C   0  0  0  0  0  2  0  0  0  0  0  0
  185.2080  178.6930  140.7950 C   0  0  1  0  0  3  0  0  0  0  0  0
  183.9010  178.0330  141.2310 C   0  0  0  0  0  1  0  0  0  0  0  0
  185.0080  179.7740  139.9080 O   0  0  0  0  0  0  0  0  0  0  0  0
  183.9060  179.4950  139.0810 C   0  0  0  0  0  2  0  0  0  0  0  0
  181.8510  180.6800  138.2400 C   0  0  0  0  0  0  0  0  0  0  0  0
  181.0760  181.9410  138.0990 C   0  0  0  0  0  1  0  0  0  0  0  0
  181.3930  179.6100  137.7580 O   0  0  0  0  0  0  0  0  0  0  0  0
  183.1050  180.6960  138.9220 N   0  0  0  0  0  2  0  0  0  0  0  0
  1  8  1  0  0  0  0
  2 14  1  1  0  0  0
  3 21  1  1  0  0  0
  3  2  1  0  0  0  0
  7  1  1  1  0  0  0
  7 10  1  0  0  0  0
  7 11  1  0  0  0  0
  8  5  1  6  0  0  0
  8  3  1  0  0  0  0
 10  6  1  6  0  0  0
 10  9  1  0  0  0  0
 11  4  1  1  0  0  0
 11  9  1  0  0  0  0
 11  2  1  0  0  0  0
 12 15  2  0  0  0  0
 12 13  1  0  0  0  0
 13 17  1  0  0  0  0
 14 16  1  1  0  0  0
 14 12  1  0  0  0  0
 16 18  2  0  0  0  0
 18 17  1  0  0  0  0
 19  8  1  0  0  0  0
 20 19  1  0  0  0  0
 21 22  1  0  0  0  0
 23 24  1  1  0  0  0
 23 22  1  0  0  0  0
 25 23  1  0  0  0  0
 26 25  1  0  0  0  0
 27 30  1  0  0  0  0
 28 27  1  0  0  0  0
 29 27  2  0  0  0  0
 30 26  1  0  0  0  0
M  END
>  <MODEL>
4

>  <REMARK>
 VINA RESULT:      -6.5      2.482      6.959
  Name = 
  8 active torsions:
  status: ('A' for Active; 'I' for Inactive)
    1  A    between atoms: C_1  and  C_20
    2  A    between atoms: C_3  and  C_21
    3  A    between atoms: C_3  and  O_24
    4  A    between atoms: C_5  and  O_24
    5  A    between atoms: C_5  and  N_30
    6  A    between atoms: C_7  and  C_8
    7  A    between atoms: C_10  and  C_22
    8  A    between atoms: C_21  and  C_22
                            x       y       z     vdW  Elec       q    Type
                         _______ _______ _______ _____ _____    ______ ____

>  <TORSDO>
F 8

$$$$
=
 OpenBabel11062413293D

 30 32  0  0  1  0  0  0  0  0999 V2000
  183.6410  180.0640  139.4610 O   0  0  0  0  0  0  0  0  0  0  0  0
  183.4800  178.0190  137.6130 C   0  0  2  0  0  3  0  0  0  0  0  0
  184.6350  178.0020  138.6430 C   0  0  2  0  0  3  0  0  0  0  0  0
  181.2410  177.6440  138.5590 O   0  0  0  0  0  1  0  0  0  0  0  0
  185.6330  179.3980  140.3490 O   0  0  0  0  0  1  0  0  0  0  0  0
  180.3210  181.0730  138.6210 C   0  0  0  0  0  1  0  0  0  0  0  0
  182.3000  179.6960  139.2180 C   0  0  1  0  0  3  0  0  0  0  0  0
  184.4050  178.9360  139.8610 C   0  0  1  0  0  0  0  0  0  0  0  0
  181.5590  179.5340  137.1930 N   0  0  0  0  0  2  0  0  0  0  0  0
  181.6950  180.6090  138.1730 C   0  0  1  0  0  3  0  0  0  0  0  0
  182.1600  178.6170  138.1540 C   0  0  1  0  0  0  0  0  0  0  0  0
  183.8260  176.6990  135.4740 C   0  0  0  0  0  0  0  0  0  0  0  0
  185.0580  175.9150  135.1450 C   0  0  0  0  0  2  0  0  0  0  0  0
  183.2650  176.6670  136.8810 C   0  0  1  0  0  3  0  0  0  0  0  0
  183.2600  177.3290  134.5960 O   0  0  0  0  0  0  0  0  0  0  0  0
  183.7780  175.4680  137.6600 C   0  0  0  0  0  3  0  0  0  0  0  0
  184.8710  174.4900  135.6520 C   0  0  0  0  0  2  0  0  0  0  0  0
  184.5200  174.4910  137.1140 C   0  0  0  0  0  3  0  0  0  0  0  0
  183.7450  178.1220  140.9900 C   0  0  0  0  0  2  0  0  0  0  0  0
  184.2910  178.5000  142.3570 C   0  0  0  0  0  1  0  0  0  0  0  0
  185.9270  178.3310  137.8960 C   0  0  0  0  0  2  0  0  0  0  0  0
  186.9990  177.3090  138.2330 C   0  0  0  0  0  2  0  0  0  0  0  0
  188.3890  177.8870  137.9680 C   0  0  1  0  0  3  0  0  0  0  0  0
  188.3910  178.9400  136.8620 C   0  0  0  0  0  1  0  0  0  0  0  0
  189.0420  178.3220  139.1430 O   0  0  0  0  0  0  0  0  0  0  0  0
  189.7240  177.2380  139.7210 C   0  0  0  0  0  2  0  0  0  0  0  0
  191.5770  176.0400  138.5110 C   0  0  0  0  0  0  0  0  0  0  0  0
  192.9760  176.0380  138.0070 C   0  0  0  0  0  1  0  0  0  0  0  0
  190.8460  175.0320  138.3240 O   0  0  0  0  0  0  0  0  0  0  0  0
  191.0790  177.1860  139.2010 N   0  0  0  0  0  2  0  0  0  0  0  0
  1  8  1  0  0  0  0
  2 14  1  1  0  0  0
  2 11  1  0  0  0  0
  2  3  1  0  0  0  0
  3 21  1  6  0  0  0
  3  8  1  0  0  0  0
  7  1  1  6  0  0  0
  8  5  1  1  0  0  0
  8 19  1  0  0  0  0
  9 11  1  0  0  0  0
  9 10  1  0  0  0  0
 10  6  1  1  0  0  0
 10  7  1  0  0  0  0
 11  4  1  1  0  0  0
 11  7  1  0  0  0  0
 12 14  1  0  0  0  0
 13 12  1  0  0  0  0
 13 17  1  0  0  0  0
 14 16  1  1  0  0  0
 15 12  2  0  0  0  0
 17 18  1  0  0  0  0
 18 16  2  0  0  0  0
 19 20  1  0  0  0  0
 21 22  1  0  0  0  0
 23 24  1  6  0  0  0
 23 22  1  0  0  0  0
 23 25  1  0  0  0  0
 25 26  1  0  0  0  0
 27 30  1  0  0  0  0
 28 27  1  0  0  0  0
 29 27  2  0  0  0  0
 30 26  1  0  0  0  0
M  END
>  <MODEL>
5

>  <REMARK>
 VINA RESULT:      -6.4      4.398      7.559
  Name = 
  8 active torsions:
  status: ('A' for Active; 'I' for Inactive)
    1  A    between atoms: C_1  and  C_20
    2  A    between atoms: C_3  and  C_21
    3  A    between atoms: C_3  and  O_24
    4  A    between atoms: C_5  and  O_24
    5  A    between atoms: C_5  and  N_30
    6  A    between atoms: C_7  and  C_8
    7  A    between atoms: C_10  and  C_22
    8  A    between atoms: C_21  and  C_22
                            x       y       z     vdW  Elec       q    Type
                         _______ _______ _______ _____ _____    ______ ____

>  <TORSDO>
F 8

$$$$
=
 OpenBabel11062413293D

 30 32  0  0  1  0  0  0  0  0999 V2000
  183.1610  177.8250  138.6580 O   0  0  0  0  0  0  0  0  0  0  0  0
  181.1410  178.0810  140.5220 C   0  0  2  0  0  3  0  0  0  0  0  0
  181.9970  179.3230  140.1770 C   0  0  2  0  0  3  0  0  0  0  0  0
  179.6760  177.2940  138.7100 O   0  0  0  0  0  1  0  0  0  0  0  0
  183.9830  179.9330  138.9370 O   0  0  0  0  0  1  0  0  0  0  0  0
  181.8230  174.6710  137.6530 C   0  0  0  0  0  1  0  0  0  0  0  0
  182.0300  177.0610  138.2970 C   0  0  1  0  0  3  0  0  0  0  0  0
  182.8040  179.1840  138.8590 C   0  0  1  0  0  0  0  0  0  0  0  0
  181.1080  175.7290  139.7290 N   0  0  0  0  0  2  0  0  0  0  0  0
  182.2020  175.6310  138.7650 C   0  0  1  0  0  3  0  0  0  0  0  0
  180.9160  177.1180  139.3320 C   0  0  1  0  0  0  0  0  0  0  0  0
  179.8210  177.8130  142.6720 C   0  0  0  0  0  0  0  0  0  0  0  0
  179.9430  178.7090  143.8660 C   0  0  0  0  0  2  0  0  0  0  0  0
  179.8260  178.4080  141.2790 C   0  0  1  0  0  3  0  0  0  0  0  0
  179.6790  176.6130  142.8320 O   0  0  0  0  0  0  0  0  0  0  0  0
  179.4940  179.8910  141.3030 C   0  0  0  0  0  3  0  0  0  0  0  0
  178.9310  179.8400  143.7240 C   0  0  0  0  0  2  0  0  0  0  0  0
  179.1080  180.5470  142.4090 C   0  0  0  0  0  3  0  0  0  0  0  0
  181.9690  179.7720  137.7050 C   0  0  0  0  0  2  0  0  0  0  0  0
  181.1860  181.0000  138.1390 C   0  0  0  0  0  1  0  0  0  0  0  0
  182.8950  179.6160  141.3780 C   0  0  0  0  0  2  0  0  0  0  0  0
  183.4250  178.3190  141.9630 C   0  0  0  0  0  2  0  0  0  0  0  0
  184.7540  178.5600  142.6780 C   0  0  1  0  0  3  0  0  0  0  0  0
  185.8910  178.8980  141.7160 C   0  0  0  0  0  1  0  0  0  0  0  0
  184.6490  179.4760  143.7490 O   0  0  0  0  0  0  0  0  0  0  0  0
  184.0900  178.8240  144.8620 C   0  0  0  0  0  2  0  0  0  0  0  0
  186.1100  178.1760  146.2160 C   0  0  0  0  0  0  0  0  0  0  0  0
  186.9620  178.3910  147.4150 C   0  0  0  0  0  1  0  0  0  0  0  0
  186.4110  177.2730  145.3910 O   0  0  0  0  0  0  0  0  0  0  0  0
  184.9600  178.9960  146.0110 N   0  0  0  0  0  2  0  0  0  0  0  0
  1  8  1  0  0  0  0
  2 14  1  6  0  0  0
  3  2  1  0  0  0  0
  3 21  1  1  0  0  0
  7  1  1  1  0  0  0
  7 10  1  0  0  0  0
  7 11  1  0  0  0  0
  8  5  1  1  0  0  0
  8  3  1  0  0  0  0
 10  6  1  6  0  0  0
 10  9  1  0  0  0  0
 11  4  1  6  0  0  0
 11  9  1  0  0  0  0
 11  2  1  0  0  0  0
 12 15  2  0  0  0  0
 12 13  1  0  0  0  0
 14 16  1  1  0  0  0
 14 12  1  0  0  0  0
 16 18  2  0  0  0  0
 17 13  1  0  0  0  0
 18 17  1  0  0  0  0
 19 20  1  0  0  0  0
 19  8  1  0  0  0  0
 21 22  1  0  0  0  0
 22 23  1  0  0  0  0
 23 24  1  6  0  0  0
 23 25  1  0  0  0  0
 25 26  1  0  0  0  0
 26 30  1  0  0  0  0
 27 28  1  0  0  0  0
 29 27  2  0  0  0  0
 30 27  1  0  0  0  0
M  END
>  <MODEL>
6

>  <REMARK>
 VINA RESULT:      -6.3      3.867      6.951
  Name = 
  8 active torsions:
  status: ('A' for Active; 'I' for Inactive)
    1  A    between atoms: C_1  and  C_20
    2  A    between atoms: C_3  and  C_21
    3  A    between atoms: C_3  and  O_24
    4  A    between atoms: C_5  and  O_24
    5  A    between atoms: C_5  and  N_30
    6  A    between atoms: C_7  and  C_8
    7  A    between atoms: C_10  and  C_22
    8  A    between atoms: C_21  and  C_22
                            x       y       z     vdW  Elec       q    Type
                         _______ _______ _______ _____ _____    ______ ____

>  <TORSDO>
F 8

$$$$
=
 OpenBabel11062413293D

 30 32  0  0  1  0  0  0  0  0999 V2000
  182.3370  175.1490  137.7330 O   0  0  0  0  0  0  0  0  0  0  0  0
  180.7940  176.7110  139.4070 C   0  0  2  0  0  3  0  0  0  0  0  0
  182.1430  177.2730  138.8990 C   0  0  2  0  0  3  0  0  0  0  0  0
  179.0620  176.4520  137.6810 O   0  0  0  0  0  1  0  0  0  0  0  0
  184.1170  176.5740  137.6850 O   0  0  0  0  0  1  0  0  0  0  0  0
  179.5590  172.9660  137.2220 C   0  0  0  0  0  1  0  0  0  0  0  0
  180.9620  175.0030  137.4490 C   0  0  1  0  0  3  0  0  0  0  0  0
  182.7180  176.5150  137.6730 C   0  0  1  0  0  0  0  0  0  0  0  0
  179.5540  174.5930  139.0370 N   0  0  0  0  0  2  0  0  0  0  0  0
  180.4120  173.7900  138.1690 C   0  0  1  0  0  3  0  0  0  0  0  0
  180.0690  175.7950  138.3930 C   0  0  1  0  0  0  0  0  0  0  0  0
  179.8730  177.7430  141.5340 C   0  0  0  0  0  0  0  0  0  0  0  0
  180.5300  178.8500  142.3000 C   0  0  0  0  0  2  0  0  0  0  0  0
  179.8520  177.7820  140.0200 C   0  0  1  0  0  3  0  0  0  0  0  0
  179.3260  176.8360  142.1380 O   0  0  0  0  0  0  0  0  0  0  0  0
  180.1070  179.1850  139.4930 C   0  0  0  0  0  3  0  0  0  0  0  0
  180.0040  180.1790  141.7710 C   0  0  0  0  0  2  0  0  0  0  0  0
  180.1950  180.2680  140.2820 C   0  0  0  0  0  3  0  0  0  0  0  0
  182.2460  177.2240  136.3890 C   0  0  0  0  0  2  0  0  0  0  0  0
  181.8980  178.6830  136.6400 C   0  0  0  0  0  1  0  0  0  0  0  0
  183.1140  177.2880  140.0790 C   0  0  0  0  0  2  0  0  0  0  0  0
  183.6570  178.6900  140.2910 C   0  0  0  0  0  2  0  0  0  0  0  0
  185.0210  178.6360  140.9800 C   0  0  1  0  0  3  0  0  0  0  0  0
  186.1830  178.5860  139.9900 C   0  0  0  0  0  1  0  0  0  0  0  0
  185.1830  179.6330  141.9670 O   0  0  0  0  0  0  0  0  0  0  0  0
  184.4830  179.2550  143.1260 C   0  0  0  0  0  2  0  0  0  0  0  0
  185.0990  178.6270  145.4840 C   0  0  0  0  0  0  0  0  0  0  0  0
  186.0920  178.0550  146.4310 C   0  0  0  0  0  1  0  0  0  0  0  0
  183.9920  179.0420  145.9170 O   0  0  0  0  0  0  0  0  0  0  0  0
  185.4120  178.6990  144.0930 N   0  0  0  0  0  2  0  0  0  0  0  0
  2 14  1  6  0  0  0
  3  2  1  0  0  0  0
  3 21  1  1  0  0  0
  7  1  1  1  0  0  0
  7 10  1  0  0  0  0
  7 11  1  0  0  0  0
  8  5  1  1  0  0  0
  8  1  1  0  0  0  0
  8  3  1  0  0  0  0
 10  6  1  6  0  0  0
 10  9  1  0  0  0  0
 11  4  1  6  0  0  0
 11  9  1  0  0  0  0
 11  2  1  0  0  0  0
 12 15  2  0  0  0  0
 12 13  1  0  0  0  0
 14 16  1  1  0  0  0
 14 12  1  0  0  0  0
 16 18  2  0  0  0  0
 17 13  1  0  0  0  0
 18 17  1  0  0  0  0
 19 20  1  0  0  0  0
 19  8  1  0  0  0  0
 21 22  1  0  0  0  0
 22 23  1  0  0  0  0
 23 24  1  6  0  0  0
 23 25  1  0  0  0  0
 25 26  1  0  0  0  0
 26 30  1  0  0  0  0
 27 29  2  0  0  0  0
 27 28  1  0  0  0  0
 30 27  1  0  0  0  0
M  END
>  <MODEL>
7

>  <REMARK>
 VINA RESULT:      -6.3      4.512      7.748
  Name = 
  8 active torsions:
  status: ('A' for Active; 'I' for Inactive)
    1  A    between atoms: C_1  and  C_20
    2  A    between atoms: C_3  and  C_21
    3  A    between atoms: C_3  and  O_24
    4  A    between atoms: C_5  and  O_24
    5  A    between atoms: C_5  and  N_30
    6  A    between atoms: C_7  and  C_8
    7  A    between atoms: C_10  and  C_22
    8  A    between atoms: C_21  and  C_22
                            x       y       z     vdW  Elec       q    Type
                         _______ _______ _______ _____ _____    ______ ____

>  <TORSDO>
F 8

$$$$
=
 OpenBabel11062413293D

 30 32  0  0  1  0  0  0  0  0999 V2000
  189.8870  177.2480  137.7020 O   0  0  0  0  0  0  0  0  0  0  0  0
  188.0770  175.2610  137.0710 C   0  0  2  0  0  3  0  0  0  0  0  0
  187.6170  176.7370  137.0000 C   0  0  2  0  0  3  0  0  0  0  0  0
  189.7290  174.6070  135.3720 O   0  0  0  0  0  1  0  0  0  0  0  0
  188.3870  178.9600  137.5660 O   0  0  0  0  0  1  0  0  0  0  0  0
  192.5460  174.8720  137.5170 C   0  0  0  0  0  1  0  0  0  0  0  0
  190.5070  176.1930  136.9980 C   0  0  1  0  0  3  0  0  0  0  0  0
  188.7840  177.7590  136.9680 C   0  0  1  0  0  0  0  0  0  0  0  0
  190.2220  174.1430  137.6260 N   0  0  0  0  0  2  0  0  0  0  0  0
  191.1420  175.2250  137.9740 C   0  0  1  0  0  3  0  0  0  0  0  0
  189.5600  175.0430  136.6890 C   0  0  1  0  0  0  0  0  0  0  0  0
  186.4620  173.3220  137.3370 C   0  0  0  0  0  0  0  0  0  0  0  0
  185.0010  173.4630  137.6350 C   0  0  0  0  0  2  0  0  0  0  0  0
  187.1250  174.2660  136.3550 C   0  0  1  0  0  3  0  0  0  0  0  0
  187.1000  172.4230  137.8580 O   0  0  0  0  0  0  0  0  0  0  0  0
  186.1050  174.9450  135.4550 C   0  0  0  0  0  3  0  0  0  0  0  0
  184.2450  173.5350  136.3140 C   0  0  0  0  0  2  0  0  0  0  0  0
  184.7990  174.6310  135.4470 C   0  0  0  0  0  3  0  0  0  0  0  0
  189.1240  178.0740  135.4990 C   0  0  0  0  0  2  0  0  0  0  0  0
  187.9090  177.9390  134.5940 C   0  0  0  0  0  1  0  0  0  0  0  0
  186.6640  176.9830  138.1700 C   0  0  0  0  0  2  0  0  0  0  0  0
  185.4300  177.7280  137.6910 C   0  0  0  0  0  2  0  0  0  0  0  0
  184.9130  178.6620  138.7840 C   0  0  1  0  0  3  0  0  0  0  0  0
  183.5260  178.2700  139.2900 C   0  0  0  0  0  1  0  0  0  0  0  0
  185.8430  178.8610  139.8290 O   0  0  0  0  0  0  0  0  0  0  0  0
  185.1500  178.9860  141.0460 C   0  0  0  0  0  2  0  0  0  0  0  0
  185.5020  178.2280  143.4190 C   0  0  0  0  0  0  0  0  0  0  0  0
  186.4390  177.8400  144.5070 C   0  0  0  0  0  1  0  0  0  0  0  0
  184.2620  178.2300  143.6370 O   0  0  0  0  0  0  0  0  0  0  0  0
  186.0190  178.5920  142.1400 N   0  0  0  0  0  2  0  0  0  0  0  0
  2 14  1  6  0  0  0
  3  2  1  0  0  0  0
  3 21  1  1  0  0  0
  7  1  1  1  0  0  0
  7 10  1  0  0  0  0
  8  3  1  0  0  0  0
  8  5  1  1  0  0  0
  8  1  1  0  0  0  0
  9 10  1  0  0  0  0
 10  6  1  6  0  0  0
 11  4  1  6  0  0  0
 11  7  1  0  0  0  0
 11  2  1  0  0  0  0
 11  9  1  0  0  0  0
 12 13  1  0  0  0  0
 12 15  2  0  0  0  0
 14 16  1  1  0  0  0
 14 12  1  0  0  0  0
 17 13  1  0  0  0  0
 18 16  2  0  0  0  0
 18 17  1  0  0  0  0
 19  8  1  0  0  0  0
 20 19  1  0  0  0  0
 22 21  1  0  0  0  0
 22 23  1  0  0  0  0
 23 24  1  1  0  0  0
 23 25  1  0  0  0  0
 25 26  1  0  0  0  0
 26 30  1  0  0  0  0
 27 29  2  0  0  0  0
 27 28  1  0  0  0  0
 30 27  1  0  0  0  0
M  END
>  <MODEL>
8

>  <REMARK>
 VINA RESULT:      -6.3      3.926      6.773
  Name = 
  8 active torsions:
  status: ('A' for Active; 'I' for Inactive)
    1  A    between atoms: C_1  and  C_20
    2  A    between atoms: C_3  and  C_21
    3  A    between atoms: C_3  and  O_24
    4  A    between atoms: C_5  and  O_24
    5  A    between atoms: C_5  and  N_30
    6  A    between atoms: C_7  and  C_8
    7  A    between atoms: C_10  and  C_22
    8  A    between atoms: C_21  and  C_22
                            x       y       z     vdW  Elec       q    Type
                         _______ _______ _______ _____ _____    ______ ____

>  <TORSDO>
F 8

$$$$
=
 OpenBabel11062413293D

 30 32  0  0  1  0  0  0  0  0999 V2000
  192.0520  177.5020  145.4610 O   0  0  0  0  0  0  0  0  0  0  0  0
  189.3240  177.5700  145.8760 C   0  0  2  0  0  3  0  0  0  0  0  0
  189.8550  177.5610  144.4230 C   0  0  2  0  0  3  0  0  0  0  0  0
  189.6890  175.4860  147.1290 O   0  0  0  0  0  1  0  0  0  0  0  0
  191.9340  177.7360  143.1960 O   0  0  0  0  0  1  0  0  0  0  0  0
  192.5440  176.6460  148.8920 C   0  0  0  0  0  1  0  0  0  0  0  0
  191.6800  176.7030  146.5640 C   0  0  1  0  0  3  0  0  0  0  0  0
  191.3360  177.1140  144.2980 C   0  0  1  0  0  0  0  0  0  0  0  0
  190.4000  177.5020  148.1120 N   0  0  0  0  0  2  0  0  0  0  0  0
  191.8370  177.4900  147.8480 C   0  0  1  0  0  3  0  0  0  0  0  0
  190.1910  176.7650  146.8720 C   0  0  1  0  0  0  0  0  0  0  0  0
  187.1320  178.1100  147.0340 C   0  0  0  0  0  0  0  0  0  0  0  0
  186.1750  179.1760  146.5970 C   0  0  0  0  0  2  0  0  0  0  0  0
  187.8120  177.2380  145.9990 C   0  0  1  0  0  3  0  0  0  0  0  0
  187.3260  177.9260  148.2240 O   0  0  0  0  0  0  0  0  0  0  0  0
  187.0750  177.2670  144.6700 C   0  0  0  0  0  3  0  0  0  0  0  0
  185.1770  178.5580  145.6250 C   0  0  0  0  0  2  0  0  0  0  0  0
  185.8940  177.8780  144.4920 C   0  0  0  0  0  3  0  0  0  0  0  0
  191.3740  175.5960  144.0370 C   0  0  0  0  0  2  0  0  0  0  0  0
  190.1800  175.1310  143.2180 C   0  0  0  0  0  1  0  0  0  0  0  0
  189.6170  178.9500  143.8320 C   0  0  0  0  0  2  0  0  0  0  0  0
  189.6270  178.8810  142.3150 C   0  0  0  0  0  2  0  0  0  0  0  0
  188.5530  177.9140  141.8180 C   0  0  1  0  0  3  0  0  0  0  0  0
  187.3230  178.6290  141.2630 C   0  0  0  0  0  1  0  0  0  0  0  0
  189.0590  176.9290  140.9390 O   0  0  0  0  0  0  0  0  0  0  0  0
  190.0860  177.4890  140.1600 C   0  0  0  0  0  2  0  0  0  0  0  0
  189.3060  178.2180  137.8800 C   0  0  0  0  0  0  0  0  0  0  0  0
  189.0560  177.8850  136.4530 C   0  0  0  0  0  1  0  0  0  0  0  0
  189.0550  179.3780  138.3030 O   0  0  0  0  0  0  0  0  0  0  0  0
  189.8300  177.2200  138.7560 N   0  0  0  0  0  2  0  0  0  0  0  0
  2 14  1  6  0  0  0
  2 11  1  0  0  0  0
  3 21  1  1  0  0  0
  3  2  1  0  0  0  0
  7  1  1  6  0  0  0
  7 11  1  0  0  0  0
  7 10  1  0  0  0  0
  8  5  1  6  0  0  0
  8  3  1  0  0  0  0
  8  1  1  0  0  0  0
 10  9  1  0  0  0  0
 10  6  1  1  0  0  0
 11  4  1  1  0  0  0
 11  9  1  0  0  0  0
 12 15  2  0  0  0  0
 13 12  1  0  0  0  0
 14 16  1  6  0  0  0
 14 12  1  0  0  0  0
 17 13  1  0  0  0  0
 18 16  2  0  0  0  0
 18 17  1  0  0  0  0
 19  8  1  0  0  0  0
 20 19  1  0  0  0  0
 22 21  1  0  0  0  0
 23 24  1  6  0  0  0
 23 22  1  0  0  0  0
 25 23  1  0  0  0  0
 26 25  1  0  0  0  0
 27 29  2  0  0  0  0
 27 30  1  0  0  0  0
 28 27  1  0  0  0  0
 30 26  1  0  0  0  0
M  END
>  <MODEL>
9

>  <REMARK>
 VINA RESULT:      -6.2      1.844      6.543
  Name = 
  8 active torsions:
  status: ('A' for Active; 'I' for Inactive)
    1  A    between atoms: C_1  and  C_20
    2  A    between atoms: C_3  and  C_21
    3  A    between atoms: C_3  and  O_24
    4  A    between atoms: C_5  and  O_24
    5  A    between atoms: C_5  and  N_30
    6  A    between atoms: C_7  and  C_8
    7  A    between atoms: C_10  and  C_22
    8  A    between atoms: C_21  and  C_22
                            x       y       z     vdW  Elec       q    Type
                         _______ _______ _______ _____ _____    ______ ____

>  <TORSDO>
F 8

$$$$
