=
 OpenBabel11062416503D

 34 38  0  0  1  0  0  0  0  0999 V2000
  184.3800  174.6740  136.5840 C   0  0  0  0  0  0  0  0  0  0  0  0
  187.1260  176.7930  137.0710 C   0  0  2  0  0  3  0  0  0  0  0  0
  185.9790  177.5650  137.5500 N   0  0  0  0  0  2  0  0  0  0  0  0
  183.1460  173.2220  135.1760 C   0  0  0  0  0  3  0  0  0  0  0  0
  185.0630  177.7970  136.4390 C   0  0  0  0  0  2  0  0  0  0  0  0
  184.1540  173.4400  136.0590 N   0  0  0  0  0  0  0  0  0  0  0  0
  183.5630  175.7560  136.1910 C   0  0  0  0  0  0  0  0  0  0  0  0
  183.6940  177.1630  136.7190 C   0  0  1  0  0  3  0  0  0  0  0  0
  186.7400  175.3420  136.7320 C   0  0  0  0  0  2  0  0  0  0  0  0
  185.5350  174.8400  137.5170 C   0  0  0  0  0  2  0  0  0  0  0  0
  182.5320  175.4980  135.2850 C   0  0  0  0  0  3  0  0  0  0  0  0
  182.3420  174.2470  134.7960 N   0  0  0  0  0  0  0  0  0  0  0  0
  183.2760  177.2960  138.1200 N   0  0  0  0  0  0  0  0  0  0  0  0
  182.5150  176.7050  140.1890 C   0  0  0  0  0  3  0  0  0  0  0  0
  183.0300  176.2450  139.0490 C   0  0  0  0  0  3  0  0  0  0  0  0
  180.8610  178.5250  140.2930 C   0  0  0  0  0  1  0  0  0  0  0  0
  182.7790  179.6040  138.1780 O   0  0  0  0  0  0  0  0  0  0  0  0
  182.8120  178.4800  138.7460 C   0  0  0  0  0  0  0  0  0  0  0  0
  182.3450  178.2040  140.1400 C   0  0  2  0  0  0  0  0  0  0  0  0
  184.9140  179.2740  143.4390 C   0  0  2  0  0  3  0  0  0  0  0  0
  184.9140  178.6270  144.8110 C   0  0  0  0  0  2  0  0  0  0  0  0
  184.5890  178.5010  141.0530 C   0  0  0  0  0  2  0  0  0  0  0  0
  183.4010  179.4730  143.5450 C   0  0  2  0  0  3  0  0  0  0  0  0
  183.4080  178.8050  144.9050 C   0  0  0  0  0  2  0  0  0  0  0  0
  182.6370  178.6200  142.5340 C   0  0  0  0  0  2  0  0  0  0  0  0
  185.2980  178.2300  142.3880 C   0  0  0  0  0  2  0  0  0  0  0  0
  183.1600  178.8780  141.1810 N   0  0  2  0  0  0  0  0  0  0  0  0
  188.2570  176.8310  138.1090 C   0  0  1  0  0  3  0  0  0  0  0  0
  190.6530  176.0700  138.1410 O   0  0  0  0  0  1  0  0  0  0  0  0
  189.6070  176.6860  137.4640 C   0  0  0  0  0  0  0  0  0  0  0  0
  189.7890  177.1160  136.2950 O   0  0  0  0  0  0  0  0  0  0  0  0
  188.1780  178.0900  138.9850 C   0  0  2  0  0  3  0  0  0  0  0  0
  188.9330  179.1330  138.4460 O   0  0  0  0  0  1  0  0  0  0  0  0
  188.6300  177.8060  140.4060 C   0  0  0  0  0  1  0  0  0  0  0  0
  1 10  1  0  0  0  0
  2  3  1  0  0  0  0
  2 28  1  1  0  0  0
  4  6  1  0  0  0  0
  5  3  1  0  0  0  0
  6  1  2  0  0  0  0
  7  1  1  0  0  0  0
  7  8  1  0  0  0  0
  8  5  1  1  0  0  0
  8 13  1  0  0  0  0
  9  2  1  0  0  0  0
  9 10  1  0  0  0  0
 11  7  2  0  0  0  0
 12  4  2  0  0  0  0
 12 11  1  0  0  0  0
 13 18  1  0  0  0  0
 13 15  1  0  0  0  0
 15 14  2  0  0  0  0
 17 18  2  0  0  0  0
 18 19  1  0  0  0  0
 19 14  1  0  0  0  0
 19 16  1  1  0  0  0
 19 27  1  0  0  0  0
 20 26  1  6  0  0  0
 20 23  1  0  0  0  0
 20 21  1  0  0  0  0
 21 24  1  0  0  0  0
 22 26  1  0  0  0  0
 23 25  1  6  0  0  0
 23 24  1  0  0  0  0
 27 22  1  1  0  0  0
 27 25  1  0  0  0  0
 28 30  1  6  0  0  0
 28 32  1  0  0  0  0
 30 29  1  0  0  0  0
 31 30  2  0  0  0  0
 32 34  1  1  0  0  0
 33 32  1  0  0  0  0
M  END
>  <MODEL>
1

>  <REMARK>
 VINA RESULT:      -6.4      0.000      0.000
  Name = 
  5 active torsions:
  status: ('A' for Active; 'I' for Inactive)
    1  A    between atoms: N_2  and  C_22
    2  A    between atoms: C_5  and  C_15
    3  A    between atoms: C_7  and  C_15
    4  A    between atoms: C_13  and  C_15
    5  A    between atoms: C_33  and  N_34
                            x       y       z     vdW  Elec       q    Type
                         _______ _______ _______ _____ _____    ______ ____

>  <TORSDO>
F 5

$$$$
=
 OpenBabel11062416503D

 34 38  0  0  1  0  0  0  0  0999 V2000
  189.8900  178.1720  144.4140 C   0  0  0  0  0  0  0  0  0  0  0  0
  190.2830  176.7270  141.2470 C   0  0  2  0  0  3  0  0  0  0  0  0
  188.8520  176.6090  141.5280 N   0  0  0  0  0  2  0  0  0  0  0  0
  190.5820  178.3610  146.6720 C   0  0  0  0  0  3  0  0  0  0  0  0
  188.6640  175.7630  142.7010 C   0  0  0  0  0  2  0  0  0  0  0  0
  190.6910  178.7190  145.3660 N   0  0  0  0  0  0  0  0  0  0  0  0
  188.9350  177.1990  144.7840 C   0  0  0  0  0  0  0  0  0  0  0  0
  187.9720  176.5380  143.8290 C   0  0  1  0  0  3  0  0  0  0  0  0
  191.0080  177.5730  142.3090 C   0  0  0  0  0  2  0  0  0  0  0  0
  190.1000  178.5870  142.9940 C   0  0  0  0  0  2  0  0  0  0  0  0
  188.8450  176.8560  146.1340 C   0  0  0  0  0  3  0  0  0  0  0  0
  189.6620  177.4370  147.0480 N   0  0  0  0  0  0  0  0  0  0  0  0
  186.9260  177.4460  143.3430 N   0  0  0  0  0  0  0  0  0  0  0  0
  185.9130  179.0660  142.0950 C   0  0  0  0  0  3  0  0  0  0  0  0
  186.9540  178.2380  142.1600 C   0  0  0  0  0  3  0  0  0  0  0  0
  184.9930  180.2430  144.0510 C   0  0  0  0  0  1  0  0  0  0  0  0
  185.5040  177.4730  145.2290 O   0  0  0  0  0  0  0  0  0  0  0  0
  185.7940  177.8850  144.0730 C   0  0  0  0  0  0  0  0  0  0  0  0
  185.0230  178.9130  143.3060 C   0  0  2  0  0  0  0  0  0  0  0  0
  181.0260  178.4520  141.7450 C   0  0  2  0  0  3  0  0  0  0  0  0
  179.9580  179.5270  141.7050 C   0  0  0  0  0  2  0  0  0  0  0  0
  183.5360  178.3550  141.4520 C   0  0  0  0  0  2  0  0  0  0  0  0
  181.2440  178.7380  143.2320 C   0  0  2  0  0  3  0  0  0  0  0  0
  180.1920  179.8260  143.1770 C   0  0  0  0  0  2  0  0  0  0  0  0
  182.6220  179.3380  143.5050 C   0  0  0  0  0  2  0  0  0  0  0  0
  182.2130  178.8850  140.8810 C   0  0  0  0  0  2  0  0  0  0  0  0
  183.6600  178.4670  142.9260 N   0  0  2  0  0  0  0  0  0  0  0  0
  190.4980  177.3090  139.8420 C   0  0  1  0  0  3  0  0  0  0  0  0
  191.0220  175.1610  138.6460 O   0  0  0  0  0  0  0  0  0  0  0  0
  191.4080  176.4440  139.0170 C   0  0  0  0  0  0  0  0  0  0  0  0
  192.5260  176.8900  138.6470 O   0  0  0  0  0  1  0  0  0  0  0  0
  189.1630  177.5730  139.1300 C   0  0  2  0  0  3  0  0  0  0  0  0
  188.8450  176.5400  138.2470 O   0  0  0  0  0  1  0  0  0  0  0  0
  189.1820  178.8990  138.3900 C   0  0  0  0  0  1  0  0  0  0  0  0
  1  7  2  0  0  0  0
  1  6  1  0  0  0  0
  2 28  1  6  0  0  0
  2  3  1  0  0  0  0
  2  9  1  0  0  0  0
  3  5  1  0  0  0  0
  4 12  1  0  0  0  0
  6  4  2  0  0  0  0
  7 11  1  0  0  0  0
  8  5  1  6  0  0  0
  8  7  1  0  0  0  0
  9 10  1  0  0  0  0
 10  1  1  0  0  0  0
 11 12  2  0  0  0  0
 13  8  1  0  0  0  0
 13 18  1  0  0  0  0
 14 15  2  0  0  0  0
 14 19  1  0  0  0  0
 15 13  1  0  0  0  0
 18 17  2  0  0  0  0
 19 16  1  1  0  0  0
 19 18  1  0  0  0  0
 20 26  1  6  0  0  0
 20 23  1  0  0  0  0
 21 20  1  0  0  0  0
 21 24  1  0  0  0  0
 23 24  1  6  0  0  0
 23 25  1  0  0  0  0
 26 22  1  0  0  0  0
 27 22  1  6  0  0  0
 27 19  1  0  0  0  0
 27 25  1  0  0  0  0
 28 30  1  6  0  0  0
 29 30  2  0  0  0  0
 31 30  1  0  0  0  0
 32 34  1  6  0  0  0
 32 28  1  0  0  0  0
 33 32  1  0  0  0  0
M  END
>  <MODEL>
2

>  <REMARK>
 VINA RESULT:      -5.8      4.116      6.914
  Name = 
  5 active torsions:
  status: ('A' for Active; 'I' for Inactive)
    1  A    between atoms: N_2  and  C_22
    2  A    between atoms: C_5  and  C_15
    3  A    between atoms: C_7  and  C_15
    4  A    between atoms: C_13  and  C_15
    5  A    between atoms: C_33  and  N_34
                            x       y       z     vdW  Elec       q    Type
                         _______ _______ _______ _____ _____    ______ ____

>  <TORSDO>
F 5

$$$$
=
 OpenBabel11062416503D

 34 38  0  0  1  0  0  0  0  0999 V2000
  182.9050  177.5380  137.9910 C   0  0  0  0  0  0  0  0  0  0  0  0
  186.3670  177.3180  137.5120 C   0  0  2  0  0  3  0  0  0  0  0  0
  186.2180  178.0960  138.7420 N   0  0  0  0  0  2  0  0  0  0  0  0
  180.7490  178.0030  137.1240 C   0  0  0  0  0  3  0  0  0  0  0  0
  185.5130  179.3370  138.4380 C   0  0  0  0  0  2  0  0  0  0  0  0
  181.7810  177.1450  137.3340 N   0  0  0  0  0  0  0  0  0  0  0  0
  183.0110  178.8690  138.4500 C   0  0  0  0  0  0  0  0  0  0  0  0
  184.1920  179.4190  139.2130 C   0  0  1  0  0  3  0  0  0  0  0  0
  185.0220  176.7520  137.0230 C   0  0  0  0  0  2  0  0  0  0  0  0
  184.0120  176.5460  138.1450 C   0  0  0  0  0  2  0  0  0  0  0  0
  181.9320  179.7250  138.2230 C   0  0  0  0  0  3  0  0  0  0  0  0
  180.8290  179.2830  137.5690 N   0  0  0  0  0  0  0  0  0  0  0  0
  184.2940  178.8910  140.5780 N   0  0  0  0  0  0  0  0  0  0  0  0
  183.6700  177.9120  142.5440 C   0  0  0  0  0  3  0  0  0  0  0  0
  183.3390  178.0880  141.2650 C   0  0  0  0  0  3  0  0  0  0  0  0
  184.6680  179.6760  143.9410 C   0  0  0  0  0  1  0  0  0  0  0  0
  186.1970  180.0720  141.3280 O   0  0  0  0  0  0  0  0  0  0  0  0
  185.2490  179.2720  141.5530 C   0  0  0  0  0  0  0  0  0  0  0  0
  184.9590  178.6270  142.8720 C   0  0  2  0  0  0  0  0  0  0  0  0
  188.4930  176.6600  144.3770 C   0  0  2  0  0  3  0  0  0  0  0  0
  189.9260  177.0820  144.1140 C   0  0  0  0  0  2  0  0  0  0  0  0
  186.2830  177.8280  144.7600 C   0  0  0  0  0  2  0  0  0  0  0  0
  188.2160  176.7000  142.8730 C   0  0  2  0  0  3  0  0  0  0  0  0
  189.6420  177.1440  142.6220 C   0  0  0  0  0  2  0  0  0  0  0  0
  187.2360  177.8110  142.5000 C   0  0  0  0  0  2  0  0  0  0  0  0
  187.7700  177.7720  145.1400 C   0  0  0  0  0  2  0  0  0  0  0  0
  186.0120  177.6780  143.3100 N   0  0  2  0  0  0  0  0  0  0  0  0
  187.3910  176.1930  137.7230 C   0  0  1  0  0  3  0  0  0  0  0  0
  186.6690  173.8440  137.1900 O   0  0  0  0  0  1  0  0  0  0  0  0
  187.1800  175.0620  136.7560 C   0  0  0  0  0  0  0  0  0  0  0  0
  187.4580  175.2230  135.5380 O   0  0  0  0  0  0  0  0  0  0  0  0
  188.8320  176.7230  137.6730 C   0  0  2  0  0  3  0  0  0  0  0  0
  189.3410  176.9360  138.9560 O   0  0  0  0  0  1  0  0  0  0  0  0
  188.9240  178.0020  136.8610 C   0  0  0  0  0  1  0  0  0  0  0  0
  1 10  1  0  0  0  0
  1  7  1  0  0  0  0
  2 28  1  1  0  0  0
  2  3  1  0  0  0  0
  4  6  1  0  0  0  0
  4 12  2  0  0  0  0
  5  3  1  0  0  0  0
  6  1  2  0  0  0  0
  7  8  1  0  0  0  0
  8  5  1  6  0  0  0
  8 13  1  0  0  0  0
  9  2  1  0  0  0  0
  9 10  1  0  0  0  0
 11  7  2  0  0  0  0
 12 11  1  0  0  0  0
 13 15  1  0  0  0  0
 13 18  1  0  0  0  0
 14 19  1  0  0  0  0
 15 14  2  0  0  0  0
 17 18  2  0  0  0  0
 18 19  1  0  0  0  0
 19 27  1  0  0  0  0
 19 16  1  1  0  0  0
 20 21  1  6  0  0  0
 20 26  1  0  0  0  0
 22 26  1  0  0  0  0
 23 25  1  1  0  0  0
 23 20  1  0  0  0  0
 24 23  1  0  0  0  0
 24 21  1  0  0  0  0
 27 25  1  6  0  0  0
 27 22  1  0  0  0  0
 28 30  1  6  0  0  0
 30 29  1  0  0  0  0
 31 30  2  0  0  0  0
 32 34  1  6  0  0  0
 32 28  1  0  0  0  0
 32 33  1  0  0  0  0
M  END
>  <MODEL>
3

>  <REMARK>
 VINA RESULT:      -5.7      2.290      3.978
  Name = 
  5 active torsions:
  status: ('A' for Active; 'I' for Inactive)
    1  A    between atoms: N_2  and  C_22
    2  A    between atoms: C_5  and  C_15
    3  A    between atoms: C_7  and  C_15
    4  A    between atoms: C_13  and  C_15
    5  A    between atoms: C_33  and  N_34
                            x       y       z     vdW  Elec       q    Type
                         _______ _______ _______ _____ _____    ______ ____

>  <TORSDO>
F 5

$$$$
=
 OpenBabel11062416503D

 34 38  0  0  1  0  0  0  0  0999 V2000
  190.6450  175.6900  137.0970 C   0  0  0  0  0  0  0  0  0  0  0  0
  189.9790  177.4660  140.0420 C   0  0  2  0  0  3  0  0  0  0  0  0
  188.8560  177.7860  139.1600 N   0  0  0  0  0  2  0  0  0  0  0  0
  192.1580  175.0800  135.3790 C   0  0  0  0  0  3  0  0  0  0  0  0
  189.3580  178.4830  137.9820 C   0  0  0  0  0  2  0  0  0  0  0  0
  191.6350  174.8910  136.6180 N   0  0  0  0  0  0  0  0  0  0  0  0
  190.1620  176.7510  136.3000 C   0  0  0  0  0  0  0  0  0  0  0  0
  189.0520  177.6890  136.7050 C   0  0  1  0  0  3  0  0  0  0  0  0
  190.8830  176.3720  139.4460 C   0  0  0  0  0  2  0  0  0  0  0  0
  190.1510  175.4430  138.4850 C   0  0  0  0  0  2  0  0  0  0  0  0
  190.7170  176.9160  135.0300 C   0  0  0  0  0  3  0  0  0  0  0  0
  191.6980  176.0870  134.5940 N   0  0  0  0  0  0  0  0  0  0  0  0
  187.7330  177.0470  136.7310 N   0  0  0  0  0  0  0  0  0  0  0  0
  186.1050  175.4910  136.3580 C   0  0  0  0  0  3  0  0  0  0  0  0
  187.4200  175.7060  136.3680 C   0  0  0  0  0  3  0  0  0  0  0  0
  184.4670  177.1420  135.5530 C   0  0  0  0  0  1  0  0  0  0  0  0
  186.3700  178.9350  137.1290 O   0  0  0  0  0  0  0  0  0  0  0  0
  186.4870  177.7010  136.8990 C   0  0  0  0  0  0  0  0  0  0  0  0
  185.3490  176.7440  136.7320 C   0  0  2  0  0  0  0  0  0  0  0  0
  182.2960  176.1830  139.7310 C   0  0  2  0  0  3  0  0  0  0  0  0
  180.9650  176.9060  139.7900 C   0  0  0  0  0  2  0  0  0  0  0  0
  183.8040  175.2710  137.9160 C   0  0  0  0  0  2  0  0  0  0  0  0
  183.0110  177.5290  139.6010 C   0  0  2  0  0  3  0  0  0  0  0  0
  181.6740  178.2420  139.6380 C   0  0  0  0  0  2  0  0  0  0  0  0
  183.6710  177.7000  138.2340 C   0  0  0  0  0  2  0  0  0  0  0  0
  182.3650  175.3530  138.4460 C   0  0  0  0  0  2  0  0  0  0  0  0
  184.5540  176.5500  137.9690 N   0  0  2  0  0  0  0  0  0  0  0  0
  189.4590  177.0530  141.4270 C   0  0  1  0  0  3  0  0  0  0  0  0
  191.7580  177.1160  142.4440 O   0  0  0  0  0  0  0  0  0  0  0  0
  190.5490  176.4520  142.2710 C   0  0  0  0  0  0  0  0  0  0  0  0
  190.3590  175.3430  142.8360 O   0  0  0  0  0  1  0  0  0  0  0  0
  188.7650  178.2210  142.1420 C   0  0  2  0  0  3  0  0  0  0  0  0
  189.4290  178.5630  143.3210 O   0  0  0  0  0  1  0  0  0  0  0  0
  187.3110  177.9030  142.4410 C   0  0  0  0  0  1  0  0  0  0  0  0
  1 10  1  0  0  0  0
  2 28  1  1  0  0  0
  3  2  1  0  0  0  0
  4  6  2  0  0  0  0
  5  3  1  0  0  0  0
  6  1  1  0  0  0  0
  7  8  1  0  0  0  0
  7  1  2  0  0  0  0
  8 13  1  1  0  0  0
  8  5  1  0  0  0  0
  9  2  1  0  0  0  0
 10  9  1  0  0  0  0
 11  7  1  0  0  0  0
 12 11  2  0  0  0  0
 12  4  1  0  0  0  0
 13 18  1  0  0  0  0
 14 15  2  0  0  0  0
 14 19  1  0  0  0  0
 15 13  1  0  0  0  0
 18 17  2  0  0  0  0
 19 16  1  6  0  0  0
 19 18  1  0  0  0  0
 19 27  1  0  0  0  0
 20 26  1  6  0  0  0
 20 21  1  0  0  0  0
 22 26  1  0  0  0  0
 23 25  1  6  0  0  0
 23 24  1  0  0  0  0
 23 20  1  0  0  0  0
 24 21  1  0  0  0  0
 27 22  1  6  0  0  0
 27 25  1  0  0  0  0
 28 32  1  0  0  0  0
 28 30  1  1  0  0  0
 30 29  2  0  0  0  0
 30 31  1  0  0  0  0
 32 34  1  1  0  0  0
 32 33  1  0  0  0  0
M  END
>  <MODEL>
4

>  <REMARK>
 VINA RESULT:      -5.7      2.718      5.544
  Name = 
  5 active torsions:
  status: ('A' for Active; 'I' for Inactive)
    1  A    between atoms: N_2  and  C_22
    2  A    between atoms: C_5  and  C_15
    3  A    between atoms: C_7  and  C_15
    4  A    between atoms: C_13  and  C_15
    5  A    between atoms: C_33  and  N_34
                            x       y       z     vdW  Elec       q    Type
                         _______ _______ _______ _____ _____    ______ ____

>  <TORSDO>
F 5

$$$$
=
 OpenBabel11062416503D

 34 38  0  0  1  0  0  0  0  0999 V2000
  181.4090  179.0390  138.7820 C   0  0  0  0  0  0  0  0  0  0  0  0
  183.4170  176.3850  137.6890 C   0  0  2  0  0  3  0  0  0  0  0  0
  184.2130  177.0430  138.7250 N   0  0  0  0  0  2  0  0  0  0  0  0
  180.0440  180.9090  138.2780 C   0  0  0  0  0  3  0  0  0  0  0  0
  184.5100  178.4080  138.3050 C   0  0  0  0  0  2  0  0  0  0  0  0
  180.2000  179.5720  138.4610 N   0  0  0  0  0  0  0  0  0  0  0  0
  182.5300  179.8880  138.9110 C   0  0  0  0  0  0  0  0  0  0  0  0
  183.9160  179.4240  139.2880 C   0  0  1  0  0  3  0  0  0  0  0  0
  181.9910  176.9590  137.6100 C   0  0  0  0  0  2  0  0  0  0  0  0
  181.5070  177.5550  138.9260 C   0  0  0  0  0  2  0  0  0  0  0  0
  182.3360  181.2570  138.7210 C   0  0  0  0  0  3  0  0  0  0  0  0
  181.1080  181.7420  138.4090 N   0  0  0  0  0  0  0  0  0  0  0  0
  184.0210  178.9970  140.6890 N   0  0  0  0  0  0  0  0  0  0  0  0
  183.3880  178.2210  142.7400 C   0  0  0  0  0  3  0  0  0  0  0  0
  183.0300  178.3240  141.4600 C   0  0  0  0  0  3  0  0  0  0  0  0
  184.5560  180.0050  143.9680 C   0  0  0  0  0  1  0  0  0  0  0  0
  186.0280  180.0830  141.2950 O   0  0  0  0  0  0  0  0  0  0  0  0
  185.0310  179.3770  141.6060 C   0  0  0  0  0  0  0  0  0  0  0  0
  184.7350  178.8590  142.9780 C   0  0  2  0  0  0  0  0  0  0  0  0
  188.0940  176.7510  144.6810 C   0  0  2  0  0  3  0  0  0  0  0  0
  189.5530  177.1430  144.5410 C   0  0  0  0  0  2  0  0  0  0  0  0
  185.8900  177.9650  144.9340 C   0  0  0  0  0  2  0  0  0  0  0  0
  187.9340  176.8460  143.1620 C   0  0  2  0  0  3  0  0  0  0  0  0
  189.3860  177.2590  143.0350 C   0  0  0  0  0  2  0  0  0  0  0  0
  187.0130  177.9940  142.7530 C   0  0  0  0  0  2  0  0  0  0  0  0
  187.3420  177.8580  145.4240 C   0  0  0  0  0  2  0  0  0  0  0  0
  185.7280  177.8680  143.4630 N   0  0  2  0  0  0  0  0  0  0  0  0
  183.3850  174.8690  137.9330 C   0  0  1  0  0  3  0  0  0  0  0  0
  181.1590  173.6990  137.9300 O   0  0  0  0  0  1  0  0  0  0  0  0
  182.2350  174.2170  137.2180 C   0  0  0  0  0  0  0  0  0  0  0  0
  182.2410  174.1490  135.9610 O   0  0  0  0  0  0  0  0  0  0  0  0
  184.7250  174.2110  137.5750 C   0  0  2  0  0  3  0  0  0  0  0  0
  185.1860  174.6400  136.3290 O   0  0  0  0  0  1  0  0  0  0  0  0
  184.6210  172.6960  137.5940 C   0  0  0  0  0  1  0  0  0  0  0  0
  1  7  1  0  0  0  0
  1 10  1  0  0  0  0
  2 28  1  1  0  0  0
  2  3  1  0  0  0  0
  4 12  2  0  0  0  0
  4  6  1  0  0  0  0
  5  3  1  0  0  0  0
  6  1  2  0  0  0  0
  7  8  1  0  0  0  0
  8  5  1  6  0  0  0
  8 13  1  0  0  0  0
  9  2  1  0  0  0  0
  9 10  1  0  0  0  0
 11  7  2  0  0  0  0
 12 11  1  0  0  0  0
 13 15  1  0  0  0  0
 13 18  1  0  0  0  0
 14 19  1  0  0  0  0
 15 14  2  0  0  0  0
 17 18  2  0  0  0  0
 18 19  1  0  0  0  0
 19 27  1  0  0  0  0
 19 16  1  1  0  0  0
 20 21  1  6  0  0  0
 20 26  1  0  0  0  0
 22 26  1  0  0  0  0
 23 25  1  1  0  0  0
 23 20  1  0  0  0  0
 24 23  1  0  0  0  0
 24 21  1  0  0  0  0
 27 25  1  6  0  0  0
 27 22  1  0  0  0  0
 28 30  1  6  0  0  0
 30 29  1  0  0  0  0
 31 30  2  0  0  0  0
 32 34  1  6  0  0  0
 32 28  1  0  0  0  0
 33 32  1  0  0  0  0
M  END
>  <MODEL>
5

>  <REMARK>
 VINA RESULT:      -5.7      2.893      5.550
  Name = 
  5 active torsions:
  status: ('A' for Active; 'I' for Inactive)
    1  A    between atoms: N_2  and  C_22
    2  A    between atoms: C_5  and  C_15
    3  A    between atoms: C_7  and  C_15
    4  A    between atoms: C_13  and  C_15
    5  A    between atoms: C_33  and  N_34
                            x       y       z     vdW  Elec       q    Type
                         _______ _______ _______ _____ _____    ______ ____

>  <TORSDO>
F 5

$$$$
=
 OpenBabel11062416503D

 34 38  0  0  1  0  0  0  0  0999 V2000
  189.3580  176.6510  142.6110 C   0  0  0  0  0  0  0  0  0  0  0  0
  186.4330  178.5740  142.5010 C   0  0  2  0  0  3  0  0  0  0  0  0
  187.0420  178.7610  141.1840 N   0  0  0  0  0  2  0  0  0  0  0  0
  191.3500  176.0260  143.7320 C   0  0  0  0  0  3  0  0  0  0  0  0
  188.3390  179.4080  141.3460 C   0  0  0  0  0  2  0  0  0  0  0  0
  190.0150  175.8870  143.5240 N   0  0  0  0  0  0  0  0  0  0  0  0
  190.0730  177.6220  141.8760 C   0  0  0  0  0  0  0  0  0  0  0  0
  189.4670  178.5120  140.8180 C   0  0  1  0  0  3  0  0  0  0  0  0
  187.1680  177.5040  143.3280 C   0  0  0  0  0  2  0  0  0  0  0  0
  187.8830  176.4660  142.4700 C   0  0  0  0  0  2  0  0  0  0  0  0
  191.4450  177.7370  142.1090 C   0  0  0  0  0  3  0  0  0  0  0  0
  192.0550  176.9450  143.0260 N   0  0  0  0  0  0  0  0  0  0  0  0
  189.1010  177.7890  139.5950 N   0  0  0  0  0  0  0  0  0  0  0  0
  188.8300  176.0530  138.1380 C   0  0  0  0  0  3  0  0  0  0  0  0
  189.0470  176.3770  139.4120 C   0  0  0  0  0  3  0  0  0  0  0  0
  189.8330  177.2590  136.2420 C   0  0  0  0  0  1  0  0  0  0  0  0
  189.0550  179.5840  138.0600 O   0  0  0  0  0  0  0  0  0  0  0  0
  188.9580  178.3500  138.3020 C   0  0  0  0  0  0  0  0  0  0  0  0
  188.7140  177.2880  137.2770 C   0  0  2  0  0  0  0  0  0  0  0  0
  184.5860  176.9160  136.0740 C   0  0  2  0  0  3  0  0  0  0  0  0
  183.8050  175.6210  135.9650 C   0  0  0  0  0  2  0  0  0  0  0  0
  186.3630  177.8570  137.6070 C   0  0  0  0  0  2  0  0  0  0  0  0
  185.6960  176.3070  135.2150 C   0  0  2  0  0  3  0  0  0  0  0  0
  184.9190  175.0090  135.1310 C   0  0  0  0  0  2  0  0  0  0  0  0
  186.9880  176.1080  136.0050 C   0  0  0  0  0  2  0  0  0  0  0  0
  185.0140  177.1280  137.5280 C   0  0  0  0  0  2  0  0  0  0  0  0
  187.3790  177.3810  136.6360 N   0  0  2  0  0  0  0  0  0  0  0  0
  184.9460  178.2230  142.3480 C   0  0  1  0  0  3  0  0  0  0  0  0
  182.7710  178.6280  143.5430 O   0  0  0  0  0  0  0  0  0  0  0  0
  184.0910  178.9990  143.3110 C   0  0  0  0  0  0  0  0  0  0  0  0
  184.5780  179.9870  143.9200 O   0  0  0  0  0  1  0  0  0  0  0  0
  184.4700  178.3960  140.8980 C   0  0  2  0  0  3  0  0  0  0  0  0
  184.1470  179.7260  140.6240 O   0  0  0  0  0  1  0  0  0  0  0  0
  183.2820  177.5010  140.5930 C   0  0  0  0  0  1  0  0  0  0  0  0
  1  6  1  0  0  0  0
  2 28  1  6  0  0  0
  2  9  1  0  0  0  0
  3  5  1  0  0  0  0
  3  2  1  0  0  0  0
  6  4  2  0  0  0  0
  7 11  1  0  0  0  0
  7  1  2  0  0  0  0
  8 13  1  6  0  0  0
  8  5  1  0  0  0  0
  8  7  1  0  0  0  0
 10  1  1  0  0  0  0
 10  9  1  0  0  0  0
 11 12  2  0  0  0  0
 12  4  1  0  0  0  0
 14 15  2  0  0  0  0
 15 13  1  0  0  0  0
 17 18  2  0  0  0  0
 18 13  1  0  0  0  0
 19 16  1  6  0  0  0
 19 14  1  0  0  0  0
 19 18  1  0  0  0  0
 20 21  1  1  0  0  0
 20 26  1  0  0  0  0
 23 24  1  1  0  0  0
 23 25  1  0  0  0  0
 23 20  1  0  0  0  0
 24 21  1  0  0  0  0
 26 22  1  0  0  0  0
 27 25  1  1  0  0  0
 27 19  1  0  0  0  0
 27 22  1  0  0  0  0
 28 30  1  1  0  0  0
 30 29  2  0  0  0  0
 30 31  1  0  0  0  0
 32 34  1  1  0  0  0
 32 28  1  0  0  0  0
 33 32  1  0  0  0  0
M  END
>  <MODEL>
6

>  <REMARK>
 VINA RESULT:      -5.7      3.030      7.879
  Name = 
  5 active torsions:
  status: ('A' for Active; 'I' for Inactive)
    1  A    between atoms: N_2  and  C_22
    2  A    between atoms: C_5  and  C_15
    3  A    between atoms: C_7  and  C_15
    4  A    between atoms: C_13  and  C_15
    5  A    between atoms: C_33  and  N_34
                            x       y       z     vdW  Elec       q    Type
                         _______ _______ _______ _____ _____    ______ ____

>  <TORSDO>
F 5

$$$$
=
 OpenBabel11062416503D

 34 38  0  0  1  0  0  0  0  0999 V2000
  181.2790  176.8660  139.3590 C   0  0  0  0  0  0  0  0  0  0  0  0
  184.2800  176.4910  137.5930 C   0  0  2  0  0  3  0  0  0  0  0  0
  184.5740  177.5090  138.6010 N   0  0  0  0  0  2  0  0  0  0  0  0
  178.9310  177.1800  139.3520 C   0  0  0  0  0  3  0  0  0  0  0  0
  183.7260  178.6730  138.3670 C   0  0  0  0  0  2  0  0  0  0  0  0
  180.0160  176.3660  139.2960 N   0  0  0  0  0  0  0  0  0  0  0  0
  181.4690  178.2610  139.4670 C   0  0  0  0  0  0  0  0  0  0  0  0
  182.8140  178.9360  139.5720 C   0  0  1  0  0  3  0  0  0  0  0  0
  182.8910  175.8600  137.8020 C   0  0  0  0  0  2  0  0  0  0  0  0
  182.4200  175.9080  139.2500 C   0  0  0  0  0  2  0  0  0  0  0  0
  180.3330  179.0700  139.5260 C   0  0  0  0  0  3  0  0  0  0  0  0
  179.0930  178.5220  139.4670 N   0  0  0  0  0  0  0  0  0  0  0  0
  183.4800  178.6990  140.8580 N   0  0  0  0  0  0  0  0  0  0  0  0
  183.7380  178.2530  143.0820 C   0  0  0  0  0  3  0  0  0  0  0  0
  182.8910  178.1990  142.0540 C   0  0  0  0  0  3  0  0  0  0  0  0
  185.3020  180.1170  143.4540 C   0  0  0  0  0  1  0  0  0  0  0  0
  185.5590  179.7380  140.4360 O   0  0  0  0  0  0  0  0  0  0  0  0
  184.7760  179.1420  141.2230 C   0  0  0  0  0  0  0  0  0  0  0  0
  185.0650  178.8370  142.6590 C   0  0  2  0  0  0  0  0  0  0  0  0
  188.6770  176.7170  143.7030 C   0  0  2  0  0  3  0  0  0  0  0  0
  190.0810  177.2900  143.6840 C   0  0  0  0  0  2  0  0  0  0  0  0
  186.3640  177.5600  144.2840 C   0  0  0  0  0  2  0  0  0  0  0  0
  188.4640  177.2190  142.2730 C   0  0  2  0  0  3  0  0  0  0  0  0
  189.8600  177.8080  142.2730 C   0  0  0  0  0  2  0  0  0  0  0  0
  187.4150  178.3270  142.2040 C   0  0  0  0  0  2  0  0  0  0  0  0
  187.8330  177.4790  144.7270 C   0  0  0  0  0  2  0  0  0  0  0  0
  186.1710  177.8650  142.8450 N   0  0  2  0  0  0  0  0  0  0  0  0
  185.3770  175.4160  137.5940 C   0  0  1  0  0  3  0  0  0  0  0  0
  184.4650  173.8880  135.8180 O   0  0  0  0  0  0  0  0  0  0  0  0
  184.8480  174.0840  137.1390 C   0  0  0  0  0  0  0  0  0  0  0  0
  184.7630  173.1350  137.9610 O   0  0  0  0  0  1  0  0  0  0  0  0
  186.5980  175.8540  136.7720 C   0  0  2  0  0  3  0  0  0  0  0  0
  187.6000  176.3780  137.5900 O   0  0  0  0  0  1  0  0  0  0  0  0
  186.2160  176.8670  135.7080 C   0  0  0  0  0  1  0  0  0  0  0  0
  1  7  1  0  0  0  0
  2 28  1  1  0  0  0
  2  9  1  0  0  0  0
  2  3  1  0  0  0  0
  4 12  2  0  0  0  0
  5  3  1  0  0  0  0
  6  4  1  0  0  0  0
  6  1  2  0  0  0  0
  7 11  2  0  0  0  0
  7  8  1  0  0  0  0
  8  5  1  6  0  0  0
  8 13  1  0  0  0  0
  9 10  1  0  0  0  0
 10  1  1  0  0  0  0
 12 11  1  0  0  0  0
 13 18  1  0  0  0  0
 13 15  1  0  0  0  0
 15 14  2  0  0  0  0
 17 18  2  0  0  0  0
 18 19  1  0  0  0  0
 19 27  1  0  0  0  0
 19 14  1  0  0  0  0
 19 16  1  1  0  0  0
 20 21  1  1  0  0  0
 20 26  1  0  0  0  0
 22 26  1  0  0  0  0
 23 25  1  1  0  0  0
 23 24  1  0  0  0  0
 23 20  1  0  0  0  0
 24 21  1  0  0  0  0
 27 25  1  1  0  0  0
 27 22  1  0  0  0  0
 28 30  1  6  0  0  0
 29 30  2  0  0  0  0
 30 31  1  0  0  0  0
 32 34  1  6  0  0  0
 32 33  1  0  0  0  0
 32 28  1  0  0  0  0
M  END
>  <MODEL>
7

>  <REMARK>
 VINA RESULT:      -5.6      2.581      4.728
  Name = 
  5 active torsions:
  status: ('A' for Active; 'I' for Inactive)
    1  A    between atoms: N_2  and  C_22
    2  A    between atoms: C_5  and  C_15
    3  A    between atoms: C_7  and  C_15
    4  A    between atoms: C_13  and  C_15
    5  A    between atoms: C_33  and  N_34
                            x       y       z     vdW  Elec       q    Type
                         _______ _______ _______ _____ _____    ______ ____

>  <TORSDO>
F 5

$$$$
=
 OpenBabel11062416503D

 34 38  0  0  1  0  0  0  0  0999 V2000
  182.2950  179.4550  138.2010 C   0  0  0  0  0  0  0  0  0  0  0  0
  182.9680  177.8590  141.2450 C   0  0  2  0  0  3  0  0  0  0  0  0
  183.8210  177.1720  140.2760 N   0  0  0  0  0  2  0  0  0  0  0  0
  180.7240  180.2730  136.6280 C   0  0  0  0  0  3  0  0  0  0  0  0
  182.9810  176.5210  139.2780 C   0  0  0  0  0  2  0  0  0  0  0  0
  181.4690  180.4370  137.7510 N   0  0  0  0  0  0  0  0  0  0  0  0
  182.3690  178.2330  137.4970 C   0  0  0  0  0  0  0  0  0  0  0  0
  183.2640  177.0790  137.8770 C   0  0  1  0  0  3  0  0  0  0  0  0
  182.2760  179.0900  140.6300 C   0  0  0  0  0  2  0  0  0  0  0  0
  183.0500  179.6970  139.4670 C   0  0  0  0  0  2  0  0  0  0  0  0
  181.5930  178.0980  136.3440 C   0  0  0  0  0  3  0  0  0  0  0  0
  180.7900  179.1100  135.9310 N   0  0  0  0  0  0  0  0  0  0  0  0
  184.6870  177.3510  137.6450 N   0  0  0  0  0  0  0  0  0  0  0  0
  186.5990  178.5280  137.2330 C   0  0  0  0  0  3  0  0  0  0  0  0
  185.3290  178.6220  137.6270 C   0  0  0  0  0  3  0  0  0  0  0  0
  187.3560  177.0120  135.4480 C   0  0  0  0  0  1  0  0  0  0  0  0
  185.4010  175.2100  136.9490 O   0  0  0  0  0  0  0  0  0  0  0  0
  185.6480  176.4280  137.1640 C   0  0  0  0  0  0  0  0  0  0  0  0
  186.9640  177.0970  136.9200 C   0  0  2  0  0  0  0  0  0  0  0  0
  190.5620  176.4680  139.2180 C   0  0  2  0  0  3  0  0  0  0  0  0
  191.9790  176.7100  138.7350 C   0  0  0  0  0  2  0  0  0  0  0  0
  188.3080  177.5710  138.9010 C   0  0  0  0  0  2  0  0  0  0  0  0
  190.2900  175.6290  137.9690 C   0  0  2  0  0  3  0  0  0  0  0  0
  191.7000  175.8950  137.4830 C   0  0  0  0  0  2  0  0  0  0  0  0
  189.2710  176.2910  137.0430 C   0  0  0  0  0  2  0  0  0  0  0  0
  189.7940  177.7930  139.2180 C   0  0  0  0  0  2  0  0  0  0  0  0
  188.0490  176.6060  137.8040 N   0  0  2  0  0  0  0  0  0  0  0  0
  183.7870  178.2530  142.4830 C   0  0  1  0  0  3  0  0  0  0  0  0
  185.4740  179.7530  141.3750 O   0  0  0  0  0  0  0  0  0  0  0  0
  185.2020  178.6120  142.1200 C   0  0  0  0  0  0  0  0  0  0  0  0
  186.1490  177.8780  142.5060 O   0  0  0  0  0  1  0  0  0  0  0  0
  183.1030  179.3720  143.2810 C   0  0  2  0  0  3  0  0  0  0  0  0
  183.9710  179.9280  144.2230 O   0  0  0  0  0  1  0  0  0  0  0  0
  181.8450  178.8740  143.9680 C   0  0  0  0  0  1  0  0  0  0  0  0
  1 10  1  0  0  0  0
  2 28  1  1  0  0  0
  3  2  1  0  0  0  0
  4  6  2  0  0  0  0
  5  3  1  0  0  0  0
  6  1  1  0  0  0  0
  7  8  1  0  0  0  0
  7  1  2  0  0  0  0
  8 13  1  1  0  0  0
  8  5  1  0  0  0  0
  9  2  1  0  0  0  0
 10  9  1  0  0  0  0
 11  7  1  0  0  0  0
 12 11  2  0  0  0  0
 12  4  1  0  0  0  0
 14 15  2  0  0  0  0
 15 13  1  0  0  0  0
 17 18  2  0  0  0  0
 18 13  1  0  0  0  0
 19 16  1  6  0  0  0
 19 18  1  0  0  0  0
 19 14  1  0  0  0  0
 19 27  1  0  0  0  0
 20 21  1  6  0  0  0
 20 26  1  0  0  0  0
 22 26  1  0  0  0  0
 23 25  1  6  0  0  0
 23 20  1  0  0  0  0
 24 23  1  0  0  0  0
 24 21  1  0  0  0  0
 27 25  1  6  0  0  0
 27 22  1  0  0  0  0
 28 30  1  6  0  0  0
 28 32  1  0  0  0  0
 29 30  2  0  0  0  0
 30 31  1  0  0  0  0
 32 34  1  1  0  0  0
 32 33  1  0  0  0  0
M  END
>  <MODEL>
8

>  <REMARK>
 VINA RESULT:      -5.5      2.510      6.469
  Name = 
  5 active torsions:
  status: ('A' for Active; 'I' for Inactive)
    1  A    between atoms: N_2  and  C_22
    2  A    between atoms: C_5  and  C_15
    3  A    between atoms: C_7  and  C_15
    4  A    between atoms: C_13  and  C_15
    5  A    between atoms: C_33  and  N_34
                            x       y       z     vdW  Elec       q    Type
                         _______ _______ _______ _____ _____    ______ ____

>  <TORSDO>
F 5

$$$$
=
 OpenBabel11062416503D

 34 38  0  0  1  0  0  0  0  0999 V2000
  181.7860  178.5030  137.1190 C   0  0  0  0  0  0  0  0  0  0  0  0
  181.6790  178.0630  140.5920 C   0  0  2  0  0  3  0  0  0  0  0  0
  182.9100  177.3910  140.1760 N   0  0  0  0  0  2  0  0  0  0  0  0
  180.7070  178.3930  135.0120 C   0  0  0  0  0  3  0  0  0  0  0  0
  182.5730  176.2850  139.2870 C   0  0  0  0  0  2  0  0  0  0  0  0
  180.9980  179.0580  136.1590 N   0  0  0  0  0  0  0  0  0  0  0  0
  182.2980  177.2010  136.9280 C   0  0  0  0  0  0  0  0  0  0  0  0
  183.2020  176.4860  137.9020 C   0  0  1  0  0  3  0  0  0  0  0  0
  181.0280  178.8380  139.4320 C   0  0  0  0  0  2  0  0  0  0  0  0
  182.0270  179.2830  138.3700 C   0  0  0  0  0  2  0  0  0  0  0  0
  181.9830  176.5450  135.7360 C   0  0  0  0  0  3  0  0  0  0  0  0
  181.1990  177.1450  134.8060 N   0  0  0  0  0  0  0  0  0  0  0  0
  184.5520  177.0570  137.9630 N   0  0  0  0  0  0  0  0  0  0  0  0
  186.2180  178.5700  138.3440 C   0  0  0  0  0  3  0  0  0  0  0  0
  184.9500  178.2600  138.6140 C   0  0  0  0  0  3  0  0  0  0  0  0
  187.2510  178.2530  136.1330 C   0  0  0  0  0  1  0  0  0  0  0  0
  185.6520  175.6670  136.4020 O   0  0  0  0  0  0  0  0  0  0  0  0
  185.6690  176.6480  137.1930 C   0  0  0  0  0  0  0  0  0  0  0  0
  186.8410  177.5500  137.4230 C   0  0  2  0  0  0  0  0  0  0  0  0
  190.6500  176.3790  139.0810 C   0  0  2  0  0  3  0  0  0  0  0  0
  192.0070  176.6210  138.4480 C   0  0  0  0  0  2  0  0  0  0  0  0
  188.4600  177.6320  139.2480 C   0  0  0  0  0  2  0  0  0  0  0  0
  190.1600  175.7640  137.7680 C   0  0  2  0  0  3  0  0  0  0  0  0
  191.5110  176.0320  137.1380 C   0  0  0  0  0  2  0  0  0  0  0  0
  189.0810  176.6170  137.1030 C   0  0  0  0  0  2  0  0  0  0  0  0
  189.9860  177.7240  139.3860 C   0  0  0  0  0  2  0  0  0  0  0  0
  187.9930  176.8690  138.0650 N   0  0  2  0  0  0  0  0  0  0  0  0
  181.9620  178.9920  141.7810 C   0  0  1  0  0  3  0  0  0  0  0  0
  179.8800  178.2590  142.9830 O   0  0  0  0  0  1  0  0  0  0  0  0
  180.7140  179.2890  142.5640 C   0  0  0  0  0  0  0  0  0  0  0  0
  180.4270  180.4800  142.8510 O   0  0  0  0  0  0  0  0  0  0  0  0
  183.0780  178.4370  142.6790 C   0  0  2  0  0  3  0  0  0  0  0  0
  182.8080  178.6710  144.0290 O   0  0  0  0  0  1  0  0  0  0  0  0
  184.4290  179.0240  142.3120 C   0  0  0  0  0  1  0  0  0  0  0  0
  1 10  1  0  0  0  0
  2 28  1  1  0  0  0
  3  2  1  0  0  0  0
  4  6  1  0  0  0  0
  5  3  1  0  0  0  0
  6  1  2  0  0  0  0
  7  1  1  0  0  0  0
  7  8  1  0  0  0  0
  8 13  1  1  0  0  0
  8  5  1  0  0  0  0
  9  2  1  0  0  0  0
 10  9  1  0  0  0  0
 11  7  2  0  0  0  0
 12  4  2  0  0  0  0
 12 11  1  0  0  0  0
 13 15  1  0  0  0  0
 14 15  2  0  0  0  0
 17 18  2  0  0  0  0
 18 19  1  0  0  0  0
 18 13  1  0  0  0  0
 19 16  1  6  0  0  0
 19 27  1  0  0  0  0
 19 14  1  0  0  0  0
 20 21  1  6  0  0  0
 20 26  1  0  0  0  0
 22 26  1  0  0  0  0
 23 25  1  6  0  0  0
 23 20  1  0  0  0  0
 24 23  1  0  0  0  0
 24 21  1  0  0  0  0
 27 25  1  6  0  0  0
 27 22  1  0  0  0  0
 28 30  1  1  0  0  0
 28 32  1  0  0  0  0
 30 31  2  0  0  0  0
 30 29  1  0  0  0  0
 32 34  1  6  0  0  0
 32 33  1  0  0  0  0
M  END
>  <MODEL>
9

>  <REMARK>
 VINA RESULT:      -5.4      2.501      6.782
  Name = 
  5 active torsions:
  status: ('A' for Active; 'I' for Inactive)
    1  A    between atoms: N_2  and  C_22
    2  A    between atoms: C_5  and  C_15
    3  A    between atoms: C_7  and  C_15
    4  A    between atoms: C_13  and  C_15
    5  A    between atoms: C_33  and  N_34
                            x       y       z     vdW  Elec       q    Type
                         _______ _______ _______ _____ _____    ______ ____

>  <TORSDO>
F 5

$$$$
