=
 OpenBabel11062416363D

 61 63  0  0  1  0  0  0  0  0999 V2000
  185.1510  180.5010  143.3680 O   0  0  0  0  0  1  0  0  0  0  0  0
  185.2050  178.3540  140.8700 C   0  0  2  0  0  3  0  0  0  0  0  0
  183.9380  178.0130  141.6840 C   0  0  1  0  0  3  0  0  0  0  0  0
  188.8910  178.3120  141.8560 C   0  0  0  0  0  2  0  0  0  0  0  0
  184.0980  179.6510  143.7090 C   0  0  1  0  0  3  0  0  0  0  0  0
  186.4880  178.4670  141.7150 C   0  0  1  0  0  3  0  0  0  0  0  0
  183.3040  179.1890  142.4780 C   0  0  2  0  0  3  0  0  0  0  0  0
  188.2770  177.3710  142.8880 C   0  0  1  0  0  3  0  0  0  0  0  0
  184.5420  178.5200  144.6450 C   0  0  1  0  0  3  0  0  0  0  0  0
  185.9050  178.2400  144.4930 O   0  0  0  0  0  0  0  0  0  0  0  0
  181.8800  178.8890  142.9310 C   0  0  0  0  0  1  0  0  0  0  0  0
  186.8160  177.2130  142.5140 C   0  0  1  0  0  3  0  0  0  0  0  0
  187.7690  178.7630  140.9350 C   0  0  2  0  0  3  0  0  0  0  0  0
  187.8630  177.9550  139.6440 C   0  0  0  0  0  1  0  0  0  0  0  0
  185.9520  177.0500  143.7620 C   0  0  0  0  0  2  0  0  0  0  0  0
  182.9610  177.3080  140.7920 C   0  0  0  0  0  0  0  0  0  0  0  0
  183.2990  176.2280  140.2430 O   0  0  0  0  0  0  0  0  0  0  0  0
  181.7060  177.8700  140.5550 O   0  0  0  0  0  0  0  0  0  0  0  0
  180.9220  177.5120  139.4250 C   0  0  1  0  0  3  0  0  0  0  0  0
  179.4710  177.2620  139.8530 C   0  0  0  0  0  2  0  0  0  0  0  0
  179.1690  175.8070  140.0630 C   0  0  0  0  0  3  0  0  0  0  0  0
  179.9790  174.9490  139.7470 O   0  0  0  0  0  0  0  0  0  0  0  0
  181.0340  178.5890  138.3530 C   0  0  0  0  0  2  0  0  0  0  0  0
  180.6310  179.9430  138.9130 C   0  0  0  0  0  2  0  0  0  0  0  0
  181.0240  181.0490  137.9480 C   0  0  0  0  0  2  0  0  0  0  0  0
  179.5500  181.9930  137.4470 S   0  0  0  0  0  0  0  0  0  0  0  0
  179.1640  182.4350  139.1670 C   0  0  0  0  0  1  0  0  0  0  0  0
  184.2590  178.9200  146.0830 C   0  0  0  0  0  2  0  0  0  0  0  0
  185.5490  178.9460  146.8820 C   0  0  0  0  0  1  0  0  0  0  0  0
  185.0230  179.4740  139.8300 C   0  0  0  0  0  2  0  0  0  0  0  0
  184.8410  178.9480  138.4460 C   0  0  0  0  0  3  0  0  0  0  0  0
  185.5900  177.9540  137.9870 C   0  0  0  0  0  3  0  0  0  0  0  0
  185.3820  177.4150  136.6020 C   0  0  1  0  0  3  0  0  0  0  0  0
  187.3030  178.8050  136.1000 O   0  0  0  0  0  1  0  0  0  0  0  0
  186.1900  178.1730  135.5370 C   0  0  0  0  0  2  0  0  0  0  0  0
  185.6020  175.8980  136.5680 C   0  0  1  0  0  3  0  0  0  0  0  0
  184.3330  175.1710  136.1230 C   0  0  0  0  0  2  0  0  0  0  0  0
  183.7720  174.3300  137.2230 C   0  0  0  0  0  0  0  0  0  0  0  0
  182.5590  174.4410  137.5370 O   0  0  0  0  0  0  0  0  0  0  0  0
  184.5800  173.4140  137.8890 O   0  0  0  0  0  1  0  0  0  0  0  0
  186.6870  175.5710  135.7050 O   0  0  0  0  0  0  0  0  0  0  0  0
  187.3110  173.3510  135.8770 O   0  0  0  0  0  0  0  0  0  0  0  0
  187.6160  174.5680  135.9970 C   0  0  0  0  0  0  0  0  0  0  0  0
  189.0860  174.9760  137.8720 N   0  0  0  0  0  1  0  0  0  0  0  0
  189.0040  174.9410  136.4190 C   0  0  2  0  0  3  0  0  0  0  0  0
  190.0940  176.0960  134.5940 O   0  0  0  0  0  1  0  0  0  0  0  0
  189.4610  176.2770  135.8280 C   0  0  2  0  0  3  0  0  0  0  0  0
  190.3870  177.0090  136.7840 C   0  0  0  0  0  1  0  0  0  0  0  0
  188.9800  176.0250  142.8780 C   0  0  0  0  0  2  0  0  0  0  0  0
  190.2020  176.1310  142.1610 O   0  0  0  0  0  0  0  0  0  0  0  0
  191.4130  176.4430  142.7850 C   0  0  0  0  0  0  0  0  0  0  0  0
  192.1540  177.3480  142.3140 O   0  0  0  0  0  0  0  0  0  0  0  0
  191.7750  175.6990  144.0520 C   0  0  0  0  0  2  0  0  0  0  0  0
  192.1370  175.6690  146.4450 C   0  0  0  0  0  2  0  0  0  0  0  0
  191.8800  176.5140  145.2690 N   0  0  0  0  0  0  0  0  0  0  0  0
  190.6570  177.2800  145.5010 C   0  0  0  0  0  2  0  0  0  0  0  0
  191.2620  176.1460  147.5950 C   0  0  2  0  0  3  0  0  0  0  0  0
  189.4260  177.6650  147.4960 O   0  0  0  0  0  0  0  0  0  0  0  0
  190.3510  177.1000  146.9310 C   0  0  0  0  0  0  0  0  0  0  0  0
  193.3980  176.2750  148.6540 O   0  0  0  0  0  1  0  0  0  0  0  0
  192.1290  176.8540  148.6270 C   0  0  0  0  0  2  0  0  0  0  0  0
  2 30  1  1  0  0  0
  2  3  1  0  0  0  0
  2  6  1  0  0  0  0
  3 16  1  6  0  0  0
  3  7  1  0  0  0  0
  4  8  1  0  0  0  0
  5  1  1  6  0  0  0
  5  9  1  0  0  0  0
  6 12  1  0  0  0  0
  7 11  1  0  0  0  0
  7  5  1  0  0  0  0
  9 28  1  0  0  0  0
 10  9  1  0  0  0  0
 12  8  1  0  0  0  0
 12 15  1  0  0  0  0
 13  6  1  0  0  0  0
 13  4  1  0  0  0  0
 14 13  1  0  0  0  0
 15 10  1  0  0  0  0
 17 16  2  0  0  0  0
 18 16  1  0  0  0  0
 19 20  1  0  0  0  0
 19 18  1  0  0  0  0
 20 21  1  0  0  0  0
 22 21  2  0  0  0  0
 23 24  1  0  0  0  0
 23 19  1  0  0  0  0
 25 24  1  0  0  0  0
 26 25  1  0  0  0  0
 26 27  1  0  0  0  0
 28 29  1  0  0  0  0
 31 30  1  0  0  0  0
 32 31  2  0  0  0  0
 33 32  1  0  0  0  0
 35 34  1  0  0  0  0
 35 33  1  0  0  0  0
 36 33  1  0  0  0  0
 37 36  1  0  0  0  0
 37 38  1  0  0  0  0
 38 39  2  0  0  0  0
 38 40  1  0  0  0  0
 41 43  1  0  0  0  0
 41 36  1  0  0  0  0
 42 43  2  0  0  0  0
 43 45  1  0  0  0  0
 45 44  1  0  0  0  0
 46 47  1  0  0  0  0
 47 45  1  0  0  0  0
 47 48  1  0  0  0  0
 49  8  1  0  0  0  0
 50 51  1  0  0  0  0
 50 49  1  0  0  0  0
 51 53  1  0  0  0  0
 52 51  2  0  0  0  0
 53 55  1  0  0  0  0
 54 57  1  0  0  0  0
 55 56  1  0  0  0  0
 55 54  1  0  0  0  0
 56 59  1  0  0  0  0
 57 61  1  0  0  0  0
 59 58  2  0  0  0  0
 59 57  1  0  0  0  0
 61 60  1  0  0  0  0
M  END
>  <MODEL>
1

>  <REMARK>
 VINA RESULT:      -4.9      0.000      0.000
  Name = 
  27 active torsions:
  status: ('A' for Active; 'I' for Inactive)
    1  A    between atoms: O_2  and  C_4
    2  A    between atoms: O_2  and  C_27
    3  A    between atoms: C_3  and  C_43
    4  A    between atoms: C_4  and  C_28
    5  A    between atoms: C_5  and  C_61
    6  A    between atoms: C_7  and  C_24
    7  A    between atoms: C_8  and  C_43
    8  A    between atoms: N_9  and  C_21
    9  A    between atoms: C_10  and  C_46
   10  A    between atoms: C_17  and  C_33
   11  A    between atoms: C_18  and  C_22
   12  A    between atoms: C_18  and  O_35
   13  A    between atoms: C_18  and  C_61
   14  A    between atoms: S_19  and  C_32
   15  A    between atoms: C_21  and  C_27
   16  A    between atoms: C_22  and  C_47
   17  A    between atoms: C_22  and  C_56
   18  A    between atoms: C_24  and  C_41
   19  A    between atoms: C_31  and  C_41
   20  A    between atoms: C_31  and  C_44
   21  A    between atoms: C_32  and  C_44
   22  A    between atoms: O_35  and  C_37
   23  A    between atoms: C_37  and  C_48
   24  A    between atoms: C_40  and  C_52
   25  A    between atoms: C_41  and  O_57
   26  A    between atoms: C_46  and  O_57
   27  A    between atoms: C_48  and  C_53
                            x       y       z     vdW  Elec       q    Type
                         _______ _______ _______ _____ _____    ______ ____

>  <TORSDO>
F 27

$$$$
=
 OpenBabel11062416363D

 61 63  0  0  1  0  0  0  0  0999 V2000
  185.1680  180.4890  143.5720 O   0  0  0  0  0  1  0  0  0  0  0  0
  185.1210  178.4740  140.9670 C   0  0  2  0  0  3  0  0  0  0  0  0
  183.8850  178.0910  141.8100 C   0  0  1  0  0  3  0  0  0  0  0  0
  188.8420  178.3820  141.8040 C   0  0  0  0  0  2  0  0  0  0  0  0
  184.1280  179.6220  143.9100 C   0  0  1  0  0  3  0  0  0  0  0  0
  186.4360  178.5440  141.7650 C   0  0  1  0  0  3  0  0  0  0  0  0
  183.2850  179.2240  142.6890 C   0  0  2  0  0  3  0  0  0  0  0  0
  188.2670  177.3890  142.8080 C   0  0  1  0  0  3  0  0  0  0  0  0
  184.6060  178.4440  144.7670 C   0  0  1  0  0  3  0  0  0  0  0  0
  185.9620  178.1720  144.5480 O   0  0  0  0  0  0  0  0  0  0  0  0
  181.8790  178.9000  143.1810 C   0  0  0  0  0  1  0  0  0  0  0  0
  186.7930  177.2500  142.4850 C   0  0  1  0  0  3  0  0  0  0  0  0
  187.6860  178.8800  140.9520 C   0  0  2  0  0  3  0  0  0  0  0  0
  187.7280  178.1410  139.6180 C   0  0  0  0  0  1  0  0  0  0  0  0
  185.9780  177.0230  143.7550 C   0  0  0  0  0  2  0  0  0  0  0  0
  182.8740  177.4330  140.9220 C   0  0  0  0  0  0  0  0  0  0  0  0
  183.0140  176.2190  140.6240 O   0  0  0  0  0  0  0  0  0  0  0  0
  181.8100  178.1770  140.4110 O   0  0  0  0  0  0  0  0  0  0  0  0
  180.5790  177.5730  140.0370 C   0  0  1  0  0  3  0  0  0  0  0  0
  180.0660  176.6810  141.1730 C   0  0  0  0  0  2  0  0  0  0  0  0
  179.2570  175.5170  140.6790 C   0  0  0  0  0  3  0  0  0  0  0  0
  179.6750  174.3750  140.7890 O   0  0  0  0  0  0  0  0  0  0  0  0
  179.5720  178.6470  139.6420 C   0  0  0  0  0  2  0  0  0  0  0  0
  180.2850  179.9460  139.3010 C   0  0  0  0  0  2  0  0  0  0  0  0
  180.1030  180.2750  137.8290 C   0  0  0  0  0  2  0  0  0  0  0  0
  179.4790  181.9750  137.6420 S   0  0  0  0  0  0  0  0  0  0  0  0
  181.1540  182.6730  137.7420 C   0  0  0  0  0  1  0  0  0  0  0  0
  184.3800  178.7690  146.2350 C   0  0  0  0  0  2  0  0  0  0  0  0
  185.7070  178.8040  146.9720 C   0  0  0  0  0  1  0  0  0  0  0  0
  184.9000  179.6470  139.9940 C   0  0  0  0  0  2  0  0  0  0  0  0
  184.7390  179.1980  138.5800 C   0  0  0  0  0  3  0  0  0  0  0  0
  185.1920  178.0160  138.1810 C   0  0  0  0  0  3  0  0  0  0  0  0
  185.0030  177.5630  136.7630 C   0  0  1  0  0  3  0  0  0  0  0  0
  187.1040  178.7080  136.3800 O   0  0  0  0  0  1  0  0  0  0  0  0
  186.2850  177.6710  135.9240 C   0  0  0  0  0  2  0  0  0  0  0  0
  184.3600  176.1720  136.7170 C   0  0  1  0  0  3  0  0  0  0  0  0
  185.3360  175.1020  137.2060 C   0  0  0  0  0  2  0  0  0  0  0  0
  185.5350  174.0350  136.1790 C   0  0  0  0  0  0  0  0  0  0  0  0
  184.8520  172.9790  136.2350 O   0  0  0  0  0  1  0  0  0  0  0  0
  186.4580  174.2100  135.1530 O   0  0  0  0  0  0  0  0  0  0  0  0
  183.1690  176.1470  137.4970 O   0  0  0  0  0  0  0  0  0  0  0  0
  181.6550  177.5330  136.4320 O   0  0  0  0  0  0  0  0  0  0  0  0
  181.9040  176.4180  136.9650 C   0  0  0  0  0  0  0  0  0  0  0  0
  181.2610  174.2640  137.8520 N   0  0  0  0  0  1  0  0  0  0  0  0
  180.8440  175.3610  136.9900 C   0  0  2  0  0  3  0  0  0  0  0  0
  179.5440  173.8190  135.6550 O   0  0  0  0  0  1  0  0  0  0  0  0
  180.4990  174.8380  135.5940 C   0  0  2  0  0  3  0  0  0  0  0  0
  181.7410  174.3430  134.8730 C   0  0  0  0  0  1  0  0  0  0  0  0
  188.9670  176.0460  142.7010 C   0  0  0  0  0  2  0  0  0  0  0  0
  190.2520  176.2220  142.1200 O   0  0  0  0  0  0  0  0  0  0  0  0
  191.3820  176.5320  142.8800 C   0  0  0  0  0  0  0  0  0  0  0  0
  192.0320  177.5880  142.6510 O   0  0  0  0  0  0  0  0  0  0  0  0
  191.7670  175.5900  144.0010 C   0  0  0  0  0  2  0  0  0  0  0  0
  192.3280  175.1960  146.3230 C   0  0  0  0  0  2  0  0  0  0  0  0
  192.0390  176.2160  145.3020 N   0  0  0  0  0  0  0  0  0  0  0  0
  190.9040  177.0190  145.7510 C   0  0  0  0  0  2  0  0  0  0  0  0
  191.5950  175.5620  147.6050 C   0  0  2  0  0  3  0  0  0  0  0  0
  189.8810  177.1970  147.8870 O   0  0  0  0  0  0  0  0  0  0  0  0
  190.7070  176.6590  147.1660 C   0  0  0  0  0  0  0  0  0  0  0  0
  192.4850  177.4400  148.7790 O   0  0  0  0  0  1  0  0  0  0  0  0
  192.5990  176.0570  148.6360 C   0  0  0  0  0  2  0  0  0  0  0  0
  2 30  1  1  0  0  0
  2  6  1  0  0  0  0
  2  3  1  0  0  0  0
  3 16  1  6  0  0  0
  3  7  1  0  0  0  0
  4  8  1  0  0  0  0
  5  1  1  6  0  0  0
  5  9  1  0  0  0  0
  6 12  1  0  0  0  0
  7 11  1  0  0  0  0
  7  5  1  0  0  0  0
  9 28  1  0  0  0  0
 10  9  1  0  0  0  0
 12  8  1  0  0  0  0
 12 15  1  0  0  0  0
 13  6  1  0  0  0  0
 13  4  1  0  0  0  0
 14 13  1  0  0  0  0
 15 10  1  0  0  0  0
 17 16  2  0  0  0  0
 18 16  1  0  0  0  0
 19 18  1  0  0  0  0
 19 20  1  0  0  0  0
 21 22  2  0  0  0  0
 21 20  1  0  0  0  0
 23 19  1  0  0  0  0
 24 23  1  0  0  0  0
 25 24  1  0  0  0  0
 26 27  1  0  0  0  0
 26 25  1  0  0  0  0
 28 29  1  0  0  0  0
 31 30  1  0  0  0  0
 32 31  2  0  0  0  0
 33 32  1  0  0  0  0
 35 34  1  0  0  0  0
 35 33  1  0  0  0  0
 36 33  1  0  0  0  0
 36 37  1  0  0  0  0
 36 41  1  0  0  0  0
 38 39  1  0  0  0  0
 38 37  1  0  0  0  0
 40 38  2  0  0  0  0
 42 43  2  0  0  0  0
 43 45  1  0  0  0  0
 43 41  1  0  0  0  0
 45 44  1  0  0  0  0
 47 46  1  0  0  0  0
 47 45  1  0  0  0  0
 48 47  1  0  0  0  0
 49  8  1  0  0  0  0
 50 49  1  0  0  0  0
 50 51  1  0  0  0  0
 51 53  1  0  0  0  0
 52 51  2  0  0  0  0
 53 55  1  0  0  0  0
 54 57  1  0  0  0  0
 55 56  1  0  0  0  0
 55 54  1  0  0  0  0
 56 59  1  0  0  0  0
 57 61  1  0  0  0  0
 59 57  1  0  0  0  0
 59 58  2  0  0  0  0
 61 60  1  0  0  0  0
M  END
>  <MODEL>
2

>  <REMARK>
 VINA RESULT:      -4.7      1.635      3.056
  Name = 
  27 active torsions:
  status: ('A' for Active; 'I' for Inactive)
    1  A    between atoms: O_2  and  C_4
    2  A    between atoms: O_2  and  C_27
    3  A    between atoms: C_3  and  C_43
    4  A    between atoms: C_4  and  C_28
    5  A    between atoms: C_5  and  C_61
    6  A    between atoms: C_7  and  C_24
    7  A    between atoms: C_8  and  C_43
    8  A    between atoms: N_9  and  C_21
    9  A    between atoms: C_10  and  C_46
   10  A    between atoms: C_17  and  C_33
   11  A    between atoms: C_18  and  C_22
   12  A    between atoms: C_18  and  O_35
   13  A    between atoms: C_18  and  C_61
   14  A    between atoms: S_19  and  C_32
   15  A    between atoms: C_21  and  C_27
   16  A    between atoms: C_22  and  C_47
   17  A    between atoms: C_22  and  C_56
   18  A    between atoms: C_24  and  C_41
   19  A    between atoms: C_31  and  C_41
   20  A    between atoms: C_31  and  C_44
   21  A    between atoms: C_32  and  C_44
   22  A    between atoms: O_35  and  C_37
   23  A    between atoms: C_37  and  C_48
   24  A    between atoms: C_40  and  C_52
   25  A    between atoms: C_41  and  O_57
   26  A    between atoms: C_46  and  O_57
   27  A    between atoms: C_48  and  C_53
                            x       y       z     vdW  Elec       q    Type
                         _______ _______ _______ _____ _____    ______ ____

>  <TORSDO>
F 27

$$$$
=
 OpenBabel11062416363D

 61 63  0  0  1  0  0  0  0  0999 V2000
  181.6970  180.7150  140.3380 O   0  0  0  0  0  1  0  0  0  0  0  0
  183.3420  177.9860  139.5060 C   0  0  2  0  0  3  0  0  0  0  0  0
  181.8650  177.5550  139.6440 C   0  0  1  0  0  3  0  0  0  0  0  0
  185.7600  179.4590  142.0630 C   0  0  0  0  0  2  0  0  0  0  0  0
  180.7040  179.7430  140.4660 C   0  0  1  0  0  3  0  0  0  0  0  0
  183.8830  178.7820  140.7090 C   0  0  1  0  0  3  0  0  0  0  0  0
  180.8080  178.6630  139.3790 C   0  0  2  0  0  3  0  0  0  0  0  0
  184.7290  178.7810  142.9580 C   0  0  1  0  0  3  0  0  0  0  0  0
  180.5990  179.2010  141.8970 C   0  0  1  0  0  3  0  0  0  0  0  0
  181.8130  179.3360  142.5820 O   0  0  0  0  0  0  0  0  0  0  0  0
  179.4100  178.0960  139.1540 C   0  0  0  0  0  1  0  0  0  0  0  0
  183.7730  178.0480  142.0380 C   0  0  1  0  0  3  0  0  0  0  0  0
  185.3550  179.1880  140.6230 C   0  0  2  0  0  3  0  0  0  0  0  0
  186.2380  178.0650  140.0860 C   0  0  0  0  0  1  0  0  0  0  0  0
  182.3590  178.0510  142.6120 C   0  0  0  0  0  2  0  0  0  0  0  0
  181.6410  176.3170  138.8300 C   0  0  0  0  0  0  0  0  0  0  0  0
  181.4570  175.2190  139.4170 O   0  0  0  0  0  0  0  0  0  0  0  0
  181.6700  176.3870  137.4370 O   0  0  0  0  0  0  0  0  0  0  0  0
  181.0330  175.4140  136.6200 C   0  0  1  0  0  3  0  0  0  0  0  0
  179.8060  176.0260  135.9350 C   0  0  0  0  0  2  0  0  0  0  0  0
  180.0250  177.4500  135.5130 C   0  0  0  0  0  3  0  0  0  0  0  0
  179.1700  178.0530  134.8840 O   0  0  0  0  0  0  0  0  0  0  0  0
  182.0310  174.8410  135.6210 C   0  0  0  0  0  2  0  0  0  0  0  0
  181.8110  173.3470  135.4420 C   0  0  0  0  0  2  0  0  0  0  0  0
  183.1430  172.6320  135.3030 C   0  0  0  0  0  2  0  0  0  0  0  0
  183.3510  171.4300  136.6550 S   0  0  0  0  0  0  0  0  0  0  0  0
  181.5670  171.4050  136.9990 C   0  0  0  0  0  1  0  0  0  0  0  0
  179.5070  179.9520  142.6380 C   0  0  0  0  0  2  0  0  0  0  0  0
  179.1620  179.2340  143.9300 C   0  0  0  0  0  1  0  0  0  0  0  0
  183.7200  178.5660  138.1320 C   0  0  0  0  0  2  0  0  0  0  0  0
  184.2610  177.5320  137.2010 C   0  0  0  0  0  3  0  0  0  0  0  0
  185.5670  177.3150  137.1040 C   0  0  0  0  0  3  0  0  0  0  0  0
  186.0990  176.2550  136.1840 C   0  0  1  0  0  3  0  0  0  0  0  0
  186.8750  178.1450  134.8810 O   0  0  0  0  0  1  0  0  0  0  0  0
  186.4910  176.8030  134.8030 C   0  0  0  0  0  2  0  0  0  0  0  0
  187.2190  175.4560  136.8620 C   0  0  1  0  0  3  0  0  0  0  0  0
  186.7230  174.0760  137.2930 C   0  0  0  0  0  2  0  0  0  0  0  0
  187.0840  173.0300  136.2890 C   0  0  0  0  0  0  0  0  0  0  0  0
  186.4650  172.9740  135.1950 O   0  0  0  0  0  0  0  0  0  0  0  0
  188.1120  172.1290  136.5510 O   0  0  0  0  0  1  0  0  0  0  0  0
  188.3380  175.3290  135.9910 O   0  0  0  0  0  0  0  0  0  0  0  0
  189.9860  176.9500  135.9280 O   0  0  0  0  0  0  0  0  0  0  0  0
  189.6110  175.8090  136.3120 C   0  0  0  0  0  0  0  0  0  0  0  0
  190.5930  175.5250  138.5020 N   0  0  0  0  0  1  0  0  0  0  0  0
  190.5290  174.9780  137.1540 C   0  0  2  0  0  3  0  0  0  0  0  0
  191.9170  174.1740  135.3440 O   0  0  0  0  0  1  0  0  0  0  0  0
  191.9350  174.8650  136.5600 C   0  0  2  0  0  3  0  0  0  0  0  0
  192.8860  174.1860  137.5300 C   0  0  0  0  0  1  0  0  0  0  0  0
  185.3990  177.8110  143.9160 C   0  0  0  0  0  2  0  0  0  0  0  0
  185.9740  178.5300  144.9970 O   0  0  0  0  0  0  0  0  0  0  0  0
  186.8630  177.9430  145.9010 C   0  0  0  0  0  0  0  0  0  0  0  0
  186.4600  177.0580  146.7040 O   0  0  0  0  0  0  0  0  0  0  0  0
  188.3150  178.3670  145.8500 C   0  0  0  0  0  2  0  0  0  0  0  0
  190.3930  178.1900  144.6200 C   0  0  0  0  0  2  0  0  0  0  0  0
  189.2270  177.4600  145.1410 N   0  0  0  0  0  0  0  0  0  0  0  0
  188.5530  176.7970  144.0270 C   0  0  0  0  0  2  0  0  0  0  0  0
  190.6790  177.7150  143.2040 C   0  0  2  0  0  3  0  0  0  0  0  0
  189.2800  176.3850  141.8020 O   0  0  0  0  0  0  0  0  0  0  0  0
  189.4870  176.9010  142.8910 C   0  0  0  0  0  0  0  0  0  0  0  0
  191.6900  175.6620  143.8830 O   0  0  0  0  0  1  0  0  0  0  0  0
  191.9360  176.8560  143.2050 C   0  0  0  0  0  2  0  0  0  0  0  0
  2 30  1  6  0  0  0
  2  3  1  0  0  0  0
  2  6  1  0  0  0  0
  3 16  1  6  0  0  0
  4  8  1  0  0  0  0
  5  1  1  1  0  0  0
  5  9  1  0  0  0  0
  6 12  1  0  0  0  0
  7  3  1  0  0  0  0
  7  5  1  0  0  0  0
  8 49  1  0  0  0  0
  9 10  1  0  0  0  0
  9 28  1  0  0  0  0
 10 15  1  0  0  0  0
 11  7  1  0  0  0  0
 12 15  1  0  0  0  0
 12  8  1  0  0  0  0
 13  6  1  0  0  0  0
 13  4  1  0  0  0  0
 14 13  1  0  0  0  0
 16 17  2  0  0  0  0
 18 16  1  0  0  0  0
 19 18  1  0  0  0  0
 20 19  1  0  0  0  0
 21 20  1  0  0  0  0
 22 21  2  0  0  0  0
 23 19  1  0  0  0  0
 24 23  1  0  0  0  0
 25 24  1  0  0  0  0
 25 26  1  0  0  0  0
 26 27  1  0  0  0  0
 28 29  1  0  0  0  0
 31 30  1  0  0  0  0
 32 31  2  0  0  0  0
 33 36  1  0  0  0  0
 33 32  1  0  0  0  0
 35 34  1  0  0  0  0
 35 33  1  0  0  0  0
 36 37  1  0  0  0  0
 38 40  1  0  0  0  0
 38 37  1  0  0  0  0
 39 38  2  0  0  0  0
 41 43  1  0  0  0  0
 41 36  1  0  0  0  0
 42 43  2  0  0  0  0
 43 45  1  0  0  0  0
 45 44  1  0  0  0  0
 46 47  1  0  0  0  0
 47 45  1  0  0  0  0
 47 48  1  0  0  0  0
 49 50  1  0  0  0  0
 50 51  1  0  0  0  0
 51 52  2  0  0  0  0
 53 51  1  0  0  0  0
 54 55  1  0  0  0  0
 55 53  1  0  0  0  0
 56 55  1  0  0  0  0
 57 61  1  0  0  0  0
 57 54  1  0  0  0  0
 58 59  2  0  0  0  0
 59 57  1  0  0  0  0
 59 56  1  0  0  0  0
 61 60  1  0  0  0  0
M  END
>  <MODEL>
3

>  <REMARK>
 VINA RESULT:      -4.4      2.512      4.585
  Name = 
  27 active torsions:
  status: ('A' for Active; 'I' for Inactive)
    1  A    between atoms: O_2  and  C_4
    2  A    between atoms: O_2  and  C_27
    3  A    between atoms: C_3  and  C_43
    4  A    between atoms: C_4  and  C_28
    5  A    between atoms: C_5  and  C_61
    6  A    between atoms: C_7  and  C_24
    7  A    between atoms: C_8  and  C_43
    8  A    between atoms: N_9  and  C_21
    9  A    between atoms: C_10  and  C_46
   10  A    between atoms: C_17  and  C_33
   11  A    between atoms: C_18  and  C_22
   12  A    between atoms: C_18  and  O_35
   13  A    between atoms: C_18  and  C_61
   14  A    between atoms: S_19  and  C_32
   15  A    between atoms: C_21  and  C_27
   16  A    between atoms: C_22  and  C_47
   17  A    between atoms: C_22  and  C_56
   18  A    between atoms: C_24  and  C_41
   19  A    between atoms: C_31  and  C_41
   20  A    between atoms: C_31  and  C_44
   21  A    between atoms: C_32  and  C_44
   22  A    between atoms: O_35  and  C_37
   23  A    between atoms: C_37  and  C_48
   24  A    between atoms: C_40  and  C_52
   25  A    between atoms: C_41  and  O_57
   26  A    between atoms: C_46  and  O_57
   27  A    between atoms: C_48  and  C_53
                            x       y       z     vdW  Elec       q    Type
                         _______ _______ _______ _____ _____    ______ ____

>  <TORSDO>
F 27

$$$$
=
 OpenBabel11062416363D

 61 63  0  0  1  0  0  0  0  0999 V2000
  185.5620  180.5040  142.6540 O   0  0  0  0  0  1  0  0  0  0  0  0
  184.9760  178.3860  140.2000 C   0  0  2  0  0  3  0  0  0  0  0  0
  184.0750  177.9280  141.3690 C   0  0  1  0  0  3  0  0  0  0  0  0
  188.7720  178.6650  139.9370 C   0  0  0  0  0  2  0  0  0  0  0  0
  184.7510  179.5620  143.2880 C   0  0  1  0  0  3  0  0  0  0  0  0
  186.4500  178.6070  140.5870 C   0  0  1  0  0  3  0  0  0  0  0  0
  183.6410  179.0380  142.3660 C   0  0  2  0  0  3  0  0  0  0  0  0
  188.6070  177.6680  141.0780 C   0  0  1  0  0  3  0  0  0  0  0  0
  185.5670  178.4690  143.9890 C   0  0  1  0  0  3  0  0  0  0  0  0
  186.8250  178.3120  143.3940 O   0  0  0  0  0  0  0  0  0  0  0  0
  182.4720  178.6100  143.2450 C   0  0  0  0  0  1  0  0  0  0  0  0
  187.1230  177.3820  141.1930 C   0  0  1  0  0  3  0  0  0  0  0  0
  187.3780  179.0200  139.4450 C   0  0  2  0  0  3  0  0  0  0  0  0
  187.1120  178.2320  138.1660 C   0  0  0  0  0  1  0  0  0  0  0  0
  186.7290  177.1360  142.6470 C   0  0  0  0  0  2  0  0  0  0  0  0
  182.9230  177.1450  140.8170 C   0  0  0  0  0  0  0  0  0  0  0  0
  183.1500  176.0980  140.1570 O   0  0  0  0  0  0  0  0  0  0  0  0
  181.6180  177.5980  141.0130 O   0  0  0  0  0  0  0  0  0  0  0  0
  180.8260  178.1000  139.9450 C   0  0  1  0  0  3  0  0  0  0  0  0
  179.4170  177.5010  140.0100 C   0  0  0  0  0  2  0  0  0  0  0  0
  179.4260  176.0180  140.2450 C   0  0  0  0  0  3  0  0  0  0  0  0
  179.0140  175.2490  139.3910 O   0  0  0  0  0  0  0  0  0  0  0  0
  180.8120  179.6240  139.9820 C   0  0  0  0  0  2  0  0  0  0  0  0
  179.3990  180.1490  139.7830 C   0  0  0  0  0  2  0  0  0  0  0  0
  179.4240  181.4300  138.9680 C   0  0  0  0  0  2  0  0  0  0  0  0
  181.1390  181.8620  138.5340 S   0  0  0  0  0  0  0  0  0  0  0  0
  180.6400  182.4960  136.9070 C   0  0  0  0  0  1  0  0  0  0  0  0
  185.7370  178.8330  145.4550 C   0  0  0  0  0  2  0  0  0  0  0  0
  184.5400  178.3540  146.2550 C   0  0  0  0  0  1  0  0  0  0  0  0
  184.3730  179.4910  139.3150 C   0  0  0  0  0  2  0  0  0  0  0  0
  183.6410  178.9460  138.1350 C   0  0  0  0  0  3  0  0  0  0  0  0
  184.0140  177.8090  137.5620 C   0  0  0  0  0  3  0  0  0  0  0  0
  183.2550  177.2570  136.3910 C   0  0  1  0  0  3  0  0  0  0  0  0
  185.4420  177.2650  135.3480 O   0  0  0  0  0  1  0  0  0  0  0  0
  184.1720  176.6830  135.3000 C   0  0  0  0  0  2  0  0  0  0  0  0
  182.1740  176.2740  136.8570 C   0  0  1  0  0  3  0  0  0  0  0  0
  180.7770  176.8070  136.5420 C   0  0  0  0  0  2  0  0  0  0  0  0
  180.8410  178.1510  135.8910 C   0  0  0  0  0  0  0  0  0  0  0  0
  180.4650  179.1700  136.5250 O   0  0  0  0  0  1  0  0  0  0  0  0
  181.3290  178.2810  134.5940 O   0  0  0  0  0  0  0  0  0  0  0  0
  182.3640  175.0000  136.2490 O   0  0  0  0  0  0  0  0  0  0  0  0
  181.4280  173.3380  137.5560 O   0  0  0  0  0  0  0  0  0  0  0  0
  182.4450  173.8110  136.9810 C   0  0  0  0  0  0  0  0  0  0  0  0
  184.7690  173.9200  137.6350 N   0  0  0  0  0  1  0  0  0  0  0  0
  183.7430  173.0680  137.0520 C   0  0  2  0  0  3  0  0  0  0  0  0
  184.3130  171.1530  135.6890 O   0  0  0  0  0  1  0  0  0  0  0  0
  184.1990  172.5460  135.6860 C   0  0  2  0  0  3  0  0  0  0  0  0
  185.5180  173.1750  135.2730 C   0  0  0  0  0  1  0  0  0  0  0  0
  189.3770  176.3890  140.7940 C   0  0  0  0  0  2  0  0  0  0  0  0
  190.3940  176.2190  141.7710 O   0  0  0  0  0  0  0  0  0  0  0  0
  191.3560  177.1980  142.0300 C   0  0  0  0  0  0  0  0  0  0  0  0
  192.2050  177.5030  141.1490 O   0  0  0  0  0  0  0  0  0  0  0  0
  191.3150  177.9000  143.3700 C   0  0  0  0  0  2  0  0  0  0  0  0
  189.7530  178.2500  145.1870 C   0  0  0  0  0  2  0  0  0  0  0  0
  190.5080  177.2520  144.4130 N   0  0  0  0  0  0  0  0  0  0  0  0
  191.3470  176.4830  145.3290 C   0  0  0  0  0  2  0  0  0  0  0  0
  189.8420  177.8960  146.6640 C   0  0  2  0  0  3  0  0  0  0  0  0
  191.3010  176.3180  147.6990 O   0  0  0  0  0  0  0  0  0  0  0  0
  190.8710  176.8350  146.6790 C   0  0  0  0  0  0  0  0  0  0  0  0
  188.4300  177.4080  148.5250 O   0  0  0  0  0  1  0  0  0  0  0  0
  188.5000  177.3550  147.1330 C   0  0  0  0  0  2  0  0  0  0  0  0
  2 30  1  1  0  0  0
  2  6  1  0  0  0  0
  2  3  1  0  0  0  0
  3 16  1  6  0  0  0
  3  7  1  0  0  0  0
  4  8  1  0  0  0  0
  5  1  1  6  0  0  0
  5  9  1  0  0  0  0
  6 12  1  0  0  0  0
  7 11  1  0  0  0  0
  7  5  1  0  0  0  0
  8 12  1  0  0  0  0
  9 28  1  0  0  0  0
 10  9  1  0  0  0  0
 12 15  1  0  0  0  0
 13  4  1  0  0  0  0
 13  6  1  0  0  0  0
 14 13  1  0  0  0  0
 15 10  1  0  0  0  0
 16 18  1  0  0  0  0
 17 16  2  0  0  0  0
 19 23  1  0  0  0  0
 19 20  1  0  0  0  0
 19 18  1  0  0  0  0
 20 21  1  0  0  0  0
 22 21  2  0  0  0  0
 24 23  1  0  0  0  0
 25 24  1  0  0  0  0
 26 25  1  0  0  0  0
 27 26  1  0  0  0  0
 28 29  1  0  0  0  0
 31 30  1  0  0  0  0
 32 31  2  0  0  0  0
 33 36  1  0  0  0  0
 33 32  1  0  0  0  0
 35 34  1  0  0  0  0
 35 33  1  0  0  0  0
 37 36  1  0  0  0  0
 38 39  1  0  0  0  0
 38 37  1  0  0  0  0
 40 38  2  0  0  0  0
 41 36  1  0  0  0  0
 41 43  1  0  0  0  0
 43 45  1  0  0  0  0
 43 42  2  0  0  0  0
 45 44  1  0  0  0  0
 47 46  1  0  0  0  0
 47 45  1  0  0  0  0
 48 47  1  0  0  0  0
 49  8  1  0  0  0  0
 49 50  1  0  0  0  0
 50 51  1  0  0  0  0
 51 53  1  0  0  0  0
 52 51  2  0  0  0  0
 53 55  1  0  0  0  0
 54 57  1  0  0  0  0
 55 54  1  0  0  0  0
 55 56  1  0  0  0  0
 56 59  1  0  0  0  0
 57 59  1  0  0  0  0
 57 61  1  0  0  0  0
 59 58  2  0  0  0  0
 61 60  1  0  0  0  0
M  END
>  <MODEL>
4

>  <REMARK>
 VINA RESULT:      -4.1      1.897      3.033
  Name = 
  27 active torsions:
  status: ('A' for Active; 'I' for Inactive)
    1  A    between atoms: O_2  and  C_4
    2  A    between atoms: O_2  and  C_27
    3  A    between atoms: C_3  and  C_43
    4  A    between atoms: C_4  and  C_28
    5  A    between atoms: C_5  and  C_61
    6  A    between atoms: C_7  and  C_24
    7  A    between atoms: C_8  and  C_43
    8  A    between atoms: N_9  and  C_21
    9  A    between atoms: C_10  and  C_46
   10  A    between atoms: C_17  and  C_33
   11  A    between atoms: C_18  and  C_22
   12  A    between atoms: C_18  and  O_35
   13  A    between atoms: C_18  and  C_61
   14  A    between atoms: S_19  and  C_32
   15  A    between atoms: C_21  and  C_27
   16  A    between atoms: C_22  and  C_47
   17  A    between atoms: C_22  and  C_56
   18  A    between atoms: C_24  and  C_41
   19  A    between atoms: C_31  and  C_41
   20  A    between atoms: C_31  and  C_44
   21  A    between atoms: C_32  and  C_44
   22  A    between atoms: O_35  and  C_37
   23  A    between atoms: C_37  and  C_48
   24  A    between atoms: C_40  and  C_52
   25  A    between atoms: C_41  and  O_57
   26  A    between atoms: C_46  and  O_57
   27  A    between atoms: C_48  and  C_53
                            x       y       z     vdW  Elec       q    Type
                         _______ _______ _______ _____ _____    ______ ____

>  <TORSDO>
F 27

$$$$
=
 OpenBabel11062416363D

 61 63  0  0  1  0  0  0  0  0999 V2000
  185.1810  180.4070  143.4220 O   0  0  0  0  0  1  0  0  0  0  0  0
  185.3750  178.3990  140.8180 C   0  0  2  0  0  3  0  0  0  0  0  0
  184.0880  177.9870  141.5660 C   0  0  1  0  0  3  0  0  0  0  0  0
  189.0230  178.3860  141.9330 C   0  0  0  0  0  2  0  0  0  0  0  0
  184.1380  179.5170  143.6790 C   0  0  1  0  0  3  0  0  0  0  0  0
  186.6240  178.4950  141.7140 C   0  0  1  0  0  3  0  0  0  0  0  0
  183.3990  179.1040  142.3980 C   0  0  2  0  0  3  0  0  0  0  0  0
  188.3970  177.3780  142.8900 C   0  0  1  0  0  3  0  0  0  0  0  0
  184.5760  178.3480  144.5700 C   0  0  1  0  0  3  0  0  0  0  0  0
  185.9500  178.1060  144.4520 O   0  0  0  0  0  0  0  0  0  0  0  0
  181.9670  178.7480  142.7840 C   0  0  0  0  0  1  0  0  0  0  0  0
  186.9550  177.2080  142.4570 C   0  0  1  0  0  3  0  0  0  0  0  0
  187.9240  178.8610  140.9970 C   0  0  2  0  0  3  0  0  0  0  0  0
  188.0820  178.1260  139.6690 C   0  0  0  0  0  1  0  0  0  0  0  0
  186.0510  176.9590  143.6620 C   0  0  0  0  0  2  0  0  0  0  0  0
  183.1610  177.3090  140.6040 C   0  0  0  0  0  0  0  0  0  0  0  0
  182.9090  176.0850  140.7500 O   0  0  0  0  0  0  0  0  0  0  0  0
  182.6120  178.0300  139.5430 O   0  0  0  0  0  0  0  0  0  0  0  0
  181.2150  178.0500  139.2870 C   0  0  1  0  0  3  0  0  0  0  0  0
  180.7250  179.4970  139.1670 C   0  0  0  0  0  2  0  0  0  0  0  0
  181.8450  180.4770  138.9750 C   0  0  0  0  0  3  0  0  0  0  0  0
  181.6270  181.5980  138.5430 O   0  0  0  0  0  0  0  0  0  0  0  0
  180.9030  177.2250  138.0440 C   0  0  0  0  0  2  0  0  0  0  0  0
  180.1240  175.9740  138.4160 C   0  0  0  0  0  2  0  0  0  0  0  0
  178.9730  175.7630  137.4470 C   0  0  0  0  0  2  0  0  0  0  0  0
  179.5030  174.6960  136.0700 S   0  0  0  0  0  0  0  0  0  0  0  0
  180.0630  176.1210  135.0920 C   0  0  0  0  0  1  0  0  0  0  0  0
  184.2340  178.6630  146.0160 C   0  0  0  0  0  2  0  0  0  0  0  0
  185.4970  178.6990  146.8560 C   0  0  0  0  0  1  0  0  0  0  0  0
  185.2020  179.5690  139.8330 C   0  0  0  0  0  2  0  0  0  0  0  0
  185.4710  179.1740  138.4190 C   0  0  0  0  0  3  0  0  0  0  0  0
  185.6970  177.9080  138.0940 C   0  0  0  0  0  3  0  0  0  0  0  0
  185.9420  177.5170  136.6650 C   0  0  1  0  0  3  0  0  0  0  0  0
  187.2120  179.5630  136.3890 O   0  0  0  0  0  1  0  0  0  0  0  0
  187.1750  178.2050  136.0600 C   0  0  0  0  0  2  0  0  0  0  0  0
  185.9580  175.9920  136.5120 C   0  0  1  0  0  3  0  0  0  0  0  0
  184.5390  175.4410  136.3760 C   0  0  0  0  0  2  0  0  0  0  0  0
  184.2310  174.4550  137.4560 C   0  0  0  0  0  0  0  0  0  0  0  0
  183.0890  174.4440  137.9840 O   0  0  0  0  0  1  0  0  0  0  0  0
  185.1950  173.5400  137.8670 O   0  0  0  0  0  0  0  0  0  0  0  0
  186.7440  175.6130  135.3860 O   0  0  0  0  0  0  0  0  0  0  0  0
  187.3650  173.3950  135.5950 O   0  0  0  0  0  0  0  0  0  0  0  0
  187.7050  174.5980  135.4360 C   0  0  0  0  0  0  0  0  0  0  0  0
  189.8420  173.8310  134.6070 N   0  0  0  0  0  1  0  0  0  0  0  0
  189.1530  174.9360  135.2580 C   0  0  2  0  0  3  0  0  0  0  0  0
  189.0180  175.0040  137.6730 O   0  0  0  0  0  1  0  0  0  0  0  0
  189.8420  175.2880  136.5790 C   0  0  2  0  0  3  0  0  0  0  0  0
  190.2580  176.7480  136.6080 C   0  0  0  0  0  1  0  0  0  0  0  0
  189.1320  176.0500  142.8350 C   0  0  0  0  0  2  0  0  0  0  0  0
  190.4610  176.2610  142.3790 O   0  0  0  0  0  0  0  0  0  0  0  0
  191.5090  176.5840  143.2440 C   0  0  0  0  0  0  0  0  0  0  0  0
  192.0560  177.7190  143.1820 O   0  0  0  0  0  0  0  0  0  0  0  0
  191.9280  175.5560  144.2720 C   0  0  0  0  0  2  0  0  0  0  0  0
  190.3570  176.7980  145.6320 C   0  0  0  0  0  2  0  0  0  0  0  0
  191.2360  175.6210  145.5670 N   0  0  0  0  0  0  0  0  0  0  0  0
  192.1880  175.6840  146.6730 C   0  0  0  0  0  2  0  0  0  0  0  0
  190.5150  177.4550  146.9950 C   0  0  2  0  0  3  0  0  0  0  0  0
  192.1990  177.0300  148.6300 O   0  0  0  0  0  0  0  0  0  0  0  0
  191.6850  176.7500  147.5580 C   0  0  0  0  0  0  0  0  0  0  0  0
  188.9220  178.3420  148.5350 O   0  0  0  0  0  1  0  0  0  0  0  0
  189.2700  177.1910  147.8290 C   0  0  0  0  0  2  0  0  0  0  0  0
  2 30  1  1  0  0  0
  2  3  1  0  0  0  0
  2  6  1  0  0  0  0
  3 16  1  6  0  0  0
  3  7  1  0  0  0  0
  4  8  1  0  0  0  0
  5  1  1  6  0  0  0
  5  9  1  0  0  0  0
  6 12  1  0  0  0  0
  7 11  1  0  0  0  0
  7  5  1  0  0  0  0
  9 28  1  0  0  0  0
 10  9  1  0  0  0  0
 12  8  1  0  0  0  0
 12 15  1  0  0  0  0
 13  6  1  0  0  0  0
 13  4  1  0  0  0  0
 14 13  1  0  0  0  0
 15 10  1  0  0  0  0
 16 17  2  0  0  0  0
 18 16  1  0  0  0  0
 19 18  1  0  0  0  0
 20 19  1  0  0  0  0
 21 20  1  0  0  0  0
 22 21  2  0  0  0  0
 23 24  1  0  0  0  0
 23 19  1  0  0  0  0
 25 24  1  0  0  0  0
 26 25  1  0  0  0  0
 27 26  1  0  0  0  0
 28 29  1  0  0  0  0
 31 30  1  0  0  0  0
 32 31  2  0  0  0  0
 33 32  1  0  0  0  0
 35 34  1  0  0  0  0
 35 33  1  0  0  0  0
 36 33  1  0  0  0  0
 37 36  1  0  0  0  0
 37 38  1  0  0  0  0
 38 40  2  0  0  0  0
 38 39  1  0  0  0  0
 41 43  1  0  0  0  0
 41 36  1  0  0  0  0
 43 42  2  0  0  0  0
 44 45  1  0  0  0  0
 45 43  1  0  0  0  0
 45 47  1  0  0  0  0
 47 48  1  0  0  0  0
 47 46  1  0  0  0  0
 49  8  1  0  0  0  0
 50 49  1  0  0  0  0
 50 51  1  0  0  0  0
 51 53  1  0  0  0  0
 52 51  2  0  0  0  0
 53 55  1  0  0  0  0
 54 57  1  0  0  0  0
 55 54  1  0  0  0  0
 55 56  1  0  0  0  0
 56 59  1  0  0  0  0
 57 59  1  0  0  0  0
 57 61  1  0  0  0  0
 59 58  2  0  0  0  0
 61 60  1  0  0  0  0
M  END
>  <MODEL>
5

>  <REMARK>
 VINA RESULT:      -4.0      1.551      2.381
  Name = 
  27 active torsions:
  status: ('A' for Active; 'I' for Inactive)
    1  A    between atoms: O_2  and  C_4
    2  A    between atoms: O_2  and  C_27
    3  A    between atoms: C_3  and  C_43
    4  A    between atoms: C_4  and  C_28
    5  A    between atoms: C_5  and  C_61
    6  A    between atoms: C_7  and  C_24
    7  A    between atoms: C_8  and  C_43
    8  A    between atoms: N_9  and  C_21
    9  A    between atoms: C_10  and  C_46
   10  A    between atoms: C_17  and  C_33
   11  A    between atoms: C_18  and  C_22
   12  A    between atoms: C_18  and  O_35
   13  A    between atoms: C_18  and  C_61
   14  A    between atoms: S_19  and  C_32
   15  A    between atoms: C_21  and  C_27
   16  A    between atoms: C_22  and  C_47
   17  A    between atoms: C_22  and  C_56
   18  A    between atoms: C_24  and  C_41
   19  A    between atoms: C_31  and  C_41
   20  A    between atoms: C_31  and  C_44
   21  A    between atoms: C_32  and  C_44
   22  A    between atoms: O_35  and  C_37
   23  A    between atoms: C_37  and  C_48
   24  A    between atoms: C_40  and  C_52
   25  A    between atoms: C_41  and  O_57
   26  A    between atoms: C_46  and  O_57
   27  A    between atoms: C_48  and  C_53
                            x       y       z     vdW  Elec       q    Type
                         _______ _______ _______ _____ _____    ______ ____

>  <TORSDO>
F 27

$$$$
=
 OpenBabel11062416363D

 61 63  0  0  1  0  0  0  0  0999 V2000
  185.2000  180.4520  143.1080 O   0  0  0  0  0  1  0  0  0  0  0  0
  185.2790  178.3010  140.6150 C   0  0  2  0  0  3  0  0  0  0  0  0
  184.0290  177.9320  141.4430 C   0  0  1  0  0  3  0  0  0  0  0  0
  188.9750  178.3490  141.5610 C   0  0  0  0  0  2  0  0  0  0  0  0
  184.1720  179.5790  143.4620 C   0  0  1  0  0  3  0  0  0  0  0  0
  186.5680  178.4470  141.4460 C   0  0  1  0  0  3  0  0  0  0  0  0
  183.3760  179.0950  142.2420 C   0  0  2  0  0  3  0  0  0  0  0  0
  188.3950  177.3970  142.6010 C   0  0  1  0  0  3  0  0  0  0  0  0
  184.6530  178.4610  144.3960 C   0  0  1  0  0  3  0  0  0  0  0  0
  186.0210  178.2130  144.2300 O   0  0  0  0  0  0  0  0  0  0  0  0
  181.9640  178.7620  142.7110 C   0  0  0  0  0  1  0  0  0  0  0  0
  186.9350  177.2030  142.2440 C   0  0  1  0  0  3  0  0  0  0  0  0
  187.8330  178.7710  140.6510 C   0  0  2  0  0  3  0  0  0  0  0  0
  187.9320  177.9620  139.3610 C   0  0  0  0  0  1  0  0  0  0  0  0
  186.0880  177.0230  143.5020 C   0  0  0  0  0  2  0  0  0  0  0  0
  183.0600  177.2020  140.5640 C   0  0  0  0  0  0  0  0  0  0  0  0
  183.4370  176.1620  139.9630 O   0  0  0  0  0  0  0  0  0  0  0  0
  181.7660  177.6960  140.3950 O   0  0  0  0  0  0  0  0  0  0  0  0
  180.8140  177.0460  139.5640 C   0  0  1  0  0  3  0  0  0  0  0  0
  179.5150  176.8070  140.3440 C   0  0  0  0  0  2  0  0  0  0  0  0
  178.9810  175.4150  140.1700 C   0  0  0  0  0  3  0  0  0  0  0  0
  179.5150  174.6330  139.4000 O   0  0  0  0  0  0  0  0  0  0  0  0
  180.5890  177.8620  138.2970 C   0  0  0  0  0  2  0  0  0  0  0  0
  180.7320  176.9830  137.0640 C   0  0  0  0  0  2  0  0  0  0  0  0
  180.8590  177.8420  135.8180 C   0  0  0  0  0  2  0  0  0  0  0  0
  181.0490  179.5920  136.2810 S   0  0  0  0  0  0  0  0  0  0  0  0
  180.6740  180.1500  134.5940 C   0  0  0  0  0  1  0  0  0  0  0  0
  184.3770  178.8580  145.8370 C   0  0  0  0  0  2  0  0  0  0  0  0
  185.5540  179.6320  146.4010 C   0  0  0  0  0  1  0  0  0  0  0  0
  185.0590  179.4130  139.5740 C   0  0  0  0  0  2  0  0  0  0  0  0
  184.7400  178.8770  138.2190 C   0  0  0  0  0  3  0  0  0  0  0  0
  185.4120  177.8520  137.7130 C   0  0  0  0  0  3  0  0  0  0  0  0
  185.0660  177.3030  136.3590 C   0  0  1  0  0  3  0  0  0  0  0  0
  187.2040  178.1100  135.5510 O   0  0  0  0  0  1  0  0  0  0  0  0
  185.8520  177.9750  135.2220 C   0  0  0  0  0  2  0  0  0  0  0  0
  185.1690  175.7730  136.3480 C   0  0  1  0  0  3  0  0  0  0  0  0
  186.1220  175.2810  137.4370 C   0  0  0  0  0  2  0  0  0  0  0  0
  187.3410  174.6490  136.8480 C   0  0  0  0  0  0  0  0  0  0  0  0
  187.3000  173.4520  136.4630 O   0  0  0  0  0  0  0  0  0  0  0  0
  188.5160  175.3820  136.7090 O   0  0  0  0  0  1  0  0  0  0  0  0
  183.8820  175.1870  136.5170 O   0  0  0  0  0  0  0  0  0  0  0  0
  182.9950  174.2570  134.5950 O   0  0  0  0  0  0  0  0  0  0  0  0
  183.4370  174.0960  135.7640 C   0  0  0  0  0  0  0  0  0  0  0  0
  184.5330  171.9460  135.6190 N   0  0  0  0  0  1  0  0  0  0  0  0
  183.5240  172.7140  136.3340 C   0  0  2  0  0  3  0  0  0  0  0  0
  181.7820  171.6990  134.9970 O   0  0  0  0  0  1  0  0  0  0  0  0
  182.1810  171.9800  136.3080 C   0  0  2  0  0  3  0  0  0  0  0  0
  181.1040  172.7840  137.0170 C   0  0  0  0  0  1  0  0  0  0  0  0
  189.1300  176.0680  142.5870 C   0  0  0  0  0  2  0  0  0  0  0  0
  189.9110  175.9430  143.7670 O   0  0  0  0  0  0  0  0  0  0  0  0
  191.2310  176.3950  143.8440 C   0  0  0  0  0  0  0  0  0  0  0  0
  191.8560  176.7080  142.7950 O   0  0  0  0  0  0  0  0  0  0  0  0
  191.8570  176.5360  145.2140 C   0  0  0  0  0  2  0  0  0  0  0  0
  190.5030  176.4490  147.2190 C   0  0  0  0  0  2  0  0  0  0  0  0
  191.0950  177.3220  146.1930 N   0  0  0  0  0  0  0  0  0  0  0  0
  190.0250  178.0780  145.5460 C   0  0  0  0  0  2  0  0  0  0  0  0
  189.0720  176.8970  147.4790 C   0  0  2  0  0  3  0  0  0  0  0  0
  187.7610  178.4120  146.1850 O   0  0  0  0  0  0  0  0  0  0  0  0
  188.8340  177.8630  146.3880 C   0  0  0  0  0  0  0  0  0  0  0  0
  189.7190  178.7760  148.8010 O   0  0  0  0  0  1  0  0  0  0  0  0
  188.9980  177.5820  148.8360 C   0  0  0  0  0  2  0  0  0  0  0  0
  2 30  1  1  0  0  0
  2  3  1  0  0  0  0
  2  6  1  0  0  0  0
  3 16  1  6  0  0  0
  3  7  1  0  0  0  0
  4  8  1  0  0  0  0
  5  1  1  6  0  0  0
  5  9  1  0  0  0  0
  6 12  1  0  0  0  0
  7 11  1  0  0  0  0
  7  5  1  0  0  0  0
  9 28  1  0  0  0  0
 10  9  1  0  0  0  0
 12  8  1  0  0  0  0
 12 15  1  0  0  0  0
 13  6  1  0  0  0  0
 13  4  1  0  0  0  0
 14 13  1  0  0  0  0
 15 10  1  0  0  0  0
 17 16  2  0  0  0  0
 18 16  1  0  0  0  0
 19 20  1  0  0  0  0
 19 18  1  0  0  0  0
 21 20  1  0  0  0  0
 22 21  2  0  0  0  0
 23 19  1  0  0  0  0
 24 23  1  0  0  0  0
 25 26  1  0  0  0  0
 25 24  1  0  0  0  0
 27 26  1  0  0  0  0
 28 29  1  0  0  0  0
 31 30  1  0  0  0  0
 32 31  2  0  0  0  0
 33 32  1  0  0  0  0
 35 34  1  0  0  0  0
 35 33  1  0  0  0  0
 36 33  1  0  0  0  0
 36 41  1  0  0  0  0
 36 37  1  0  0  0  0
 38 37  1  0  0  0  0
 39 38  2  0  0  0  0
 40 38  1  0  0  0  0
 42 43  2  0  0  0  0
 43 45  1  0  0  0  0
 43 41  1  0  0  0  0
 44 45  1  0  0  0  0
 46 47  1  0  0  0  0
 47 45  1  0  0  0  0
 47 48  1  0  0  0  0
 49  8  1  0  0  0  0
 49 50  1  0  0  0  0
 50 51  1  0  0  0  0
 51 53  1  0  0  0  0
 52 51  2  0  0  0  0
 53 55  1  0  0  0  0
 54 57  1  0  0  0  0
 55 54  1  0  0  0  0
 56 55  1  0  0  0  0
 56 59  1  0  0  0  0
 57 61  1  0  0  0  0
 58 59  2  0  0  0  0
 59 57  1  0  0  0  0
 60 61  1  0  0  0  0
M  END
>  <MODEL>
6

>  <REMARK>
 VINA RESULT:      -3.4      1.715      3.066
  Name = 
  27 active torsions:
  status: ('A' for Active; 'I' for Inactive)
    1  A    between atoms: O_2  and  C_4
    2  A    between atoms: O_2  and  C_27
    3  A    between atoms: C_3  and  C_43
    4  A    between atoms: C_4  and  C_28
    5  A    between atoms: C_5  and  C_61
    6  A    between atoms: C_7  and  C_24
    7  A    between atoms: C_8  and  C_43
    8  A    between atoms: N_9  and  C_21
    9  A    between atoms: C_10  and  C_46
   10  A    between atoms: C_17  and  C_33
   11  A    between atoms: C_18  and  C_22
   12  A    between atoms: C_18  and  O_35
   13  A    between atoms: C_18  and  C_61
   14  A    between atoms: S_19  and  C_32
   15  A    between atoms: C_21  and  C_27
   16  A    between atoms: C_22  and  C_47
   17  A    between atoms: C_22  and  C_56
   18  A    between atoms: C_24  and  C_41
   19  A    between atoms: C_31  and  C_41
   20  A    between atoms: C_31  and  C_44
   21  A    between atoms: C_32  and  C_44
   22  A    between atoms: O_35  and  C_37
   23  A    between atoms: C_37  and  C_48
   24  A    between atoms: C_40  and  C_52
   25  A    between atoms: C_41  and  O_57
   26  A    between atoms: C_46  and  O_57
   27  A    between atoms: C_48  and  C_53
                            x       y       z     vdW  Elec       q    Type
                         _______ _______ _______ _____ _____    ______ ____

>  <TORSDO>
F 27

$$$$
=
 OpenBabel11062416363D

 61 63  0  0  1  0  0  0  0  0999 V2000
  181.7740  180.5290  140.4320 O   0  0  0  0  0  1  0  0  0  0  0  0
  183.7270  177.9380  139.8640 C   0  0  2  0  0  3  0  0  0  0  0  0
  182.2970  177.3650  139.9690 C   0  0  1  0  0  3  0  0  0  0  0  0
  185.8550  179.8210  142.4090 C   0  0  0  0  0  2  0  0  0  0  0  0
  180.8810  179.4680  140.5860 C   0  0  1  0  0  3  0  0  0  0  0  0
  184.1250  178.8640  141.0280 C   0  0  1  0  0  3  0  0  0  0  0  0
  181.1460  178.3360  139.5830 C   0  0  2  0  0  3  0  0  0  0  0  0
  184.8560  179.0990  143.3060 C   0  0  1  0  0  3  0  0  0  0  0  0
  180.7620  179.0140  142.0460 C   0  0  1  0  0  3  0  0  0  0  0  0
  181.9200  179.3200  142.7700 O   0  0  0  0  0  0  0  0  0  0  0  0
  179.8270  177.6130  139.3410 C   0  0  0  0  0  1  0  0  0  0  0  0
  184.0250  178.2110  142.4010 C   0  0  1  0  0  3  0  0  0  0  0  0
  185.5500  179.4150  140.9770 C   0  0  2  0  0  3  0  0  0  0  0  0
  186.5680  178.3590  140.5570 C   0  0  0  0  0  1  0  0  0  0  0  0
  182.5920  178.1040  142.9140 C   0  0  0  0  0  2  0  0  0  0  0  0
  182.2400  176.0600  139.2350 C   0  0  0  0  0  0  0  0  0  0  0  0
  181.4950  175.1430  139.6680 O   0  0  0  0  0  0  0  0  0  0  0  0
  183.0320  175.8630  138.1040 O   0  0  0  0  0  0  0  0  0  0  0  0
  182.4710  175.7220  136.8060 C   0  0  1  0  0  3  0  0  0  0  0  0
  181.7240  174.3880  136.7000 C   0  0  0  0  0  2  0  0  0  0  0  0
  182.6320  173.2370  136.3800 C   0  0  0  0  0  3  0  0  0  0  0  0
  182.6960  172.2680  137.1200 O   0  0  0  0  0  0  0  0  0  0  0  0
  181.5750  176.9160  136.4950 C   0  0  0  0  0  2  0  0  0  0  0  0
  182.0460  177.6220  135.2340 C   0  0  0  0  0  2  0  0  0  0  0  0
  180.9570  178.5390  134.7060 C   0  0  0  0  0  2  0  0  0  0  0  0
  180.5280  179.7870  135.9600 S   0  0  0  0  0  0  0  0  0  0  0  0
  180.0410  180.9940  134.6920 C   0  0  0  0  0  1  0  0  0  0  0  0
  179.5630  179.6930  142.6870 C   0  0  0  0  0  2  0  0  0  0  0  0
  179.2320  179.0300  144.0110 C   0  0  0  0  0  1  0  0  0  0  0  0
  184.1110  178.4630  138.4690 C   0  0  0  0  0  2  0  0  0  0  0  0
  185.1140  177.5960  137.7840 C   0  0  0  0  0  3  0  0  0  0  0  0
  186.3090  178.0650  137.4480 C   0  0  0  0  0  3  0  0  0  0  0  0
  187.3200  177.1770  136.7830 C   0  0  1  0  0  3  0  0  0  0  0  0
  188.2920  177.6080  134.6060 O   0  0  0  0  0  1  0  0  0  0  0  0
  188.3530  177.9600  135.9570 C   0  0  0  0  0  2  0  0  0  0  0  0
  187.9520  176.2160  137.7970 C   0  0  1  0  0  3  0  0  0  0  0  0
  187.7010  174.7610  137.4020 C   0  0  0  0  0  2  0  0  0  0  0  0
  188.8670  174.1880  136.6640 C   0  0  0  0  0  0  0  0  0  0  0  0
  189.1370  174.5990  135.5060 O   0  0  0  0  0  0  0  0  0  0  0  0
  189.6650  173.2140  137.2580 O   0  0  0  0  0  1  0  0  0  0  0  0
  189.3510  176.4620  137.9100 O   0  0  0  0  0  0  0  0  0  0  0  0
  189.6480  178.3440  139.2210 O   0  0  0  0  0  0  0  0  0  0  0  0
  189.9200  177.1340  138.9970 C   0  0  0  0  0  0  0  0  0  0  0  0
  190.4820  176.7090  141.3090 N   0  0  0  0  0  1  0  0  0  0  0  0
  190.8320  176.3990  139.9300 C   0  0  2  0  0  3  0  0  0  0  0  0
  192.6840  177.9190  140.2660 O   0  0  0  0  0  1  0  0  0  0  0  0
  192.3090  176.7080  139.6750 C   0  0  2  0  0  3  0  0  0  0  0  0
  192.6120  176.7420  138.1870 C   0  0  0  0  0  1  0  0  0  0  0  0
  185.5730  178.2690  144.3560 C   0  0  0  0  0  2  0  0  0  0  0  0
  185.0280  178.5480  145.6380 O   0  0  0  0  0  0  0  0  0  0  0  0
  185.6360  178.1220  146.8210 C   0  0  0  0  0  0  0  0  0  0  0  0
  184.9500  177.5740  147.7260 O   0  0  0  0  0  0  0  0  0  0  0  0
  187.1330  178.2990  146.9570 C   0  0  0  0  0  2  0  0  0  0  0  0
  189.3460  177.4530  146.4590 C   0  0  0  0  0  2  0  0  0  0  0  0
  187.9580  177.5670  145.9850 N   0  0  0  0  0  0  0  0  0  0  0  0
  187.9590  178.2330  144.6850 C   0  0  0  0  0  2  0  0  0  0  0  0
  190.2870  177.7350  145.2970 C   0  0  2  0  0  3  0  0  0  0  0  0
  189.7380  178.6730  143.1730 O   0  0  0  0  0  0  0  0  0  0  0  0
  189.3700  178.2520  144.2590 C   0  0  0  0  0  0  0  0  0  0  0  0
  191.4590  175.7610  145.9510 O   0  0  0  0  0  1  0  0  0  0  0  0
  190.9360  176.4350  144.8460 C   0  0  0  0  0  2  0  0  0  0  0  0
  2 30  1  6  0  0  0
  2  3  1  0  0  0  0
  2  6  1  0  0  0  0
  3 16  1  6  0  0  0
  4  8  1  0  0  0  0
  5  1  1  1  0  0  0
  5  9  1  0  0  0  0
  6 12  1  0  0  0  0
  7  3  1  0  0  0  0
  7  5  1  0  0  0  0
  8 49  1  0  0  0  0
  9 28  1  0  0  0  0
  9 10  1  0  0  0  0
 10 15  1  0  0  0  0
 11  7  1  0  0  0  0
 12 15  1  0  0  0  0
 12  8  1  0  0  0  0
 13  6  1  0  0  0  0
 13  4  1  0  0  0  0
 14 13  1  0  0  0  0
 16 17  2  0  0  0  0
 18 16  1  0  0  0  0
 19 18  1  0  0  0  0
 20 19  1  0  0  0  0
 21 20  1  0  0  0  0
 21 22  2  0  0  0  0
 23 19  1  0  0  0  0
 24 23  1  0  0  0  0
 25 24  1  0  0  0  0
 25 26  1  0  0  0  0
 27 26  1  0  0  0  0
 28 29  1  0  0  0  0
 31 30  1  0  0  0  0
 32 31  2  0  0  0  0
 33 32  1  0  0  0  0
 33 36  1  0  0  0  0
 34 35  1  0  0  0  0
 35 33  1  0  0  0  0
 36 41  1  0  0  0  0
 37 36  1  0  0  0  0
 38 40  1  0  0  0  0
 38 37  1  0  0  0  0
 39 38  2  0  0  0  0
 41 43  1  0  0  0  0
 43 42  2  0  0  0  0
 43 45  1  0  0  0  0
 45 44  1  0  0  0  0
 47 45  1  0  0  0  0
 47 46  1  0  0  0  0
 48 47  1  0  0  0  0
 49 50  1  0  0  0  0
 50 51  1  0  0  0  0
 51 53  1  0  0  0  0
 51 52  2  0  0  0  0
 55 54  1  0  0  0  0
 55 53  1  0  0  0  0
 56 55  1  0  0  0  0
 57 54  1  0  0  0  0
 58 59  2  0  0  0  0
 59 56  1  0  0  0  0
 59 57  1  0  0  0  0
 61 57  1  0  0  0  0
 61 60  1  0  0  0  0
M  END
>  <MODEL>
7

>  <REMARK>
 VINA RESULT:      -3.1      2.216      4.271
  Name = 
  27 active torsions:
  status: ('A' for Active; 'I' for Inactive)
    1  A    between atoms: O_2  and  C_4
    2  A    between atoms: O_2  and  C_27
    3  A    between atoms: C_3  and  C_43
    4  A    between atoms: C_4  and  C_28
    5  A    between atoms: C_5  and  C_61
    6  A    between atoms: C_7  and  C_24
    7  A    between atoms: C_8  and  C_43
    8  A    between atoms: N_9  and  C_21
    9  A    between atoms: C_10  and  C_46
   10  A    between atoms: C_17  and  C_33
   11  A    between atoms: C_18  and  C_22
   12  A    between atoms: C_18  and  O_35
   13  A    between atoms: C_18  and  C_61
   14  A    between atoms: S_19  and  C_32
   15  A    between atoms: C_21  and  C_27
   16  A    between atoms: C_22  and  C_47
   17  A    between atoms: C_22  and  C_56
   18  A    between atoms: C_24  and  C_41
   19  A    between atoms: C_31  and  C_41
   20  A    between atoms: C_31  and  C_44
   21  A    between atoms: C_32  and  C_44
   22  A    between atoms: O_35  and  C_37
   23  A    between atoms: C_37  and  C_48
   24  A    between atoms: C_40  and  C_52
   25  A    between atoms: C_41  and  O_57
   26  A    between atoms: C_46  and  O_57
   27  A    between atoms: C_48  and  C_53
                            x       y       z     vdW  Elec       q    Type
                         _______ _______ _______ _____ _____    ______ ____

>  <TORSDO>
F 27

$$$$
=
 OpenBabel11062416363D

 61 63  0  0  1  0  0  0  0  0999 V2000
  188.9020  179.4140  136.9980 O   0  0  0  0  0  1  0  0  0  0  0  0
  189.2330  176.9380  139.1450 C   0  0  2  0  0  3  0  0  0  0  0  0
  189.2260  176.2790  137.7480 C   0  0  1  0  0  3  0  0  0  0  0  0
  186.5820  179.0150  140.9380 C   0  0  0  0  0  2  0  0  0  0  0  0
  188.7890  178.3040  136.1610 C   0  0  1  0  0  3  0  0  0  0  0  0
  188.0680  177.9160  139.3890 C   0  0  1  0  0  3  0  0  0  0  0  0
  189.7330  177.1660  136.5760 C   0  0  2  0  0  3  0  0  0  0  0  0
  185.7480  178.2540  139.9140 C   0  0  1  0  0  3  0  0  0  0  0  0
  187.3300  177.8790  135.9500 C   0  0  1  0  0  3  0  0  0  0  0  0
  186.5240  178.2760  137.0240 O   0  0  0  0  0  0  0  0  0  0  0  0
  190.0590  176.3550  135.3280 C   0  0  0  0  0  1  0  0  0  0  0  0
  186.6890  177.2930  139.2160 C   0  0  1  0  0  3  0  0  0  0  0  0
  188.0210  178.5550  140.7770 C   0  0  2  0  0  3  0  0  0  0  0  0
  188.3260  177.5540  141.8880 C   0  0  0  0  0  1  0  0  0  0  0  0
  186.2910  177.1080  137.7540 C   0  0  0  0  0  2  0  0  0  0  0  0
  189.9230  174.9550  137.8310 C   0  0  0  0  0  0  0  0  0  0  0  0
  189.2620  173.9000  137.6490 O   0  0  0  0  0  0  0  0  0  0  0  0
  191.2820  174.9030  138.1390 O   0  0  0  0  0  0  0  0  0  0  0  0
  192.2830  174.8830  137.1310 C   0  0  1  0  0  3  0  0  0  0  0  0
  193.0280  176.2220  137.1060 C   0  0  0  0  0  2  0  0  0  0  0  0
  194.1400  176.2510  136.0980 C   0  0  0  0  0  3  0  0  0  0  0  0
  195.3020  176.3660  136.4540 O   0  0  0  0  0  0  0  0  0  0  0  0
  193.2200  173.7010  137.3530 C   0  0  0  0  0  2  0  0  0  0  0  0
  192.9010  172.5770  136.3810 C   0  0  0  0  0  2  0  0  0  0  0  0
  194.1050  171.6670  136.2160 C   0  0  0  0  0  2  0  0  0  0  0  0
  195.1710  171.7660  137.6880 S   0  0  0  0  0  0  0  0  0  0  0  0
  196.6450  171.2930  136.7380 C   0  0  0  0  0  1  0  0  0  0  0  0
  186.8090  178.4970  134.6640 C   0  0  0  0  0  2  0  0  0  0  0  0
  185.2980  178.3680  134.5960 C   0  0  0  0  0  1  0  0  0  0  0  0
  190.6080  177.4510  139.6100 C   0  0  0  0  0  2  0  0  0  0  0  0
  190.6130  177.8590  141.0460 C   0  0  0  0  0  3  0  0  0  0  0  0
  191.5410  177.4080  141.8810 C   0  0  0  0  0  3  0  0  0  0  0  0
  191.5530  177.8440  143.3170 C   0  0  1  0  0  3  0  0  0  0  0  0
  192.0860  179.9480  144.3940 O   0  0  0  0  0  1  0  0  0  0  0  0
  191.2120  179.3320  143.4940 C   0  0  0  0  0  2  0  0  0  0  0  0
  190.6880  176.9150  144.1760 C   0  0  1  0  0  3  0  0  0  0  0  0
  191.5550  175.9320  144.9630 C   0  0  0  0  0  2  0  0  0  0  0  0
  191.5410  176.2430  146.4240 C   0  0  0  0  0  0  0  0  0  0  0  0
  192.0570  177.3130  146.8400 O   0  0  0  0  0  0  0  0  0  0  0  0
  190.9470  175.3640  147.3250 O   0  0  0  0  0  1  0  0  0  0  0  0
  189.8720  177.6730  145.0640 O   0  0  0  0  0  0  0  0  0  0  0  0
  187.9750  176.3870  144.7560 O   0  0  0  0  0  0  0  0  0  0  0  0
  188.5480  177.3340  145.3590 C   0  0  0  0  0  0  0  0  0  0  0  0
  187.8940  177.3410  147.6860 N   0  0  0  0  0  1  0  0  0  0  0  0
  187.8120  178.0750  146.4320 C   0  0  2  0  0  3  0  0  0  0  0  0
  186.0640  179.7100  146.0810 O   0  0  0  0  0  1  0  0  0  0  0  0
  186.3490  178.3410  146.0670 C   0  0  2  0  0  3  0  0  0  0  0  0
  185.4080  177.6050  147.0050 C   0  0  0  0  0  1  0  0  0  0  0  0
  184.6180  177.4970  140.5910 C   0  0  0  0  0  2  0  0  0  0  0  0
  183.3690  178.0270  140.1690 O   0  0  0  0  0  0  0  0  0  0  0  0
  182.6280  177.4630  139.1280 C   0  0  0  0  0  0  0  0  0  0  0  0
  182.9660  177.6580  137.9300 O   0  0  0  0  0  0  0  0  0  0  0  0
  181.4490  176.5850  139.4880 C   0  0  0  0  0  2  0  0  0  0  0  0
  182.7040  174.9750  138.1860 C   0  0  0  0  0  2  0  0  0  0  0  0
  181.4430  175.2410  138.8950 N   0  0  0  0  0  0  0  0  0  0  0  0
  180.3340  175.0810  137.9570 C   0  0  0  0  0  2  0  0  0  0  0  0
  182.3900  174.2980  136.8610 C   0  0  2  0  0  3  0  0  0  0  0  0
  180.2640  174.0880  135.7990 O   0  0  0  0  0  0  0  0  0  0  0  0
  180.9220  174.4400  136.7660 C   0  0  0  0  0  0  0  0  0  0  0  0
  184.1580  172.7260  137.1770 O   0  0  0  0  0  1  0  0  0  0  0  0
  182.7880  172.8310  136.9370 C   0  0  0  0  0  2  0  0  0  0  0  0
  2  6  1  0  0  0  0
  2 30  1  6  0  0  0
  3 16  1  1  0  0  0
  3  2  1  0  0  0  0
  5  7  1  0  0  0  0
  5  1  1  1  0  0  0
  6 13  1  0  0  0  0
  7  3  1  0  0  0  0
  8 49  1  0  0  0  0
  8  4  1  0  0  0  0
  9  5  1  0  0  0  0
  9 10  1  0  0  0  0
 10 15  1  0  0  0  0
 11  7  1  0  0  0  0
 12  6  1  0  0  0  0
 12  8  1  0  0  0  0
 13  4  1  0  0  0  0
 13 14  1  0  0  0  0
 15 12  1  0  0  0  0
 16 18  1  0  0  0  0
 17 16  2  0  0  0  0
 19 23  1  0  0  0  0
 19 18  1  0  0  0  0
 20 19  1  0  0  0  0
 21 22  2  0  0  0  0
 21 20  1  0  0  0  0
 24 23  1  0  0  0  0
 25 24  1  0  0  0  0
 25 26  1  0  0  0  0
 27 26  1  0  0  0  0
 28  9  1  0  0  0  0
 29 28  1  0  0  0  0
 30 31  1  0  0  0  0
 31 32  2  0  0  0  0
 32 33  1  0  0  0  0
 33 35  1  0  0  0  0
 33 36  1  0  0  0  0
 35 34  1  0  0  0  0
 36 37  1  0  0  0  0
 36 41  1  0  0  0  0
 37 38  1  0  0  0  0
 38 39  2  0  0  0  0
 38 40  1  0  0  0  0
 41 43  1  0  0  0  0
 42 43  2  0  0  0  0
 43 45  1  0  0  0  0
 45 44  1  0  0  0  0
 47 46  1  0  0  0  0
 47 45  1  0  0  0  0
 47 48  1  0  0  0  0
 50 49  1  0  0  0  0
 51 53  1  0  0  0  0
 51 50  1  0  0  0  0
 52 51  2  0  0  0  0
 54 55  1  0  0  0  0
 55 53  1  0  0  0  0
 56 55  1  0  0  0  0
 57 61  1  0  0  0  0
 57 54  1  0  0  0  0
 58 59  2  0  0  0  0
 59 57  1  0  0  0  0
 59 56  1  0  0  0  0
 61 60  1  0  0  0  0
M  END
>  <MODEL>
8

>  <REMARK>
 VINA RESULT:      -2.5      3.684     10.989
  Name = 
  27 active torsions:
  status: ('A' for Active; 'I' for Inactive)
    1  A    between atoms: O_2  and  C_4
    2  A    between atoms: O_2  and  C_27
    3  A    between atoms: C_3  and  C_43
    4  A    between atoms: C_4  and  C_28
    5  A    between atoms: C_5  and  C_61
    6  A    between atoms: C_7  and  C_24
    7  A    between atoms: C_8  and  C_43
    8  A    between atoms: N_9  and  C_21
    9  A    between atoms: C_10  and  C_46
   10  A    between atoms: C_17  and  C_33
   11  A    between atoms: C_18  and  C_22
   12  A    between atoms: C_18  and  O_35
   13  A    between atoms: C_18  and  C_61
   14  A    between atoms: S_19  and  C_32
   15  A    between atoms: C_21  and  C_27
   16  A    between atoms: C_22  and  C_47
   17  A    between atoms: C_22  and  C_56
   18  A    between atoms: C_24  and  C_41
   19  A    between atoms: C_31  and  C_41
   20  A    between atoms: C_31  and  C_44
   21  A    between atoms: C_32  and  C_44
   22  A    between atoms: O_35  and  C_37
   23  A    between atoms: C_37  and  C_48
   24  A    between atoms: C_40  and  C_52
   25  A    between atoms: C_41  and  O_57
   26  A    between atoms: C_46  and  O_57
   27  A    between atoms: C_48  and  C_53
                            x       y       z     vdW  Elec       q    Type
                         _______ _______ _______ _____ _____    ______ ____

>  <TORSDO>
F 27

$$$$
=
 OpenBabel11062416363D

 61 63  0  0  1  0  0  0  0  0999 V2000
  185.1810  180.5650  143.4720 O   0  0  0  0  0  1  0  0  0  0  0  0
  184.8250  178.5840  140.8650 C   0  0  2  0  0  3  0  0  0  0  0  0
  183.8080  178.0800  141.9130 C   0  0  1  0  0  3  0  0  0  0  0  0
  188.6300  178.8230  140.9940 C   0  0  0  0  0  2  0  0  0  0  0  0
  184.3030  179.6030  143.9720 C   0  0  1  0  0  3  0  0  0  0  0  0
  186.2550  178.7650  141.4080 C   0  0  1  0  0  3  0  0  0  0  0  0
  183.2850  179.1430  142.9180 C   0  0  2  0  0  3  0  0  0  0  0  0
  188.3430  177.7710  142.0600 C   0  0  1  0  0  3  0  0  0  0  0  0
  185.0350  178.4650  144.6930 C   0  0  1  0  0  3  0  0  0  0  0  0
  186.3450  178.3210  144.2180 O   0  0  0  0  0  0  0  0  0  0  0  0
  182.0310  178.6860  143.6540 C   0  0  0  0  0  1  0  0  0  0  0  0
  186.8530  177.5010  142.0120 C   0  0  1  0  0  3  0  0  0  0  0  0
  187.2960  179.2230  140.3860 C   0  0  2  0  0  3  0  0  0  0  0  0
  187.1520  178.5050  139.0470 C   0  0  0  0  0  1  0  0  0  0  0  0
  186.3130  177.1860  143.4050 C   0  0  0  0  0  2  0  0  0  0  0  0
  182.7090  177.3420  141.2100 C   0  0  0  0  0  0  0  0  0  0  0  0
  182.8460  176.1130  140.9750 O   0  0  0  0  0  0  0  0  0  0  0  0
  181.5660  178.0260  140.7950 O   0  0  0  0  0  0  0  0  0  0  0  0
  180.2650  177.6440  141.2180 C   0  0  1  0  0  3  0  0  0  0  0  0
  179.3100  178.8400  141.1220 C   0  0  0  0  0  2  0  0  0  0  0  0
  179.6940  179.9650  142.0380 C   0  0  0  0  0  3  0  0  0  0  0  0
  179.3870  181.1170  141.7740 O   0  0  0  0  0  0  0  0  0  0  0  0
  179.7840  176.4500  140.4020 C   0  0  0  0  0  2  0  0  0  0  0  0
  178.9330  176.9120  139.2300 C   0  0  0  0  0  2  0  0  0  0  0  0
  179.7450  176.8870  137.9470 C   0  0  0  0  0  2  0  0  0  0  0  0
  179.0250  178.0340  136.7300 S   0  0  0  0  0  0  0  0  0  0  0  0
  179.7830  179.4740  137.5360 C   0  0  0  0  0  1  0  0  0  0  0  0
  185.0610  178.7510  146.1850 C   0  0  0  0  0  2  0  0  0  0  0  0
  186.4950  178.8670  146.6710 C   0  0  0  0  0  1  0  0  0  0  0  0
  184.3230  179.7410  139.9830 C   0  0  0  0  0  2  0  0  0  0  0  0
  183.8080  179.2760  138.6620 C   0  0  0  0  0  3  0  0  0  0  0  0
  183.6130  177.9860  138.4200 C   0  0  0  0  0  3  0  0  0  0  0  0
  183.0700  177.5300  137.0960 C   0  0  1  0  0  3  0  0  0  0  0  0
  182.2290  178.3580  134.9800 O   0  0  0  0  0  1  0  0  0  0  0  0
  183.1270  178.6230  136.0180 C   0  0  0  0  0  2  0  0  0  0  0  0
  183.7240  176.2130  136.6640 C   0  0  1  0  0  3  0  0  0  0  0  0
  185.1780  176.1450  137.1290 C   0  0  0  0  0  2  0  0  0  0  0  0
  186.1250  176.3230  135.9870 C   0  0  0  0  0  0  0  0  0  0  0  0
  185.7750  175.9850  134.8270 O   0  0  0  0  0  0  0  0  0  0  0  0
  187.3850  176.8750  136.1980 O   0  0  0  0  0  1  0  0  0  0  0  0
  182.9910  175.1030  137.1720 O   0  0  0  0  0  0  0  0  0  0  0  0
  183.8800  173.5670  135.6890 O   0  0  0  0  0  0  0  0  0  0  0  0
  183.0570  173.8250  136.6080 C   0  0  0  0  0  0  0  0  0  0  0  0
  182.3290  171.5380  136.3140 N   0  0  0  0  0  1  0  0  0  0  0  0
  182.1690  172.7360  137.1260 C   0  0  2  0  0  3  0  0  0  0  0  0
  180.0600  172.6280  138.3060 O   0  0  0  0  0  1  0  0  0  0  0  0
  180.6960  173.1510  137.1760 C   0  0  2  0  0  3  0  0  0  0  0  0
  179.9620  172.7150  135.9190 C   0  0  0  0  0  1  0  0  0  0  0  0
  189.1260  176.4990  141.7880 C   0  0  0  0  0  2  0  0  0  0  0  0
  190.3150  176.8140  141.0770 O   0  0  0  0  0  0  0  0  0  0  0  0
  190.5100  176.4510  139.7420 C   0  0  0  0  0  0  0  0  0  0  0  0
  189.5190  176.2540  138.9870 O   0  0  0  0  0  0  0  0  0  0  0  0
  191.9300  176.3490  139.2300 C   0  0  0  0  0  2  0  0  0  0  0  0
  192.1790  174.6080  137.5660 C   0  0  0  0  0  2  0  0  0  0  0  0
  192.0790  176.0580  137.7980 N   0  0  0  0  0  0  0  0  0  0  0  0
  193.2690  176.7040  137.2470 C   0  0  0  0  0  2  0  0  0  0  0  0
  193.2790  174.3480  136.5480 C   0  0  2  0  0  3  0  0  0  0  0  0
  194.9300  175.8800  135.7630 O   0  0  0  0  0  0  0  0  0  0  0  0
  193.9330  175.6680  136.4360 C   0  0  0  0  0  0  0  0  0  0  0  0
  191.7460  174.9150  134.8090 O   0  0  0  0  0  1  0  0  0  0  0  0
  192.6530  173.9390  135.2230 C   0  0  0  0  0  2  0  0  0  0  0  0
  2 30  1  1  0  0  0
  2  6  1  0  0  0  0
  2  3  1  0  0  0  0
  3 16  1  6  0  0  0
  3  7  1  0  0  0  0
  4  8  1  0  0  0  0
  5  1  1  6  0  0  0
  5  9  1  0  0  0  0
  6 12  1  0  0  0  0
  7 11  1  0  0  0  0
  7  5  1  0  0  0  0
  9 28  1  0  0  0  0
 10  9  1  0  0  0  0
 12  8  1  0  0  0  0
 12 15  1  0  0  0  0
 13  4  1  0  0  0  0
 13  6  1  0  0  0  0
 14 13  1  0  0  0  0
 15 10  1  0  0  0  0
 17 16  2  0  0  0  0
 18 16  1  0  0  0  0
 18 19  1  0  0  0  0
 20 19  1  0  0  0  0
 20 21  1  0  0  0  0
 22 21  2  0  0  0  0
 23 19  1  0  0  0  0
 24 23  1  0  0  0  0
 25 24  1  0  0  0  0
 26 27  1  0  0  0  0
 26 25  1  0  0  0  0
 28 29  1  0  0  0  0
 31 30  1  0  0  0  0
 32 31  2  0  0  0  0
 33 32  1  0  0  0  0
 34 35  1  0  0  0  0
 35 33  1  0  0  0  0
 36 33  1  0  0  0  0
 36 37  1  0  0  0  0
 36 41  1  0  0  0  0
 38 40  1  0  0  0  0
 38 37  1  0  0  0  0
 39 38  2  0  0  0  0
 42 43  2  0  0  0  0
 43 45  1  0  0  0  0
 43 41  1  0  0  0  0
 44 45  1  0  0  0  0
 45 47  1  0  0  0  0
 47 46  1  0  0  0  0
 48 47  1  0  0  0  0
 49  8  1  0  0  0  0
 50 49  1  0  0  0  0
 51 50  1  0  0  0  0
 52 51  2  0  0  0  0
 53 51  1  0  0  0  0
 54 55  1  0  0  0  0
 55 53  1  0  0  0  0
 56 55  1  0  0  0  0
 57 54  1  0  0  0  0
 58 59  2  0  0  0  0
 59 57  1  0  0  0  0
 59 56  1  0  0  0  0
 60 61  1  0  0  0  0
 61 57  1  0  0  0  0
M  END
>  <MODEL>
9

>  <REMARK>
 VINA RESULT:      -2.3      2.728      5.494
  Name = 
  27 active torsions:
  status: ('A' for Active; 'I' for Inactive)
    1  A    between atoms: O_2  and  C_4
    2  A    between atoms: O_2  and  C_27
    3  A    between atoms: C_3  and  C_43
    4  A    between atoms: C_4  and  C_28
    5  A    between atoms: C_5  and  C_61
    6  A    between atoms: C_7  and  C_24
    7  A    between atoms: C_8  and  C_43
    8  A    between atoms: N_9  and  C_21
    9  A    between atoms: C_10  and  C_46
   10  A    between atoms: C_17  and  C_33
   11  A    between atoms: C_18  and  C_22
   12  A    between atoms: C_18  and  O_35
   13  A    between atoms: C_18  and  C_61
   14  A    between atoms: S_19  and  C_32
   15  A    between atoms: C_21  and  C_27
   16  A    between atoms: C_22  and  C_47
   17  A    between atoms: C_22  and  C_56
   18  A    between atoms: C_24  and  C_41
   19  A    between atoms: C_31  and  C_41
   20  A    between atoms: C_31  and  C_44
   21  A    between atoms: C_32  and  C_44
   22  A    between atoms: O_35  and  C_37
   23  A    between atoms: C_37  and  C_48
   24  A    between atoms: C_40  and  C_52
   25  A    between atoms: C_41  and  O_57
   26  A    between atoms: C_46  and  O_57
   27  A    between atoms: C_48  and  C_53
                            x       y       z     vdW  Elec       q    Type
                         _______ _______ _______ _____ _____    ______ ____

>  <TORSDO>
F 27

$$$$
