=
 OpenBabel11062416463D

 28 31  0  0  1  0  0  0  0  0999 V2000
  189.0760  177.0530  144.9140 C   0  0  1  0  0  3  0  0  0  0  0  0
  191.1290  176.9820  142.7540 C   0  0  0  0  0  0  0  0  0  0  0  0
  189.4810  178.2870  144.2270 C   0  0  2  0  0  3  0  0  0  0  0  0
  191.6460  176.7080  141.5950 N   0  0  0  0  0  0  0  0  0  0  0  0
  191.2400  177.4430  140.3940 C   0  0  2  0  0  3  0  0  0  0  0  0
  190.0260  177.9300  142.8740 C   0  0  0  0  0  0  0  0  0  0  0  0
  191.5150  177.0730  145.1500 C   0  0  2  0  0  3  0  0  0  0  0  0
  190.2460  177.7960  145.4110 N   0  0  2  0  0  0  0  0  0  0  0  0
  189.4210  178.3510  141.8020 N   0  0  0  0  0  0  0  0  0  0  0  0
  189.7620  177.8510  140.4670 C   0  0  0  0  0  2  0  0  0  0  0  0
  191.5930  176.3790  143.9060 O   0  0  0  0  0  0  0  0  0  0  0  0
  190.5380  175.6830  138.7340 N   0  0  0  0  0  2  0  0  0  0  0  0
  192.5890  176.7830  138.5360 O   0  0  0  0  0  0  0  0  0  0  0  0
  190.7420  174.8600  137.5550 C   0  0  0  0  0  1  0  0  0  0  0  0
  191.5090  176.6330  139.1710 C   0  0  0  0  0  0  0  0  0  0  0  0
  192.0250  176.8790  147.4860 O   0  0  0  0  0  1  0  0  0  0  0  0
  191.8690  176.1490  146.3070 C   0  0  0  0  0  2  0  0  0  0  0  0
  187.9720  177.3160  145.7400 O   0  0  0  0  0  0  0  0  0  0  0  0
  186.9390  177.8670  144.9520 C   0  0  1  0  0  3  0  0  0  0  0  0
  186.7070  177.0760  143.6520 C   0  0  0  0  0  2  0  0  0  0  0  0
  185.7420  178.0130  145.6860 O   0  0  0  0  0  0  0  0  0  0  0  0
  183.7690  179.2540  145.7440 N   0  0  0  0  0  1  0  0  0  0  0  0
  185.6290  177.7550  142.8050 C   0  0  1  0  0  3  0  0  0  0  0  0
  184.9140  178.8690  144.9400 C   0  0  2  0  0  3  0  0  0  0  0  0
  184.4320  178.1600  143.6730 C   0  0  0  0  0  2  0  0  0  0  0  0
  186.2180  178.9560  142.0690 C   0  0  0  0  0  2  0  0  0  0  0  0
  184.9390  179.6760  140.1810 O   0  0  0  0  0  1  0  0  0  0  0  0
  185.9920  178.8490  140.5700 C   0  0  0  0  0  2  0  0  0  0  0  0
  1  8  1  0  0  0  0
  1 18  1  1  0  0  0
  2  6  1  0  0  0  0
  2 11  1  0  0  0  0
  3  6  1  6  0  0  0
  3  1  1  0  0  0  0
  3  8  1  0  0  0  0
  4  2  2  0  0  0  0
  5 15  1  6  0  0  0
  5 10  1  0  0  0  0
  5  4  1  0  0  0  0
  7  8  1  0  0  0  0
  7 17  1  1  0  0  0
  9  6  2  0  0  0  0
 10  9  1  0  0  0  0
 11  7  1  0  0  0  0
 12 15  1  0  0  0  0
 13 15  2  0  0  0  0
 14 12  1  0  0  0  0
 17 16  1  0  0  0  0
 19 21  1  0  0  0  0
 19 18  1  0  0  0  0
 20 19  1  0  0  0  0
 23 20  1  0  0  0  0
 23 25  1  0  0  0  0
 24 21  1  0  0  0  0
 24 22  1  0  0  0  0
 25 24  1  0  0  0  0
 26 23  1  0  0  0  0
 27 28  1  0  0  0  0
 28 26  1  0  0  0  0
M  END
>  <MODEL>
1

>  <REMARK>
 VINA RESULT:      -8.2      0.000      0.000
  Name = 
  6 active torsions:
  status: ('A' for Active; 'I' for Inactive)
    1  A    between atoms: C_1  and  O_27
    2  A    between atoms: C_2  and  O_27
    3  A    between atoms: C_9  and  C_28
    4  A    between atoms: C_12  and  C_25
    5  A    between atoms: C_15  and  C_19
    6  A    between atoms: C_15  and  C_26
                            x       y       z     vdW  Elec       q    Type
                         _______ _______ _______ _____ _____    ______ ____

>  <TORSDO>
F 6

$$$$
=
 OpenBabel11062416463D

 28 31  0  0  1  0  0  0  0  0999 V2000
  189.3170  176.7940  144.4690 C   0  0  1  0  0  3  0  0  0  0  0  0
  190.1020  176.7790  141.5930 C   0  0  0  0  0  0  0  0  0  0  0  0
  189.7250  178.0360  143.7990 C   0  0  2  0  0  3  0  0  0  0  0  0
  189.9560  176.6700  140.3080 N   0  0  0  0  0  0  0  0  0  0  0  0
  189.3040  177.7260  139.5300 C   0  0  2  0  0  3  0  0  0  0  0  0
  189.4940  177.8880  142.3220 C   0  0  0  0  0  0  0  0  0  0  0  0
  191.5010  176.2410  143.5040 C   0  0  2  0  0  3  0  0  0  0  0  0
  190.7470  177.1390  144.4130 N   0  0  2  0  0  0  0  0  0  0  0  0
  188.6370  178.6590  141.7210 N   0  0  0  0  0  0  0  0  0  0  0  0
  188.1980  178.4120  140.3440 C   0  0  0  0  0  2  0  0  0  0  0  0
  190.8210  175.8460  142.3130 O   0  0  0  0  0  0  0  0  0  0  0  0
  187.8440  177.9580  137.4890 N   0  0  0  0  0  2  0  0  0  0  0  0
  189.1050  176.0270  137.8620 O   0  0  0  0  0  0  0  0  0  0  0  0
  187.2770  177.4770  136.2420 C   0  0  0  0  0  1  0  0  0  0  0  0
  188.7610  177.1760  138.2540 C   0  0  0  0  0  0  0  0  0  0  0  0
  192.1720  175.3080  145.6090 O   0  0  0  0  0  1  0  0  0  0  0  0
  192.0340  175.0260  144.2500 C   0  0  0  0  0  2  0  0  0  0  0  0
  188.8150  177.0930  145.7450 O   0  0  0  0  0  0  0  0  0  0  0  0
  187.6260  177.8390  145.6000 C   0  0  1  0  0  3  0  0  0  0  0  0
  186.5520  177.0820  144.7990 C   0  0  0  0  0  2  0  0  0  0  0  0
  187.1260  178.2740  146.8470 O   0  0  0  0  0  0  0  0  0  0  0  0
  185.7970  179.9310  147.8100 N   0  0  0  0  0  1  0  0  0  0  0  0
  185.3140  177.9610  144.6110 C   0  0  1  0  0  3  0  0  0  0  0  0
  186.1750  179.2720  146.5740 C   0  0  2  0  0  3  0  0  0  0  0  0
  184.9350  178.6530  145.9260 C   0  0  0  0  0  2  0  0  0  0  0  0
  185.5540  178.9750  143.4960 C   0  0  0  0  0  2  0  0  0  0  0  0
  185.0740  179.5030  141.2130 O   0  0  0  0  0  1  0  0  0  0  0  0
  184.9150  178.5230  142.1920 C   0  0  0  0  0  2  0  0  0  0  0  0
  1 18  1  1  0  0  0
  2 11  1  0  0  0  0
  2  6  1  0  0  0  0
  3  6  1  6  0  0  0
  3  8  1  0  0  0  0
  3  1  1  0  0  0  0
  4  2  2  0  0  0  0
  5 15  1  6  0  0  0
  5  4  1  0  0  0  0
  5 10  1  0  0  0  0
  7 17  1  1  0  0  0
  7  8  1  0  0  0  0
  8  1  1  0  0  0  0
  9  6  2  0  0  0  0
 10  9  1  0  0  0  0
 11  7  1  0  0  0  0
 12 15  1  0  0  0  0
 13 15  2  0  0  0  0
 14 12  1  0  0  0  0
 17 16  1  0  0  0  0
 19 18  1  0  0  0  0
 19 21  1  0  0  0  0
 20 19  1  0  0  0  0
 23 20  1  0  0  0  0
 23 25  1  0  0  0  0
 24 21  1  0  0  0  0
 24 22  1  0  0  0  0
 25 24  1  0  0  0  0
 26 23  1  0  0  0  0
 27 28  1  0  0  0  0
 28 26  1  0  0  0  0
M  END
>  <MODEL>
2

>  <REMARK>
 VINA RESULT:      -8.0      1.958      2.144
  Name = 
  6 active torsions:
  status: ('A' for Active; 'I' for Inactive)
    1  A    between atoms: C_1  and  O_27
    2  A    between atoms: C_2  and  O_27
    3  A    between atoms: C_9  and  C_28
    4  A    between atoms: C_12  and  C_25
    5  A    between atoms: C_15  and  C_19
    6  A    between atoms: C_15  and  C_26
                            x       y       z     vdW  Elec       q    Type
                         _______ _______ _______ _____ _____    ______ ____

>  <TORSDO>
F 6

$$$$
=
 OpenBabel11062416463D

 28 31  0  0  1  0  0  0  0  0999 V2000
  189.1610  176.9860  141.8780 C   0  0  1  0  0  3  0  0  0  0  0  0
  187.5050  178.0060  139.6190 C   0  0  0  0  0  0  0  0  0  0  0  0
  188.8080  178.4100  141.7930 C   0  0  2  0  0  3  0  0  0  0  0  0
  186.4510  178.1690  138.8780 N   0  0  0  0  0  0  0  0  0  0  0  0
  185.3440  179.0210  139.3180 C   0  0  2  0  0  3  0  0  0  0  0  0
  187.5580  178.5500  140.9720 C   0  0  0  0  0  0  0  0  0  0  0  0
  189.9050  177.6340  139.6350 C   0  0  2  0  0  3  0  0  0  0  0  0
  190.0180  177.8890  141.0920 N   0  0  2  0  0  0  0  0  0  0  0  0
  186.4770  179.0250  141.5160 N   0  0  0  0  0  0  0  0  0  0  0  0
  185.1760  178.9690  140.8430 C   0  0  0  0  0  2  0  0  0  0  0  0
  188.6010  177.3030  139.1590 O   0  0  0  0  0  0  0  0  0  0  0  0
  184.0160  177.3850  137.9380 N   0  0  0  0  0  2  0  0  0  0  0  0
  183.0810  179.4020  138.6530 O   0  0  0  0  0  0  0  0  0  0  0  0
  182.8170  176.9500  137.2440 C   0  0  0  0  0  1  0  0  0  0  0  0
  184.0800  178.6310  138.6300 C   0  0  0  0  0  0  0  0  0  0  0  0
  190.2920  175.5480  138.5160 O   0  0  0  0  0  1  0  0  0  0  0  0
  190.9250  176.6010  139.1770 C   0  0  0  0  0  2  0  0  0  0  0  0
  189.7690  176.7270  143.1160 O   0  0  0  0  0  0  0  0  0  0  0  0
  188.9110  177.1720  144.1440 C   0  0  1  0  0  3  0  0  0  0  0  0
  187.5190  176.5170  144.0710 C   0  0  0  0  0  2  0  0  0  0  0  0
  189.4910  177.0040  145.4190 O   0  0  0  0  0  0  0  0  0  0  0  0
  189.4110  177.8470  147.5930 N   0  0  0  0  0  1  0  0  0  0  0  0
  186.6090  177.0870  145.1610 C   0  0  1  0  0  3  0  0  0  0  0  0
  188.7320  177.7790  146.3130 C   0  0  2  0  0  3  0  0  0  0  0  0
  187.3470  177.1560  146.5030 C   0  0  0  0  0  2  0  0  0  0  0  0
  186.0810  178.4560  144.7430 C   0  0  0  0  0  2  0  0  0  0  0  0
  183.9970  179.1040  145.7220 O   0  0  0  0  0  1  0  0  0  0  0  0
  185.3800  179.1530  145.8980 C   0  0  0  0  0  2  0  0  0  0  0  0
  1 18  1  1  0  0  0
  2  6  1  0  0  0  0
  3  6  1  6  0  0  0
  3  1  1  0  0  0  0
  4  5  1  0  0  0  0
  4  2  2  0  0  0  0
  5 15  1  6  0  0  0
  5 10  1  0  0  0  0
  6  9  2  0  0  0  0
  7 17  1  1  0  0  0
  7  8  1  0  0  0  0
  8  3  1  0  0  0  0
  8  1  1  0  0  0  0
 10  9  1  0  0  0  0
 11  2  1  0  0  0  0
 11  7  1  0  0  0  0
 12 15  1  0  0  0  0
 14 12  1  0  0  0  0
 15 13  2  0  0  0  0
 16 17  1  0  0  0  0
 18 19  1  0  0  0  0
 19 21  1  0  0  0  0
 20 19  1  0  0  0  0
 20 23  1  0  0  0  0
 21 24  1  0  0  0  0
 23 25  1  0  0  0  0
 24 25  1  0  0  0  0
 24 22  1  0  0  0  0
 26 23  1  0  0  0  0
 26 28  1  0  0  0  0
 27 28  1  0  0  0  0
M  END
>  <MODEL>
3

>  <REMARK>
 VINA RESULT:      -7.7      2.515      5.435
  Name = 
  6 active torsions:
  status: ('A' for Active; 'I' for Inactive)
    1  A    between atoms: C_1  and  O_27
    2  A    between atoms: C_2  and  O_27
    3  A    between atoms: C_9  and  C_28
    4  A    between atoms: C_12  and  C_25
    5  A    between atoms: C_15  and  C_19
    6  A    between atoms: C_15  and  C_26
                            x       y       z     vdW  Elec       q    Type
                         _______ _______ _______ _____ _____    ______ ____

>  <TORSDO>
F 6

$$$$
=
 OpenBabel11062416463D

 28 31  0  0  1  0  0  0  0  0999 V2000
  189.0780  177.0560  139.9420 C   0  0  1  0  0  3  0  0  0  0  0  0
  186.6560  178.2780  138.7050 C   0  0  0  0  0  0  0  0  0  0  0  0
  188.6940  178.4390  140.2570 C   0  0  2  0  0  3  0  0  0  0  0  0
  185.3950  178.4650  138.4630 N   0  0  0  0  0  0  0  0  0  0  0  0
  184.5310  179.1370  139.4360 C   0  0  2  0  0  3  0  0  0  0  0  0
  187.2220  178.6000  140.0110 C   0  0  0  0  0  0  0  0  0  0  0  0
  188.8800  178.1180  137.7420 C   0  0  2  0  0  3  0  0  0  0  0  0
  189.5460  178.1440  139.0680 N   0  0  2  0  0  0  0  0  0  0  0  0
  186.4280  178.8860  141.0020 N   0  0  0  0  0  0  0  0  0  0  0  0
  184.9690  178.8270  140.8740 C   0  0  0  0  0  2  0  0  0  0  0  0
  187.5000  177.7550  137.7450 O   0  0  0  0  0  0  0  0  0  0  0  0
  182.2940  178.4140  140.3450 N   0  0  0  0  0  2  0  0  0  0  0  0
  182.6260  178.7250  138.0530 O   0  0  0  0  0  0  0  0  0  0  0  0
  180.9020  178.0290  140.2010 C   0  0  0  0  0  1  0  0  0  0  0  0
  183.1050  178.7550  139.2200 C   0  0  0  0  0  0  0  0  0  0  0  0
  189.4340  177.6980  135.4460 O   0  0  0  0  0  1  0  0  0  0  0  0
  189.6600  177.2640  136.7530 C   0  0  0  0  0  2  0  0  0  0  0  0
  190.1240  176.6550  140.7870 O   0  0  0  0  0  0  0  0  0  0  0  0
  189.8860  177.1740  142.0780 C   0  0  1  0  0  3  0  0  0  0  0  0
  189.2320  176.1420  143.0140 C   0  0  0  0  0  2  0  0  0  0  0  0
  191.0590  177.7150  142.6490 O   0  0  0  0  0  0  0  0  0  0  0  0
  191.7770  179.2730  144.2290 N   0  0  0  0  0  1  0  0  0  0  0  0
  188.9320  176.7760  144.3740 C   0  0  1  0  0  3  0  0  0  0  0  0
  190.6510  178.4970  143.7430 C   0  0  2  0  0  3  0  0  0  0  0  0
  190.1300  177.5970  144.8660 C   0  0  0  0  0  2  0  0  0  0  0  0
  187.6680  177.6280  144.2900 C   0  0  0  0  0  2  0  0  0  0  0  0
  185.9720  178.7250  145.5710 O   0  0  0  0  0  1  0  0  0  0  0  0
  187.1530  177.9890  145.6730 C   0  0  0  0  0  2  0  0  0  0  0  0
  1  3  1  0  0  0  0
  1 18  1  1  0  0  0
  2  6  1  0  0  0  0
  3  6  1  6  0  0  0
  4  2  2  0  0  0  0
  4  5  1  0  0  0  0
  5 15  1  1  0  0  0
  5 10  1  0  0  0  0
  6  9  2  0  0  0  0
  7 17  1  6  0  0  0
  7 11  1  0  0  0  0
  7  8  1  0  0  0  0
  8  1  1  0  0  0  0
  8  3  1  0  0  0  0
 10  9  1  0  0  0  0
 11  2  1  0  0  0  0
 13 15  2  0  0  0  0
 14 12  1  0  0  0  0
 15 12  1  0  0  0  0
 16 17  1  0  0  0  0
 18 19  1  0  0  0  0
 19 21  1  0  0  0  0
 19 20  1  0  0  0  0
 20 23  1  0  0  0  0
 21 24  1  0  0  0  0
 23 25  1  0  0  0  0
 24 22  1  0  0  0  0
 24 25  1  0  0  0  0
 26 23  1  0  0  0  0
 26 28  1  0  0  0  0
 27 28  1  0  0  0  0
M  END
>  <MODEL>
4

>  <REMARK>
 VINA RESULT:      -7.5      2.798      6.867
  Name = 
  6 active torsions:
  status: ('A' for Active; 'I' for Inactive)
    1  A    between atoms: C_1  and  O_27
    2  A    between atoms: C_2  and  O_27
    3  A    between atoms: C_9  and  C_28
    4  A    between atoms: C_12  and  C_25
    5  A    between atoms: C_15  and  C_19
    6  A    between atoms: C_15  and  C_26
                            x       y       z     vdW  Elec       q    Type
                         _______ _______ _______ _____ _____    ______ ____

>  <TORSDO>
F 6

$$$$
=
 OpenBabel11062416463D

 28 31  0  0  1  0  0  0  0  0999 V2000
  187.3650  178.3110  144.9330 C   0  0  1  0  0  3  0  0  0  0  0  0
  186.8550  178.2400  141.9970 C   0  0  0  0  0  0  0  0  0  0  0  0
  187.3080  177.0310  144.2150 C   0  0  2  0  0  3  0  0  0  0  0  0
  187.0850  178.4190  140.7320 N   0  0  0  0  0  0  0  0  0  0  0  0
  188.0260  177.5600  140.0070 C   0  0  2  0  0  3  0  0  0  0  0  0
  187.6290  177.2730  142.7680 C   0  0  0  0  0  0  0  0  0  0  0  0
  185.2060  178.3910  143.7740 C   0  0  2  0  0  3  0  0  0  0  0  0
  186.0600  177.6570  144.7410 N   0  0  2  0  0  0  0  0  0  0  0  0
  188.6890  176.7330  142.2410 N   0  0  0  0  0  0  0  0  0  0  0  0
  189.1810  177.1140  140.9140 C   0  0  0  0  0  2  0  0  0  0  0  0
  185.8820  178.9660  142.6560 O   0  0  0  0  0  0  0  0  0  0  0  0
  188.4520  177.6100  137.5250 N   0  0  0  0  0  2  0  0  0  0  0  0
  189.0560  179.4060  138.8920 O   0  0  0  0  0  0  0  0  0  0  0  0
  188.9390  178.2330  136.3070 C   0  0  0  0  0  1  0  0  0  0  0  0
  188.5400  178.2580  138.7940 C   0  0  0  0  0  0  0  0  0  0  0  0
  184.0240  179.0070  145.7690 O   0  0  0  0  0  1  0  0  0  0  0  0
  184.3490  179.4320  144.4800 C   0  0  0  0  0  2  0  0  0  0  0  0
  187.8050  178.0930  146.2470 O   0  0  0  0  0  0  0  0  0  0  0  0
  189.1960  177.8530  146.2240 C   0  0  1  0  0  3  0  0  0  0  0  0
  189.5510  176.4160  146.6480 C   0  0  0  0  0  2  0  0  0  0  0  0
  189.7600  178.1730  144.9700 O   0  0  0  0  0  0  0  0  0  0  0  0
  191.7760  178.7940  143.9730 N   0  0  0  0  0  1  0  0  0  0  0  0
  191.0700  176.2320  146.6730 C   0  0  1  0  0  3  0  0  0  0  0  0
  191.1520  178.2360  145.1580 C   0  0  2  0  0  3  0  0  0  0  0  0
  191.7100  176.8340  145.4160 C   0  0  0  0  0  2  0  0  0  0  0  0
  191.6530  176.8430  147.9440 C   0  0  0  0  0  2  0  0  0  0  0  0
  193.5660  176.7540  149.3760 O   0  0  0  0  0  1  0  0  0  0  0  0
  192.8010  176.0050  148.4830 C   0  0  0  0  0  2  0  0  0  0  0  0
  1 18  1  1  0  0  0
  2 11  1  0  0  0  0
  2  6  1  0  0  0  0
  3  6  1  6  0  0  0
  3  8  1  0  0  0  0
  3  1  1  0  0  0  0
  4  2  2  0  0  0  0
  5 15  1  6  0  0  0
  5  4  1  0  0  0  0
  5 10  1  0  0  0  0
  7 17  1  1  0  0  0
  7  8  1  0  0  0  0
  8  1  1  0  0  0  0
  9  6  2  0  0  0  0
 10  9  1  0  0  0  0
 11  7  1  0  0  0  0
 12 15  1  0  0  0  0
 14 12  1  0  0  0  0
 15 13  2  0  0  0  0
 17 16  1  0  0  0  0
 19 18  1  0  0  0  0
 19 20  1  0  0  0  0
 20 23  1  0  0  0  0
 21 24  1  0  0  0  0
 21 19  1  0  0  0  0
 22 24  1  0  0  0  0
 23 26  1  0  0  0  0
 24 25  1  0  0  0  0
 25 23  1  0  0  0  0
 26 28  1  0  0  0  0
 28 27  1  0  0  0  0
M  END
>  <MODEL>
5

>  <REMARK>
 VINA RESULT:      -7.2      2.235      5.929
  Name = 
  6 active torsions:
  status: ('A' for Active; 'I' for Inactive)
    1  A    between atoms: C_1  and  O_27
    2  A    between atoms: C_2  and  O_27
    3  A    between atoms: C_9  and  C_28
    4  A    between atoms: C_12  and  C_25
    5  A    between atoms: C_15  and  C_19
    6  A    between atoms: C_15  and  C_26
                            x       y       z     vdW  Elec       q    Type
                         _______ _______ _______ _____ _____    ______ ____

>  <TORSDO>
F 6

$$$$
=
 OpenBabel11062416463D

 28 31  0  0  1  0  0  0  0  0999 V2000
  184.9690  178.7450  140.4510 C   0  0  1  0  0  3  0  0  0  0  0  0
  182.8470  177.1720  139.0700 C   0  0  0  0  0  0  0  0  0  0  0  0
  183.7710  179.4100  139.9220 C   0  0  2  0  0  3  0  0  0  0  0  0
  181.8760  176.3200  138.9370 N   0  0  0  0  0  0  0  0  0  0  0  0
  180.5280  176.6290  139.4200 C   0  0  2  0  0  3  0  0  0  0  0  0
  182.6600  178.4030  139.8310 C   0  0  0  0  0  0  0  0  0  0  0  0
  184.9000  178.0380  138.1050 C   0  0  2  0  0  3  0  0  0  0  0  0
  184.9570  179.1840  139.0450 N   0  0  2  0  0  0  0  0  0  0  0  0
  181.5860  178.5580  140.5490 N   0  0  0  0  0  0  0  0  0  0  0  0
  180.5780  177.5020  140.6810 C   0  0  0  0  0  2  0  0  0  0  0  0
  184.0870  176.9370  138.5110 O   0  0  0  0  0  0  0  0  0  0  0  0
  179.6570  174.8750  141.0050 N   0  0  0  0  0  2  0  0  0  0  0  0
  179.2240  174.7560  138.7120 O   0  0  0  0  0  0  0  0  0  0  0  0
  178.9310  173.6560  141.3150 C   0  0  0  0  0  1  0  0  0  0  0  0
  179.7630  175.3740  139.6720 C   0  0  0  0  0  0  0  0  0  0  0  0
  187.2140  178.6130  137.8390 O   0  0  0  0  0  1  0  0  0  0  0  0
  186.2980  177.5660  137.7300 C   0  0  0  0  0  2  0  0  0  0  0  0
  185.7130  179.6570  141.2160 O   0  0  0  0  0  0  0  0  0  0  0  0
  186.4670  178.9370  142.1680 C   0  0  1  0  0  3  0  0  0  0  0  0
  185.5980  177.9770  143.0000 C   0  0  0  0  0  2  0  0  0  0  0  0
  187.5530  178.2610  141.5720 O   0  0  0  0  0  0  0  0  0  0  0  0
  189.6650  177.3980  142.0600 N   0  0  0  0  0  1  0  0  0  0  0  0
  186.4510  177.2770  144.0610 C   0  0  1  0  0  3  0  0  0  0  0  0
  188.4150  177.8830  142.6160 C   0  0  2  0  0  3  0  0  0  0  0  0
  187.7690  176.7790  143.4550 C   0  0  0  0  0  2  0  0  0  0  0  0
  186.6970  178.2140  145.2400 C   0  0  0  0  0  2  0  0  0  0  0  0
  185.6260  179.4490  146.9860 O   0  0  0  0  0  1  0  0  0  0  0  0
  185.4210  178.4540  146.0300 C   0  0  0  0  0  2  0  0  0  0  0  0
  1 18  1  1  0  0  0
  2  6  1  0  0  0  0
  3  6  1  6  0  0  0
  3  1  1  0  0  0  0
  4  2  2  0  0  0  0
  4  5  1  0  0  0  0
  5 15  1  1  0  0  0
  5 10  1  0  0  0  0
  6  9  2  0  0  0  0
  7 17  1  1  0  0  0
  7 11  1  0  0  0  0
  7  8  1  0  0  0  0
  8  3  1  0  0  0  0
  8  1  1  0  0  0  0
  9 10  1  0  0  0  0
 11  2  1  0  0  0  0
 12 14  1  0  0  0  0
 13 15  2  0  0  0  0
 15 12  1  0  0  0  0
 17 16  1  0  0  0  0
 18 19  1  0  0  0  0
 19 20  1  0  0  0  0
 20 23  1  0  0  0  0
 21 19  1  0  0  0  0
 21 24  1  0  0  0  0
 22 24  1  0  0  0  0
 23 26  1  0  0  0  0
 24 25  1  0  0  0  0
 25 23  1  0  0  0  0
 26 28  1  0  0  0  0
 28 27  1  0  0  0  0
M  END
>  <MODEL>
6

>  <REMARK>
 VINA RESULT:      -7.2      4.207      8.280
  Name = 
  6 active torsions:
  status: ('A' for Active; 'I' for Inactive)
    1  A    between atoms: C_1  and  O_27
    2  A    between atoms: C_2  and  O_27
    3  A    between atoms: C_9  and  C_28
    4  A    between atoms: C_12  and  C_25
    5  A    between atoms: C_15  and  C_19
    6  A    between atoms: C_15  and  C_26
                            x       y       z     vdW  Elec       q    Type
                         _______ _______ _______ _____ _____    ______ ____

>  <TORSDO>
F 6

$$$$
=
 OpenBabel11062416463D

 28 31  0  0  1  0  0  0  0  0999 V2000
  190.2830  177.0510  139.8300 C   0  0  1  0  0  3  0  0  0  0  0  0
  188.0980  176.6080  137.8510 C   0  0  0  0  0  0  0  0  0  0  0  0
  189.8030  178.1540  138.9870 C   0  0  2  0  0  3  0  0  0  0  0  0
  186.8990  176.3610  137.4200 N   0  0  0  0  0  0  0  0  0  0  0  0
  185.8470  177.3780  137.4910 C   0  0  2  0  0  3  0  0  0  0  0  0
  188.3980  177.8540  138.5500 C   0  0  0  0  0  0  0  0  0  0  0  0
  190.4670  176.1620  137.5530 C   0  0  2  0  0  3  0  0  0  0  0  0
  190.8720  177.2370  138.4930 N   0  0  2  0  0  0  0  0  0  0  0  0
  187.4240  178.6310  138.9230 N   0  0  0  0  0  0  0  0  0  0  0  0
  186.0180  178.2680  138.7290 C   0  0  0  0  0  2  0  0  0  0  0  0
  189.1230  175.6990  137.6780 O   0  0  0  0  0  0  0  0  0  0  0  0
  184.3990  175.3190  137.6090 N   0  0  0  0  0  2  0  0  0  0  0  0
  183.4620  177.4430  137.3440 O   0  0  0  0  0  0  0  0  0  0  0  0
  183.1180  174.6340  137.5990 C   0  0  0  0  0  1  0  0  0  0  0  0
  184.5000  176.7370  137.4780 C   0  0  0  0  0  0  0  0  0  0  0  0
  190.7600  173.7820  137.5910 O   0  0  0  0  0  1  0  0  0  0  0  0
  191.4450  174.9970  137.5970 C   0  0  0  0  0  2  0  0  0  0  0  0
  191.1650  177.5510  140.8000 O   0  0  0  0  0  0  0  0  0  0  0  0
  190.6720  177.2090  142.0780 C   0  0  1  0  0  3  0  0  0  0  0  0
  191.1320  178.1950  143.1670 C   0  0  0  0  0  2  0  0  0  0  0  0
  189.2680  177.0640  142.0750 O   0  0  0  0  0  0  0  0  0  0  0  0
  187.5340  176.0010  143.2170 N   0  0  0  0  0  1  0  0  0  0  0  0
  190.6300  177.7400  144.5390 C   0  0  1  0  0  3  0  0  0  0  0  0
  188.9290  176.3980  143.2650 C   0  0  2  0  0  3  0  0  0  0  0  0
  189.1570  177.3190  144.4660 C   0  0  0  0  0  2  0  0  0  0  0  0
  191.5070  176.6090  145.0710 C   0  0  0  0  0  2  0  0  0  0  0  0
  192.3630  175.6070  147.0660 O   0  0  0  0  0  1  0  0  0  0  0  0
  191.4030  176.4960  146.5830 C   0  0  0  0  0  2  0  0  0  0  0  0
  1 18  1  1  0  0  0
  2  6  1  0  0  0  0
  3  6  1  6  0  0  0
  3  1  1  0  0  0  0
  4  5  1  0  0  0  0
  4  2  2  0  0  0  0
  5 15  1  1  0  0  0
  5 10  1  0  0  0  0
  6  9  2  0  0  0  0
  7 17  1  1  0  0  0
  7 11  1  0  0  0  0
  7  8  1  0  0  0  0
  8  3  1  0  0  0  0
  8  1  1  0  0  0  0
 10  9  1  0  0  0  0
 11  2  1  0  0  0  0
 13 15  2  0  0  0  0
 14 12  1  0  0  0  0
 15 12  1  0  0  0  0
 16 17  1  0  0  0  0
 18 19  1  0  0  0  0
 19 20  1  0  0  0  0
 20 23  1  0  0  0  0
 21 19  1  0  0  0  0
 21 24  1  0  0  0  0
 22 24  1  0  0  0  0
 23 26  1  0  0  0  0
 24 25  1  0  0  0  0
 25 23  1  0  0  0  0
 26 28  1  0  0  0  0
 28 27  1  0  0  0  0
M  END
>  <MODEL>
7

>  <REMARK>
 VINA RESULT:      -7.1      2.923      6.645
  Name = 
  6 active torsions:
  status: ('A' for Active; 'I' for Inactive)
    1  A    between atoms: C_1  and  O_27
    2  A    between atoms: C_2  and  O_27
    3  A    between atoms: C_9  and  C_28
    4  A    between atoms: C_12  and  C_25
    5  A    between atoms: C_15  and  C_19
    6  A    between atoms: C_15  and  C_26
                            x       y       z     vdW  Elec       q    Type
                         _______ _______ _______ _____ _____    ______ ____

>  <TORSDO>
F 6

$$$$
=
 OpenBabel11062416463D

 28 31  0  0  1  0  0  0  0  0999 V2000
  190.4770  176.3960  141.6600 C   0  0  1  0  0  3  0  0  0  0  0  0
  189.9970  177.5440  138.9520 C   0  0  0  0  0  0  0  0  0  0  0  0
  189.9160  177.7450  141.5090 C   0  0  2  0  0  3  0  0  0  0  0  0
  189.4480  177.6790  137.7830 N   0  0  0  0  0  0  0  0  0  0  0  0
  188.1150  178.2700  137.6390 C   0  0  2  0  0  3  0  0  0  0  0  0
  189.2480  177.8430  140.1680 C   0  0  0  0  0  0  0  0  0  0  0  0
  192.0830  177.5300  140.1970 C   0  0  2  0  0  3  0  0  0  0  0  0
  191.3940  177.5370  141.5110 N   0  0  2  0  0  0  0  0  0  0  0  0
  187.9660  178.0520  140.0970 N   0  0  0  0  0  0  0  0  0  0  0  0
  187.2240  177.9260  138.8400 C   0  0  0  0  0  2  0  0  0  0  0  0
  191.2980  177.1000  139.0840 O   0  0  0  0  0  0  0  0  0  0  0  0
  186.1430  177.3360  136.3790 N   0  0  0  0  0  2  0  0  0  0  0  0
  188.1330  177.8780  135.2820 O   0  0  0  0  0  0  0  0  0  0  0  0
  185.4730  176.8850  135.1720 C   0  0  0  0  0  1  0  0  0  0  0  0
  187.4830  177.8270  136.3630 C   0  0  0  0  0  0  0  0  0  0  0  0
  193.9300  176.5890  138.9910 O   0  0  0  0  0  1  0  0  0  0  0  0
  193.3900  176.7540  140.2670 C   0  0  0  0  0  2  0  0  0  0  0  0
  190.4250  176.0140  143.0100 O   0  0  0  0  0  0  0  0  0  0  0  0
  189.3880  176.7320  143.6430 C   0  0  1  0  0  3  0  0  0  0  0  0
  187.9960  176.1560  143.3250 C   0  0  0  0  0  2  0  0  0  0  0  0
  189.5960  176.8340  145.0350 O   0  0  0  0  0  0  0  0  0  0  0  0
  189.0560  178.1610  146.8760 N   0  0  0  0  0  1  0  0  0  0  0  0
  186.9070  177.0120  143.9760 C   0  0  1  0  0  3  0  0  0  0  0  0
  188.7270  177.8360  145.5010 C   0  0  2  0  0  3  0  0  0  0  0  0
  187.2780  177.3500  145.4250 C   0  0  0  0  0  2  0  0  0  0  0  0
  186.6680  178.2740  143.1520 C   0  0  0  0  0  2  0  0  0  0  0  0
  185.1230  179.3790  141.6990 O   0  0  0  0  0  1  0  0  0  0  0  0
  185.2760  178.2780  142.5410 C   0  0  0  0  0  2  0  0  0  0  0  0
  1 18  1  1  0  0  0
  2 11  1  0  0  0  0
  2  6  1  0  0  0  0
  3  6  1  6  0  0  0
  3  8  1  0  0  0  0
  3  1  1  0  0  0  0
  4  2  2  0  0  0  0
  5 15  1  6  0  0  0
  5  4  1  0  0  0  0
  5 10  1  0  0  0  0
  7 17  1  1  0  0  0
  7  8  1  0  0  0  0
  8  1  1  0  0  0  0
  9  6  2  0  0  0  0
 10  9  1  0  0  0  0
 11  7  1  0  0  0  0
 13 15  2  0  0  0  0
 14 12  1  0  0  0  0
 15 12  1  0  0  0  0
 16 17  1  0  0  0  0
 18 19  1  0  0  0  0
 19 21  1  0  0  0  0
 20 19  1  0  0  0  0
 20 23  1  0  0  0  0
 21 24  1  0  0  0  0
 23 25  1  0  0  0  0
 24 22  1  0  0  0  0
 25 24  1  0  0  0  0
 26 23  1  0  0  0  0
 27 28  1  0  0  0  0
 28 26  1  0  0  0  0
M  END
>  <MODEL>
8

>  <REMARK>
 VINA RESULT:      -7.0      2.515      4.286
  Name = 
  6 active torsions:
  status: ('A' for Active; 'I' for Inactive)
    1  A    between atoms: C_1  and  O_27
    2  A    between atoms: C_2  and  O_27
    3  A    between atoms: C_9  and  C_28
    4  A    between atoms: C_12  and  C_25
    5  A    between atoms: C_15  and  C_19
    6  A    between atoms: C_15  and  C_26
                            x       y       z     vdW  Elec       q    Type
                         _______ _______ _______ _____ _____    ______ ____

>  <TORSDO>
F 6

$$$$
=
 OpenBabel11062416463D

 28 31  0  0  1  0  0  0  0  0999 V2000
  187.3570  178.2480  144.8860 C   0  0  1  0  0  3  0  0  0  0  0  0
  186.6040  178.3620  142.0050 C   0  0  0  0  0  0  0  0  0  0  0  0
  187.2340  177.0150  144.0970 C   0  0  2  0  0  3  0  0  0  0  0  0
  186.7290  178.6190  140.7380 N   0  0  0  0  0  0  0  0  0  0  0  0
  187.6010  177.8080  139.8860 C   0  0  2  0  0  3  0  0  0  0  0  0
  187.4350  177.3480  142.6460 C   0  0  0  0  0  0  0  0  0  0  0  0
  185.1100  178.4000  143.9200 C   0  0  2  0  0  3  0  0  0  0  0  0
  186.0380  177.6070  144.7630 N   0  0  2  0  0  0  0  0  0  0  0  0
  188.4440  176.8420  142.0000 N   0  0  0  0  0  0  0  0  0  0  0  0
  188.8250  177.3060  140.6630 C   0  0  0  0  0  2  0  0  0  0  0  0
  185.6940  179.0440  142.7870 O   0  0  0  0  0  0  0  0  0  0  0  0
  187.2160  178.5180  137.4990 N   0  0  0  0  0  2  0  0  0  0  0  0
  189.0700  179.2750  138.7020 O   0  0  0  0  0  0  0  0  0  0  0  0
  187.5680  179.2420  136.2900 C   0  0  0  0  0  1  0  0  0  0  0  0
  188.0160  178.5800  138.6790 C   0  0  0  0  0  0  0  0  0  0  0  0
  184.1490  178.9140  146.0570 O   0  0  0  0  0  1  0  0  0  0  0  0
  184.3200  179.3950  144.7580 C   0  0  0  0  0  2  0  0  0  0  0  0
  187.9050  177.9480  146.1430 O   0  0  0  0  0  0  0  0  0  0  0  0
  189.1590  177.3300  145.9530 C   0  0  1  0  0  3  0  0  0  0  0  0
  190.1280  178.2070  145.1380 C   0  0  0  0  0  2  0  0  0  0  0  0
  189.7360  176.9290  147.1780 O   0  0  0  0  0  0  0  0  0  0  0  0
  191.2540  175.4020  148.0750 N   0  0  0  0  0  1  0  0  0  0  0  0
  191.4440  177.4630  144.9020 C   0  0  1  0  0  3  0  0  0  0  0  0
  190.7760  176.0380  146.8610 C   0  0  2  0  0  3  0  0  0  0  0  0
  191.9280  176.7920  146.1930 C   0  0  0  0  0  2  0  0  0  0  0  0
  191.2780  176.4470  143.7740 C   0  0  0  0  0  2  0  0  0  0  0  0
  191.6820  178.2210  142.2220 O   0  0  0  0  0  1  0  0  0  0  0  0
  192.0040  176.8960  142.5160 C   0  0  0  0  0  2  0  0  0  0  0  0
  1 18  1  1  0  0  0
  2  6  1  0  0  0  0
  2 11  1  0  0  0  0
  3  6  1  6  0  0  0
  3  8  1  0  0  0  0
  3  1  1  0  0  0  0
  4  2  2  0  0  0  0
  5 15  1  6  0  0  0
  5 10  1  0  0  0  0
  5  4  1  0  0  0  0
  7 17  1  1  0  0  0
  7  8  1  0  0  0  0
  8  1  1  0  0  0  0
  9  6  2  0  0  0  0
 10  9  1  0  0  0  0
 11  7  1  0  0  0  0
 12 15  1  0  0  0  0
 14 12  1  0  0  0  0
 15 13  2  0  0  0  0
 17 16  1  0  0  0  0
 19 18  1  0  0  0  0
 19 21  1  0  0  0  0
 20 19  1  0  0  0  0
 23 20  1  0  0  0  0
 23 25  1  0  0  0  0
 24 21  1  0  0  0  0
 24 22  1  0  0  0  0
 25 24  1  0  0  0  0
 26 23  1  0  0  0  0
 27 28  1  0  0  0  0
 28 26  1  0  0  0  0
M  END
>  <MODEL>
9

>  <REMARK>
 VINA RESULT:      -6.9      2.268      5.394
  Name = 
  6 active torsions:
  status: ('A' for Active; 'I' for Inactive)
    1  A    between atoms: C_1  and  O_27
    2  A    between atoms: C_2  and  O_27
    3  A    between atoms: C_9  and  C_28
    4  A    between atoms: C_12  and  C_25
    5  A    between atoms: C_15  and  C_19
    6  A    between atoms: C_15  and  C_26
                            x       y       z     vdW  Elec       q    Type
                         _______ _______ _______ _____ _____    ______ ____

>  <TORSDO>
F 6

$$$$
