=
 OpenBabel11062412283D

 37 43  0  0  1  0  0  0  0  0999 V2000
  186.7180  177.4560  143.0570 C   0  0  0  0  0  3  0  0  0  0  0  0
  186.9530  177.9390  145.8000 C   0  0  0  0  0  3  0  0  0  0  0  0
  187.9940  177.2990  145.1160 C   0  0  0  0  0  0  0  0  0  0  0  0
  185.7920  178.3250  145.1230 C   0  0  0  0  0  0  0  0  0  0  0  0
  183.4910  179.0710  143.8510 N   0  0  0  0  0  0  0  0  0  0  0  0
  184.7830  178.9140  145.8100 N   0  0  0  0  0  0  0  0  0  0  0  0
  183.6380  179.2820  145.1830 C   0  0  0  0  0  3  0  0  0  0  0  0
  185.6660  178.0920  143.7340 C   0  0  0  0  0  0  0  0  0  0  0  0
  184.4680  178.4950  143.0950 C   0  0  0  0  0  0  0  0  0  0  0  0
  187.8740  177.0710  143.7390 C   0  0  0  0  0  3  0  0  0  0  0  0
  189.1590  176.7070  147.2110 C   0  0  0  0  0  3  0  0  0  0  0  0
  189.2280  176.9300  145.8290 C   0  0  0  0  0  0  0  0  0  0  0  0
  192.9200  176.0050  148.2930 Cl  0  0  0  0  0  0  0  0  0  0  0  0
  190.4860  176.8340  145.1910 C   0  0  0  0  0  0  0  0  0  0  0  0
  190.2810  176.4280  147.9250 N   0  0  0  0  0  0  0  0  0  0  0  0
  191.6220  176.5540  145.9580 C   0  0  0  0  0  3  0  0  0  0  0  0
  191.5000  176.3590  147.3330 C   0  0  0  0  0  0  0  0  0  0  0  0
  190.6340  176.9450  143.7710 N   0  0  0  0  0  0  0  0  0  0  0  0
  191.0100  177.1150  141.6190 N   0  0  0  0  0  2  0  0  0  0  0  0
  190.4010  179.0450  142.7560 O   0  0  0  0  0  1  0  0  0  0  0  0
  191.1970  177.8980  142.8110 C   0  0  2  0  0  0  0  0  0  0  0  0
  190.4770  176.1530  142.5460 C   0  0  1  0  0  3  0  0  0  0  0  0
  184.7960  178.8440  139.3370 C   0  0  0  0  0  3  0  0  0  0  0  0
  183.0160  177.2760  139.7880 C   0  0  0  0  0  3  0  0  0  0  0  0
  183.2190  177.4420  141.1600 C   0  0  0  0  0  3  0  0  0  0  0  0
  184.9980  179.0090  140.7090 C   0  0  0  0  0  3  0  0  0  0  0  0
  183.8010  177.9770  138.8670 C   0  0  0  0  0  0  0  0  0  0  0  0
  184.2050  178.3190  141.6400 C   0  0  0  0  0  0  0  0  0  0  0  0
  181.3610  178.5900  137.3420 O   0  0  0  0  0  0  0  0  0  0  0  0
  182.2620  177.8130  135.3520 N   0  0  0  0  0  2  0  0  0  0  0  0
  183.5600  177.7820  137.4670 N   0  0  0  0  0  2  0  0  0  0  0  0
  182.3520  178.0840  136.7520 C   0  0  0  0  0  0  0  0  0  0  0  0
  183.3490  177.2060  134.5940 C   0  0  0  0  0  2  0  0  0  0  0  0
  183.2260  175.6900  134.5980 C   0  0  0  0  0  2  0  0  0  0  0  0
  183.9940  174.0570  136.2560 C   0  0  0  0  0  2  0  0  0  0  0  0
  184.4490  173.6840  134.9780 O   0  0  0  0  0  0  0  0  0  0  0  0
  184.4350  175.0600  135.2650 C   0  0  1  0  0  3  0  0  0  0  0  0
  1  8  2  0  0  0  0
  1 10  1  0  0  0  0
  3  2  1  0  0  0  0
  3 12  1  0  0  0  0
  4  2  2  0  0  0  0
  4  6  1  0  0  0  0
  5  7  1  0  0  0  0
  7  6  2  0  0  0  0
  8  4  1  0  0  0  0
  9  8  1  0  0  0  0
  9  5  2  0  0  0  0
 10  3  2  0  0  0  0
 11 15  1  0  0  0  0
 12 11  2  0  0  0  0
 14 12  1  0  0  0  0
 14 16  2  0  0  0  0
 16 17  1  0  0  0  0
 17 15  2  0  0  0  0
 17 13  1  0  0  0  0
 18 14  1  0  0  0  0
 19 21  1  0  0  0  0
 21 20  1  6  0  0  0
 21 18  1  0  0  0  0
 22 19  1  6  0  0  0
 22 21  1  0  0  0  0
 22 18  1  0  0  0  0
 23 26  1  0  0  0  0
 24 25  2  0  0  0  0
 25 28  1  0  0  0  0
 26 28  2  0  0  0  0
 27 23  2  0  0  0  0
 27 24  1  0  0  0  0
 28  9  1  0  0  0  0
 30 32  1  0  0  0  0
 31 27  1  0  0  0  0
 32 29  2  0  0  0  0
 32 31  1  0  0  0  0
 33 34  1  0  0  0  0
 33 30  1  0  0  0  0
 36 37  1  0  0  0  0
 36 35  1  0  0  0  0
 37 34  1  6  0  0  0
 37 35  1  0  0  0  0
M  END
>  <MODEL>
1

>  <REMARK>
 VINA RESULT:      -8.8      0.000      0.000
  Name = 
  7 active torsions:
  status: ('A' for Active; 'I' for Inactive)
    1  A    between atoms: C_1  and  C_5
    2  A    between atoms: C_1  and  C_25
    3  A    between atoms: N_4  and  C_18
    4  A    between atoms: C_5  and  N_24
    5  A    between atoms: C_7  and  C_15
    6  A    between atoms: N_28  and  C_33
    7  A    between atoms: C_34  and  C_36
                            x       y       z     vdW  Elec       q    Type
                         _______ _______ _______ _____ _____    ______ ____

>  <TORSDO>
F 7

$$$$
=
 OpenBabel11062412283D

 37 43  0  0  1  0  0  0  0  0999 V2000
  186.7000  177.4880  143.0890 C   0  0  0  0  0  3  0  0  0  0  0  0
  186.9480  177.9990  145.8250 C   0  0  0  0  0  3  0  0  0  0  0  0
  187.9810  177.3430  145.1460 C   0  0  0  0  0  0  0  0  0  0  0  0
  185.7880  178.3860  145.1490 C   0  0  0  0  0  0  0  0  0  0  0  0
  183.4880  179.1370  143.8750 N   0  0  0  0  0  0  0  0  0  0  0  0
  184.7850  178.9910  145.8320 N   0  0  0  0  0  0  0  0  0  0  0  0
  183.6420  179.3610  145.2050 C   0  0  0  0  0  3  0  0  0  0  0  0
  185.6560  178.1400  143.7630 C   0  0  0  0  0  0  0  0  0  0  0  0
  184.4580  178.5450  143.1230 C   0  0  0  0  0  0  0  0  0  0  0  0
  187.8560  177.1010  143.7710 C   0  0  0  0  0  3  0  0  0  0  0  0
  189.1480  176.7610  147.2420 C   0  0  0  0  0  3  0  0  0  0  0  0
  189.2150  176.9720  145.8580 C   0  0  0  0  0  0  0  0  0  0  0  0
  192.9080  176.0440  148.3200 Cl  0  0  0  0  0  0  0  0  0  0  0  0
  190.4710  176.8620  145.2180 C   0  0  0  0  0  0  0  0  0  0  0  0
  190.2700  176.4810  147.9550 N   0  0  0  0  0  0  0  0  0  0  0  0
  191.6070  176.5820  145.9840 C   0  0  0  0  0  3  0  0  0  0  0  0
  191.4870  176.3990  147.3610 C   0  0  0  0  0  0  0  0  0  0  0  0
  190.6160  176.9610  143.7960 N   0  0  0  0  0  0  0  0  0  0  0  0
  190.9870  177.1150  141.6420 N   0  0  0  0  0  2  0  0  0  0  0  0
  190.3150  179.0390  142.7550 O   0  0  0  0  0  1  0  0  0  0  0  0
  191.1480  177.9190  142.8240 C   0  0  2  0  0  0  0  0  0  0  0  0
  190.4850  176.1480  142.5820 C   0  0  1  0  0  3  0  0  0  0  0  0
  182.8640  177.3110  139.9160 C   0  0  0  0  0  3  0  0  0  0  0  0
  184.6040  178.8780  139.3280 C   0  0  0  0  0  3  0  0  0  0  0  0
  184.8990  179.0560  140.6820 C   0  0  0  0  0  3  0  0  0  0  0  0
  183.1600  177.4890  141.2690 C   0  0  0  0  0  3  0  0  0  0  0  0
  183.5870  178.0030  138.9350 C   0  0  0  0  0  0  0  0  0  0  0  0
  184.1890  178.3560  141.6710 C   0  0  0  0  0  0  0  0  0  0  0  0
  184.9350  176.2310  137.0130 O   0  0  0  0  0  0  0  0  0  0  0  0
  183.6190  176.9470  135.2430 N   0  0  0  0  0  2  0  0  0  0  0  0
  183.3160  177.8460  137.5370 N   0  0  0  0  0  2  0  0  0  0  0  0
  183.9990  176.9770  136.6200 C   0  0  0  0  0  0  0  0  0  0  0  0
  182.5660  177.7930  134.6970 C   0  0  0  0  0  2  0  0  0  0  0  0
  181.2570  177.0240  134.5940 C   0  0  0  0  0  2  0  0  0  0  0  0
  179.2030  176.5680  135.8490 C   0  0  0  0  0  2  0  0  0  0  0  0
  180.2570  176.8240  136.7450 O   0  0  0  0  0  0  0  0  0  0  0  0
  180.2340  177.5860  135.5630 C   0  0  1  0  0  3  0  0  0  0  0  0
  1  8  2  0  0  0  0
  1 10  1  0  0  0  0
  3  2  1  0  0  0  0
  3 12  1  0  0  0  0
  4  2  2  0  0  0  0
  4  6  1  0  0  0  0
  5  7  1  0  0  0  0
  7  6  2  0  0  0  0
  8  4  1  0  0  0  0
  9  8  1  0  0  0  0
  9  5  2  0  0  0  0
 10  3  2  0  0  0  0
 11 15  1  0  0  0  0
 12 11  2  0  0  0  0
 14 12  1  0  0  0  0
 14 16  2  0  0  0  0
 16 17  1  0  0  0  0
 17 15  2  0  0  0  0
 17 13  1  0  0  0  0
 18 14  1  0  0  0  0
 19 21  1  0  0  0  0
 21 20  1  6  0  0  0
 21 18  1  0  0  0  0
 22 19  1  6  0  0  0
 22 21  1  0  0  0  0
 22 18  1  0  0  0  0
 23 26  1  0  0  0  0
 24 25  2  0  0  0  0
 25 28  1  0  0  0  0
 26 28  2  0  0  0  0
 27 24  1  0  0  0  0
 27 23  2  0  0  0  0
 28  9  1  0  0  0  0
 30 32  1  0  0  0  0
 31 27  1  0  0  0  0
 32 29  2  0  0  0  0
 32 31  1  0  0  0  0
 33 30  1  0  0  0  0
 34 33  1  0  0  0  0
 35 36  1  0  0  0  0
 37 34  1  6  0  0  0
 37 35  1  0  0  0  0
 37 36  1  0  0  0  0
M  END
>  <MODEL>
2

>  <REMARK>
 VINA RESULT:      -8.8      1.127      1.940
  Name = 
  7 active torsions:
  status: ('A' for Active; 'I' for Inactive)
    1  A    between atoms: C_1  and  C_5
    2  A    between atoms: C_1  and  C_25
    3  A    between atoms: N_4  and  C_18
    4  A    between atoms: C_5  and  N_24
    5  A    between atoms: C_7  and  C_15
    6  A    between atoms: N_28  and  C_33
    7  A    between atoms: C_34  and  C_36
                            x       y       z     vdW  Elec       q    Type
                         _______ _______ _______ _____ _____    ______ ____

>  <TORSDO>
F 7

$$$$
=
 OpenBabel11062412283D

 37 43  0  0  1  0  0  0  0  0999 V2000
  187.7800  177.8440  141.4860 C   0  0  0  0  0  3  0  0  0  0  0  0
  186.5170  177.9050  143.9770 C   0  0  0  0  0  3  0  0  0  0  0  0
  185.7930  178.2340  142.8240 C   0  0  0  0  0  0  0  0  0  0  0  0
  187.8690  177.5610  143.8930 C   0  0  0  0  0  0  0  0  0  0  0  0
  190.5220  176.9120  143.7810 N   0  0  0  0  0  0  0  0  0  0  0  0
  188.5590  177.2780  145.0240 N   0  0  0  0  0  0  0  0  0  0  0  0
  189.8760  176.9600  144.9730 C   0  0  0  0  0  3  0  0  0  0  0  0
  188.5160  177.5200  142.6360 C   0  0  0  0  0  0  0  0  0  0  0  0
  189.8890  177.1720  142.6020 C   0  0  0  0  0  0  0  0  0  0  0  0
  186.4300  178.1890  141.5770 C   0  0  0  0  0  3  0  0  0  0  0  0
  183.8150  178.8050  144.1870 C   0  0  0  0  0  3  0  0  0  0  0  0
  184.3600  178.5570  142.9190 C   0  0  0  0  0  0  0  0  0  0  0  0
  179.9350  179.3540  143.5070 Cl  0  0  0  0  0  0  0  0  0  0  0  0
  183.5020  178.5870  141.7960 C   0  0  0  0  0  0  0  0  0  0  0  0
  182.4860  179.0440  144.3340 N   0  0  0  0  0  0  0  0  0  0  0  0
  182.1370  178.8270  141.9850 C   0  0  0  0  0  3  0  0  0  0  0  0
  181.6420  179.0490  143.2700 C   0  0  0  0  0  0  0  0  0  0  0  0
  183.9890  178.4470  140.4570 N   0  0  0  0  0  0  0  0  0  0  0  0
  184.8740  178.2280  138.4640 N   0  0  0  0  0  2  0  0  0  0  0  0
  184.1810  180.3500  139.1020 O   0  0  0  0  0  1  0  0  0  0  0  0
  184.8410  179.1950  139.5280 C   0  0  2  0  0  0  0  0  0  0  0  0
  184.0570  177.4640  139.3700 C   0  0  1  0  0  3  0  0  0  0  0  0
  192.8290  177.3610  140.2220 C   0  0  0  0  0  3  0  0  0  0  0  0
  190.9390  176.4830  139.0030 C   0  0  0  0  0  3  0  0  0  0  0  0
  190.1530  176.5830  140.1540 C   0  0  0  0  0  3  0  0  0  0  0  0
  192.0420  177.4600  141.3710 C   0  0  0  0  0  3  0  0  0  0  0  0
  192.2810  176.8740  139.0280 C   0  0  0  0  0  0  0  0  0  0  0  0
  190.6910  177.0830  141.3510 C   0  0  0  0  0  0  0  0  0  0  0  0
  193.0770  174.4240  137.6070 O   0  0  0  0  0  0  0  0  0  0  0  0
  194.2270  175.5990  135.9720 N   0  0  0  0  0  2  0  0  0  0  0  0
  193.0540  176.7590  137.8260 N   0  0  0  0  0  2  0  0  0  0  0  0
  193.4350  175.5450  137.1600 C   0  0  0  0  0  0  0  0  0  0  0  0
  194.7060  176.8500  135.3980 C   0  0  0  0  0  2  0  0  0  0  0  0
  196.1670  176.7320  134.9950 C   0  0  0  0  0  2  0  0  0  0  0  0
  198.2170  175.4140  135.2500 C   0  0  0  0  0  2  0  0  0  0  0  0
  197.7460  175.8040  136.5170 O   0  0  0  0  0  0  0  0  0  0  0  0
  196.7740  175.4610  135.5600 C   0  0  1  0  0  3  0  0  0  0  0  0
  1 10  2  0  0  0  0
  1  8  1  0  0  0  0
  3 12  1  0  0  0  0
  3  2  2  0  0  0  0
  4  2  1  0  0  0  0
  4  6  1  0  0  0  0
  5  7  1  0  0  0  0
  7  6  2  0  0  0  0
  8  4  2  0  0  0  0
  9  8  1  0  0  0  0
  9  5  2  0  0  0  0
 10  3  1  0  0  0  0
 11 15  1  0  0  0  0
 12 11  2  0  0  0  0
 14 16  2  0  0  0  0
 14 12  1  0  0  0  0
 16 17  1  0  0  0  0
 17 13  1  0  0  0  0
 17 15  2  0  0  0  0
 18 14  1  0  0  0  0
 19 21  1  0  0  0  0
 21 20  1  6  0  0  0
 21 18  1  0  0  0  0
 22 19  1  6  0  0  0
 22 21  1  0  0  0  0
 22 18  1  0  0  0  0
 23 26  1  0  0  0  0
 24 27  1  0  0  0  0
 24 25  2  0  0  0  0
 25 28  1  0  0  0  0
 27 23  2  0  0  0  0
 28 26  2  0  0  0  0
 28  9  1  0  0  0  0
 30 32  1  0  0  0  0
 31 27  1  0  0  0  0
 32 29  2  0  0  0  0
 32 31  1  0  0  0  0
 33 30  1  0  0  0  0
 34 33  1  0  0  0  0
 35 37  1  0  0  0  0
 35 36  1  0  0  0  0
 37 34  1  6  0  0  0
 37 36  1  0  0  0  0
M  END
>  <MODEL>
3

>  <REMARK>
 VINA RESULT:      -8.0      5.013      8.738
  Name = 
  7 active torsions:
  status: ('A' for Active; 'I' for Inactive)
    1  A    between atoms: C_1  and  C_5
    2  A    between atoms: C_1  and  C_25
    3  A    between atoms: N_4  and  C_18
    4  A    between atoms: C_5  and  N_24
    5  A    between atoms: C_7  and  C_15
    6  A    between atoms: N_28  and  C_33
    7  A    between atoms: C_34  and  C_36
                            x       y       z     vdW  Elec       q    Type
                         _______ _______ _______ _____ _____    ______ ____

>  <TORSDO>
F 7

$$$$
=
 OpenBabel11062412283D

 37 43  0  0  1  0  0  0  0  0999 V2000
  187.6420  177.7310  141.4110 C   0  0  0  0  0  3  0  0  0  0  0  0
  190.2440  176.9430  142.0540 C   0  0  0  0  0  3  0  0  0  0  0  0
  189.8820  177.1120  140.7120 C   0  0  0  0  0  0  0  0  0  0  0  0
  189.3100  177.1510  143.0720 C   0  0  0  0  0  0  0  0  0  0  0  0
  187.5100  177.5160  145.0970 N   0  0  0  0  0  0  0  0  0  0  0  0
  189.6720  176.9500  144.3630 N   0  0  0  0  0  0  0  0  0  0  0  0
  188.7810  177.1260  145.3690 C   0  0  0  0  0  3  0  0  0  0  0  0
  187.9930  177.5570  142.7580 C   0  0  0  0  0  0  0  0  0  0  0  0
  187.0800  177.7490  143.8250 C   0  0  0  0  0  0  0  0  0  0  0  0
  188.5790  177.5200  140.3970 C   0  0  0  0  0  3  0  0  0  0  0  0
  192.2390  176.9210  140.0020 C   0  0  0  0  0  3  0  0  0  0  0  0
  190.8830  176.9280  139.6480 C   0  0  0  0  0  0  0  0  0  0  0  0
  194.1690  176.6040  136.5390 Cl  0  0  0  0  0  0  0  0  0  0  0  0
  190.5410  176.8020  138.2820 C   0  0  0  0  0  0  0  0  0  0  0  0
  193.2030  176.8190  139.0510 N   0  0  0  0  0  0  0  0  0  0  0  0
  191.5600  176.7090  137.3280 C   0  0  0  0  0  3  0  0  0  0  0  0
  192.8940  176.7250  137.7320 C   0  0  0  0  0  0  0  0  0  0  0  0
  189.1830  176.6970  137.8400 N   0  0  0  0  0  0  0  0  0  0  0  0
  187.1560  176.5270  137.0230 N   0  0  0  0  0  2  0  0  0  0  0  0
  187.8910  178.6430  137.6360 O   0  0  0  0  0  1  0  0  0  0  0  0
  188.2550  177.4550  136.9960 C   0  0  2  0  0  0  0  0  0  0  0  0
  188.0590  175.7530  137.8330 C   0  0  1  0  0  3  0  0  0  0  0  0
  183.6300  179.1080  144.5960 C   0  0  0  0  0  3  0  0  0  0  0  0
  183.7250  178.6140  142.2350 C   0  0  0  0  0  3  0  0  0  0  0  0
  185.0420  178.1730  142.3820 C   0  0  0  0  0  3  0  0  0  0  0  0
  184.9470  178.6660  144.7420 C   0  0  0  0  0  3  0  0  0  0  0  0
  183.0080  179.0820  143.3410 C   0  0  0  0  0  0  0  0  0  0  0  0
  185.6680  178.1830  143.6400 C   0  0  0  0  0  0  0  0  0  0  0  0
  180.5280  177.7720  144.2290 O   0  0  0  0  0  0  0  0  0  0  0  0
  179.1830  179.4180  143.3030 N   0  0  0  0  0  2  0  0  0  0  0  0
  181.6580  179.5230  143.1500 N   0  0  0  0  0  2  0  0  0  0  0  0
  180.4650  178.8550  143.5880 C   0  0  0  0  0  0  0  0  0  0  0  0
  179.0140  180.6530  142.5470 C   0  0  0  0  0  2  0  0  0  0  0  0
  179.0060  180.3710  141.0520 C   0  0  0  0  0  2  0  0  0  0  0  0
  180.3670  181.3320  139.2560 C   0  0  0  0  0  2  0  0  0  0  0  0
  179.0050  181.4320  138.9210 O   0  0  0  0  0  0  0  0  0  0  0  0
  179.3380  181.6300  140.2730 C   0  0  1  0  0  3  0  0  0  0  0  0
  1  8  1  0  0  0  0
  2  4  1  0  0  0  0
  3  2  2  0  0  0  0
  4  6  1  0  0  0  0
  5  7  1  0  0  0  0
  6  7  2  0  0  0  0
  8  4  2  0  0  0  0
  8  9  1  0  0  0  0
  9  5  2  0  0  0  0
 10  3  1  0  0  0  0
 10  1  2  0  0  0  0
 12 11  1  0  0  0  0
 12  3  1  0  0  0  0
 13 17  1  0  0  0  0
 14 12  2  0  0  0  0
 15 11  2  0  0  0  0
 16 17  2  0  0  0  0
 16 14  1  0  0  0  0
 17 15  1  0  0  0  0
 18 14  1  0  0  0  0
 21 19  1  0  0  0  0
 21 20  1  1  0  0  0
 21 22  1  0  0  0  0
 21 18  1  0  0  0  0
 22 19  1  1  0  0  0
 22 18  1  0  0  0  0
 23 26  1  0  0  0  0
 24 25  2  0  0  0  0
 24 27  1  0  0  0  0
 25 28  1  0  0  0  0
 27 23  2  0  0  0  0
 28  9  1  0  0  0  0
 28 26  2  0  0  0  0
 30 32  1  0  0  0  0
 31 27  1  0  0  0  0
 31 32  1  0  0  0  0
 32 29  2  0  0  0  0
 33 30  1  0  0  0  0
 34 33  1  0  0  0  0
 35 37  1  0  0  0  0
 36 35  1  0  0  0  0
 36 37  1  0  0  0  0
 37 34  1  1  0  0  0
M  END
>  <MODEL>
4

>  <REMARK>
 VINA RESULT:      -7.6      4.039      6.683
  Name = 
  7 active torsions:
  status: ('A' for Active; 'I' for Inactive)
    1  A    between atoms: C_1  and  C_5
    2  A    between atoms: C_1  and  C_25
    3  A    between atoms: N_4  and  C_18
    4  A    between atoms: C_5  and  N_24
    5  A    between atoms: C_7  and  C_15
    6  A    between atoms: N_28  and  C_33
    7  A    between atoms: C_34  and  C_36
                            x       y       z     vdW  Elec       q    Type
                         _______ _______ _______ _____ _____    ______ ____

>  <TORSDO>
F 7

$$$$
=
 OpenBabel11062412283D

 37 43  0  0  1  0  0  0  0  0999 V2000
  189.2840  177.2130  140.4110 C   0  0  0  0  0  3  0  0  0  0  0  0
  192.0750  177.1180  140.5080 C   0  0  0  0  0  3  0  0  0  0  0  0
  191.4090  176.7440  139.3350 C   0  0  0  0  0  0  0  0  0  0  0  0
  191.3540  177.5240  141.6350 C   0  0  0  0  0  0  0  0  0  0  0  0
  189.9870  178.2950  143.8730 N   0  0  0  0  0  0  0  0  0  0  0  0
  192.0170  177.8500  142.7710 N   0  0  0  0  0  0  0  0  0  0  0  0
  191.3430  178.2300  143.8840 C   0  0  0  0  0  3  0  0  0  0  0  0
  189.9420  177.5830  141.5940 C   0  0  0  0  0  0  0  0  0  0  0  0
  189.2560  177.9940  142.7630 C   0  0  0  0  0  0  0  0  0  0  0  0
  190.0100  176.8060  139.2890 C   0  0  0  0  0  3  0  0  0  0  0  0
  193.5410  176.0640  138.2920 C   0  0  0  0  0  3  0  0  0  0  0  0
  192.1770  176.3540  138.1410 C   0  0  0  0  0  0  0  0  0  0  0  0
  194.8170  175.3500  134.5940 Cl  0  0  0  0  0  0  0  0  0  0  0  0
  191.6140  176.3020  136.8460 C   0  0  0  0  0  0  0  0  0  0  0  0
  194.3080  175.7630  137.2120 N   0  0  0  0  0  0  0  0  0  0  0  0
  192.4350  175.9980  135.7550 C   0  0  0  0  0  3  0  0  0  0  0  0
  193.7900  175.7350  135.9570 C   0  0  0  0  0  0  0  0  0  0  0  0
  190.2130  176.4830  136.6130 N   0  0  0  0  0  0  0  0  0  0  0  0
  188.0970  176.7550  136.1090 N   0  0  0  0  0  2  0  0  0  0  0  0
  189.2990  178.6380  136.7430 O   0  0  0  0  0  1  0  0  0  0  0  0
  189.3380  177.4710  135.9760 C   0  0  2  0  0  0  0  0  0  0  0  0
  188.9410  175.7590  136.7160 C   0  0  1  0  0  3  0  0  0  0  0  0
  185.7450  177.8550  144.1770 C   0  0  0  0  0  3  0  0  0  0  0  0
  185.6120  178.7530  141.9400 C   0  0  0  0  0  3  0  0  0  0  0  0
  186.9970  178.6310  141.8110 C   0  0  0  0  0  3  0  0  0  0  0  0
  187.1300  177.7330  144.0460 C   0  0  0  0  0  3  0  0  0  0  0  0
  184.9750  178.3640  143.1230 C   0  0  0  0  0  0  0  0  0  0  0  0
  187.7740  178.1090  142.8570 C   0  0  0  0  0  0  0  0  0  0  0  0
  183.3770  179.1460  145.4650 O   0  0  0  0  0  0  0  0  0  0  0  0
  181.3730  178.9540  144.3150 N   0  0  0  0  0  2  0  0  0  0  0  0
  183.5520  178.5020  143.2160 N   0  0  0  0  0  2  0  0  0  0  0  0
  182.7980  178.8770  144.3800 C   0  0  0  0  0  0  0  0  0  0  0  0
  180.6190  178.6370  143.1090 C   0  0  0  0  0  2  0  0  0  0  0  0
  180.3500  179.8940  142.2960 C   0  0  0  0  0  2  0  0  0  0  0  0
  179.9660  180.3470  139.9190 C   0  0  0  0  0  2  0  0  0  0  0  0
  180.3080  178.9940  140.0930 O   0  0  0  0  0  0  0  0  0  0  0  0
  179.4950  179.5710  141.0850 C   0  0  1  0  0  3  0  0  0  0  0  0
  1  8  1  0  0  0  0
  2  4  1  0  0  0  0
  3  2  2  0  0  0  0
  4  6  1  0  0  0  0
  5  7  1  0  0  0  0
  6  7  2  0  0  0  0
  8  4  2  0  0  0  0
  8  9  1  0  0  0  0
  9 28  1  0  0  0  0
  9  5  2  0  0  0  0
 10  3  1  0  0  0  0
 10  1  2  0  0  0  0
 12 11  1  0  0  0  0
 12  3  1  0  0  0  0
 13 17  1  0  0  0  0
 14 12  2  0  0  0  0
 15 11  2  0  0  0  0
 16 17  2  0  0  0  0
 16 14  1  0  0  0  0
 17 15  1  0  0  0  0
 18 22  1  0  0  0  0
 18 14  1  0  0  0  0
 21 19  1  0  0  0  0
 21 18  1  0  0  0  0
 21 22  1  0  0  0  0
 21 20  1  1  0  0  0
 22 19  1  1  0  0  0
 24 27  1  0  0  0  0
 25 24  2  0  0  0  0
 25 28  1  0  0  0  0
 26 23  1  0  0  0  0
 27 31  1  0  0  0  0
 27 23  2  0  0  0  0
 28 26  2  0  0  0  0
 30 32  1  0  0  0  0
 31 32  1  0  0  0  0
 32 29  2  0  0  0  0
 33 30  1  0  0  0  0
 34 33  1  0  0  0  0
 35 36  1  0  0  0  0
 35 37  1  0  0  0  0
 36 37  1  0  0  0  0
 37 34  1  1  0  0  0
M  END
>  <MODEL>
5

>  <REMARK>
 VINA RESULT:      -7.5      4.500      7.625
  Name = 
  7 active torsions:
  status: ('A' for Active; 'I' for Inactive)
    1  A    between atoms: C_1  and  C_5
    2  A    between atoms: C_1  and  C_25
    3  A    between atoms: N_4  and  C_18
    4  A    between atoms: C_5  and  N_24
    5  A    between atoms: C_7  and  C_15
    6  A    between atoms: N_28  and  C_33
    7  A    between atoms: C_34  and  C_36
                            x       y       z     vdW  Elec       q    Type
                         _______ _______ _______ _____ _____    ______ ____

>  <TORSDO>
F 7

$$$$
=
 OpenBabel11062412283D

 37 43  0  0  1  0  0  0  0  0999 V2000
  183.9970  179.0000  141.5300 C   0  0  0  0  0  3  0  0  0  0  0  0
  181.2970  179.5530  141.0730 C   0  0  0  0  0  3  0  0  0  0  0  0
  182.2100  179.6330  140.0140 C   0  0  0  0  0  0  0  0  0  0  0  0
  181.7280  179.2130  142.3580 C   0  0  0  0  0  0  0  0  0  0  0  0
  182.5290  178.5820  144.8940 N   0  0  0  0  0  0  0  0  0  0  0  0
  180.8330  179.1720  143.3750 N   0  0  0  0  0  0  0  0  0  0  0  0
  181.2270  178.8640  144.6350 C   0  0  0  0  0  3  0  0  0  0  0  0
  183.0910  178.9240  142.5980 C   0  0  0  0  0  0  0  0  0  0  0  0
  183.4810  178.5910  143.9190 C   0  0  0  0  0  0  0  0  0  0  0  0
  183.5610  179.3430  140.2480 C   0  0  0  0  0  3  0  0  0  0  0  0
  181.4790  181.2960  138.3420 C   0  0  0  0  0  3  0  0  0  0  0  0
  181.7410  179.9540  138.6570 C   0  0  0  0  0  0  0  0  0  0  0  0
  180.0740  181.1860  134.6230 Cl  0  0  0  0  0  0  0  0  0  0  0  0
  181.5010  178.9700  137.6710 C   0  0  0  0  0  0  0  0  0  0  0  0
  180.9830  181.6370  137.1240 N   0  0  0  0  0  0  0  0  0  0  0  0
  180.9800  179.3560  136.4310 C   0  0  0  0  0  3  0  0  0  0  0  0
  180.7210  180.7020  136.1760 C   0  0  0  0  0  0  0  0  0  0  0  0
  181.8340  177.5910  137.8700 N   0  0  0  0  0  0  0  0  0  0  0  0
  182.2520  175.4490  138.0610 N   0  0  0  0  0  2  0  0  0  0  0  0
  180.7830  176.3950  139.5910 O   0  0  0  0  0  1  0  0  0  0  0  0
  181.1470  176.3520  138.2420 C   0  0  2  0  0  0  0  0  0  0  0  0
  182.9400  176.6490  137.6670 C   0  0  1  0  0  3  0  0  0  0  0  0
  186.5520  178.0290  146.0640 C   0  0  0  0  0  3  0  0  0  0  0  0
  187.1190  177.4570  143.7880 C   0  0  0  0  0  3  0  0  0  0  0  0
  185.8230  177.7900  143.3840 C   0  0  0  0  0  3  0  0  0  0  0  0
  185.2580  178.3620  145.6590 C   0  0  0  0  0  3  0  0  0  0  0  0
  187.4930  177.5770  145.1300 C   0  0  0  0  0  0  0  0  0  0  0  0
  184.8780  178.2570  144.3120 C   0  0  0  0  0  0  0  0  0  0  0  0
  188.8390  178.0460  147.7040 O   0  0  0  0  0  0  0  0  0  0  0  0
  190.8200  177.0840  146.9830 N   0  0  0  0  0  2  0  0  0  0  0  0
  188.8320  177.2280  145.5050 N   0  0  0  0  0  2  0  0  0  0  0  0
  189.4650  177.4800  146.7700 C   0  0  0  0  0  0  0  0  0  0  0  0
  191.6280  176.4460  145.9510 C   0  0  0  0  0  2  0  0  0  0  0  0
  191.6810  177.3080  144.6990 C   0  0  0  0  0  2  0  0  0  0  0  0
  190.5540  176.8190  142.5790 C   0  0  0  0  0  2  0  0  0  0  0  0
  191.8670  177.2580  142.3260 O   0  0  0  0  0  0  0  0  0  0  0  0
  191.6820  176.4390  143.4550 C   0  0  1  0  0  3  0  0  0  0  0  0
  1  8  1  0  0  0  0
  2  4  1  0  0  0  0
  3 10  1  0  0  0  0
  3  2  2  0  0  0  0
  4  8  2  0  0  0  0
  4  6  1  0  0  0  0
  6  7  2  0  0  0  0
  7  5  1  0  0  0  0
  8  9  1  0  0  0  0
  9 28  1  0  0  0  0
  9  5  2  0  0  0  0
 10  1  2  0  0  0  0
 11 12  1  0  0  0  0
 12  3  1  0  0  0  0
 13 17  1  0  0  0  0
 14 18  1  0  0  0  0
 14 12  2  0  0  0  0
 15 11  2  0  0  0  0
 16 14  1  0  0  0  0
 17 16  2  0  0  0  0
 17 15  1  0  0  0  0
 18 21  1  0  0  0  0
 19 21  1  0  0  0  0
 21 20  1  1  0  0  0
 22 18  1  0  0  0  0
 22 19  1  1  0  0  0
 22 21  1  0  0  0  0
 24 27  1  0  0  0  0
 25 24  2  0  0  0  0
 25 28  1  0  0  0  0
 26 23  1  0  0  0  0
 27 31  1  0  0  0  0
 27 23  2  0  0  0  0
 28 26  2  0  0  0  0
 31 32  1  0  0  0  0
 32 30  1  0  0  0  0
 32 29  2  0  0  0  0
 33 30  1  0  0  0  0
 34 33  1  0  0  0  0
 35 37  1  0  0  0  0
 36 35  1  0  0  0  0
 36 37  1  0  0  0  0
 37 34  1  1  0  0  0
M  END
>  <MODEL>
6

>  <REMARK>
 VINA RESULT:      -7.5      3.890     10.076
  Name = 
  7 active torsions:
  status: ('A' for Active; 'I' for Inactive)
    1  A    between atoms: C_1  and  C_5
    2  A    between atoms: C_1  and  C_25
    3  A    between atoms: N_4  and  C_18
    4  A    between atoms: C_5  and  N_24
    5  A    between atoms: C_7  and  C_15
    6  A    between atoms: N_28  and  C_33
    7  A    between atoms: C_34  and  C_36
                            x       y       z     vdW  Elec       q    Type
                         _______ _______ _______ _____ _____    ______ ____

>  <TORSDO>
F 7

$$$$
=
 OpenBabel11062412283D

 37 43  0  0  1  0  0  0  0  0999 V2000
  188.2990  177.7100  141.4740 C   0  0  0  0  0  3  0  0  0  0  0  0
  187.1270  177.8320  144.0080 C   0  0  0  0  0  3  0  0  0  0  0  0
  186.3530  178.0980  142.8720 C   0  0  0  0  0  0  0  0  0  0  0  0
  188.4850  177.5210  143.8840 C   0  0  0  0  0  0  0  0  0  0  0  0
  191.1490  176.9390  143.6950 N   0  0  0  0  0  0  0  0  0  0  0  0
  189.2240  177.3000  144.9980 N   0  0  0  0  0  0  0  0  0  0  0  0
  190.5460  177.0150  144.9090 C   0  0  0  0  0  3  0  0  0  0  0  0
  189.0850  177.4500  142.6060 C   0  0  0  0  0  0  0  0  0  0  0  0
  190.4660  177.1370  142.5330 C   0  0  0  0  0  0  0  0  0  0  0  0
  186.9440  178.0220  141.6040 C   0  0  0  0  0  3  0  0  0  0  0  0
  184.1000  178.2600  141.8760 C   0  0  0  0  0  3  0  0  0  0  0  0
  184.9160  178.3870  143.0090 C   0  0  0  0  0  0  0  0  0  0  0  0
  180.5050  179.4330  143.1070 Cl  0  0  0  0  0  0  0  0  0  0  0  0
  184.3300  178.8270  144.2180 C   0  0  0  0  0  0  0  0  0  0  0  0
  182.7800  178.5770  141.9340 N   0  0  0  0  0  0  0  0  0  0  0  0
  182.9710  179.1550  144.2390 C   0  0  0  0  0  3  0  0  0  0  0  0
  182.2070  179.0280  143.0790 C   0  0  0  0  0  0  0  0  0  0  0  0
  185.0650  178.8880  145.4450 N   0  0  0  0  0  0  0  0  0  0  0  0
  186.2740  178.8680  147.2730 N   0  0  0  0  0  2  0  0  0  0  0  0
  184.1760  177.8760  147.3640 O   0  0  0  0  0  1  0  0  0  0  0  0
  185.3330  178.0180  146.5930 C   0  0  2  0  0  0  0  0  0  0  0  0
  186.0460  179.7280  146.1420 C   0  0  1  0  0  3  0  0  0  0  0  0
  191.2440  176.4420  138.8920 C   0  0  0  0  0  3  0  0  0  0  0  0
  193.2360  177.3360  139.9210 C   0  0  0  0  0  3  0  0  0  0  0  0
  192.5610  177.4300  141.1410 C   0  0  0  0  0  3  0  0  0  0  0  0
  190.5700  176.5360  140.1120 C   0  0  0  0  0  3  0  0  0  0  0  0
  192.5830  176.8390  138.7890 C   0  0  0  0  0  0  0  0  0  0  0  0
  191.2220  177.0210  141.2560 C   0  0  0  0  0  0  0  0  0  0  0  0
  193.0180  174.4740  137.0940 O   0  0  0  0  0  0  0  0  0  0  0  0
  194.2820  175.6580  135.5540 N   0  0  0  0  0  2  0  0  0  0  0  0
  193.3100  176.7550  137.5570 N   0  0  0  0  0  2  0  0  0  0  0  0
  193.5130  175.5810  136.7550 C   0  0  0  0  0  0  0  0  0  0  0  0
  194.9120  176.8910  135.0980 C   0  0  0  0  0  2  0  0  0  0  0  0
  196.3950  176.6720  134.8370 C   0  0  0  0  0  2  0  0  0  0  0  0
  198.3260  175.2580  135.3620 C   0  0  0  0  0  2  0  0  0  0  0  0
  197.6830  175.6410  136.5530 O   0  0  0  0  0  0  0  0  0  0  0  0
  196.8550  175.3630  135.4510 C   0  0  1  0  0  3  0  0  0  0  0  0
  1 10  2  0  0  0  0
  1  8  1  0  0  0  0
  3 12  1  0  0  0  0
  3  2  2  0  0  0  0
  4  2  1  0  0  0  0
  4  6  1  0  0  0  0
  5  7  1  0  0  0  0
  7  6  2  0  0  0  0
  8  4  2  0  0  0  0
  9  8  1  0  0  0  0
  9  5  2  0  0  0  0
 10  3  1  0  0  0  0
 11 15  2  0  0  0  0
 11 12  1  0  0  0  0
 12 14  2  0  0  0  0
 14 16  1  0  0  0  0
 14 18  1  0  0  0  0
 15 17  1  0  0  0  0
 17 13  1  0  0  0  0
 17 16  2  0  0  0  0
 18 22  1  0  0  0  0
 18 21  1  0  0  0  0
 21 19  1  0  0  0  0
 21 20  1  1  0  0  0
 22 21  1  0  0  0  0
 22 19  1  1  0  0  0
 23 26  1  0  0  0  0
 24 25  2  0  0  0  0
 25 28  1  0  0  0  0
 26 28  2  0  0  0  0
 27 23  2  0  0  0  0
 27 24  1  0  0  0  0
 28  9  1  0  0  0  0
 30 32  1  0  0  0  0
 31 27  1  0  0  0  0
 32 29  2  0  0  0  0
 32 31  1  0  0  0  0
 33 30  1  0  0  0  0
 34 33  1  0  0  0  0
 35 37  1  0  0  0  0
 35 36  1  0  0  0  0
 37 34  1  6  0  0  0
 37 36  1  0  0  0  0
M  END
>  <MODEL>
7

>  <REMARK>
 VINA RESULT:      -7.4      5.208      8.814
  Name = 
  7 active torsions:
  status: ('A' for Active; 'I' for Inactive)
    1  A    between atoms: C_1  and  C_5
    2  A    between atoms: C_1  and  C_25
    3  A    between atoms: N_4  and  C_18
    4  A    between atoms: C_5  and  N_24
    5  A    between atoms: C_7  and  C_15
    6  A    between atoms: N_28  and  C_33
    7  A    between atoms: C_34  and  C_36
                            x       y       z     vdW  Elec       q    Type
                         _______ _______ _______ _____ _____    ______ ____

>  <TORSDO>
F 7

$$$$
=
 OpenBabel11062412283D

 37 43  0  0  1  0  0  0  0  0999 V2000
  183.8230  178.8410  140.8120 C   0  0  0  0  0  3  0  0  0  0  0  0
  181.1220  179.5560  140.8160 C   0  0  0  0  0  3  0  0  0  0  0  0
  181.8340  179.5420  139.6100 C   0  0  0  0  0  0  0  0  0  0  0  0
  181.7560  179.2300  142.0180 C   0  0  0  0  0  0  0  0  0  0  0  0
  182.9590  178.6290  144.3980 N   0  0  0  0  0  0  0  0  0  0  0  0
  181.0570  179.2810  143.1790 N   0  0  0  0  0  0  0  0  0  0  0  0
  181.6510  178.9880  144.3610 C   0  0  0  0  0  3  0  0  0  0  0  0
  183.1200  178.8590  142.0260 C   0  0  0  0  0  0  0  0  0  0  0  0
  183.7200  178.5430  143.2700 C   0  0  0  0  0  0  0  0  0  0  0  0
  183.1850  179.1700  139.6140 C   0  0  0  0  0  3  0  0  0  0  0  0
  181.1810  181.1700  137.8730 C   0  0  0  0  0  3  0  0  0  0  0  0
  181.1480  179.8500  138.3450 C   0  0  0  0  0  0  0  0  0  0  0  0
  178.9320  181.1090  134.5940 Cl  0  0  0  0  0  0  0  0  0  0  0  0
  180.4240  178.8870  137.6060 C   0  0  0  0  0  0  0  0  0  0  0  0
  180.5110  181.5200  136.7440 N   0  0  0  0  0  0  0  0  0  0  0  0
  179.7370  179.2830  136.4540 C   0  0  0  0  0  3  0  0  0  0  0  0
  179.7870  180.6130  136.0380 C   0  0  0  0  0  0  0  0  0  0  0  0
  180.4200  177.4990  137.9570 N   0  0  0  0  0  0  0  0  0  0  0  0
  180.3070  175.3530  138.3900 N   0  0  0  0  0  2  0  0  0  0  0  0
  179.2480  176.8020  139.8640 O   0  0  0  0  0  1  0  0  0  0  0  0
  179.4790  176.5230  138.5140 C   0  0  2  0  0  0  0  0  0  0  0  0
  181.2380  176.2890  137.8160 C   0  0  1  0  0  3  0  0  0  0  0  0
  187.3020  177.6750  142.3970 C   0  0  0  0  0  3  0  0  0  0  0  0
  187.0630  177.5260  144.7950 C   0  0  0  0  0  3  0  0  0  0  0  0
  185.7170  177.8830  144.6810 C   0  0  0  0  0  3  0  0  0  0  0  0
  185.9560  178.0320  142.2840 C   0  0  0  0  0  3  0  0  0  0  0  0
  187.8640  177.4170  143.6540 C   0  0  0  0  0  0  0  0  0  0  0  0
  185.1420  178.1310  143.4240 C   0  0  0  0  0  0  0  0  0  0  0  0
  190.2360  179.1560  143.5770 O   0  0  0  0  0  0  0  0  0  0  0  0
  191.6950  177.3870  143.9200 N   0  0  0  0  0  2  0  0  0  0  0  0
  189.2390  177.0450  143.8120 N   0  0  0  0  0  2  0  0  0  0  0  0
  190.3780  177.9180  143.7600 C   0  0  0  0  0  0  0  0  0  0  0  0
  191.9550  175.9660  144.1100 C   0  0  0  0  0  2  0  0  0  0  0  0
  191.6840  175.5570  145.5490 C   0  0  0  0  0  2  0  0  0  0  0  0
  190.9400  176.4790  147.6940 C   0  0  0  0  0  2  0  0  0  0  0  0
  192.3460  176.4390  147.6590 O   0  0  0  0  0  0  0  0  0  0  0  0
  191.6940  176.7720  146.4580 C   0  0  1  0  0  3  0  0  0  0  0  0
  1  8  1  0  0  0  0
  2  4  1  0  0  0  0
  3 10  1  0  0  0  0
  3  2  2  0  0  0  0
  4  8  2  0  0  0  0
  4  6  1  0  0  0  0
  6  7  2  0  0  0  0
  7  5  1  0  0  0  0
  8  9  1  0  0  0  0
  9 28  1  0  0  0  0
  9  5  2  0  0  0  0
 10  1  2  0  0  0  0
 11 12  1  0  0  0  0
 12  3  1  0  0  0  0
 13 17  1  0  0  0  0
 14 18  1  0  0  0  0
 14 12  2  0  0  0  0
 15 11  2  0  0  0  0
 16 14  1  0  0  0  0
 17 16  2  0  0  0  0
 17 15  1  0  0  0  0
 18 21  1  0  0  0  0
 19 21  1  0  0  0  0
 21 20  1  1  0  0  0
 22 18  1  0  0  0  0
 22 19  1  1  0  0  0
 22 21  1  0  0  0  0
 23 27  1  0  0  0  0
 25 24  1  0  0  0  0
 26 23  2  0  0  0  0
 26 28  1  0  0  0  0
 27 31  1  0  0  0  0
 27 24  2  0  0  0  0
 28 25  2  0  0  0  0
 29 32  2  0  0  0  0
 30 33  1  0  0  0  0
 32 31  1  0  0  0  0
 32 30  1  0  0  0  0
 33 34  1  0  0  0  0
 36 35  1  0  0  0  0
 37 34  1  6  0  0  0
 37 36  1  0  0  0  0
 37 35  1  0  0  0  0
M  END
>  <MODEL>
8

>  <REMARK>
 VINA RESULT:      -7.2      4.184     10.546
  Name = 
  7 active torsions:
  status: ('A' for Active; 'I' for Inactive)
    1  A    between atoms: C_1  and  C_5
    2  A    between atoms: C_1  and  C_25
    3  A    between atoms: N_4  and  C_18
    4  A    between atoms: C_5  and  N_24
    5  A    between atoms: C_7  and  C_15
    6  A    between atoms: N_28  and  C_33
    7  A    between atoms: C_34  and  C_36
                            x       y       z     vdW  Elec       q    Type
                         _______ _______ _______ _____ _____    ______ ____

>  <TORSDO>
F 7

$$$$
=
 OpenBabel11062412283D

 37 43  0  0  1  0  0  0  0  0999 V2000
  183.5830  177.8700  141.4430 C   0  0  0  0  0  3  0  0  0  0  0  0
  180.9240  178.5390  140.9030 C   0  0  0  0  0  3  0  0  0  0  0  0
  181.7010  177.9280  139.9110 C   0  0  0  0  0  0  0  0  0  0  0  0
  181.4730  178.8300  142.1550 C   0  0  0  0  0  0  0  0  0  0  0  0
  182.5100  179.4460  144.6080 N   0  0  0  0  0  0  0  0  0  0  0  0
  180.7130  179.4520  143.0900 N   0  0  0  0  0  0  0  0  0  0  0  0
  181.2250  179.7630  144.3060 C   0  0  0  0  0  3  0  0  0  0  0  0
  182.8150  178.4890  142.4410 C   0  0  0  0  0  0  0  0  0  0  0  0
  183.3270  178.8100  143.7230 C   0  0  0  0  0  0  0  0  0  0  0  0
  183.0290  177.5830  140.1940 C   0  0  0  0  0  3  0  0  0  0  0  0
  180.7050  176.2660  138.3810 C   0  0  0  0  0  3  0  0  0  0  0  0
  181.1040  177.5900  138.6090 C   0  0  0  0  0  0  0  0  0  0  0  0
  179.4470  176.2420  134.6090 Cl  0  0  0  0  0  0  0  0  0  0  0  0
  180.9540  178.5300  137.5630 C   0  0  0  0  0  0  0  0  0  0  0  0
  180.2090  175.8890  137.1740 N   0  0  0  0  0  0  0  0  0  0  0  0
  180.4490  178.1060  136.3300 C   0  0  0  0  0  3  0  0  0  0  0  0
  180.0840  176.7720  136.1500 C   0  0  0  0  0  0  0  0  0  0  0  0
  181.2400  179.9220  137.7400 N   0  0  0  0  0  0  0  0  0  0  0  0
  181.5480  182.0640  138.0890 N   0  0  0  0  0  2  0  0  0  0  0  0
  180.7570  181.4200  136.0020 O   0  0  0  0  0  1  0  0  0  0  0  0
  180.6360  181.2080  137.3780 C   0  0  2  0  0  0  0  0  0  0  0  0
  182.1430  180.8130  138.4780 C   0  0  1  0  0  3  0  0  0  0  0  0
  186.2950  178.1290  145.9760 C   0  0  0  0  0  3  0  0  0  0  0  0
  187.0290  177.9000  143.6870 C   0  0  0  0  0  3  0  0  0  0  0  0
  185.7420  178.2150  143.2450 C   0  0  0  0  0  3  0  0  0  0  0  0
  185.0090  178.4440  145.5320 C   0  0  0  0  0  3  0  0  0  0  0  0
  187.3160  177.8580  145.0550 C   0  0  0  0  0  0  0  0  0  0  0  0
  184.7170  178.5020  144.1600 C   0  0  0  0  0  0  0  0  0  0  0  0
  188.2140  176.8770  147.6790 O   0  0  0  0  0  0  0  0  0  0  0  0
  190.4370  176.8020  147.0270 N   0  0  0  0  0  2  0  0  0  0  0  0
  188.6490  177.5340  145.4700 N   0  0  0  0  0  2  0  0  0  0  0  0
  189.0580  177.0650  146.7640 C   0  0  0  0  0  0  0  0  0  0  0  0
  191.4850  177.0160  146.0360 C   0  0  0  0  0  2  0  0  0  0  0  0
  191.7100  175.7580  145.2120 C   0  0  0  0  0  2  0  0  0  0  0  0
  190.4760  175.6780  143.0970 C   0  0  0  0  0  2  0  0  0  0  0  0
  190.7250  177.0170  143.4490 O   0  0  0  0  0  0  0  0  0  0  0  0
  191.7450  176.0910  143.7320 C   0  0  1  0  0  3  0  0  0  0  0  0
  1  8  1  0  0  0  0
  2  4  1  0  0  0  0
  3 10  1  0  0  0  0
  3  2  2  0  0  0  0
  4  8  2  0  0  0  0
  4  6  1  0  0  0  0
  6  7  2  0  0  0  0
  7  5  1  0  0  0  0
  8  9  1  0  0  0  0
  9 28  1  0  0  0  0
  9  5  2  0  0  0  0
 10  1  2  0  0  0  0
 11 12  1  0  0  0  0
 12  3  1  0  0  0  0
 13 17  1  0  0  0  0
 14 18  1  0  0  0  0
 14 12  2  0  0  0  0
 15 11  2  0  0  0  0
 16 14  1  0  0  0  0
 17 16  2  0  0  0  0
 17 15  1  0  0  0  0
 18 22  1  0  0  0  0
 21 20  1  6  0  0  0
 21 18  1  0  0  0  0
 21 19  1  0  0  0  0
 21 22  1  0  0  0  0
 22 19  1  6  0  0  0
 24 27  1  0  0  0  0
 25 24  2  0  0  0  0
 25 28  1  0  0  0  0
 26 23  1  0  0  0  0
 27 31  1  0  0  0  0
 27 23  2  0  0  0  0
 28 26  2  0  0  0  0
 31 32  1  0  0  0  0
 32 30  1  0  0  0  0
 32 29  2  0  0  0  0
 33 30  1  0  0  0  0
 34 33  1  0  0  0  0
 35 36  1  0  0  0  0
 35 37  1  0  0  0  0
 36 37  1  0  0  0  0
 37 34  1  1  0  0  0
M  END
>  <MODEL>
9

>  <REMARK>
 VINA RESULT:      -7.1      4.092     10.246
  Name = 
  7 active torsions:
  status: ('A' for Active; 'I' for Inactive)
    1  A    between atoms: C_1  and  C_5
    2  A    between atoms: C_1  and  C_25
    3  A    between atoms: N_4  and  C_18
    4  A    between atoms: C_5  and  N_24
    5  A    between atoms: C_7  and  C_15
    6  A    between atoms: N_28  and  C_33
    7  A    between atoms: C_34  and  C_36
                            x       y       z     vdW  Elec       q    Type
                         _______ _______ _______ _____ _____    ______ ____

>  <TORSDO>
F 7

$$$$
