=
 OpenBabel11062415423D

 34 37  0  0  1  0  0  0  0  0999 V2000
  189.3450  178.1340  143.1250 C   0  0  0  0  0  2  0  0  0  0  0  0
  184.4570  179.1070  142.6970 C   0  0  0  0  0  3  0  0  0  0  0  0
  184.9040  178.7090  143.9170 N   0  0  0  0  0  0  0  0  0  0  0  0
  186.8960  177.8020  142.9480 C   0  0  0  0  0  0  0  0  0  0  0  0
  190.1890  176.8070  140.4430 C   0  0  0  0  0  3  0  0  0  0  0  0
  190.6860  177.4780  142.8200 C   0  0  0  0  0  0  0  0  0  0  0  0
  189.5620  176.0620  138.1580 C   0  0  0  0  0  0  0  0  0  0  0  0
  186.4520  178.2100  141.6800 C   0  0  0  0  0  0  0  0  0  0  0  0
  187.9360  178.8400  136.9550 C   0  0  0  0  0  1  0  0  0  0  0  0
  191.1430  176.4220  143.8080 C   0  0  0  0  0  2  0  0  0  0  0  0
  188.2730  176.6820  138.0430 N   0  0  0  0  0  0  0  0  0  0  0  0
  187.2580  175.9910  137.4710 O   0  0  0  0  0  1  0  0  0  0  0  0
  186.9410  178.3960  139.1860 C   0  0  0  0  0  2  0  0  0  0  0  0
  185.2220  178.8660  141.5570 C   0  0  0  0  0  3  0  0  0  0  0  0
  187.2710  177.9630  140.5330 N   0  0  0  0  0  2  0  0  0  0  0  0
  186.5150  177.6780  145.3740 N   0  0  0  0  0  1  0  0  0  0  0  0
  188.1210  178.1160  138.2740 C   0  0  2  0  0  3  0  0  0  0  0  0
  192.8450  177.1850  139.6840 C   0  0  0  0  0  3  0  0  0  0  0  0
  191.7710  177.8080  143.8270 C   0  0  0  0  0  2  0  0  0  0  0  0
  191.9140  176.7340  138.7360 C   0  0  0  0  0  0  0  0  0  0  0  0
  192.4530  177.4400  140.9980 C   0  0  0  0  0  3  0  0  0  0  0  0
  186.0950  178.0700  144.0700 C   0  0  0  0  0  0  0  0  0  0  0  0
  191.1200  177.2500  141.3920 C   0  0  0  0  0  0  0  0  0  0  0  0
  188.2180  177.1120  143.0940 C   0  0  0  0  0  2  0  0  0  0  0  0
  190.5710  176.5550  139.1180 C   0  0  0  0  0  0  0  0  0  0  0  0
  189.8350  175.0660  137.4340 O   0  0  0  0  0  0  0  0  0  0  0  0
  192.3000  176.4760  137.4150 O   0  0  0  0  0  0  0  0  0  0  0  0
  193.6510  176.2440  137.0360 C   0  0  0  0  0  2  0  0  0  0  0  0
  192.5650  174.6090  135.6990 O   0  0  0  0  0  1  0  0  0  0  0  0
  193.7660  174.8910  136.3530 C   0  0  2  0  0  3  0  0  0  0  0  0
  194.0810  173.7950  137.3760 C   0  0  1  0  0  3  0  0  0  0  0  0
  194.6480  172.5540  136.7030 C   0  0  0  0  0  1  0  0  0  0  0  0
  196.4510  173.7970  138.2860 C   0  0  0  0  0  1  0  0  0  0  0  0
  195.0200  174.2790  138.4830 C   0  0  0  0  0  2  0  0  0  0  0  0
  2  3  1  0  0  0  0
  3 22  2  0  0  0  0
  4 24  1  0  0  0  0
  4 22  1  0  0  0  0
  5 23  1  0  0  0  0
  6  1  1  0  0  0  0
  6 10  1  0  0  0  0
  6 19  1  0  0  0  0
  7 25  1  0  0  0  0
  8  4  2  0  0  0  0
 10 19  1  0  0  0  0
 11  7  1  0  0  0  0
 11 17  1  0  0  0  0
 12 11  1  0  0  0  0
 13 15  1  0  0  0  0
 14  8  1  0  0  0  0
 14  2  2  0  0  0  0
 15  8  1  0  0  0  0
 17  9  1  6  0  0  0
 17 13  1  0  0  0  0
 18 21  1  0  0  0  0
 20 25  1  0  0  0  0
 20 18  2  0  0  0  0
 21 23  2  0  0  0  0
 22 16  1  0  0  0  0
 23  6  1  0  0  0  0
 24  1  1  0  0  0  0
 25  5  2  0  0  0  0
 26  7  2  0  0  0  0
 27 20  1  0  0  0  0
 28 27  1  0  0  0  0
 30 29  1  1  0  0  0
 30 28  1  0  0  0  0
 30 31  1  0  0  0  0
 31 32  1  6  0  0  0
 31 34  1  0  0  0  0
 33 34  1  0  0  0  0
M  END
>  <MODEL>
1

>  <REMARK>
 VINA RESULT:      -7.9      0.000      0.000
  Name = 
  5 active torsions:
  status: ('A' for Active; 'I' for Inactive)
    1  A    between atoms: O_7  and  C_8
    2  A    between atoms: O_7  and  C_26
    3  A    between atoms: C_8  and  C_11
    4  A    between atoms: C_11  and  C_21
    5  A    between atoms: C_21  and  C_27
                            x       y       z     vdW  Elec       q    Type
                         _______ _______ _______ _____ _____    ______ ____

>  <TORSDO>
F 5

$$$$
=
 OpenBabel11062415423D

 34 37  0  0  1  0  0  0  0  0999 V2000
  188.9790  177.7710  137.4770 C   0  0  0  0  0  2  0  0  0  0  0  0
  193.7670  176.3320  137.3030 C   0  0  0  0  0  3  0  0  0  0  0  0
  192.9990  176.0610  136.2150 N   0  0  0  0  0  0  0  0  0  0  0  0
  190.9950  176.3320  137.4960 C   0  0  0  0  0  0  0  0  0  0  0  0
  188.0580  177.3200  140.4130 C   0  0  0  0  0  3  0  0  0  0  0  0
  187.5540  177.8750  138.0070 C   0  0  0  0  0  0  0  0  0  0  0  0
  188.6280  176.6300  142.7290 C   0  0  0  0  0  0  0  0  0  0  0  0
  191.7720  176.6190  138.6300 C   0  0  0  0  0  0  0  0  0  0  0  0
  191.5150  178.4100  143.2830 C   0  0  0  0  0  1  0  0  0  0  0  0
  186.5140  177.0610  137.2620 C   0  0  0  0  0  2  0  0  0  0  0  0
  190.0570  176.5680  142.6220 N   0  0  0  0  0  0  0  0  0  0  0  0
  190.7190  175.5450  143.2160 O   0  0  0  0  0  1  0  0  0  0  0  0
  191.8260  177.2960  141.0860 C   0  0  0  0  0  2  0  0  0  0  0  0
  193.1680  176.6160  138.5300 C   0  0  0  0  0  3  0  0  0  0  0  0
  191.1250  176.9230  139.8690 N   0  0  0  0  0  2  0  0  0  0  0  0
  190.8860  175.7680  135.1050 N   0  0  0  0  0  1  0  0  0  0  0  0
  190.8110  177.7180  142.1320 C   0  0  2  0  0  3  0  0  0  0  0  0
  186.0300  179.0040  141.3210 C   0  0  0  0  0  3  0  0  0  0  0  0
  186.5970  178.5670  137.0560 C   0  0  0  0  0  2  0  0  0  0  0  0
  186.7880  178.2730  142.2490 C   0  0  0  0  0  0  0  0  0  0  0  0
  186.2810  178.8910  139.9540 C   0  0  0  0  0  3  0  0  0  0  0  0
  191.6410  176.0560  136.2790 C   0  0  0  0  0  0  0  0  0  0  0  0
  187.2970  178.0440  139.4840 C   0  0  0  0  0  0  0  0  0  0  0  0
  189.5000  176.3460  137.5880 C   0  0  0  0  0  2  0  0  0  0  0  0
  187.8190  177.4330  141.7890 C   0  0  0  0  0  0  0  0  0  0  0  0
  188.0470  175.9750  143.6370 O   0  0  0  0  0  0  0  0  0  0  0  0
  186.5420  178.3830  143.6230 O   0  0  0  0  0  0  0  0  0  0  0  0
  185.2310  178.4480  144.1700 C   0  0  0  0  0  2  0  0  0  0  0  0
  184.1620  178.6330  146.2830 O   0  0  0  0  0  1  0  0  0  0  0  0
  185.2730  178.0790  145.6440 C   0  0  2  0  0  3  0  0  0  0  0  0
  186.5640  178.5900  146.2920 C   0  0  1  0  0  3  0  0  0  0  0  0
  186.2690  179.5360  147.4470 C   0  0  0  0  0  1  0  0  0  0  0  0
  188.9370  177.6950  146.3890 C   0  0  0  0  0  1  0  0  0  0  0  0
  187.4790  177.4530  146.7530 C   0  0  0  0  0  2  0  0  0  0  0  0
  1 24  1  0  0  0  0
  1  6  1  0  0  0  0
  2 14  1  0  0  0  0
  3 22  1  0  0  0  0
  3  2  2  0  0  0  0
  4 24  1  0  0  0  0
  4  8  1  0  0  0  0
  5 25  1  0  0  0  0
  6 23  1  0  0  0  0
  7 26  2  0  0  0  0
  8 15  1  0  0  0  0
 10  6  1  0  0  0  0
 11  7  1  0  0  0  0
 11 12  1  0  0  0  0
 13 17  1  0  0  0  0
 14  8  2  0  0  0  0
 15 13  1  0  0  0  0
 16 22  1  0  0  0  0
 17 11  1  0  0  0  0
 17  9  1  1  0  0  0
 18 20  1  0  0  0  0
 19 10  1  0  0  0  0
 19  6  1  0  0  0  0
 20 27  1  0  0  0  0
 21 18  2  0  0  0  0
 22  4  2  0  0  0  0
 23 21  1  0  0  0  0
 23  5  2  0  0  0  0
 25 20  2  0  0  0  0
 25  7  1  0  0  0  0
 27 28  1  0  0  0  0
 28 30  1  0  0  0  0
 30 29  1  1  0  0  0
 30 31  1  0  0  0  0
 31 34  1  0  0  0  0
 31 32  1  1  0  0  0
 33 34  1  0  0  0  0
M  END
>  <MODEL>
2

>  <REMARK>
 VINA RESULT:      -7.9      3.216      8.651
  Name = 
  5 active torsions:
  status: ('A' for Active; 'I' for Inactive)
    1  A    between atoms: O_7  and  C_8
    2  A    between atoms: O_7  and  C_26
    3  A    between atoms: C_8  and  C_11
    4  A    between atoms: C_11  and  C_21
    5  A    between atoms: C_21  and  C_27
                            x       y       z     vdW  Elec       q    Type
                         _______ _______ _______ _____ _____    ______ ____

>  <TORSDO>
F 5

$$$$
=
 OpenBabel11062415423D

 34 37  0  0  1  0  0  0  0  0999 V2000
  182.0610  178.1530  143.9640 C   0  0  0  0  0  2  0  0  0  0  0  0
  187.0450  177.7730  144.1540 C   0  0  0  0  0  3  0  0  0  0  0  0
  186.4040  178.0920  145.3100 N   0  0  0  0  0  0  0  0  0  0  0  0
  184.4550  178.7760  144.1000 C   0  0  0  0  0  0  0  0  0  0  0  0
  181.4070  179.4230  141.2010 C   0  0  0  0  0  3  0  0  0  0  0  0
  180.7000  178.6520  143.4930 C   0  0  0  0  0  0  0  0  0  0  0  0
  182.2220  180.2800  139.0170 C   0  0  0  0  0  0  0  0  0  0  0  0
  185.1000  178.4470  142.8960 C   0  0  0  0  0  0  0  0  0  0  0  0
  184.3070  177.7370  138.0190 C   0  0  0  0  0  1  0  0  0  0  0  0
  180.0000  179.6270  144.4190 C   0  0  0  0  0  2  0  0  0  0  0  0
  183.5800  179.8180  139.0640 N   0  0  0  0  0  0  0  0  0  0  0  0
  184.5690  180.6350  138.6280 O   0  0  0  0  0  1  0  0  0  0  0  0
  184.9530  178.2520  140.3600 C   0  0  0  0  0  2  0  0  0  0  0  0
  186.4060  177.9430  142.9280 C   0  0  0  0  0  3  0  0  0  0  0  0
  184.4080  178.6180  141.6560 N   0  0  0  0  0  2  0  0  0  0  0  0
  184.5110  178.8980  146.5550 N   0  0  0  0  0  1  0  0  0  0  0  0
  183.8720  178.4080  139.3060 C   0  0  2  0  0  3  0  0  0  0  0  0
  178.9310  178.7480  140.1100 C   0  0  0  0  0  3  0  0  0  0  0  0
  179.5440  178.1770  144.3530 C   0  0  0  0  0  2  0  0  0  0  0  0
  179.9140  179.3240  139.2890 C   0  0  0  0  0  0  0  0  0  0  0  0
  179.1840  178.5160  141.4620 C   0  0  0  0  0  3  0  0  0  0  0  0
  185.1360  178.5830  145.3130 C   0  0  0  0  0  0  0  0  0  0  0  0
  180.4250  178.8550  142.0230 C   0  0  0  0  0  0  0  0  0  0  0  0
  183.0520  179.3020  144.0800 C   0  0  0  0  0  2  0  0  0  0  0  0
  181.1670  179.6530  139.8400 C   0  0  0  0  0  0  0  0  0  0  0  0
  181.9250  181.2500  138.2680 O   0  0  0  0  0  0  0  0  0  0  0  0
  179.6680  179.5590  137.9310 O   0  0  0  0  0  0  0  0  0  0  0  0
  179.5100  178.5120  136.9820 C   0  0  0  0  0  2  0  0  0  0  0  0
  181.4620  177.9820  135.7370 O   0  0  0  0  0  1  0  0  0  0  0  0
  180.7810  177.6820  136.9190 C   0  0  2  0  0  3  0  0  0  0  0  0
  180.4520  176.1870  136.9740 C   0  0  1  0  0  3  0  0  0  0  0  0
  181.5980  175.3450  136.4310 C   0  0  0  0  0  1  0  0  0  0  0  0
  181.2180  175.8400  139.3690 C   0  0  0  0  0  1  0  0  0  0  0  0
  180.0670  175.7220  138.3800 C   0  0  0  0  0  2  0  0  0  0  0  0
  1 24  1  0  0  0  0
  2  3  1  0  0  0  0
  3 22  2  0  0  0  0
  4 22  1  0  0  0  0
  5 23  1  0  0  0  0
  6  1  1  0  0  0  0
  6 19  1  0  0  0  0
  6 10  1  0  0  0  0
  7 11  1  0  0  0  0
  7 25  1  0  0  0  0
  8 14  1  0  0  0  0
  8  4  2  0  0  0  0
 11 17  1  0  0  0  0
 12 11  1  0  0  0  0
 13 15  1  0  0  0  0
 14  2  2  0  0  0  0
 15  8  1  0  0  0  0
 17  9  1  6  0  0  0
 17 13  1  0  0  0  0
 18 21  1  0  0  0  0
 19 10  1  0  0  0  0
 20 25  1  0  0  0  0
 20 18  2  0  0  0  0
 21 23  2  0  0  0  0
 22 16  1  0  0  0  0
 23  6  1  0  0  0  0
 24  4  1  0  0  0  0
 25  5  2  0  0  0  0
 26  7  2  0  0  0  0
 27 20  1  0  0  0  0
 28 27  1  0  0  0  0
 30 29  1  6  0  0  0
 30 31  1  0  0  0  0
 30 28  1  0  0  0  0
 31 32  1  1  0  0  0
 31 34  1  0  0  0  0
 34 33  1  0  0  0  0
M  END
>  <MODEL>
3

>  <REMARK>
 VINA RESULT:      -7.0      6.328      9.616
  Name = 
  5 active torsions:
  status: ('A' for Active; 'I' for Inactive)
    1  A    between atoms: O_7  and  C_8
    2  A    between atoms: O_7  and  C_26
    3  A    between atoms: C_8  and  C_11
    4  A    between atoms: C_11  and  C_21
    5  A    between atoms: C_21  and  C_27
                            x       y       z     vdW  Elec       q    Type
                         _______ _______ _______ _____ _____    ______ ____

>  <TORSDO>
F 5

$$$$
=
 OpenBabel11062415423D

 34 37  0  0  1  0  0  0  0  0999 V2000
  183.8140  177.6070  141.4100 C   0  0  0  0  0  2  0  0  0  0  0  0
  187.4020  177.9990  144.8750 C   0  0  0  0  0  3  0  0  0  0  0  0
  186.1620  178.4420  145.2140 N   0  0  0  0  0  0  0  0  0  0  0  0
  185.5260  178.5850  142.9110 C   0  0  0  0  0  0  0  0  0  0  0  0
  185.1900  178.2020  138.6860 C   0  0  0  0  0  3  0  0  0  0  0  0
  183.1210  177.8010  140.0670 C   0  0  0  0  0  0  0  0  0  0  0  0
  187.2700  178.7240  137.4320 C   0  0  0  0  0  0  0  0  0  0  0  0
  186.8000  178.1240  142.5420 C   0  0  0  0  0  0  0  0  0  0  0  0
  189.4330  176.3640  138.6820 C   0  0  0  0  0  1  0  0  0  0  0  0
  182.0050  178.8270  140.0440 C   0  0  0  0  0  2  0  0  0  0  0  0
  188.2420  178.4830  138.4590 N   0  0  0  0  0  0  0  0  0  0  0  0
  189.2890  179.3330  138.5880 O   0  0  0  0  0  1  0  0  0  0  0  0
  188.3710  177.4170  140.6650 C   0  0  0  0  0  2  0  0  0  0  0  0
  187.7430  177.8310  143.5340 C   0  0  0  0  0  3  0  0  0  0  0  0
  187.1110  177.9460  141.1560 N   0  0  0  0  0  2  0  0  0  0  0  0
  183.9390  179.1920  144.6880 N   0  0  0  0  0  1  0  0  0  0  0  0
  188.2670  177.2050  139.1650 C   0  0  2  0  0  3  0  0  0  0  0  0
  184.0510  176.9750  136.4560 C   0  0  0  0  0  3  0  0  0  0  0  0
  181.6760  177.3410  140.0520 C   0  0  0  0  0  2  0  0  0  0  0  0
  185.3430  177.5150  136.3620 C   0  0  0  0  0  0  0  0  0  0  0  0
  183.3360  177.0520  137.6510 C   0  0  0  0  0  3  0  0  0  0  0  0
  185.2240  178.7350  144.2750 C   0  0  0  0  0  0  0  0  0  0  0  0
  183.8970  177.6700  138.7790 C   0  0  0  0  0  0  0  0  0  0  0  0
  184.5030  178.8880  141.8580 C   0  0  0  0  0  2  0  0  0  0  0  0
  185.9210  178.1240  137.4920 C   0  0  0  0  0  0  0  0  0  0  0  0
  187.5670  179.4750  136.4630 O   0  0  0  0  0  0  0  0  0  0  0  0
  186.0680  177.4420  135.1660 O   0  0  0  0  0  0  0  0  0  0  0  0
  186.4920  176.2110  134.5950 C   0  0  0  0  0  2  0  0  0  0  0  0
  188.7620  175.5220  134.7040 O   0  0  0  0  0  1  0  0  0  0  0  0
  187.5870  175.5990  135.4530 C   0  0  2  0  0  3  0  0  0  0  0  0
  187.1760  174.2040  135.9370 C   0  0  1  0  0  3  0  0  0  0  0  0
  188.3570  173.2450  135.9340 C   0  0  0  0  0  1  0  0  0  0  0  0
  185.1880  173.4860  137.3430 C   0  0  0  0  0  1  0  0  0  0  0  0
  186.5150  174.2330  137.3160 C   0  0  0  0  0  2  0  0  0  0  0  0
  1 24  1  0  0  0  0
  2  3  1  0  0  0  0
  4 22  1  0  0  0  0
  5 23  1  0  0  0  0
  6  1  1  0  0  0  0
  7 25  1  0  0  0  0
  7 11  1  0  0  0  0
  8  4  2  0  0  0  0
  8 14  1  0  0  0  0
 10 19  1  0  0  0  0
 10  6  1  0  0  0  0
 11 12  1  0  0  0  0
 11 17  1  0  0  0  0
 13 15  1  0  0  0  0
 14  2  2  0  0  0  0
 15  8  1  0  0  0  0
 17  9  1  6  0  0  0
 17 13  1  0  0  0  0
 18 21  1  0  0  0  0
 19  6  1  0  0  0  0
 20 18  2  0  0  0  0
 20 25  1  0  0  0  0
 21 23  2  0  0  0  0
 22 16  1  0  0  0  0
 22  3  2  0  0  0  0
 23  6  1  0  0  0  0
 24  4  1  0  0  0  0
 25  5  2  0  0  0  0
 26  7  2  0  0  0  0
 27 20  1  0  0  0  0
 28 27  1  0  0  0  0
 28 30  1  0  0  0  0
 30 29  1  6  0  0  0
 30 31  1  0  0  0  0
 31 32  1  1  0  0  0
 31 34  1  0  0  0  0
 34 33  1  0  0  0  0
M  END
>  <MODEL>
4

>  <REMARK>
 VINA RESULT:      -7.0      3.295      6.075
  Name = 
  5 active torsions:
  status: ('A' for Active; 'I' for Inactive)
    1  A    between atoms: O_7  and  C_8
    2  A    between atoms: O_7  and  C_26
    3  A    between atoms: C_8  and  C_11
    4  A    between atoms: C_11  and  C_21
    5  A    between atoms: C_21  and  C_27
                            x       y       z     vdW  Elec       q    Type
                         _______ _______ _______ _____ _____    ______ ____

>  <TORSDO>
F 5

$$$$
=
 OpenBabel11062415423D

 34 37  0  0  1  0  0  0  0  0999 V2000
  189.1930  177.7850  137.4730 C   0  0  0  0  0  2  0  0  0  0  0  0
  193.9960  176.3880  137.4250 C   0  0  0  0  0  3  0  0  0  0  0  0
  193.2590  176.1070  136.3190 N   0  0  0  0  0  0  0  0  0  0  0  0
  191.2210  176.3640  137.5480 C   0  0  0  0  0  0  0  0  0  0  0  0
  188.2020  177.3340  140.3860 C   0  0  0  0  0  3  0  0  0  0  0  0
  187.7540  177.8780  137.9670 C   0  0  0  0  0  0  0  0  0  0  0  0
  188.7190  176.6550  142.7190 C   0  0  0  0  0  0  0  0  0  0  0  0
  191.9660  176.6610  138.7010 C   0  0  0  0  0  0  0  0  0  0  0  0
  191.5750  178.4620  143.3400 C   0  0  0  0  0  1  0  0  0  0  0  0
  186.7400  177.0530  137.1980 C   0  0  0  0  0  2  0  0  0  0  0  0
  190.1510  176.6050  142.6480 N   0  0  0  0  0  0  0  0  0  0  0  0
  190.8070  175.5900  143.2610 O   0  0  0  0  0  1  0  0  0  0  0  0
  191.9520  177.3450  141.1550 C   0  0  0  0  0  2  0  0  0  0  0  0
  193.3640  176.6700  138.6350 C   0  0  0  0  0  3  0  0  0  0  0  0
  191.2850  176.9630  139.9220 N   0  0  0  0  0  2  0  0  0  0  0  0
  191.1770  175.7920  135.1570 N   0  0  0  0  0  1  0  0  0  0  0  0
  190.9070  177.7610  142.1740 C   0  0  2  0  0  3  0  0  0  0  0  0
  186.1370  179.0020  141.2380 C   0  0  0  0  0  3  0  0  0  0  0  0
  186.8150  178.5580  136.9900 C   0  0  0  0  0  2  0  0  0  0  0  0
  186.8780  178.2810  142.1880 C   0  0  0  0  0  0  0  0  0  0  0  0
  186.4240  178.8870  139.8780 C   0  0  0  0  0  3  0  0  0  0  0  0
  191.8990  176.0900  136.3490 C   0  0  0  0  0  0  0  0  0  0  0  0
  187.4580  178.0480  139.4370 C   0  0  0  0  0  0  0  0  0  0  0  0
  189.7230  176.3650  137.6020 C   0  0  0  0  0  2  0  0  0  0  0  0
  187.9280  177.4480  141.7560 C   0  0  0  0  0  0  0  0  0  0  0  0
  188.1210  175.9970  143.6130 O   0  0  0  0  0  0  0  0  0  0  0  0
  186.5960  178.3920  143.5550 O   0  0  0  0  0  0  0  0  0  0  0  0
  185.3860  177.9210  144.1350 C   0  0  0  0  0  2  0  0  0  0  0  0
  184.1860  179.0060  145.8730 O   0  0  0  0  0  1  0  0  0  0  0  0
  184.5090  179.1010  144.5180 C   0  0  2  0  0  3  0  0  0  0  0  0
  183.2330  179.1220  143.6700 C   0  0  1  0  0  3  0  0  0  0  0  0
  183.3750  178.2530  142.4300 C   0  0  0  0  0  1  0  0  0  0  0  0
  180.7430  178.6350  143.6020 C   0  0  0  0  0  1  0  0  0  0  0  0
  181.9920  178.7160  144.4680 C   0  0  0  0  0  2  0  0  0  0  0  0
  1 24  1  0  0  0  0
  1  6  1  0  0  0  0
  2 14  1  0  0  0  0
  3 22  1  0  0  0  0
  3  2  2  0  0  0  0
  4 24  1  0  0  0  0
  4  8  1  0  0  0  0
  5 25  1  0  0  0  0
  6 23  1  0  0  0  0
  7 26  2  0  0  0  0
  8 15  1  0  0  0  0
 10  6  1  0  0  0  0
 11  7  1  0  0  0  0
 11 12  1  0  0  0  0
 13 17  1  0  0  0  0
 14  8  2  0  0  0  0
 15 13  1  0  0  0  0
 16 22  1  0  0  0  0
 17 11  1  0  0  0  0
 17  9  1  1  0  0  0
 18 20  1  0  0  0  0
 19 10  1  0  0  0  0
 19  6  1  0  0  0  0
 20 27  1  0  0  0  0
 21 18  2  0  0  0  0
 22  4  2  0  0  0  0
 23 21  1  0  0  0  0
 23  5  2  0  0  0  0
 25 20  2  0  0  0  0
 25  7  1  0  0  0  0
 27 28  1  0  0  0  0
 28 30  1  0  0  0  0
 30 29  1  1  0  0  0
 31 32  1  6  0  0  0
 31 34  1  0  0  0  0
 31 30  1  0  0  0  0
 33 34  1  0  0  0  0
M  END
>  <MODEL>
5

>  <REMARK>
 VINA RESULT:      -6.9      3.154      9.039
  Name = 
  5 active torsions:
  status: ('A' for Active; 'I' for Inactive)
    1  A    between atoms: O_7  and  C_8
    2  A    between atoms: O_7  and  C_26
    3  A    between atoms: C_8  and  C_11
    4  A    between atoms: C_11  and  C_21
    5  A    between atoms: C_21  and  C_27
                            x       y       z     vdW  Elec       q    Type
                         _______ _______ _______ _____ _____    ______ ____

>  <TORSDO>
F 5

$$$$
=
 OpenBabel11062415423D

 34 37  0  0  1  0  0  0  0  0999 V2000
  190.1880  176.7790  141.4450 C   0  0  0  0  0  2  0  0  0  0  0  0
  191.8680  175.7330  136.8500 C   0  0  0  0  0  3  0  0  0  0  0  0
  192.7900  176.1080  137.7760 N   0  0  0  0  0  0  0  0  0  0  0  0
  191.0890  177.0730  139.1550 C   0  0  0  0  0  0  0  0  0  0  0  0
  187.4440  178.1870  141.0500 C   0  0  0  0  0  3  0  0  0  0  0  0
  189.3570  177.4650  142.5220 C   0  0  0  0  0  0  0  0  0  0  0  0
  185.6730  178.9780  139.4990 C   0  0  0  0  0  0  0  0  0  0  0  0
  190.1220  176.6890  138.2120 C   0  0  0  0  0  0  0  0  0  0  0  0
  185.2000  176.2040  137.5280 C   0  0  0  0  0  1  0  0  0  0  0  0
  190.0850  178.5030  143.3530 C   0  0  0  0  0  2  0  0  0  0  0  0
  186.1030  178.3390  138.2890 N   0  0  0  0  0  0  0  0  0  0  0  0
  186.0420  179.0270  137.1230 O   0  0  0  0  0  1  0  0  0  0  0  0
  187.6550  176.5740  137.5850 C   0  0  0  0  0  2  0  0  0  0  0  0
  190.5180  176.0160  137.0510 C   0  0  0  0  0  3  0  0  0  0  0  0
  188.7420  176.9790  138.4580 N   0  0  0  0  0  2  0  0  0  0  0  0
  193.4460  177.1300  139.8520 N   0  0  0  0  0  1  0  0  0  0  0  0
  186.3330  176.8980  138.2580 C   0  0  2  0  0  3  0  0  0  0  0  0
  185.6090  177.8740  143.1250 C   0  0  0  0  0  3  0  0  0  0  0  0
  189.7910  177.1280  143.9360 C   0  0  0  0  0  2  0  0  0  0  0  0
  185.1660  178.3330  141.8750 C   0  0  0  0  0  0  0  0  0  0  0  0
  186.9560  177.5790  143.3360 C   0  0  0  0  0  3  0  0  0  0  0  0
  192.4370  176.7630  138.9140 C   0  0  0  0  0  0  0  0  0  0  0  0
  187.8890  177.7370  142.3000 C   0  0  0  0  0  0  0  0  0  0  0  0
  190.6740  177.7820  140.4090 C   0  0  0  0  0  2  0  0  0  0  0  0
  186.0920  178.4790  140.8250 C   0  0  0  0  0  0  0  0  0  0  0  0
  184.9320  179.9960  139.4310 O   0  0  0  0  0  0  0  0  0  0  0  0
  183.8150  178.6300  141.6550 O   0  0  0  0  0  0  0  0  0  0  0  0
  182.9240  178.9920  142.7030 C   0  0  0  0  0  2  0  0  0  0  0  0
  181.4940  178.1460  141.0060 O   0  0  0  0  0  1  0  0  0  0  0  0
  181.5050  178.6000  142.3260 C   0  0  2  0  0  3  0  0  0  0  0  0
  180.5570  179.7930  142.4820 C   0  0  1  0  0  3  0  0  0  0  0  0
  179.9020  180.1600  141.1580 C   0  0  0  0  0  1  0  0  0  0  0  0
  179.7260  178.2760  144.3410 C   0  0  0  0  0  1  0  0  0  0  0  0
  179.4930  179.5610  143.5570 C   0  0  0  0  0  2  0  0  0  0  0  0
  1  6  1  0  0  0  0
  2 14  2  0  0  0  0
  2  3  1  0  0  0  0
  3 22  2  0  0  0  0
  4 24  1  0  0  0  0
  5 23  1  0  0  0  0
  6 10  1  0  0  0  0
  6 19  1  0  0  0  0
  7 25  1  0  0  0  0
  8 15  1  0  0  0  0
  8  4  2  0  0  0  0
 10 19  1  0  0  0  0
 11  7  1  0  0  0  0
 12 11  1  0  0  0  0
 13 17  1  0  0  0  0
 13 15  1  0  0  0  0
 14  8  1  0  0  0  0
 17  9  1  6  0  0  0
 17 11  1  0  0  0  0
 18 21  1  0  0  0  0
 20 18  2  0  0  0  0
 22  4  1  0  0  0  0
 22 16  1  0  0  0  0
 23  6  1  0  0  0  0
 23 21  2  0  0  0  0
 24  1  1  0  0  0  0
 25  5  2  0  0  0  0
 25 20  1  0  0  0  0
 26  7  2  0  0  0  0
 27 20  1  0  0  0  0
 27 28  1  0  0  0  0
 30 29  1  6  0  0  0
 30 31  1  0  0  0  0
 30 28  1  0  0  0  0
 31 32  1  6  0  0  0
 31 34  1  0  0  0  0
 34 33  1  0  0  0  0
M  END
>  <MODEL>
6

>  <REMARK>
 VINA RESULT:      -6.7      3.199      8.781
  Name = 
  5 active torsions:
  status: ('A' for Active; 'I' for Inactive)
    1  A    between atoms: O_7  and  C_8
    2  A    between atoms: O_7  and  C_26
    3  A    between atoms: C_8  and  C_11
    4  A    between atoms: C_11  and  C_21
    5  A    between atoms: C_21  and  C_27
                            x       y       z     vdW  Elec       q    Type
                         _______ _______ _______ _____ _____    ______ ____

>  <TORSDO>
F 5

$$$$
=
 OpenBabel11062415423D

 34 37  0  0  1  0  0  0  0  0999 V2000
  185.4100  178.8460  138.6480 C   0  0  0  0  0  2  0  0  0  0  0  0
  189.2610  177.7110  135.6630 C   0  0  0  0  0  3  0  0  0  0  0  0
  188.0130  177.5920  135.1360 N   0  0  0  0  0  0  0  0  0  0  0  0
  187.0400  177.5320  137.3220 C   0  0  0  0  0  0  0  0  0  0  0  0
  186.2060  177.8480  141.4840 C   0  0  0  0  0  3  0  0  0  0  0  0
  184.5070  178.7820  139.8740 C   0  0  0  0  0  0  0  0  0  0  0  0
  187.9050  176.7990  142.9610 C   0  0  0  0  0  0  0  0  0  0  0  0
  188.3210  177.6600  137.8840 C   0  0  0  0  0  0  0  0  0  0  0  0
  190.7160  178.6060  142.1610 C   0  0  0  0  0  1  0  0  0  0  0  0
  183.1900  178.0550  139.6840 C   0  0  0  0  0  2  0  0  0  0  0  0
  189.0430  176.8320  142.0880 N   0  0  0  0  0  0  0  0  0  0  0  0
  189.8690  175.7580  142.0410 O   0  0  0  0  0  1  0  0  0  0  0  0
  189.7310  177.9050  139.9920 C   0  0  0  0  0  2  0  0  0  0  0  0
  189.4370  177.7480  137.0450 C   0  0  0  0  0  3  0  0  0  0  0  0
  188.4650  177.7120  139.3070 N   0  0  0  0  0  2  0  0  0  0  0  0
  185.6250  177.3840  135.3170 N   0  0  0  0  0  1  0  0  0  0  0  0
  189.4670  178.0870  141.4760 C   0  0  2  0  0  3  0  0  0  0  0  0
  185.0810  179.2410  143.6210 C   0  0  0  0  0  3  0  0  0  0  0  0
  183.2240  179.5760  139.7300 C   0  0  0  0  0  2  0  0  0  0  0  0
  186.1840  178.4020  143.8470 C   0  0  0  0  0  0  0  0  0  0  0  0
  184.5450  179.3790  142.3400 C   0  0  0  0  0  3  0  0  0  0  0  0
  186.9090  177.5040  135.9240 C   0  0  0  0  0  0  0  0  0  0  0  0
  185.1010  178.6800  141.2580 C   0  0  0  0  0  0  0  0  0  0  0  0
  185.8360  177.4520  138.2110 C   0  0  0  0  0  2  0  0  0  0  0  0
  186.7570  177.7090  142.7650 C   0  0  0  0  0  0  0  0  0  0  0  0
  187.8760  175.9680  143.9090 O   0  0  0  0  0  0  0  0  0  0  0  0
  186.7280  178.2600  145.1300 O   0  0  0  0  0  0  0  0  0  0  0  0
  186.0240  177.6480  146.2030 C   0  0  0  0  0  2  0  0  0  0  0  0
  186.0440  179.6400  147.4960 O   0  0  0  0  0  1  0  0  0  0  0  0
  186.4280  178.2980  147.5160 C   0  0  2  0  0  3  0  0  0  0  0  0
  187.9400  178.1840  147.7320 C   0  0  1  0  0  3  0  0  0  0  0  0
  188.2980  178.2530  149.2090 C   0  0  0  0  0  1  0  0  0  0  0  0
  189.8530  177.1870  146.3930 C   0  0  0  0  0  1  0  0  0  0  0  0
  188.5300  176.9220  147.0970 C   0  0  0  0  0  2  0  0  0  0  0  0
  1  6  1  0  0  0  0
  2 14  1  0  0  0  0
  3  2  2  0  0  0  0
  3 22  1  0  0  0  0
  4  8  1  0  0  0  0
  4 24  1  0  0  0  0
  5 25  1  0  0  0  0
  6 23  1  0  0  0  0
  7 26  2  0  0  0  0
  8 15  1  0  0  0  0
 10 19  1  0  0  0  0
 10  6  1  0  0  0  0
 11  7  1  0  0  0  0
 12 11  1  0  0  0  0
 13 17  1  0  0  0  0
 14  8  2  0  0  0  0
 15 13  1  0  0  0  0
 16 22  1  0  0  0  0
 17 11  1  0  0  0  0
 17  9  1  1  0  0  0
 18 20  1  0  0  0  0
 19  6  1  0  0  0  0
 20 27  1  0  0  0  0
 21 18  2  0  0  0  0
 22  4  2  0  0  0  0
 23  5  2  0  0  0  0
 23 21  1  0  0  0  0
 24  1  1  0  0  0  0
 25  7  1  0  0  0  0
 25 20  2  0  0  0  0
 27 28  1  0  0  0  0
 28 30  1  0  0  0  0
 30 29  1  6  0  0  0
 30 31  1  0  0  0  0
 31 32  1  1  0  0  0
 33 34  1  0  0  0  0
 34 31  1  0  0  0  0
M  END
>  <MODEL>
7

>  <REMARK>
 VINA RESULT:      -6.7      3.756      8.498
  Name = 
  5 active torsions:
  status: ('A' for Active; 'I' for Inactive)
    1  A    between atoms: O_7  and  C_8
    2  A    between atoms: O_7  and  C_26
    3  A    between atoms: C_8  and  C_11
    4  A    between atoms: C_11  and  C_21
    5  A    between atoms: C_21  and  C_27
                            x       y       z     vdW  Elec       q    Type
                         _______ _______ _______ _____ _____    ______ ____

>  <TORSDO>
F 5

$$$$
=
 OpenBabel11062415423D

 34 37  0  0  1  0  0  0  0  0999 V2000
  186.9090  177.4100  138.6950 C   0  0  0  0  0  2  0  0  0  0  0  0
  185.0070  178.4200  143.2110 C   0  0  0  0  0  3  0  0  0  0  0  0
  184.3810  178.9710  142.1380 N   0  0  0  0  0  0  0  0  0  0  0  0
  186.3140  178.6300  140.7680 C   0  0  0  0  0  0  0  0  0  0  0  0
  189.9960  177.3440  139.0640 C   0  0  0  0  0  3  0  0  0  0  0  0
  187.9540  177.3300  137.5890 C   0  0  0  0  0  0  0  0  0  0  0  0
  191.9510  177.5030  140.5880 C   0  0  0  0  0  0  0  0  0  0  0  0
  186.9750  178.0530  141.8640 C   0  0  0  0  0  0  0  0  0  0  0  0
  191.0070  175.3970  143.1340 C   0  0  0  0  0  1  0  0  0  0  0  0
  187.8280  178.3660  136.4890 C   0  0  0  0  0  2  0  0  0  0  0  0
  191.2790  177.4570  141.8540 N   0  0  0  0  0  0  0  0  0  0  0  0
  191.6940  178.2760  142.8510 O   0  0  0  0  0  1  0  0  0  0  0  0
  189.0650  176.8960  142.7500 C   0  0  0  0  0  2  0  0  0  0  0  0
  186.3140  177.9510  143.0940 C   0  0  0  0  0  3  0  0  0  0  0  0
  188.3110  177.5650  141.7050 N   0  0  0  0  0  2  0  0  0  0  0  0
  184.2890  179.6690  139.8380 N   0  0  0  0  0  1  0  0  0  0  0  0
  190.3600  176.3650  142.1630 C   0  0  2  0  0  3  0  0  0  0  0  0
  191.3950  175.7010  137.2990 C   0  0  0  0  0  3  0  0  0  0  0  0
  187.3860  176.9310  136.2400 C   0  0  0  0  0  2  0  0  0  0  0  0
  192.0290  176.1600  138.4650 C   0  0  0  0  0  0  0  0  0  0  0  0
  190.0770  176.0630  137.0190 C   0  0  0  0  0  3  0  0  0  0  0  0
  184.9950  179.0850  140.9300 C   0  0  0  0  0  0  0  0  0  0  0  0
  189.3640  176.8920  137.8980 C   0  0  0  0  0  0  0  0  0  0  0  0
  187.0060  178.7320  139.4430 C   0  0  0  0  0  2  0  0  0  0  0  0
  191.3160  176.9800  139.3600 C   0  0  0  0  0  0  0  0  0  0  0  0
  193.1030  178.0120  140.5170 O   0  0  0  0  0  0  0  0  0  0  0  0
  193.3510  175.8000  138.7540 O   0  0  0  0  0  0  0  0  0  0  0  0
  194.1610  175.0530  137.8560 C   0  0  0  0  0  2  0  0  0  0  0  0
  195.7540  175.2550  139.6060 O   0  0  0  0  0  1  0  0  0  0  0  0
  195.2880  174.3810  138.6220 C   0  0  2  0  0  3  0  0  0  0  0  0
  196.4290  173.9950  137.6760 C   0  0  1  0  0  3  0  0  0  0  0  0
  196.6140  172.4860  137.6140 C   0  0  0  0  0  1  0  0  0  0  0  0
  197.3160  175.5880  135.9090 C   0  0  0  0  0  1  0  0  0  0  0  0
  196.2450  174.5680  136.2690 C   0  0  0  0  0  2  0  0  0  0  0  0
  1 24  1  0  0  0  0
  3  2  2  0  0  0  0
  4 22  2  0  0  0  0
  4  8  1  0  0  0  0
  5 25  1  0  0  0  0
  6 23  1  0  0  0  0
  6  1  1  0  0  0  0
  7 11  1  0  0  0  0
  8 14  2  0  0  0  0
 10  6  1  0  0  0  0
 11 17  1  0  0  0  0
 11 12  1  0  0  0  0
 14  2  1  0  0  0  0
 15  8  1  0  0  0  0
 15 13  1  0  0  0  0
 16 22  1  0  0  0  0
 17 13  1  0  0  0  0
 17  9  1  1  0  0  0
 18 20  1  0  0  0  0
 19 10  1  0  0  0  0
 19  6  1  0  0  0  0
 20 27  1  0  0  0  0
 20 25  2  0  0  0  0
 21 18  2  0  0  0  0
 21 23  1  0  0  0  0
 22  3  1  0  0  0  0
 23  5  2  0  0  0  0
 24  4  1  0  0  0  0
 25  7  1  0  0  0  0
 26  7  2  0  0  0  0
 28 30  1  0  0  0  0
 28 27  1  0  0  0  0
 30 29  1  1  0  0  0
 31 32  1  6  0  0  0
 31 30  1  0  0  0  0
 33 34  1  0  0  0  0
 34 31  1  0  0  0  0
M  END
>  <MODEL>
8

>  <REMARK>
 VINA RESULT:      -6.7      2.071      4.319
  Name = 
  5 active torsions:
  status: ('A' for Active; 'I' for Inactive)
    1  A    between atoms: O_7  and  C_8
    2  A    between atoms: O_7  and  C_26
    3  A    between atoms: C_8  and  C_11
    4  A    between atoms: C_11  and  C_21
    5  A    between atoms: C_21  and  C_27
                            x       y       z     vdW  Elec       q    Type
                         _______ _______ _______ _____ _____    ______ ____

>  <TORSDO>
F 5

$$$$
=
 OpenBabel11062415423D

 34 37  0  0  1  0  0  0  0  0999 V2000
  190.2170  176.7780  141.4260 C   0  0  0  0  0  2  0  0  0  0  0  0
  191.8180  175.7360  136.8030 C   0  0  0  0  0  3  0  0  0  0  0  0
  192.7560  176.1090  137.7130 N   0  0  0  0  0  0  0  0  0  0  0  0
  191.0790  177.0740  139.1220 C   0  0  0  0  0  0  0  0  0  0  0  0
  187.4680  178.1910  141.0790 C   0  0  0  0  0  3  0  0  0  0  0  0
  189.4050  177.4640  142.5180 C   0  0  0  0  0  0  0  0  0  0  0  0
  185.6720  178.9850  139.5600 C   0  0  0  0  0  0  0  0  0  0  0  0
  190.0960  176.6930  138.1950 C   0  0  0  0  0  0  0  0  0  0  0  0
  185.1630  176.2130  137.5930 C   0  0  0  0  0  1  0  0  0  0  0  0
  190.1480  178.5010  143.3380 C   0  0  0  0  0  2  0  0  0  0  0  0
  186.0810  178.3470  138.3420 N   0  0  0  0  0  0  0  0  0  0  0  0
  186.0010  179.0360  137.1770 O   0  0  0  0  0  1  0  0  0  0  0  0
  187.6180  176.5810  137.6090 C   0  0  0  0  0  2  0  0  0  0  0  0
  190.4720  176.0200  137.0270 C   0  0  0  0  0  3  0  0  0  0  0  0
  188.7210  176.9840  138.4650 N   0  0  0  0  0  2  0  0  0  0  0  0
  193.4480  177.1280  139.7790 N   0  0  0  0  0  1  0  0  0  0  0  0
  186.3090  176.9050  138.3050 C   0  0  2  0  0  3  0  0  0  0  0  0
  185.6680  177.8770  143.1850 C   0  0  0  0  0  3  0  0  0  0  0  0
  189.8620  177.1260  143.9240 C   0  0  0  0  0  2  0  0  0  0  0  0
  185.2040  178.3370  141.9420 C   0  0  0  0  0  0  0  0  0  0  0  0
  187.0180  177.5810  143.3720 C   0  0  0  0  0  3  0  0  0  0  0  0
  192.4230  176.7630  138.8580 C   0  0  0  0  0  0  0  0  0  0  0  0
  187.9340  177.7380  142.3210 C   0  0  0  0  0  0  0  0  0  0  0  0
  190.6860  177.7820  140.3830 C   0  0  0  0  0  2  0  0  0  0  0  0
  186.1130  178.4840  140.8770 C   0  0  0  0  0  0  0  0  0  0  0  0
  184.9300  180.0040  139.5050 O   0  0  0  0  0  0  0  0  0  0  0  0
  183.8500  178.6360  141.7460 O   0  0  0  0  0  0  0  0  0  0  0  0
  182.9050  178.6690  142.8080 C   0  0  0  0  0  2  0  0  0  0  0  0
  180.5610  178.6270  143.1920 O   0  0  0  0  0  1  0  0  0  0  0  0
  181.5280  179.0030  142.2580 C   0  0  2  0  0  3  0  0  0  0  0  0
  181.2890  178.2790  140.9290 C   0  0  1  0  0  3  0  0  0  0  0  0
  180.0310  177.4230  140.9810 C   0  0  0  0  0  1  0  0  0  0  0  0
  181.9050  178.6710  138.4980 C   0  0  0  0  0  1  0  0  0  0  0  0
  181.2320  179.2390  139.7390 C   0  0  0  0  0  2  0  0  0  0  0  0
  1  6  1  0  0  0  0
  2 14  2  0  0  0  0
  2  3  1  0  0  0  0
  3 22  2  0  0  0  0
  4 24  1  0  0  0  0
  5 23  1  0  0  0  0
  6 10  1  0  0  0  0
  6 19  1  0  0  0  0
  7 25  1  0  0  0  0
  8 15  1  0  0  0  0
  8  4  2  0  0  0  0
 10 19  1  0  0  0  0
 11  7  1  0  0  0  0
 12 11  1  0  0  0  0
 13 17  1  0  0  0  0
 13 15  1  0  0  0  0
 14  8  1  0  0  0  0
 17  9  1  6  0  0  0
 17 11  1  0  0  0  0
 18 21  1  0  0  0  0
 20 18  2  0  0  0  0
 22  4  1  0  0  0  0
 22 16  1  0  0  0  0
 23  6  1  0  0  0  0
 23 21  2  0  0  0  0
 24  1  1  0  0  0  0
 25  5  2  0  0  0  0
 25 20  1  0  0  0  0
 26  7  2  0  0  0  0
 27 20  1  0  0  0  0
 27 28  1  0  0  0  0
 30 28  1  0  0  0  0
 30 29  1  1  0  0  0
 31 32  1  1  0  0  0
 31 30  1  0  0  0  0
 33 34  1  0  0  0  0
 34 31  1  0  0  0  0
M  END
>  <MODEL>
9

>  <REMARK>
 VINA RESULT:      -6.6      3.201      8.418
  Name = 
  5 active torsions:
  status: ('A' for Active; 'I' for Inactive)
    1  A    between atoms: O_7  and  C_8
    2  A    between atoms: O_7  and  C_26
    3  A    between atoms: C_8  and  C_11
    4  A    between atoms: C_11  and  C_21
    5  A    between atoms: C_21  and  C_27
                            x       y       z     vdW  Elec       q    Type
                         _______ _______ _______ _____ _____    ______ ____

>  <TORSDO>
F 5

$$$$
