=
 OpenBabel11062414313D

 31 33  0  0  1  0  0  0  0  0999 V2000
  188.7220  176.8560  141.4350 C   0  0  1  0  0  3  0  0  0  0  0  0
  191.6030  176.9210  140.4500 C   0  0  1  0  0  3  0  0  0  0  0  0
  188.9250  177.3490  142.8790 C   0  0  1  0  0  0  0  0  0  0  0  0
  190.6790  178.8440  144.1140 C   0  0  0  0  0  2  0  0  0  0  0  0
  192.8510  177.7270  140.1410 C   0  0  0  0  0  1  0  0  0  0  0  0
  191.1920  177.0900  141.8990 C   0  0  2  0  0  3  0  0  0  0  0  0
  192.2100  177.1820  142.9400 N   0  0  0  0  0  2  0  0  0  0  0  0
  191.5760  177.5810  144.2080 C   0  0  0  0  0  2  0  0  0  0  0  0
  189.1380  177.8410  140.3170 C   0  0  0  0  0  2  0  0  0  0  0  0
  189.9090  176.3570  142.2780 C   0  0  2  0  0  3  0  0  0  0  0  0
  189.4630  178.7770  143.1540 C   0  0  0  0  0  2  0  0  0  0  0  0
  190.4430  177.4410  139.5750 C   0  0  2  0  0  3  0  0  0  0  0  0
  189.5540  176.3420  136.1760 O   0  0  0  0  0  0  0  0  0  0  0  0
  190.1980  176.6080  138.3980 N   0  0  0  0  0  0  0  0  0  0  0  0
  190.4530  175.2350  138.5100 N   0  0  0  0  0  1  0  0  0  0  0  0
  189.6720  177.1190  137.1620 C   0  0  0  0  0  0  0  0  0  0  0  0
  189.3620  178.5140  137.0240 N   0  0  0  0  0  0  0  0  0  0  0  0
  188.1900  179.0720  136.9040 C   0  0  0  0  0  3  0  0  0  0  0  0
  186.1580  178.5560  138.0420 O   0  0  0  0  0  1  0  0  0  0  0  0
  186.8890  178.3920  137.0300 C   0  0  0  0  0  0  0  0  0  0  0  0
  186.4190  177.6310  135.9670 O   0  0  0  0  0  0  0  0  0  0  0  0
  187.9630  176.7320  143.8820 C   0  0  0  0  0  2  0  0  0  0  0  0
  188.1710  177.3280  146.1490 C   0  0  0  0  0  1  0  0  0  0  0  0
  187.5690  177.7180  144.8780 N   0  0  0  0  0  0  0  0  0  0  0  0
  185.6640  177.7640  146.2990 O   0  0  0  0  0  1  0  0  0  0  0  0
  186.1040  177.7130  144.9690 C   0  0  1  0  0  3  0  0  0  0  0  0
  185.5160  178.8620  144.1650 C   0  0  0  0  0  2  0  0  0  0  0  0
  185.0260  178.3640  142.8160 C   0  0  0  0  0  2  0  0  0  0  0  0
  185.7020  179.1330  141.6960 C   0  0  0  0  0  2  0  0  0  0  0  0
  183.7150  178.5950  140.9070 C   0  0  0  0  0  1  0  0  0  0  0  0
  184.7610  179.4990  140.7320 O   0  0  0  0  0  0  0  0  0  0  0  0
  1  9  1  6  0  0  0
  1 10  1  0  0  0  0
  1  3  1  0  0  0  0
  2  5  1  1  0  0  0
  2  6  1  0  0  0  0
  3 11  1  0  0  0  0
  3 22  1  1  0  0  0
  4  8  1  0  0  0  0
  6 10  1  0  0  0  0
  6  7  1  1  0  0  0
  7  8  1  0  0  0  0
 10  3  1  0  0  0  0
 11  4  1  0  0  0  0
 12  9  1  0  0  0  0
 12  2  1  0  0  0  0
 13 16  2  0  0  0  0
 14 15  1  0  0  0  0
 14 12  1  0  0  0  0
 16 14  1  0  0  0  0
 17 16  1  0  0  0  0
 18 17  2  0  0  0  0
 18 20  1  0  0  0  0
 20 19  1  0  0  0  0
 21 20  2  0  0  0  0
 22 24  1  0  0  0  0
 24 26  1  0  0  0  0
 24 23  1  0  0  0  0
 26 25  1  0  0  0  0
 27 26  1  0  0  0  0
 28 27  1  0  0  0  0
 29 28  1  0  0  0  0
 31 30  1  0  0  0  0
 31 29  1  0  0  0  0
M  END
>  <MODEL>
1

>  <REMARK>
 VINA RESULT:      -6.7      0.000      0.000
  Name = 
  10 active torsions:
  status: ('A' for Active; 'I' for Inactive)
    1  A    between atoms: C_5  and  C_9
    2  A    between atoms: C_5  and  C_21
    3  A    between atoms: C_7  and  C_20
    4  A    between atoms: C_9  and  N_30
    5  A    between atoms: C_11  and  C_21
    6  A    between atoms: C_11  and  O_31
    7  A    between atoms: N_14  and  C_29
    8  A    between atoms: N_15  and  C_25
    9  A    between atoms: C_20  and  N_30
   10  A    between atoms: C_22  and  C_27
                            x       y       z     vdW  Elec       q    Type
                         _______ _______ _______ _____ _____    ______ ____

>  <TORSDO>
F 10

$$$$
=
 OpenBabel11062414313D

 31 33  0  0  1  0  0  0  0  0999 V2000
  187.6430  177.4590  142.5720 C   0  0  1  0  0  3  0  0  0  0  0  0
  189.9890  176.8780  140.7180 C   0  0  1  0  0  3  0  0  0  0  0  0
  188.3760  177.4880  143.9250 C   0  0  1  0  0  0  0  0  0  0  0  0
  190.8110  178.0090  144.7210 C   0  0  0  0  0  2  0  0  0  0  0  0
  191.3220  177.3110  140.1380 C   0  0  0  0  0  1  0  0  0  0  0  0
  190.0550  176.7970  142.2300 C   0  0  2  0  0  3  0  0  0  0  0  0
  191.2650  176.3070  142.8820 N   0  0  0  0  0  2  0  0  0  0  0  0
  191.1700  176.5510  144.3320 C   0  0  0  0  0  2  0  0  0  0  0  0
  188.0930  178.5150  141.5340 C   0  0  0  0  0  2  0  0  0  0  0  0
  188.7350  176.4240  142.8980 C   0  0  2  0  0  3  0  0  0  0  0  0
  189.4540  178.5630  144.2120 C   0  0  0  0  0  2  0  0  0  0  0  0
  188.9210  177.9320  140.3570 C   0  0  2  0  0  3  0  0  0  0  0  0
  186.1490  177.6980  137.9450 O   0  0  0  0  0  0  0  0  0  0  0  0
  188.0930  177.5380  139.2170 N   0  0  0  0  0  0  0  0  0  0  0  0
  188.6190  176.5870  138.3320 N   0  0  0  0  0  1  0  0  0  0  0  0
  186.7660  178.0410  138.9900 C   0  0  0  0  0  0  0  0  0  0  0  0
  186.1820  178.9870  139.8980 N   0  0  0  0  0  0  0  0  0  0  0  0
  184.9260  179.1300  140.2160 C   0  0  0  0  0  3  0  0  0  0  0  0
  183.4820  177.2560  140.5250 O   0  0  0  0  0  1  0  0  0  0  0  0
  183.8230  178.2390  139.8150 C   0  0  0  0  0  0  0  0  0  0  0  0
  183.0850  178.5470  138.6800 O   0  0  0  0  0  0  0  0  0  0  0  0
  187.5450  176.9660  145.0870 C   0  0  0  0  0  2  0  0  0  0  0  0
  187.6040  177.7340  147.3110 C   0  0  0  0  0  1  0  0  0  0  0  0
  187.1540  178.0630  145.9610 N   0  0  0  0  0  0  0  0  0  0  0  0
  185.1560  178.5450  147.1560 O   0  0  0  0  0  1  0  0  0  0  0  0
  185.6930  178.1850  145.9110 C   0  0  1  0  0  3  0  0  0  0  0  0
  185.2770  179.1810  144.8390 C   0  0  0  0  0  2  0  0  0  0  0  0
  184.3110  178.5330  143.8640 C   0  0  0  0  0  2  0  0  0  0  0  0
  182.8890  178.9630  144.1710 C   0  0  0  0  0  2  0  0  0  0  0  0
  180.8410  178.8120  143.3660 C   0  0  0  0  0  1  0  0  0  0  0  0
  182.1570  179.0740  142.9870 O   0  0  0  0  0  0  0  0  0  0  0  0
  1  9  1  6  0  0  0
  1 10  1  0  0  0  0
  1  3  1  0  0  0  0
  2  5  1  1  0  0  0
  2  6  1  0  0  0  0
  3 11  1  0  0  0  0
  3 22  1  1  0  0  0
  6  7  1  6  0  0  0
  6 10  1  0  0  0  0
  7  8  1  0  0  0  0
  8  4  1  0  0  0  0
 10  3  1  0  0  0  0
 11  4  1  0  0  0  0
 12  2  1  0  0  0  0
 12  9  1  0  0  0  0
 13 16  2  0  0  0  0
 14 12  1  0  0  0  0
 15 14  1  0  0  0  0
 16 14  1  0  0  0  0
 16 17  1  0  0  0  0
 17 18  2  0  0  0  0
 20 18  1  0  0  0  0
 20 19  1  0  0  0  0
 21 20  2  0  0  0  0
 22 24  1  0  0  0  0
 24 23  1  0  0  0  0
 26 24  1  0  0  0  0
 26 25  1  0  0  0  0
 27 26  1  0  0  0  0
 28 29  1  0  0  0  0
 28 27  1  0  0  0  0
 31 30  1  0  0  0  0
 31 29  1  0  0  0  0
M  END
>  <MODEL>
2

>  <REMARK>
 VINA RESULT:      -6.5      1.859      2.582
  Name = 
  10 active torsions:
  status: ('A' for Active; 'I' for Inactive)
    1  A    between atoms: C_5  and  C_9
    2  A    between atoms: C_5  and  C_21
    3  A    between atoms: C_7  and  C_20
    4  A    between atoms: C_9  and  N_30
    5  A    between atoms: C_11  and  C_21
    6  A    between atoms: C_11  and  O_31
    7  A    between atoms: N_14  and  C_29
    8  A    between atoms: N_15  and  C_25
    9  A    between atoms: C_20  and  N_30
   10  A    between atoms: C_22  and  C_27
                            x       y       z     vdW  Elec       q    Type
                         _______ _______ _______ _____ _____    ______ ____

>  <TORSDO>
F 10

$$$$
=
 OpenBabel11062414313D

 31 33  0  0  1  0  0  0  0  0999 V2000
  187.4480  177.9150  142.5970 C   0  0  1  0  0  3  0  0  0  0  0  0
  189.4440  176.9650  140.5020 C   0  0  1  0  0  3  0  0  0  0  0  0
  188.2360  177.5900  143.8790 C   0  0  1  0  0  0  0  0  0  0  0  0
  190.7610  177.3600  144.5130 C   0  0  0  0  0  2  0  0  0  0  0  0
  190.8110  177.1010  139.8570 C   0  0  0  0  0  1  0  0  0  0  0  0
  189.5700  176.6910  141.9870 C   0  0  2  0  0  3  0  0  0  0  0  0
  190.6370  175.8280  142.4820 N   0  0  0  0  0  2  0  0  0  0  0  0
  190.6920  175.9150  143.9520 C   0  0  0  0  0  2  0  0  0  0  0  0
  188.1080  178.9320  141.6350 C   0  0  0  0  0  2  0  0  0  0  0  0
  188.2370  176.6000  142.7240 C   0  0  2  0  0  3  0  0  0  0  0  0
  189.5780  178.3050  144.1800 C   0  0  0  0  0  2  0  0  0  0  0  0
  188.6820  178.2970  140.3390 C   0  0  2  0  0  3  0  0  0  0  0  0
  187.1950  178.1250  136.9750 O   0  0  0  0  0  0  0  0  0  0  0  0
  187.7170  178.2710  139.2400 N   0  0  0  0  0  0  0  0  0  0  0  0
  186.3570  178.3550  139.5690 N   0  0  0  0  0  1  0  0  0  0  0  0
  188.0940  178.2100  137.8550 C   0  0  0  0  0  0  0  0  0  0  0  0
  189.4800  178.1620  137.4800 N   0  0  0  0  0  0  0  0  0  0  0  0
  190.1230  177.1910  136.8940 C   0  0  0  0  0  3  0  0  0  0  0  0
  189.3510  174.9400  137.0600 O   0  0  0  0  0  1  0  0  0  0  0  0
  189.5250  175.9620  136.3450 C   0  0  0  0  0  0  0  0  0  0  0  0
  189.0590  175.9640  135.0370 O   0  0  0  0  0  0  0  0  0  0  0  0
  187.3600  177.1710  145.0500 C   0  0  0  0  0  2  0  0  0  0  0  0
  187.9340  177.7530  147.2560 C   0  0  0  0  0  1  0  0  0  0  0  0
  187.2910  178.2370  146.0380 N   0  0  0  0  0  0  0  0  0  0  0  0
  185.7150  179.5010  147.2900 O   0  0  0  0  0  1  0  0  0  0  0  0
  185.8770  178.5450  146.2780 C   0  0  1  0  0  3  0  0  0  0  0  0
  185.2060  179.0050  144.9930 C   0  0  0  0  0  2  0  0  0  0  0  0
  183.6950  178.9640  145.1440 C   0  0  0  0  0  2  0  0  0  0  0  0
  183.0320  178.9240  143.7800 C   0  0  0  0  0  2  0  0  0  0  0  0
  183.3550  178.5530  141.6300 C   0  0  0  0  0  1  0  0  0  0  0  0
  183.9980  179.0170  142.7760 O   0  0  0  0  0  0  0  0  0  0  0  0
  1  9  1  6  0  0  0
  1 10  1  0  0  0  0
  1  3  1  0  0  0  0
  2  5  1  1  0  0  0
  2  6  1  0  0  0  0
  3 11  1  0  0  0  0
  3 22  1  1  0  0  0
  6  7  1  6  0  0  0
  6 10  1  0  0  0  0
  7  8  1  0  0  0  0
  8  4  1  0  0  0  0
 10  3  1  0  0  0  0
 11  4  1  0  0  0  0
 12  2  1  0  0  0  0
 12  9  1  0  0  0  0
 13 16  2  0  0  0  0
 14 15  1  0  0  0  0
 14 12  1  0  0  0  0
 16 14  1  0  0  0  0
 17 16  1  0  0  0  0
 18 17  2  0  0  0  0
 20 18  1  0  0  0  0
 20 19  1  0  0  0  0
 21 20  2  0  0  0  0
 22 24  1  0  0  0  0
 24 26  1  0  0  0  0
 24 23  1  0  0  0  0
 26 25  1  0  0  0  0
 27 28  1  0  0  0  0
 27 26  1  0  0  0  0
 29 28  1  0  0  0  0
 30 31  1  0  0  0  0
 31 29  1  0  0  0  0
M  END
>  <MODEL>
3

>  <REMARK>
 VINA RESULT:      -6.3      1.626      2.440
  Name = 
  10 active torsions:
  status: ('A' for Active; 'I' for Inactive)
    1  A    between atoms: C_5  and  C_9
    2  A    between atoms: C_5  and  C_21
    3  A    between atoms: C_7  and  C_20
    4  A    between atoms: C_9  and  N_30
    5  A    between atoms: C_11  and  C_21
    6  A    between atoms: C_11  and  O_31
    7  A    between atoms: N_14  and  C_29
    8  A    between atoms: N_15  and  C_25
    9  A    between atoms: C_20  and  N_30
   10  A    between atoms: C_22  and  C_27
                            x       y       z     vdW  Elec       q    Type
                         _______ _______ _______ _____ _____    ______ ____

>  <TORSDO>
F 10

$$$$
=
 OpenBabel11062414313D

 31 33  0  0  1  0  0  0  0  0999 V2000
  188.1910  178.0540  142.5350 C   0  0  1  0  0  3  0  0  0  0  0  0
  188.0430  177.9280  145.5750 C   0  0  1  0  0  3  0  0  0  0  0  0
  189.5720  177.4120  142.3110 C   0  0  1  0  0  0  0  0  0  0  0  0
  191.0750  175.7100  143.6070 C   0  0  0  0  0  2  0  0  0  0  0  0
  188.0070  177.0880  146.8380 C   0  0  0  0  0  1  0  0  0  0  0  0
  189.2940  177.6400  144.7680 C   0  0  2  0  0  3  0  0  0  0  0  0
  190.5600  177.3920  145.4490 N   0  0  0  0  0  2  0  0  0  0  0  0
  191.5500  176.9070  144.4720 C   0  0  0  0  0  2  0  0  0  0  0  0
  187.1320  177.1610  143.2250 C   0  0  0  0  0  2  0  0  0  0  0  0
  189.3790  178.4020  143.4490 C   0  0  2  0  0  3  0  0  0  0  0  0
  189.8270  175.9370  142.7130 C   0  0  0  0  0  2  0  0  0  0  0  0
  186.8300  177.5590  144.6960 C   0  0  2  0  0  3  0  0  0  0  0  0
  183.6770  179.3720  144.1200 O   0  0  0  0  0  0  0  0  0  0  0  0
  185.7280  178.5150  144.8130 N   0  0  0  0  0  0  0  0  0  0  0  0
  185.7980  179.4600  145.8460 N   0  0  0  0  0  1  0  0  0  0  0  0
  184.6160  178.5590  143.9050 C   0  0  0  0  0  0  0  0  0  0  0  0
  184.5330  177.6300  142.8130 N   0  0  0  0  0  0  0  0  0  0  0  0
  184.5410  177.8860  141.5340 C   0  0  0  0  0  3  0  0  0  0  0  0
  185.8520  179.8380  141.1290 O   0  0  0  0  0  1  0  0  0  0  0  0
  184.7870  179.2000  140.9140 C   0  0  0  0  0  0  0  0  0  0  0  0
  183.8680  179.6980  140.0010 O   0  0  0  0  0  0  0  0  0  0  0  0
  190.3290  177.9800  141.1200 C   0  0  0  0  0  2  0  0  0  0  0  0
  192.5170  177.3310  140.5470 C   0  0  0  0  0  1  0  0  0  0  0  0
  191.1130  176.9370  140.4750 N   0  0  0  0  0  0  0  0  0  0  0  0
  190.4990  175.4970  138.6870 O   0  0  0  0  0  1  0  0  0  0  0  0
  190.6700  176.8320  139.0800 C   0  0  1  0  0  3  0  0  0  0  0  0
  189.3880  177.6220  138.8670 C   0  0  0  0  0  2  0  0  0  0  0  0
  189.3730  178.2350  137.4780 C   0  0  0  0  0  2  0  0  0  0  0  0
  187.9460  178.5160  137.0440 C   0  0  0  0  0  2  0  0  0  0  0  0
  185.9190  177.9300  137.6830 C   0  0  0  0  0  1  0  0  0  0  0  0
  187.0990  178.5050  138.1530 O   0  0  0  0  0  0  0  0  0  0  0  0
  1  9  1  1  0  0  0
  1 10  1  0  0  0  0
  2  5  1  1  0  0  0
  3 22  1  6  0  0  0
  3  1  1  0  0  0  0
  3 11  1  0  0  0  0
  3 10  1  0  0  0  0
  4  8  1  0  0  0  0
  6  7  1  1  0  0  0
  6  2  1  0  0  0  0
  8  7  1  0  0  0  0
  9 12  1  0  0  0  0
 10  6  1  0  0  0  0
 11  4  1  0  0  0  0
 12 14  1  0  0  0  0
 12  2  1  0  0  0  0
 14 15  1  0  0  0  0
 16 13  2  0  0  0  0
 16 14  1  0  0  0  0
 17 16  1  0  0  0  0
 18 17  2  0  0  0  0
 20 19  1  0  0  0  0
 20 18  1  0  0  0  0
 21 20  2  0  0  0  0
 24 23  1  0  0  0  0
 24 22  1  0  0  0  0
 25 26  1  0  0  0  0
 26 24  1  0  0  0  0
 27 26  1  0  0  0  0
 28 27  1  0  0  0  0
 29 28  1  0  0  0  0
 29 31  1  0  0  0  0
 30 31  1  0  0  0  0
M  END
>  <MODEL>
4

>  <REMARK>
 VINA RESULT:      -6.0      1.721      5.928
  Name = 
  10 active torsions:
  status: ('A' for Active; 'I' for Inactive)
    1  A    between atoms: C_5  and  C_9
    2  A    between atoms: C_5  and  C_21
    3  A    between atoms: C_7  and  C_20
    4  A    between atoms: C_9  and  N_30
    5  A    between atoms: C_11  and  C_21
    6  A    between atoms: C_11  and  O_31
    7  A    between atoms: N_14  and  C_29
    8  A    between atoms: N_15  and  C_25
    9  A    between atoms: C_20  and  N_30
   10  A    between atoms: C_22  and  C_27
                            x       y       z     vdW  Elec       q    Type
                         _______ _______ _______ _____ _____    ______ ____

>  <TORSDO>
F 10

$$$$
=
 OpenBabel11062414313D

 31 33  0  0  1  0  0  0  0  0999 V2000
  190.0290  177.4320  142.9450 C   0  0  1  0  0  3  0  0  0  0  0  0
  189.0570  177.8320  140.0860 C   0  0  1  0  0  3  0  0  0  0  0  0
  188.7110  177.6570  143.7070 C   0  0  1  0  0  0  0  0  0  0  0  0
  186.1680  177.3950  143.1600 C   0  0  0  0  0  2  0  0  0  0  0  0
  188.1640  177.3820  138.9450 C   0  0  0  0  0  1  0  0  0  0  0  0
  188.2380  178.1560  141.3200 C   0  0  2  0  0  3  0  0  0  0  0  0
  186.9390  178.8050  141.1840 N   0  0  0  0  0  2  0  0  0  0  0  0
  186.2480  178.7900  142.4850 C   0  0  0  0  0  2  0  0  0  0  0  0
  190.0420  176.2490  141.9470 C   0  0  0  0  0  2  0  0  0  0  0  0
  189.0660  178.5600  142.5360 C   0  0  2  0  0  3  0  0  0  0  0  0
  187.5110  176.6980  143.5010 C   0  0  0  0  0  2  0  0  0  0  0  0
  190.0140  176.6800  140.4550 C   0  0  2  0  0  3  0  0  0  0  0  0
  192.9760  176.3340  138.2940 O   0  0  0  0  0  0  0  0  0  0  0  0
  191.3510  176.8440  139.8830 N   0  0  0  0  0  0  0  0  0  0  0  0
  192.2100  177.7660  140.4960 N   0  0  0  0  0  1  0  0  0  0  0  0
  191.8340  176.0810  138.7640 C   0  0  0  0  0  0  0  0  0  0  0  0
  190.9940  175.1000  138.1370 N   0  0  0  0  0  0  0  0  0  0  0  0
  190.4280  175.1550  136.9640 C   0  0  0  0  0  3  0  0  0  0  0  0
  191.6120  176.1260  135.1340 O   0  0  0  0  0  0  0  0  0  0  0  0
  190.6490  176.1940  135.9420 C   0  0  0  0  0  0  0  0  0  0  0  0
  189.7200  177.2180  135.8090 O   0  0  0  0  0  1  0  0  0  0  0  0
  188.8900  178.3120  145.0680 C   0  0  0  0  0  2  0  0  0  0  0  0
  186.9440  178.3870  146.3880 C   0  0  0  0  0  1  0  0  0  0  0  0
  188.1300  177.5930  146.0790 N   0  0  0  0  0  0  0  0  0  0  0  0
  188.2240  177.3290  148.4400 O   0  0  0  0  0  1  0  0  0  0  0  0
  188.9810  177.4390  147.2640 C   0  0  1  0  0  3  0  0  0  0  0  0
  189.9040  176.2410  147.1060 C   0  0  0  0  0  2  0  0  0  0  0  0
  191.3560  176.6810  147.1860 C   0  0  0  0  0  2  0  0  0  0  0  0
  192.2750  175.4800  147.0640 C   0  0  0  0  0  2  0  0  0  0  0  0
  193.0670  176.0020  149.0540 C   0  0  0  0  0  1  0  0  0  0  0  0
  193.4670  175.7180  147.7490 O   0  0  0  0  0  0  0  0  0  0  0  0
  1  9  1  6  0  0  0
  1  3  1  0  0  0  0
  2  5  1  6  0  0  0
  2 12  1  0  0  0  0
  2  6  1  0  0  0  0
  3 22  1  1  0  0  0
  4 11  1  0  0  0  0
  6  7  1  6  0  0  0
  6 10  1  0  0  0  0
  7  8  1  0  0  0  0
  8  4  1  0  0  0  0
 10  1  1  0  0  0  0
 10  3  1  0  0  0  0
 11  3  1  0  0  0  0
 12  9  1  0  0  0  0
 13 16  2  0  0  0  0
 14 12  1  0  0  0  0
 14 15  1  0  0  0  0
 16 14  1  0  0  0  0
 17 16  1  0  0  0  0
 18 17  2  0  0  0  0
 19 20  2  0  0  0  0
 20 18  1  0  0  0  0
 21 20  1  0  0  0  0
 22 24  1  0  0  0  0
 24 23  1  0  0  0  0
 24 26  1  0  0  0  0
 26 25  1  0  0  0  0
 27 28  1  0  0  0  0
 27 26  1  0  0  0  0
 29 28  1  0  0  0  0
 29 31  1  0  0  0  0
 31 30  1  0  0  0  0
M  END
>  <MODEL>
5

>  <REMARK>
 VINA RESULT:      -6.0      2.640      5.163
  Name = 
  10 active torsions:
  status: ('A' for Active; 'I' for Inactive)
    1  A    between atoms: C_5  and  C_9
    2  A    between atoms: C_5  and  C_21
    3  A    between atoms: C_7  and  C_20
    4  A    between atoms: C_9  and  N_30
    5  A    between atoms: C_11  and  C_21
    6  A    between atoms: C_11  and  O_31
    7  A    between atoms: N_14  and  C_29
    8  A    between atoms: N_15  and  C_25
    9  A    between atoms: C_20  and  N_30
   10  A    between atoms: C_22  and  C_27
                            x       y       z     vdW  Elec       q    Type
                         _______ _______ _______ _____ _____    ______ ____

>  <TORSDO>
F 10

$$$$
=
 OpenBabel11062414313D

 31 33  0  0  1  0  0  0  0  0999 V2000
  186.7770  178.2610  142.6860 C   0  0  1  0  0  3  0  0  0  0  0  0
  184.0600  179.2810  143.6090 C   0  0  1  0  0  3  0  0  0  0  0  0
  187.3940  177.8850  144.0450 C   0  0  1  0  0  0  0  0  0  0  0  0
  186.4710  177.1650  146.3820 C   0  0  0  0  0  2  0  0  0  0  0  0
  182.7310  179.0030  144.2870 C   0  0  0  0  0  1  0  0  0  0  0  0
  185.2180  178.9750  144.5380 C   0  0  2  0  0  3  0  0  0  0  0  0
  185.1110  179.2770  145.9620 N   0  0  0  0  0  2  0  0  0  0  0  0
  186.2500  178.6730  146.6740 C   0  0  0  0  0  2  0  0  0  0  0  0
  185.4870  177.5010  142.2940 C   0  0  0  0  0  2  0  0  0  0  0  0
  186.5950  179.1730  143.9120 C   0  0  2  0  0  3  0  0  0  0  0  0
  186.7640  176.7660  144.9120 C   0  0  0  0  0  2  0  0  0  0  0  0
  184.1960  178.3590  142.3800 C   0  0  2  0  0  3  0  0  0  0  0  0
  182.3710  179.6500  139.4540 O   0  0  0  0  0  0  0  0  0  0  0  0
  183.8750  179.0340  141.1220 N   0  0  0  0  0  0  0  0  0  0  0  0
  184.9070  179.7270  140.4750 N   0  0  0  0  0  1  0  0  0  0  0  0
  182.5780  178.9840  140.5040 C   0  0  0  0  0  0  0  0  0  0  0  0
  181.5070  178.2520  141.1200 N   0  0  0  0  0  0  0  0  0  0  0  0
  180.4250  178.7210  141.6760 C   0  0  0  0  0  3  0  0  0  0  0  0
  179.4660  180.6460  140.6420 O   0  0  0  0  0  0  0  0  0  0  0  0
  179.9840  180.1270  141.6660 C   0  0  0  0  0  0  0  0  0  0  0  0
  180.0550  180.8650  142.8400 O   0  0  0  0  0  1  0  0  0  0  0  0
  188.8990  178.0980  144.1180 C   0  0  0  0  0  2  0  0  0  0  0  0
  190.2620  177.1200  145.7680 C   0  0  0  0  0  1  0  0  0  0  0  0
  189.5660  176.8650  144.5090 N   0  0  0  0  0  0  0  0  0  0  0  0
  190.1800  175.2850  142.8430 O   0  0  0  0  0  1  0  0  0  0  0  0
  190.5140  176.5050  143.4500 C   0  0  1  0  0  3  0  0  0  0  0  0
  190.6020  177.6140  142.4120 C   0  0  0  0  0  2  0  0  0  0  0  0
  191.2080  177.0840  141.1250 C   0  0  0  0  0  2  0  0  0  0  0  0
  190.3640  177.5030  139.9360 C   0  0  0  0  0  2  0  0  0  0  0  0
  188.3280  177.9120  139.1940 C   0  0  0  0  0  1  0  0  0  0  0  0
  189.0860  177.8690  140.3630 O   0  0  0  0  0  0  0  0  0  0  0  0
  1  9  1  1  0  0  0
  1 10  1  0  0  0  0
  1  3  1  0  0  0  0
  2  5  1  1  0  0  0
  2  6  1  0  0  0  0
  3 22  1  1  0  0  0
  3 11  1  0  0  0  0
  4  8  1  0  0  0  0
  6  7  1  1  0  0  0
  7  8  1  0  0  0  0
  9 12  1  0  0  0  0
 10  3  1  0  0  0  0
 10  6  1  0  0  0  0
 11  4  1  0  0  0  0
 12  2  1  0  0  0  0
 13 16  2  0  0  0  0
 14 12  1  0  0  0  0
 15 14  1  0  0  0  0
 16 17  1  0  0  0  0
 16 14  1  0  0  0  0
 17 18  2  0  0  0  0
 19 20  2  0  0  0  0
 20 18  1  0  0  0  0
 20 21  1  0  0  0  0
 22 24  1  0  0  0  0
 24 23  1  0  0  0  0
 25 26  1  0  0  0  0
 26 24  1  0  0  0  0
 27 26  1  0  0  0  0
 28 27  1  0  0  0  0
 29 31  1  0  0  0  0
 29 28  1  0  0  0  0
 30 31  1  0  0  0  0
M  END
>  <MODEL>
6

>  <REMARK>
 VINA RESULT:      -5.7      3.168      6.557
  Name = 
  10 active torsions:
  status: ('A' for Active; 'I' for Inactive)
    1  A    between atoms: C_5  and  C_9
    2  A    between atoms: C_5  and  C_21
    3  A    between atoms: C_7  and  C_20
    4  A    between atoms: C_9  and  N_30
    5  A    between atoms: C_11  and  C_21
    6  A    between atoms: C_11  and  O_31
    7  A    between atoms: N_14  and  C_29
    8  A    between atoms: N_15  and  C_25
    9  A    between atoms: C_20  and  N_30
   10  A    between atoms: C_22  and  C_27
                            x       y       z     vdW  Elec       q    Type
                         _______ _______ _______ _____ _____    ______ ____

>  <TORSDO>
F 10

$$$$
=
 OpenBabel11062414313D

 31 33  0  0  1  0  0  0  0  0999 V2000
  188.2020  177.9740  142.8020 C   0  0  1  0  0  3  0  0  0  0  0  0
  188.2680  177.8700  145.8450 C   0  0  1  0  0  3  0  0  0  0  0  0
  189.5550  177.3130  142.4860 C   0  0  1  0  0  0  0  0  0  0  0  0
  191.1250  175.6000  143.6850 C   0  0  0  0  0  2  0  0  0  0  0  0
  188.3100  177.0400  147.1140 C   0  0  0  0  0  1  0  0  0  0  0  0
  189.4550  177.5610  144.9550 C   0  0  2  0  0  3  0  0  0  0  0  0
  190.7630  177.3010  145.5460 N   0  0  0  0  0  2  0  0  0  0  0  0
  191.6750  176.7960  144.5060 C   0  0  0  0  0  2  0  0  0  0  0  0
  187.1840  177.1000  143.5710 C   0  0  0  0  0  2  0  0  0  0  0  0
  189.4560  178.3130  143.6270 C   0  0  2  0  0  3  0  0  0  0  0  0
  189.8200  175.8370  142.8800 C   0  0  0  0  0  2  0  0  0  0  0  0
  186.9910  177.5120  145.0570 C   0  0  2  0  0  3  0  0  0  0  0  0
  183.8650  179.4130  144.6390 O   0  0  0  0  0  0  0  0  0  0  0  0
  185.9130  178.4830  145.2450 N   0  0  0  0  0  0  0  0  0  0  0  0
  186.0240  179.3750  146.3190 N   0  0  0  0  0  1  0  0  0  0  0  0
  184.7820  178.5920  144.3650 C   0  0  0  0  0  0  0  0  0  0  0  0
  184.6560  177.7190  143.2320 N   0  0  0  0  0  0  0  0  0  0  0  0
  184.7110  178.0270  141.9660 C   0  0  0  0  0  3  0  0  0  0  0  0
  185.8380  180.1290  142.0210 O   0  0  0  0  0  1  0  0  0  0  0  0
  185.0670  179.3430  141.4090 C   0  0  0  0  0  0  0  0  0  0  0  0
  184.6190  179.6830  140.1390 O   0  0  0  0  0  0  0  0  0  0  0  0
  190.2340  177.8630  141.2400 C   0  0  0  0  0  2  0  0  0  0  0  0
  191.3710  176.8120  139.4680 C   0  0  0  0  0  1  0  0  0  0  0  0
  190.0740  176.9390  140.1270 N   0  0  0  0  0  0  0  0  0  0  0  0
  189.0570  178.9010  139.2510 O   0  0  0  0  0  1  0  0  0  0  0  0
  189.0740  177.4990  139.2110 C   0  0  1  0  0  3  0  0  0  0  0  0
  189.3140  177.0050  137.7930 C   0  0  0  0  0  2  0  0  0  0  0  0
  188.4820  175.7640  137.5200 C   0  0  0  0  0  2  0  0  0  0  0  0
  189.2960  174.7480  136.7410 C   0  0  0  0  0  2  0  0  0  0  0  0
  191.3390  173.9210  136.8260 C   0  0  0  0  0  1  0  0  0  0  0  0
  190.1880  174.0950  137.5930 O   0  0  0  0  0  0  0  0  0  0  0  0
  1  9  1  1  0  0  0
  1 10  1  0  0  0  0
  2  5  1  1  0  0  0
  3 22  1  6  0  0  0
  3  1  1  0  0  0  0
  3 11  1  0  0  0  0
  3 10  1  0  0  0  0
  4  8  1  0  0  0  0
  6  7  1  1  0  0  0
  6  2  1  0  0  0  0
  8  7  1  0  0  0  0
  9 12  1  0  0  0  0
 10  6  1  0  0  0  0
 11  4  1  0  0  0  0
 12 14  1  0  0  0  0
 12  2  1  0  0  0  0
 14 15  1  0  0  0  0
 16 13  2  0  0  0  0
 16 14  1  0  0  0  0
 17 16  1  0  0  0  0
 18 17  2  0  0  0  0
 20 18  1  0  0  0  0
 20 19  1  0  0  0  0
 21 20  2  0  0  0  0
 23 24  1  0  0  0  0
 24 22  1  0  0  0  0
 26 25  1  0  0  0  0
 26 24  1  0  0  0  0
 27 26  1  0  0  0  0
 28 27  1  0  0  0  0
 29 28  1  0  0  0  0
 29 31  1  0  0  0  0
 30 31  1  0  0  0  0
M  END
>  <MODEL>
7

>  <REMARK>
 VINA RESULT:      -5.7      1.926      6.410
  Name = 
  10 active torsions:
  status: ('A' for Active; 'I' for Inactive)
    1  A    between atoms: C_5  and  C_9
    2  A    between atoms: C_5  and  C_21
    3  A    between atoms: C_7  and  C_20
    4  A    between atoms: C_9  and  N_30
    5  A    between atoms: C_11  and  C_21
    6  A    between atoms: C_11  and  O_31
    7  A    between atoms: N_14  and  C_29
    8  A    between atoms: N_15  and  C_25
    9  A    between atoms: C_20  and  N_30
   10  A    between atoms: C_22  and  C_27
                            x       y       z     vdW  Elec       q    Type
                         _______ _______ _______ _____ _____    ______ ____

>  <TORSDO>
F 10

$$$$
=
 OpenBabel11062414313D

 31 33  0  0  1  0  0  0  0  0999 V2000
  192.1690  176.4010  136.6150 C   0  0  1  0  0  3  0  0  0  0  0  0
  193.6250  174.1360  135.1920 C   0  0  1  0  0  3  0  0  0  0  0  0
  190.7460  175.8160  136.6570 C   0  0  1  0  0  0  0  0  0  0  0  0
  189.7120  173.4150  136.6570 C   0  0  0  0  0  2  0  0  0  0  0  0
  194.0770  172.6870  135.1830 C   0  0  0  0  0  1  0  0  0  0  0  0
  192.1180  174.2340  135.3210 C   0  0  2  0  0  3  0  0  0  0  0  0
  191.2630  173.2660  134.6430 N   0  0  0  0  0  2  0  0  0  0  0  0
  189.8770  173.4260  135.1150 C   0  0  0  0  0  2  0  0  0  0  0  0
  193.2580  175.5900  137.3570 C   0  0  0  0  0  2  0  0  0  0  0  0
  191.5860  175.6620  135.3980 C   0  0  2  0  0  3  0  0  0  0  0  0
  190.4520  174.5200  137.4550 C   0  0  0  0  0  2  0  0  0  0  0  0
  194.2420  174.8430  136.4160 C   0  0  2  0  0  3  0  0  0  0  0  0
  197.7300  175.9640  136.0470 O   0  0  0  0  0  0  0  0  0  0  0  0
  195.4250  175.6370  136.0810 N   0  0  0  0  0  0  0  0  0  0  0  0
  195.2210  176.8550  135.4190 N   0  0  0  0  0  1  0  0  0  0  0  0
  196.7640  175.2530  136.4340 C   0  0  0  0  0  0  0  0  0  0  0  0
  197.0050  174.0300  137.1460 N   0  0  0  0  0  0  0  0  0  0  0  0
  197.3400  173.8780  138.3970 C   0  0  0  0  0  3  0  0  0  0  0  0
  198.4250  175.6710  139.5370 O   0  0  0  0  0  0  0  0  0  0  0  0
  197.4050  174.9430  139.4130 C   0  0  0  0  0  0  0  0  0  0  0  0
  196.2820  175.2100  140.1850 O   0  0  0  0  0  1  0  0  0  0  0  0
  189.6470  176.8600  136.5410 C   0  0  0  0  0  2  0  0  0  0  0  0
  187.4940  177.1070  137.4590 C   0  0  0  0  0  1  0  0  0  0  0  0
  188.9090  176.9590  137.7910 N   0  0  0  0  0  0  0  0  0  0  0  0
  188.6930  179.2940  138.1770 O   0  0  0  0  0  1  0  0  0  0  0  0
  189.4010  178.1340  138.5190 C   0  0  1  0  0  3  0  0  0  0  0  0
  189.3460  177.8930  140.0200 C   0  0  0  0  0  2  0  0  0  0  0  0
  190.2740  176.7550  140.4050 C   0  0  0  0  0  2  0  0  0  0  0  0
  190.5900  176.8150  141.8880 C   0  0  0  0  0  2  0  0  0  0  0  0
  189.0280  176.0010  143.2150 C   0  0  0  0  0  1  0  0  0  0  0  0
  190.1760  175.6380  142.5140 O   0  0  0  0  0  0  0  0  0  0  0  0
  1  3  1  0  0  0  0
  1  9  1  1  0  0  0
  2  5  1  1  0  0  0
  2  6  1  0  0  0  0
  2 12  1  0  0  0  0
  3 22  1  6  0  0  0
  3 11  1  0  0  0  0
  4 11  1  0  0  0  0
  6  7  1  6  0  0  0
  6 10  1  0  0  0  0
  7  8  1  0  0  0  0
  8  4  1  0  0  0  0
 10  1  1  0  0  0  0
 10  3  1  0  0  0  0
 12  9  1  0  0  0  0
 13 16  2  0  0  0  0
 14 12  1  0  0  0  0
 14 16  1  0  0  0  0
 15 14  1  0  0  0  0
 16 17  1  0  0  0  0
 17 18  2  0  0  0  0
 18 20  1  0  0  0  0
 20 19  2  0  0  0  0
 20 21  1  0  0  0  0
 22 24  1  0  0  0  0
 23 24  1  0  0  0  0
 24 26  1  0  0  0  0
 25 26  1  0  0  0  0
 26 27  1  0  0  0  0
 27 28  1  0  0  0  0
 28 29  1  0  0  0  0
 29 31  1  0  0  0  0
 31 30  1  0  0  0  0
M  END
>  <MODEL>
8

>  <REMARK>
 VINA RESULT:      -5.4      4.732      7.939
  Name = 
  10 active torsions:
  status: ('A' for Active; 'I' for Inactive)
    1  A    between atoms: C_5  and  C_9
    2  A    between atoms: C_5  and  C_21
    3  A    between atoms: C_7  and  C_20
    4  A    between atoms: C_9  and  N_30
    5  A    between atoms: C_11  and  C_21
    6  A    between atoms: C_11  and  O_31
    7  A    between atoms: N_14  and  C_29
    8  A    between atoms: N_15  and  C_25
    9  A    between atoms: C_20  and  N_30
   10  A    between atoms: C_22  and  C_27
                            x       y       z     vdW  Elec       q    Type
                         _______ _______ _______ _____ _____    ______ ____

>  <TORSDO>
F 10

$$$$
=
 OpenBabel11062414313D

 31 33  0  0  1  0  0  0  0  0999 V2000
  187.9020  177.9940  143.2520 C   0  0  1  0  0  3  0  0  0  0  0  0
  188.5940  177.6710  146.2010 C   0  0  1  0  0  3  0  0  0  0  0  0
  189.1810  177.4190  142.6160 C   0  0  1  0  0  0  0  0  0  0  0  0
  191.0120  175.6960  143.3320 C   0  0  0  0  0  2  0  0  0  0  0  0
  188.9200  176.7520  147.3640 C   0  0  0  0  0  1  0  0  0  0  0  0
  189.5810  177.4810  145.0670 C   0  0  2  0  0  3  0  0  0  0  0  0
  190.9900  177.2370  145.3580 N   0  0  0  0  0  2  0  0  0  0  0  0
  191.6840  176.8520  144.1180 C   0  0  0  0  0  2  0  0  0  0  0  0
  187.0890  177.0210  144.1390 C   0  0  0  0  0  2  0  0  0  0  0  0
  189.2890  178.3280  143.8310 C   0  0  2  0  0  3  0  0  0  0  0  0
  189.5640  175.9320  142.8280 C   0  0  0  0  0  2  0  0  0  0  0  0
  187.1930  177.3140  145.6610 C   0  0  2  0  0  3  0  0  0  0  0  0
  184.1550  179.3860  145.8450 O   0  0  0  0  0  0  0  0  0  0  0  0
  186.1490  178.2190  146.1410 N   0  0  0  0  0  0  0  0  0  0  0  0
  186.2670  178.7090  147.4480 N   0  0  0  0  0  1  0  0  0  0  0  0
  185.0460  178.6580  145.3300 C   0  0  0  0  0  0  0  0  0  0  0  0
  184.9160  178.2050  143.9740 N   0  0  0  0  0  0  0  0  0  0  0  0
  183.8640  178.2540  143.2050 C   0  0  0  0  0  3  0  0  0  0  0  0
  181.6250  178.3070  144.0300 O   0  0  0  0  0  1  0  0  0  0  0  0
  182.5920  178.9300  143.5170 C   0  0  0  0  0  0  0  0  0  0  0  0
  182.4930  180.3020  143.3280 O   0  0  0  0  0  0  0  0  0  0  0  0
  189.5730  178.0890  141.3080 C   0  0  0  0  0  2  0  0  0  0  0  0
  190.7650  177.0640  139.5570 C   0  0  0  0  0  1  0  0  0  0  0  0
  189.4580  177.1480  140.2040 N   0  0  0  0  0  0  0  0  0  0  0  0
  188.6820  178.9980  138.9300 O   0  0  0  0  0  1  0  0  0  0  0  0
  188.4460  177.6590  139.2740 C   0  0  1  0  0  3  0  0  0  0  0  0
  188.3770  176.7890  138.0280 C   0  0  0  0  0  2  0  0  0  0  0  0
  188.1890  177.6520  136.7930 C   0  0  0  0  0  2  0  0  0  0  0  0
  186.9020  177.2770  136.0820 C   0  0  0  0  0  2  0  0  0  0  0  0
  184.7090  177.0790  136.2030 C   0  0  0  0  0  1  0  0  0  0  0  0
  185.8020  177.6380  136.8620 O   0  0  0  0  0  0  0  0  0  0  0  0
  1 10  1  0  0  0  0
  1  9  1  1  0  0  0
  2  5  1  1  0  0  0
  3 22  1  6  0  0  0
  3 11  1  0  0  0  0
  3  1  1  0  0  0  0
  3 10  1  0  0  0  0
  4  8  1  0  0  0  0
  6  7  1  1  0  0  0
  6  2  1  0  0  0  0
  8  7  1  0  0  0  0
  9 12  1  0  0  0  0
 10  6  1  0  0  0  0
 11  4  1  0  0  0  0
 12 14  1  0  0  0  0
 12  2  1  0  0  0  0
 14 15  1  0  0  0  0
 16 13  2  0  0  0  0
 16 14  1  0  0  0  0
 17 16  1  0  0  0  0
 18 20  1  0  0  0  0
 18 17  2  0  0  0  0
 20 19  1  0  0  0  0
 21 20  2  0  0  0  0
 23 24  1  0  0  0  0
 24 22  1  0  0  0  0
 25 26  1  0  0  0  0
 26 24  1  0  0  0  0
 27 26  1  0  0  0  0
 28 27  1  0  0  0  0
 29 28  1  0  0  0  0
 29 31  1  0  0  0  0
 30 31  1  0  0  0  0
M  END
>  <MODEL>
9

>  <REMARK>
 VINA RESULT:      -5.1      1.982      6.551
  Name = 
  10 active torsions:
  status: ('A' for Active; 'I' for Inactive)
    1  A    between atoms: C_5  and  C_9
    2  A    between atoms: C_5  and  C_21
    3  A    between atoms: C_7  and  C_20
    4  A    between atoms: C_9  and  N_30
    5  A    between atoms: C_11  and  C_21
    6  A    between atoms: C_11  and  O_31
    7  A    between atoms: N_14  and  C_29
    8  A    between atoms: N_15  and  C_25
    9  A    between atoms: C_20  and  N_30
   10  A    between atoms: C_22  and  C_27
                            x       y       z     vdW  Elec       q    Type
                         _______ _______ _______ _____ _____    ______ ____

>  <TORSDO>
F 10

$$$$
