=
 OpenBabel11062416283D

 46 49  0  0  1  0  0  0  0  0999 V2000
  184.5200  179.0870  144.9740 C   0  0  0  0  0  2  0  0  0  0  0  0
  185.4790  179.5290  147.1680 O   0  0  0  0  0  1  0  0  0  0  0  0
  185.7610  179.0330  145.8860 C   0  0  1  0  0  3  0  0  0  0  0  0
  187.6510  176.8520  143.9830 C   0  0  0  0  0  3  0  0  0  0  0  0
  187.6440  177.5090  146.7660 C   0  0  0  0  0  2  0  0  0  0  0  0
  186.4650  177.0110  144.5850 C   0  0  0  0  0  3  0  0  0  0  0  0
  186.3320  177.6000  145.9650 C   0  0  2  0  0  3  0  0  0  0  0  0
  188.9780  177.1480  144.6490 C   0  0  2  0  0  3  0  0  0  0  0  0
  188.8310  177.9770  145.9340 C   0  0  0  0  0  2  0  0  0  0  0  0
  190.0470  177.7170  143.6820 C   0  0  1  0  0  3  0  0  0  0  0  0
  189.5130  177.8520  142.3280 N   0  0  0  0  0  2  0  0  0  0  0  0
  190.3980  175.9270  141.3600 O   0  0  0  0  0  0  0  0  0  0  0  0
  190.0550  177.1290  141.2260 C   0  0  0  0  0  0  0  0  0  0  0  0
  190.3320  177.8290  140.0490 O   0  0  0  0  0  0  0  0  0  0  0  0
  190.3850  177.2300  138.7550 C   0  0  0  0  0  2  0  0  0  0  0  0
  189.0020  177.0380  138.0900 C   0  0  0  0  0  3  0  0  0  0  0  0
  186.9230  177.3180  136.1300 C   0  0  0  0  0  0  0  0  0  0  0  0
  188.0940  178.2780  138.1000 C   0  0  0  0  0  2  0  0  0  0  0  0
  186.7260  177.9600  137.4750 C   0  0  0  0  0  2  0  0  0  0  0  0
  189.1860  176.5120  136.6670 C   0  0  0  0  0  2  0  0  0  0  0  0
  187.8400  176.1350  136.0620 C   0  0  0  0  0  2  0  0  0  0  0  0
  186.7240  178.0040  135.0550 N   0  0  0  0  0  2  0  0  0  0  0  0
  191.8060  179.2780  144.0250 O   0  0  0  0  0  0  0  0  0  0  0  0
  190.6140  179.0350  144.1490 C   0  0  0  0  0  3  0  0  0  0  0  0
  184.8700  179.5020  143.5470 C   0  0  0  0  0  2  0  0  0  0  0  0
  181.3620  178.4380  142.1460 C   0  0  1  0  0  3  0  0  0  0  0  0
  182.8990  178.9020  140.2950 C   0  0  2  0  0  3  0  0  0  0  0  0
  181.4310  178.8910  140.6710 C   0  0  1  0  0  3  0  0  0  0  0  0
  182.7850  178.2640  142.7020 C   0  0  1  0  0  3  0  0  0  0  0  0
  183.6870  178.6190  141.5700 C   0  0  2  0  0  0  0  0  0  0  0  0
  183.5740  179.5820  142.7520 C   0  0  2  0  0  3  0  0  0  0  0  0
  184.7560  177.7210  141.5060 O   0  0  0  0  0  1  0  0  0  0  0  0
  180.4850  179.3140  142.9980 C   0  0  0  0  0  0  0  0  0  0  0  0
  179.8050  177.4440  144.3760 O   0  0  0  0  0  1  0  0  0  0  0  0
  180.4460  180.5670  142.8180 O   0  0  0  0  0  0  0  0  0  0  0  0
  179.6870  178.7480  144.0320 N   0  0  0  0  0  2  0  0  0  0  0  0
  184.2800  179.8230  138.9250 F   0  0  0  0  0  0  0  0  0  0  0  0
  183.2660  180.1300  139.7290 O   0  0  0  0  0  0  0  0  0  0  0  0
  180.7210  177.9110  139.7020 C   0  0  2  0  0  3  0  0  0  0  0  0
  181.7670  175.7410  139.6850 O   0  0  0  0  0  1  0  0  0  0  0  0
  180.7200  176.4730  140.2570 C   0  0  2  0  0  3  0  0  0  0  0  0
  179.4060  175.7310  140.0020 C   0  0  0  0  0  2  0  0  0  0  0  0
  179.6200  174.3520  140.0900 O   0  0  0  0  0  0  0  0  0  0  0  0
  179.2210  174.0080  141.3860 C   0  0  0  0  0  1  0  0  0  0  0  0
  181.3270  177.9480  138.2750 C   0  0  0  0  0  2  0  0  0  0  0  0
  180.4900  178.6430  137.3930 O   0  0  0  0  0  1  0  0  0  0  0  0
  1  3  1  0  0  0  0
  3  2  1  1  0  0  0
  4  6  2  0  0  0  0
  4  8  1  0  0  0  0
  6  7  1  0  0  0  0
  7  3  1  6  0  0  0
  7  5  1  0  0  0  0
  8 10  1  6  0  0  0
  8  9  1  0  0  0  0
  9  5  1  0  0  0  0
 10 24  1  1  0  0  0
 11 10  1  0  0  0  0
 13 12  2  0  0  0  0
 13 11  1  0  0  0  0
 14 13  1  0  0  0  0
 15 14  1  0  0  0  0
 16 18  1  0  0  0  0
 16 15  1  0  0  0  0
 17 19  1  0  0  0  0
 19 18  1  0  0  0  0
 20 16  1  0  0  0  0
 21 17  1  0  0  0  0
 21 20  1  0  0  0  0
 22 17  2  0  0  0  0
 23 24  2  0  0  0  0
 25  1  1  0  0  0  0
 26 29  1  0  0  0  0
 26 33  1  1  0  0  0
 27 38  1  1  0  0  0
 27 28  1  0  0  0  0
 27 30  1  0  0  0  0
 28 39  1  6  0  0  0
 28 26  1  0  0  0  0
 29 31  1  0  0  0  0
 30 29  1  0  0  0  0
 30 31  1  0  0  0  0
 31 25  1  0  0  0  0
 32 30  1  0  0  0  0
 33 36  1  0  0  0  0
 35 33  2  0  0  0  0
 36 34  1  0  0  0  0
 37 38  1  0  0  0  0
 39 41  1  0  0  0  0
 40 41  1  0  0  0  0
 42 43  1  0  0  0  0
 42 41  1  0  0  0  0
 43 44  1  0  0  0  0
 45 39  1  0  0  0  0
 46 45  1  0  0  0  0
M  END
>  <MODEL>
1

>  <REMARK>
 VINA RESULT:      -7.6      0.000      0.000
  Name = 
  17 active torsions:
  status: ('A' for Active; 'I' for Inactive)
    1  A    between atoms: C_1  and  C_14
    2  A    between atoms: N_2  and  CA_43
    3  A    between atoms: C_3  and  C_5
    4  A    between atoms: C_6  and  C_15
    5  A    between atoms: C_6  and  C_16
    6  A    between atoms: C_6  and  C_40
    7  A    between atoms: C_9  and  O_25
    8  A    between atoms: C_12  and  C_17
    9  A    between atoms: C_12  and  C_42
   10  A    between atoms: C_14  and  O_23
   11  A    between atoms: C_17  and  C_27
   12  A    between atoms: C_22  and  C_42
   13  A    between atoms: O_23  and  C_45
   14  A    between atoms: C_31  and  CA_43
   15  A    between atoms: C_33  and  CA_43
   16  A    between atoms: C_34  and  O_36
   17  A    between atoms: C_34  and  C_40
                            x       y       z     vdW  Elec       q    Type
                         _______ _______ _______ _____ _____    ______ ____

>  <TORSDO>
F 17

$$$$
=
 OpenBabel11062416283D

 46 49  0  0  1  0  0  0  0  0999 V2000
  183.5590  178.2410  141.2070 C   0  0  0  0  0  2  0  0  0  0  0  0
  183.9640  179.6560  139.2680 O   0  0  0  0  0  1  0  0  0  0  0  0
  182.9610  179.0850  140.0670 C   0  0  1  0  0  3  0  0  0  0  0  0
  182.7430  177.7540  136.8840 C   0  0  0  0  0  3  0  0  0  0  0  0
  182.0810  176.7370  139.4730 C   0  0  0  0  0  2  0  0  0  0  0  0
  182.1500  178.5860  137.7500 C   0  0  0  0  0  3  0  0  0  0  0  0
  181.9840  178.2510  139.2090 C   0  0  2  0  0  3  0  0  0  0  0  0
  183.2170  176.3630  137.2460 C   0  0  2  0  0  3  0  0  0  0  0  0
  183.2830  176.1290  138.7630 C   0  0  0  0  0  2  0  0  0  0  0  0
  184.5140  175.9360  136.5130 C   0  0  1  0  0  3  0  0  0  0  0  0
  185.6910  176.5440  137.1280 N   0  0  0  0  0  2  0  0  0  0  0  0
  186.4300  177.8600  135.3530 O   0  0  0  0  0  0  0  0  0  0  0  0
  186.7200  177.1550  136.3520 C   0  0  0  0  0  0  0  0  0  0  0  0
  188.0480  176.8260  136.6410 O   0  0  0  0  0  0  0  0  0  0  0  0
  188.5080  175.4980  136.8840 C   0  0  0  0  0  2  0  0  0  0  0  0
  189.8920  175.4250  137.5730 C   0  0  0  0  0  3  0  0  0  0  0  0
  192.6630  175.9960  138.0570 C   0  0  0  0  0  0  0  0  0  0  0  0
  190.9810  174.6920  136.7740 C   0  0  0  0  0  2  0  0  0  0  0  0
  192.2920  174.6220  137.5740 C   0  0  0  0  0  2  0  0  0  0  0  0
  190.3500  176.8320  137.9510 C   0  0  0  0  0  2  0  0  0  0  0  0
  191.6150  176.7690  138.7980 C   0  0  0  0  0  2  0  0  0  0  0  0
  193.6100  176.6490  137.4720 N   0  0  0  0  0  2  0  0  0  0  0  0
  184.9080  173.8840  135.3790 O   0  0  0  0  0  0  0  0  0  0  0  0
  184.6810  174.4370  136.4450 C   0  0  0  0  0  3  0  0  0  0  0  0
  185.0820  178.3410  141.2630 C   0  0  0  0  0  2  0  0  0  0  0  0
  186.4020  178.7020  144.9410 C   0  0  1  0  0  3  0  0  0  0  0  0
  187.8330  177.1600  143.6830 C   0  0  2  0  0  3  0  0  0  0  0  0
  187.3550  177.4950  145.0820 C   0  0  1  0  0  3  0  0  0  0  0  0
  186.2200  179.0470  143.4530 C   0  0  1  0  0  3  0  0  0  0  0  0
  187.0510  178.0490  142.7210 C   0  0  2  0  0  0  0  0  0  0  0  0
  185.5280  177.9290  142.6590 C   0  0  2  0  0  3  0  0  0  0  0  0
  187.7410  178.6700  141.6780 O   0  0  0  0  0  1  0  0  0  0  0  0
  185.1050  178.5270  145.6820 C   0  0  0  0  0  0  0  0  0  0  0  0
  185.9690  179.6600  147.6390 O   0  0  0  0  0  1  0  0  0  0  0  0
  184.0980  178.0060  145.1180 O   0  0  0  0  0  0  0  0  0  0  0  0
  184.9840  178.9560  147.0340 N   0  0  0  0  0  2  0  0  0  0  0  0
  188.8080  175.4150  142.8870 F   0  0  0  0  0  0  0  0  0  0  0  0
  187.6420  175.8020  143.3950 O   0  0  0  0  0  0  0  0  0  0  0  0
  188.6150  177.8120  145.9290 C   0  0  2  0  0  3  0  0  0  0  0  0
  190.6340  176.5010  146.0040 O   0  0  0  0  0  1  0  0  0  0  0  0
  189.9050  177.3850  145.2000 C   0  0  2  0  0  3  0  0  0  0  0  0
  190.8030  178.5670  144.8290 C   0  0  0  0  0  2  0  0  0  0  0  0
  190.6200  178.8900  143.4800 O   0  0  0  0  0  0  0  0  0  0  0  0
  191.2970  177.8880  142.7760 C   0  0  0  0  0  1  0  0  0  0  0  0
  188.5490  177.1820  147.3440 C   0  0  0  0  0  2  0  0  0  0  0  0
  188.7730  178.1480  148.3340 O   0  0  0  0  0  1  0  0  0  0  0  0
  1 25  1  0  0  0  0
  3  2  1  6  0  0  0
  3  1  1  0  0  0  0
  4  8  1  0  0  0  0
  4  6  2  0  0  0  0
  6  7  1  0  0  0  0
  7  5  1  0  0  0  0
  7  3  1  1  0  0  0
  8 10  1  1  0  0  0
  8  9  1  0  0  0  0
  9  5  1  0  0  0  0
 10 24  1  1  0  0  0
 10 11  1  0  0  0  0
 12 13  2  0  0  0  0
 13 14  1  0  0  0  0
 13 11  1  0  0  0  0
 14 15  1  0  0  0  0
 15 16  1  0  0  0  0
 16 20  1  0  0  0  0
 17 21  1  0  0  0  0
 18 16  1  0  0  0  0
 18 19  1  0  0  0  0
 19 17  1  0  0  0  0
 20 21  1  0  0  0  0
 22 17  2  0  0  0  0
 23 24  2  0  0  0  0
 25 31  1  0  0  0  0
 26 28  1  0  0  0  0
 26 33  1  6  0  0  0
 27 38  1  6  0  0  0
 27 28  1  0  0  0  0
 28 39  1  1  0  0  0
 29 26  1  0  0  0  0
 30 29  1  0  0  0  0
 30 27  1  0  0  0  0
 31 30  1  0  0  0  0
 31 29  1  0  0  0  0
 32 30  1  0  0  0  0
 33 36  1  0  0  0  0
 35 33  2  0  0  0  0
 36 34  1  0  0  0  0
 37 38  1  0  0  0  0
 39 45  1  0  0  0  0
 41 39  1  0  0  0  0
 41 40  1  0  0  0  0
 42 41  1  0  0  0  0
 43 42  1  0  0  0  0
 44 43  1  0  0  0  0
 45 46  1  0  0  0  0
M  END
>  <MODEL>
2

>  <REMARK>
 VINA RESULT:      -7.0      2.950      7.872
  Name = 
  17 active torsions:
  status: ('A' for Active; 'I' for Inactive)
    1  A    between atoms: C_1  and  C_14
    2  A    between atoms: N_2  and  CA_43
    3  A    between atoms: C_3  and  C_5
    4  A    between atoms: C_6  and  C_15
    5  A    between atoms: C_6  and  C_16
    6  A    between atoms: C_6  and  C_40
    7  A    between atoms: C_9  and  O_25
    8  A    between atoms: C_12  and  C_17
    9  A    between atoms: C_12  and  C_42
   10  A    between atoms: C_14  and  O_23
   11  A    between atoms: C_17  and  C_27
   12  A    between atoms: C_22  and  C_42
   13  A    between atoms: O_23  and  C_45
   14  A    between atoms: C_31  and  CA_43
   15  A    between atoms: C_33  and  CA_43
   16  A    between atoms: C_34  and  O_36
   17  A    between atoms: C_34  and  C_40
                            x       y       z     vdW  Elec       q    Type
                         _______ _______ _______ _____ _____    ______ ____

>  <TORSDO>
F 17

$$$$
=
 OpenBabel11062416283D

 46 49  0  0  1  0  0  0  0  0999 V2000
  190.4380  176.8330  140.8540 C   0  0  0  0  0  2  0  0  0  0  0  0
  189.0130  178.5170  141.8830 O   0  0  0  0  0  1  0  0  0  0  0  0
  190.0890  177.6450  142.1150 C   0  0  1  0  0  3  0  0  0  0  0  0
  188.8470  177.8270  145.3350 C   0  0  0  0  0  3  0  0  0  0  0  0
  188.4480  175.9760  143.1940 C   0  0  0  0  0  2  0  0  0  0  0  0
  189.9140  177.4740  144.6070 C   0  0  0  0  0  3  0  0  0  0  0  0
  189.7930  176.7150  143.3120 C   0  0  2  0  0  3  0  0  0  0  0  0
  187.4280  177.4250  144.9960 C   0  0  2  0  0  3  0  0  0  0  0  0
  187.2840  176.8860  143.5650 C   0  0  0  0  0  2  0  0  0  0  0  0
  186.3740  178.5070  145.3420 C   0  0  1  0  0  3  0  0  0  0  0  0
  185.1210  178.2690  144.6290 N   0  0  0  0  0  2  0  0  0  0  0  0
  185.2420  179.9700  143.0410 O   0  0  0  0  0  0  0  0  0  0  0  0
  184.5280  179.2600  143.7930 C   0  0  0  0  0  0  0  0  0  0  0  0
  183.1620  179.5190  143.9440 O   0  0  0  0  0  0  0  0  0  0  0  0
  182.1440  178.5230  143.8620 C   0  0  0  0  0  2  0  0  0  0  0  0
  181.0660  178.8070  142.7890 C   0  0  0  0  0  3  0  0  0  0  0  0
  179.8110  180.0760  140.5410 C   0  0  0  0  0  0  0  0  0  0  0  0
  180.2830  180.1160  142.9800 C   0  0  0  0  0  2  0  0  0  0  0  0
  179.2000  180.2670  141.9010 C   0  0  0  0  0  2  0  0  0  0  0  0
  181.7000  178.7510  141.4000 C   0  0  0  0  0  2  0  0  0  0  0  0
  180.6250  178.8370  140.3230 C   0  0  0  0  0  2  0  0  0  0  0  0
  180.0340  181.0990  139.7870 N   0  0  0  0  0  2  0  0  0  0  0  0
  185.0000  178.9070  147.2410 O   0  0  0  0  0  0  0  0  0  0  0  0
  186.1130  178.6150  146.8250 C   0  0  0  0  0  3  0  0  0  0  0  0
  190.1940  177.6230  139.5700 C   0  0  0  0  0  2  0  0  0  0  0  0
  187.8190  176.3580  136.7150 C   0  0  1  0  0  3  0  0  0  0  0  0
  186.7330  178.1590  137.9730 C   0  0  2  0  0  3  0  0  0  0  0  0
  186.4460  176.9310  137.1330 C   0  0  1  0  0  3  0  0  0  0  0  0
  188.9430  177.1740  137.3740 C   0  0  1  0  0  3  0  0  0  0  0  0
  188.2430  178.2140  138.1800 C   0  0  2  0  0  0  0  0  0  0  0  0
  188.9430  177.0650  138.9060 C   0  0  2  0  0  3  0  0  0  0  0  0
  188.8890  179.4450  138.0440 O   0  0  0  0  0  1  0  0  0  0  0  0
  187.9390  174.8760  136.9380 C   0  0  0  0  0  0  0  0  0  0  0  0
  190.0260  174.7720  135.7170 O   0  0  0  0  0  1  0  0  0  0  0  0
  187.0970  174.2550  137.6520 O   0  0  0  0  0  0  0  0  0  0  0  0
  189.0120  174.1430  136.3560 N   0  0  0  0  0  2  0  0  0  0  0  0
  184.7880  178.3720  138.8700 F   0  0  0  0  0  0  0  0  0  0  0  0
  186.0500  178.1050  139.1950 O   0  0  0  0  0  0  0  0  0  0  0  0
  185.5900  177.3950  135.9260 C   0  0  2  0  0  3  0  0  0  0  0  0
  183.1960  177.4130  135.6600 O   0  0  0  0  0  1  0  0  0  0  0  0
  184.2990  176.5620  135.7990 C   0  0  2  0  0  3  0  0  0  0  0  0
  184.0590  175.6400  136.9970 C   0  0  0  0  0  2  0  0  0  0  0  0
  183.0240  176.1540  137.7850 O   0  0  0  0  0  0  0  0  0  0  0  0
  182.1860  175.0610  138.0330 C   0  0  0  0  0  1  0  0  0  0  0  0
  186.3870  177.3800  134.5950 C   0  0  0  0  0  2  0  0  0  0  0  0
  187.3800  178.3680  134.5940 O   0  0  0  0  0  1  0  0  0  0  0  0
  1  3  1  0  0  0  0
  3  2  1  6  0  0  0
  5  7  1  0  0  0  0
  5  9  1  0  0  0  0
  6  4  2  0  0  0  0
  7  3  1  6  0  0  0
  7  6  1  0  0  0  0
  8  4  1  0  0  0  0
  8 10  1  6  0  0  0
  9  8  1  0  0  0  0
 10 24  1  1  0  0  0
 11 10  1  0  0  0  0
 12 13  2  0  0  0  0
 13 14  1  0  0  0  0
 13 11  1  0  0  0  0
 15 14  1  0  0  0  0
 16 18  1  0  0  0  0
 16 15  1  0  0  0  0
 17 19  1  0  0  0  0
 19 18  1  0  0  0  0
 20 16  1  0  0  0  0
 21 17  1  0  0  0  0
 21 20  1  0  0  0  0
 22 17  2  0  0  0  0
 24 23  2  0  0  0  0
 25  1  1  0  0  0  0
 26 33  1  1  0  0  0
 26 28  1  0  0  0  0
 26 29  1  0  0  0  0
 27 30  1  0  0  0  0
 27 38  1  1  0  0  0
 28 39  1  6  0  0  0
 28 27  1  0  0  0  0
 29 30  1  0  0  0  0
 29 31  1  0  0  0  0
 30 31  1  0  0  0  0
 31 25  1  0  0  0  0
 32 30  1  0  0  0  0
 33 35  2  0  0  0  0
 34 36  1  0  0  0  0
 36 33  1  0  0  0  0
 37 38  1  0  0  0  0
 40 41  1  0  0  0  0
 41 39  1  0  0  0  0
 41 42  1  0  0  0  0
 42 43  1  0  0  0  0
 43 44  1  0  0  0  0
 45 39  1  0  0  0  0
 46 45  1  0  0  0  0
M  END
>  <MODEL>
3

>  <REMARK>
 VINA RESULT:      -7.0      2.491      7.172
  Name = 
  17 active torsions:
  status: ('A' for Active; 'I' for Inactive)
    1  A    between atoms: C_1  and  C_14
    2  A    between atoms: N_2  and  CA_43
    3  A    between atoms: C_3  and  C_5
    4  A    between atoms: C_6  and  C_15
    5  A    between atoms: C_6  and  C_16
    6  A    between atoms: C_6  and  C_40
    7  A    between atoms: C_9  and  O_25
    8  A    between atoms: C_12  and  C_17
    9  A    between atoms: C_12  and  C_42
   10  A    between atoms: C_14  and  O_23
   11  A    between atoms: C_17  and  C_27
   12  A    between atoms: C_22  and  C_42
   13  A    between atoms: O_23  and  C_45
   14  A    between atoms: C_31  and  CA_43
   15  A    between atoms: C_33  and  CA_43
   16  A    between atoms: C_34  and  O_36
   17  A    between atoms: C_34  and  C_40
                            x       y       z     vdW  Elec       q    Type
                         _______ _______ _______ _____ _____    ______ ____

>  <TORSDO>
F 17

$$$$
=
 OpenBabel11062416283D

 46 49  0  0  1  0  0  0  0  0999 V2000
  183.8920  179.2510  141.2620 C   0  0  0  0  0  2  0  0  0  0  0  0
  182.0350  178.9080  142.7990 O   0  0  0  0  0  1  0  0  0  0  0  0
  182.5500  178.5500  141.5430 C   0  0  1  0  0  3  0  0  0  0  0  0
  182.4100  178.7500  138.0950 C   0  0  0  0  0  3  0  0  0  0  0  0
  180.6610  177.6200  140.0550 C   0  0  0  0  0  2  0  0  0  0  0  0
  182.2100  179.4380  139.2260 C   0  0  0  0  0  3  0  0  0  0  0  0
  181.5240  178.8410  140.4260 C   0  0  2  0  0  3  0  0  0  0  0  0
  181.8880  177.3480  137.8620 C   0  0  2  0  0  3  0  0  0  0  0  0
  181.4260  176.6590  139.1550 C   0  0  0  0  0  2  0  0  0  0  0  0
  182.8360  176.4640  137.0120 C   0  0  1  0  0  3  0  0  0  0  0  0
  184.2290  176.8680  137.1850 N   0  0  0  0  0  2  0  0  0  0  0  0
  184.7650  177.3920  134.9790 O   0  0  0  0  0  0  0  0  0  0  0  0
  185.1380  176.9350  136.0900 C   0  0  0  0  0  0  0  0  0  0  0  0
  186.3970  176.3460  136.2390 O   0  0  0  0  0  0  0  0  0  0  0  0
  187.5780  176.8020  135.5810 C   0  0  0  0  0  2  0  0  0  0  0  0
  188.7190  177.2130  136.5410 C   0  0  0  0  0  3  0  0  0  0  0  0
  190.5730  177.0050  138.7220 C   0  0  0  0  0  0  0  0  0  0  0  0
  188.2740  177.5700  137.9690 C   0  0  0  0  0  2  0  0  0  0  0  0
  189.4730  178.0240  138.8170 C   0  0  0  0  0  2  0  0  0  0  0  0
  189.7870  176.1220  136.5630 C   0  0  0  0  0  2  0  0  0  0  0  0
  191.0060  176.5880  137.3500 C   0  0  0  0  0  2  0  0  0  0  0  0
  190.7880  176.1980  139.7060 N   0  0  0  0  0  2  0  0  0  0  0  0
  183.6290  174.3410  137.7310 O   0  0  0  0  0  0  0  0  0  0  0  0
  182.6840  174.9910  137.3090 C   0  0  0  0  0  3  0  0  0  0  0  0
  185.0510  178.2610  141.1590 C   0  0  0  0  0  2  0  0  0  0  0  0
  186.3150  178.7360  144.8440 C   0  0  1  0  0  3  0  0  0  0  0  0
  187.7710  177.1650  143.6520 C   0  0  2  0  0  3  0  0  0  0  0  0
  187.2720  177.5370  145.0340 C   0  0  1  0  0  3  0  0  0  0  0  0
  186.1530  179.0360  143.3440 C   0  0  1  0  0  3  0  0  0  0  0  0
  186.9990  178.0220  142.6540 C   0  0  2  0  0  0  0  0  0  0  0  0
  185.4780  177.8920  142.5730 C   0  0  2  0  0  3  0  0  0  0  0  0
  187.7020  178.6150  141.6030 O   0  0  0  0  0  1  0  0  0  0  0  0
  185.0080  178.5760  145.5710 C   0  0  0  0  0  0  0  0  0  0  0  0
  185.9010  179.5900  147.5790 O   0  0  0  0  0  1  0  0  0  0  0  0
  183.9870  178.1170  144.9800 O   0  0  0  0  0  0  0  0  0  0  0  0
  184.8940  178.9490  146.9400 N   0  0  0  0  0  2  0  0  0  0  0  0
  188.7670  175.4010  142.9250 F   0  0  0  0  0  0  0  0  0  0  0  0
  187.5900  175.7980  143.4020 O   0  0  0  0  0  0  0  0  0  0  0  0
  188.5170  177.8860  145.8890 C   0  0  2  0  0  3  0  0  0  0  0  0
  190.6280  176.7310  146.0070 O   0  0  0  0  0  1  0  0  0  0  0  0
  189.8230  177.5040  145.1630 C   0  0  2  0  0  3  0  0  0  0  0  0
  190.6260  178.7200  144.6950 C   0  0  0  0  0  2  0  0  0  0  0  0
  190.6320  178.7680  143.2970 O   0  0  0  0  0  0  0  0  0  0  0  0
  191.4890  177.7330  142.9050 C   0  0  0  0  0  1  0  0  0  0  0  0
  188.4650  177.2420  147.2990 C   0  0  0  0  0  2  0  0  0  0  0  0
  188.7640  178.1830  148.2920 O   0  0  0  0  0  1  0  0  0  0  0  0
  1  3  1  0  0  0  0
  3  2  1  1  0  0  0
  4  6  2  0  0  0  0
  5  7  1  0  0  0  0
  6  7  1  0  0  0  0
  7  3  1  1  0  0  0
  8 10  1  1  0  0  0
  8  4  1  0  0  0  0
  8  9  1  0  0  0  0
  9  5  1  0  0  0  0
 10 11  1  0  0  0  0
 10 24  1  1  0  0  0
 12 13  2  0  0  0  0
 13 14  1  0  0  0  0
 13 11  1  0  0  0  0
 15 14  1  0  0  0  0
 15 16  1  0  0  0  0
 16 20  1  0  0  0  0
 16 18  1  0  0  0  0
 17 19  1  0  0  0  0
 17 22  2  0  0  0  0
 18 19  1  0  0  0  0
 20 21  1  0  0  0  0
 21 17  1  0  0  0  0
 24 23  2  0  0  0  0
 25  1  1  0  0  0  0
 25 31  1  0  0  0  0
 26 28  1  0  0  0  0
 26 33  1  6  0  0  0
 27 38  1  6  0  0  0
 27 28  1  0  0  0  0
 28 39  1  1  0  0  0
 29 26  1  0  0  0  0
 30 29  1  0  0  0  0
 30 27  1  0  0  0  0
 31 30  1  0  0  0  0
 31 29  1  0  0  0  0
 32 30  1  0  0  0  0
 33 36  1  0  0  0  0
 35 33  2  0  0  0  0
 36 34  1  0  0  0  0
 37 38  1  0  0  0  0
 39 45  1  0  0  0  0
 41 39  1  0  0  0  0
 41 40  1  0  0  0  0
 42 41  1  0  0  0  0
 43 42  1  0  0  0  0
 44 43  1  0  0  0  0
 45 46  1  0  0  0  0
M  END
>  <MODEL>
4

>  <REMARK>
 VINA RESULT:      -6.9      2.565      7.736
  Name = 
  17 active torsions:
  status: ('A' for Active; 'I' for Inactive)
    1  A    between atoms: C_1  and  C_14
    2  A    between atoms: N_2  and  CA_43
    3  A    between atoms: C_3  and  C_5
    4  A    between atoms: C_6  and  C_15
    5  A    between atoms: C_6  and  C_16
    6  A    between atoms: C_6  and  C_40
    7  A    between atoms: C_9  and  O_25
    8  A    between atoms: C_12  and  C_17
    9  A    between atoms: C_12  and  C_42
   10  A    between atoms: C_14  and  O_23
   11  A    between atoms: C_17  and  C_27
   12  A    between atoms: C_22  and  C_42
   13  A    between atoms: O_23  and  C_45
   14  A    between atoms: C_31  and  CA_43
   15  A    between atoms: C_33  and  CA_43
   16  A    between atoms: C_34  and  O_36
   17  A    between atoms: C_34  and  C_40
                            x       y       z     vdW  Elec       q    Type
                         _______ _______ _______ _____ _____    ______ ____

>  <TORSDO>
F 17

$$$$
=
 OpenBabel11062416283D

 46 49  0  0  1  0  0  0  0  0999 V2000
  191.6680  177.6200  140.3090 C   0  0  0  0  0  2  0  0  0  0  0  0
  190.4210  175.8840  141.4750 O   0  0  0  0  0  1  0  0  0  0  0  0
  190.9090  177.1960  141.5810 C   0  0  1  0  0  3  0  0  0  0  0  0
  190.8810  178.8340  144.6240 C   0  0  0  0  0  3  0  0  0  0  0  0
  191.6440  176.1930  143.8380 C   0  0  0  0  0  2  0  0  0  0  0  0
  191.5610  178.6950  143.4790 C   0  0  0  0  0  3  0  0  0  0  0  0
  191.7950  177.3530  142.8360 C   0  0  2  0  0  3  0  0  0  0  0  0
  190.3650  177.6700  145.4420 C   0  0  2  0  0  3  0  0  0  0  0  0
  190.3760  176.3430  144.6680 C   0  0  0  0  0  2  0  0  0  0  0  0
  189.0090  177.9510  146.1390 C   0  0  1  0  0  3  0  0  0  0  0  0
  187.9340  177.1710  145.5330 N   0  0  0  0  0  2  0  0  0  0  0  0
  187.7530  178.2720  143.4870 O   0  0  0  0  0  0  0  0  0  0  0  0
  187.1820  177.6550  144.4220 C   0  0  0  0  0  0  0  0  0  0  0  0
  185.7880  177.5600  144.4760 O   0  0  0  0  0  0  0  0  0  0  0  0
  184.9020  178.6500  144.2270 C   0  0  0  0  0  2  0  0  0  0  0  0
  183.7640  178.3260  143.2310 C   0  0  0  0  0  3  0  0  0  0  0  0
  182.0430  178.6390  140.9550 C   0  0  0  0  0  0  0  0  0  0  0  0
  182.5420  179.2540  143.3100 C   0  0  0  0  0  2  0  0  0  0  0  0
  181.4500  178.8060  142.3260 C   0  0  0  0  0  2  0  0  0  0  0  0
  184.3250  178.2870  141.8100 C   0  0  0  0  0  2  0  0  0  0  0  0
  183.2660  177.7820  140.8360 C   0  0  0  0  0  2  0  0  0  0  0  0
  181.8280  179.5320  140.0480 N   0  0  0  0  0  2  0  0  0  0  0  0
  188.3680  178.3620  148.3910 O   0  0  0  0  0  0  0  0  0  0  0  0
  189.0550  177.6990  147.6270 C   0  0  0  0  0  3  0  0  0  0  0  0
  191.6380  176.5400  139.2300 C   0  0  0  0  0  2  0  0  0  0  0  0
  188.0250  176.7490  137.7120 C   0  0  1  0  0  3  0  0  0  0  0  0
  189.5520  175.7020  136.1060 C   0  0  2  0  0  3  0  0  0  0  0  0
  188.2730  176.5090  136.2060 C   0  0  1  0  0  3  0  0  0  0  0  0
  189.1960  176.1740  138.5270 C   0  0  1  0  0  3  0  0  0  0  0  0
  190.1300  175.6080  137.5140 C   0  0  2  0  0  0  0  0  0  0  0  0
  190.5270  176.8880  138.2490 C   0  0  2  0  0  3  0  0  0  0  0  0
  190.6250  174.3760  137.9490 O   0  0  0  0  0  1  0  0  0  0  0  0
  187.7050  178.1800  138.0430 C   0  0  0  0  0  0  0  0  0  0  0  0
  187.5930  177.7000  140.4130 O   0  0  0  0  0  1  0  0  0  0  0  0
  187.6830  179.0670  137.1400 O   0  0  0  0  0  0  0  0  0  0  0  0
  187.4300  178.5660  139.3850 N   0  0  0  0  0  2  0  0  0  0  0  0
  191.4270  175.3970  135.0940 F   0  0  0  0  0  0  0  0  0  0  0  0
  190.4570  176.2990  135.2190 O   0  0  0  0  0  0  0  0  0  0  0  0
  187.1540  175.6740  135.5330 C   0  0  2  0  0  3  0  0  0  0  0  0
  186.5120  177.9060  134.8940 O   0  0  0  0  0  1  0  0  0  0  0  0
  186.0660  176.5790  134.9220 C   0  0  2  0  0  3  0  0  0  0  0  0
  184.7410  176.5240  135.6860 C   0  0  0  0  0  2  0  0  0  0  0  0
  184.7420  177.4880  136.6990 O   0  0  0  0  0  0  0  0  0  0  0  0
  183.3990  177.6250  137.0660 C   0  0  0  0  0  1  0  0  0  0  0  0
  186.5260  174.6370  136.5010 C   0  0  0  0  0  2  0  0  0  0  0  0
  186.2940  173.4190  135.8490 O   0  0  0  0  0  1  0  0  0  0  0  0
  1  3  1  0  0  0  0
  3  2  1  6  0  0  0
  4  8  1  0  0  0  0
  5  9  1  0  0  0  0
  6  4  2  0  0  0  0
  7  3  1  6  0  0  0
  7  6  1  0  0  0  0
  7  5  1  0  0  0  0
  8 10  1  6  0  0  0
  9  8  1  0  0  0  0
 10 24  1  1  0  0  0
 11 10  1  0  0  0  0
 12 13  2  0  0  0  0
 13 14  1  0  0  0  0
 13 11  1  0  0  0  0
 15 14  1  0  0  0  0
 16 18  1  0  0  0  0
 16 15  1  0  0  0  0
 17 19  1  0  0  0  0
 19 18  1  0  0  0  0
 20 16  1  0  0  0  0
 21 17  1  0  0  0  0
 21 20  1  0  0  0  0
 22 17  2  0  0  0  0
 24 23  2  0  0  0  0
 25  1  1  0  0  0  0
 26 33  1  6  0  0  0
 26 29  1  0  0  0  0
 27 38  1  6  0  0  0
 27 28  1  0  0  0  0
 27 30  1  0  0  0  0
 28 39  1  1  0  0  0
 28 26  1  0  0  0  0
 30 32  1  0  0  0  0
 30 31  1  0  0  0  0
 30 29  1  0  0  0  0
 31 29  1  0  0  0  0
 31 25  1  0  0  0  0
 33 36  1  0  0  0  0
 35 33  2  0  0  0  0
 36 34  1  0  0  0  0
 37 38  1  0  0  0  0
 39 45  1  0  0  0  0
 40 41  1  0  0  0  0
 41 39  1  0  0  0  0
 41 42  1  0  0  0  0
 42 43  1  0  0  0  0
 43 44  1  0  0  0  0
 46 45  1  0  0  0  0
M  END
>  <MODEL>
5

>  <REMARK>
 VINA RESULT:      -6.8      3.167      7.148
  Name = 
  17 active torsions:
  status: ('A' for Active; 'I' for Inactive)
    1  A    between atoms: C_1  and  C_14
    2  A    between atoms: N_2  and  CA_43
    3  A    between atoms: C_3  and  C_5
    4  A    between atoms: C_6  and  C_15
    5  A    between atoms: C_6  and  C_16
    6  A    between atoms: C_6  and  C_40
    7  A    between atoms: C_9  and  O_25
    8  A    between atoms: C_12  and  C_17
    9  A    between atoms: C_12  and  C_42
   10  A    between atoms: C_14  and  O_23
   11  A    between atoms: C_17  and  C_27
   12  A    between atoms: C_22  and  C_42
   13  A    between atoms: O_23  and  C_45
   14  A    between atoms: C_31  and  CA_43
   15  A    between atoms: C_33  and  CA_43
   16  A    between atoms: C_34  and  O_36
   17  A    between atoms: C_34  and  C_40
                            x       y       z     vdW  Elec       q    Type
                         _______ _______ _______ _____ _____    ______ ____

>  <TORSDO>
F 17

$$$$
=
 OpenBabel11062416283D

 46 49  0  0  1  0  0  0  0  0999 V2000
  190.4490  177.3530  140.2820 C   0  0  0  0  0  2  0  0  0  0  0  0
  188.5490  178.8090  139.8410 O   0  0  0  0  0  1  0  0  0  0  0  0
  189.1810  177.6190  139.4490 C   0  0  1  0  0  3  0  0  0  0  0  0
  188.4280  175.8380  136.5840 C   0  0  0  0  0  3  0  0  0  0  0  0
  188.6340  178.6340  137.1440 C   0  0  0  0  0  2  0  0  0  0  0  0
  189.4330  176.2450  137.3690 C   0  0  0  0  0  3  0  0  0  0  0  0
  189.5000  177.6380  137.9380 C   0  0  2  0  0  3  0  0  0  0  0  0
  187.3150  176.7450  136.1040 C   0  0  2  0  0  3  0  0  0  0  0  0
  187.2450  178.0680  136.8820 C   0  0  0  0  0  2  0  0  0  0  0  0
  185.9410  176.0380  135.9910 C   0  0  1  0  0  3  0  0  0  0  0  0
  185.1660  176.1920  137.2190 N   0  0  0  0  0  2  0  0  0  0  0  0
  184.3940  174.0090  137.4770 O   0  0  0  0  0  0  0  0  0  0  0  0
  184.1830  175.2400  137.6180 C   0  0  0  0  0  0  0  0  0  0  0  0
  182.9310  175.7130  138.0230 O   0  0  0  0  0  0  0  0  0  0  0  0
  182.5870  176.0080  139.3760 C   0  0  0  0  0  2  0  0  0  0  0  0
  182.3540  177.5110  139.6560 C   0  0  0  0  0  3  0  0  0  0  0  0
  181.0750  180.0780  139.5390 C   0  0  0  0  0  0  0  0  0  0  0  0
  182.6050  178.4450  138.4610 C   0  0  0  0  0  2  0  0  0  0  0  0
  182.4080  179.9150  138.8650 C   0  0  0  0  0  2  0  0  0  0  0  0
  180.9480  177.7150  140.2180 C   0  0  0  0  0  2  0  0  0  0  0  0
  180.7650  179.1560  140.6790 C   0  0  0  0  0  2  0  0  0  0  0  0
  180.0920  180.6160  138.8990 N   0  0  0  0  0  2  0  0  0  0  0  0
  184.2220  177.3150  134.9580 O   0  0  0  0  0  0  0  0  0  0  0  0
  185.1340  176.5160  134.8070 C   0  0  0  0  0  3  0  0  0  0  0  0
  190.1930  176.3800  141.4300 C   0  0  0  0  0  2  0  0  0  0  0  0
  189.5310  177.2110  145.2080 C   0  0  1  0  0  3  0  0  0  0  0  0
  187.5470  177.7420  143.8710 C   0  0  2  0  0  3  0  0  0  0  0  0
  188.2790  178.1140  145.1450 C   0  0  1  0  0  3  0  0  0  0  0  0
  189.6180  176.3560  143.9320 C   0  0  1  0  0  3  0  0  0  0  0  0
  188.4340  176.7560  143.1190 C   0  0  2  0  0  0  0  0  0  0  0  0
  189.8250  177.1950  142.6620 C   0  0  2  0  0  3  0  0  0  0  0  0
  187.8400  175.6280  142.5480 O   0  0  0  0  0  1  0  0  0  0  0  0
  190.7960  177.9650  145.5150 C   0  0  0  0  0  0  0  0  0  0  0  0
  191.4920  176.3110  147.1390 O   0  0  0  0  0  1  0  0  0  0  0  0
  191.0990  179.0140  144.8740 O   0  0  0  0  0  0  0  0  0  0  0  0
  191.6810  177.5060  146.5310 N   0  0  0  0  0  2  0  0  0  0  0  0
  186.3130  178.4760  142.2680 F   0  0  0  0  0  0  0  0  0  0  0  0
  187.2730  178.8770  143.0970 O   0  0  0  0  0  0  0  0  0  0  0  0
  187.2980  177.8730  146.3210 C   0  0  2  0  0  3  0  0  0  0  0  0
  186.0550  179.6420  147.3820 O   0  0  0  0  0  1  0  0  0  0  0  0
  186.0870  178.8240  146.2470 C   0  0  2  0  0  3  0  0  0  0  0  0
  184.7500  178.0870  146.1350 C   0  0  0  0  0  2  0  0  0  0  0  0
  183.7320  179.0020  145.8490 O   0  0  0  0  0  0  0  0  0  0  0  0
  183.8120  179.2080  144.4670 C   0  0  0  0  0  1  0  0  0  0  0  0
  187.9940  177.9770  147.7030 C   0  0  0  0  0  2  0  0  0  0  0  0
  188.2350  176.7060  148.2400 O   0  0  0  0  0  1  0  0  0  0  0  0
  1 25  1  0  0  0  0
  3  2  1  1  0  0  0
  3  1  1  0  0  0  0
  4  6  2  0  0  0  0
  5  7  1  0  0  0  0
  6  7  1  0  0  0  0
  7  3  1  1  0  0  0
  8 10  1  1  0  0  0
  8  4  1  0  0  0  0
  8  9  1  0  0  0  0
  9  5  1  0  0  0  0
 10 24  1  6  0  0  0
 10 11  1  0  0  0  0
 11 13  1  0  0  0  0
 12 13  2  0  0  0  0
 13 14  1  0  0  0  0
 14 15  1  0  0  0  0
 15 16  1  0  0  0  0
 16 20  1  0  0  0  0
 17 21  1  0  0  0  0
 18 19  1  0  0  0  0
 18 16  1  0  0  0  0
 19 17  1  0  0  0  0
 20 21  1  0  0  0  0
 22 17  2  0  0  0  0
 24 23  2  0  0  0  0
 25 31  1  0  0  0  0
 26 33  1  6  0  0  0
 27 38  1  6  0  0  0
 27 28  1  0  0  0  0
 28 26  1  0  0  0  0
 28 39  1  1  0  0  0
 29 26  1  0  0  0  0
 30 27  1  0  0  0  0
 30 29  1  0  0  0  0
 31 30  1  0  0  0  0
 31 29  1  0  0  0  0
 32 30  1  0  0  0  0
 33 36  1  0  0  0  0
 35 33  2  0  0  0  0
 36 34  1  0  0  0  0
 37 38  1  0  0  0  0
 39 45  1  0  0  0  0
 41 39  1  0  0  0  0
 41 40  1  0  0  0  0
 42 41  1  0  0  0  0
 43 42  1  0  0  0  0
 44 43  1  0  0  0  0
 45 46  1  0  0  0  0
M  END
>  <MODEL>
6

>  <REMARK>
 VINA RESULT:      -6.5      2.469      8.524
  Name = 
  17 active torsions:
  status: ('A' for Active; 'I' for Inactive)
    1  A    between atoms: C_1  and  C_14
    2  A    between atoms: N_2  and  CA_43
    3  A    between atoms: C_3  and  C_5
    4  A    between atoms: C_6  and  C_15
    5  A    between atoms: C_6  and  C_16
    6  A    between atoms: C_6  and  C_40
    7  A    between atoms: C_9  and  O_25
    8  A    between atoms: C_12  and  C_17
    9  A    between atoms: C_12  and  C_42
   10  A    between atoms: C_14  and  O_23
   11  A    between atoms: C_17  and  C_27
   12  A    between atoms: C_22  and  C_42
   13  A    between atoms: O_23  and  C_45
   14  A    between atoms: C_31  and  CA_43
   15  A    between atoms: C_33  and  CA_43
   16  A    between atoms: C_34  and  O_36
   17  A    between atoms: C_34  and  C_40
                            x       y       z     vdW  Elec       q    Type
                         _______ _______ _______ _____ _____    ______ ____

>  <TORSDO>
F 17

$$$$
=
 OpenBabel11062416283D

 46 49  0  0  1  0  0  0  0  0999 V2000
  190.8500  177.8310  143.6730 C   0  0  0  0  0  2  0  0  0  0  0  0
  190.7590  175.8050  142.3250 O   0  0  0  0  0  1  0  0  0  0  0  0
  191.4180  177.0350  142.4830 C   0  0  1  0  0  3  0  0  0  0  0  0
  192.3490  176.7770  139.1640 C   0  0  0  0  0  3  0  0  0  0  0  0
  189.9990  177.7650  140.4590 C   0  0  0  0  0  2  0  0  0  0  0  0
  192.5070  177.5040  140.2770 C   0  0  0  0  0  3  0  0  0  0  0  0
  191.3570  177.8620  141.1800 C   0  0  2  0  0  3  0  0  0  0  0  0
  191.0020  176.3220  138.6420 C   0  0  2  0  0  3  0  0  0  0  0  0
  189.8800  176.4610  139.6820 C   0  0  0  0  0  2  0  0  0  0  0  0
  191.0330  174.9260  137.9700 C   0  0  1  0  0  3  0  0  0  0  0  0
  190.0670  174.8460  136.8780 N   0  0  0  0  0  2  0  0  0  0  0  0
  190.6830  176.7380  135.6650 O   0  0  0  0  0  0  0  0  0  0  0  0
  189.7680  175.9670  136.0490 C   0  0  0  0  0  0  0  0  0  0  0  0
  188.4240  176.2680  135.8050 O   0  0  0  0  0  0  0  0  0  0  0  0
  187.9090  177.5940  135.6970 C   0  0  0  0  0  2  0  0  0  0  0  0
  186.4200  177.7280  136.0970 C   0  0  0  0  0  3  0  0  0  0  0  0
  183.9150  177.0410  137.3190 C   0  0  0  0  0  0  0  0  0  0  0  0
  185.4650  176.7450  135.4000 C   0  0  0  0  0  2  0  0  0  0  0  0
  184.0100  177.0070  135.8190 C   0  0  0  0  0  2  0  0  0  0  0  0
  186.2870  177.6290  137.6160 C   0  0  0  0  0  2  0  0  0  0  0  0
  184.8610  177.9490  138.0450 C   0  0  0  0  0  2  0  0  0  0  0  0
  183.4180  176.0340  137.9550 N   0  0  0  0  0  2  0  0  0  0  0  0
  192.5770  173.5190  136.8340 O   0  0  0  0  0  0  0  0  0  0  0  0
  192.4080  174.5470  137.4740 C   0  0  0  0  0  3  0  0  0  0  0  0
  189.8020  177.0390  144.4510 C   0  0  0  0  0  2  0  0  0  0  0  0
  186.0130  177.8770  145.0330 C   0  0  1  0  0  3  0  0  0  0  0  0
  186.5650  178.0970  142.6560 C   0  0  2  0  0  3  0  0  0  0  0  0
  185.6180  178.6000  143.7260 C   0  0  1  0  0  3  0  0  0  0  0  0
  187.2570  177.0070  144.7890 C   0  0  1  0  0  3  0  0  0  0  0  0
  187.5990  177.2190  143.3530 C   0  0  2  0  0  0  0  0  0  0  0  0
  188.5020  177.8300  144.4250 C   0  0  2  0  0  3  0  0  0  0  0  0
  187.9530  176.0050  142.7580 O   0  0  0  0  0  1  0  0  0  0  0  0
  186.1480  178.8040  146.2100 C   0  0  0  0  0  0  0  0  0  0  0  0
  187.4590  177.1890  147.4450 O   0  0  0  0  0  1  0  0  0  0  0  0
  185.6850  179.9820  146.1660 O   0  0  0  0  0  0  0  0  0  0  0  0
  186.8080  178.3750  147.3950 N   0  0  0  0  0  2  0  0  0  0  0  0
  187.0890  178.8150  140.6960 F   0  0  0  0  0  0  0  0  0  0  0  0
  187.1720  179.1620  141.9770 O   0  0  0  0  0  0  0  0  0  0  0  0
  184.1790  178.2600  143.2570 C   0  0  2  0  0  3  0  0  0  0  0  0
  183.9920  179.5450  141.2280 O   0  0  0  0  0  1  0  0  0  0  0  0
  184.0810  178.2370  141.7180 C   0  0  2  0  0  3  0  0  0  0  0  0
  182.8800  177.4380  141.2060 C   0  0  0  0  0  2  0  0  0  0  0  0
  182.1270  178.2310  140.3330 O   0  0  0  0  0  0  0  0  0  0  0  0
  180.8650  177.6260  140.2980 C   0  0  0  0  0  1  0  0  0  0  0  0
  183.1190  179.2180  143.8610 C   0  0  0  0  0  2  0  0  0  0  0  0
  182.0640  178.4990  144.4350 O   0  0  0  0  0  1  0  0  0  0  0  0
  1 25  1  0  0  0  0
  3  2  1  6  0  0  0
  3  1  1  0  0  0  0
  4  6  2  0  0  0  0
  5  7  1  0  0  0  0
  6  7  1  0  0  0  0
  7  3  1  1  0  0  0
  8 10  1  1  0  0  0
  8  4  1  0  0  0  0
  8  9  1  0  0  0  0
  9  5  1  0  0  0  0
 10 24  1  6  0  0  0
 11 10  1  0  0  0  0
 12 13  2  0  0  0  0
 13 11  1  0  0  0  0
 14 13  1  0  0  0  0
 15 14  1  0  0  0  0
 15 16  1  0  0  0  0
 16 20  1  0  0  0  0
 17 22  2  0  0  0  0
 17 21  1  0  0  0  0
 18 19  1  0  0  0  0
 18 16  1  0  0  0  0
 19 17  1  0  0  0  0
 20 21  1  0  0  0  0
 23 24  2  0  0  0  0
 26 33  1  1  0  0  0
 27 38  1  1  0  0  0
 27 30  1  0  0  0  0
 27 28  1  0  0  0  0
 28 39  1  6  0  0  0
 28 26  1  0  0  0  0
 29 26  1  0  0  0  0
 30 31  1  0  0  0  0
 30 29  1  0  0  0  0
 31 25  1  0  0  0  0
 31 29  1  0  0  0  0
 32 30  1  0  0  0  0
 33 36  1  0  0  0  0
 35 33  2  0  0  0  0
 36 34  1  0  0  0  0
 37 38  1  0  0  0  0
 39 45  1  0  0  0  0
 40 41  1  0  0  0  0
 41 39  1  0  0  0  0
 42 41  1  0  0  0  0
 43 42  1  0  0  0  0
 44 43  1  0  0  0  0
 45 46  1  0  0  0  0
M  END
>  <MODEL>
7

>  <REMARK>
 VINA RESULT:      -6.4      2.544      5.745
  Name = 
  17 active torsions:
  status: ('A' for Active; 'I' for Inactive)
    1  A    between atoms: C_1  and  C_14
    2  A    between atoms: N_2  and  CA_43
    3  A    between atoms: C_3  and  C_5
    4  A    between atoms: C_6  and  C_15
    5  A    between atoms: C_6  and  C_16
    6  A    between atoms: C_6  and  C_40
    7  A    between atoms: C_9  and  O_25
    8  A    between atoms: C_12  and  C_17
    9  A    between atoms: C_12  and  C_42
   10  A    between atoms: C_14  and  O_23
   11  A    between atoms: C_17  and  C_27
   12  A    between atoms: C_22  and  C_42
   13  A    between atoms: O_23  and  C_45
   14  A    between atoms: C_31  and  CA_43
   15  A    between atoms: C_33  and  CA_43
   16  A    between atoms: C_34  and  O_36
   17  A    between atoms: C_34  and  C_40
                            x       y       z     vdW  Elec       q    Type
                         _______ _______ _______ _____ _____    ______ ____

>  <TORSDO>
F 17

$$$$
=
 OpenBabel11062416283D

 46 49  0  0  1  0  0  0  0  0999 V2000
  190.8280  177.2040  141.8020 C   0  0  0  0  0  2  0  0  0  0  0  0
  190.0090  179.0080  143.2170 O   0  0  0  0  0  1  0  0  0  0  0  0
  190.6450  177.7560  143.2280 C   0  0  1  0  0  3  0  0  0  0  0  0
  188.0230  177.7280  145.4800 C   0  0  0  0  0  3  0  0  0  0  0  0
  188.7880  175.9730  143.3560 C   0  0  0  0  0  2  0  0  0  0  0  0
  189.3250  177.4530  145.3350 C   0  0  0  0  0  3  0  0  0  0  0  0
  189.8740  176.7570  144.1170 C   0  0  2  0  0  3  0  0  0  0  0  0
  186.9570  177.2900  144.4980 C   0  0  2  0  0  3  0  0  0  0  0  0
  187.5370  176.8190  143.1560 C   0  0  0  0  0  2  0  0  0  0  0  0
  185.8040  178.3120  144.3330 C   0  0  1  0  0  3  0  0  0  0  0  0
  184.9060  177.9220  143.2480 N   0  0  0  0  0  2  0  0  0  0  0  0
  185.5110  179.5030  141.6470 O   0  0  0  0  0  0  0  0  0  0  0  0
  184.6080  178.7960  142.1620 C   0  0  0  0  0  0  0  0  0  0  0  0
  183.2700  178.9570  141.7920 O   0  0  0  0  0  0  0  0  0  0  0  0
  182.4700  177.9260  141.2150 C   0  0  0  0  0  2  0  0  0  0  0  0
  181.6480  178.3760  139.9850 C   0  0  0  0  0  3  0  0  0  0  0  0
  180.1010  180.1130  138.3030 C   0  0  0  0  0  0  0  0  0  0  0  0
  180.1410  178.5530  140.2350 C   0  0  0  0  0  2  0  0  0  0  0  0
  179.4130  178.9380  138.9380 C   0  0  0  0  0  2  0  0  0  0  0  0
  182.2540  179.6530  139.4040 C   0  0  0  0  0  2  0  0  0  0  0  0
  181.5790  180.0070  138.0840 C   0  0  0  0  0  2  0  0  0  0  0  0
  179.5750  181.2890  138.3870 N   0  0  0  0  0  2  0  0  0  0  0  0
  185.4190  179.2910  146.4650 O   0  0  0  0  0  0  0  0  0  0  0  0
  185.0190  178.5180  145.6060 C   0  0  0  0  0  3  0  0  0  0  0  0
  190.2410  178.1330  140.7410 C   0  0  0  0  0  2  0  0  0  0  0  0
  189.7010  176.4230  137.2510 C   0  0  1  0  0  3  0  0  0  0  0  0
  187.7040  177.6960  137.8800 C   0  0  2  0  0  3  0  0  0  0  0  0
  188.1710  176.5100  137.0610 C   0  0  1  0  0  3  0  0  0  0  0  0
  190.1600  177.4920  138.2570 C   0  0  1  0  0  3  0  0  0  0  0  0
  188.9120  178.1990  138.6640 C   0  0  2  0  0  0  0  0  0  0  0  0
  189.5940  177.2690  139.6680 C   0  0  2  0  0  3  0  0  0  0  0  0
  189.1380  179.5760  138.7290 O   0  0  0  0  0  1  0  0  0  0  0  0
  190.1840  175.0380  137.5830 C   0  0  0  0  0  0  0  0  0  0  0  0
  192.3860  175.8500  138.1730 O   0  0  0  0  0  1  0  0  0  0  0  0
  189.3960  174.0480  137.5420 O   0  0  0  0  0  0  0  0  0  0  0  0
  191.5390  174.8160  137.9580 N   0  0  0  0  0  2  0  0  0  0  0  0
  185.5600  177.5560  138.0060 F   0  0  0  0  0  0  0  0  0  0  0  0
  186.6520  177.3380  138.7340 O   0  0  0  0  0  0  0  0  0  0  0  0
  187.7560  176.7800  135.5920 C   0  0  2  0  0  3  0  0  0  0  0  0
  185.3710  176.6910  135.2640 O   0  0  0  0  0  1  0  0  0  0  0  0
  186.5400  175.9240  135.1840 C   0  0  2  0  0  3  0  0  0  0  0  0
  186.3670  174.6750  136.0510 C   0  0  0  0  0  2  0  0  0  0  0  0
  185.0330  174.5660  136.4560 O   0  0  0  0  0  0  0  0  0  0  0  0
  184.9800  173.3860  137.2070 C   0  0  0  0  0  1  0  0  0  0  0  0
  188.9300  176.5730  134.5990 C   0  0  0  0  0  2  0  0  0  0  0  0
  189.8150  177.6580  134.6370 O   0  0  0  0  0  1  0  0  0  0  0  0
  1  3  1  0  0  0  0
  3  2  1  6  0  0  0
  5  7  1  0  0  0  0
  6  4  2  0  0  0  0
  7  3  1  6  0  0  0
  7  6  1  0  0  0  0
  8 10  1  6  0  0  0
  8  4  1  0  0  0  0
  9  5  1  0  0  0  0
  9  8  1  0  0  0  0
 10 24  1  1  0  0  0
 11 10  1  0  0  0  0
 12 13  2  0  0  0  0
 13 11  1  0  0  0  0
 14 13  1  0  0  0  0
 15 14  1  0  0  0  0
 16 18  1  0  0  0  0
 16 15  1  0  0  0  0
 17 22  2  0  0  0  0
 17 19  1  0  0  0  0
 19 18  1  0  0  0  0
 20 16  1  0  0  0  0
 21 17  1  0  0  0  0
 21 20  1  0  0  0  0
 24 23  2  0  0  0  0
 25  1  1  0  0  0  0
 26 33  1  1  0  0  0
 26 29  1  0  0  0  0
 27 30  1  0  0  0  0
 27 38  1  1  0  0  0
 28 39  1  6  0  0  0
 28 26  1  0  0  0  0
 28 27  1  0  0  0  0
 29 30  1  0  0  0  0
 29 31  1  0  0  0  0
 30 32  1  0  0  0  0
 30 31  1  0  0  0  0
 31 25  1  0  0  0  0
 33 36  1  0  0  0  0
 35 33  2  0  0  0  0
 36 34  1  0  0  0  0
 37 38  1  0  0  0  0
 41 40  1  0  0  0  0
 41 39  1  0  0  0  0
 41 42  1  0  0  0  0
 42 43  1  0  0  0  0
 43 44  1  0  0  0  0
 45 46  1  0  0  0  0
 45 39  1  0  0  0  0
M  END
>  <MODEL>
8

>  <REMARK>
 VINA RESULT:      -6.4      2.671      7.459
  Name = 
  17 active torsions:
  status: ('A' for Active; 'I' for Inactive)
    1  A    between atoms: C_1  and  C_14
    2  A    between atoms: N_2  and  CA_43
    3  A    between atoms: C_3  and  C_5
    4  A    between atoms: C_6  and  C_15
    5  A    between atoms: C_6  and  C_16
    6  A    between atoms: C_6  and  C_40
    7  A    between atoms: C_9  and  O_25
    8  A    between atoms: C_12  and  C_17
    9  A    between atoms: C_12  and  C_42
   10  A    between atoms: C_14  and  O_23
   11  A    between atoms: C_17  and  C_27
   12  A    between atoms: C_22  and  C_42
   13  A    between atoms: O_23  and  C_45
   14  A    between atoms: C_31  and  CA_43
   15  A    between atoms: C_33  and  CA_43
   16  A    between atoms: C_34  and  O_36
   17  A    between atoms: C_34  and  C_40
                            x       y       z     vdW  Elec       q    Type
                         _______ _______ _______ _____ _____    ______ ____

>  <TORSDO>
F 17

$$$$
=
 OpenBabel11062416283D

 46 49  0  0  1  0  0  0  0  0999 V2000
  191.3970  176.3380  139.5040 C   0  0  0  0  0  2  0  0  0  0  0  0
  193.2090  176.8180  137.9500 O   0  0  0  0  0  1  0  0  0  0  0  0
  191.8140  176.7290  138.0730 C   0  0  1  0  0  3  0  0  0  0  0  0
  188.7760  175.3350  137.1900 C   0  0  0  0  0  3  0  0  0  0  0  0
  190.9520  176.3920  135.6670 C   0  0  0  0  0  2  0  0  0  0  0  0
  190.0200  175.0470  137.5940 C   0  0  0  0  0  3  0  0  0  0  0  0
  191.2330  175.7430  137.0360 C   0  0  2  0  0  3  0  0  0  0  0  0
  188.4590  176.3060  136.0730 C   0  0  2  0  0  3  0  0  0  0  0  0
  189.6560  177.1900  135.6910 C   0  0  0  0  0  2  0  0  0  0  0  0
  187.1580  177.1160  136.3020 C   0  0  1  0  0  3  0  0  0  0  0  0
  186.2480  176.4080  137.2000 N   0  0  0  0  0  2  0  0  0  0  0  0
  184.3840  176.2290  135.8140 O   0  0  0  0  0  0  0  0  0  0  0  0
  184.8410  176.3720  136.9760 C   0  0  0  0  0  0  0  0  0  0  0  0
  183.9940  176.6490  138.0530 O   0  0  0  0  0  0  0  0  0  0  0  0
  183.8680  177.9340  138.6610 C   0  0  0  0  0  2  0  0  0  0  0  0
  182.4330  178.2730  139.1310 C   0  0  0  0  0  3  0  0  0  0  0  0
  180.3480  179.6230  140.5700 C   0  0  0  0  0  0  0  0  0  0  0  0
  182.1060  177.8680  140.5780 C   0  0  0  0  0  2  0  0  0  0  0  0
  180.6430  178.1910  140.9190 C   0  0  0  0  0  2  0  0  0  0  0  0
  182.1610  179.7600  138.9100 C   0  0  0  0  0  2  0  0  0  0  0  0
  180.6960  180.0780  139.1850 C   0  0  0  0  0  2  0  0  0  0  0  0
  180.2650  180.5090  141.5050 N   0  0  0  0  0  2  0  0  0  0  0  0
  187.1850  178.7890  137.9900 O   0  0  0  0  0  0  0  0  0  0  0  0
  187.4210  178.5080  136.8240 C   0  0  0  0  0  3  0  0  0  0  0  0
  190.8300  177.5220  140.2840 C   0  0  0  0  0  2  0  0  0  0  0  0
  188.9190  177.5310  143.7120 C   0  0  1  0  0  3  0  0  0  0  0  0
  191.0510  176.3460  143.9430 C   0  0  2  0  0  3  0  0  0  0  0  0
  189.6500  176.4320  144.5140 C   0  0  1  0  0  3  0  0  0  0  0  0
  189.8350  178.0510  142.5910 C   0  0  1  0  0  3  0  0  0  0  0  0
  191.0920  177.2610  142.7240 C   0  0  2  0  0  0  0  0  0  0  0  0
  190.1650  176.9790  141.5410 C   0  0  2  0  0  3  0  0  0  0  0  0
  192.2020  178.0920  142.5520 O   0  0  0  0  0  1  0  0  0  0  0  0
  187.5560  177.1120  143.2310 C   0  0  0  0  0  0  0  0  0  0  0  0
  187.3870  179.0300  141.7640 O   0  0  0  0  0  1  0  0  0  0  0  0
  187.0400  176.0210  143.6120 O   0  0  0  0  0  0  0  0  0  0  0  0
  186.8260  177.9350  142.3280 N   0  0  0  0  0  2  0  0  0  0  0  0
  192.4270  174.7470  144.3720 F   0  0  0  0  0  0  0  0  0  0  0  0
  191.3770  175.0260  143.6030 O   0  0  0  0  0  0  0  0  0  0  0  0
  189.7920  176.7730  146.0190 C   0  0  2  0  0  3  0  0  0  0  0  0
  189.3320  178.5770  147.5480 O   0  0  0  0  0  1  0  0  0  0  0  0
  188.8240  177.8980  146.4350 C   0  0  2  0  0  3  0  0  0  0  0  0
  187.4200  177.3880  146.7710 C   0  0  0  0  0  2  0  0  0  0  0  0
  186.6450  178.4410  147.2680 O   0  0  0  0  0  0  0  0  0  0  0  0
  185.6290  178.6170  146.3220 C   0  0  0  0  0  1  0  0  0  0  0  0
  191.2500  177.1320  146.4090 C   0  0  0  0  0  2  0  0  0  0  0  0
  191.8150  176.1340  147.2120 O   0  0  0  0  0  1  0  0  0  0  0  0
  1 25  1  0  0  0  0
  3  2  1  1  0  0  0
  3  1  1  0  0  0  0
  4  6  2  0  0  0  0
  5  9  1  0  0  0  0
  5  7  1  0  0  0  0
  7  6  1  0  0  0  0
  7  3  1  1  0  0  0
  8 10  1  1  0  0  0
  8  4  1  0  0  0  0
  9  8  1  0  0  0  0
 10 24  1  1  0  0  0
 10 11  1  0  0  0  0
 12 13  2  0  0  0  0
 13 11  1  0  0  0  0
 13 14  1  0  0  0  0
 14 15  1  0  0  0  0
 15 16  1  0  0  0  0
 16 18  1  0  0  0  0
 17 19  1  0  0  0  0
 17 22  2  0  0  0  0
 18 19  1  0  0  0  0
 20 16  1  0  0  0  0
 20 21  1  0  0  0  0
 21 17  1  0  0  0  0
 24 23  2  0  0  0  0
 25 31  1  0  0  0  0
 26 33  1  6  0  0  0
 26 28  1  0  0  0  0
 27 38  1  6  0  0  0
 27 28  1  0  0  0  0
 28 39  1  1  0  0  0
 29 30  1  0  0  0  0
 29 26  1  0  0  0  0
 30 27  1  0  0  0  0
 31 29  1  0  0  0  0
 31 30  1  0  0  0  0
 32 30  1  0  0  0  0
 33 35  2  0  0  0  0
 34 36  1  0  0  0  0
 36 33  1  0  0  0  0
 38 37  1  0  0  0  0
 39 45  1  0  0  0  0
 39 41  1  0  0  0  0
 41 42  1  0  0  0  0
 41 40  1  0  0  0  0
 42 43  1  0  0  0  0
 44 43  1  0  0  0  0
 45 46  1  0  0  0  0
M  END
>  <MODEL>
9

>  <REMARK>
 VINA RESULT:      -6.4      3.139      9.066
  Name = 
  17 active torsions:
  status: ('A' for Active; 'I' for Inactive)
    1  A    between atoms: C_1  and  C_14
    2  A    between atoms: N_2  and  CA_43
    3  A    between atoms: C_3  and  C_5
    4  A    between atoms: C_6  and  C_15
    5  A    between atoms: C_6  and  C_16
    6  A    between atoms: C_6  and  C_40
    7  A    between atoms: C_9  and  O_25
    8  A    between atoms: C_12  and  C_17
    9  A    between atoms: C_12  and  C_42
   10  A    between atoms: C_14  and  O_23
   11  A    between atoms: C_17  and  C_27
   12  A    between atoms: C_22  and  C_42
   13  A    between atoms: O_23  and  C_45
   14  A    between atoms: C_31  and  CA_43
   15  A    between atoms: C_33  and  CA_43
   16  A    between atoms: C_34  and  O_36
   17  A    between atoms: C_34  and  C_40
                            x       y       z     vdW  Elec       q    Type
                         _______ _______ _______ _____ _____    ______ ____

>  <TORSDO>
F 17

$$$$
