=
 OpenBabel11062413373D

 42 45  0  0  1  0  0  0  0  0999 V2000
  186.5690  178.3780  142.6640 C   0  0  0  0  0  3  0  0  0  0  0  0
  183.8270  179.0860  140.1660 C   0  0  0  0  0  0  0  0  0  0  0  0
  185.5060  178.5930  143.4440 C   0  0  1  0  0  3  0  0  0  0  0  0
  185.9620  178.7130  138.9400 N   0  0  0  0  0  0  0  0  0  0  0  0
  184.6610  178.8540  141.3930 C   0  0  0  0  0  0  0  0  0  0  0  0
  186.7000  178.4780  140.1550 C   0  0  0  0  0  3  0  0  0  0  0  0
  184.2930  178.8960  142.6640 C   0  0  0  0  0  3  0  0  0  0  0  0
  186.0610  178.5500  141.3170 C   0  0  0  0  0  0  0  0  0  0  0  0
  184.6810  178.9880  138.9110 C   0  0  0  0  0  3  0  0  0  0  0  0
  181.8820  175.9360  139.8190 O   0  0  0  0  0  1  0  0  0  0  0  0
  182.6790  178.1240  140.0930 C   0  0  0  0  0  0  0  0  0  0  0  0
  182.9030  176.8570  139.9010 N   0  0  0  0  0  0  0  0  0  0  0  0
  179.8440  179.8550  141.5270 C   0  0  1  0  0  3  0  0  0  0  0  0
  179.5470  180.9330  140.4780 C   0  0  0  0  0  2  0  0  0  0  0  0
  181.1890  179.4560  141.4050 O   0  0  0  0  0  0  0  0  0  0  0  0
  181.2870  178.6740  140.2330 C   0  0  1  0  0  3  0  0  0  0  0  0
  179.9990  180.4620  139.1240 C   0  0  0  0  0  3  0  0  0  0  0  0
  181.2460  179.0310  137.7330 O   0  0  0  0  0  1  0  0  0  0  0  0
  180.8470  179.4390  139.0000 C   0  0  0  0  0  0  0  0  0  0  0  0
  179.6020  180.3920  142.9250 C   0  0  0  0  0  2  0  0  0  0  0  0
  179.9750  178.3440  144.2650 C   0  0  0  0  0  1  0  0  0  0  0  0
  178.9310  179.3380  143.7890 C   0  0  0  0  0  2  0  0  0  0  0  0
  185.5300  178.4790  144.9290 C   0  0  0  0  0  2  0  0  0  0  0  0
  186.2880  177.2300  145.3550 C   0  0  0  0  0  2  0  0  0  0  0  0
  189.2760  178.1950  148.2110 N   0  0  0  0  0  0  0  0  0  0  0  0
  187.9820  178.3100  148.5210 N   0  0  0  0  0  0  0  0  0  0  0  0
  188.7230  177.4450  146.0160 C   0  0  0  0  0  0  0  0  0  0  0  0
  187.3620  177.5710  146.3410 C   0  0  0  0  0  0  0  0  0  0  0  0
  187.0100  178.0100  147.6200 C   0  0  0  0  0  3  0  0  0  0  0  0
  189.6780  177.7730  146.9810 C   0  0  0  0  0  3  0  0  0  0  0  0
  189.1680  177.0210  144.6510 C   0  0  0  0  0  2  0  0  0  0  0  0
  190.1010  178.0680  144.0650 C   0  0  0  0  0  2  0  0  0  0  0  0
  190.8250  177.5230  142.8440 C   0  0  0  0  0  2  0  0  0  0  0  0
  189.9000  176.8070  141.9790 N   0  0  0  0  0  2  0  0  0  0  0  0
  190.6230  176.3280  140.9370 O   0  0  0  0  0  0  0  0  0  0  0  0
  189.8700  176.6510  139.8060 C   0  0  0  0  0  2  0  0  0  0  0  0
  190.7370  177.2010  138.7780 N   0  0  0  0  0  0  0  0  0  0  0  0
  189.8910  177.4640  137.6270 C   0  0  0  0  0  1  0  0  0  0  0  0
  191.6610  176.1520  138.3820 C   0  0  0  0  0  2  0  0  0  0  0  0
  193.7390  176.6520  137.3290 O   0  0  0  0  0  0  0  0  0  0  0  0
  193.6180  177.1410  139.5680 O   0  0  0  0  0  1  0  0  0  0  0  0
  193.0560  176.6730  138.3850 C   0  0  0  0  0  0  0  0  0  0  0  0
  1  3  1  0  0  0  0
  2  5  1  0  0  0  0
  3 23  1  6  0  0  0
  4  6  2  0  0  0  0
  5  7  2  0  0  0  0
  6  8  1  0  0  0  0
  7  3  1  0  0  0  0
  8  5  1  0  0  0  0
  8  1  2  0  0  0  0
  9  4  1  0  0  0  0
  9  2  2  0  0  0  0
 10 12  1  0  0  0  0
 11  2  1  0  0  0  0
 12 11  2  0  0  0  0
 13 20  1  1  0  0  0
 14 13  1  0  0  0  0
 15 13  1  0  0  0  0
 16 11  1  6  0  0  0
 16 15  1  0  0  0  0
 17 14  1  0  0  0  0
 18 19  1  0  0  0  0
 19 17  2  0  0  0  0
 19 16  1  0  0  0  0
 20 22  1  0  0  0  0
 22 21  1  0  0  0  0
 23 24  1  0  0  0  0
 24 28  1  0  0  0  0
 25 26  1  0  0  0  0
 27 28  2  0  0  0  0
 27 30  1  0  0  0  0
 28 29  1  0  0  0  0
 29 26  2  0  0  0  0
 30 25  2  0  0  0  0
 31 27  1  0  0  0  0
 32 31  1  0  0  0  0
 33 32  1  0  0  0  0
 34 33  1  0  0  0  0
 35 34  1  0  0  0  0
 36 35  1  0  0  0  0
 37 36  1  0  0  0  0
 38 37  1  0  0  0  0
 39 42  1  0  0  0  0
 39 37  1  0  0  0  0
 40 42  2  0  0  0  0
 42 41  1  0  0  0  0
M  END
>  <MODEL>
1

>  <REMARK>
 VINA RESULT:      -8.1      0.000      0.000
  Name = 
  16 active torsions:
  status: ('A' for Active; 'I' for Inactive)
    1  A    between atoms: C_1  and  C_23
    2  A    between atoms: C_1  and  N_26
    3  A    between atoms: O_4  and  C_19
    4  A    between atoms: O_4  and  N_26
    5  A    between atoms: C_5  and  N_25
    6  A    between atoms: C_5  and  C_39
    7  A    between atoms: C_7  and  C_9
    8  A    between atoms: C_8  and  C_28
    9  A    between atoms: C_9  and  C_27
   10  A    between atoms: C_10  and  C_36
   11  A    between atoms: C_18  and  C_31
   12  A    between atoms: C_19  and  N_25
   13  A    between atoms: C_22  and  C_28
   14  A    between atoms: C_23  and  C_31
   15  A    between atoms: C_24  and  C_41
   16  A    between atoms: C_36  and  C_41
                            x       y       z     vdW  Elec       q    Type
                         _______ _______ _______ _____ _____    ______ ____

>  <TORSDO>
F 16

$$$$
=
 OpenBabel11062413373D

 42 45  0  0  1  0  0  0  0  0999 V2000
  183.1420  179.0940  144.6720 C   0  0  0  0  0  3  0  0  0  0  0  0
  182.2140  178.1510  141.1350 C   0  0  0  0  0  0  0  0  0  0  0  0
  184.3310  178.9060  144.0940 C   0  0  1  0  0  3  0  0  0  0  0  0
  180.1300  178.4940  142.4550 N   0  0  0  0  0  0  0  0  0  0  0  0
  182.9110  178.4860  142.4230 C   0  0  0  0  0  0  0  0  0  0  0  0
  180.8600  178.8280  143.6520 C   0  0  0  0  0  3  0  0  0  0  0  0
  184.2090  178.5210  142.6760 C   0  0  0  0  0  3  0  0  0  0  0  0
  182.1870  178.8190  143.6170 C   0  0  0  0  0  0  0  0  0  0  0  0
  180.7050  178.1850  141.3180 C   0  0  0  0  0  3  0  0  0  0  0  0
  184.2810  180.3610  138.9740 O   0  0  0  0  0  1  0  0  0  0  0  0
  182.6280  179.0780  140.0310 C   0  0  0  0  0  0  0  0  0  0  0  0
  183.8550  179.5040  139.9640 N   0  0  0  0  0  0  0  0  0  0  0  0
  180.5070  181.2330  138.0430 C   0  0  1  0  0  3  0  0  0  0  0  0
  180.9020  180.8570  136.6100 C   0  0  0  0  0  2  0  0  0  0  0  0
  181.5670  180.9040  138.9110 O   0  0  0  0  0  0  0  0  0  0  0  0
  181.5840  179.4980  139.0340 C   0  0  1  0  0  3  0  0  0  0  0  0
  181.3980  179.4390  136.5750 C   0  0  0  0  0  3  0  0  0  0  0  0
  182.2200  177.5000  137.6250 O   0  0  0  0  0  1  0  0  0  0  0  0
  181.7630  178.8100  137.6940 C   0  0  0  0  0  0  0  0  0  0  0  0
  180.2150  182.7180  138.1430 C   0  0  0  0  0  2  0  0  0  0  0  0
  181.5740  184.5790  137.2410 C   0  0  0  0  0  1  0  0  0  0  0  0
  180.6510  183.4310  136.8750 C   0  0  0  0  0  2  0  0  0  0  0  0
  185.6330  179.1210  144.7860 C   0  0  0  0  0  2  0  0  0  0  0  0
  186.4190  177.8200  144.8590 C   0  0  0  0  0  2  0  0  0  0  0  0
  188.9850  177.8370  148.2400 N   0  0  0  0  0  0  0  0  0  0  0  0
  187.6970  178.1680  148.3670 N   0  0  0  0  0  0  0  0  0  0  0  0
  188.7000  177.4700  145.9010 C   0  0  0  0  0  0  0  0  0  0  0  0
  187.3470  177.8240  146.0340 C   0  0  0  0  0  0  0  0  0  0  0  0
  186.8590  178.1730  147.2960 C   0  0  0  0  0  3  0  0  0  0  0  0
  189.5140  177.4880  147.0350 C   0  0  0  0  0  3  0  0  0  0  0  0
  189.2950  177.1280  144.5710 C   0  0  0  0  0  2  0  0  0  0  0  0
  190.8050  177.0150  144.6940 C   0  0  0  0  0  2  0  0  0  0  0  0
  191.4230  176.5620  143.3810 C   0  0  0  0  0  2  0  0  0  0  0  0
  190.3870  176.1630  142.4400 N   0  0  0  0  0  2  0  0  0  0  0  0
  190.4620  177.0130  141.3870 O   0  0  0  0  0  0  0  0  0  0  0  0
  189.2120  176.9200  140.7690 C   0  0  0  0  0  2  0  0  0  0  0  0
  188.7300  178.2480  140.4300 N   0  0  0  0  0  0  0  0  0  0  0  0
  187.7010  178.5700  141.4010 C   0  0  0  0  0  1  0  0  0  0  0  0
  188.0690  178.1530  139.1390 C   0  0  0  0  0  2  0  0  0  0  0  0
  189.9460  177.7110  137.7390 O   0  0  0  0  0  1  0  0  0  0  0  0
  188.9180  179.7370  137.4120 O   0  0  0  0  0  0  0  0  0  0  0  0
  189.0220  178.5070  138.0510 C   0  0  0  0  0  0  0  0  0  0  0  0
  2  9  2  0  0  0  0
  2  5  1  0  0  0  0
  3  1  1  0  0  0  0
  3 23  1  6  0  0  0
  4  6  2  0  0  0  0
  5  7  2  0  0  0  0
  5  8  1  0  0  0  0
  7  3  1  0  0  0  0
  8  6  1  0  0  0  0
  8  1  2  0  0  0  0
  9  4  1  0  0  0  0
 10 12  1  0  0  0  0
 11  2  1  0  0  0  0
 12 11  2  0  0  0  0
 13 20  1  6  0  0  0
 13 15  1  0  0  0  0
 14 13  1  0  0  0  0
 15 16  1  0  0  0  0
 16 11  1  1  0  0  0
 17 14  1  0  0  0  0
 17 19  2  0  0  0  0
 18 19  1  0  0  0  0
 19 16  1  0  0  0  0
 22 21  1  0  0  0  0
 22 20  1  0  0  0  0
 23 24  1  0  0  0  0
 24 28  1  0  0  0  0
 25 26  1  0  0  0  0
 27 28  2  0  0  0  0
 27 30  1  0  0  0  0
 28 29  1  0  0  0  0
 29 26  2  0  0  0  0
 30 25  2  0  0  0  0
 31 32  1  0  0  0  0
 31 27  1  0  0  0  0
 33 32  1  0  0  0  0
 34 33  1  0  0  0  0
 35 34  1  0  0  0  0
 36 35  1  0  0  0  0
 37 36  1  0  0  0  0
 37 38  1  0  0  0  0
 39 37  1  0  0  0  0
 40 42  1  0  0  0  0
 41 42  2  0  0  0  0
 42 39  1  0  0  0  0
M  END
>  <MODEL>
2

>  <REMARK>
 VINA RESULT:      -8.1      2.115      3.667
  Name = 
  16 active torsions:
  status: ('A' for Active; 'I' for Inactive)
    1  A    between atoms: C_1  and  C_23
    2  A    between atoms: C_1  and  N_26
    3  A    between atoms: O_4  and  C_19
    4  A    between atoms: O_4  and  N_26
    5  A    between atoms: C_5  and  N_25
    6  A    between atoms: C_5  and  C_39
    7  A    between atoms: C_7  and  C_9
    8  A    between atoms: C_8  and  C_28
    9  A    between atoms: C_9  and  C_27
   10  A    between atoms: C_10  and  C_36
   11  A    between atoms: C_18  and  C_31
   12  A    between atoms: C_19  and  N_25
   13  A    between atoms: C_22  and  C_28
   14  A    between atoms: C_23  and  C_31
   15  A    between atoms: C_24  and  C_41
   16  A    between atoms: C_36  and  C_41
                            x       y       z     vdW  Elec       q    Type
                         _______ _______ _______ _____ _____    ______ ____

>  <TORSDO>
F 16

$$$$
=
 OpenBabel11062413373D

 42 45  0  0  1  0  0  0  0  0999 V2000
  183.4370  179.2980  144.3720 C   0  0  0  0  0  3  0  0  0  0  0  0
  182.6810  177.8890  140.9520 C   0  0  0  0  0  0  0  0  0  0  0  0
  184.6110  178.7850  143.9980 C   0  0  1  0  0  3  0  0  0  0  0  0
  180.5960  178.8590  141.9060 N   0  0  0  0  0  0  0  0  0  0  0  0
  183.3040  178.3270  142.2470 C   0  0  0  0  0  0  0  0  0  0  0  0
  181.2600  179.2730  143.1160 C   0  0  0  0  0  3  0  0  0  0  0  0
  184.5500  178.1670  142.6610 C   0  0  0  0  0  3  0  0  0  0  0  0
  182.5520  179.0100  143.2600 C   0  0  0  0  0  0  0  0  0  0  0  0
  181.2010  178.2380  140.9240 C   0  0  0  0  0  3  0  0  0  0  0  0
  184.5940  180.2640  138.8250 O   0  0  0  0  0  1  0  0  0  0  0  0
  183.3840  178.4940  139.7730 C   0  0  0  0  0  0  0  0  0  0  0  0
  183.9450  179.6630  139.8800 N   0  0  0  0  0  0  0  0  0  0  0  0
  183.5770  175.6730  137.5160 C   0  0  1  0  0  3  0  0  0  0  0  0
  182.2250  175.7300  136.7970 C   0  0  0  0  0  2  0  0  0  0  0  0
  183.4640  176.3330  138.7550 O   0  0  0  0  0  0  0  0  0  0  0  0
  183.4000  177.7170  138.4860 C   0  0  1  0  0  3  0  0  0  0  0  0
  181.7210  177.1450  136.7730 C   0  0  0  0  0  3  0  0  0  0  0  0
  181.7380  179.3690  137.5440 O   0  0  0  0  0  1  0  0  0  0  0  0
  182.2290  178.0700  137.5900 C   0  0  0  0  0  0  0  0  0  0  0  0
  183.9990  174.2340  137.7460 C   0  0  0  0  0  2  0  0  0  0  0  0
  185.9610  175.3050  136.6840 C   0  0  0  0  0  1  0  0  0  0  0  0
  185.4450  174.0320  137.3290 C   0  0  0  0  0  2  0  0  0  0  0  0
  185.8560  178.8800  144.8110 C   0  0  0  0  0  2  0  0  0  0  0  0
  186.2280  177.5180  145.3790 C   0  0  0  0  0  2  0  0  0  0  0  0
  189.5070  177.8370  148.0550 N   0  0  0  0  0  0  0  0  0  0  0  0
  188.2680  178.1250  148.4660 N   0  0  0  0  0  0  0  0  0  0  0  0
  188.7040  177.3210  145.8700 C   0  0  0  0  0  0  0  0  0  0  0  0
  187.4030  177.6290  146.3000 C   0  0  0  0  0  0  0  0  0  0  0  0
  187.2060  178.0330  147.6240 C   0  0  0  0  0  3  0  0  0  0  0  0
  189.7580  177.4390  146.7780 C   0  0  0  0  0  3  0  0  0  0  0  0
  188.9890  176.9240  144.4550 C   0  0  0  0  0  2  0  0  0  0  0  0
  189.9890  177.8890  143.8400 C   0  0  0  0  0  2  0  0  0  0  0  0
  191.1620  177.1390  143.2310 C   0  0  0  0  0  2  0  0  0  0  0  0
  191.1720  177.2930  141.7840 N   0  0  0  0  0  2  0  0  0  0  0  0
  189.8830  177.2190  141.3710 O   0  0  0  0  0  0  0  0  0  0  0  0
  189.9220  177.6000  140.0270 C   0  0  0  0  0  2  0  0  0  0  0  0
  188.7600  178.4130  139.7120 N   0  0  0  0  0  0  0  0  0  0  0  0
  187.8660  178.3090  140.8500 C   0  0  0  0  0  1  0  0  0  0  0  0
  188.0810  177.7850  138.5910 C   0  0  0  0  0  2  0  0  0  0  0  0
  188.1710  177.9770  136.2180 O   0  0  0  0  0  0  0  0  0  0  0  0
  188.9510  179.7890  137.3910 O   0  0  0  0  0  1  0  0  0  0  0  0
  188.3860  178.5200  137.3330 C   0  0  0  0  0  0  0  0  0  0  0  0
  2  5  1  0  0  0  0
  3  1  1  0  0  0  0
  3 23  1  6  0  0  0
  4  6  2  0  0  0  0
  5  7  2  0  0  0  0
  5  8  1  0  0  0  0
  6  8  1  0  0  0  0
  7  3  1  0  0  0  0
  8  1  2  0  0  0  0
  9  2  2  0  0  0  0
  9  4  1  0  0  0  0
 10 12  1  0  0  0  0
 11 12  2  0  0  0  0
 11  2  1  0  0  0  0
 13 20  1  1  0  0  0
 13 15  1  0  0  0  0
 14 13  1  0  0  0  0
 16 15  1  0  0  0  0
 16 11  1  1  0  0  0
 17 14  1  0  0  0  0
 17 19  2  0  0  0  0
 18 19  1  0  0  0  0
 19 16  1  0  0  0  0
 21 22  1  0  0  0  0
 22 20  1  0  0  0  0
 23 24  1  0  0  0  0
 24 28  1  0  0  0  0
 25 26  1  0  0  0  0
 27 28  2  0  0  0  0
 27 30  1  0  0  0  0
 28 29  1  0  0  0  0
 29 26  2  0  0  0  0
 30 25  2  0  0  0  0
 31 27  1  0  0  0  0
 32 31  1  0  0  0  0
 33 32  1  0  0  0  0
 34 33  1  0  0  0  0
 35 34  1  0  0  0  0
 36 35  1  0  0  0  0
 37 36  1  0  0  0  0
 37 38  1  0  0  0  0
 39 37  1  0  0  0  0
 40 42  2  0  0  0  0
 42 41  1  0  0  0  0
 42 39  1  0  0  0  0
M  END
>  <MODEL>
3

>  <REMARK>
 VINA RESULT:      -8.0      2.461      4.240
  Name = 
  16 active torsions:
  status: ('A' for Active; 'I' for Inactive)
    1  A    between atoms: C_1  and  C_23
    2  A    between atoms: C_1  and  N_26
    3  A    between atoms: O_4  and  C_19
    4  A    between atoms: O_4  and  N_26
    5  A    between atoms: C_5  and  N_25
    6  A    between atoms: C_5  and  C_39
    7  A    between atoms: C_7  and  C_9
    8  A    between atoms: C_8  and  C_28
    9  A    between atoms: C_9  and  C_27
   10  A    between atoms: C_10  and  C_36
   11  A    between atoms: C_18  and  C_31
   12  A    between atoms: C_19  and  N_25
   13  A    between atoms: C_22  and  C_28
   14  A    between atoms: C_23  and  C_31
   15  A    between atoms: C_24  and  C_41
   16  A    between atoms: C_36  and  C_41
                            x       y       z     vdW  Elec       q    Type
                         _______ _______ _______ _____ _____    ______ ____

>  <TORSDO>
F 16

$$$$
=
 OpenBabel11062413373D

 42 45  0  0  1  0  0  0  0  0999 V2000
  183.0410  179.2660  144.4150 C   0  0  0  0  0  3  0  0  0  0  0  0
  182.7730  177.9960  140.8690 C   0  0  0  0  0  0  0  0  0  0  0  0
  184.2810  178.8420  144.1580 C   0  0  1  0  0  3  0  0  0  0  0  0
  180.5350  178.7930  141.6140 N   0  0  0  0  0  0  0  0  0  0  0  0
  183.2140  178.4010  142.2460 C   0  0  0  0  0  0  0  0  0  0  0  0
  181.0280  179.1810  142.9120 C   0  0  0  0  0  3  0  0  0  0  0  0
  184.4130  178.2920  142.7970 C   0  0  0  0  0  3  0  0  0  0  0  0
  182.3100  178.9860  143.1950 C   0  0  0  0  0  0  0  0  0  0  0  0
  181.2870  178.2600  140.6830 C   0  0  0  0  0  3  0  0  0  0  0  0
  184.2630  180.6950  138.7890 O   0  0  0  0  0  1  0  0  0  0  0  0
  183.5660  178.7020  139.8100 C   0  0  0  0  0  0  0  0  0  0  0  0
  183.5580  180.0020  139.7480 N   0  0  0  0  0  0  0  0  0  0  0  0
  184.4460  177.0240  136.7270 C   0  0  1  0  0  3  0  0  0  0  0  0
  185.7970  177.6580  136.3780 C   0  0  0  0  0  2  0  0  0  0  0  0
  183.7300  177.9040  137.5620 O   0  0  0  0  0  0  0  0  0  0  0  0
  184.3430  177.8630  138.8330 C   0  0  1  0  0  3  0  0  0  0  0  0
  186.4830  178.1170  137.6330 C   0  0  0  0  0  3  0  0  0  0  0  0
  186.4700  178.6900  139.9160 O   0  0  0  0  0  1  0  0  0  0  0  0
  185.8050  178.2610  138.7740 C   0  0  0  0  0  0  0  0  0  0  0  0
  183.6420  176.7560  135.4690 C   0  0  0  0  0  2  0  0  0  0  0  0
  184.3250  174.3900  135.2190 C   0  0  0  0  0  1  0  0  0  0  0  0
  183.1480  175.3200  135.4510 C   0  0  0  0  0  2  0  0  0  0  0  0
  185.4150  178.9670  145.1160 C   0  0  0  0  0  2  0  0  0  0  0  0
  186.3950  177.8170  144.9330 C   0  0  0  0  0  2  0  0  0  0  0  0
  189.1400  177.7190  148.1700 N   0  0  0  0  0  0  0  0  0  0  0  0
  187.8850  178.1380  148.3600 N   0  0  0  0  0  0  0  0  0  0  0  0
  188.7030  177.3340  145.8580 C   0  0  0  0  0  0  0  0  0  0  0  0
  187.3850  177.7790  146.0560 C   0  0  0  0  0  0  0  0  0  0  0  0
  186.9920  178.1800  147.3360 C   0  0  0  0  0  3  0  0  0  0  0  0
  189.5780  177.3170  146.9460 C   0  0  0  0  0  3  0  0  0  0  0  0
  189.2000  176.9320  144.5040 C   0  0  0  0  0  2  0  0  0  0  0  0
  190.1730  177.9750  143.9810 C   0  0  0  0  0  2  0  0  0  0  0  0
  190.6580  177.6120  142.5870 C   0  0  0  0  0  2  0  0  0  0  0  0
  189.9630  176.4310  142.0960 N   0  0  0  0  0  2  0  0  0  0  0  0
  190.5180  176.1140  140.9010 O   0  0  0  0  0  0  0  0  0  0  0  0
  190.6580  177.3380  140.2410 C   0  0  0  0  0  2  0  0  0  0  0  0
  190.7790  177.1150  138.8110 N   0  0  0  0  0  0  0  0  0  0  0  0
  189.5140  176.5510  138.3760 C   0  0  0  0  0  1  0  0  0  0  0  0
  191.7820  176.0820  138.6150 C   0  0  0  0  0  2  0  0  0  0  0  0
  193.7370  176.6260  137.3660 O   0  0  0  0  0  0  0  0  0  0  0  0
  193.7310  177.3200  139.5540 O   0  0  0  0  0  1  0  0  0  0  0  0
  193.1280  176.7000  138.4650 C   0  0  0  0  0  0  0  0  0  0  0  0
  2  5  1  0  0  0  0
  3  1  1  0  0  0  0
  3 23  1  6  0  0  0
  4  6  2  0  0  0  0
  5  7  2  0  0  0  0
  5  8  1  0  0  0  0
  6  8  1  0  0  0  0
  7  3  1  0  0  0  0
  8  1  2  0  0  0  0
  9  2  2  0  0  0  0
  9  4  1  0  0  0  0
 10 12  1  0  0  0  0
 11  2  1  0  0  0  0
 12 11  2  0  0  0  0
 13 20  1  6  0  0  0
 13 15  1  0  0  0  0
 14 13  1  0  0  0  0
 14 17  1  0  0  0  0
 15 16  1  0  0  0  0
 16 11  1  1  0  0  0
 17 19  2  0  0  0  0
 19 16  1  0  0  0  0
 19 18  1  0  0  0  0
 21 22  1  0  0  0  0
 22 20  1  0  0  0  0
 24 23  1  0  0  0  0
 24 28  1  0  0  0  0
 25 26  1  0  0  0  0
 27 28  2  0  0  0  0
 27 30  1  0  0  0  0
 28 29  1  0  0  0  0
 29 26  2  0  0  0  0
 30 25  2  0  0  0  0
 31 27  1  0  0  0  0
 32 31  1  0  0  0  0
 33 32  1  0  0  0  0
 34 33  1  0  0  0  0
 35 34  1  0  0  0  0
 36 35  1  0  0  0  0
 37 36  1  0  0  0  0
 38 37  1  0  0  0  0
 39 37  1  0  0  0  0
 40 42  2  0  0  0  0
 42 39  1  0  0  0  0
 42 41  1  0  0  0  0
M  END
>  <MODEL>
4

>  <REMARK>
 VINA RESULT:      -7.8      2.155      4.219
  Name = 
  16 active torsions:
  status: ('A' for Active; 'I' for Inactive)
    1  A    between atoms: C_1  and  C_23
    2  A    between atoms: C_1  and  N_26
    3  A    between atoms: O_4  and  C_19
    4  A    between atoms: O_4  and  N_26
    5  A    between atoms: C_5  and  N_25
    6  A    between atoms: C_5  and  C_39
    7  A    between atoms: C_7  and  C_9
    8  A    between atoms: C_8  and  C_28
    9  A    between atoms: C_9  and  C_27
   10  A    between atoms: C_10  and  C_36
   11  A    between atoms: C_18  and  C_31
   12  A    between atoms: C_19  and  N_25
   13  A    between atoms: C_22  and  C_28
   14  A    between atoms: C_23  and  C_31
   15  A    between atoms: C_24  and  C_41
   16  A    between atoms: C_36  and  C_41
                            x       y       z     vdW  Elec       q    Type
                         _______ _______ _______ _____ _____    ______ ____

>  <TORSDO>
F 16

$$$$
=
 OpenBabel11062413373D

 42 45  0  0  1  0  0  0  0  0999 V2000
  187.2170  178.3440  140.6650 C   0  0  0  0  0  3  0  0  0  0  0  0
  189.7320  177.1790  143.2290 C   0  0  0  0  0  0  0  0  0  0  0  0
  186.5940  178.5850  141.8220 C   0  0  1  0  0  3  0  0  0  0  0  0
  190.6480  176.7650  140.9510 N   0  0  0  0  0  0  0  0  0  0  0  0
  188.5400  177.7200  142.4930 C   0  0  0  0  0  0  0  0  0  0  0  0
  189.4830  177.3170  140.3070 C   0  0  0  0  0  3  0  0  0  0  0  0
  187.4100  178.1990  142.9870 C   0  0  0  0  0  3  0  0  0  0  0  0
  188.4870  177.7680  141.0600 C   0  0  0  0  0  0  0  0  0  0  0  0
  190.7880  176.6870  142.2510 C   0  0  0  0  0  3  0  0  0  0  0  0
  191.6480  180.1030  144.4980 O   0  0  0  0  0  1  0  0  0  0  0  0
  190.3150  178.2040  144.1560 C   0  0  0  0  0  0  0  0  0  0  0  0
  191.0830  179.1440  143.6870 N   0  0  0  0  0  0  0  0  0  0  0  0
  188.3610  177.9730  147.1920 C   0  0  1  0  0  3  0  0  0  0  0  0
  188.8170  176.6320  147.7790 C   0  0  0  0  0  2  0  0  0  0  0  0
  188.6000  177.9700  145.8040 O   0  0  0  0  0  0  0  0  0  0  0  0
  189.9940  178.0950  145.6210 C   0  0  1  0  0  3  0  0  0  0  0  0
  190.2180  176.3300  147.3280 C   0  0  0  0  0  3  0  0  0  0  0  0
  192.0590  176.6670  145.9000 O   0  0  0  0  0  1  0  0  0  0  0  0
  190.7610  176.9730  146.2930 C   0  0  0  0  0  0  0  0  0  0  0  0
  186.8830  178.1930  147.4500 C   0  0  0  0  0  2  0  0  0  0  0  0
  185.2460  179.0360  145.7950 C   0  0  0  0  0  1  0  0  0  0  0  0
  186.0700  177.8330  146.2180 C   0  0  0  0  0  2  0  0  0  0  0  0
  185.2540  179.2290  141.9240 C   0  0  0  0  0  2  0  0  0  0  0  0
  184.2370  178.2540  142.4990 C   0  0  0  0  0  2  0  0  0  0  0  0
  180.2870  179.4620  141.5250 N   0  0  0  0  0  0  0  0  0  0  0  0
  180.8130  179.7670  142.7150 N   0  0  0  0  0  0  0  0  0  0  0  0
  182.2920  178.3460  140.8800 C   0  0  0  0  0  0  0  0  0  0  0  0
  182.8440  178.6620  142.1330 C   0  0  0  0  0  0  0  0  0  0  0  0
  182.0740  179.3860  143.0470 C   0  0  0  0  0  3  0  0  0  0  0  0
  180.9890  178.7590  140.5950 C   0  0  0  0  0  3  0  0  0  0  0  0
  183.0470  177.5370  139.8720 C   0  0  0  0  0  2  0  0  0  0  0  0
  183.5300  178.4350  138.7460 C   0  0  0  0  0  2  0  0  0  0  0  0
  183.4880  177.7040  137.4140 C   0  0  0  0  0  2  0  0  0  0  0  0
  184.2100  176.4430  137.5000 N   0  0  0  0  0  2  0  0  0  0  0  0
  184.7570  176.2170  136.2800 O   0  0  0  0  0  0  0  0  0  0  0  0
  185.9300  175.5060  136.5460 C   0  0  0  0  0  2  0  0  0  0  0  0
  187.0740  176.2270  136.0160 N   0  0  0  0  0  0  0  0  0  0  0  0
  187.9200  175.2380  135.3740 C   0  0  0  0  0  1  0  0  0  0  0  0
  187.8250  176.7440  137.1480 C   0  0  0  0  0  2  0  0  0  0  0  0
  186.8450  178.9150  137.1250 O   0  0  0  0  0  1  0  0  0  0  0  0
  189.1290  178.8540  136.9060 O   0  0  0  0  0  0  0  0  0  0  0  0
  187.8990  178.2290  137.0750 C   0  0  0  0  0  0  0  0  0  0  0  0
  1  8  2  0  0  0  0
  1  3  1  0  0  0  0
  2 11  1  0  0  0  0
  3 23  1  1  0  0  0
  3  7  1  0  0  0  0
  4  9  1  0  0  0  0
  5  7  2  0  0  0  0
  5  2  1  0  0  0  0
  6  4  2  0  0  0  0
  6  8  1  0  0  0  0
  8  5  1  0  0  0  0
  9  2  2  0  0  0  0
 12 11  2  0  0  0  0
 12 10  1  0  0  0  0
 13 20  1  6  0  0  0
 13 14  1  0  0  0  0
 15 13  1  0  0  0  0
 16 11  1  6  0  0  0
 16 15  1  0  0  0  0
 16 19  1  0  0  0  0
 17 14  1  0  0  0  0
 18 19  1  0  0  0  0
 19 17  2  0  0  0  0
 21 22  1  0  0  0  0
 22 20  1  0  0  0  0
 23 24  1  0  0  0  0
 25 26  1  0  0  0  0
 26 29  2  0  0  0  0
 27 28  2  0  0  0  0
 28 24  1  0  0  0  0
 28 29  1  0  0  0  0
 30 27  1  0  0  0  0
 30 25  2  0  0  0  0
 31 27  1  0  0  0  0
 32 31  1  0  0  0  0
 33 34  1  0  0  0  0
 33 32  1  0  0  0  0
 35 36  1  0  0  0  0
 35 34  1  0  0  0  0
 37 36  1  0  0  0  0
 37 39  1  0  0  0  0
 38 37  1  0  0  0  0
 41 42  2  0  0  0  0
 42 40  1  0  0  0  0
 42 39  1  0  0  0  0
M  END
>  <MODEL>
5

>  <REMARK>
 VINA RESULT:      -7.7      2.907      7.955
  Name = 
  16 active torsions:
  status: ('A' for Active; 'I' for Inactive)
    1  A    between atoms: C_1  and  C_23
    2  A    between atoms: C_1  and  N_26
    3  A    between atoms: O_4  and  C_19
    4  A    between atoms: O_4  and  N_26
    5  A    between atoms: C_5  and  N_25
    6  A    between atoms: C_5  and  C_39
    7  A    between atoms: C_7  and  C_9
    8  A    between atoms: C_8  and  C_28
    9  A    between atoms: C_9  and  C_27
   10  A    between atoms: C_10  and  C_36
   11  A    between atoms: C_18  and  C_31
   12  A    between atoms: C_19  and  N_25
   13  A    between atoms: C_22  and  C_28
   14  A    between atoms: C_23  and  C_31
   15  A    between atoms: C_24  and  C_41
   16  A    between atoms: C_36  and  C_41
                            x       y       z     vdW  Elec       q    Type
                         _______ _______ _______ _____ _____    ______ ____

>  <TORSDO>
F 16

$$$$
=
 OpenBabel11062413373D

 42 45  0  0  1  0  0  0  0  0999 V2000
  187.1370  178.2840  140.4450 C   0  0  0  0  0  3  0  0  0  0  0  0
  189.5880  177.1650  143.0910 C   0  0  0  0  0  0  0  0  0  0  0  0
  186.4800  178.5310  141.5810 C   0  0  1  0  0  3  0  0  0  0  0  0
  190.5700  176.7350  140.8430 N   0  0  0  0  0  0  0  0  0  0  0  0
  188.4130  177.6880  142.3160 C   0  0  0  0  0  0  0  0  0  0  0  0
  189.4200  177.2720  140.1610 C   0  0  0  0  0  3  0  0  0  0  0  0
  187.2650  178.1620  142.7730 C   0  0  0  0  0  3  0  0  0  0  0  0
  188.4000  177.7220  140.8810 C   0  0  0  0  0  0  0  0  0  0  0  0
  190.6750  176.6710  142.1480 C   0  0  0  0  0  3  0  0  0  0  0  0
  191.5070  180.0690  144.3990 O   0  0  0  0  0  1  0  0  0  0  0  0
  190.1360  178.2030  144.0230 C   0  0  0  0  0  0  0  0  0  0  0  0
  190.9700  179.0990  143.5810 N   0  0  0  0  0  0  0  0  0  0  0  0
  187.9630  177.9710  146.9060 C   0  0  1  0  0  3  0  0  0  0  0  0
  188.4980  176.7270  147.6250 C   0  0  0  0  0  2  0  0  0  0  0  0
  188.3190  177.9000  145.5450 O   0  0  0  0  0  0  0  0  0  0  0  0
  189.7040  178.1590  145.4620 C   0  0  1  0  0  3  0  0  0  0  0  0
  189.9550  176.5440  147.3090 C   0  0  0  0  0  3  0  0  0  0  0  0
  191.8690  176.9770  146.0080 O   0  0  0  0  0  1  0  0  0  0  0  0
  190.5180  177.1710  146.2740 C   0  0  0  0  0  0  0  0  0  0  0  0
  186.4540  178.0500  147.0310 C   0  0  0  0  0  2  0  0  0  0  0  0
  184.3850  178.6670  145.8190 C   0  0  0  0  0  1  0  0  0  0  0  0
  185.8760  178.9270  145.9330 C   0  0  0  0  0  2  0  0  0  0  0  0
  185.1330  179.1650  141.6390 C   0  0  0  0  0  2  0  0  0  0  0  0
  184.1250  178.2170  142.2720 C   0  0  0  0  0  2  0  0  0  0  0  0
  180.2050  179.0130  140.8520 N   0  0  0  0  0  0  0  0  0  0  0  0
  180.5620  179.3710  142.0880 N   0  0  0  0  0  0  0  0  0  0  0  0
  182.3730  178.1080  140.4460 C   0  0  0  0  0  0  0  0  0  0  0  0
  182.7460  178.4790  141.7490 C   0  0  0  0  0  0  0  0  0  0  0  0
  181.8110  179.1220  142.5640 C   0  0  0  0  0  3  0  0  0  0  0  0
  181.0750  178.3840  140.0140 C   0  0  0  0  0  3  0  0  0  0  0  0
  183.3140  177.3780  139.5380 C   0  0  0  0  0  2  0  0  0  0  0  0
  183.0820  177.8110  138.1000 C   0  0  0  0  0  2  0  0  0  0  0  0
  184.0780  177.1420  137.1670 C   0  0  0  0  0  2  0  0  0  0  0  0
  185.4190  177.6610  137.3930 N   0  0  0  0  0  2  0  0  0  0  0  0
  186.2630  176.6000  137.3640 O   0  0  0  0  0  0  0  0  0  0  0  0
  187.1180  176.8600  136.2900 C   0  0  0  0  0  2  0  0  0  0  0  0
  188.4780  176.4930  136.6430 N   0  0  0  0  0  0  0  0  0  0  0  0
  189.3440  177.4700  136.0090 C   0  0  0  0  0  1  0  0  0  0  0  0
  188.7620  175.2150  136.0120 C   0  0  0  0  0  2  0  0  0  0  0  0
  189.0570  173.0830  137.0340 O   0  0  0  0  0  0  0  0  0  0  0  0
  190.3440  174.7810  137.8880 O   0  0  0  0  0  1  0  0  0  0  0  0
  189.4010  174.2930  136.9910 C   0  0  0  0  0  0  0  0  0  0  0  0
  1  8  2  0  0  0  0
  1  3  1  0  0  0  0
  2 11  1  0  0  0  0
  3 23  1  1  0  0  0
  3  7  1  0  0  0  0
  4  9  1  0  0  0  0
  5  7  2  0  0  0  0
  5  2  1  0  0  0  0
  6  4  2  0  0  0  0
  6  8  1  0  0  0  0
  8  5  1  0  0  0  0
  9  2  2  0  0  0  0
 12 11  2  0  0  0  0
 12 10  1  0  0  0  0
 13 20  1  6  0  0  0
 13 14  1  0  0  0  0
 15 13  1  0  0  0  0
 16 11  1  6  0  0  0
 16 15  1  0  0  0  0
 16 19  1  0  0  0  0
 17 14  1  0  0  0  0
 18 19  1  0  0  0  0
 19 17  2  0  0  0  0
 21 22  1  0  0  0  0
 22 20  1  0  0  0  0
 23 24  1  0  0  0  0
 25 26  1  0  0  0  0
 26 29  2  0  0  0  0
 27 28  2  0  0  0  0
 28 24  1  0  0  0  0
 28 29  1  0  0  0  0
 30 27  1  0  0  0  0
 30 25  2  0  0  0  0
 31 27  1  0  0  0  0
 32 31  1  0  0  0  0
 33 34  1  0  0  0  0
 33 32  1  0  0  0  0
 35 34  1  0  0  0  0
 36 37  1  0  0  0  0
 36 35  1  0  0  0  0
 38 37  1  0  0  0  0
 39 37  1  0  0  0  0
 39 42  1  0  0  0  0
 42 40  2  0  0  0  0
 42 41  1  0  0  0  0
M  END
>  <MODEL>
6

>  <REMARK>
 VINA RESULT:      -7.5      2.837      7.737
  Name = 
  16 active torsions:
  status: ('A' for Active; 'I' for Inactive)
    1  A    between atoms: C_1  and  C_23
    2  A    between atoms: C_1  and  N_26
    3  A    between atoms: O_4  and  C_19
    4  A    between atoms: O_4  and  N_26
    5  A    between atoms: C_5  and  N_25
    6  A    between atoms: C_5  and  C_39
    7  A    between atoms: C_7  and  C_9
    8  A    between atoms: C_8  and  C_28
    9  A    between atoms: C_9  and  C_27
   10  A    between atoms: C_10  and  C_36
   11  A    between atoms: C_18  and  C_31
   12  A    between atoms: C_19  and  N_25
   13  A    between atoms: C_22  and  C_28
   14  A    between atoms: C_23  and  C_31
   15  A    between atoms: C_24  and  C_41
   16  A    between atoms: C_36  and  C_41
                            x       y       z     vdW  Elec       q    Type
                         _______ _______ _______ _____ _____    ______ ____

>  <TORSDO>
F 16

$$$$
=
 OpenBabel11062413373D

 42 45  0  0  1  0  0  0  0  0999 V2000
  187.3020  178.2530  140.2860 C   0  0  0  0  0  3  0  0  0  0  0  0
  189.5300  177.1020  143.1080 C   0  0  0  0  0  0  0  0  0  0  0  0
  186.6060  178.5990  141.3720 C   0  0  1  0  0  3  0  0  0  0  0  0
  190.5930  176.4970  140.9390 N   0  0  0  0  0  0  0  0  0  0  0  0
  188.4360  177.6650  142.2480 C   0  0  0  0  0  0  0  0  0  0  0  0
  189.5200  177.0760  140.1720 C   0  0  0  0  0  3  0  0  0  0  0  0
  187.3020  178.2380  142.6200 C   0  0  0  0  0  3  0  0  0  0  0  0
  188.4990  177.6290  140.8140 C   0  0  0  0  0  0  0  0  0  0  0  0
  190.6260  176.4910  142.2490 C   0  0  0  0  0  3  0  0  0  0  0  0
  191.4860  180.0090  144.3530 O   0  0  0  0  0  1  0  0  0  0  0  0
  190.1020  178.1460  144.0200 C   0  0  0  0  0  0  0  0  0  0  0  0
  190.9280  179.0360  143.5540 N   0  0  0  0  0  0  0  0  0  0  0  0
  188.0010  177.8740  146.9530 C   0  0  1  0  0  3  0  0  0  0  0  0
  188.6100  176.6750  147.6880 C   0  0  0  0  0  2  0  0  0  0  0  0
  188.3320  177.7900  145.5870 O   0  0  0  0  0  0  0  0  0  0  0  0
  189.7010  178.1140  145.4690 C   0  0  1  0  0  3  0  0  0  0  0  0
  190.0680  176.5560  147.3450 C   0  0  0  0  0  3  0  0  0  0  0  0
  191.9310  177.0510  145.9960 O   0  0  0  0  0  1  0  0  0  0  0  0
  190.5790  177.1850  146.2850 C   0  0  0  0  0  0  0  0  0  0  0  0
  186.4920  177.8840  147.1070 C   0  0  0  0  0  2  0  0  0  0  0  0
  184.7070  178.6260  145.5610 C   0  0  0  0  0  1  0  0  0  0  0  0
  185.8920  179.0820  146.3920 C   0  0  0  0  0  2  0  0  0  0  0  0
  185.3060  179.3250  141.3280 C   0  0  0  0  0  2  0  0  0  0  0  0
  184.2910  178.5500  140.5000 C   0  0  0  0  0  2  0  0  0  0  0  0
  180.4740  178.7710  142.3430 N   0  0  0  0  0  0  0  0  0  0  0  0
  181.5780  179.0620  143.0370 N   0  0  0  0  0  0  0  0  0  0  0  0
  181.7720  178.3130  140.3960 C   0  0  0  0  0  0  0  0  0  0  0  0
  182.9330  178.6130  141.1280 C   0  0  0  0  0  0  0  0  0  0  0  0
  182.8100  178.9940  142.4670 C   0  0  0  0  0  3  0  0  0  0  0  0
  180.5340  178.3950  141.0360 C   0  0  0  0  0  3  0  0  0  0  0  0
  181.8380  177.8580  138.9710 C   0  0  0  0  0  2  0  0  0  0  0  0
  180.4620  177.9580  138.3340 C   0  0  0  0  0  2  0  0  0  0  0  0
  180.5740  178.0740  136.8220 C   0  0  0  0  0  2  0  0  0  0  0  0
  179.7870  179.1980  136.3370 N   0  0  0  0  0  2  0  0  0  0  0  0
  179.7210  180.1000  137.3470 O   0  0  0  0  0  0  0  0  0  0  0  0
  180.1790  181.2940  136.7850 C   0  0  0  0  0  2  0  0  0  0  0  0
  180.8090  182.1100  137.8080 N   0  0  0  0  0  0  0  0  0  0  0  0
  180.3090  181.6270  139.0830 C   0  0  0  0  0  1  0  0  0  0  0  0
  180.3080  183.4650  137.6530 C   0  0  0  0  0  2  0  0  0  0  0  0
  182.3050  184.7630  137.5950 O   0  0  0  0  0  1  0  0  0  0  0  0
  181.1530  184.6260  135.6150 O   0  0  0  0  0  0  0  0  0  0  0  0
  181.3210  184.3070  136.9580 C   0  0  0  0  0  0  0  0  0  0  0  0
  1  8  2  0  0  0  0
  1  3  1  0  0  0  0
  2 11  1  0  0  0  0
  3 23  1  1  0  0  0
  3  7  1  0  0  0  0
  4  9  1  0  0  0  0
  5  7  2  0  0  0  0
  5  2  1  0  0  0  0
  6  8  1  0  0  0  0
  6  4  2  0  0  0  0
  8  5  1  0  0  0  0
  9  2  2  0  0  0  0
 12 11  2  0  0  0  0
 12 10  1  0  0  0  0
 13 20  1  6  0  0  0
 13 14  1  0  0  0  0
 15 13  1  0  0  0  0
 16 11  1  6  0  0  0
 16 15  1  0  0  0  0
 16 19  1  0  0  0  0
 17 14  1  0  0  0  0
 18 19  1  0  0  0  0
 19 17  2  0  0  0  0
 21 22  1  0  0  0  0
 22 20  1  0  0  0  0
 24 28  1  0  0  0  0
 24 23  1  0  0  0  0
 25 26  1  0  0  0  0
 27 30  1  0  0  0  0
 27 28  2  0  0  0  0
 28 29  1  0  0  0  0
 29 26  2  0  0  0  0
 30 25  2  0  0  0  0
 31 27  1  0  0  0  0
 32 31  1  0  0  0  0
 33 32  1  0  0  0  0
 34 33  1  0  0  0  0
 34 35  1  0  0  0  0
 36 35  1  0  0  0  0
 36 37  1  0  0  0  0
 37 38  1  0  0  0  0
 39 37  1  0  0  0  0
 41 42  2  0  0  0  0
 42 40  1  0  0  0  0
 42 39  1  0  0  0  0
M  END
>  <MODEL>
7

>  <REMARK>
 VINA RESULT:      -7.5      3.038      9.618
  Name = 
  16 active torsions:
  status: ('A' for Active; 'I' for Inactive)
    1  A    between atoms: C_1  and  C_23
    2  A    between atoms: C_1  and  N_26
    3  A    between atoms: O_4  and  C_19
    4  A    between atoms: O_4  and  N_26
    5  A    between atoms: C_5  and  N_25
    6  A    between atoms: C_5  and  C_39
    7  A    between atoms: C_7  and  C_9
    8  A    between atoms: C_8  and  C_28
    9  A    between atoms: C_9  and  C_27
   10  A    between atoms: C_10  and  C_36
   11  A    between atoms: C_18  and  C_31
   12  A    between atoms: C_19  and  N_25
   13  A    between atoms: C_22  and  C_28
   14  A    between atoms: C_23  and  C_31
   15  A    between atoms: C_24  and  C_41
   16  A    between atoms: C_36  and  C_41
                            x       y       z     vdW  Elec       q    Type
                         _______ _______ _______ _____ _____    ______ ____

>  <TORSDO>
F 16

$$$$
=
 OpenBabel11062413373D

 42 45  0  0  1  0  0  0  0  0999 V2000
  187.1890  178.2520  140.5130 C   0  0  0  0  0  3  0  0  0  0  0  0
  189.6680  177.1570  143.1430 C   0  0  0  0  0  0  0  0  0  0  0  0
  186.5450  178.5120  141.6530 C   0  0  1  0  0  3  0  0  0  0  0  0
  190.6250  176.7030  140.8900 N   0  0  0  0  0  0  0  0  0  0  0  0
  188.4850  177.6740  142.3760 C   0  0  0  0  0  0  0  0  0  0  0  0
  189.4680  177.2330  140.2150 C   0  0  0  0  0  3  0  0  0  0  0  0
  187.3430  178.1550  142.8400 C   0  0  0  0  0  3  0  0  0  0  0  0
  188.4570  177.6920  140.9410 C   0  0  0  0  0  0  0  0  0  0  0  0
  190.7430  176.6520  142.1940 C   0  0  0  0  0  3  0  0  0  0  0  0
  191.5330  180.1260  144.3820 O   0  0  0  0  0  1  0  0  0  0  0  0
  190.2270  178.2050  144.0580 C   0  0  0  0  0  0  0  0  0  0  0  0
  190.9890  179.1460  143.5810 N   0  0  0  0  0  0  0  0  0  0  0  0
  188.2480  177.9180  147.0730 C   0  0  1  0  0  3  0  0  0  0  0  0
  188.7940  176.6350  147.7090 C   0  0  0  0  0  2  0  0  0  0  0  0
  188.5080  177.8910  145.6900 O   0  0  0  0  0  0  0  0  0  0  0  0
  189.8920  178.1170  145.5210 C   0  0  1  0  0  3  0  0  0  0  0  0
  190.2210  176.4270  147.2870 C   0  0  0  0  0  3  0  0  0  0  0  0
  192.0540  176.8600  145.8750 O   0  0  0  0  0  1  0  0  0  0  0  0
  190.7310  177.0780  146.2390 C   0  0  0  0  0  0  0  0  0  0  0  0
  186.7530  178.0320  147.3030 C   0  0  0  0  0  2  0  0  0  0  0  0
  184.6560  178.6270  146.1300 C   0  0  0  0  0  1  0  0  0  0  0  0
  186.0050  177.9460  145.9840 C   0  0  0  0  0  2  0  0  0  0  0  0
  185.1990  179.1480  141.7190 C   0  0  0  0  0  2  0  0  0  0  0  0
  184.2390  178.2810  142.5200 C   0  0  0  0  0  2  0  0  0  0  0  0
  180.2110  179.3230  141.6800 N   0  0  0  0  0  0  0  0  0  0  0  0
  180.7840  179.7060  142.8250 N   0  0  0  0  0  0  0  0  0  0  0  0
  182.2160  178.2310  140.9950 C   0  0  0  0  0  0  0  0  0  0  0  0
  182.8170  178.6290  142.2020 C   0  0  0  0  0  0  0  0  0  0  0  0
  182.0710  179.3790  143.1140 C   0  0  0  0  0  3  0  0  0  0  0  0
  180.8890  178.5910  140.7550 C   0  0  0  0  0  3  0  0  0  0  0  0
  182.9470  177.3910  139.9950 C   0  0  0  0  0  2  0  0  0  0  0  0
  182.3150  177.5560  138.6230 C   0  0  0  0  0  2  0  0  0  0  0  0
  183.3550  177.9720  137.5950 C   0  0  0  0  0  2  0  0  0  0  0  0
  184.5590  177.1650  137.7310 N   0  0  0  0  0  2  0  0  0  0  0  0
  185.5760  177.8770  137.1860 O   0  0  0  0  0  0  0  0  0  0  0  0
  186.2170  176.9770  136.3310 C   0  0  0  0  0  2  0  0  0  0  0  0
  186.5860  175.7790  137.0650 N   0  0  0  0  0  0  0  0  0  0  0  0
  188.0290  175.8190  137.2150 C   0  0  0  0  0  1  0  0  0  0  0  0
  186.2890  174.6390  136.2140 C   0  0  0  0  0  2  0  0  0  0  0  0
  184.1250  173.6960  136.5350 O   0  0  0  0  0  0  0  0  0  0  0  0
  185.7560  172.9500  137.9670 O   0  0  0  0  0  1  0  0  0  0  0  0
  185.3290  173.7290  136.8970 C   0  0  0  0  0  0  0  0  0  0  0  0
  1  8  2  0  0  0  0
  1  3  1  0  0  0  0
  2 11  1  0  0  0  0
  3 23  1  1  0  0  0
  3  7  1  0  0  0  0
  4  9  1  0  0  0  0
  5  7  2  0  0  0  0
  5  2  1  0  0  0  0
  6  4  2  0  0  0  0
  6  8  1  0  0  0  0
  8  5  1  0  0  0  0
  9  2  2  0  0  0  0
 12 11  2  0  0  0  0
 12 10  1  0  0  0  0
 13 20  1  6  0  0  0
 13 14  1  0  0  0  0
 15 13  1  0  0  0  0
 16 11  1  6  0  0  0
 16 15  1  0  0  0  0
 16 19  1  0  0  0  0
 17 14  1  0  0  0  0
 18 19  1  0  0  0  0
 19 17  2  0  0  0  0
 22 21  1  0  0  0  0
 22 20  1  0  0  0  0
 23 24  1  0  0  0  0
 25 26  1  0  0  0  0
 26 29  2  0  0  0  0
 27 28  2  0  0  0  0
 28 24  1  0  0  0  0
 28 29  1  0  0  0  0
 30 27  1  0  0  0  0
 30 25  2  0  0  0  0
 31 27  1  0  0  0  0
 32 31  1  0  0  0  0
 33 34  1  0  0  0  0
 33 32  1  0  0  0  0
 35 34  1  0  0  0  0
 36 37  1  0  0  0  0
 36 35  1  0  0  0  0
 37 38  1  0  0  0  0
 39 42  1  0  0  0  0
 39 37  1  0  0  0  0
 40 42  2  0  0  0  0
 42 41  1  0  0  0  0
M  END
>  <MODEL>
8

>  <REMARK>
 VINA RESULT:      -7.4      3.063      8.123
  Name = 
  16 active torsions:
  status: ('A' for Active; 'I' for Inactive)
    1  A    between atoms: C_1  and  C_23
    2  A    between atoms: C_1  and  N_26
    3  A    between atoms: O_4  and  C_19
    4  A    between atoms: O_4  and  N_26
    5  A    between atoms: C_5  and  N_25
    6  A    between atoms: C_5  and  C_39
    7  A    between atoms: C_7  and  C_9
    8  A    between atoms: C_8  and  C_28
    9  A    between atoms: C_9  and  C_27
   10  A    between atoms: C_10  and  C_36
   11  A    between atoms: C_18  and  C_31
   12  A    between atoms: C_19  and  N_25
   13  A    between atoms: C_22  and  C_28
   14  A    between atoms: C_23  and  C_31
   15  A    between atoms: C_24  and  C_41
   16  A    between atoms: C_36  and  C_41
                            x       y       z     vdW  Elec       q    Type
                         _______ _______ _______ _____ _____    ______ ____

>  <TORSDO>
F 16

$$$$
=
 OpenBabel11062413373D

 42 45  0  0  1  0  0  0  0  0999 V2000
  186.8650  178.3840  140.7490 C   0  0  0  0  0  3  0  0  0  0  0  0
  189.5380  177.2270  143.1520 C   0  0  0  0  0  0  0  0  0  0  0  0
  186.3030  178.5970  141.9420 C   0  0  1  0  0  3  0  0  0  0  0  0
  190.3320  176.8620  140.8200 N   0  0  0  0  0  0  0  0  0  0  0  0
  188.2980  177.7570  142.4910 C   0  0  0  0  0  0  0  0  0  0  0  0
  189.1250  177.4030  140.2500 C   0  0  0  0  0  3  0  0  0  0  0  0
  187.1880  178.2080  143.0540 C   0  0  0  0  0  3  0  0  0  0  0  0
  188.1650  177.8250  141.0640 C   0  0  0  0  0  0  0  0  0  0  0  0
  190.5460  176.7680  142.1100 C   0  0  0  0  0  3  0  0  0  0  0  0
  191.5400  180.1150  144.3680 O   0  0  0  0  0  1  0  0  0  0  0  0
  190.1540  178.2490  144.0610 C   0  0  0  0  0  0  0  0  0  0  0  0
  190.9450  179.1600  143.5740 N   0  0  0  0  0  0  0  0  0  0  0  0
  188.2110  178.0600  147.1070 C   0  0  1  0  0  3  0  0  0  0  0  0
  188.6880  176.7410  147.7240 C   0  0  0  0  0  2  0  0  0  0  0  0
  188.4460  178.0270  145.7190 O   0  0  0  0  0  0  0  0  0  0  0  0
  189.8380  178.1700  145.5280 C   0  0  1  0  0  3  0  0  0  0  0  0
  190.0930  176.4500  147.2770 C   0  0  0  0  0  3  0  0  0  0  0  0
  191.9250  176.7810  145.8370 O   0  0  0  0  0  1  0  0  0  0  0  0
  190.6240  177.0760  146.2250 C   0  0  0  0  0  0  0  0  0  0  0  0
  186.7300  178.2630  147.3630 C   0  0  0  0  0  2  0  0  0  0  0  0
  184.9030  178.9480  145.8390 C   0  0  0  0  0  1  0  0  0  0  0  0
  185.9200  177.8630  146.1420 C   0  0  0  0  0  2  0  0  0  0  0  0
  184.9600  179.2150  142.1280 C   0  0  0  0  0  2  0  0  0  0  0  0
  183.8780  178.1460  142.1350 C   0  0  0  0  0  2  0  0  0  0  0  0
  180.0340  179.9400  141.9950 N   0  0  0  0  0  0  0  0  0  0  0  0
  180.7280  179.9170  143.1360 N   0  0  0  0  0  0  0  0  0  0  0  0
  181.7890  178.7960  140.8580 C   0  0  0  0  0  0  0  0  0  0  0  0
  182.5170  178.7660  142.0600 C   0  0  0  0  0  0  0  0  0  0  0  0
  181.9590  179.3440  143.2030 C   0  0  0  0  0  3  0  0  0  0  0  0
  180.5280  179.3930  140.8500 C   0  0  0  0  0  3  0  0  0  0  0  0
  182.3120  178.1570  139.6090 C   0  0  0  0  0  2  0  0  0  0  0  0
  181.5260  176.8920  139.3090 C   0  0  0  0  0  2  0  0  0  0  0  0
  181.8810  176.3470  137.9350 C   0  0  0  0  0  2  0  0  0  0  0  0
  182.1030  174.9100  137.9960 N   0  0  0  0  0  2  0  0  0  0  0  0
  180.9890  174.3170  137.5000 O   0  0  0  0  0  0  0  0  0  0  0  0
  181.3840  173.0070  137.2180 C   0  0  0  0  0  2  0  0  0  0  0  0
  182.6240  173.0180  136.4610 N   0  0  0  0  0  0  0  0  0  0  0  0
  182.2630  172.7540  135.0800 C   0  0  0  0  0  1  0  0  0  0  0  0
  183.4160  171.8850  136.9070 C   0  0  0  0  0  2  0  0  0  0  0  0
  185.6120  171.6560  136.0110 O   0  0  0  0  0  0  0  0  0  0  0  0
  185.4010  173.1290  137.7590 O   0  0  0  0  0  1  0  0  0  0  0  0
  184.8660  172.2220  136.8510 C   0  0  0  0  0  0  0  0  0  0  0  0
  1  8  2  0  0  0  0
  1  3  1  0  0  0  0
  2 11  1  0  0  0  0
  3 23  1  1  0  0  0
  3  7  1  0  0  0  0
  4  9  1  0  0  0  0
  5  7  2  0  0  0  0
  5  2  1  0  0  0  0
  6  4  2  0  0  0  0
  6  8  1  0  0  0  0
  8  5  1  0  0  0  0
  9  2  2  0  0  0  0
 12 11  2  0  0  0  0
 12 10  1  0  0  0  0
 13 20  1  6  0  0  0
 13 14  1  0  0  0  0
 15 13  1  0  0  0  0
 16 11  1  6  0  0  0
 16 15  1  0  0  0  0
 16 19  1  0  0  0  0
 17 14  1  0  0  0  0
 18 19  1  0  0  0  0
 19 17  2  0  0  0  0
 21 22  1  0  0  0  0
 22 20  1  0  0  0  0
 23 24  1  0  0  0  0
 25 26  1  0  0  0  0
 26 29  2  0  0  0  0
 27 28  2  0  0  0  0
 28 24  1  0  0  0  0
 28 29  1  0  0  0  0
 30 27  1  0  0  0  0
 30 25  2  0  0  0  0
 31 27  1  0  0  0  0
 32 31  1  0  0  0  0
 33 34  1  0  0  0  0
 33 32  1  0  0  0  0
 35 34  1  0  0  0  0
 36 35  1  0  0  0  0
 37 39  1  0  0  0  0
 37 36  1  0  0  0  0
 38 37  1  0  0  0  0
 40 42  2  0  0  0  0
 42 39  1  0  0  0  0
 42 41  1  0  0  0  0
M  END
>  <MODEL>
9

>  <REMARK>
 VINA RESULT:      -7.0      3.437      8.705
  Name = 
  16 active torsions:
  status: ('A' for Active; 'I' for Inactive)
    1  A    between atoms: C_1  and  C_23
    2  A    between atoms: C_1  and  N_26
    3  A    between atoms: O_4  and  C_19
    4  A    between atoms: O_4  and  N_26
    5  A    between atoms: C_5  and  N_25
    6  A    between atoms: C_5  and  C_39
    7  A    between atoms: C_7  and  C_9
    8  A    between atoms: C_8  and  C_28
    9  A    between atoms: C_9  and  C_27
   10  A    between atoms: C_10  and  C_36
   11  A    between atoms: C_18  and  C_31
   12  A    between atoms: C_19  and  N_25
   13  A    between atoms: C_22  and  C_28
   14  A    between atoms: C_23  and  C_31
   15  A    between atoms: C_24  and  C_41
   16  A    between atoms: C_36  and  C_41
                            x       y       z     vdW  Elec       q    Type
                         _______ _______ _______ _____ _____    ______ ____

>  <TORSDO>
F 16

$$$$
