=
 OpenBabel11062418013D

 40 47  0  0  1  0  0  0  0  0999 V2000
  190.4740  177.7180  138.0780 C   0  0  0  0  0  1  0  0  0  0  0  0
  191.3510  174.1140  137.8860 O   0  0  0  0  0  1  0  0  0  0  0  0
  193.2990  176.5130  138.6290 N   0  0  0  0  0  2  0  0  0  0  0  0
  192.9030  175.9080  137.3600 C   0  0  2  0  0  3  0  0  0  0  0  0
  191.4300  175.4450  137.4590 C   0  0  2  0  0  0  0  0  0  0  0  0
  192.1230  176.4330  139.4850 C   0  0  2  0  0  3  0  0  0  0  0  0
  190.8980  176.3320  138.5830 C   0  0  1  0  0  3  0  0  0  0  0  0
  194.7900  175.1480  135.6970 C   0  0  0  0  0  0  0  0  0  0  0  0
  196.4140  173.0200  136.9830 C   0  0  0  0  0  3  0  0  0  0  0  0
  196.3100  177.5600  135.1930 C   0  0  0  0  0  3  0  0  0  0  0  0
  195.1790  172.7790  137.4410 C   0  0  0  0  0  3  0  0  0  0  0  0
  196.8870  176.5990  135.8520 N   0  0  0  0  0  0  0  0  0  0  0  0
  196.2380  175.3430  136.0900 C   0  0  0  0  0  0  0  0  0  0  0  0
  194.1120  173.7830  137.6380 C   0  0  0  0  0  3  0  0  0  0  0  0
  193.9270  174.8890  136.9100 C   0  0  0  0  0  0  0  0  0  0  0  0
  194.2750  176.2730  134.8280 C   0  0  0  0  0  2  0  0  0  0  0  0
  194.9640  177.3960  134.6250 C   0  0  0  0  0  3  0  0  0  0  0  0
  196.9530  174.3400  136.6010 C   0  0  0  0  0  3  0  0  0  0  0  0
  188.2870  175.6940  136.8670 N   0  0  0  0  0  0  0  0  0  0  0  0
  189.2560  175.0670  136.1440 C   0  0  0  0  0  0  0  0  0  0  0  0
  189.9950  173.2190  134.5970 C   0  0  0  0  0  2  0  0  0  0  0  0
  187.0220  175.2020  136.9380 C   0  0  0  0  0  3  0  0  0  0  0  0
  190.6680  175.6070  136.1160 C   0  0  2  0  0  3  0  0  0  0  0  0
  186.6890  174.0230  136.2730 C   0  0  0  0  0  3  0  0  0  0  0  0
  191.4080  175.1500  134.9910 O   0  0  0  0  0  0  0  0  0  0  0  0
  188.9600  173.8820  135.4560 C   0  0  0  0  0  0  0  0  0  0  0  0
  191.3890  173.7380  134.9490 C   0  0  0  0  0  2  0  0  0  0  0  0
  187.6660  173.3630  135.5210 C   0  0  0  0  0  3  0  0  0  0  0  0
  192.0980  177.5740  140.4980 C   0  0  0  0  0  2  0  0  0  0  0  0
  190.8370  177.5270  141.3570 C   0  0  0  0  0  2  0  0  0  0  0  0
  190.8920  175.7940  143.1640 C   0  0  0  0  0  2  0  0  0  0  0  0
  189.9890  176.8870  143.6810 C   0  0  1  0  0  0  0  0  0  0  0  0
  191.1870  177.2600  142.8200 C   0  0  2  0  0  3  0  0  0  0  0  0
  188.7800  177.7400  145.4730 O   0  0  0  0  0  0  0  0  0  0  0  0
  188.5640  177.0550  143.1600 C   0  0  1  0  0  3  0  0  0  0  0  0
  191.0560  177.3400  145.8260 O   0  0  0  0  0  0  0  0  0  0  0  0
  187.5540  176.1620  143.8950 C   0  0  0  0  0  2  0  0  0  0  0  0
  187.8330  177.5580  144.4170 C   0  0  1  0  0  0  0  0  0  0  0  0
  190.0340  177.3150  145.0860 C   0  0  0  0  0  0  0  0  0  0  0  0
  186.9450  178.5940  144.1400 O   0  0  0  0  0  1  0  0  0  0  0  0
  3  6  1  0  0  0  0
  4 15  1  1  0  0  0
  4  5  1  0  0  0  0
  4  3  1  0  0  0  0
  5  2  1  1  0  0  0
  5  7  1  0  0  0  0
  6 29  1  6  0  0  0
  7  1  1  6  0  0  0
  7  6  1  0  0  0  0
  8 13  1  0  0  0  0
  8 15  2  0  0  0  0
  9 11  1  0  0  0  0
 10 12  1  0  0  0  0
 11 14  2  0  0  0  0
 12 13  2  0  0  0  0
 13 18  1  0  0  0  0
 15 14  1  0  0  0  0
 16  8  1  0  0  0  0
 17 16  1  0  0  0  0
 17 10  2  0  0  0  0
 18  9  2  0  0  0  0
 19 22  1  0  0  0  0
 20 19  2  0  0  0  0
 21 27  1  0  0  0  0
 21 26  1  0  0  0  0
 23 25  1  6  0  0  0
 23 20  1  0  0  0  0
 23  5  1  0  0  0  0
 24 22  2  0  0  0  0
 26 28  2  0  0  0  0
 26 20  1  0  0  0  0
 27 25  1  0  0  0  0
 28 24  1  0  0  0  0
 29 30  1  0  0  0  0
 32 31  1  1  0  0  0
 32 39  1  0  0  0  0
 33 30  1  6  0  0  0
 33 31  1  0  0  0  0
 33 32  1  0  0  0  0
 35 32  1  0  0  0  0
 35 37  1  1  0  0  0
 35 38  1  0  0  0  0
 37 38  1  0  0  0  0
 38 40  1  6  0  0  0
 38 34  1  0  0  0  0
 39 34  1  0  0  0  0
 39 36  2  0  0  0  0
M  END
>  <MODEL>
1

>  <REMARK>
 VINA RESULT:      -7.3      0.000      0.000
  Name = 
  5 active torsions:
  status: ('A' for Active; 'I' for Inactive)
    1  A    between atoms: C_4  and  C_14
    2  A    between atoms: C_8  and  C_14
    3  A    between atoms: C_8  and  C_29
    4  A    between atoms: C_17  and  C_25
    5  A    between atoms: C_27  and  C_28
                            x       y       z     vdW  Elec       q    Type
                         _______ _______ _______ _____ _____    ______ ____

>  <TORSDO>
F 5

$$$$
=
 OpenBabel11062418013D

 40 47  0  0  1  0  0  0  0  0999 V2000
  184.5020  179.6530  138.8060 C   0  0  0  0  0  1  0  0  0  0  0  0
  183.0500  176.7680  140.6390 O   0  0  0  0  0  1  0  0  0  0  0  0
  182.9020  177.3080  137.5110 N   0  0  0  0  0  2  0  0  0  0  0  0
  182.0650  177.7240  138.6350 C   0  0  2  0  0  3  0  0  0  0  0  0
  182.9600  177.9390  139.8780 C   0  0  2  0  0  0  0  0  0  0  0  0
  184.2620  177.2680  138.0300 C   0  0  2  0  0  3  0  0  0  0  0  0
  184.3250  178.1920  139.2420 C   0  0  1  0  0  3  0  0  0  0  0  0
  179.5380  177.1680  138.1750 C   0  0  0  0  0  0  0  0  0  0  0  0
  179.1060  174.2530  138.5460 C   0  0  0  0  0  3  0  0  0  0  0  0
  179.1060  178.0210  135.4430 C   0  0  0  0  0  3  0  0  0  0  0  0
  180.0230  174.5460  139.4760 C   0  0  0  0  0  3  0  0  0  0  0  0
  179.0520  176.7480  135.7030 N   0  0  0  0  0  0  0  0  0  0  0  0
  179.1860  176.2370  137.0350 C   0  0  2  0  0  3  0  0  0  0  0  0
  181.0290  175.6260  139.3990 C   0  0  0  0  0  3  0  0  0  0  0  0
  180.8730  176.8030  138.7830 C   0  0  0  0  0  0  0  0  0  0  0  0
  179.4420  178.6230  137.7790 C   0  0  0  0  0  3  0  0  0  0  0  0
  179.2750  179.0140  136.5150 C   0  0  0  0  0  3  0  0  0  0  0  0
  178.9310  174.9470  137.2550 C   0  0  0  0  0  3  0  0  0  0  0  0
  184.3430  179.3800  142.3880 N   0  0  0  0  0  0  0  0  0  0  0  0
  183.0300  179.0920  142.1720 C   0  0  0  0  0  0  0  0  0  0  0  0
  180.7420  178.4850  143.0380 C   0  0  0  0  0  2  0  0  0  0  0  0
  184.8850  179.3340  143.6340 C   0  0  0  0  0  3  0  0  0  0  0  0
  182.4580  179.1050  140.7720 C   0  0  2  0  0  3  0  0  0  0  0  0
  184.1010  178.9770  144.7290 C   0  0  0  0  0  3  0  0  0  0  0  0
  181.0450  179.2550  140.7580 O   0  0  0  0  0  0  0  0  0  0  0  0
  182.2050  178.7340  143.2480 C   0  0  0  0  0  0  0  0  0  0  0  0
  180.4500  178.2510  141.5560 C   0  0  0  0  0  2  0  0  0  0  0  0
  182.7480  178.6800  144.5320 C   0  0  0  0  0  3  0  0  0  0  0  0
  185.2810  177.5580  136.9310 C   0  0  0  0  0  2  0  0  0  0  0  0
  186.5490  176.7290  137.1170 C   0  0  0  0  0  2  0  0  0  0  0  0
  188.4080  178.3720  137.4680 C   0  0  0  0  0  2  0  0  0  0  0  0
  188.9420  177.0470  137.9540 C   0  0  1  0  0  0  0  0  0  0  0  0
  187.4690  177.3700  138.1550 C   0  0  2  0  0  3  0  0  0  0  0  0
  190.6550  175.9090  139.0370 O   0  0  0  0  0  0  0  0  0  0  0  0
  189.3820  175.9580  136.9770 C   0  0  1  0  0  3  0  0  0  0  0  0
  189.6580  177.6760  140.1980 O   0  0  0  0  0  0  0  0  0  0  0  0
  190.8340  176.1350  136.5080 C   0  0  0  0  0  2  0  0  0  0  0  0
  190.5460  175.3070  137.7440 C   0  0  1  0  0  0  0  0  0  0  0  0
  189.7640  176.9540  139.1690 C   0  0  0  0  0  0  0  0  0  0  0  0
  190.5280  173.9170  137.6620 O   0  0  0  0  0  1  0  0  0  0  0  0
  3  6  1  0  0  0  0
  3  4  1  0  0  0  0
  4 15  1  1  0  0  0
  4  5  1  0  0  0  0
  5  2  1  1  0  0  0
  5 23  1  0  0  0  0
  6 29  1  6  0  0  0
  6  7  1  0  0  0  0
  7  1  1  6  0  0  0
  7  5  1  0  0  0  0
  8 15  2  0  0  0  0
  9 11  1  0  0  0  0
 10 12  2  0  0  0  0
 10 17  1  0  0  0  0
 12 13  1  0  0  0  0
 13 18  1  1  0  0  0
 13  8  1  0  0  0  0
 14 11  2  0  0  0  0
 15 14  1  0  0  0  0
 16  8  1  0  0  0  0
 17 16  2  0  0  0  0
 18  9  2  0  0  0  0
 19 22  1  0  0  0  0
 20 19  2  0  0  0  0
 20 26  1  0  0  0  0
 21 26  1  0  0  0  0
 22 24  2  0  0  0  0
 23 25  1  1  0  0  0
 23 20  1  0  0  0  0
 25 27  1  0  0  0  0
 26 28  2  0  0  0  0
 27 21  1  0  0  0  0
 28 24  1  0  0  0  0
 29 30  1  0  0  0  0
 31 33  1  0  0  0  0
 32 31  1  6  0  0  0
 32 33  1  0  0  0  0
 32 39  1  0  0  0  0
 33 30  1  6  0  0  0
 34 39  1  0  0  0  0
 35 37  1  6  0  0  0
 35 38  1  0  0  0  0
 35 32  1  0  0  0  0
 37 38  1  0  0  0  0
 38 40  1  6  0  0  0
 38 34  1  0  0  0  0
 39 36  2  0  0  0  0
M  END
>  <MODEL>
2

>  <REMARK>
 VINA RESULT:      -7.0      5.763     11.388
  Name = 
  5 active torsions:
  status: ('A' for Active; 'I' for Inactive)
    1  A    between atoms: C_4  and  C_14
    2  A    between atoms: C_8  and  C_14
    3  A    between atoms: C_8  and  C_29
    4  A    between atoms: C_17  and  C_25
    5  A    between atoms: C_27  and  C_28
                            x       y       z     vdW  Elec       q    Type
                         _______ _______ _______ _____ _____    ______ ____

>  <TORSDO>
F 5

$$$$
=
 OpenBabel11062418013D

 40 47  0  0  1  0  0  0  0  0999 V2000
  184.6530  173.4480  137.1740 C   0  0  0  0  0  1  0  0  0  0  0  0
  181.7810  175.3730  135.8160 O   0  0  0  0  0  1  0  0  0  0  0  0
  184.4910  176.5580  136.9790 N   0  0  0  0  0  2  0  0  0  0  0  0
  183.2220  176.1800  137.5970 C   0  0  2  0  0  3  0  0  0  0  0  0
  182.6360  174.9620  136.8450 C   0  0  2  0  0  0  0  0  0  0  0  0
  184.6910  175.6140  135.8870 C   0  0  2  0  0  3  0  0  0  0  0  0
  183.8850  174.3580  136.2050 C   0  0  1  0  0  3  0  0  0  0  0  0
  182.2240  178.0840  139.1070 C   0  0  1  0  0  3  0  0  0  0  0  0
  181.1860  180.2550  137.3660 C   0  0  0  0  0  3  0  0  0  0  0  0
  184.4530  178.9380  140.7450 C   0  0  0  0  0  3  0  0  0  0  0  0
  180.9220  179.1480  136.6620 C   0  0  0  0  0  3  0  0  0  0  0  0
  183.9870  179.7720  139.8640 N   0  0  0  0  0  0  0  0  0  0  0  0
  182.8440  179.4640  139.0550 C   0  0  0  0  0  0  0  0  0  0  0  0
  181.6870  177.8840  136.7060 C   0  0  0  0  0  3  0  0  0  0  0  0
  182.3300  177.3900  137.7690 C   0  0  0  0  0  0  0  0  0  0  0  0
  182.7610  177.2570  140.2520 C   0  0  0  0  0  3  0  0  0  0  0  0
  183.8090  177.6380  140.9840 C   0  0  0  0  0  3  0  0  0  0  0  0
  182.3050  180.4320  138.3140 C   0  0  0  0  0  3  0  0  0  0  0  0
  181.7370  171.9140  136.4090 N   0  0  0  0  0  0  0  0  0  0  0  0
  181.0970  172.9180  137.0690 C   0  0  0  0  0  0  0  0  0  0  0  0
  178.9750  174.0490  137.8260 C   0  0  0  0  0  2  0  0  0  0  0  0
  181.0500  170.9650  135.7200 C   0  0  0  0  0  3  0  0  0  0  0  0
  181.8830  173.9890  137.7920 C   0  0  2  0  0  3  0  0  0  0  0  0
  179.6580  171.0070  135.6650 C   0  0  0  0  0  3  0  0  0  0  0  0
  181.1170  174.6540  138.7870 O   0  0  0  0  0  0  0  0  0  0  0  0
  179.6970  172.9920  137.0440 C   0  0  0  0  0  0  0  0  0  0  0  0
  179.9350  175.1730  138.2120 C   0  0  0  0  0  2  0  0  0  0  0  0
  178.9780  172.0270  136.3390 C   0  0  0  0  0  3  0  0  0  0  0  0
  186.1760  175.3880  135.6160 C   0  0  0  0  0  2  0  0  0  0  0  0
  187.0240  175.7570  136.8310 C   0  0  0  0  0  2  0  0  0  0  0  0
  189.2080  176.8960  136.3750 C   0  0  0  0  0  2  0  0  0  0  0  0
  188.7330  177.4470  137.6970 C   0  0  1  0  0  0  0  0  0  0  0  0
  187.7090  177.1070  136.6240 C   0  0  2  0  0  3  0  0  0  0  0  0
  189.0510  179.0050  139.3930 O   0  0  0  0  0  0  0  0  0  0  0  0
  188.8280  176.6280  138.9820 C   0  0  1  0  0  3  0  0  0  0  0  0
  188.8300  179.8360  137.2190 O   0  0  0  0  0  0  0  0  0  0  0  0
  190.1990  176.7490  139.6630 C   0  0  0  0  0  2  0  0  0  0  0  0
  189.0970  177.7230  140.0270 C   0  0  1  0  0  0  0  0  0  0  0  0
  188.8850  178.8700  138.0300 C   0  0  0  0  0  0  0  0  0  0  0  0
  188.3640  177.5390  141.1970 O   0  0  0  0  0  1  0  0  0  0  0  0
  3  4  1  0  0  0  0
  4 15  1  6  0  0  0
  5  2  1  6  0  0  0
  5  4  1  0  0  0  0
  5 23  1  0  0  0  0
  6 29  1  1  0  0  0
  6  7  1  0  0  0  0
  6  3  1  0  0  0  0
  7  5  1  0  0  0  0
  7  1  1  1  0  0  0
  8 16  1  1  0  0  0
  9 18  1  0  0  0  0
 10 17  1  0  0  0  0
 11 14  1  0  0  0  0
 11  9  2  0  0  0  0
 12 10  2  0  0  0  0
 13  8  1  0  0  0  0
 13 12  1  0  0  0  0
 14 15  2  0  0  0  0
 15  8  1  0  0  0  0
 16 17  2  0  0  0  0
 18 13  2  0  0  0  0
 19 20  1  0  0  0  0
 21 27  1  0  0  0  0
 22 19  2  0  0  0  0
 23 20  1  6  0  0  0
 23 25  1  0  0  0  0
 24 22  1  0  0  0  0
 24 28  2  0  0  0  0
 26 20  2  0  0  0  0
 26 21  1  0  0  0  0
 27 25  1  0  0  0  0
 28 26  1  0  0  0  0
 29 30  1  0  0  0  0
 31 33  1  0  0  0  0
 32 31  1  6  0  0  0
 32 39  1  0  0  0  0
 32 35  1  0  0  0  0
 33 30  1  1  0  0  0
 33 32  1  0  0  0  0
 34 38  1  0  0  0  0
 35 37  1  6  0  0  0
 35 38  1  0  0  0  0
 36 39  2  0  0  0  0
 37 38  1  0  0  0  0
 38 40  1  1  0  0  0
 39 34  1  0  0  0  0
M  END
>  <MODEL>
3

>  <REMARK>
 VINA RESULT:      -6.9      5.514     10.109
  Name = 
  5 active torsions:
  status: ('A' for Active; 'I' for Inactive)
    1  A    between atoms: C_4  and  C_14
    2  A    between atoms: C_8  and  C_14
    3  A    between atoms: C_8  and  C_29
    4  A    between atoms: C_17  and  C_25
    5  A    between atoms: C_27  and  C_28
                            x       y       z     vdW  Elec       q    Type
                         _______ _______ _______ _____ _____    ______ ____

>  <TORSDO>
F 5

$$$$
=
 OpenBabel11062418013D

 40 47  0  0  1  0  0  0  0  0999 V2000
  189.0810  178.7200  138.5890 C   0  0  0  0  0  1  0  0  0  0  0  0
  187.5380  175.4470  137.7530 O   0  0  0  0  0  1  0  0  0  0  0  0
  190.6420  176.0850  137.9950 N   0  0  0  0  0  2  0  0  0  0  0  0
  189.6880  176.1820  136.8920 C   0  0  2  0  0  3  0  0  0  0  0  0
  188.3030  176.5800  137.4560 C   0  0  2  0  0  0  0  0  0  0  0  0
  189.8860  176.4110  139.1970 C   0  0  2  0  0  3  0  0  0  0  0  0
  188.6830  177.2490  138.7760 C   0  0  1  0  0  3  0  0  0  0  0  0
  190.8030  174.8350  134.9310 C   0  0  0  0  0  0  0  0  0  0  0  0
  190.0750  171.9670  135.1910 C   0  0  0  0  0  3  0  0  0  0  0  0
  193.6390  175.3010  135.2680 C   0  0  0  0  0  3  0  0  0  0  0  0
  188.9740  172.6000  135.6130 C   0  0  0  0  0  3  0  0  0  0  0  0
  193.1890  174.0990  135.4690 N   0  0  0  0  0  0  0  0  0  0  0  0
  191.8120  173.7570  135.2610 C   0  0  0  0  0  0  0  0  0  0  0  0
  188.9250  173.9300  136.2540 C   0  0  0  0  0  3  0  0  0  0  0  0
  189.7560  174.9510  136.0150 C   0  0  0  0  0  0  0  0  0  0  0  0
  191.4600  176.1540  134.5940 C   0  0  0  0  0  2  0  0  0  0  0  0
  192.7620  176.3760  134.7810 C   0  0  0  0  0  3  0  0  0  0  0  0
  191.4590  172.4720  135.2990 C   0  0  0  0  0  3  0  0  0  0  0  0
  185.7650  178.4690  137.9870 N   0  0  0  0  0  0  0  0  0  0  0  0
  186.0740  177.7230  136.8900 C   0  0  0  0  0  0  0  0  0  0  0  0
  185.3700  176.3490  134.8980 C   0  0  0  0  0  2  0  0  0  0  0  0
  184.4780  178.6440  138.3890 C   0  0  0  0  0  3  0  0  0  0  0  0
  187.5150  177.5030  136.4880 C   0  0  2  0  0  3  0  0  0  0  0  0
  183.4350  178.0490  137.6820 C   0  0  0  0  0  3  0  0  0  0  0  0
  187.6530  177.1350  135.1230 O   0  0  0  0  0  0  0  0  0  0  0  0
  185.0530  177.1120  136.1490 C   0  0  0  0  0  0  0  0  0  0  0  0
  186.8570  175.9990  134.8520 C   0  0  0  0  0  2  0  0  0  0  0  0
  183.7270  177.2810  136.5490 C   0  0  0  0  0  3  0  0  0  0  0  0
  190.7830  177.0390  140.2600 C   0  0  0  0  0  2  0  0  0  0  0  0
  190.5640  176.3910  141.6250 C   0  0  0  0  0  2  0  0  0  0  0  0
  189.0360  178.2750  142.2490 C   0  0  0  0  0  2  0  0  0  0  0  0
  189.2330  177.4790  143.5150 C   0  0  1  0  0  0  0  0  0  0  0  0
  189.1870  176.7500  142.1810 C   0  0  2  0  0  3  0  0  0  0  0  0
  188.6060  177.1360  145.7270 O   0  0  0  0  0  0  0  0  0  0  0  0
  190.5290  177.5670  144.3180 C   0  0  1  0  0  3  0  0  0  0  0  0
  186.9080  177.0650  144.1220 O   0  0  0  0  0  0  0  0  0  0  0  0
  190.5350  178.7430  145.3060 C   0  0  0  0  0  2  0  0  0  0  0  0
  190.0130  177.3940  145.7570 C   0  0  1  0  0  0  0  0  0  0  0  0
  188.1190  177.2250  144.4390 C   0  0  0  0  0  0  0  0  0  0  0  0
  190.8220  176.5530  146.5180 O   0  0  0  0  0  1  0  0  0  0  0  0
  3  6  1  0  0  0  0
  4 15  1  1  0  0  0
  4  5  1  0  0  0  0
  4  3  1  0  0  0  0
  5  2  1  1  0  0  0
  5  7  1  0  0  0  0
  6 29  1  1  0  0  0
  7  1  1  6  0  0  0
  7  6  1  0  0  0  0
  8 13  1  0  0  0  0
  8 15  2  0  0  0  0
  9 18  2  0  0  0  0
  9 11  1  0  0  0  0
 10 12  1  0  0  0  0
 11 14  2  0  0  0  0
 13 18  1  0  0  0  0
 13 12  2  0  0  0  0
 15 14  1  0  0  0  0
 16 17  1  0  0  0  0
 16  8  1  0  0  0  0
 17 10  2  0  0  0  0
 19 22  1  0  0  0  0
 20 19  2  0  0  0  0
 21 26  1  0  0  0  0
 23 25  1  6  0  0  0
 23 20  1  0  0  0  0
 23  5  1  0  0  0  0
 24 22  2  0  0  0  0
 26 28  2  0  0  0  0
 26 20  1  0  0  0  0
 27 21  1  0  0  0  0
 27 25  1  0  0  0  0
 28 24  1  0  0  0  0
 29 30  1  0  0  0  0
 32 31  1  6  0  0  0
 32 35  1  0  0  0  0
 32 39  1  0  0  0  0
 33 30  1  6  0  0  0
 33 31  1  0  0  0  0
 33 32  1  0  0  0  0
 34 38  1  0  0  0  0
 35 37  1  1  0  0  0
 35 38  1  0  0  0  0
 36 39  2  0  0  0  0
 37 38  1  0  0  0  0
 38 40  1  1  0  0  0
 39 34  1  0  0  0  0
M  END
>  <MODEL>
4

>  <REMARK>
 VINA RESULT:      -6.9      2.286      4.006
  Name = 
  5 active torsions:
  status: ('A' for Active; 'I' for Inactive)
    1  A    between atoms: C_4  and  C_14
    2  A    between atoms: C_8  and  C_14
    3  A    between atoms: C_8  and  C_29
    4  A    between atoms: C_17  and  C_25
    5  A    between atoms: C_27  and  C_28
                            x       y       z     vdW  Elec       q    Type
                         _______ _______ _______ _____ _____    ______ ____

>  <TORSDO>
F 5

$$$$
=
 OpenBabel11062418013D

 40 47  0  0  1  0  0  0  0  0999 V2000
  185.1340  173.5670  137.2380 C   0  0  0  0  0  1  0  0  0  0  0  0
  182.4560  175.4990  135.5380 O   0  0  0  0  0  1  0  0  0  0  0  0
  184.8350  176.6720  137.2890 N   0  0  0  0  0  2  0  0  0  0  0  0
  183.4970  176.1870  137.6220 C   0  0  2  0  0  3  0  0  0  0  0  0
  183.1300  175.0250  136.6690 C   0  0  2  0  0  0  0  0  0  0  0  0
  185.2850  175.8470  136.1760 C   0  0  2  0  0  3  0  0  0  0  0  0
  184.5070  174.5360  136.2260 C   0  0  1  0  0  3  0  0  0  0  0  0
  182.2370  177.9850  139.0640 C   0  0  1  0  0  3  0  0  0  0  0  0
  181.2560  180.1450  137.2760 C   0  0  0  0  0  3  0  0  0  0  0  0
  184.2290  178.9160  140.9460 C   0  0  0  0  0  3  0  0  0  0  0  0
  181.1320  179.0460  136.5220 C   0  0  0  0  0  3  0  0  0  0  0  0
  183.8070  179.7470  140.0410 N   0  0  0  0  0  0  0  0  0  0  0  0
  182.7740  179.4000  139.1100 C   0  0  0  0  0  0  0  0  0  0  0  0
  181.9630  177.8270  136.6160 C   0  0  0  0  0  3  0  0  0  0  0  0
  182.5210  177.3380  137.7280 C   0  0  0  0  0  0  0  0  0  0  0  0
  182.7010  177.1570  140.2390 C   0  0  0  0  0  3  0  0  0  0  0  0
  183.6420  177.5750  141.0860 C   0  0  0  0  0  3  0  0  0  0  0  0
  182.2580  180.3570  138.3390 C   0  0  0  0  0  3  0  0  0  0  0  0
  182.4870  172.0050  135.7990 N   0  0  0  0  0  0  0  0  0  0  0  0
  181.6860  172.9150  136.4200 C   0  0  0  0  0  0  0  0  0  0  0  0
  179.4060  173.8880  136.8740 C   0  0  0  0  0  2  0  0  0  0  0  0
  181.9860  171.1060  134.9110 C   0  0  0  0  0  3  0  0  0  0  0  0
  182.2720  173.9360  137.3690 C   0  0  2  0  0  3  0  0  0  0  0  0
  180.6250  171.1030  134.6070 C   0  0  0  0  0  3  0  0  0  0  0  0
  181.3060  174.4710  138.2640 O   0  0  0  0  0  0  0  0  0  0  0  0
  180.3120  172.9410  136.1450 C   0  0  0  0  0  0  0  0  0  0  0  0
  180.2200  175.0020  137.5320 C   0  0  0  0  0  2  0  0  0  0  0  0
  179.7820  172.0260  135.2350 C   0  0  0  0  0  3  0  0  0  0  0  0
  186.8040  175.7080  136.1710 C   0  0  0  0  0  2  0  0  0  0  0  0
  187.4860  177.0660  136.0250 C   0  0  0  0  0  2  0  0  0  0  0  0
  189.0450  178.6330  137.2040 C   0  0  0  0  0  2  0  0  0  0  0  0
  189.3620  177.2620  137.7480 C   0  0  1  0  0  0  0  0  0  0  0  0
  187.9240  177.6020  137.3880 C   0  0  2  0  0  3  0  0  0  0  0  0
  190.5300  176.0040  139.3150 O   0  0  0  0  0  0  0  0  0  0  0  0
  190.1590  176.2460  136.9340 C   0  0  1  0  0  3  0  0  0  0  0  0
  189.1420  177.6950  140.1380 O   0  0  0  0  0  0  0  0  0  0  0  0
  191.6760  176.4260  137.0820 C   0  0  0  0  0  2  0  0  0  0  0  0
  190.9390  175.5100  138.0360 C   0  0  1  0  0  0  0  0  0  0  0  0
  189.6480  177.0550  139.1750 C   0  0  0  0  0  0  0  0  0  0  0  0
  190.9690  174.1310  137.8410 O   0  0  0  0  0  1  0  0  0  0  0  0
  3  4  1  0  0  0  0
  4 15  1  6  0  0  0
  5  2  1  6  0  0  0
  5 23  1  0  0  0  0
  5  4  1  0  0  0  0
  6 29  1  1  0  0  0
  6  7  1  0  0  0  0
  6  3  1  0  0  0  0
  7  5  1  0  0  0  0
  7  1  1  1  0  0  0
  8 13  1  0  0  0  0
  8 16  1  1  0  0  0
  9 18  1  0  0  0  0
 10 17  1  0  0  0  0
 11 14  1  0  0  0  0
 11  9  2  0  0  0  0
 12 10  2  0  0  0  0
 13 12  1  0  0  0  0
 14 15  2  0  0  0  0
 15  8  1  0  0  0  0
 16 17  2  0  0  0  0
 18 13  2  0  0  0  0
 19 20  1  0  0  0  0
 21 27  1  0  0  0  0
 22 19  2  0  0  0  0
 23 20  1  6  0  0  0
 23 25  1  0  0  0  0
 24 22  1  0  0  0  0
 24 28  2  0  0  0  0
 26 20  2  0  0  0  0
 26 21  1  0  0  0  0
 27 25  1  0  0  0  0
 28 26  1  0  0  0  0
 30 29  1  0  0  0  0
 31 33  1  0  0  0  0
 32 31  1  6  0  0  0
 32 39  1  0  0  0  0
 33 30  1  6  0  0  0
 33 32  1  0  0  0  0
 35 37  1  6  0  0  0
 35 32  1  0  0  0  0
 35 38  1  0  0  0  0
 37 38  1  0  0  0  0
 38 40  1  6  0  0  0
 38 34  1  0  0  0  0
 39 34  1  0  0  0  0
 39 36  2  0  0  0  0
M  END
>  <MODEL>
5

>  <REMARK>
 VINA RESULT:      -6.8      5.150      9.991
  Name = 
  5 active torsions:
  status: ('A' for Active; 'I' for Inactive)
    1  A    between atoms: C_4  and  C_14
    2  A    between atoms: C_8  and  C_14
    3  A    between atoms: C_8  and  C_29
    4  A    between atoms: C_17  and  C_25
    5  A    between atoms: C_27  and  C_28
                            x       y       z     vdW  Elec       q    Type
                         _______ _______ _______ _____ _____    ______ ____

>  <TORSDO>
F 5

$$$$
=
 OpenBabel11062418013D

 40 47  0  0  1  0  0  0  0  0999 V2000
  182.7480  180.1240  139.2780 C   0  0  0  0  0  1  0  0  0  0  0  0
  180.5340  177.4720  137.9160 O   0  0  0  0  0  1  0  0  0  0  0  0
  183.1470  177.0560  139.6760 N   0  0  0  0  0  2  0  0  0  0  0  0
  182.9260  177.1950  138.2390 C   0  0  2  0  0  3  0  0  0  0  0  0
  181.7460  178.1670  138.0010 C   0  0  2  0  0  0  0  0  0  0  0  0
  182.1490  177.9060  140.3110 C   0  0  2  0  0  3  0  0  0  0  0  0
  181.7360  178.9710  139.3000 C   0  0  1  0  0  3  0  0  0  0  0  0
  183.9110  175.4170  136.5750 C   0  0  0  0  0  0  0  0  0  0  0  0
  182.8060  172.7440  137.2500 C   0  0  0  0  0  3  0  0  0  0  0  0
  186.7730  175.5730  136.9750 C   0  0  0  0  0  3  0  0  0  0  0  0
  181.7850  173.5700  137.5110 C   0  0  0  0  0  3  0  0  0  0  0  0
  186.1630  174.4860  137.3410 N   0  0  0  0  0  0  0  0  0  0  0  0
  184.7600  174.2900  137.1220 C   0  0  0  0  0  0  0  0  0  0  0  0
  181.8930  174.9830  137.9290 C   0  0  0  0  0  3  0  0  0  0  0  0
  182.8580  175.8380  137.5730 C   0  0  0  0  0  0  0  0  0  0  0  0
  184.7450  176.5690  136.0660 C   0  0  0  0  0  2  0  0  0  0  0  0
  186.0590  176.6550  136.2800 C   0  0  0  0  0  3  0  0  0  0  0  0
  184.2400  173.0830  137.3460 C   0  0  0  0  0  3  0  0  0  0  0  0
  180.8770  181.1940  137.3910 N   0  0  0  0  0  0  0  0  0  0  0  0
  180.8990  180.1170  136.5590 C   0  0  0  0  0  0  0  0  0  0  0  0
  179.9740  178.8390  134.5940 C   0  0  0  0  0  2  0  0  0  0  0  0
  179.9250  182.1580  137.2820 C   0  0  0  0  0  3  0  0  0  0  0  0
  181.9410  179.0340  136.7280 C   0  0  2  0  0  3  0  0  0  0  0  0
  178.9310  182.0560  136.3100 C   0  0  0  0  0  3  0  0  0  0  0  0
  182.1280  178.2640  135.5480 O   0  0  0  0  0  0  0  0  0  0  0  0
  179.9210  179.9810  135.5640 C   0  0  0  0  0  0  0  0  0  0  0  0
  180.8890  177.7340  135.1220 C   0  0  0  0  0  2  0  0  0  0  0  0
  178.9360  180.9600  135.4410 C   0  0  0  0  0  3  0  0  0  0  0  0
  182.6450  178.4340  141.6530 C   0  0  0  0  0  2  0  0  0  0  0  0
  184.0760  177.9820  141.9340 C   0  0  0  0  0  2  0  0  0  0  0  0
  185.2980  179.6240  143.3790 C   0  0  0  0  0  2  0  0  0  0  0  0
  185.9850  178.2990  143.6030 C   0  0  1  0  0  0  0  0  0  0  0  0
  184.4820  178.3240  143.3670 C   0  0  2  0  0  3  0  0  0  0  0  0
  187.5520  177.0910  144.8230 O   0  0  0  0  0  0  0  0  0  0  0  0
  186.9340  177.7080  142.5630 C   0  0  1  0  0  3  0  0  0  0  0  0
  185.8660  178.1660  146.0350 O   0  0  0  0  0  0  0  0  0  0  0  0
  188.3690  178.2380  142.7020 C   0  0  0  0  0  2  0  0  0  0  0  0
  187.9600  176.9880  143.4550 C   0  0  1  0  0  0  0  0  0  0  0  0
  186.4310  177.8860  144.9410 C   0  0  0  0  0  0  0  0  0  0  0  0
  188.3090  175.7330  142.9630 O   0  0  0  0  0  1  0  0  0  0  0  0
  3  6  1  0  0  0  0
  4 15  1  1  0  0  0
  4  3  1  0  0  0  0
  5  2  1  6  0  0  0
  5  4  1  0  0  0  0
  5  7  1  0  0  0  0
  6 29  1  1  0  0  0
  7  1  1  6  0  0  0
  7  6  1  0  0  0  0
  8 13  1  0  0  0  0
  8 15  2  0  0  0  0
  9 18  2  0  0  0  0
  9 11  1  0  0  0  0
 10 12  1  0  0  0  0
 11 14  2  0  0  0  0
 13 12  2  0  0  0  0
 13 18  1  0  0  0  0
 15 14  1  0  0  0  0
 16 17  1  0  0  0  0
 16  8  1  0  0  0  0
 17 10  2  0  0  0  0
 20 23  1  0  0  0  0
 20 19  2  0  0  0  0
 21 27  1  0  0  0  0
 21 26  1  0  0  0  0
 22 19  1  0  0  0  0
 23 25  1  6  0  0  0
 23  5  1  0  0  0  0
 24 22  2  0  0  0  0
 26 20  1  0  0  0  0
 27 25  1  0  0  0  0
 28 26  2  0  0  0  0
 28 24  1  0  0  0  0
 29 30  1  0  0  0  0
 32 31  1  6  0  0  0
 32 39  1  0  0  0  0
 33 30  1  6  0  0  0
 33 31  1  0  0  0  0
 33 32  1  0  0  0  0
 34 39  1  0  0  0  0
 35 37  1  1  0  0  0
 35 38  1  0  0  0  0
 35 32  1  0  0  0  0
 37 38  1  0  0  0  0
 38 40  1  6  0  0  0
 38 34  1  0  0  0  0
 39 36  2  0  0  0  0
M  END
>  <MODEL>
6

>  <REMARK>
 VINA RESULT:      -6.6      5.876      9.437
  Name = 
  5 active torsions:
  status: ('A' for Active; 'I' for Inactive)
    1  A    between atoms: C_4  and  C_14
    2  A    between atoms: C_8  and  C_14
    3  A    between atoms: C_8  and  C_29
    4  A    between atoms: C_17  and  C_25
    5  A    between atoms: C_27  and  C_28
                            x       y       z     vdW  Elec       q    Type
                         _______ _______ _______ _____ _____    ______ ____

>  <TORSDO>
F 5

$$$$
=
 OpenBabel11062418013D

 40 47  0  0  1  0  0  0  0  0999 V2000
  186.0020  178.5440  137.6750 C   0  0  0  0  0  1  0  0  0  0  0  0
  183.5120  176.4580  139.4750 O   0  0  0  0  0  1  0  0  0  0  0  0
  183.6790  176.9470  136.3390 N   0  0  0  0  0  2  0  0  0  0  0  0
  183.0250  177.6710  137.4270 C   0  0  2  0  0  3  0  0  0  0  0  0
  183.8950  177.5600  138.7020 C   0  0  2  0  0  0  0  0  0  0  0  0
  184.9060  176.4090  136.9090 C   0  0  2  0  0  3  0  0  0  0  0  0
  185.2740  177.2670  138.1150 C   0  0  1  0  0  3  0  0  0  0  0  0
  180.4750  178.2230  137.1140 C   0  0  0  0  0  0  0  0  0  0  0  0
  178.9350  175.6840  137.0700 C   0  0  0  0  0  3  0  0  0  0  0  0
  180.3570  179.6410  134.5940 C   0  0  0  0  0  3  0  0  0  0  0  0
  179.9130  175.4310  137.9490 C   0  0  0  0  0  3  0  0  0  0  0  0
  179.8110  178.4640  134.6590 N   0  0  0  0  0  0  0  0  0  0  0  0
  179.7600  177.7150  135.8800 C   0  0  2  0  0  3  0  0  0  0  0  0
  181.2610  176.0360  137.9490 C   0  0  0  0  0  3  0  0  0  0  0  0
  181.5700  177.2710  137.5380 C   0  0  0  0  0  0  0  0  0  0  0  0
  180.9530  179.6470  136.9550 C   0  0  0  0  0  3  0  0  0  0  0  0
  180.9270  180.2870  135.7850 C   0  0  0  0  0  3  0  0  0  0  0  0
  179.0200  176.6070  135.9210 C   0  0  0  0  0  3  0  0  0  0  0  0
  185.8820  178.6150  140.9880 N   0  0  0  0  0  0  0  0  0  0  0  0
  184.5270  178.7130  140.9080 C   0  0  0  0  0  0  0  0  0  0  0  0
  182.2620  178.8210  142.0100 C   0  0  0  0  0  2  0  0  0  0  0  0
  186.5150  178.4520  142.1800 C   0  0  0  0  0  3  0  0  0  0  0  0
  183.8410  178.8480  139.5670 C   0  0  2  0  0  3  0  0  0  0  0  0
  185.7780  178.3710  143.3600 C   0  0  0  0  0  3  0  0  0  0  0  0
  182.5360  179.4010  139.6710 O   0  0  0  0  0  0  0  0  0  0  0  0
  183.7490  178.6420  142.0730 C   0  0  0  0  0  0  0  0  0  0  0  0
  181.7650  178.6370  140.5770 C   0  0  0  0  0  2  0  0  0  0  0  0
  184.3840  178.4730  143.3040 C   0  0  0  0  0  3  0  0  0  0  0  0
  185.9940  176.2700  135.8470 C   0  0  0  0  0  2  0  0  0  0  0  0
  186.8570  175.0350  136.0940 C   0  0  0  0  0  2  0  0  0  0  0  0
  189.2130  174.1850  136.0410 C   0  0  0  0  0  2  0  0  0  0  0  0
  189.3200  175.6520  136.3790 C   0  0  1  0  0  0  0  0  0  0  0  0
  188.2250  175.1880  135.4300 C   0  0  2  0  0  3  0  0  0  0  0  0
  190.7090  177.4890  136.6940 O   0  0  0  0  0  0  0  0  0  0  0  0
  188.9830  176.1760  137.7730 C   0  0  1  0  0  3  0  0  0  0  0  0
  190.8790  176.3720  134.6470 O   0  0  0  0  0  0  0  0  0  0  0  0
  190.1690  176.0800  138.7440 C   0  0  0  0  0  2  0  0  0  0  0  0
  189.9830  177.3360  137.9170 C   0  0  1  0  0  0  0  0  0  0  0  0
  190.3750  176.4940  135.7980 C   0  0  0  0  0  0  0  0  0  0  0  0
  189.4090  178.4690  138.4900 O   0  0  0  0  0  1  0  0  0  0  0  0
  3  6  1  0  0  0  0
  3  4  1  0  0  0  0
  4 15  1  1  0  0  0
  4  5  1  0  0  0  0
  5  2  1  1  0  0  0
  5 23  1  0  0  0  0
  6 29  1  6  0  0  0
  6  7  1  0  0  0  0
  7  1  1  6  0  0  0
  7  5  1  0  0  0  0
  8 15  2  0  0  0  0
  9 11  1  0  0  0  0
 10 12  2  0  0  0  0
 10 17  1  0  0  0  0
 12 13  1  0  0  0  0
 13 18  1  1  0  0  0
 13  8  1  0  0  0  0
 14 11  2  0  0  0  0
 15 14  1  0  0  0  0
 16  8  1  0  0  0  0
 17 16  2  0  0  0  0
 18  9  2  0  0  0  0
 19 22  1  0  0  0  0
 20 19  2  0  0  0  0
 20 26  1  0  0  0  0
 21 26  1  0  0  0  0
 22 24  2  0  0  0  0
 23 25  1  1  0  0  0
 23 20  1  0  0  0  0
 25 27  1  0  0  0  0
 26 28  2  0  0  0  0
 27 21  1  0  0  0  0
 28 24  1  0  0  0  0
 29 30  1  0  0  0  0
 32 31  1  1  0  0  0
 32 35  1  0  0  0  0
 33 31  1  0  0  0  0
 33 30  1  1  0  0  0
 33 32  1  0  0  0  0
 34 38  1  0  0  0  0
 35 38  1  0  0  0  0
 35 37  1  1  0  0  0
 36 39  2  0  0  0  0
 38 40  1  1  0  0  0
 38 37  1  0  0  0  0
 39 32  1  0  0  0  0
 39 34  1  0  0  0  0
M  END
>  <MODEL>
7

>  <REMARK>
 VINA RESULT:      -6.3      5.190     10.845
  Name = 
  5 active torsions:
  status: ('A' for Active; 'I' for Inactive)
    1  A    between atoms: C_4  and  C_14
    2  A    between atoms: C_8  and  C_14
    3  A    between atoms: C_8  and  C_29
    4  A    between atoms: C_17  and  C_25
    5  A    between atoms: C_27  and  C_28
                            x       y       z     vdW  Elec       q    Type
                         _______ _______ _______ _____ _____    ______ ____

>  <TORSDO>
F 5

$$$$
=
 OpenBabel11062418013D

 40 47  0  0  1  0  0  0  0  0999 V2000
  186.3340  178.9580  137.2240 C   0  0  0  0  0  1  0  0  0  0  0  0
  184.1880  176.6080  139.1370 O   0  0  0  0  0  1  0  0  0  0  0  0
  183.8250  177.4800  136.1030 N   0  0  0  0  0  2  0  0  0  0  0  0
  183.3600  178.0500  137.3660 C   0  0  2  0  0  3  0  0  0  0  0  0
  184.4320  177.8050  138.4550 C   0  0  2  0  0  0  0  0  0  0  0  0
  185.1330  176.9060  136.3900 C   0  0  2  0  0  3  0  0  0  0  0  0
  185.6950  177.6190  137.6160 C   0  0  1  0  0  3  0  0  0  0  0  0
  180.7900  178.5680  137.5320 C   0  0  0  0  0  0  0  0  0  0  0  0
  179.2810  176.0110  137.4570 C   0  0  0  0  0  3  0  0  0  0  0  0
  180.2510  180.2480  135.2380 C   0  0  0  0  0  3  0  0  0  0  0  0
  180.3910  175.6900  138.1330 C   0  0  0  0  0  3  0  0  0  0  0  0
  179.7310  179.0580  135.2600 N   0  0  0  0  0  0  0  0  0  0  0  0
  179.8860  178.1800  136.3820 C   0  0  2  0  0  3  0  0  0  0  0  0
  181.7170  176.3250  137.9820 C   0  0  0  0  0  3  0  0  0  0  0  0
  181.9460  177.6040  137.6650 C   0  0  0  0  0  0  0  0  0  0  0  0
  181.2250  180.0130  137.4580 C   0  0  0  0  0  3  0  0  0  0  0  0
  181.0040  180.7750  136.3860 C   0  0  0  0  0  3  0  0  0  0  0  0
  179.1710  177.0550  136.4190 C   0  0  0  0  0  3  0  0  0  0  0  0
  186.7820  178.6380  140.4730 N   0  0  0  0  0  0  0  0  0  0  0  0
  185.4330  178.7010  140.6440 C   0  0  0  0  0  0  0  0  0  0  0  0
  183.3990  178.6020  142.1290 C   0  0  0  0  0  2  0  0  0  0  0  0
  187.6170  178.3520  141.5060 C   0  0  0  0  0  3  0  0  0  0  0  0
  184.5190  178.9760  139.4710 C   0  0  2  0  0  3  0  0  0  0  0  0
  187.1020  178.1040  142.7780 C   0  0  0  0  0  3  0  0  0  0  0  0
  183.2470  179.4700  139.8700 O   0  0  0  0  0  0  0  0  0  0  0  0
  184.8750  178.4640  141.9080 C   0  0  0  0  0  0  0  0  0  0  0  0
  182.6570  178.5770  140.7930 C   0  0  0  0  0  2  0  0  0  0  0  0
  185.7190  178.1670  142.9790 C   0  0  0  0  0  3  0  0  0  0  0  0
  186.0280  176.9250  135.1540 C   0  0  0  0  0  2  0  0  0  0  0  0
  186.5160  175.5220  134.8010 C   0  0  0  0  0  2  0  0  0  0  0  0
  186.7940  173.1660  135.6050 C   0  0  0  0  0  2  0  0  0  0  0  0
  185.3720  173.5430  135.9420 C   0  0  1  0  0  0  0  0  0  0  0  0
  186.4590  174.6050  136.0210 C   0  0  2  0  0  3  0  0  0  0  0  0
  183.4010  172.9610  137.0270 O   0  0  0  0  0  0  0  0  0  0  0  0
  184.2890  173.6050  134.8670 C   0  0  1  0  0  3  0  0  0  0  0  0
  185.3460  173.0150  138.3220 O   0  0  0  0  0  0  0  0  0  0  0  0
  183.6420  172.2390  134.5980 C   0  0  0  0  0  2  0  0  0  0  0  0
  183.0480  173.1490  135.6540 C   0  0  1  0  0  0  0  0  0  0  0  0
  184.7560  173.1400  137.2140 C   0  0  0  0  0  0  0  0  0  0  0  0
  181.9190  173.9120  135.3610 O   0  0  0  0  0  1  0  0  0  0  0  0
  3  6  1  0  0  0  0
  3  4  1  0  0  0  0
  4 15  1  1  0  0  0
  4  5  1  0  0  0  0
  5  2  1  1  0  0  0
  5 23  1  0  0  0  0
  6 29  1  6  0  0  0
  6  7  1  0  0  0  0
  7  1  1  6  0  0  0
  7  5  1  0  0  0  0
  8 15  2  0  0  0  0
  9 11  1  0  0  0  0
 10 12  2  0  0  0  0
 10 17  1  0  0  0  0
 12 13  1  0  0  0  0
 13 18  1  1  0  0  0
 13  8  1  0  0  0  0
 14 11  2  0  0  0  0
 15 14  1  0  0  0  0
 16  8  1  0  0  0  0
 17 16  2  0  0  0  0
 18  9  2  0  0  0  0
 19 20  2  0  0  0  0
 19 22  1  0  0  0  0
 20 26  1  0  0  0  0
 22 24  2  0  0  0  0
 23 25  1  1  0  0  0
 23 20  1  0  0  0  0
 24 28  1  0  0  0  0
 25 27  1  0  0  0  0
 26 21  1  0  0  0  0
 26 28  2  0  0  0  0
 27 21  1  0  0  0  0
 30 29  1  0  0  0  0
 31 33  1  0  0  0  0
 32 31  1  6  0  0  0
 32 33  1  0  0  0  0
 32 39  1  0  0  0  0
 33 30  1  6  0  0  0
 34 39  1  0  0  0  0
 35 37  1  6  0  0  0
 35 38  1  0  0  0  0
 35 32  1  0  0  0  0
 37 38  1  0  0  0  0
 38 40  1  6  0  0  0
 38 34  1  0  0  0  0
 39 36  2  0  0  0  0
M  END
>  <MODEL>
8

>  <REMARK>
 VINA RESULT:      -6.3      6.288     11.145
  Name = 
  5 active torsions:
  status: ('A' for Active; 'I' for Inactive)
    1  A    between atoms: C_4  and  C_14
    2  A    between atoms: C_8  and  C_14
    3  A    between atoms: C_8  and  C_29
    4  A    between atoms: C_17  and  C_25
    5  A    between atoms: C_27  and  C_28
                            x       y       z     vdW  Elec       q    Type
                         _______ _______ _______ _____ _____    ______ ____

>  <TORSDO>
F 5

$$$$
=
 OpenBabel11062418013D

 40 47  0  0  1  0  0  0  0  0999 V2000
  183.1580  179.7120  139.4460 C   0  0  0  0  0  1  0  0  0  0  0  0
  183.5560  176.1010  138.6780 O   0  0  0  0  0  1  0  0  0  0  0  0
  185.8790  178.2110  139.1790 N   0  0  0  0  0  2  0  0  0  0  0  0
  185.1400  177.8080  137.9850 C   0  0  2  0  0  3  0  0  0  0  0  0
  183.6850  177.4630  138.3850 C   0  0  2  0  0  0  0  0  0  0  0  0
  184.9270  178.1230  140.2780 C   0  0  2  0  0  3  0  0  0  0  0  0
  183.5250  178.2420  139.6890 C   0  0  1  0  0  3  0  0  0  0  0  0
  187.1800  177.1470  136.4670 C   0  0  1  0  0  3  0  0  0  0  0  0
  187.5620  174.2040  136.5890 C   0  0  0  0  0  3  0  0  0  0  0  0
  189.4100  178.6090  137.5930 C   0  0  0  0  0  3  0  0  0  0  0  0
  186.2330  174.3410  136.6580 C   0  0  0  0  0  3  0  0  0  0  0  0
  189.4160  177.3130  137.6900 N   0  0  0  0  0  0  0  0  0  0  0  0
  188.3910  176.5000  137.1040 C   0  0  0  0  0  0  0  0  0  0  0  0
  185.5040  175.4980  137.2200 C   0  0  0  0  0  3  0  0  0  0  0  0
  185.9130  176.7710  137.2010 C   0  0  0  0  0  0  0  0  0  0  0  0
  187.3480  178.6390  136.2960 C   0  0  0  0  0  3  0  0  0  0  0  0
  188.3600  179.3140  136.8430 C   0  0  0  0  0  3  0  0  0  0  0  0
  188.5590  175.1780  137.0760 C   0  0  0  0  0  3  0  0  0  0  0  0
  180.4780  177.4450  138.4260 N   0  0  0  0  0  0  0  0  0  0  0  0
  181.3310  177.1510  137.4060 C   0  0  0  0  0  0  0  0  0  0  0  0
  181.8930  175.8660  135.3120 C   0  0  0  0  0  2  0  0  0  0  0  0
  179.2950  176.7910  138.5750 C   0  0  0  0  0  3  0  0  0  0  0  0
  182.6620  177.8590  137.2860 C   0  0  2  0  0  3  0  0  0  0  0  0
  178.9320  175.7860  137.6810 C   0  0  0  0  0  3  0  0  0  0  0  0
  183.1970  177.8010  135.9710 O   0  0  0  0  0  0  0  0  0  0  0  0
  180.9990  176.1500  136.4820 C   0  0  0  0  0  0  0  0  0  0  0  0
  183.2830  176.4550  135.5500 C   0  0  0  0  0  2  0  0  0  0  0  0
  179.7900  175.4690  136.6220 C   0  0  0  0  0  3  0  0  0  0  0  0
  185.2610  179.1240  141.3800 C   0  0  0  0  0  2  0  0  0  0  0  0
  186.7190  179.0040  141.8160 C   0  0  0  0  0  2  0  0  0  0  0  0
  187.3270  177.8820  143.9720 C   0  0  0  0  0  2  0  0  0  0  0  0
  188.4010  177.4800  142.9910 C   0  0  1  0  0  0  0  0  0  0  0  0
  186.9730  177.6590  142.4950 C   0  0  2  0  0  3  0  0  0  0  0  0
  190.2560  176.1470  142.5600 O   0  0  0  0  0  0  0  0  0  0  0  0
  189.5050  178.4500  142.5760 C   0  0  1  0  0  3  0  0  0  0  0  0
  188.2970  175.0540  143.2190 O   0  0  0  0  0  0  0  0  0  0  0  0
  190.6900  178.4510  143.5510 C   0  0  0  0  0  2  0  0  0  0  0  0
  190.6940  177.4960  142.3750 C   0  0  1  0  0  0  0  0  0  0  0  0
  188.9370  176.1120  142.9630 C   0  0  0  0  0  0  0  0  0  0  0  0
  191.4360  177.7990  141.2350 O   0  0  0  0  0  1  0  0  0  0  0  0
  3  6  1  0  0  0  0
  4 15  1  1  0  0  0
  4  5  1  0  0  0  0
  4  3  1  0  0  0  0
  5  2  1  1  0  0  0
  5  7  1  0  0  0  0
  6 29  1  1  0  0  0
  7  1  1  6  0  0  0
  7  6  1  0  0  0  0
  8 16  1  1  0  0  0
  8 13  1  0  0  0  0
  8 15  1  0  0  0  0
  9 11  2  0  0  0  0
  9 18  1  0  0  0  0
 10 12  2  0  0  0  0
 11 14  1  0  0  0  0
 13 12  1  0  0  0  0
 15 14  2  0  0  0  0
 16 17  2  0  0  0  0
 17 10  1  0  0  0  0
 18 13  2  0  0  0  0
 19 22  1  0  0  0  0
 20 19  2  0  0  0  0
 21 27  1  0  0  0  0
 21 26  1  0  0  0  0
 23 25  1  6  0  0  0
 23 20  1  0  0  0  0
 23  5  1  0  0  0  0
 24 22  2  0  0  0  0
 26 28  2  0  0  0  0
 26 20  1  0  0  0  0
 27 25  1  0  0  0  0
 28 24  1  0  0  0  0
 29 30  1  0  0  0  0
 32 31  1  1  0  0  0
 33 30  1  6  0  0  0
 33 32  1  0  0  0  0
 33 31  1  0  0  0  0
 34 39  1  0  0  0  0
 35 32  1  0  0  0  0
 35 37  1  1  0  0  0
 38 40  1  6  0  0  0
 38 34  1  0  0  0  0
 38 35  1  0  0  0  0
 38 37  1  0  0  0  0
 39 32  1  0  0  0  0
 39 36  2  0  0  0  0
M  END
>  <MODEL>
9

>  <REMARK>
 VINA RESULT:      -6.2      4.428      7.173
  Name = 
  5 active torsions:
  status: ('A' for Active; 'I' for Inactive)
    1  A    between atoms: C_4  and  C_14
    2  A    between atoms: C_8  and  C_14
    3  A    between atoms: C_8  and  C_29
    4  A    between atoms: C_17  and  C_25
    5  A    between atoms: C_27  and  C_28
                            x       y       z     vdW  Elec       q    Type
                         _______ _______ _______ _____ _____    ______ ____

>  <TORSDO>
F 5

$$$$
