=
 OpenBabel11062414253D

 50 56  0  0  1  0  0  0  0  0999 V2000
  179.8080  177.5430  143.6550 N   0  0  0  0  0  0  0  0  0  0  0  0
  181.4160  179.0010  143.3180 C   0  0  0  0  0  0  0  0  0  0  0  0
  180.9320  177.9300  144.1100 N   0  0  0  0  0  2  0  0  0  0  0  0
  179.4090  178.3150  142.4820 C   0  0  0  0  0  3  0  0  0  0  0  0
  180.5580  179.2550  142.3480 C   0  0  0  0  0  0  0  0  0  0  0  0
  185.3360  178.7340  146.9320 C   0  0  0  0  0  3  0  0  0  0  0  0
  183.7030  179.1030  142.3960 C   0  0  0  0  0  2  0  0  0  0  0  0
  185.6740  179.0970  145.5180 C   0  0  1  0  0  3  0  0  0  0  0  0
  186.9940  177.8640  142.9040 C   0  0  2  0  0  3  0  0  0  0  0  0
  189.0870  177.2540  148.4450 C   0  0  0  0  0  1  0  0  0  0  0  0
  189.7490  177.7130  146.2100 O   0  0  0  0  0  0  0  0  0  0  0  0
  185.0020  178.8680  143.1060 C   0  0  2  0  0  3  0  0  0  0  0  0
  187.1110  178.5410  145.3240 C   0  0  1  0  0  3  0  0  0  0  0  0
  187.4850  178.0860  146.6540 N   0  0  0  0  0  0  0  0  0  0  0  0
  186.3790  178.1950  147.5350 C   0  0  0  0  0  3  0  0  0  0  0  0
  187.2430  177.3820  144.3310 C   0  0  0  0  0  2  0  0  0  0  0  0
  185.6310  177.7360  142.5770 O   0  0  0  0  0  0  0  0  0  0  0  0
  183.3380  179.3080  144.7790 N   0  0  0  0  0  2  0  0  0  0  0  0
  182.7690  179.6220  143.4690 C   0  0  2  0  0  3  0  0  0  0  0  0
  188.8060  177.6910  147.0460 C   0  0  0  0  0  0  0  0  0  0  0  0
  184.5960  178.6050  144.5420 C   0  0  2  0  0  3  0  0  0  0  0  0
  187.8360  177.1160  141.9640 N   0  0  0  0  0  0  0  0  0  0  0  0
  188.6790  176.2220  142.7490 C   0  0  0  0  0  2  0  0  0  0  0  0
  190.9640  175.7640  143.2710 O   0  0  0  0  0  1  0  0  0  0  0  0
  190.1290  176.3660  142.3280 C   0  0  0  0  0  2  0  0  0  0  0  0
  188.6570  177.9880  141.3210 O   0  0  0  0  0  0  0  0  0  0  0  0
  189.0910  178.6410  139.0800 C   0  0  0  0  0  2  0  0  0  0  0  0
  188.0400  178.2250  140.0890 C   0  0  0  0  0  3  0  0  0  0  0  0
  188.5600  177.2240  139.0780 C   0  0  0  0  0  2  0  0  0  0  0  0
  180.7630  180.2030  141.2940 N   0  0  0  0  0  2  0  0  0  0  0  0
  179.8340  180.3420  140.1840 C   0  0  0  0  0  2  0  0  0  0  0  0
  180.5540  180.9460  138.9870 C   0  0  0  0  0  2  0  0  0  0  0  0
  183.2990  180.3010  138.9620 O   0  0  0  0  0  0  0  0  0  0  0  0
  181.1450  179.8990  138.1620 N   0  0  0  0  0  0  0  0  0  0  0  0
  182.5030  179.4970  138.3980 C   0  0  0  0  0  0  0  0  0  0  0  0
  183.0010  178.1540  138.0290 C   0  0  0  0  0  0  0  0  0  0  0  0
  183.0590  177.8320  136.8110 O   0  0  0  0  0  0  0  0  0  0  0  0
  183.4640  177.1630  139.0630 C   0  0  2  0  0  3  0  0  0  0  0  0
  183.4280  175.8590  138.5310 O   0  0  0  0  0  0  0  0  0  0  0  0
  182.4580  176.1430  139.5110 C   0  0  2  0  0  3  0  0  0  0  0  0
  180.2150  176.9400  139.3600 O   0  0  0  0  0  0  0  0  0  0  0  0
  180.8040  175.4470  137.6490 C   0  0  0  0  0  1  0  0  0  0  0  0
  181.0860  176.2220  138.8880 C   0  0  0  0  0  0  0  0  0  0  0  0
  180.4350  179.4550  136.9660 C   0  0  0  0  0  2  0  0  0  0  0  0
  179.7120  180.5180  136.4160 O   0  0  0  0  0  0  0  0  0  0  0  0
  180.5340  181.0170  135.4020 C   0  0  0  0  0  2  0  0  0  0  0  0
  180.1780  182.4670  135.1050 C   0  0  0  0  0  2  0  0  0  0  0  0
  179.7170  184.4900  136.4430 C   0  0  0  0  0  2  0  0  0  0  0  0
  180.9480  184.7620  135.6110 C   0  0  0  0  0  2  0  0  0  0  0  0
  180.7190  183.3840  136.1860 C   0  0  0  0  0  3  0  0  0  0  0  0
  1  3  1  0  0  0  0
  2  3  1  0  0  0  0
  4  1  2  0  0  0  0
  5  4  1  0  0  0  0
  5  2  2  0  0  0  0
  6 15  2  0  0  0  0
  7 19  1  0  0  0  0
  8  6  1  1  0  0  0
  9 22  1  6  0  0  0
  9 16  1  0  0  0  0
 11 20  2  0  0  0  0
 12  7  1  6  0  0  0
 12 21  1  0  0  0  0
 13 16  1  6  0  0  0
 13  8  1  0  0  0  0
 13 14  1  0  0  0  0
 14 20  1  0  0  0  0
 14 15  1  0  0  0  0
 17  9  1  0  0  0  0
 17 12  1  0  0  0  0
 19  2  1  1  0  0  0
 19 18  1  0  0  0  0
 20 10  1  0  0  0  0
 21 18  1  1  0  0  0
 21  8  1  0  0  0  0
 22 23  1  0  0  0  0
 25 23  1  0  0  0  0
 25 24  1  0  0  0  0
 26 22  1  0  0  0  0
 27 28  1  0  0  0  0
 28 26  1  0  0  0  0
 29 27  1  0  0  0  0
 29 28  1  0  0  0  0
 30  5  1  0  0  0  0
 31 30  1  0  0  0  0
 32 31  1  0  0  0  0
 34 35  1  0  0  0  0
 34 32  1  0  0  0  0
 35 33  2  0  0  0  0
 36 35  1  0  0  0  0
 37 36  2  0  0  0  0
 38 36  1  6  0  0  0
 38 40  1  0  0  0  0
 39 38  1  0  0  0  0
 39 40  1  0  0  0  0
 40 43  1  6  0  0  0
 42 43  1  0  0  0  0
 43 41  2  0  0  0  0
 44 34  1  0  0  0  0
 45 44  1  0  0  0  0
 46 45  1  0  0  0  0
 47 46  1  0  0  0  0
 47 50  1  0  0  0  0
 49 50  1  0  0  0  0
 49 48  1  0  0  0  0
 50 48  1  0  0  0  0
M  END
>  <MODEL>
1

>  <REMARK>
 VINA RESULT:      -6.9      0.000      0.000
  Name = 
  18 active torsions:
  status: ('A' for Active; 'I' for Inactive)
    1  A    between atoms: C_1  and  C_37
    2  A    between atoms: C_1  and  O_42
    3  A    between atoms: C_9  and  C_44
    4  A    between atoms: C_12  and  N_17
    5  A    between atoms: N_13  and  C_18
    6  A    between atoms: N_13  and  C_49
    7  A    between atoms: C_14  and  C_27
    8  A    between atoms: C_15  and  C_24
    9  A    between atoms: O_16  and  N_17
   10  A    between atoms: O_16  and  C_20
   11  A    between atoms: N_17  and  C_27
   12  A    between atoms: C_18  and  O_42
   13  A    between atoms: C_24  and  C_43
   14  A    between atoms: C_28  and  C_35
   15  A    between atoms: C_33  and  N_45
   16  A    between atoms: C_36  and  C_37
   17  A    between atoms: N_45  and  C_47
   18  A    between atoms: C_47  and  C_49
                            x       y       z     vdW  Elec       q    Type
                         _______ _______ _______ _____ _____    ______ ____

>  <TORSDO>
F 18

$$$$
=
 OpenBabel11062414253D

 50 56  0  0  1  0  0  0  0  0999 V2000
  179.7430  177.4730  142.1110 N   0  0  0  0  0  0  0  0  0  0  0  0
  181.5450  178.7140  141.9070 C   0  0  0  0  0  0  0  0  0  0  0  0
  180.6380  178.0720  142.7880 N   0  0  0  0  0  2  0  0  0  0  0  0
  179.9570  177.6370  140.6760 C   0  0  0  0  0  3  0  0  0  0  0  0
  181.1870  178.4780  140.6590 C   0  0  0  0  0  0  0  0  0  0  0  0
  184.5610  178.7060  146.3120 C   0  0  0  0  0  3  0  0  0  0  0  0
  183.9740  178.9080  141.5160 C   0  0  0  0  0  2  0  0  0  0  0  0
  185.1920  179.0570  144.9990 C   0  0  1  0  0  3  0  0  0  0  0  0
  187.1170  177.8390  142.7840 C   0  0  2  0  0  3  0  0  0  0  0  0
  187.9350  177.4390  148.6680 C   0  0  0  0  0  1  0  0  0  0  0  0
  189.0620  177.8860  146.6240 O   0  0  0  0  0  0  0  0  0  0  0  0
  185.0890  178.7500  142.5060 C   0  0  2  0  0  3  0  0  0  0  0  0
  186.6580  178.5680  145.1470 C   0  0  1  0  0  3  0  0  0  0  0  0
  186.7430  178.1570  146.5400 N   0  0  0  0  0  0  0  0  0  0  0  0
  185.4630  178.2300  147.1480 C   0  0  0  0  0  3  0  0  0  0  0  0
  187.0590  177.3970  144.2440 C   0  0  0  0  0  2  0  0  0  0  0  0
  185.8680  177.6400  142.1650 O   0  0  0  0  0  0  0  0  0  0  0  0
  183.0750  179.1420  143.7510 N   0  0  0  0  0  2  0  0  0  0  0  0
  182.8020  179.4020  142.3380 C   0  0  2  0  0  3  0  0  0  0  0  0
  187.9580  177.8340  147.2290 C   0  0  0  0  0  0  0  0  0  0  0  0
  184.3820  178.4960  143.8220 C   0  0  2  0  0  3  0  0  0  0  0  0
  188.1800  177.1140  142.0790 N   0  0  0  0  0  0  0  0  0  0  0  0
  189.1440  176.6720  143.0780 C   0  0  0  0  0  2  0  0  0  0  0  0
  191.5110  176.8140  142.7910 O   0  0  0  0  0  1  0  0  0  0  0  0
  190.3670  177.5690  143.0580 C   0  0  0  0  0  2  0  0  0  0  0  0
  188.8220  177.9770  141.2480 O   0  0  0  0  0  0  0  0  0  0  0  0
  189.0490  178.5020  138.9430 C   0  0  0  0  0  2  0  0  0  0  0  0
  188.6040  177.4720  139.9620 C   0  0  0  0  0  3  0  0  0  0  0  0
  189.9370  177.3180  139.2600 C   0  0  0  0  0  2  0  0  0  0  0  0
  181.9260  178.8810  139.5000 N   0  0  0  0  0  2  0  0  0  0  0  0
  181.8380  178.1670  138.2360 C   0  0  0  0  0  2  0  0  0  0  0  0
  183.2360  177.8140  137.7500 C   0  0  0  0  0  2  0  0  0  0  0  0
  183.0220  175.1440  138.6320 O   0  0  0  0  0  0  0  0  0  0  0  0
  183.1950  176.6560  136.8640 N   0  0  0  0  0  0  0  0  0  0  0  0
  182.8490  175.3690  137.4000 C   0  0  0  0  0  0  0  0  0  0  0  0
  182.2640  174.3000  136.5620 C   0  0  0  0  0  0  0  0  0  0  0  0
  182.8950  173.2170  136.4190 O   0  0  0  0  0  0  0  0  0  0  0  0
  180.9260  174.4540  135.8920 C   0  0  2  0  0  3  0  0  0  0  0  0
  180.0960  175.2950  136.6590 O   0  0  0  0  0  0  0  0  0  0  0  0
  179.7360  173.9340  136.6450 C   0  0  2  0  0  3  0  0  0  0  0  0
  180.4110  172.1530  138.0810 O   0  0  0  0  0  0  0  0  0  0  0  0
  179.8170  174.1140  139.2240 C   0  0  0  0  0  1  0  0  0  0  0  0
  180.0050  173.3040  137.9890 C   0  0  0  0  0  0  0  0  0  0  0  0
  183.7370  176.7780  135.5140 C   0  0  0  0  0  2  0  0  0  0  0  0
  185.0130  177.3480  135.5600 O   0  0  0  0  0  0  0  0  0  0  0  0
  185.8870  176.2580  135.5570 C   0  0  0  0  0  2  0  0  0  0  0  0
  187.2440  176.6720  136.1060 C   0  0  0  0  0  2  0  0  0  0  0  0
  189.6090  176.0700  135.7330 C   0  0  0  0  0  2  0  0  0  0  0  0
  189.4260  177.5040  135.2920 C   0  0  0  0  0  2  0  0  0  0  0  0
  188.3240  176.4980  135.0550 C   0  0  0  0  0  3  0  0  0  0  0  0
  1  3  1  0  0  0  0
  2  3  1  0  0  0  0
  4  1  2  0  0  0  0
  5  4  1  0  0  0  0
  5  2  2  0  0  0  0
  6 15  2  0  0  0  0
  7 19  1  0  0  0  0
  8 13  1  0  0  0  0
  8  6  1  1  0  0  0
  9 22  1  6  0  0  0
  9 16  1  0  0  0  0
 11 20  2  0  0  0  0
 12  7  1  6  0  0  0
 12 21  1  0  0  0  0
 13 16  1  6  0  0  0
 13 14  1  0  0  0  0
 14 15  1  0  0  0  0
 14 20  1  0  0  0  0
 17 12  1  0  0  0  0
 17  9  1  0  0  0  0
 19  2  1  6  0  0  0
 19 18  1  0  0  0  0
 20 10  1  0  0  0  0
 21 18  1  6  0  0  0
 21  8  1  0  0  0  0
 22 23  1  0  0  0  0
 24 25  1  0  0  0  0
 25 23  1  0  0  0  0
 26 22  1  0  0  0  0
 27 29  1  0  0  0  0
 27 28  1  0  0  0  0
 28 26  1  0  0  0  0
 29 28  1  0  0  0  0
 30  5  1  0  0  0  0
 31 30  1  0  0  0  0
 32 31  1  0  0  0  0
 34 35  1  0  0  0  0
 34 32  1  0  0  0  0
 35 33  2  0  0  0  0
 36 35  1  0  0  0  0
 37 36  2  0  0  0  0
 38 36  1  1  0  0  0
 38 40  1  0  0  0  0
 38 39  1  0  0  0  0
 40 39  1  0  0  0  0
 40 43  1  1  0  0  0
 43 41  2  0  0  0  0
 43 42  1  0  0  0  0
 44 45  1  0  0  0  0
 44 34  1  0  0  0  0
 46 45  1  0  0  0  0
 46 47  1  0  0  0  0
 49 48  1  0  0  0  0
 50 49  1  0  0  0  0
 50 48  1  0  0  0  0
 50 47  1  0  0  0  0
M  END
>  <MODEL>
2

>  <REMARK>
 VINA RESULT:      -6.4      2.542      4.159
  Name = 
  18 active torsions:
  status: ('A' for Active; 'I' for Inactive)
    1  A    between atoms: C_1  and  C_37
    2  A    between atoms: C_1  and  O_42
    3  A    between atoms: C_9  and  C_44
    4  A    between atoms: C_12  and  N_17
    5  A    between atoms: N_13  and  C_18
    6  A    between atoms: N_13  and  C_49
    7  A    between atoms: C_14  and  C_27
    8  A    between atoms: C_15  and  C_24
    9  A    between atoms: O_16  and  N_17
   10  A    between atoms: O_16  and  C_20
   11  A    between atoms: N_17  and  C_27
   12  A    between atoms: C_18  and  O_42
   13  A    between atoms: C_24  and  C_43
   14  A    between atoms: C_28  and  C_35
   15  A    between atoms: C_33  and  N_45
   16  A    between atoms: C_36  and  C_37
   17  A    between atoms: N_45  and  C_47
   18  A    between atoms: C_47  and  C_49
                            x       y       z     vdW  Elec       q    Type
                         _______ _______ _______ _____ _____    ______ ____

>  <TORSDO>
F 18

$$$$
=
 OpenBabel11062414253D

 50 56  0  0  1  0  0  0  0  0999 V2000
  190.9330  174.5080  137.8200 N   0  0  0  0  0  0  0  0  0  0  0  0
  189.3110  175.5850  136.8020 C   0  0  0  0  0  0  0  0  0  0  0  0
  189.9850  174.3520  136.9860 N   0  0  0  0  0  0  0  0  0  0  0  0
  190.9980  175.8830  138.3070 C   0  0  0  0  0  2  0  0  0  0  0  0
  189.8680  176.5080  137.5640 C   0  0  0  0  0  0  0  0  0  0  0  0
  185.0510  172.5570  135.7140 C   0  0  0  0  0  3  0  0  0  0  0  0
  187.1720  176.8050  136.6350 C   0  0  0  0  0  2  0  0  0  0  0  0
  184.9180  174.0490  135.6560 C   0  0  1  0  0  3  0  0  0  0  0  0
  183.6960  176.4800  137.2970 C   0  0  2  0  0  3  0  0  0  0  0  0
  180.9850  171.2710  136.3110 C   0  0  0  0  0  1  0  0  0  0  0  0
  180.6310  173.6210  136.3140 O   0  0  0  0  0  0  0  0  0  0  0  0
  185.7870  176.2390  136.5310 C   0  0  2  0  0  3  0  0  0  0  0  0
  183.4400  174.3060  136.0570 C   0  0  1  0  0  3  0  0  0  0  0  0
  182.8680  172.9710  136.1340 N   0  0  0  0  0  0  0  0  0  0  0  0
  183.8830  171.9960  135.9600 C   0  0  0  0  0  3  0  0  0  0  0  0
  183.2330  175.0290  137.3920 C   0  0  0  0  0  2  0  0  0  0  0  0
  185.0490  176.5860  137.6680 O   0  0  0  0  0  0  0  0  0  0  0  0
  187.3210  174.4980  135.9200 N   0  0  0  0  0  2  0  0  0  0  0  0
  188.0600  175.7570  135.9990 C   0  0  2  0  0  3  0  0  0  0  0  0
  181.4690  172.6810  136.2570 C   0  0  0  0  0  0  0  0  0  0  0  0
  186.0010  174.7400  136.4950 C   0  0  2  0  0  3  0  0  0  0  0  0
  182.8480  177.3370  138.1340 N   0  0  0  0  0  0  0  0  0  0  0  0
  183.7190  178.0210  139.0810 C   0  0  0  0  0  2  0  0  0  0  0  0
  184.6080  180.2350  138.9660 O   0  0  0  0  0  1  0  0  0  0  0  0
  183.4220  179.5090  139.0840 C   0  0  0  0  0  2  0  0  0  0  0  0
  182.0040  176.5500  138.8520 O   0  0  0  0  0  0  0  0  0  0  0  0
  179.7040  176.2950  139.3860 C   0  0  0  0  0  2  0  0  0  0  0  0
  180.7670  177.1990  138.7940 C   0  0  0  0  0  3  0  0  0  0  0  0
  180.2680  177.4370  140.2040 C   0  0  0  0  0  2  0  0  0  0  0  0
  189.3880  177.8490  137.7160 N   0  0  0  0  0  2  0  0  0  0  0  0
  189.1010  178.4280  139.0190 C   0  0  0  0  0  2  0  0  0  0  0  0
  188.9780  177.3200  140.0550 C   0  0  0  0  0  2  0  0  0  0  0  0
  189.2400  175.9260  142.4930 O   0  0  0  0  0  0  0  0  0  0  0  0
  188.6290  177.8720  141.3590 N   0  0  0  0  0  0  0  0  0  0  0  0
  189.0200  177.1700  142.5500 C   0  0  0  0  0  0  0  0  0  0  0  0
  189.2060  177.8610  143.8440 C   0  0  0  0  0  0  0  0  0  0  0  0
  188.3690  177.6700  144.7690 O   0  0  0  0  0  0  0  0  0  0  0  0
  190.3770  178.7690  144.1030 C   0  0  2  0  0  3  0  0  0  0  0  0
  191.5180  178.2890  143.4280 O   0  0  0  0  0  0  0  0  0  0  0  0
  191.5440  178.1660  144.8300 C   0  0  2  0  0  3  0  0  0  0  0  0
  190.9180  176.3990  146.3050 O   0  0  0  0  0  0  0  0  0  0  0  0
  191.8690  175.6580  144.2930 C   0  0  0  0  0  1  0  0  0  0  0  0
  191.4180  176.7190  145.2350 C   0  0  0  0  0  0  0  0  0  0  0  0
  187.6890  178.9860  141.4270 C   0  0  0  0  0  2  0  0  0  0  0  0
  186.3750  178.5060  141.4140 O   0  0  0  0  0  0  0  0  0  0  0  0
  185.6420  179.4670  142.1140 C   0  0  0  0  0  2  0  0  0  0  0  0
  184.3860  178.8400  142.7040 C   0  0  0  0  0  2  0  0  0  0  0  0
  183.6700  178.7910  145.0660 C   0  0  0  0  0  2  0  0  0  0  0  0
  185.0730  179.3500  145.0240 C   0  0  0  0  0  2  0  0  0  0  0  0
  184.6740  178.2480  144.0710 C   0  0  0  0  0  3  0  0  0  0  0  0
  1  4  1  0  0  0  0
  2  3  1  0  0  0  0
  2  5  2  0  0  0  0
  3  1  2  0  0  0  0
  5 30  1  0  0  0  0
  5  4  1  0  0  0  0
  6 15  2  0  0  0  0
  8  6  1  1  0  0  0
  8 13  1  0  0  0  0
  8 21  1  0  0  0  0
  9 16  1  0  0  0  0
  9 17  1  0  0  0  0
  9 22  1  1  0  0  0
 12  7  1  1  0  0  0
 12 17  1  0  0  0  0
 13 14  1  0  0  0  0
 13 16  1  1  0  0  0
 14 20  1  0  0  0  0
 15 14  1  0  0  0  0
 18 19  1  0  0  0  0
 19  7  1  0  0  0  0
 19  2  1  1  0  0  0
 20 10  1  0  0  0  0
 20 11  2  0  0  0  0
 21 18  1  6  0  0  0
 21 12  1  0  0  0  0
 22 26  1  0  0  0  0
 22 23  1  0  0  0  0
 23 25  1  0  0  0  0
 24 25  1  0  0  0  0
 27 29  1  0  0  0  0
 28 26  1  0  0  0  0
 28 27  1  0  0  0  0
 28 29  1  0  0  0  0
 30 31  1  0  0  0  0
 31 32  1  0  0  0  0
 32 34  1  0  0  0  0
 33 35  2  0  0  0  0
 34 44  1  0  0  0  0
 34 35  1  0  0  0  0
 35 36  1  0  0  0  0
 36 37  2  0  0  0  0
 38 36  1  6  0  0  0
 38 40  1  0  0  0  0
 39 38  1  0  0  0  0
 39 40  1  0  0  0  0
 40 43  1  6  0  0  0
 42 43  1  0  0  0  0
 43 41  2  0  0  0  0
 45 44  1  0  0  0  0
 45 46  1  0  0  0  0
 46 47  1  0  0  0  0
 47 50  1  0  0  0  0
 49 48  1  0  0  0  0
 50 49  1  0  0  0  0
 50 48  1  0  0  0  0
M  END
>  <MODEL>
3

>  <REMARK>
 VINA RESULT:      -6.4      3.318     10.189
  Name = 
  18 active torsions:
  status: ('A' for Active; 'I' for Inactive)
    1  A    between atoms: C_1  and  C_37
    2  A    between atoms: C_1  and  O_42
    3  A    between atoms: C_9  and  C_44
    4  A    between atoms: C_12  and  N_17
    5  A    between atoms: N_13  and  C_18
    6  A    between atoms: N_13  and  C_49
    7  A    between atoms: C_14  and  C_27
    8  A    between atoms: C_15  and  C_24
    9  A    between atoms: O_16  and  N_17
   10  A    between atoms: O_16  and  C_20
   11  A    between atoms: N_17  and  C_27
   12  A    between atoms: C_18  and  O_42
   13  A    between atoms: C_24  and  C_43
   14  A    between atoms: C_28  and  C_35
   15  A    between atoms: C_33  and  N_45
   16  A    between atoms: C_36  and  C_37
   17  A    between atoms: N_45  and  C_47
   18  A    between atoms: C_47  and  C_49
                            x       y       z     vdW  Elec       q    Type
                         _______ _______ _______ _____ _____    ______ ____

>  <TORSDO>
F 18

$$$$
=
 OpenBabel11062414253D

 50 56  0  0  1  0  0  0  0  0999 V2000
  189.2120  179.8120  137.6130 N   0  0  0  0  0  0  0  0  0  0  0  0
  188.9360  177.9350  138.7210 C   0  0  0  0  0  0  0  0  0  0  0  0
  188.9630  179.3510  138.7730 N   0  0  0  0  0  2  0  0  0  0  0  0
  189.3710  178.7420  136.6340 C   0  0  0  0  0  3  0  0  0  0  0  0
  189.1620  177.5360  137.4840 C   0  0  0  0  0  0  0  0  0  0  0  0
  191.1940  176.4330  143.3190 C   0  0  0  0  0  3  0  0  0  0  0  0
  187.3780  177.6630  140.6160 C   0  0  0  0  0  2  0  0  0  0  0  0
  189.7000  176.4230  143.2050 C   0  0  1  0  0  3  0  0  0  0  0  0
  187.1450  178.0650  144.1390 C   0  0  2  0  0  3  0  0  0  0  0  0
  191.8120  176.6920  147.5730 C   0  0  0  0  0  1  0  0  0  0  0  0
  189.4370  176.7590  147.5420 O   0  0  0  0  0  0  0  0  0  0  0  0
  187.7050  177.4400  142.0620 C   0  0  2  0  0  3  0  0  0  0  0  0
  189.2150  176.7280  144.6480 C   0  0  1  0  0  3  0  0  0  0  0  0
  190.4390  176.7130  145.4320 N   0  0  0  0  0  0  0  0  0  0  0  0
  191.5630  176.5740  144.5780 C   0  0  0  0  0  3  0  0  0  0  0  0
  188.5030  178.0720  144.8360 C   0  0  0  0  0  2  0  0  0  0  0  0
  187.2720  178.5340  142.8180 O   0  0  0  0  0  0  0  0  0  0  0  0
  189.6590  176.8730  140.7880 N   0  0  0  0  0  2  0  0  0  0  0  0
  188.5400  177.0520  139.8630 C   0  0  2  0  0  3  0  0  0  0  0  0
  190.4990  176.7250  146.8650 C   0  0  0  0  0  0  0  0  0  0  0  0
  189.2180  177.3630  142.0910 C   0  0  2  0  0  3  0  0  0  0  0  0
  186.1830  178.8720  144.8980 N   0  0  0  0  0  0  0  0  0  0  0  0
  185.4500  177.9670  145.7740 C   0  0  0  0  0  2  0  0  0  0  0  0
  185.7670  179.7150  147.3720 O   0  0  0  0  0  1  0  0  0  0  0  0
  185.7010  178.3280  147.2270 C   0  0  0  0  0  2  0  0  0  0  0  0
  185.2870  179.4150  144.0330 O   0  0  0  0  0  0  0  0  0  0  0  0
  182.9800  179.0690  143.5890 C   0  0  0  0  0  2  0  0  0  0  0  0
  184.3270  178.4180  143.8310 C   0  0  0  0  0  3  0  0  0  0  0  0
  183.7840  178.5340  142.4230 C   0  0  0  0  0  2  0  0  0  0  0  0
  189.1080  176.1770  137.0340 N   0  0  0  0  0  2  0  0  0  0  0  0
  187.8500  175.4810  136.8160 C   0  0  0  0  0  2  0  0  0  0  0  0
  186.9860  176.2740  135.8470 C   0  0  0  0  0  2  0  0  0  0  0  0
  185.2020  174.3100  134.8930 O   0  0  0  0  0  0  0  0  0  0  0  0
  185.5800  176.1890  136.2230 N   0  0  0  0  0  0  0  0  0  0  0  0
  184.8250  175.0200  135.8680 C   0  0  0  0  0  0  0  0  0  0  0  0
  183.6280  174.5970  136.6280 C   0  0  0  0  0  0  0  0  0  0  0  0
  183.7680  174.1610  137.8040 O   0  0  0  0  0  0  0  0  0  0  0  0
  182.2420  174.6920  136.0510 C   0  0  2  0  0  3  0  0  0  0  0  0
  181.3540  173.8900  136.7950 O   0  0  0  0  0  0  0  0  0  0  0  0
  181.6570  173.4230  135.5020 C   0  0  2  0  0  3  0  0  0  0  0  0
  183.3190  171.9180  134.6880 O   0  0  0  0  0  0  0  0  0  0  0  0
  182.4330  171.3090  136.7740 C   0  0  0  0  0  1  0  0  0  0  0  0
  182.5210  172.1890  135.5750 C   0  0  0  0  0  0  0  0  0  0  0  0
  184.9100  177.3820  136.7320 C   0  0  0  0  0  2  0  0  0  0  0  0
  185.4040  177.7050  138.0000 O   0  0  0  0  0  0  0  0  0  0  0  0
  184.4570  178.5830  138.5340 C   0  0  0  0  0  2  0  0  0  0  0  0
  183.0640  178.2140  138.0410 C   0  0  0  0  0  2  0  0  0  0  0  0
  180.9110  177.9980  139.2290 C   0  0  0  0  0  2  0  0  0  0  0  0
  180.6990  178.9340  138.0620 C   0  0  0  0  0  2  0  0  0  0  0  0
  182.0030  178.9650  138.8230 C   0  0  0  0  0  3  0  0  0  0  0  0
  1  3  1  0  0  0  0
  2  3  1  0  0  0  0
  4  5  1  0  0  0  0
  4  1  2  0  0  0  0
  5  2  2  0  0  0  0
  6 15  2  0  0  0  0
  8  6  1  1  0  0  0
  8 13  1  0  0  0  0
  9 16  1  0  0  0  0
  9 22  1  1  0  0  0
 12  7  1  6  0  0  0
 12 21  1  0  0  0  0
 12 17  1  0  0  0  0
 13 16  1  6  0  0  0
 13 14  1  0  0  0  0
 14 20  1  0  0  0  0
 15 14  1  0  0  0  0
 17  9  1  0  0  0  0
 19  2  1  6  0  0  0
 19  7  1  0  0  0  0
 19 18  1  0  0  0  0
 20 11  2  0  0  0  0
 20 10  1  0  0  0  0
 21 18  1  6  0  0  0
 21  8  1  0  0  0  0
 22 23  1  0  0  0  0
 23 25  1  0  0  0  0
 25 24  1  0  0  0  0
 26 22  1  0  0  0  0
 27 28  1  0  0  0  0
 28 26  1  0  0  0  0
 29 27  1  0  0  0  0
 29 28  1  0  0  0  0
 30  5  1  0  0  0  0
 31 30  1  0  0  0  0
 32 34  1  0  0  0  0
 32 31  1  0  0  0  0
 33 35  2  0  0  0  0
 34 44  1  0  0  0  0
 35 34  1  0  0  0  0
 35 36  1  0  0  0  0
 36 37  2  0  0  0  0
 38 36  1  1  0  0  0
 38 39  1  0  0  0  0
 40 43  1  1  0  0  0
 40 38  1  0  0  0  0
 40 39  1  0  0  0  0
 41 43  2  0  0  0  0
 43 42  1  0  0  0  0
 44 45  1  0  0  0  0
 45 46  1  0  0  0  0
 47 46  1  0  0  0  0
 47 50  1  0  0  0  0
 49 50  1  0  0  0  0
 49 48  1  0  0  0  0
 50 48  1  0  0  0  0
M  END
>  <MODEL>
4

>  <REMARK>
 VINA RESULT:      -6.1      3.143      6.328
  Name = 
  18 active torsions:
  status: ('A' for Active; 'I' for Inactive)
    1  A    between atoms: C_1  and  C_37
    2  A    between atoms: C_1  and  O_42
    3  A    between atoms: C_9  and  C_44
    4  A    between atoms: C_12  and  N_17
    5  A    between atoms: N_13  and  C_18
    6  A    between atoms: N_13  and  C_49
    7  A    between atoms: C_14  and  C_27
    8  A    between atoms: C_15  and  C_24
    9  A    between atoms: O_16  and  N_17
   10  A    between atoms: O_16  and  C_20
   11  A    between atoms: N_17  and  C_27
   12  A    between atoms: C_18  and  O_42
   13  A    between atoms: C_24  and  C_43
   14  A    between atoms: C_28  and  C_35
   15  A    between atoms: C_33  and  N_45
   16  A    between atoms: C_36  and  C_37
   17  A    between atoms: N_45  and  C_47
   18  A    between atoms: C_47  and  C_49
                            x       y       z     vdW  Elec       q    Type
                         _______ _______ _______ _____ _____    ______ ____

>  <TORSDO>
F 18

$$$$
=
 OpenBabel11062414253D

 50 56  0  0  1  0  0  0  0  0999 V2000
  187.5720  176.0770  135.8980 N   0  0  0  0  0  0  0  0  0  0  0  0
  188.0850  177.4430  137.5410 C   0  0  0  0  0  0  0  0  0  0  0  0
  187.1160  177.0460  136.5870 N   0  0  0  0  0  2  0  0  0  0  0  0
  188.9160  175.7020  136.3270 C   0  0  0  0  0  3  0  0  0  0  0  0
  189.1540  176.6760  137.4290 C   0  0  0  0  0  0  0  0  0  0  0  0
  183.9680  178.8020  140.6560 C   0  0  0  0  0  3  0  0  0  0  0  0
  188.6860  178.1320  139.8340 C   0  0  0  0  0  2  0  0  0  0  0  0
  185.3620  179.0850  141.1270 C   0  0  1  0  0  3  0  0  0  0  0  0
  187.5300  178.0220  143.1930 C   0  0  2  0  0  3  0  0  0  0  0  0
  181.7270  178.7210  144.3320 C   0  0  0  0  0  1  0  0  0  0  0  0
  183.8940  179.1000  145.2310 O   0  0  0  0  0  0  0  0  0  0  0  0
  187.7730  178.3870  140.9960 C   0  0  2  0  0  3  0  0  0  0  0  0
  185.2610  178.9760  142.6730 C   0  0  1  0  0  3  0  0  0  0  0  0
  183.8360  178.8130  142.9130 N   0  0  0  0  0  0  0  0  0  0  0  0
  183.1460  178.6790  141.6800 C   0  0  0  0  0  3  0  0  0  0  0  0
  186.0220  177.8060  143.3040 C   0  0  0  0  0  2  0  0  0  0  0  0
  188.0170  177.4480  142.0030 O   0  0  0  0  0  0  0  0  0  0  0  0
  186.4420  178.4880  139.0010 N   0  0  0  0  0  2  0  0  0  0  0  0
  187.8520  178.4600  138.6140 C   0  0  2  0  0  3  0  0  0  0  0  0
  183.2040  178.8870  144.1980 C   0  0  0  0  0  0  0  0  0  0  0  0
  186.3840  178.1800  140.4270 C   0  0  2  0  0  3  0  0  0  0  0  0
  188.2080  177.4640  144.3670 N   0  0  0  0  0  0  0  0  0  0  0  0
  187.3070  177.6100  145.5030 C   0  0  0  0  0  2  0  0  0  0  0  0
  187.6120  178.2780  147.7760 O   0  0  0  0  0  1  0  0  0  0  0  0
  188.0590  177.3840  146.8010 C   0  0  0  0  0  2  0  0  0  0  0  0
  189.3160  178.2080  144.6290 O   0  0  0  0  0  0  0  0  0  0  0  0
  191.6300  178.3540  144.1180 C   0  0  0  0  0  2  0  0  0  0  0  0
  190.3650  177.5270  144.0040 C   0  0  0  0  0  3  0  0  0  0  0  0
  191.4110  177.1750  145.0420 C   0  0  0  0  0  2  0  0  0  0  0  0
  190.2930  176.7190  138.2960 N   0  0  0  0  0  2  0  0  0  0  0  0
  191.6520  176.5730  137.8000 C   0  0  0  0  0  2  0  0  0  0  0  0
  192.0670  175.1100  137.8670 C   0  0  0  0  0  2  0  0  0  0  0  0
  194.6930  175.9890  137.3360 O   0  0  0  0  0  0  0  0  0  0  0  0
  192.8340  174.7400  136.6830 N   0  0  0  0  0  0  0  0  0  0  0  0
  194.2360  175.0480  136.6270 C   0  0  0  0  0  0  0  0  0  0  0  0
  195.1760  174.2790  135.7840 C   0  0  0  0  0  0  0  0  0  0  0  0
  195.1130  173.0190  135.7840 O   0  0  0  0  0  0  0  0  0  0  0  0
  196.1940  174.9530  134.9040 C   0  0  2  0  0  3  0  0  0  0  0  0
  197.2340  174.0540  134.5940 O   0  0  0  0  0  0  0  0  0  0  0  0
  197.5770  175.1000  135.4710 C   0  0  2  0  0  3  0  0  0  0  0  0
  197.5810  175.2590  137.8510 O   0  0  0  0  0  0  0  0  0  0  0  0
  198.2500  173.1600  137.0420 C   0  0  0  0  0  1  0  0  0  0  0  0
  197.7990  174.5680  136.8640 C   0  0  0  0  0  0  0  0  0  0  0  0
  192.1230  174.2880  135.4910 C   0  0  0  0  0  2  0  0  0  0  0  0
  191.6020  173.0070  135.7010 O   0  0  0  0  0  0  0  0  0  0  0  0
  190.7160  172.8090  134.6390 C   0  0  0  0  0  2  0  0  0  0  0  0
  189.7730  171.6550  134.9520 C   0  0  0  0  0  2  0  0  0  0  0  0
  187.5070  171.0210  135.6950 C   0  0  0  0  0  2  0  0  0  0  0  0
  187.3580  172.0450  134.5940 C   0  0  0  0  0  2  0  0  0  0  0  0
  188.4920  172.1650  135.5840 C   0  0  0  0  0  3  0  0  0  0  0  0
  1  4  2  0  0  0  0
  1  3  1  0  0  0  0
  3  2  1  0  0  0  0
  4  5  1  0  0  0  0
  5  2  2  0  0  0  0
  5 30  1  0  0  0  0
  6 15  2  0  0  0  0
  8  6  1  6  0  0  0
  8 13  1  0  0  0  0
  9 16  1  0  0  0  0
  9 22  1  1  0  0  0
 12  7  1  6  0  0  0
 12 17  1  0  0  0  0
 13 14  1  0  0  0  0
 13 16  1  6  0  0  0
 14 20  1  0  0  0  0
 15 14  1  0  0  0  0
 17  9  1  0  0  0  0
 19  2  1  6  0  0  0
 19 18  1  0  0  0  0
 19  7  1  0  0  0  0
 20 10  1  0  0  0  0
 20 11  2  0  0  0  0
 21 18  1  6  0  0  0
 21 12  1  0  0  0  0
 21  8  1  0  0  0  0
 22 26  1  0  0  0  0
 22 23  1  0  0  0  0
 23 25  1  0  0  0  0
 25 24  1  0  0  0  0
 27 29  1  0  0  0  0
 28 27  1  0  0  0  0
 28 26  1  0  0  0  0
 28 29  1  0  0  0  0
 31 32  1  0  0  0  0
 31 30  1  0  0  0  0
 34 32  1  0  0  0  0
 35 34  1  0  0  0  0
 35 33  2  0  0  0  0
 36 37  2  0  0  0  0
 36 35  1  0  0  0  0
 38 40  1  0  0  0  0
 38 36  1  1  0  0  0
 39 38  1  0  0  0  0
 39 40  1  0  0  0  0
 40 43  1  1  0  0  0
 43 42  1  0  0  0  0
 43 41  2  0  0  0  0
 44 45  1  0  0  0  0
 44 34  1  0  0  0  0
 46 47  1  0  0  0  0
 46 45  1  0  0  0  0
 47 50  1  0  0  0  0
 49 50  1  0  0  0  0
 49 48  1  0  0  0  0
 50 48  1  0  0  0  0
M  END
>  <MODEL>
5

>  <REMARK>
 VINA RESULT:      -6.0      5.315     10.359
  Name = 
  18 active torsions:
  status: ('A' for Active; 'I' for Inactive)
    1  A    between atoms: C_1  and  C_37
    2  A    between atoms: C_1  and  O_42
    3  A    between atoms: C_9  and  C_44
    4  A    between atoms: C_12  and  N_17
    5  A    between atoms: N_13  and  C_18
    6  A    between atoms: N_13  and  C_49
    7  A    between atoms: C_14  and  C_27
    8  A    between atoms: C_15  and  C_24
    9  A    between atoms: O_16  and  N_17
   10  A    between atoms: O_16  and  C_20
   11  A    between atoms: N_17  and  C_27
   12  A    between atoms: C_18  and  O_42
   13  A    between atoms: C_24  and  C_43
   14  A    between atoms: C_28  and  C_35
   15  A    between atoms: C_33  and  N_45
   16  A    between atoms: C_36  and  C_37
   17  A    between atoms: N_45  and  C_47
   18  A    between atoms: C_47  and  C_49
                            x       y       z     vdW  Elec       q    Type
                         _______ _______ _______ _____ _____    ______ ____

>  <TORSDO>
F 18

$$$$
=
 OpenBabel11062414253D

 50 56  0  0  1  0  0  0  0  0999 V2000
  189.2230  179.8780  137.6970 N   0  0  0  0  0  0  0  0  0  0  0  0
  188.8080  177.9900  138.7430 C   0  0  0  0  0  0  0  0  0  0  0  0
  189.0430  179.3840  138.8560 N   0  0  0  0  0  2  0  0  0  0  0  0
  189.1160  178.8590  136.6570 C   0  0  0  0  0  3  0  0  0  0  0  0
  188.8350  177.6420  137.4700 C   0  0  0  0  0  0  0  0  0  0  0  0
  191.1010  176.4680  143.3170 C   0  0  0  0  0  3  0  0  0  0  0  0
  187.2640  177.7040  140.6460 C   0  0  0  0  0  2  0  0  0  0  0  0
  189.6060  176.4550  143.2120 C   0  0  1  0  0  3  0  0  0  0  0  0
  187.0530  178.0850  144.1730 C   0  0  2  0  0  3  0  0  0  0  0  0
  191.7460  176.7040  147.5680 C   0  0  0  0  0  1  0  0  0  0  0  0
  189.3700  176.7660  147.5530 O   0  0  0  0  0  0  0  0  0  0  0  0
  187.6010  177.4740  142.0890 C   0  0  2  0  0  3  0  0  0  0  0  0
  189.1290  176.7500  144.6610 C   0  0  1  0  0  3  0  0  0  0  0  0
  190.3590  176.7340  145.4360 N   0  0  0  0  0  0  0  0  0  0  0  0
  191.4780  176.6030  144.5740 C   0  0  0  0  0  3  0  0  0  0  0  0
  188.4160  178.0910  144.8610 C   0  0  0  0  0  2  0  0  0  0  0  0
  187.1710  178.5620  142.8540 O   0  0  0  0  0  0  0  0  0  0  0  0
  189.5480  176.9190  140.7990 N   0  0  0  0  0  2  0  0  0  0  0  0
  188.4230  177.1000  139.8820 C   0  0  2  0  0  3  0  0  0  0  0  0
  190.4280  176.7380  146.8690 C   0  0  0  0  0  0  0  0  0  0  0  0
  189.1140  177.4000  142.1070 C   0  0  2  0  0  3  0  0  0  0  0  0
  186.0950  178.8850  144.9430 N   0  0  0  0  0  0  0  0  0  0  0  0
  185.3890  177.9780  145.8390 C   0  0  0  0  0  2  0  0  0  0  0  0
  185.6900  179.7440  147.4200 O   0  0  0  0  0  1  0  0  0  0  0  0
  185.6590  178.3550  147.2840 C   0  0  0  0  0  2  0  0  0  0  0  0
  185.1760  179.4100  144.0890 O   0  0  0  0  0  0  0  0  0  0  0  0
  182.8330  179.0550  143.9410 C   0  0  0  0  0  2  0  0  0  0  0  0
  184.2060  178.4130  143.9440 C   0  0  0  0  0  3  0  0  0  0  0  0
  183.4720  178.6270  142.6370 C   0  0  0  0  0  2  0  0  0  0  0  0
  188.5370  176.3340  136.9680 N   0  0  0  0  0  2  0  0  0  0  0  0
  187.2180  175.7350  137.0970 C   0  0  0  0  0  2  0  0  0  0  0  0
  186.1910  176.5960  136.3780 C   0  0  0  0  0  2  0  0  0  0  0  0
  184.6750  177.9830  138.3100 O   0  0  0  0  0  0  0  0  0  0  0  0
  184.8390  176.2280  136.7800 N   0  0  0  0  0  0  0  0  0  0  0  0
  184.0730  177.1330  137.5930 C   0  0  0  0  0  0  0  0  0  0  0  0
  182.5940  177.1250  137.5970 C   0  0  0  0  0  0  0  0  0  0  0  0
  181.9750  177.4070  136.5350 O   0  0  0  0  0  0  0  0  0  0  0  0
  181.8020  176.7680  138.8250 C   0  0  2  0  0  3  0  0  0  0  0  0
  180.4590  177.1610  138.6640 O   0  0  0  0  0  0  0  0  0  0  0  0
  181.2040  177.9120  139.5920 C   0  0  2  0  0  3  0  0  0  0  0  0
  182.4990  179.8980  139.3290 O   0  0  0  0  0  0  0  0  0  0  0  0
  180.4710  179.9290  138.1490 C   0  0  0  0  0  1  0  0  0  0  0  0
  181.4670  179.2990  139.0590 C   0  0  0  0  0  0  0  0  0  0  0  0
  184.3820  174.8590  136.5590 C   0  0  0  0  0  2  0  0  0  0  0  0
  183.5680  174.8030  135.4240 O   0  0  0  0  0  0  0  0  0  0  0  0
  183.2200  173.4550  135.3060 C   0  0  0  0  0  2  0  0  0  0  0  0
  183.3000  172.7720  136.6650 C   0  0  0  0  0  2  0  0  0  0  0  0
  183.7680  170.3560  136.4790 C   0  0  0  0  0  2  0  0  0  0  0  0
  182.9610  170.7610  135.2670 C   0  0  0  0  0  2  0  0  0  0  0  0
  182.6720  171.3920  136.6090 C   0  0  0  0  0  3  0  0  0  0  0  0
  1  3  1  0  0  0  0
  2  3  1  0  0  0  0
  4  5  1  0  0  0  0
  4  1  2  0  0  0  0
  5  2  2  0  0  0  0
  6 15  2  0  0  0  0
  8  6  1  1  0  0  0
  8 13  1  0  0  0  0
  9 16  1  0  0  0  0
  9 22  1  1  0  0  0
 12  7  1  6  0  0  0
 12 21  1  0  0  0  0
 12 17  1  0  0  0  0
 13 16  1  6  0  0  0
 13 14  1  0  0  0  0
 14 20  1  0  0  0  0
 15 14  1  0  0  0  0
 17  9  1  0  0  0  0
 19  2  1  6  0  0  0
 19  7  1  0  0  0  0
 19 18  1  0  0  0  0
 20 11  2  0  0  0  0
 20 10  1  0  0  0  0
 21 18  1  6  0  0  0
 21  8  1  0  0  0  0
 22 23  1  0  0  0  0
 23 25  1  0  0  0  0
 25 24  1  0  0  0  0
 26 22  1  0  0  0  0
 27 28  1  0  0  0  0
 28 26  1  0  0  0  0
 29 27  1  0  0  0  0
 29 28  1  0  0  0  0
 30 31  1  0  0  0  0
 30  5  1  0  0  0  0
 32 34  1  0  0  0  0
 32 31  1  0  0  0  0
 34 35  1  0  0  0  0
 35 36  1  0  0  0  0
 35 33  2  0  0  0  0
 37 36  2  0  0  0  0
 38 36  1  6  0  0  0
 38 40  1  0  0  0  0
 39 38  1  0  0  0  0
 39 40  1  0  0  0  0
 40 43  1  6  0  0  0
 42 43  1  0  0  0  0
 43 41  2  0  0  0  0
 44 34  1  0  0  0  0
 45 44  1  0  0  0  0
 46 45  1  0  0  0  0
 46 47  1  0  0  0  0
 48 50  1  0  0  0  0
 49 48  1  0  0  0  0
 49 50  1  0  0  0  0
 50 47  1  0  0  0  0
M  END
>  <MODEL>
6

>  <REMARK>
 VINA RESULT:      -5.8      2.765      6.811
  Name = 
  18 active torsions:
  status: ('A' for Active; 'I' for Inactive)
    1  A    between atoms: C_1  and  C_37
    2  A    between atoms: C_1  and  O_42
    3  A    between atoms: C_9  and  C_44
    4  A    between atoms: C_12  and  N_17
    5  A    between atoms: N_13  and  C_18
    6  A    between atoms: N_13  and  C_49
    7  A    between atoms: C_14  and  C_27
    8  A    between atoms: C_15  and  C_24
    9  A    between atoms: O_16  and  N_17
   10  A    between atoms: O_16  and  C_20
   11  A    between atoms: N_17  and  C_27
   12  A    between atoms: C_18  and  O_42
   13  A    between atoms: C_24  and  C_43
   14  A    between atoms: C_28  and  C_35
   15  A    between atoms: C_33  and  N_45
   16  A    between atoms: C_36  and  C_37
   17  A    between atoms: N_45  and  C_47
   18  A    between atoms: C_47  and  C_49
                            x       y       z     vdW  Elec       q    Type
                         _______ _______ _______ _____ _____    ______ ____

>  <TORSDO>
F 18

$$$$
=
 OpenBabel11062414253D

 50 56  0  0  1  0  0  0  0  0999 V2000
  181.4080  177.1990  140.2810 N   0  0  0  0  0  0  0  0  0  0  0  0
  183.2340  178.3980  140.5180 C   0  0  0  0  0  0  0  0  0  0  0  0
  182.0710  177.8720  141.1340 N   0  0  0  0  0  2  0  0  0  0  0  0
  182.0660  177.1880  138.9780 C   0  0  0  0  0  3  0  0  0  0  0  0
  183.2750  178.0150  139.2560 C   0  0  0  0  0  0  0  0  0  0  0  0
  184.9450  178.6190  145.5700 C   0  0  0  0  0  3  0  0  0  0  0  0
  185.6770  178.6240  140.7900 C   0  0  0  0  0  2  0  0  0  0  0  0
  185.9040  178.9310  144.4620 C   0  0  1  0  0  3  0  0  0  0  0  0
  188.3670  177.6650  142.9040 C   0  0  2  0  0  3  0  0  0  0  0  0
  187.5650  177.5100  148.8020 C   0  0  0  0  0  1  0  0  0  0  0  0
  189.2000  177.8990  147.1220 O   0  0  0  0  0  0  0  0  0  0  0  0
  186.4830  178.5250  142.0500 C   0  0  2  0  0  3  0  0  0  0  0  0
  187.2800  178.4770  145.0230 C   0  0  1  0  0  3  0  0  0  0  0  0
  186.9870  178.1220  146.4030 N   0  0  0  0  0  0  0  0  0  0  0  0
  185.5910  178.1930  146.6390 C   0  0  0  0  0  3  0  0  0  0  0  0
  187.9200  177.2800  144.3120 C   0  0  0  0  0  2  0  0  0  0  0  0
  187.3350  177.4180  141.9800 O   0  0  0  0  0  0  0  0  0  0  0  0
  184.2040  178.9260  142.6870 N   0  0  0  0  0  2  0  0  0  0  0  0
  184.3220  179.1260  141.2430 C   0  0  2  0  0  3  0  0  0  0  0  0
  187.9730  177.8490  147.4080 C   0  0  0  0  0  0  0  0  0  0  0  0
  185.4490  178.3090  143.1360 C   0  0  2  0  0  3  0  0  0  0  0  0
  189.5870  176.9350  142.5440 N   0  0  0  0  0  0  0  0  0  0  0  0
  190.4620  176.9440  143.7100 C   0  0  0  0  0  2  0  0  0  0  0  0
  191.1210  179.1880  144.1990 O   0  0  0  0  0  1  0  0  0  0  0  0
  191.5260  178.0150  143.5570 C   0  0  0  0  0  2  0  0  0  0  0  0
  190.2260  177.6090  141.5510 O   0  0  0  0  0  0  0  0  0  0  0  0
  189.8860  177.5700  139.2010 C   0  0  0  0  0  2  0  0  0  0  0  0
  190.1780  176.7540  140.4450 C   0  0  0  0  0  3  0  0  0  0  0  0
  191.3000  177.1150  139.4950 C   0  0  0  0  0  2  0  0  0  0  0  0
  184.3550  178.2710  138.3510 N   0  0  0  0  0  2  0  0  0  0  0  0
  184.5820  177.4630  137.1630 C   0  0  0  0  0  2  0  0  0  0  0  0
  185.9050  176.7230  137.2920 C   0  0  0  0  0  2  0  0  0  0  0  0
  184.5240  174.3600  137.9690 O   0  0  0  0  0  0  0  0  0  0  0  0
  185.8990  175.5140  136.4780 N   0  0  0  0  0  0  0  0  0  0  0  0
  184.9790  174.4560  136.7940 C   0  0  0  0  0  0  0  0  0  0  0  0
  184.5190  173.4860  135.7760 C   0  0  0  0  0  0  0  0  0  0  0  0
  184.9220  172.2930  135.8370 O   0  0  0  0  0  0  0  0  0  0  0  0
  183.5620  173.8730  134.6810 C   0  0  2  0  0  3  0  0  0  0  0  0
  182.6910  174.8830  135.1360 O   0  0  0  0  0  0  0  0  0  0  0  0
  182.1060  173.6170  134.9430 C   0  0  2  0  0  3  0  0  0  0  0  0
  181.5190  173.6790  137.2540 O   0  0  0  0  0  0  0  0  0  0  0  0
  181.6450  171.5100  136.3690 C   0  0  0  0  0  1  0  0  0  0  0  0
  181.7540  172.9920  136.2700 C   0  0  0  0  0  0  0  0  0  0  0  0
  186.9800  175.2980  135.5210 C   0  0  0  0  0  2  0  0  0  0  0  0
  187.7830  176.4400  135.4410 O   0  0  0  0  0  0  0  0  0  0  0  0
  188.9540  176.0970  136.1220 C   0  0  0  0  0  2  0  0  0  0  0  0
  189.8920  175.3310  135.1990 C   0  0  0  0  0  2  0  0  0  0  0  0
  191.1600  173.3740  136.0080 C   0  0  0  0  0  2  0  0  0  0  0  0
  190.7310  174.1740  137.2160 C   0  0  0  0  0  2  0  0  0  0  0  0
  191.1350  174.8870  135.9480 C   0  0  0  0  0  3  0  0  0  0  0  0
  1  3  1  0  0  0  0
  2  3  1  0  0  0  0
  4  5  1  0  0  0  0
  4  1  2  0  0  0  0
  5  2  2  0  0  0  0
  6 15  2  0  0  0  0
  7 19  1  0  0  0  0
  8 13  1  0  0  0  0
  8  6  1  1  0  0  0
  9 22  1  6  0  0  0
  9 16  1  0  0  0  0
 11 20  2  0  0  0  0
 12  7  1  6  0  0  0
 12 21  1  0  0  0  0
 13 16  1  6  0  0  0
 13 14  1  0  0  0  0
 14 15  1  0  0  0  0
 14 20  1  0  0  0  0
 17 12  1  0  0  0  0
 17  9  1  0  0  0  0
 19  2  1  6  0  0  0
 19 18  1  0  0  0  0
 20 10  1  0  0  0  0
 21 18  1  6  0  0  0
 21  8  1  0  0  0  0
 22 23  1  0  0  0  0
 25 23  1  0  0  0  0
 25 24  1  0  0  0  0
 26 22  1  0  0  0  0
 27 29  1  0  0  0  0
 27 28  1  0  0  0  0
 28 26  1  0  0  0  0
 29 28  1  0  0  0  0
 30  5  1  0  0  0  0
 31 32  1  0  0  0  0
 31 30  1  0  0  0  0
 34 35  1  0  0  0  0
 34 32  1  0  0  0  0
 35 33  2  0  0  0  0
 36 37  2  0  0  0  0
 36 35  1  0  0  0  0
 38 40  1  0  0  0  0
 38 39  1  0  0  0  0
 38 36  1  1  0  0  0
 40 39  1  0  0  0  0
 40 43  1  1  0  0  0
 43 42  1  0  0  0  0
 43 41  2  0  0  0  0
 44 34  1  0  0  0  0
 45 44  1  0  0  0  0
 45 46  1  0  0  0  0
 47 50  1  0  0  0  0
 47 46  1  0  0  0  0
 48 49  1  0  0  0  0
 50 48  1  0  0  0  0
 50 49  1  0  0  0  0
M  END
>  <MODEL>
7

>  <REMARK>
 VINA RESULT:      -5.8      3.322      5.677
  Name = 
  18 active torsions:
  status: ('A' for Active; 'I' for Inactive)
    1  A    between atoms: C_1  and  C_37
    2  A    between atoms: C_1  and  O_42
    3  A    between atoms: C_9  and  C_44
    4  A    between atoms: C_12  and  N_17
    5  A    between atoms: N_13  and  C_18
    6  A    between atoms: N_13  and  C_49
    7  A    between atoms: C_14  and  C_27
    8  A    between atoms: C_15  and  C_24
    9  A    between atoms: O_16  and  N_17
   10  A    between atoms: O_16  and  C_20
   11  A    between atoms: N_17  and  C_27
   12  A    between atoms: C_18  and  O_42
   13  A    between atoms: C_24  and  C_43
   14  A    between atoms: C_28  and  C_35
   15  A    between atoms: C_33  and  N_45
   16  A    between atoms: C_36  and  C_37
   17  A    between atoms: N_45  and  C_47
   18  A    between atoms: C_47  and  C_49
                            x       y       z     vdW  Elec       q    Type
                         _______ _______ _______ _____ _____    ______ ____

>  <TORSDO>
F 18

$$$$
=
 OpenBabel11062414253D

 50 56  0  0  1  0  0  0  0  0999 V2000
  191.0250  179.3790  144.3440 N   0  0  0  0  0  0  0  0  0  0  0  0
  189.7520  177.8960  143.3410 C   0  0  0  0  0  0  0  0  0  0  0  0
  189.8350  178.9300  144.3060 N   0  0  0  0  0  2  0  0  0  0  0  0
  191.8870  178.6940  143.3850 C   0  0  0  0  0  3  0  0  0  0  0  0
  190.9300  177.7300  142.7710 C   0  0  0  0  0  0  0  0  0  0  0  0
  184.5830  178.4700  144.5460 C   0  0  0  0  0  3  0  0  0  0  0  0
  188.1890  177.5210  141.4680 C   0  0  0  0  0  2  0  0  0  0  0  0
  184.9600  177.8800  143.2220 C   0  0  1  0  0  3  0  0  0  0  0  0
  185.0860  178.6250  140.1350 C   0  0  2  0  0  3  0  0  0  0  0  0
  180.5980  179.9350  143.8240 C   0  0  0  0  0  1  0  0  0  0  0  0
  181.0840  179.1070  141.6500 O   0  0  0  0  0  0  0  0  0  0  0  0
  186.7130  177.7830  141.4230 C   0  0  2  0  0  3  0  0  0  0  0  0
  183.8050  178.3130  142.2780 C   0  0  1  0  0  3  0  0  0  0  0  0
  182.8470  178.9400  143.1750 N   0  0  0  0  0  0  0  0  0  0  0  0
  183.3900  179.0310  144.4820 C   0  0  0  0  0  3  0  0  0  0  0  0
  184.1910  179.3000  141.1720 C   0  0  0  0  0  2  0  0  0  0  0  0
  186.4400  178.7830  140.4840 O   0  0  0  0  0  0  0  0  0  0  0  0
  187.3580  177.6980  143.7330 N   0  0  0  0  0  2  0  0  0  0  0  0
  188.4800  177.2250  142.9240 C   0  0  2  0  0  3  0  0  0  0  0  0
  181.5080  179.3110  142.8190 C   0  0  0  0  0  0  0  0  0  0  0  0
  186.3840  178.2820  142.8150 C   0  0  2  0  0  3  0  0  0  0  0  0
  184.8150  179.1720  138.8010 N   0  0  0  0  0  0  0  0  0  0  0  0
  183.6650  180.0600  138.9180 C   0  0  0  0  0  2  0  0  0  0  0  0
  181.3410  180.2650  138.4080 O   0  0  0  0  0  1  0  0  0  0  0  0
  182.4580  179.4460  138.2350 C   0  0  0  0  0  2  0  0  0  0  0  0
  184.4600  178.1540  137.9740 O   0  0  0  0  0  0  0  0  0  0  0  0
  185.7720  177.1900  136.2450 C   0  0  0  0  0  2  0  0  0  0  0  0
  185.6450  177.4530  137.7320 C   0  0  0  0  0  3  0  0  0  0  0  0
  186.5610  178.3110  136.8850 C   0  0  0  0  0  2  0  0  0  0  0  0
  191.2000  176.8440  141.6780 N   0  0  0  0  0  2  0  0  0  0  0  0
  191.4440  177.3280  140.3290 C   0  0  0  0  0  2  0  0  0  0  0  0
  190.9790  176.2880  139.3200 C   0  0  0  0  0  2  0  0  0  0  0  0
  193.7540  176.7090  139.0510 O   0  0  0  0  0  0  0  0  0  0  0  0
  191.6620  176.4670  138.0450 N   0  0  0  0  0  0  0  0  0  0  0  0
  193.0980  176.4380  138.0040 C   0  0  0  0  0  0  0  0  0  0  0  0
  193.8420  176.0710  136.7800 C   0  0  0  0  0  0  0  0  0  0  0  0
  194.4990  176.9580  136.1700 O   0  0  0  0  0  0  0  0  0  0  0  0
  193.8610  174.6620  136.2510 C   0  0  2  0  0  3  0  0  0  0  0  0
  193.7280  173.7460  137.3130 O   0  0  0  0  0  0  0  0  0  0  0  0
  194.9970  173.7910  136.7050 C   0  0  2  0  0  3  0  0  0  0  0  0
  196.8580  175.1910  137.2190 O   0  0  0  0  0  0  0  0  0  0  0  0
  195.9290  174.1290  139.0940 C   0  0  0  0  0  1  0  0  0  0  0  0
  196.0050  174.4190  137.6350 C   0  0  0  0  0  0  0  0  0  0  0  0
  190.8940  176.9110  136.8860 C   0  0  0  0  0  2  0  0  0  0  0  0
  189.6230  176.3280  136.9010 O   0  0  0  0  0  0  0  0  0  0  0  0
  189.3560  176.0300  135.5630 C   0  0  0  0  0  2  0  0  0  0  0  0
  188.5140  174.7650  135.4650 C   0  0  0  0  0  2  0  0  0  0  0  0
  188.0080  172.7140  136.7420 C   0  0  0  0  0  2  0  0  0  0  0  0
  186.8210  173.6400  136.8730 C   0  0  0  0  0  2  0  0  0  0  0  0
  188.2200  174.2100  136.8460 C   0  0  0  0  0  3  0  0  0  0  0  0
  2  3  1  0  0  0  0
  3  1  1  0  0  0  0
  4  1  2  0  0  0  0
  5  2  2  0  0  0  0
  5  4  1  0  0  0  0
  7 19  1  0  0  0  0
  8  6  1  1  0  0  0
  9 22  1  6  0  0  0
  9 17  1  0  0  0  0
  9 16  1  0  0  0  0
 11 20  2  0  0  0  0
 12  7  1  1  0  0  0
 12 21  1  0  0  0  0
 13 16  1  6  0  0  0
 13 14  1  0  0  0  0
 13  8  1  0  0  0  0
 14 15  1  0  0  0  0
 15  6  2  0  0  0  0
 17 12  1  0  0  0  0
 19  2  1  1  0  0  0
 19 18  1  0  0  0  0
 20 14  1  0  0  0  0
 20 10  1  0  0  0  0
 21  8  1  0  0  0  0
 21 18  1  1  0  0  0
 22 23  1  0  0  0  0
 25 24  1  0  0  0  0
 25 23  1  0  0  0  0
 26 22  1  0  0  0  0
 27 29  1  0  0  0  0
 27 28  1  0  0  0  0
 28 26  1  0  0  0  0
 29 28  1  0  0  0  0
 30  5  1  0  0  0  0
 31 30  1  0  0  0  0
 32 31  1  0  0  0  0
 34 32  1  0  0  0  0
 35 34  1  0  0  0  0
 35 33  2  0  0  0  0
 36 35  1  0  0  0  0
 37 36  2  0  0  0  0
 38 40  1  0  0  0  0
 38 36  1  1  0  0  0
 38 39  1  0  0  0  0
 40 39  1  0  0  0  0
 40 43  1  1  0  0  0
 41 43  2  0  0  0  0
 43 42  1  0  0  0  0
 44 45  1  0  0  0  0
 44 34  1  0  0  0  0
 46 45  1  0  0  0  0
 47 46  1  0  0  0  0
 47 50  1  0  0  0  0
 48 50  1  0  0  0  0
 48 49  1  0  0  0  0
 50 49  1  0  0  0  0
M  END
>  <MODEL>
8

>  <REMARK>
 VINA RESULT:      -5.7      4.001      9.542
  Name = 
  18 active torsions:
  status: ('A' for Active; 'I' for Inactive)
    1  A    between atoms: C_1  and  C_37
    2  A    between atoms: C_1  and  O_42
    3  A    between atoms: C_9  and  C_44
    4  A    between atoms: C_12  and  N_17
    5  A    between atoms: N_13  and  C_18
    6  A    between atoms: N_13  and  C_49
    7  A    between atoms: C_14  and  C_27
    8  A    between atoms: C_15  and  C_24
    9  A    between atoms: O_16  and  N_17
   10  A    between atoms: O_16  and  C_20
   11  A    between atoms: N_17  and  C_27
   12  A    between atoms: C_18  and  O_42
   13  A    between atoms: C_24  and  C_43
   14  A    between atoms: C_28  and  C_35
   15  A    between atoms: C_33  and  N_45
   16  A    between atoms: C_36  and  C_37
   17  A    between atoms: N_45  and  C_47
   18  A    between atoms: C_47  and  C_49
                            x       y       z     vdW  Elec       q    Type
                         _______ _______ _______ _____ _____    ______ ____

>  <TORSDO>
F 18

$$$$
=
 OpenBabel11062414253D

 50 56  0  0  1  0  0  0  0  0999 V2000
  189.1200  179.7630  137.5230 N   0  0  0  0  0  0  0  0  0  0  0  0
  188.3910  177.9830  138.5860 C   0  0  0  0  0  0  0  0  0  0  0  0
  189.0710  179.2240  138.6750 N   0  0  0  0  0  2  0  0  0  0  0  0
  188.4580  178.9390  136.5170 C   0  0  0  0  0  3  0  0  0  0  0  0
  188.0070  177.7810  137.3400 C   0  0  0  0  0  0  0  0  0  0  0  0
  190.9090  176.2730  142.9720 C   0  0  0  0  0  3  0  0  0  0  0  0
  186.9880  177.8350  140.6110 C   0  0  0  0  0  2  0  0  0  0  0  0
  189.4150  176.3900  142.9890 C   0  0  1  0  0  3  0  0  0  0  0  0
  187.1000  178.2370  144.1400 C   0  0  2  0  0  3  0  0  0  0  0  0
  191.9170  176.4570  147.1540 C   0  0  0  0  0  1  0  0  0  0  0  0
  189.5630  176.7260  147.3320 O   0  0  0  0  0  0  0  0  0  0  0  0
  187.4210  177.5780  142.0240 C   0  0  2  0  0  3  0  0  0  0  0  0
  189.0860  176.7270  144.4690 C   0  0  1  0  0  3  0  0  0  0  0  0
  190.3690  176.6050  145.1420 N   0  0  0  0  0  0  0  0  0  0  0  0
  191.3980  176.3760  144.1930 C   0  0  0  0  0  3  0  0  0  0  0  0
  188.5100  178.1260  144.7150 C   0  0  0  0  0  2  0  0  0  0  0  0
  187.1510  178.7010  142.8120 O   0  0  0  0  0  0  0  0  0  0  0  0
  189.2000  176.8540  140.5840 N   0  0  0  0  0  2  0  0  0  0  0  0
  188.0240  177.1310  139.7600 C   0  0  2  0  0  3  0  0  0  0  0  0
  190.5550  176.6050  146.5640 C   0  0  0  0  0  0  0  0  0  0  0  0
  188.9190  177.3720  141.9200 C   0  0  2  0  0  3  0  0  0  0  0  0
  186.2810  179.1190  144.9790 N   0  0  0  0  0  0  0  0  0  0  0  0
  185.7530  178.3140  146.0730 C   0  0  0  0  0  2  0  0  0  0  0  0
  185.9650  179.9580  147.7940 O   0  0  0  0  0  1  0  0  0  0  0  0
  186.4200  178.7050  147.3790 C   0  0  0  0  0  2  0  0  0  0  0  0
  185.2210  179.5580  144.2490 O   0  0  0  0  0  0  0  0  0  0  0  0
  182.8860  179.1340  144.1700 C   0  0  0  0  0  2  0  0  0  0  0  0
  184.2690  178.5390  144.3430 C   0  0  0  0  0  3  0  0  0  0  0  0
  183.5500  178.4120  143.0170 C   0  0  0  0  0  2  0  0  0  0  0  0
  187.2040  176.6820  136.8940 N   0  0  0  0  0  2  0  0  0  0  0  0
  185.8550  176.8630  136.3820 C   0  0  0  0  0  2  0  0  0  0  0  0
  184.8460  176.3950  137.4200 C   0  0  0  0  0  2  0  0  0  0  0  0
  183.6040  177.4910  139.7020 O   0  0  0  0  0  0  0  0  0  0  0  0
  183.6480  177.2260  137.3840 N   0  0  0  0  0  0  0  0  0  0  0  0
  183.2380  177.9230  138.5720 C   0  0  0  0  0  0  0  0  0  0  0  0
  182.4210  179.1540  138.5170 C   0  0  0  0  0  0  0  0  0  0  0  0
  182.9400  180.2530  138.8540 O   0  0  0  0  0  0  0  0  0  0  0  0
  180.9910  179.1430  138.0480 C   0  0  2  0  0  3  0  0  0  0  0  0
  180.3230  180.2950  138.5070 O   0  0  0  0  0  0  0  0  0  0  0  0
  179.9360  179.0870  139.1150 C   0  0  2  0  0  3  0  0  0  0  0  0
  180.7100  180.0580  141.1520 O   0  0  0  0  0  0  0  0  0  0  0  0
  180.4940  177.7230  141.2400 C   0  0  0  0  0  1  0  0  0  0  0  0
  180.4180  179.0370  140.5440 C   0  0  0  0  0  0  0  0  0  0  0  0
  182.7630  177.1420  136.2270 C   0  0  0  0  0  2  0  0  0  0  0  0
  182.3510  175.8200  136.0340 O   0  0  0  0  0  0  0  0  0  0  0  0
  181.0630  175.7700  136.5720 C   0  0  0  0  0  2  0  0  0  0  0  0
  180.5140  174.3520  136.4880 C   0  0  0  0  0  2  0  0  0  0  0  0
  179.0520  174.2900  138.4750 C   0  0  0  0  0  2  0  0  0  0  0  0
  180.3800  174.8700  138.9020 C   0  0  0  0  0  2  0  0  0  0  0  0
  180.3380  173.7630  137.8750 C   0  0  0  0  0  3  0  0  0  0  0  0
  1  3  1  0  0  0  0
  2  3  1  0  0  0  0
  4  5  1  0  0  0  0
  4  1  2  0  0  0  0
  5  2  2  0  0  0  0
  6 15  2  0  0  0  0
  8  6  1  1  0  0  0
  8 13  1  0  0  0  0
  9 16  1  0  0  0  0
  9 22  1  1  0  0  0
 12  7  1  6  0  0  0
 12 17  1  0  0  0  0
 13 16  1  6  0  0  0
 13 14  1  0  0  0  0
 14 20  1  0  0  0  0
 15 14  1  0  0  0  0
 17  9  1  0  0  0  0
 19  2  1  6  0  0  0
 19 18  1  0  0  0  0
 19  7  1  0  0  0  0
 20 10  1  0  0  0  0
 20 11  2  0  0  0  0
 21 18  1  6  0  0  0
 21 12  1  0  0  0  0
 21  8  1  0  0  0  0
 22 23  1  0  0  0  0
 23 25  1  0  0  0  0
 25 24  1  0  0  0  0
 26 28  1  0  0  0  0
 26 22  1  0  0  0  0
 27 28  1  0  0  0  0
 29 27  1  0  0  0  0
 29 28  1  0  0  0  0
 30  5  1  0  0  0  0
 31 30  1  0  0  0  0
 31 32  1  0  0  0  0
 34 32  1  0  0  0  0
 34 35  1  0  0  0  0
 35 33  2  0  0  0  0
 36 35  1  0  0  0  0
 36 37  2  0  0  0  0
 38 39  1  0  0  0  0
 38 36  1  1  0  0  0
 38 40  1  0  0  0  0
 39 40  1  0  0  0  0
 40 43  1  1  0  0  0
 43 41  2  0  0  0  0
 43 42  1  0  0  0  0
 44 34  1  0  0  0  0
 45 44  1  0  0  0  0
 45 46  1  0  0  0  0
 47 46  1  0  0  0  0
 47 50  1  0  0  0  0
 48 49  1  0  0  0  0
 50 48  1  0  0  0  0
 50 49  1  0  0  0  0
M  END
>  <MODEL>
9

>  <REMARK>
 VINA RESULT:      -5.6      2.727      6.155
  Name = 
  18 active torsions:
  status: ('A' for Active; 'I' for Inactive)
    1  A    between atoms: C_1  and  C_37
    2  A    between atoms: C_1  and  O_42
    3  A    between atoms: C_9  and  C_44
    4  A    between atoms: C_12  and  N_17
    5  A    between atoms: N_13  and  C_18
    6  A    between atoms: N_13  and  C_49
    7  A    between atoms: C_14  and  C_27
    8  A    between atoms: C_15  and  C_24
    9  A    between atoms: O_16  and  N_17
   10  A    between atoms: O_16  and  C_20
   11  A    between atoms: N_17  and  C_27
   12  A    between atoms: C_18  and  O_42
   13  A    between atoms: C_24  and  C_43
   14  A    between atoms: C_28  and  C_35
   15  A    between atoms: C_33  and  N_45
   16  A    between atoms: C_36  and  C_37
   17  A    between atoms: N_45  and  C_47
   18  A    between atoms: C_47  and  C_49
                            x       y       z     vdW  Elec       q    Type
                         _______ _______ _______ _____ _____    ______ ____

>  <TORSDO>
F 18

$$$$
