=
 OpenBabel11062413333D

 28 29  0  0  1  0  0  0  0  0999 V2000
  187.6210  177.7200  145.6030 C   0  0  2  0  0  3  0  0  0  0  0  0
  189.9630  177.3050  146.4360 N   0  0  0  0  0  2  0  0  0  0  0  0
  188.1090  176.7970  147.7610 O   0  0  0  0  0  0  0  0  0  0  0  0
  188.5570  177.2550  146.6740 C   0  0  0  0  0  0  0  0  0  0  0  0
  191.9730  175.9940  146.7700 C   0  0  0  0  0  1  0  0  0  0  0  0
  190.9270  176.8670  147.4320 C   0  0  0  0  0  2  0  0  0  0  0  0
  185.9890  179.0900  146.8780 C   0  0  0  0  0  2  0  0  0  0  0  0
  185.5050  179.0060  145.4450 C   0  0  1  0  0  3  0  0  0  0  0  0
  186.1790  177.8100  146.0890 C   0  0  1  0  0  3  0  0  0  0  0  0
  184.0090  178.7790  145.4380 C   0  0  0  0  0  2  0  0  0  0  0  0
  183.4730  179.1390  144.1380 N   0  0  0  0  0  2  0  0  0  0  0  0
  184.5930  179.1540  143.2140 C   0  0  0  0  0  2  0  0  0  0  0  0
  185.1630  179.0100  140.7940 C   0  0  0  0  0  1  0  0  0  0  0  0
  184.1580  178.6200  141.8620 C   0  0  0  0  0  2  0  0  0  0  0  0
  187.7740  176.7120  144.0830 S   0  0  0  0  0  0  0  0  0  0  0  0
  188.6400  177.9840  143.1070 C   0  0  0  0  0  2  0  0  0  0  0  0
  189.8780  177.3910  142.4530 C   0  0  2  0  0  3  0  0  0  0  0  0
  190.7270  176.8160  140.1430 C   0  0  0  0  0  3  0  0  0  0  0  0
  188.5350  178.1030  138.9830 C   0  0  0  0  0  3  0  0  0  0  0  0
  188.6650  178.0650  140.3740 C   0  0  0  0  0  3  0  0  0  0  0  0
  190.5970  176.8590  138.7520 C   0  0  0  0  0  3  0  0  0  0  0  0
  189.7620  177.4250  140.9600 C   0  0  0  0  0  0  0  0  0  0  0  0
  189.5010  177.5040  138.1630 C   0  0  0  0  0  0  0  0  0  0  0  0
  190.1530  176.7490  135.8910 O   0  0  0  0  0  0  0  0  0  0  0  0
  188.5320  178.3400  136.1650 O   0  0  0  0  0  1  0  0  0  0  0  0
  189.3640  177.5600  136.6990 C   0  0  0  0  0  0  0  0  0  0  0  0
  191.1070  175.7210  143.4230 O   0  0  0  0  0  0  0  0  0  0  0  0
  190.0800  176.0370  142.9040 N   0  0  0  0  0  0  0  0  0  0  0  0
  1 15  1  6  0  0  0
  1  4  1  0  0  0  0
  2  4  1  0  0  0  0
  2  6  1  0  0  0  0
  4  3  2  0  0  0  0
  5  6  1  0  0  0  0
  8 10  1  1  0  0  0
  8  9  1  0  0  0  0
  8  7  1  0  0  0  0
  9  1  1  6  0  0  0
  9  7  1  0  0  0  0
 11 10  1  0  0  0  0
 12 11  1  0  0  0  0
 13 14  1  0  0  0  0
 14 12  1  0  0  0  0
 16 15  1  0  0  0  0
 17 28  1  0  0  0  0
 17 16  1  1  0  0  0
 18 22  1  0  0  0  0
 19 20  1  0  0  0  0
 20 22  2  0  0  0  0
 21 18  2  0  0  0  0
 22 17  1  0  0  0  0
 23 21  1  0  0  0  0
 23 19  2  0  0  0  0
 24 26  2  0  0  0  0
 25 26  1  0  0  0  0
 26 23  1  0  0  0  0
 28 27  2  0  0  0  0
M  END
>  <MODEL>
1

>  <REMARK>
 VINA RESULT:      -6.9      0.000      0.000
  Name = 
  13 active torsions:
  status: ('A' for Active; 'I' for Inactive)
    1  A    between atoms: C_1  and  C_18
    2  A    between atoms: C_1  and  N_22
    3  A    between atoms: C_2  and  N_22
    4  A    between atoms: C_2  and  C_27
    5  A    between atoms: C_3  and  C_6
    6  A    between atoms: C_3  and  S_20
    7  A    between atoms: N_4  and  C_23
    8  A    between atoms: C_6  and  N_19
    9  A    between atoms: C_6  and  C_21
   10  A    between atoms: C_13  and  C_15
   11  A    between atoms: C_13  and  S_20
   12  A    between atoms: C_13  and  C_24
   13  A    between atoms: C_26  and  C_28
                            x       y       z     vdW  Elec       q    Type
                         _______ _______ _______ _____ _____    ______ ____

>  <TORSDO>
F 13

$$$$
=
 OpenBabel11062413333D

 28 29  0  0  1  0  0  0  0  0999 V2000
  185.0960  178.3950  141.8590 C   0  0  2  0  0  3  0  0  0  0  0  0
  183.3250  177.5240  140.2920 N   0  0  0  0  0  2  0  0  0  0  0  0
  184.2290  179.6590  140.0150 O   0  0  0  0  0  0  0  0  0  0  0  0
  184.1970  178.5860  140.6780 C   0  0  0  0  0  0  0  0  0  0  0  0
  182.6010  176.4380  138.2510 C   0  0  0  0  0  1  0  0  0  0  0  0
  182.4270  177.6410  139.1540 C   0  0  0  0  0  2  0  0  0  0  0  0
  183.3530  178.9620  143.5340 C   0  0  0  0  0  2  0  0  0  0  0  0
  184.5830  178.4910  144.2840 C   0  0  1  0  0  3  0  0  0  0  0  0
  184.7340  179.3140  143.0200 C   0  0  1  0  0  3  0  0  0  0  0  0
  184.8090  179.3870  145.4820 C   0  0  0  0  0  2  0  0  0  0  0  0
  184.9330  178.5740  146.6770 N   0  0  0  0  0  2  0  0  0  0  0  0
  186.2890  178.0550  146.6890 C   0  0  0  0  0  2  0  0  0  0  0  0
  187.8700  177.7470  148.5880 C   0  0  0  0  0  1  0  0  0  0  0  0
  187.1060  178.7600  147.7570 C   0  0  0  0  0  2  0  0  0  0  0  0
  186.8620  178.5310  141.3960 S   0  0  0  0  0  0  0  0  0  0  0  0
  187.4730  177.3760  142.6670 C   0  0  0  0  0  2  0  0  0  0  0  0
  188.9000  176.9550  142.3500 C   0  0  2  0  0  3  0  0  0  0  0  0
  189.2580  177.3500  144.8200 C   0  0  0  0  0  3  0  0  0  0  0  0
  191.6730  175.9470  144.7270 C   0  0  0  0  0  3  0  0  0  0  0  0
  190.9110  176.1020  143.5660 C   0  0  0  0  0  3  0  0  0  0  0  0
  190.0230  177.1970  145.9800 C   0  0  0  0  0  3  0  0  0  0  0  0
  189.7040  176.8060  143.6060 C   0  0  0  0  0  0  0  0  0  0  0  0
  191.2360  176.4960  145.9410 C   0  0  0  0  0  0  0  0  0  0  0  0
  192.9720  175.3040  147.2540 O   0  0  0  0  0  0  0  0  0  0  0  0
  191.9190  177.1410  148.1200 O   0  0  0  0  0  1  0  0  0  0  0  0
  192.0490  176.3400  147.1570 C   0  0  0  0  0  0  0  0  0  0  0  0
  190.0490  177.5590  140.4650 O   0  0  0  0  0  0  0  0  0  0  0  0
  189.5200  177.9160  141.4740 N   0  0  0  0  0  0  0  0  0  0  0  0
  1  4  1  6  0  0  0
  2  4  1  0  0  0  0
  3  4  2  0  0  0  0
  5  6  1  0  0  0  0
  6  2  1  0  0  0  0
  7  8  1  0  0  0  0
  8 10  1  1  0  0  0
  9  1  1  6  0  0  0
  9  7  1  0  0  0  0
  9  8  1  0  0  0  0
 10 11  1  0  0  0  0
 11 12  1  0  0  0  0
 12 14  1  0  0  0  0
 14 13  1  0  0  0  0
 15  1  1  0  0  0  0
 15 16  1  0  0  0  0
 17 16  1  1  0  0  0
 17 22  1  0  0  0  0
 18 21  1  0  0  0  0
 19 23  1  0  0  0  0
 20 22  1  0  0  0  0
 20 19  2  0  0  0  0
 22 18  2  0  0  0  0
 23 21  2  0  0  0  0
 23 26  1  0  0  0  0
 26 24  2  0  0  0  0
 26 25  1  0  0  0  0
 27 28  2  0  0  0  0
 28 17  1  0  0  0  0
M  END
>  <MODEL>
2

>  <REMARK>
 VINA RESULT:      -6.8      2.890      7.021
  Name = 
  13 active torsions:
  status: ('A' for Active; 'I' for Inactive)
    1  A    between atoms: C_1  and  C_18
    2  A    between atoms: C_1  and  N_22
    3  A    between atoms: C_2  and  N_22
    4  A    between atoms: C_2  and  C_27
    5  A    between atoms: C_3  and  C_6
    6  A    between atoms: C_3  and  S_20
    7  A    between atoms: N_4  and  C_23
    8  A    between atoms: C_6  and  N_19
    9  A    between atoms: C_6  and  C_21
   10  A    between atoms: C_13  and  C_15
   11  A    between atoms: C_13  and  S_20
   12  A    between atoms: C_13  and  C_24
   13  A    between atoms: C_26  and  C_28
                            x       y       z     vdW  Elec       q    Type
                         _______ _______ _______ _____ _____    ______ ____

>  <TORSDO>
F 13

$$$$
=
 OpenBabel11062413333D

 28 29  0  0  1  0  0  0  0  0999 V2000
  189.3430  177.3780  142.8820 C   0  0  2  0  0  3  0  0  0  0  0  0
  188.5800  177.9350  140.5450 N   0  0  0  0  0  2  0  0  0  0  0  0
  190.2180  176.3140  140.9190 O   0  0  0  0  0  0  0  0  0  0  0  0
  189.4280  177.1720  141.4020 C   0  0  0  0  0  0  0  0  0  0  0  0
  187.2120  177.9700  138.5460 C   0  0  0  0  0  1  0  0  0  0  0  0
  188.6090  177.7820  139.0990 C   0  0  0  0  0  2  0  0  0  0  0  0
  191.5910  177.9750  143.7530 C   0  0  0  0  0  2  0  0  0  0  0  0
  190.7220  177.5890  144.9330 C   0  0  1  0  0  3  0  0  0  0  0  0
  190.5760  176.8590  143.6130 C   0  0  1  0  0  3  0  0  0  0  0  0
  191.5260  176.7280  145.8830 C   0  0  0  0  0  2  0  0  0  0  0  0
  190.7700  176.5180  147.1030 N   0  0  0  0  0  2  0  0  0  0  0  0
  189.7290  177.5310  147.1280 C   0  0  0  0  0  2  0  0  0  0  0  0
  188.0010  178.0200  148.8520 C   0  0  0  0  0  1  0  0  0  0  0  0
  188.5040  176.9990  147.8490 C   0  0  0  0  0  2  0  0  0  0  0  0
  187.7920  176.6970  143.5740 S   0  0  0  0  0  0  0  0  0  0  0  0
  186.9930  178.3120  143.8520 C   0  0  0  0  0  2  0  0  0  0  0  0
  185.6900  178.1270  144.6160 C   0  0  2  0  0  3  0  0  0  0  0  0
  183.2860  178.8150  144.2510 C   0  0  0  0  0  3  0  0  0  0  0  0
  183.5530  178.4020  141.5000 C   0  0  0  0  0  3  0  0  0  0  0  0
  184.6400  178.1730  142.3480 C   0  0  0  0  0  3  0  0  0  0  0  0
  182.2000  179.0410  143.4010 C   0  0  0  0  0  3  0  0  0  0  0  0
  184.5110  178.3740  143.7260 C   0  0  0  0  0  0  0  0  0  0  0  0
  182.3260  178.8350  142.0210 C   0  0  0  0  0  0  0  0  0  0  0  0
  181.1400  178.4520  139.8740 O   0  0  0  0  0  0  0  0  0  0  0  0
  180.2330  179.8110  141.4750 O   0  0  0  0  0  1  0  0  0  0  0  0
  181.1820  179.0620  141.1230 C   0  0  0  0  0  0  0  0  0  0  0  0
  185.1820  178.6440  146.7870 O   0  0  0  0  0  0  0  0  0  0  0  0
  185.6490  179.0120  145.7530 N   0  0  0  0  0  0  0  0  0  0  0  0
  1  4  1  6  0  0  0
  1 15  1  0  0  0  0
  2  4  1  0  0  0  0
  3  4  2  0  0  0  0
  5  6  1  0  0  0  0
  6  2  1  0  0  0  0
  7  8  1  0  0  0  0
  8 10  1  1  0  0  0
  9  1  1  6  0  0  0
  9  7  1  0  0  0  0
  9  8  1  0  0  0  0
 10 11  1  0  0  0  0
 11 12  1  0  0  0  0
 12 14  1  0  0  0  0
 14 13  1  0  0  0  0
 15 16  1  0  0  0  0
 17 16  1  6  0  0  0
 17 28  1  0  0  0  0
 19 23  2  0  0  0  0
 19 20  1  0  0  0  0
 20 22  2  0  0  0  0
 21 18  2  0  0  0  0
 22 18  1  0  0  0  0
 22 17  1  0  0  0  0
 23 21  1  0  0  0  0
 24 26  2  0  0  0  0
 26 25  1  0  0  0  0
 26 23  1  0  0  0  0
 28 27  2  0  0  0  0
M  END
>  <MODEL>
3

>  <REMARK>
 VINA RESULT:      -6.8      3.068      7.161
  Name = 
  13 active torsions:
  status: ('A' for Active; 'I' for Inactive)
    1  A    between atoms: C_1  and  C_18
    2  A    between atoms: C_1  and  N_22
    3  A    between atoms: C_2  and  N_22
    4  A    between atoms: C_2  and  C_27
    5  A    between atoms: C_3  and  C_6
    6  A    between atoms: C_3  and  S_20
    7  A    between atoms: N_4  and  C_23
    8  A    between atoms: C_6  and  N_19
    9  A    between atoms: C_6  and  C_21
   10  A    between atoms: C_13  and  C_15
   11  A    between atoms: C_13  and  S_20
   12  A    between atoms: C_13  and  C_24
   13  A    between atoms: C_26  and  C_28
                            x       y       z     vdW  Elec       q    Type
                         _______ _______ _______ _____ _____    ______ ____

>  <TORSDO>
F 13

$$$$
=
 OpenBabel11062413333D

 28 29  0  0  1  0  0  0  0  0999 V2000
  190.1880  176.5320  138.9880 C   0  0  2  0  0  3  0  0  0  0  0  0
  192.4470  176.4670  137.8710 N   0  0  0  0  0  2  0  0  0  0  0  0
  191.1560  174.5330  138.0820 O   0  0  0  0  0  0  0  0  0  0  0  0
  191.2790  175.7700  138.3030 C   0  0  0  0  0  0  0  0  0  0  0  0
  193.3730  175.9290  135.6990 C   0  0  0  0  0  1  0  0  0  0  0  0
  193.5420  175.7890  137.1970 C   0  0  0  0  0  2  0  0  0  0  0  0
  188.9660  176.6650  136.8310 C   0  0  0  0  0  2  0  0  0  0  0  0
  187.9910  177.0060  137.9390 C   0  0  1  0  0  3  0  0  0  0  0  0
  189.4360  177.4540  138.0360 C   0  0  1  0  0  3  0  0  0  0  0  0
  187.1420  178.1830  137.5100 C   0  0  0  0  0  2  0  0  0  0  0  0
  186.1950  178.5040  138.5620 N   0  0  0  0  0  2  0  0  0  0  0  0
  184.8940  178.0490  138.1040 C   0  0  0  0  0  2  0  0  0  0  0  0
  184.2420  179.1180  140.2570 C   0  0  0  0  0  1  0  0  0  0  0  0
  183.9160  178.0180  139.2650 C   0  0  0  0  0  2  0  0  0  0  0  0
  190.8050  177.4190  140.4650 S   0  0  0  0  0  0  0  0  0  0  0  0
  189.1600  177.7560  141.1750 C   0  0  0  0  0  2  0  0  0  0  0  0
  188.8150  176.7050  142.2190 C   0  0  2  0  0  3  0  0  0  0  0  0
  186.6120  177.8230  142.7550 C   0  0  0  0  0  3  0  0  0  0  0  0
  187.1300  177.6040  145.4920 C   0  0  0  0  0  3  0  0  0  0  0  0
  188.0600  177.1230  144.5660 C   0  0  0  0  0  3  0  0  0  0  0  0
  185.6860  178.3060  143.6830 C   0  0  0  0  0  3  0  0  0  0  0  0
  187.8070  177.2330  143.1950 C   0  0  0  0  0  0  0  0  0  0  0  0
  185.9390  178.2010  145.0570 C   0  0  0  0  0  0  0  0  0  0  0  0
  183.6760  179.0320  145.6440 O   0  0  0  0  0  0  0  0  0  0  0  0
  185.3060  178.8780  147.2420 O   0  0  0  0  0  1  0  0  0  0  0  0
  184.9720  178.7170  146.0380 C   0  0  0  0  0  0  0  0  0  0  0  0
  190.3130  175.1300  142.9360 O   0  0  0  0  0  0  0  0  0  0  0  0
  190.0050  176.2830  142.9140 N   0  0  0  0  0  0  0  0  0  0  0  0
  1  4  1  6  0  0  0
  1 15  1  0  0  0  0
  2  4  1  0  0  0  0
  3  4  2  0  0  0  0
  5  6  1  0  0  0  0
  6  2  1  0  0  0  0
  7  8  1  0  0  0  0
  7  9  1  0  0  0  0
  8 10  1  6  0  0  0
  8  9  1  0  0  0  0
  9  1  1  1  0  0  0
 10 11  1  0  0  0  0
 12 11  1  0  0  0  0
 12 14  1  0  0  0  0
 14 13  1  0  0  0  0
 15 16  1  0  0  0  0
 17 16  1  6  0  0  0
 17 28  1  0  0  0  0
 17 22  1  0  0  0  0
 18 22  2  0  0  0  0
 18 21  1  0  0  0  0
 20 19  2  0  0  0  0
 21 23  2  0  0  0  0
 22 20  1  0  0  0  0
 23 19  1  0  0  0  0
 23 26  1  0  0  0  0
 24 26  2  0  0  0  0
 26 25  1  0  0  0  0
 28 27  2  0  0  0  0
M  END
>  <MODEL>
4

>  <REMARK>
 VINA RESULT:      -6.7      2.765      7.522
  Name = 
  13 active torsions:
  status: ('A' for Active; 'I' for Inactive)
    1  A    between atoms: C_1  and  C_18
    2  A    between atoms: C_1  and  N_22
    3  A    between atoms: C_2  and  N_22
    4  A    between atoms: C_2  and  C_27
    5  A    between atoms: C_3  and  C_6
    6  A    between atoms: C_3  and  S_20
    7  A    between atoms: N_4  and  C_23
    8  A    between atoms: C_6  and  N_19
    9  A    between atoms: C_6  and  C_21
   10  A    between atoms: C_13  and  C_15
   11  A    between atoms: C_13  and  S_20
   12  A    between atoms: C_13  and  C_24
   13  A    between atoms: C_26  and  C_28
                            x       y       z     vdW  Elec       q    Type
                         _______ _______ _______ _____ _____    ______ ____

>  <TORSDO>
F 13

$$$$
=
 OpenBabel11062413333D

 28 29  0  0  1  0  0  0  0  0999 V2000
  185.7180  179.1430  141.9010 C   0  0  2  0  0  3  0  0  0  0  0  0
  183.6950  178.0470  140.8720 N   0  0  0  0  0  2  0  0  0  0  0  0
  184.7340  179.8640  139.8370 O   0  0  0  0  0  0  0  0  0  0  0  0
  184.6950  179.0630  140.8110 C   0  0  0  0  0  0  0  0  0  0  0  0
  181.3150  177.7870  140.5030 C   0  0  0  0  0  1  0  0  0  0  0  0
  182.6740  177.9100  139.8460 C   0  0  0  0  0  2  0  0  0  0  0  0
  187.3480  177.9900  140.4250 C   0  0  0  0  0  2  0  0  0  0  0  0
  188.1200  178.6200  141.5670 C   0  0  1  0  0  3  0  0  0  0  0  0
  186.7480  178.0230  141.8160 C   0  0  1  0  0  3  0  0  0  0  0  0
  189.1720  177.6460  142.0510 C   0  0  0  0  0  2  0  0  0  0  0  0
  190.4880  178.1360  141.6860 N   0  0  0  0  0  2  0  0  0  0  0  0
  191.1550  177.0540  140.9840 C   0  0  0  0  0  2  0  0  0  0  0  0
  190.3200  176.2510  138.7800 C   0  0  0  0  0  1  0  0  0  0  0  0
  191.1360  177.3150  139.4890 C   0  0  0  0  0  2  0  0  0  0  0  0
  184.9410  179.2420  143.5550 S   0  0  0  0  0  0  0  0  0  0  0  0
  186.0510  178.0330  144.3500 C   0  0  0  0  0  2  0  0  0  0  0  0
  186.4290  178.5070  145.7450 C   0  0  2  0  0  3  0  0  0  0  0  0
  188.7520  177.6910  145.1770 C   0  0  0  0  0  3  0  0  0  0  0  0
  189.3120  177.2990  147.8860 C   0  0  0  0  0  3  0  0  0  0  0  0
  188.0610  177.7850  147.4960 C   0  0  0  0  0  3  0  0  0  0  0  0
  190.0020  177.2020  145.5690 C   0  0  0  0  0  3  0  0  0  0  0  0
  187.7740  177.9800  146.1410 C   0  0  0  0  0  0  0  0  0  0  0  0
  190.2890  177.0020  146.9260 C   0  0  0  0  0  0  0  0  0  0  0  0
  192.2710  177.0500  148.4180 O   0  0  0  0  0  1  0  0  0  0  0  0
  192.1230  175.5080  146.7350 O   0  0  0  0  0  0  0  0  0  0  0  0
  191.5990  176.4780  147.3440 C   0  0  0  0  0  0  0  0  0  0  0  0
  184.3200  178.5220  146.6340 O   0  0  0  0  0  0  0  0  0  0  0  0
  185.4320  178.0940  146.7000 N   0  0  0  0  0  0  0  0  0  0  0  0
  1  4  1  6  0  0  0
  1 15  1  0  0  0  0
  3  4  2  0  0  0  0
  4  2  1  0  0  0  0
  6  5  1  0  0  0  0
  6  2  1  0  0  0  0
  7  8  1  0  0  0  0
  7  9  1  0  0  0  0
  8  9  1  0  0  0  0
  8 10  1  1  0  0  0
  9  1  1  6  0  0  0
 11 10  1  0  0  0  0
 12 11  1  0  0  0  0
 13 14  1  0  0  0  0
 14 12  1  0  0  0  0
 15 16  1  0  0  0  0
 17 16  1  6  0  0  0
 17 22  1  0  0  0  0
 17 28  1  0  0  0  0
 18 21  2  0  0  0  0
 18 22  1  0  0  0  0
 20 19  1  0  0  0  0
 21 23  1  0  0  0  0
 22 20  2  0  0  0  0
 23 26  1  0  0  0  0
 23 19  2  0  0  0  0
 25 26  2  0  0  0  0
 26 24  1  0  0  0  0
 27 28  2  0  0  0  0
M  END
>  <MODEL>
5

>  <REMARK>
 VINA RESULT:      -6.7      2.709      7.836
  Name = 
  13 active torsions:
  status: ('A' for Active; 'I' for Inactive)
    1  A    between atoms: C_1  and  C_18
    2  A    between atoms: C_1  and  N_22
    3  A    between atoms: C_2  and  N_22
    4  A    between atoms: C_2  and  C_27
    5  A    between atoms: C_3  and  C_6
    6  A    between atoms: C_3  and  S_20
    7  A    between atoms: N_4  and  C_23
    8  A    between atoms: C_6  and  N_19
    9  A    between atoms: C_6  and  C_21
   10  A    between atoms: C_13  and  C_15
   11  A    between atoms: C_13  and  S_20
   12  A    between atoms: C_13  and  C_24
   13  A    between atoms: C_26  and  C_28
                            x       y       z     vdW  Elec       q    Type
                         _______ _______ _______ _____ _____    ______ ____

>  <TORSDO>
F 13

$$$$
=
 OpenBabel11062413333D

 28 29  0  0  1  0  0  0  0  0999 V2000
  185.7520  178.5420  141.1640 C   0  0  2  0  0  3  0  0  0  0  0  0
  186.4380  178.0950  138.7800 N   0  0  0  0  0  2  0  0  0  0  0  0
  184.8220  179.7040  139.2840 O   0  0  0  0  0  0  0  0  0  0  0  0
  185.6210  178.8200  139.6990 C   0  0  0  0  0  0  0  0  0  0  0  0
  187.7280  178.7220  136.8280 C   0  0  0  0  0  1  0  0  0  0  0  0
  186.3640  178.3180  137.3450 C   0  0  0  0  0  2  0  0  0  0  0  0
  183.4120  178.4830  141.9930 C   0  0  0  0  0  2  0  0  0  0  0  0
  184.3320  178.4330  143.1960 C   0  0  1  0  0  3  0  0  0  0  0  0
  184.7030  179.2760  141.9910 C   0  0  1  0  0  3  0  0  0  0  0  0
  183.7860  179.3390  144.2770 C   0  0  0  0  0  2  0  0  0  0  0  0
  184.5550  179.1560  145.4940 N   0  0  0  0  0  2  0  0  0  0  0  0
  185.5570  178.1450  145.2070 C   0  0  0  0  0  2  0  0  0  0  0  0
  186.5260  178.8400  147.3920 C   0  0  0  0  0  1  0  0  0  0  0  0
  186.1930  177.6620  146.4970 C   0  0  0  0  0  2  0  0  0  0  0  0
  187.4510  178.8580  141.7660 S   0  0  0  0  0  0  0  0  0  0  0  0
  187.7060  177.1960  142.4710 C   0  0  0  0  0  2  0  0  0  0  0  0
  189.1530  176.7630  142.2810 C   0  0  2  0  0  3  0  0  0  0  0  0
  191.1500  176.1350  143.6960 C   0  0  0  0  0  3  0  0  0  0  0  0
  189.8870  177.1350  145.9790 C   0  0  0  0  0  3  0  0  0  0  0  0
  189.2380  177.1910  144.7430 C   0  0  0  0  0  3  0  0  0  0  0  0
  191.7960  176.0770  144.9340 C   0  0  0  0  0  3  0  0  0  0  0  0
  189.8640  176.6880  143.5980 C   0  0  0  0  0  0  0  0  0  0  0  0
  191.1680  176.5750  146.0840 C   0  0  0  0  0  0  0  0  0  0  0  0
  192.5560  175.3730  147.7530 O   0  0  0  0  0  0  0  0  0  0  0  0
  191.7720  177.4770  148.1940 O   0  0  0  0  0  1  0  0  0  0  0  0
  191.8390  176.5090  147.3920 C   0  0  0  0  0  0  0  0  0  0  0  0
  190.4000  177.2710  140.4300 O   0  0  0  0  0  0  0  0  0  0  0  0
  189.8340  177.6770  141.3990 N   0  0  0  0  0  0  0  0  0  0  0  0
  1  4  1  6  0  0  0
  1 15  1  0  0  0  0
  2  4  1  0  0  0  0
  3  4  2  0  0  0  0
  5  6  1  0  0  0  0
  6  2  1  0  0  0  0
  7  8  1  0  0  0  0
  8 10  1  1  0  0  0
  9  1  1  6  0  0  0
  9  7  1  0  0  0  0
  9  8  1  0  0  0  0
 10 11  1  0  0  0  0
 12 11  1  0  0  0  0
 12 14  1  0  0  0  0
 14 13  1  0  0  0  0
 15 16  1  0  0  0  0
 17 16  1  1  0  0  0
 17 22  1  0  0  0  0
 18 21  1  0  0  0  0
 19 23  1  0  0  0  0
 20 19  2  0  0  0  0
 21 23  2  0  0  0  0
 22 18  2  0  0  0  0
 22 20  1  0  0  0  0
 23 26  1  0  0  0  0
 26 24  2  0  0  0  0
 26 25  1  0  0  0  0
 27 28  2  0  0  0  0
 28 17  1  0  0  0  0
M  END
>  <MODEL>
6

>  <REMARK>
 VINA RESULT:      -6.6      2.493      6.792
  Name = 
  13 active torsions:
  status: ('A' for Active; 'I' for Inactive)
    1  A    between atoms: C_1  and  C_18
    2  A    between atoms: C_1  and  N_22
    3  A    between atoms: C_2  and  N_22
    4  A    between atoms: C_2  and  C_27
    5  A    between atoms: C_3  and  C_6
    6  A    between atoms: C_3  and  S_20
    7  A    between atoms: N_4  and  C_23
    8  A    between atoms: C_6  and  N_19
    9  A    between atoms: C_6  and  C_21
   10  A    between atoms: C_13  and  C_15
   11  A    between atoms: C_13  and  S_20
   12  A    between atoms: C_13  and  C_24
   13  A    between atoms: C_26  and  C_28
                            x       y       z     vdW  Elec       q    Type
                         _______ _______ _______ _____ _____    ______ ____

>  <TORSDO>
F 13

$$$$
=
 OpenBabel11062413333D

 28 29  0  0  1  0  0  0  0  0999 V2000
  190.3190  176.8870  140.7080 C   0  0  2  0  0  3  0  0  0  0  0  0
  190.6560  175.6210  138.5550 N   0  0  0  0  0  2  0  0  0  0  0  0
  192.2460  177.1580  139.3070 O   0  0  0  0  0  0  0  0  0  0  0  0
  191.1350  176.5870  139.4900 C   0  0  0  0  0  0  0  0  0  0  0  0
  191.1860  173.8170  137.0280 C   0  0  0  0  0  1  0  0  0  0  0  0
  191.4000  175.2800  137.3530 C   0  0  0  0  0  2  0  0  0  0  0  0
  188.9450  178.2090  139.1170 C   0  0  0  0  0  2  0  0  0  0  0  0
  188.0340  177.7280  140.2290 C   0  0  1  0  0  3  0  0  0  0  0  0
  189.4610  178.1360  140.5400 C   0  0  1  0  0  3  0  0  0  0  0  0
  187.1050  178.8520  140.6320 C   0  0  0  0  0  2  0  0  0  0  0  0
  185.8480  178.7190  139.9200 N   0  0  0  0  0  2  0  0  0  0  0  0
  184.7950  179.0330  140.8690 C   0  0  0  0  0  2  0  0  0  0  0  0
  183.3260  179.8490  139.0310 C   0  0  0  0  0  1  0  0  0  0  0  0
  183.4380  178.8930  140.2040 C   0  0  0  0  0  2  0  0  0  0  0  0
  191.3510  176.9570  142.2180 S   0  0  0  0  0  0  0  0  0  0  0  0
  190.3000  175.8450  143.2080 C   0  0  0  0  0  2  0  0  0  0  0  0
  190.1650  176.3780  144.6270 C   0  0  2  0  0  3  0  0  0  0  0  0
  187.8680  177.0370  143.8060 C   0  0  0  0  0  3  0  0  0  0  0  0
  187.2010  177.9980  146.3440 C   0  0  0  0  0  3  0  0  0  0  0  0
  188.4660  177.4480  146.1160 C   0  0  0  0  0  3  0  0  0  0  0  0
  186.6040  177.5900  144.0350 C   0  0  0  0  0  3  0  0  0  0  0  0
  188.8060  176.9690  144.8470 C   0  0  0  0  0  0  0  0  0  0  0  0
  186.2640  178.0760  145.3050 C   0  0  0  0  0  0  0  0  0  0  0  0
  184.4150  178.7040  146.8360 O   0  0  0  0  0  1  0  0  0  0  0  0
  184.2680  179.1460  144.5960 O   0  0  0  0  0  0  0  0  0  0  0  0
  184.9390  178.6680  145.5490 C   0  0  0  0  0  0  0  0  0  0  0  0
  191.8910  177.2600  145.8440 O   0  0  0  0  0  0  0  0  0  0  0  0
  191.1840  177.3630  144.8890 N   0  0  0  0  0  0  0  0  0  0  0  0
  1  4  1  6  0  0  0
  1 15  1  0  0  0  0
  2  4  1  0  0  0  0
  3  4  2  0  0  0  0
  5  6  1  0  0  0  0
  6  2  1  0  0  0  0
  7  8  1  0  0  0  0
  7  9  1  0  0  0  0
  8  9  1  0  0  0  0
  8 10  1  1  0  0  0
  9  1  1  6  0  0  0
 11 10  1  0  0  0  0
 11 12  1  0  0  0  0
 13 14  1  0  0  0  0
 14 12  1  0  0  0  0
 15 16  1  0  0  0  0
 17 16  1  6  0  0  0
 17 22  1  0  0  0  0
 17 28  1  0  0  0  0
 18 21  2  0  0  0  0
 18 22  1  0  0  0  0
 20 19  1  0  0  0  0
 21 23  1  0  0  0  0
 22 20  2  0  0  0  0
 23 26  1  0  0  0  0
 23 19  2  0  0  0  0
 25 26  2  0  0  0  0
 26 24  1  0  0  0  0
 28 27  2  0  0  0  0
M  END
>  <MODEL>
7

>  <REMARK>
 VINA RESULT:      -6.4      2.605      6.795
  Name = 
  13 active torsions:
  status: ('A' for Active; 'I' for Inactive)
    1  A    between atoms: C_1  and  C_18
    2  A    between atoms: C_1  and  N_22
    3  A    between atoms: C_2  and  N_22
    4  A    between atoms: C_2  and  C_27
    5  A    between atoms: C_3  and  C_6
    6  A    between atoms: C_3  and  S_20
    7  A    between atoms: N_4  and  C_23
    8  A    between atoms: C_6  and  N_19
    9  A    between atoms: C_6  and  C_21
   10  A    between atoms: C_13  and  C_15
   11  A    between atoms: C_13  and  S_20
   12  A    between atoms: C_13  and  C_24
   13  A    between atoms: C_26  and  C_28
                            x       y       z     vdW  Elec       q    Type
                         _______ _______ _______ _____ _____    ______ ____

>  <TORSDO>
F 13

$$$$
=
 OpenBabel11062413333D

 28 29  0  0  1  0  0  0  0  0999 V2000
  189.3680  176.9510  143.9160 C   0  0  2  0  0  3  0  0  0  0  0  0
  189.0240  177.1640  146.4040 N   0  0  0  0  0  2  0  0  0  0  0  0
  190.0760  178.8570  145.1880 O   0  0  0  0  0  0  0  0  0  0  0  0
  189.5290  177.7200  145.1900 C   0  0  0  0  0  0  0  0  0  0  0  0
  187.9670  177.4980  148.5580 C   0  0  0  0  0  1  0  0  0  0  0  0
  189.1440  177.8580  147.6760 C   0  0  0  0  0  2  0  0  0  0  0  0
  191.5040  177.6330  142.8500 C   0  0  0  0  0  2  0  0  0  0  0  0
  190.8030  176.6710  141.9120 C   0  0  1  0  0  3  0  0  0  0  0  0
  189.9950  177.6640  142.7240 C   0  0  1  0  0  3  0  0  0  0  0  0
  190.9250  177.1830  140.4940 C   0  0  0  0  0  2  0  0  0  0  0  0
  190.4850  176.1530  139.5700 N   0  0  0  0  0  2  0  0  0  0  0  0
  189.9990  176.8370  138.3850 C   0  0  0  0  0  2  0  0  0  0  0  0
  189.0550  178.9880  137.5600 C   0  0  0  0  0  1  0  0  0  0  0  0
  189.2820  178.1150  138.7790 C   0  0  0  0  0  2  0  0  0  0  0  0
  187.6210  176.5010  143.6110 S   0  0  0  0  0  0  0  0  0  0  0  0
  186.9620  178.1900  143.7980 C   0  0  0  0  0  2  0  0  0  0  0  0
  185.7050  178.1700  144.6550 C   0  0  2  0  0  3  0  0  0  0  0  0
  184.5360  178.3640  142.4240 C   0  0  0  0  0  3  0  0  0  0  0  0
  182.1340  179.0040  143.7020 C   0  0  0  0  0  3  0  0  0  0  0  0
  183.2830  178.7560  144.4580 C   0  0  0  0  0  3  0  0  0  0  0  0
  183.3870  178.6160  141.6680 C   0  0  0  0  0  3  0  0  0  0  0  0
  184.4880  178.4390  143.8240 C   0  0  0  0  0  0  0  0  0  0  0  0
  182.1800  178.9390  142.3020 C   0  0  0  0  0  0  0  0  0  0  0  0
  180.6170  178.3790  140.4570 O   0  0  0  0  0  0  0  0  0  0  0  0
  180.2430  180.2070  141.7800 O   0  0  0  0  0  1  0  0  0  0  0  0
  180.9700  179.2140  141.5110 C   0  0  0  0  0  0  0  0  0  0  0  0
  185.5130  178.8500  146.8320 O   0  0  0  0  0  0  0  0  0  0  0  0
  185.8080  179.1420  145.7140 N   0  0  0  0  0  0  0  0  0  0  0  0
  1 15  1  6  0  0  0
  1  4  1  0  0  0  0
  2  6  1  0  0  0  0
  3  4  2  0  0  0  0
  4  2  1  0  0  0  0
  6  5  1  0  0  0  0
  8 10  1  6  0  0  0
  8  9  1  0  0  0  0
  8  7  1  0  0  0  0
  9  7  1  0  0  0  0
  9  1  1  1  0  0  0
 11 10  1  0  0  0  0
 12 14  1  0  0  0  0
 12 11  1  0  0  0  0
 13 14  1  0  0  0  0
 15 16  1  0  0  0  0
 17 16  1  6  0  0  0
 17 28  1  0  0  0  0
 18 22  1  0  0  0  0
 19 20  1  0  0  0  0
 21 23  1  0  0  0  0
 21 18  2  0  0  0  0
 22 20  2  0  0  0  0
 22 17  1  0  0  0  0
 23 19  2  0  0  0  0
 24 26  2  0  0  0  0
 26 25  1  0  0  0  0
 26 23  1  0  0  0  0
 28 27  2  0  0  0  0
M  END
>  <MODEL>
8

>  <REMARK>
 VINA RESULT:      -6.3      3.165      6.558
  Name = 
  13 active torsions:
  status: ('A' for Active; 'I' for Inactive)
    1  A    between atoms: C_1  and  C_18
    2  A    between atoms: C_1  and  N_22
    3  A    between atoms: C_2  and  N_22
    4  A    between atoms: C_2  and  C_27
    5  A    between atoms: C_3  and  C_6
    6  A    between atoms: C_3  and  S_20
    7  A    between atoms: N_4  and  C_23
    8  A    between atoms: C_6  and  N_19
    9  A    between atoms: C_6  and  C_21
   10  A    between atoms: C_13  and  C_15
   11  A    between atoms: C_13  and  S_20
   12  A    between atoms: C_13  and  C_24
   13  A    between atoms: C_26  and  C_28
                            x       y       z     vdW  Elec       q    Type
                         _______ _______ _______ _____ _____    ______ ____

>  <TORSDO>
F 13

$$$$
=
 OpenBabel11062413333D

 28 29  0  0  1  0  0  0  0  0999 V2000
  190.2790  176.6660  142.8520 C   0  0  2  0  0  3  0  0  0  0  0  0
  190.8600  176.4530  145.2960 N   0  0  0  0  0  2  0  0  0  0  0  0
  191.6200  178.2650  144.0330 O   0  0  0  0  0  0  0  0  0  0  0  0
  190.9710  177.1830  144.0740 C   0  0  0  0  0  0  0  0  0  0  0  0
  192.2420  175.7390  147.1520 C   0  0  0  0  0  1  0  0  0  0  0  0
  191.5050  176.9010  146.5200 C   0  0  0  0  0  2  0  0  0  0  0  0
  191.5920  177.4230  140.8850 C   0  0  0  0  0  2  0  0  0  0  0  0
  190.2640  176.8940  140.3820 C   0  0  1  0  0  3  0  0  0  0  0  0
  190.3310  177.6540  141.6930 C   0  0  1  0  0  3  0  0  0  0  0  0
  189.7360  177.8190  139.3070 C   0  0  0  0  0  2  0  0  0  0  0  0
  188.7770  177.1050  138.4850 N   0  0  0  0  0  2  0  0  0  0  0  0
  187.7810  178.0760  138.0680 C   0  0  0  0  0  2  0  0  0  0  0  0
  185.3520  178.3310  138.5530 C   0  0  0  0  0  1  0  0  0  0  0  0
  186.7400  178.2540  139.1590 C   0  0  0  0  0  2  0  0  0  0  0  0
  188.5710  176.1220  143.2190 S   0  0  0  0  0  0  0  0  0  0  0  0
  187.9470  177.7730  143.6760 C   0  0  0  0  0  2  0  0  0  0  0  0
  186.8140  177.6450  144.6830 C   0  0  2  0  0  3  0  0  0  0  0  0
  185.3240  178.0410  142.6820 C   0  0  0  0  0  3  0  0  0  0  0  0
  183.2270  178.8200  144.3560 C   0  0  0  0  0  3  0  0  0  0  0  0
  184.4550  178.4400  144.9060 C   0  0  0  0  0  3  0  0  0  0  0  0
  184.0970  178.4240  142.1330 C   0  0  0  0  0  3  0  0  0  0  0  0
  185.5090  178.0540  144.0720 C   0  0  0  0  0  0  0  0  0  0  0  0
  183.0410  178.8170  142.9670 C   0  0  0  0  0  0  0  0  0  0  0  0
  180.8910  180.0470  143.1220 O   0  0  0  0  0  1  0  0  0  0  0  0
  181.4100  178.8500  141.2440 O   0  0  0  0  0  0  0  0  0  0  0  0
  181.7500  179.2300  142.3950 C   0  0  0  0  0  0  0  0  0  0  0  0
  187.2620  177.9280  146.9100 O   0  0  0  0  0  0  0  0  0  0  0  0
  187.0910  178.4460  145.8490 N   0  0  0  0  0  0  0  0  0  0  0  0
  1 15  1  1  0  0  0
  1  4  1  0  0  0  0
  2  6  1  0  0  0  0
  3  4  2  0  0  0  0
  4  2  1  0  0  0  0
  6  5  1  0  0  0  0
  7  9  1  0  0  0  0
  8 10  1  6  0  0  0
  8  7  1  0  0  0  0
  8  9  1  0  0  0  0
  9  1  1  1  0  0  0
 11 10  1  0  0  0  0
 12 11  1  0  0  0  0
 12 14  1  0  0  0  0
 13 14  1  0  0  0  0
 15 16  1  0  0  0  0
 17 16  1  6  0  0  0
 17 28  1  0  0  0  0
 18 22  1  0  0  0  0
 19 20  1  0  0  0  0
 21 18  2  0  0  0  0
 21 23  1  0  0  0  0
 22 17  1  0  0  0  0
 22 20  2  0  0  0  0
 23 19  2  0  0  0  0
 25 26  2  0  0  0  0
 26 23  1  0  0  0  0
 26 24  1  0  0  0  0
 28 27  2  0  0  0  0
M  END
>  <MODEL>
9

>  <REMARK>
 VINA RESULT:      -6.3      2.969      6.235
  Name = 
  13 active torsions:
  status: ('A' for Active; 'I' for Inactive)
    1  A    between atoms: C_1  and  C_18
    2  A    between atoms: C_1  and  N_22
    3  A    between atoms: C_2  and  N_22
    4  A    between atoms: C_2  and  C_27
    5  A    between atoms: C_3  and  C_6
    6  A    between atoms: C_3  and  S_20
    7  A    between atoms: N_4  and  C_23
    8  A    between atoms: C_6  and  N_19
    9  A    between atoms: C_6  and  C_21
   10  A    between atoms: C_13  and  C_15
   11  A    between atoms: C_13  and  S_20
   12  A    between atoms: C_13  and  C_24
   13  A    between atoms: C_26  and  C_28
                            x       y       z     vdW  Elec       q    Type
                         _______ _______ _______ _____ _____    ______ ____

>  <TORSDO>
F 13

$$$$
