=
 OpenBabel11062413263D

 30 32  0  0  1  0  0  0  0  0999 V2000
  184.8570  178.8940  145.1160 C   0  0  0  0  0  3  0  0  0  0  0  0
  188.5320  177.5840  146.4200 C   0  0  1  0  0  3  0  0  0  0  0  0
  189.2410  177.4460  147.6480 N   0  0  0  0  0  1  0  0  0  0  0  0
  188.0790  177.7900  144.1960 C   0  0  0  0  0  3  0  0  0  0  0  0
  189.1070  177.6560  145.2260 C   0  0  0  0  0  0  0  0  0  0  0  0
  186.9090  177.6950  144.8150 C   0  0  2  0  0  3  0  0  0  0  0  0
  185.3050  179.1650  146.5070 C   0  0  0  0  0  3  0  0  0  0  0  0
  185.6280  178.1830  144.2840 C   0  0  0  0  0  0  0  0  0  0  0  0
  186.3510  178.5640  147.0100 N   0  0  0  0  0  0  0  0  0  0  0  0
  187.0550  177.4970  146.2880 C   0  0  2  0  0  3  0  0  0  0  0  0
  185.2200  178.0030  142.8580 C   0  0  1  0  0  3  0  0  0  0  0  0
  183.8540  177.8110  142.7700 F   0  0  0  0  0  0  0  0  0  0  0  0
  185.6420  179.2040  142.0240 C   0  0  0  0  0  2  0  0  0  0  0  0
  186.3120  178.7570  140.7330 C   0  0  0  0  0  2  0  0  0  0  0  0
  185.2800  178.4370  139.6540 C   0  0  2  0  0  3  0  0  0  0  0  0
  185.3510  176.9880  137.3030 S   0  0  0  0  0  0  0  0  0  0  0  0
  185.9500  178.3960  138.2790 C   0  0  2  0  0  3  0  0  0  0  0  0
  186.8400  177.1760  136.3180 C   0  0  0  0  0  2  0  0  0  0  0  0
  187.4020  178.2930  138.4170 N   0  0  0  0  0  2  0  0  0  0  0  0
  187.9440  177.5490  137.2830 C   0  0  2  0  0  3  0  0  0  0  0  0
  188.9900  178.3810  136.5720 C   0  0  0  0  0  1  0  0  0  0  0  0
  184.1840  179.4940  139.6690 C   0  0  0  0  0  2  0  0  0  0  0  0
  182.8250  178.8270  139.5780 C   0  0  0  0  0  1  0  0  0  0  0  0
  190.5850  177.7230  144.9920 C   0  0  1  0  0  3  0  0  0  0  0  0
  191.2080  176.3340  145.0260 C   0  0  0  0  0  2  0  0  0  0  0  0
  191.9670  176.1250  146.3220 C   0  0  0  0  0  1  0  0  0  0  0  0
  190.8470  178.3480  143.7060 N   0  0  0  0  0  2  0  0  0  0  0  0
  191.6960  177.4370  142.9550 C   0  0  0  0  0  2  0  0  0  0  0  0
  191.3780  177.5320  141.4740 C   0  0  0  0  0  2  0  0  0  0  0  0
  190.0020  176.9570  141.1950 C   0  0  0  0  0  1  0  0  0  0  0  0
  1  7  1  0  0  0  0
  2  3  1  6  0  0  0
  4  5  2  0  0  0  0
  5  2  1  0  0  0  0
  6  4  1  1  0  0  0
  6 10  1  0  0  0  0
  7  9  2  0  0  0  0
  8  6  1  0  0  0  0
  8  1  2  0  0  0  0
 10  2  1  0  0  0  0
 10  9  1  1  0  0  0
 11 12  1  1  0  0  0
 11  8  1  0  0  0  0
 13 11  1  0  0  0  0
 14 13  1  0  0  0  0
 15 22  1  6  0  0  0
 15 14  1  0  0  0  0
 16 17  1  0  0  0  0
 17 19  1  0  0  0  0
 17 15  1  1  0  0  0
 18 20  1  0  0  0  0
 18 16  1  0  0  0  0
 20 21  1  6  0  0  0
 20 19  1  0  0  0  0
 23 22  1  0  0  0  0
 24 25  1  6  0  0  0
 24  5  1  0  0  0  0
 25 26  1  0  0  0  0
 27 24  1  0  0  0  0
 28 27  1  0  0  0  0
 29 28  1  0  0  0  0
 30 29  1  0  0  0  0
M  END
>  <MODEL>
1

>  <REMARK>
 VINA RESULT:      -7.5      0.000      0.000
  Name = 
  11 active torsions:
  status: ('A' for Active; 'I' for Inactive)
    1  A    between atoms: C_1  and  C_28
    2  A    between atoms: C_2  and  C_8
    3  A    between atoms: C_2  and  C_11
    4  A    between atoms: C_2  and  C_12
    5  A    between atoms: C_6  and  C_20
    6  A    between atoms: C_7  and  C_13
    7  A    between atoms: C_7  and  C_22
    8  A    between atoms: C_8  and  C_13
    9  A    between atoms: N_10  and  C_20
   10  A    between atoms: N_10  and  C_28
   11  A    between atoms: C_16  and  C_28
                            x       y       z     vdW  Elec       q    Type
                         _______ _______ _______ _____ _____    ______ ____

>  <TORSDO>
F 11

$$$$
=
 OpenBabel11062413263D

 30 32  0  0  1  0  0  0  0  0999 V2000
  187.0100  178.4450  147.7350 C   0  0  0  0  0  3  0  0  0  0  0  0
  190.6690  176.8750  146.6970 C   0  0  1  0  0  3  0  0  0  0  0  0
  191.9410  176.6490  147.2960 N   0  0  0  0  0  1  0  0  0  0  0  0
  189.0390  177.1940  145.1350 C   0  0  0  0  0  3  0  0  0  0  0  0
  190.4600  176.9600  145.3890 C   0  0  0  0  0  0  0  0  0  0  0  0
  188.4320  177.1430  146.3130 C   0  0  2  0  0  3  0  0  0  0  0  0
  188.1920  178.6350  148.6170 C   0  0  0  0  0  3  0  0  0  0  0  0
  187.1140  177.7240  146.6130 C   0  0  0  0  0  0  0  0  0  0  0  0
  189.2920  177.9550  148.4300 N   0  0  0  0  0  0  0  0  0  0  0  0
  189.3800  176.8790  147.4360 C   0  0  2  0  0  3  0  0  0  0  0  0
  185.9530  177.6230  145.6780 C   0  0  1  0  0  3  0  0  0  0  0  0
  184.7710  177.8580  146.3560 F   0  0  0  0  0  0  0  0  0  0  0  0
  186.1060  178.6030  144.5240 C   0  0  0  0  0  2  0  0  0  0  0  0
  185.7060  177.9550  143.2070 C   0  0  0  0  0  2  0  0  0  0  0  0
  184.8360  178.8900  142.3710 C   0  0  2  0  0  3  0  0  0  0  0  0
  182.5920  178.6880  140.7720 S   0  0  0  0  0  0  0  0  0  0  0  0
  183.3830  178.4090  142.3810 C   0  0  2  0  0  3  0  0  0  0  0  0
  181.0260  178.5610  141.6410 C   0  0  0  0  0  2  0  0  0  0  0  0
  182.6180  179.1070  143.4130 N   0  0  0  0  0  2  0  0  0  0  0  0
  181.2280  179.2340  142.9810 C   0  0  2  0  0  3  0  0  0  0  0  0
  180.3080  178.6130  144.0120 C   0  0  0  0  0  1  0  0  0  0  0  0
  185.3620  178.9310  140.9420 C   0  0  0  0  0  2  0  0  0  0  0  0
  186.8570  178.6820  140.9370 C   0  0  0  0  0  1  0  0  0  0  0  0
  191.5380  176.9510  144.3490 C   0  0  1  0  0  3  0  0  0  0  0  0
  191.6210  175.5960  143.6600 C   0  0  0  0  0  2  0  0  0  0  0  0
  192.2730  174.5750  144.5730 C   0  0  0  0  0  1  0  0  0  0  0  0
  191.2760  177.9880  143.3650 N   0  0  0  0  0  2  0  0  0  0  0  0
  191.5460  177.4120  142.0580 C   0  0  0  0  0  2  0  0  0  0  0  0
  190.3390  177.5860  141.1540 C   0  0  0  0  0  2  0  0  0  0  0  0
  190.7030  177.2520  139.7200 C   0  0  0  0  0  1  0  0  0  0  0  0
  1  7  1  0  0  0  0
  2  3  1  6  0  0  0
  2 10  1  0  0  0  0
  4  5  2  0  0  0  0
  5  2  1  0  0  0  0
  6  4  1  6  0  0  0
  6  8  1  0  0  0  0
  6 10  1  0  0  0  0
  8  1  2  0  0  0  0
  9  7  2  0  0  0  0
 10  9  1  1  0  0  0
 11 12  1  1  0  0  0
 11  8  1  0  0  0  0
 13 11  1  0  0  0  0
 14 13  1  0  0  0  0
 15 22  1  6  0  0  0
 15 14  1  0  0  0  0
 16 18  1  0  0  0  0
 16 17  1  0  0  0  0
 17 15  1  6  0  0  0
 17 19  1  0  0  0  0
 18 20  1  0  0  0  0
 20 19  1  0  0  0  0
 20 21  1  1  0  0  0
 23 22  1  0  0  0  0
 24 25  1  6  0  0  0
 24  5  1  0  0  0  0
 25 26  1  0  0  0  0
 27 24  1  0  0  0  0
 28 27  1  0  0  0  0
 29 28  1  0  0  0  0
 30 29  1  0  0  0  0
M  END
>  <MODEL>
2

>  <REMARK>
 VINA RESULT:      -7.5      2.434      4.179
  Name = 
  11 active torsions:
  status: ('A' for Active; 'I' for Inactive)
    1  A    between atoms: C_1  and  C_28
    2  A    between atoms: C_2  and  C_8
    3  A    between atoms: C_2  and  C_11
    4  A    between atoms: C_2  and  C_12
    5  A    between atoms: C_6  and  C_20
    6  A    between atoms: C_7  and  C_13
    7  A    between atoms: C_7  and  C_22
    8  A    between atoms: C_8  and  C_13
    9  A    between atoms: N_10  and  C_20
   10  A    between atoms: N_10  and  C_28
   11  A    between atoms: C_16  and  C_28
                            x       y       z     vdW  Elec       q    Type
                         _______ _______ _______ _____ _____    ______ ____

>  <TORSDO>
F 11

$$$$
=
 OpenBabel11062413263D

 30 32  0  0  1  0  0  0  0  0999 V2000
  186.9870  178.4810  147.9810 C   0  0  0  0  0  3  0  0  0  0  0  0
  190.3180  177.1780  145.9480 C   0  0  1  0  0  3  0  0  0  0  0  0
  191.6860  176.8850  146.2180 N   0  0  0  0  0  1  0  0  0  0  0  0
  188.3980  177.7100  144.8410 C   0  0  0  0  0  3  0  0  0  0  0  0
  189.8370  177.4680  144.7460 C   0  0  0  0  0  0  0  0  0  0  0  0
  188.0550  177.4560  146.0970 C   0  0  2  0  0  3  0  0  0  0  0  0
  188.3320  178.5510  148.6100 C   0  0  0  0  0  3  0  0  0  0  0  0
  186.8400  177.9530  146.7600 C   0  0  0  0  0  0  0  0  0  0  0  0
  189.3580  177.9340  148.0860 N   0  0  0  0  0  0  0  0  0  0  0  0
  189.2170  177.0350  146.9340 C   0  0  2  0  0  3  0  0  0  0  0  0
  185.5040  177.9800  146.0910 C   0  0  1  0  0  3  0  0  0  0  0  0
  184.4960  177.8330  147.0260 F   0  0  0  0  0  0  0  0  0  0  0  0
  185.3210  179.2740  145.3110 C   0  0  0  0  0  2  0  0  0  0  0  0
  185.3830  179.0160  143.8130 C   0  0  0  0  0  2  0  0  0  0  0  0
  184.0810  178.4070  143.3000 C   0  0  2  0  0  3  0  0  0  0  0  0
  185.6610  178.9240  141.0940 S   0  0  0  0  0  0  0  0  0  0  0  0
  184.1720  178.1580  141.7930 C   0  0  2  0  0  3  0  0  0  0  0  0
  184.8330  178.8280  139.5030 C   0  0  0  0  0  2  0  0  0  0  0  0
  182.9970  178.6980  141.1110 N   0  0  0  0  0  2  0  0  0  0  0  0
  183.3740  179.1280  139.7660 C   0  0  2  0  0  3  0  0  0  0  0  0
  182.5110  178.4240  138.7390 C   0  0  0  0  0  1  0  0  0  0  0  0
  182.9240  179.3490  143.6040 C   0  0  0  0  0  2  0  0  0  0  0  0
  181.7880  178.5790  144.2480 C   0  0  0  0  0  1  0  0  0  0  0  0
  190.6670  177.6500  143.5130 C   0  0  1  0  0  3  0  0  0  0  0  0
  191.3750  176.3560  143.1350 C   0  0  0  0  0  2  0  0  0  0  0  0
  190.4020  175.1930  143.1590 C   0  0  0  0  0  1  0  0  0  0  0  0
  189.8220  178.0870  142.4150 N   0  0  0  0  0  2  0  0  0  0  0  0
  190.5080  177.7320  141.1830 C   0  0  0  0  0  2  0  0  0  0  0  0
  189.5010  177.2930  140.1360 C   0  0  0  0  0  2  0  0  0  0  0  0
  189.1360  178.4590  139.2360 C   0  0  0  0  0  1  0  0  0  0  0  0
  1  7  1  0  0  0  0
  2  3  1  6  0  0  0
  2 10  1  0  0  0  0
  5  4  2  0  0  0  0
  5  2  1  0  0  0  0
  6  4  1  6  0  0  0
  6  8  1  0  0  0  0
  6 10  1  0  0  0  0
  8  1  2  0  0  0  0
  9  7  2  0  0  0  0
 10  9  1  1  0  0  0
 11  8  1  0  0  0  0
 11 12  1  1  0  0  0
 13 11  1  0  0  0  0
 14 13  1  0  0  0  0
 15 22  1  6  0  0  0
 15 14  1  0  0  0  0
 16 17  1  0  0  0  0
 17 15  1  1  0  0  0
 18 20  1  0  0  0  0
 18 16  1  0  0  0  0
 19 17  1  0  0  0  0
 20 21  1  6  0  0  0
 20 19  1  0  0  0  0
 22 23  1  0  0  0  0
 24 25  1  6  0  0  0
 24  5  1  0  0  0  0
 25 26  1  0  0  0  0
 27 24  1  0  0  0  0
 28 27  1  0  0  0  0
 29 28  1  0  0  0  0
 30 29  1  0  0  0  0
M  END
>  <MODEL>
3

>  <REMARK>
 VINA RESULT:      -7.3      2.092      3.485
  Name = 
  11 active torsions:
  status: ('A' for Active; 'I' for Inactive)
    1  A    between atoms: C_1  and  C_28
    2  A    between atoms: C_2  and  C_8
    3  A    between atoms: C_2  and  C_11
    4  A    between atoms: C_2  and  C_12
    5  A    between atoms: C_6  and  C_20
    6  A    between atoms: C_7  and  C_13
    7  A    between atoms: C_7  and  C_22
    8  A    between atoms: C_8  and  C_13
    9  A    between atoms: N_10  and  C_20
   10  A    between atoms: N_10  and  C_28
   11  A    between atoms: C_16  and  C_28
                            x       y       z     vdW  Elec       q    Type
                         _______ _______ _______ _____ _____    ______ ____

>  <TORSDO>
F 11

$$$$
=
 OpenBabel11062413263D

 30 32  0  0  1  0  0  0  0  0999 V2000
  188.0700  177.8980  141.8570 C   0  0  0  0  0  3  0  0  0  0  0  0
  189.6430  177.7140  138.0600 C   0  0  0  0  0  0  0  0  0  0  0  0
  189.3550  178.2210  136.7610 N   0  0  0  0  0  1  0  0  0  0  0  0
  190.4720  176.4160  139.7410 C   0  0  0  0  0  2  0  0  0  0  0  0
  190.3870  176.6420  138.2990 C   0  0  0  0  0  0  0  0  0  0  0  0
  189.8470  177.4340  140.3190 C   0  0  2  0  0  3  0  0  0  0  0  0
  187.2880  178.3870  140.6910 C   0  0  0  0  0  3  0  0  0  0  0  0
  189.3130  177.4320  141.6890 C   0  0  0  0  0  0  0  0  0  0  0  0
  187.8490  178.5560  139.5230 N   0  0  0  0  0  0  0  0  0  0  0  0
  189.2970  178.4060  139.3280 C   0  0  2  0  0  3  0  0  0  0  0  0
  190.0540  176.8460  142.8470 C   0  0  1  0  0  3  0  0  0  0  0  0
  190.4480  175.5520  142.5590 F   0  0  0  0  0  0  0  0  0  0  0  0
  191.2620  177.7020  143.2000 C   0  0  0  0  0  2  0  0  0  0  0  0
  191.1330  178.2650  144.6070 C   0  0  0  0  0  2  0  0  0  0  0  0
  190.3580  177.3140  145.5160 C   0  0  2  0  0  3  0  0  0  0  0  0
  189.0680  177.7760  147.9150 S   0  0  0  0  0  0  0  0  0  0  0  0
  189.1480  178.0310  146.1210 C   0  0  2  0  0  3  0  0  0  0  0  0
  187.3340  178.2240  147.7930 C   0  0  0  0  0  2  0  0  0  0  0  0
  187.9080  177.5450  145.5170 N   0  0  0  0  0  2  0  0  0  0  0  0
  186.8300  177.6220  146.5000 C   0  0  2  0  0  3  0  0  0  0  0  0
  185.6920  178.4590  145.9520 C   0  0  0  0  0  1  0  0  0  0  0  0
  191.2720  176.8090  146.6240 C   0  0  0  0  0  2  0  0  0  0  0  0
  192.0460  175.5980  146.1410 C   0  0  0  0  0  1  0  0  0  0  0  0
  190.9370  175.7320  137.2440 C   0  0  1  0  0  3  0  0  0  0  0  0
  192.3950  176.0560  136.9490 C   0  0  0  0  0  2  0  0  0  0  0  0
  193.3100  175.0620  137.6380 C   0  0  0  0  0  1  0  0  0  0  0  0
  190.8200  174.3510  137.6820 N   0  0  0  0  0  2  0  0  0  0  0  0
  190.1040  173.6330  136.6390 C   0  0  0  0  0  2  0  0  0  0  0  0
  188.6070  173.7510  136.8630 C   0  0  0  0  0  2  0  0  0  0  0  0
  187.9560  172.3820  136.7980 C   0  0  0  0  0  1  0  0  0  0  0  0
  2  5  2  0  0  0  0
  3  2  1  0  0  0  0
  5  4  1  0  0  0  0
  6  4  1  6  0  0  0
  6  8  1  0  0  0  0
  7  1  1  0  0  0  0
  8  1  2  0  0  0  0
  8 11  1  0  0  0  0
  9  7  2  0  0  0  0
 10  2  1  6  0  0  0
 10  9  1  0  0  0  0
 10  6  1  0  0  0  0
 11 12  1  6  0  0  0
 11 13  1  0  0  0  0
 13 14  1  0  0  0  0
 15 14  1  6  0  0  0
 15 22  1  0  0  0  0
 17 15  1  6  0  0  0
 17 16  1  0  0  0  0
 18 16  1  0  0  0  0
 19 17  1  0  0  0  0
 19 20  1  0  0  0  0
 20 21  1  6  0  0  0
 20 18  1  0  0  0  0
 23 22  1  0  0  0  0
 24 25  1  1  0  0  0
 24 27  1  0  0  0  0
 24  5  1  0  0  0  0
 25 26  1  0  0  0  0
 28 29  1  0  0  0  0
 28 27  1  0  0  0  0
 30 29  1  0  0  0  0
M  END
>  <MODEL>
4

>  <REMARK>
 VINA RESULT:      -7.2      3.503      7.996
  Name = 
  11 active torsions:
  status: ('A' for Active; 'I' for Inactive)
    1  A    between atoms: C_1  and  C_28
    2  A    between atoms: C_2  and  C_8
    3  A    between atoms: C_2  and  C_11
    4  A    between atoms: C_2  and  C_12
    5  A    between atoms: C_6  and  C_20
    6  A    between atoms: C_7  and  C_13
    7  A    between atoms: C_7  and  C_22
    8  A    between atoms: C_8  and  C_13
    9  A    between atoms: N_10  and  C_20
   10  A    between atoms: N_10  and  C_28
   11  A    between atoms: C_16  and  C_28
                            x       y       z     vdW  Elec       q    Type
                         _______ _______ _______ _____ _____    ______ ____

>  <TORSDO>
F 11

$$$$
=
 OpenBabel11062413263D

 30 32  0  0  1  0  0  0  0  0999 V2000
  185.9800  178.0490  145.8310 C   0  0  0  0  0  3  0  0  0  0  0  0
  183.0440  179.2080  143.1920 C   0  0  1  0  0  3  0  0  0  0  0  0
  181.7150  179.7170  143.2330 N   0  0  0  0  0  1  0  0  0  0  0  0
  184.9540  178.2010  142.4600 C   0  0  0  0  0  3  0  0  0  0  0  0
  183.5760  178.5810  142.1510 C   0  0  0  0  0  0  0  0  0  0  0  0
  185.2260  178.7080  143.6550 C   0  0  2  0  0  3  0  0  0  0  0  0
  184.5920  178.2920  146.3040 C   0  0  0  0  0  3  0  0  0  0  0  0
  186.3000  178.2460  144.5470 C   0  0  0  0  0  0  0  0  0  0  0  0
  183.7100  178.8820  145.5410 N   0  0  0  0  0  0  0  0  0  0  0  0
  184.0710  179.4530  144.2380 C   0  0  2  0  0  3  0  0  0  0  0  0
  187.6680  177.9000  144.0560 C   0  0  1  0  0  3  0  0  0  0  0  0
  188.6110  178.1760  145.0300 F   0  0  0  0  0  0  0  0  0  0  0  0
  187.7380  176.4350  143.6490 C   0  0  0  0  0  2  0  0  0  0  0  0
  189.0740  176.1190  142.9930 C   0  0  0  0  0  2  0  0  0  0  0  0
  189.5940  177.3110  142.1920 C   0  0  2  0  0  3  0  0  0  0  0  0
  190.9040  177.0510  139.7740 S   0  0  0  0  0  0  0  0  0  0  0  0
  189.3430  177.0920  140.6980 C   0  0  2  0  0  3  0  0  0  0  0  0
  189.9240  177.4190  138.3140 C   0  0  0  0  0  2  0  0  0  0  0  0
  188.5000  178.1570  140.1580 N   0  0  0  0  0  2  0  0  0  0  0  0
  188.8490  178.3860  138.7570 C   0  0  2  0  0  3  0  0  0  0  0  0
  187.6210  178.2240  137.8860 C   0  0  0  0  0  1  0  0  0  0  0  0
  191.0840  177.4870  142.4510 C   0  0  0  0  0  2  0  0  0  0  0  0
  191.5180  176.5870  143.5920 C   0  0  0  0  0  1  0  0  0  0  0  0
  182.8310  178.2070  140.9070 C   0  0  1  0  0  3  0  0  0  0  0  0
  182.7980  179.3650  139.9190 C   0  0  0  0  0  2  0  0  0  0  0  0
  184.1030  179.4430  139.1490 C   0  0  0  0  0  1  0  0  0  0  0  0
  183.4620  177.0520  140.2890 N   0  0  0  0  0  2  0  0  0  0  0  0
  182.3960  176.2310  139.7360 C   0  0  0  0  0  2  0  0  0  0  0  0
  182.8230  175.6610  138.3950 C   0  0  0  0  0  2  0  0  0  0  0  0
  182.4750  176.6280  137.2780 C   0  0  0  0  0  1  0  0  0  0  0  0
  1  7  1  0  0  0  0
  2  3  1  6  0  0  0
  2 10  1  0  0  0  0
  5  4  2  0  0  0  0
  5  2  1  0  0  0  0
  6  4  1  1  0  0  0
  6 10  1  0  0  0  0
  6  8  1  0  0  0  0
  8  1  2  0  0  0  0
  9  7  2  0  0  0  0
 10  9  1  1  0  0  0
 11  8  1  0  0  0  0
 11 12  1  1  0  0  0
 13 11  1  0  0  0  0
 14 13  1  0  0  0  0
 15 22  1  6  0  0  0
 15 14  1  0  0  0  0
 16 17  1  0  0  0  0
 17 15  1  1  0  0  0
 18 20  1  0  0  0  0
 18 16  1  0  0  0  0
 19 17  1  0  0  0  0
 20 21  1  6  0  0  0
 20 19  1  0  0  0  0
 22 23  1  0  0  0  0
 24 25  1  6  0  0  0
 24  5  1  0  0  0  0
 26 25  1  0  0  0  0
 27 24  1  0  0  0  0
 28 27  1  0  0  0  0
 29 28  1  0  0  0  0
 30 29  1  0  0  0  0
M  END
>  <MODEL>
5

>  <REMARK>
 VINA RESULT:      -7.2      2.608      6.269
  Name = 
  11 active torsions:
  status: ('A' for Active; 'I' for Inactive)
    1  A    between atoms: C_1  and  C_28
    2  A    between atoms: C_2  and  C_8
    3  A    between atoms: C_2  and  C_11
    4  A    between atoms: C_2  and  C_12
    5  A    between atoms: C_6  and  C_20
    6  A    between atoms: C_7  and  C_13
    7  A    between atoms: C_7  and  C_22
    8  A    between atoms: C_8  and  C_13
    9  A    between atoms: N_10  and  C_20
   10  A    between atoms: N_10  and  C_28
   11  A    between atoms: C_16  and  C_28
                            x       y       z     vdW  Elec       q    Type
                         _______ _______ _______ _____ _____    ______ ____

>  <TORSDO>
F 11

$$$$
=
 OpenBabel11062413263D

 30 32  0  0  1  0  0  0  0  0999 V2000
  185.1300  178.9480  146.2320 C   0  0  0  0  0  3  0  0  0  0  0  0
  188.8380  177.2330  145.7460 C   0  0  1  0  0  3  0  0  0  0  0  0
  189.9870  176.9360  146.5330 N   0  0  0  0  0  1  0  0  0  0  0  0
  187.4950  177.6590  143.9540 C   0  0  0  0  0  3  0  0  0  0  0  0
  188.8450  177.3550  144.4240 C   0  0  0  0  0  0  0  0  0  0  0  0
  186.7050  177.6110  145.0190 C   0  0  2  0  0  3  0  0  0  0  0  0
  186.1620  179.0650  147.2950 C   0  0  0  0  0  3  0  0  0  0  0  0
  185.3820  178.2460  145.1210 C   0  0  0  0  0  0  0  0  0  0  0  0
  187.2480  178.3400  147.2680 N   0  0  0  0  0  0  0  0  0  0  0  0
  187.4490  177.2810  146.2700 C   0  0  2  0  0  3  0  0  0  0  0  0
  184.3820  178.2180  144.0110 C   0  0  1  0  0  3  0  0  0  0  0  0
  183.0990  178.2990  144.5200 F   0  0  0  0  0  0  0  0  0  0  0  0
  184.6360  179.3540  143.0310 C   0  0  0  0  0  2  0  0  0  0  0  0
  184.7170  178.8300  141.6050 C   0  0  0  0  0  2  0  0  0  0  0  0
  183.4130  178.1550  141.1870 C   0  0  2  0  0  3  0  0  0  0  0  0
  182.9940  178.7330  138.5180 S   0  0  0  0  0  0  0  0  0  0  0  0
  183.5530  177.5590  139.7850 C   0  0  2  0  0  3  0  0  0  0  0  0
  182.8230  177.3130  137.4320 C   0  0  0  0  0  2  0  0  0  0  0  0
  182.7710  176.3290  139.6690 N   0  0  0  0  0  2  0  0  0  0  0  0
  182.3050  176.1810  138.2920 C   0  0  2  0  0  3  0  0  0  0  0  0
  182.7700  174.8540  137.7290 C   0  0  0  0  0  1  0  0  0  0  0  0
  182.2820  179.1740  141.2110 C   0  0  0  0  0  2  0  0  0  0  0  0
  181.0690  178.5810  141.9010 C   0  0  0  0  0  1  0  0  0  0  0  0
  190.0740  177.3170  143.5690 C   0  0  1  0  0  3  0  0  0  0  0  0
  190.4500  175.8850  143.2150 C   0  0  0  0  0  2  0  0  0  0  0  0
  191.7400  175.4880  143.9080 C   0  0  0  0  0  1  0  0  0  0  0  0
  189.8470  178.0810  142.3540 N   0  0  0  0  0  2  0  0  0  0  0  0
  190.2250  177.2280  141.2380 C   0  0  0  0  0  2  0  0  0  0  0  0
  189.4540  177.6290  139.9930 C   0  0  0  0  0  2  0  0  0  0  0  0
  188.1750  178.3480  140.3760 C   0  0  0  0  0  1  0  0  0  0  0  0
  1  7  1  0  0  0  0
  2 10  1  0  0  0  0
  2  3  1  6  0  0  0
  4  5  2  0  0  0  0
  5  2  1  0  0  0  0
  6  4  1  6  0  0  0
  6  8  1  0  0  0  0
  6 10  1  0  0  0  0
  8  1  2  0  0  0  0
  9  7  2  0  0  0  0
 10  9  1  1  0  0  0
 11 12  1  1  0  0  0
 11  8  1  0  0  0  0
 13 11  1  0  0  0  0
 14 13  1  0  0  0  0
 15 22  1  6  0  0  0
 15 14  1  0  0  0  0
 16 17  1  0  0  0  0
 17 15  1  1  0  0  0
 18 20  1  0  0  0  0
 18 16  1  0  0  0  0
 19 17  1  0  0  0  0
 20 21  1  6  0  0  0
 20 19  1  0  0  0  0
 22 23  1  0  0  0  0
 24 25  1  6  0  0  0
 24  5  1  0  0  0  0
 25 26  1  0  0  0  0
 27 24  1  0  0  0  0
 28 27  1  0  0  0  0
 29 30  1  0  0  0  0
 29 28  1  0  0  0  0
M  END
>  <MODEL>
6

>  <REMARK>
 VINA RESULT:      -7.1      2.044      2.729
  Name = 
  11 active torsions:
  status: ('A' for Active; 'I' for Inactive)
    1  A    between atoms: C_1  and  C_28
    2  A    between atoms: C_2  and  C_8
    3  A    between atoms: C_2  and  C_11
    4  A    between atoms: C_2  and  C_12
    5  A    between atoms: C_6  and  C_20
    6  A    between atoms: C_7  and  C_13
    7  A    between atoms: C_7  and  C_22
    8  A    between atoms: C_8  and  C_13
    9  A    between atoms: N_10  and  C_20
   10  A    between atoms: N_10  and  C_28
   11  A    between atoms: C_16  and  C_28
                            x       y       z     vdW  Elec       q    Type
                         _______ _______ _______ _____ _____    ______ ____

>  <TORSDO>
F 11

$$$$
=
 OpenBabel11062413263D

 30 32  0  0  1  0  0  0  0  0999 V2000
  185.2470  178.9420  145.9100 C   0  0  0  0  0  3  0  0  0  0  0  0
  188.9450  177.1430  145.7870 C   0  0  0  0  0  0  0  0  0  0  0  0
  190.0000  176.8110  146.6840 N   0  0  0  0  0  1  0  0  0  0  0  0
  187.8040  177.6180  143.8720 C   0  0  0  0  0  2  0  0  0  0  0  0
  189.0910  177.2770  144.4750 C   0  0  0  0  0  0  0  0  0  0  0  0
  186.9070  177.5790  144.8490 C   0  0  2  0  0  3  0  0  0  0  0  0
  186.1660  179.0240  147.0760 C   0  0  0  0  0  3  0  0  0  0  0  0
  185.5960  178.2450  144.8230 C   0  0  0  0  0  0  0  0  0  0  0  0
  187.2330  178.2730  147.1510 N   0  0  0  0  0  0  0  0  0  0  0  0
  187.5110  177.2190  146.1660 C   0  0  2  0  0  3  0  0  0  0  0  0
  184.7150  178.2520  143.6160 C   0  0  1  0  0  3  0  0  0  0  0  0
  183.4010  178.4790  143.9830 F   0  0  0  0  0  0  0  0  0  0  0  0
  185.1780  179.3050  142.6200 C   0  0  0  0  0  2  0  0  0  0  0  0
  185.4360  178.6830  141.2560 C   0  0  0  0  0  2  0  0  0  0  0  0
  184.3060  178.9990  140.2790 C   0  0  2  0  0  3  0  0  0  0  0  0
  182.6050  177.2290  139.0130 S   0  0  0  0  0  0  0  0  0  0  0  0
  183.1130  178.0760  140.5350 C   0  0  2  0  0  3  0  0  0  0  0  0
  181.0240  176.9550  139.8200 C   0  0  0  0  0  2  0  0  0  0  0  0
  181.9780  178.8360  141.0550 N   0  0  0  0  0  2  0  0  0  0  0  0
  180.7330  178.2070  140.6190 C   0  0  2  0  0  3  0  0  0  0  0  0
  179.8790  177.8630  141.8210 C   0  0  0  0  0  1  0  0  0  0  0  0
  184.8040  178.8250  138.8510 C   0  0  0  0  0  2  0  0  0  0  0  0
  186.2090  178.2530  138.8620 C   0  0  0  0  0  1  0  0  0  0  0  0
  190.4000  177.2180  143.7500 C   0  0  1  0  0  3  0  0  0  0  0  0
  190.7200  175.7950  143.3130 C   0  0  0  0  0  2  0  0  0  0  0  0
  191.9180  175.2630  144.0760 C   0  0  0  0  0  1  0  0  0  0  0  0
  190.3550  178.0910  142.5890 N   0  0  0  0  0  2  0  0  0  0  0  0
  190.6840  177.2750  141.4300 C   0  0  0  0  0  2  0  0  0  0  0  0
  189.6960  177.5430  140.3090 C   0  0  0  0  0  2  0  0  0  0  0  0
  190.0710  176.7440  139.0760 C   0  0  0  0  0  1  0  0  0  0  0  0
  1  7  1  0  0  0  0
  2  3  1  0  0  0  0
  4  5  1  0  0  0  0
  5  2  2  0  0  0  0
  6  4  1  1  0  0  0
  6 10  1  0  0  0  0
  7  9  2  0  0  0  0
  8  6  1  0  0  0  0
  8  1  2  0  0  0  0
 10  2  1  6  0  0  0
 10  9  1  0  0  0  0
 11 12  1  1  0  0  0
 11  8  1  0  0  0  0
 13 11  1  0  0  0  0
 14 13  1  0  0  0  0
 15 22  1  6  0  0  0
 15 14  1  0  0  0  0
 16 18  1  0  0  0  0
 16 17  1  0  0  0  0
 17 15  1  6  0  0  0
 17 19  1  0  0  0  0
 18 20  1  0  0  0  0
 20 19  1  0  0  0  0
 20 21  1  1  0  0  0
 22 23  1  0  0  0  0
 24 25  1  6  0  0  0
 24  5  1  0  0  0  0
 25 26  1  0  0  0  0
 27 24  1  0  0  0  0
 28 27  1  0  0  0  0
 29 28  1  0  0  0  0
 30 29  1  0  0  0  0
M  END
>  <MODEL>
7

>  <REMARK>
 VINA RESULT:      -7.0      1.869      3.330
  Name = 
  11 active torsions:
  status: ('A' for Active; 'I' for Inactive)
    1  A    between atoms: C_1  and  C_28
    2  A    between atoms: C_2  and  C_8
    3  A    between atoms: C_2  and  C_11
    4  A    between atoms: C_2  and  C_12
    5  A    between atoms: C_6  and  C_20
    6  A    between atoms: C_7  and  C_13
    7  A    between atoms: C_7  and  C_22
    8  A    between atoms: C_8  and  C_13
    9  A    between atoms: N_10  and  C_20
   10  A    between atoms: N_10  and  C_28
   11  A    between atoms: C_16  and  C_28
                            x       y       z     vdW  Elec       q    Type
                         _______ _______ _______ _____ _____    ______ ____

>  <TORSDO>
F 11

$$$$
=
 OpenBabel11062413263D

 30 32  0  0  1  0  0  0  0  0999 V2000
  184.8170  179.1780  145.1910 C   0  0  0  0  0  3  0  0  0  0  0  0
  188.2830  177.1870  146.1670 C   0  0  0  0  0  0  0  0  0  0  0  0
  189.0700  176.9210  147.3240 N   0  0  0  0  0  1  0  0  0  0  0  0
  187.6580  177.4640  143.9920 C   0  0  0  0  0  2  0  0  0  0  0  0
  188.7390  177.1390  144.9220 C   0  0  0  0  0  0  0  0  0  0  0  0
  186.5600  177.6020  144.7240 C   0  0  2  0  0  3  0  0  0  0  0  0
  185.4460  179.3650  146.5250 C   0  0  0  0  0  3  0  0  0  0  0  0
  185.3500  178.3260  144.3070 C   0  0  0  0  0  0  0  0  0  0  0  0
  186.4010  178.5750  146.9400 N   0  0  0  0  0  0  0  0  0  0  0  0
  186.8110  177.3880  146.1800 C   0  0  2  0  0  3  0  0  0  0  0  0
  184.7750  178.2200  142.9320 C   0  0  1  0  0  3  0  0  0  0  0  0
  183.3940  178.1890  142.9900 F   0  0  0  0  0  0  0  0  0  0  0  0
  185.2430  179.3790  142.0640 C   0  0  0  0  0  2  0  0  0  0  0  0
  186.0500  178.8750  140.8770 C   0  0  0  0  0  2  0  0  0  0  0  0
  185.1400  178.4600  139.7240 C   0  0  2  0  0  3  0  0  0  0  0  0
  185.3350  177.2240  137.2600 S   0  0  0  0  0  0  0  0  0  0  0  0
  185.9070  178.5150  138.4010 C   0  0  2  0  0  3  0  0  0  0  0  0
  186.8980  177.4400  136.4030 C   0  0  0  0  0  2  0  0  0  0  0  0
  187.3410  178.3430  138.6300 N   0  0  0  0  0  2  0  0  0  0  0  0
  187.9390  177.6810  137.4720 C   0  0  2  0  0  3  0  0  0  0  0  0
  189.0610  178.5330  136.9150 C   0  0  0  0  0  1  0  0  0  0  0  0
  183.9350  179.3880  139.6670 C   0  0  0  0  0  2  0  0  0  0  0  0
  182.6560  178.5730  139.6810 C   0  0  0  0  0  1  0  0  0  0  0  0
  190.1710  176.9160  144.5440 C   0  0  1  0  0  3  0  0  0  0  0  0
  190.5940  177.8580  143.4250 C   0  0  0  0  0  2  0  0  0  0  0  0
  190.9610  179.2180  143.9880 C   0  0  0  0  0  1  0  0  0  0  0  0
  191.0200  177.1200  145.7060 N   0  0  0  0  0  2  0  0  0  0  0  0
  192.0550  176.1000  145.6610 C   0  0  0  0  0  2  0  0  0  0  0  0
  192.0010  175.2500  146.9170 C   0  0  0  0  0  2  0  0  0  0  0  0
  192.5910  176.0100  148.0910 C   0  0  0  0  0  1  0  0  0  0  0  0
  1  7  1  0  0  0  0
  2  3  1  0  0  0  0
  4  5  1  0  0  0  0
  5  2  2  0  0  0  0
  6  4  1  1  0  0  0
  6 10  1  0  0  0  0
  7  9  2  0  0  0  0
  8  6  1  0  0  0  0
  8  1  2  0  0  0  0
 10  2  1  6  0  0  0
 10  9  1  0  0  0  0
 11 12  1  1  0  0  0
 11  8  1  0  0  0  0
 13 11  1  0  0  0  0
 14 13  1  0  0  0  0
 15 22  1  6  0  0  0
 15 14  1  0  0  0  0
 16 17  1  0  0  0  0
 17 19  1  0  0  0  0
 17 15  1  1  0  0  0
 18 16  1  0  0  0  0
 18 20  1  0  0  0  0
 20 21  1  6  0  0  0
 20 19  1  0  0  0  0
 22 23  1  0  0  0  0
 24 25  1  6  0  0  0
 24  5  1  0  0  0  0
 24 27  1  0  0  0  0
 25 26  1  0  0  0  0
 28 27  1  0  0  0  0
 28 29  1  0  0  0  0
 29 30  1  0  0  0  0
M  END
>  <MODEL>
8

>  <REMARK>
 VINA RESULT:      -6.9      0.895      2.090
  Name = 
  11 active torsions:
  status: ('A' for Active; 'I' for Inactive)
    1  A    between atoms: C_1  and  C_28
    2  A    between atoms: C_2  and  C_8
    3  A    between atoms: C_2  and  C_11
    4  A    between atoms: C_2  and  C_12
    5  A    between atoms: C_6  and  C_20
    6  A    between atoms: C_7  and  C_13
    7  A    between atoms: C_7  and  C_22
    8  A    between atoms: C_8  and  C_13
    9  A    between atoms: N_10  and  C_20
   10  A    between atoms: N_10  and  C_28
   11  A    between atoms: C_16  and  C_28
                            x       y       z     vdW  Elec       q    Type
                         _______ _______ _______ _____ _____    ______ ____

>  <TORSDO>
F 11

$$$$
=
 OpenBabel11062413263D

 30 32  0  0  1  0  0  0  0  0999 V2000
  192.2170  177.3170  141.2230 C   0  0  0  0  0  3  0  0  0  0  0  0
  189.7420  176.9610  137.9560 C   0  0  0  0  0  0  0  0  0  0  0  0
  189.8540  176.8210  136.5430 N   0  0  0  0  0  1  0  0  0  0  0  0
  188.9010  177.4230  140.0240 C   0  0  0  0  0  2  0  0  0  0  0  0
  188.6650  177.4190  138.5810 C   0  0  0  0  0  0  0  0  0  0  0  0
  190.0920  176.8690  140.2120 C   0  0  2  0  0  3  0  0  0  0  0  0
  192.7600  177.4520  139.8450 C   0  0  0  0  0  3  0  0  0  0  0  0
  190.9230  177.0360  141.4140 C   0  0  0  0  0  0  0  0  0  0  0  0
  192.0500  177.1120  138.8020 N   0  0  0  0  0  0  0  0  0  0  0  0
  190.7420  176.4580  138.9330 C   0  0  2  0  0  3  0  0  0  0  0  0
  190.3620  177.0050  142.7990 C   0  0  1  0  0  3  0  0  0  0  0  0
  189.4090  176.0090  142.9080 F   0  0  0  0  0  0  0  0  0  0  0  0
  191.4690  176.7950  143.8220 C   0  0  0  0  0  2  0  0  0  0  0  0
  191.2260  177.6420  145.0620 C   0  0  0  0  0  2  0  0  0  0  0  0
  190.2750  176.9440  146.0320 C   0  0  2  0  0  3  0  0  0  0  0  0
  188.4580  177.7610  147.9460 S   0  0  0  0  0  0  0  0  0  0  0  0
  189.0050  177.7770  146.2160 C   0  0  2  0  0  3  0  0  0  0  0  0
  186.8450  178.2520  147.3290 C   0  0  0  0  0  2  0  0  0  0  0  0
  187.9260  177.2620  145.3740 N   0  0  0  0  0  2  0  0  0  0  0  0
  186.6430  177.5060  146.0280 C   0  0  2  0  0  3  0  0  0  0  0  0
  185.7400  178.3050  145.1120 C   0  0  0  0  0  1  0  0  0  0  0  0
  190.9690  176.7490  147.3730 C   0  0  0  0  0  2  0  0  0  0  0  0
  192.0210  175.6630  147.2550 C   0  0  0  0  0  1  0  0  0  0  0  0
  187.4500  177.9700  137.8990 C   0  0  1  0  0  3  0  0  0  0  0  0
  186.6710  176.8670  137.1950 C   0  0  0  0  0  2  0  0  0  0  0  0
  186.6110  177.1310  135.7020 C   0  0  0  0  0  1  0  0  0  0  0  0
  186.5980  178.6260  138.8760 N   0  0  0  0  0  2  0  0  0  0  0  0
  185.2270  178.2530  138.5640 C   0  0  0  0  0  2  0  0  0  0  0  0
  184.2640  179.0330  139.4410 C   0  0  0  0  0  2  0  0  0  0  0  0
  184.7260  179.0010  140.8860 C   0  0  0  0  0  1  0  0  0  0  0  0
  1  8  2  0  0  0  0
  2  5  2  0  0  0  0
  3  2  1  0  0  0  0
  5  4  1  0  0  0  0
  6  4  1  6  0  0  0
  6  8  1  0  0  0  0
  7  1  1  0  0  0  0
  8 11  1  0  0  0  0
  9 10  1  0  0  0  0
  9  7  2  0  0  0  0
 10  2  1  6  0  0  0
 10  6  1  0  0  0  0
 11 12  1  6  0  0  0
 11 13  1  0  0  0  0
 13 14  1  0  0  0  0
 15 14  1  6  0  0  0
 15 22  1  0  0  0  0
 17 15  1  1  0  0  0
 17 16  1  0  0  0  0
 18 16  1  0  0  0  0
 19 20  1  0  0  0  0
 19 17  1  0  0  0  0
 20 21  1  6  0  0  0
 20 18  1  0  0  0  0
 23 22  1  0  0  0  0
 24 25  1  1  0  0  0
 24  5  1  0  0  0  0
 24 27  1  0  0  0  0
 26 25  1  0  0  0  0
 28 27  1  0  0  0  0
 28 29  1  0  0  0  0
 29 30  1  0  0  0  0
M  END
>  <MODEL>
9

>  <REMARK>
 VINA RESULT:      -6.9      2.823      8.496
  Name = 
  11 active torsions:
  status: ('A' for Active; 'I' for Inactive)
    1  A    between atoms: C_1  and  C_28
    2  A    between atoms: C_2  and  C_8
    3  A    between atoms: C_2  and  C_11
    4  A    between atoms: C_2  and  C_12
    5  A    between atoms: C_6  and  C_20
    6  A    between atoms: C_7  and  C_13
    7  A    between atoms: C_7  and  C_22
    8  A    between atoms: C_8  and  C_13
    9  A    between atoms: N_10  and  C_20
   10  A    between atoms: N_10  and  C_28
   11  A    between atoms: C_16  and  C_28
                            x       y       z     vdW  Elec       q    Type
                         _______ _______ _______ _____ _____    ______ ____

>  <TORSDO>
F 11

$$$$
