=
 OpenBabel11062416593D

 26 29  0  0  1  0  0  0  0  0999 V2000
  186.2080  178.1880  142.6070 C   0  0  0  0  0  0  0  0  0  0  0  0
  188.1390  178.5860  141.0760 N   0  0  0  0  0  0  0  0  0  0  0  0
  188.3740  177.1410  143.0480 C   0  0  2  0  0  3  0  0  0  0  0  0
  188.9130  177.8910  141.8520 C   0  0  0  0  0  3  0  0  0  0  0  0
  186.9890  177.4970  143.3850 N   0  0  0  0  0  0  0  0  0  0  0  0
  186.0020  179.3440  140.5410 O   0  0  0  0  0  0  0  0  0  0  0  0
  186.7450  178.7280  141.3510 C   0  0  0  0  0  0  0  0  0  0  0  0
  189.0010  178.1490  148.0090 C   0  0  0  0  0  2  0  0  0  0  0  0
  188.2280  176.8740  147.7020 C   0  0  0  0  0  2  0  0  0  0  0  0
  188.7340  178.0130  145.4570 C   0  0  0  0  0  2  0  0  0  0  0  0
  189.2760  177.3790  146.7400 C   0  0  0  0  0  0  0  0  0  0  0  0
  190.5060  176.7760  144.2460 C   0  0  0  0  0  3  0  0  0  0  0  0
  190.5830  176.5840  146.7240 C   0  0  0  0  0  2  0  0  0  0  0  0
  191.3830  176.9040  145.4610 C   0  0  0  0  0  2  0  0  0  0  0  0
  189.2670  177.3020  144.2390 C   0  0  0  0  0  0  0  0  0  0  0  0
  184.7950  178.4950  143.0240 C   0  0  2  0  0  3  0  0  0  0  0  0
  182.3870  178.9100  142.4090 C   0  0  0  0  0  2  0  0  0  0  0  0
  181.4710  177.7980  140.5090 C   0  0  0  0  0  2  0  0  0  0  0  0
  181.4500  179.0330  141.2920 N   0  0  0  0  0  2  0  0  0  0  0  0
  182.9040  177.5000  140.0640 C   0  0  0  0  0  2  0  0  0  0  0  0
  183.7780  178.5420  141.8760 C   0  0  2  0  0  3  0  0  0  0  0  0
  183.7210  177.3100  141.1930 O   0  0  0  0  0  0  0  0  0  0  0  0
  184.6770  179.6600  144.0120 C   0  0  0  0  0  2  0  0  0  0  0  0
  184.4860  179.2320  145.4310 C   0  0  0  0  0  0  0  0  0  0  0  0
  183.3580  178.8340  145.8230 O   0  0  0  0  0  0  0  0  0  0  0  0
  185.5770  179.2740  146.3420 N   0  0  0  0  0  1  0  0  0  0  0  0
  1 16  1  0  0  0  0
  1  5  2  0  0  0  0
  2  7  1  0  0  0  0
  2  4  2  0  0  0  0
  3  5  1  0  0  0  0
  3 15  1  1  0  0  0
  4  3  1  0  0  0  0
  6  7  2  0  0  0  0
  7  1  1  0  0  0  0
  9  8  1  0  0  0  0
 10 11  1  0  0  0  0
 11  9  1  0  0  0  0
 11  8  1  0  0  0  0
 12 14  1  0  0  0  0
 13 11  1  0  0  0  0
 14 13  1  0  0  0  0
 15 12  2  0  0  0  0
 15 10  1  0  0  0  0
 16 23  1  6  0  0  0
 18 19  1  0  0  0  0
 19 17  1  0  0  0  0
 20 18  1  0  0  0  0
 20 22  1  0  0  0  0
 21 17  1  0  0  0  0
 21 16  1  1  0  0  0
 22 21  1  0  0  0  0
 23 24  1  0  0  0  0
 24 25  2  0  0  0  0
 24 26  1  0  0  0  0
M  END
>  <MODEL>
1

>  <REMARK>
 VINA RESULT:      -8.9      0.000      0.000
  Name = 
  5 active torsions:
  status: ('A' for Active; 'I' for Inactive)
    1  A    between atoms: C_4  and  C_5
    2  A    between atoms: C_5  and  C_25
    3  A    between atoms: C_9  and  C_25
    4  A    between atoms: C_12  and  C_25
    5  A    between atoms: C_17  and  C_26
                            x       y       z     vdW  Elec       q    Type
                         _______ _______ _______ _____ _____    ______ ____

>  <TORSDO>
F 5

$$$$
=
 OpenBabel11062416593D

 26 29  0  0  1  0  0  0  0  0999 V2000
  189.6500  177.2840  141.9410 C   0  0  0  0  0  0  0  0  0  0  0  0
  191.9470  177.2400  142.9180 N   0  0  0  0  0  0  0  0  0  0  0  0
  189.9940  176.6010  144.2640 C   0  0  2  0  0  3  0  0  0  0  0  0
  191.4600  176.9150  144.0760 C   0  0  0  0  0  3  0  0  0  0  0  0
  189.1670  176.9640  143.1060 N   0  0  0  0  0  0  0  0  0  0  0  0
  191.6120  177.6220  140.6440 O   0  0  0  0  0  0  0  0  0  0  0  0
  191.1060  177.3800  141.7720 C   0  0  0  0  0  0  0  0  0  0  0  0
  186.2010  178.8800  146.8020 C   0  0  0  0  0  2  0  0  0  0  0  0
  185.9350  177.4340  146.4050 C   0  0  0  0  0  2  0  0  0  0  0  0
  188.2190  178.0820  145.4260 C   0  0  0  0  0  2  0  0  0  0  0  0
  187.3450  177.9040  146.6700 C   0  0  0  0  0  0  0  0  0  0  0  0
  190.0400  176.9940  146.7050 C   0  0  0  0  0  3  0  0  0  0  0  0
  187.9550  177.4230  147.9880 C   0  0  0  0  0  2  0  0  0  0  0  0
  189.4740  177.5920  147.9630 C   0  0  0  0  0  2  0  0  0  0  0  0
  189.4590  177.2280  145.5140 C   0  0  0  0  0  0  0  0  0  0  0  0
  188.7280  177.6280  140.8010 C   0  0  2  0  0  3  0  0  0  0  0  0
  188.7950  178.5380  138.4540 C   0  0  0  0  0  2  0  0  0  0  0  0
  189.2850  177.0550  136.6510 C   0  0  0  0  0  2  0  0  0  0  0  0
  189.4510  178.4200  137.1510 N   0  0  0  0  0  2  0  0  0  0  0  0
  189.8180  176.0630  137.6880 C   0  0  0  0  0  2  0  0  0  0  0  0
  189.3390  177.4640  139.4040 C   0  0  2  0  0  3  0  0  0  0  0  0
  189.0800  176.1810  138.8790 O   0  0  0  0  0  0  0  0  0  0  0  0
  187.9570  178.9370  140.9980 C   0  0  0  0  0  2  0  0  0  0  0  0
  186.5140  178.7430  141.3350 C   0  0  0  0  0  0  0  0  0  0  0  0
  186.1880  178.1260  142.3820 O   0  0  0  0  0  0  0  0  0  0  0  0
  185.5060  179.2550  140.4720 N   0  0  0  0  0  1  0  0  0  0  0  0
  1  5  2  0  0  0  0
  2  4  2  0  0  0  0
  3 15  1  1  0  0  0
  4  3  1  0  0  0  0
  5  3  1  0  0  0  0
  6  7  2  0  0  0  0
  7  1  1  0  0  0  0
  7  2  1  0  0  0  0
  9 11  1  0  0  0  0
  9  8  1  0  0  0  0
 10 15  1  0  0  0  0
 10 11  1  0  0  0  0
 11  8  1  0  0  0  0
 11 13  1  0  0  0  0
 12 14  1  0  0  0  0
 14 13  1  0  0  0  0
 15 12  2  0  0  0  0
 16 23  1  1  0  0  0
 16  1  1  0  0  0  0
 17 21  1  0  0  0  0
 18 19  1  0  0  0  0
 18 20  1  0  0  0  0
 19 17  1  0  0  0  0
 20 22  1  0  0  0  0
 21 16  1  1  0  0  0
 22 21  1  0  0  0  0
 23 24  1  0  0  0  0
 24 25  2  0  0  0  0
 26 24  1  0  0  0  0
M  END
>  <MODEL>
2

>  <REMARK>
 VINA RESULT:      -8.3      2.816      4.885
  Name = 
  5 active torsions:
  status: ('A' for Active; 'I' for Inactive)
    1  A    between atoms: C_4  and  C_5
    2  A    between atoms: C_5  and  C_25
    3  A    between atoms: C_9  and  C_25
    4  A    between atoms: C_12  and  C_25
    5  A    between atoms: C_17  and  C_26
                            x       y       z     vdW  Elec       q    Type
                         _______ _______ _______ _____ _____    ______ ____

>  <TORSDO>
F 5

$$$$
=
 OpenBabel11062416593D

 26 29  0  0  1  0  0  0  0  0999 V2000
  187.8660  177.9990  140.5430 C   0  0  0  0  0  0  0  0  0  0  0  0
  185.8330  178.6020  139.2260 N   0  0  0  0  0  0  0  0  0  0  0  0
  186.0120  179.1890  141.6040 C   0  0  2  0  0  3  0  0  0  0  0  0
  185.2680  179.0770  140.2930 C   0  0  0  0  0  3  0  0  0  0  0  0
  187.2940  178.4720  141.6110 N   0  0  0  0  0  0  0  0  0  0  0  0
  187.7210  177.7150  138.1880 O   0  0  0  0  0  0  0  0  0  0  0  0
  187.1700  178.1000  139.2530 C   0  0  0  0  0  0  0  0  0  0  0  0
  185.5180  177.8670  146.5060 C   0  0  0  0  0  2  0  0  0  0  0  0
  185.9360  179.3110  146.2660 C   0  0  0  0  0  2  0  0  0  0  0  0
  185.8190  178.1640  143.9720 C   0  0  0  0  0  2  0  0  0  0  0  0
  185.0890  178.5850  145.2490 C   0  0  0  0  0  0  0  0  0  0  0  0
  183.8230  178.9360  142.7260 C   0  0  0  0  0  3  0  0  0  0  0  0
  183.6200  179.0090  145.2030 C   0  0  0  0  0  2  0  0  0  0  0  0
  182.9730  178.5370  143.9010 C   0  0  0  0  0  2  0  0  0  0  0  0
  185.1560  178.7550  142.7540 C   0  0  0  0  0  0  0  0  0  0  0  0
  189.1910  177.2900  140.6380 C   0  0  2  0  0  3  0  0  0  0  0  0
  190.8260  178.0780  142.3850 C   0  0  0  0  0  2  0  0  0  0  0  0
  191.6270  176.5210  144.0050 C   0  0  0  0  0  2  0  0  0  0  0  0
  191.2480  177.9160  143.7760 N   0  0  0  0  0  2  0  0  0  0  0  0
  190.4630  175.6060  143.6170 C   0  0  0  0  0  2  0  0  0  0  0  0
  189.7080  177.0760  142.0660 C   0  0  2  0  0  3  0  0  0  0  0  0
  190.1770  175.7590  142.2480 O   0  0  0  0  0  0  0  0  0  0  0  0
  190.2480  177.8140  139.6610 C   0  0  0  0  0  2  0  0  0  0  0  0
  191.1270  176.7460  139.0930 C   0  0  0  0  0  0  0  0  0  0  0  0
  192.3790  176.8540  139.1670 O   0  0  0  0  0  0  0  0  0  0  0  0
  190.5500  175.6070  138.4670 N   0  0  0  0  0  1  0  0  0  0  0  0
  1 16  1  0  0  0  0
  1  5  2  0  0  0  0
  2  7  1  0  0  0  0
  2  4  2  0  0  0  0
  3  5  1  0  0  0  0
  3 15  1  1  0  0  0
  4  3  1  0  0  0  0
  6  7  2  0  0  0  0
  7  1  1  0  0  0  0
  9  8  1  0  0  0  0
 10 11  1  0  0  0  0
 11  9  1  0  0  0  0
 11  8  1  0  0  0  0
 12 15  2  0  0  0  0
 12 14  1  0  0  0  0
 13 11  1  0  0  0  0
 14 13  1  0  0  0  0
 15 10  1  0  0  0  0
 16 23  1  6  0  0  0
 17 19  1  0  0  0  0
 19 18  1  0  0  0  0
 20 18  1  0  0  0  0
 21 16  1  6  0  0  0
 21 22  1  0  0  0  0
 21 17  1  0  0  0  0
 22 20  1  0  0  0  0
 24 25  2  0  0  0  0
 24 23  1  0  0  0  0
 26 24  1  0  0  0  0
M  END
>  <MODEL>
3

>  <REMARK>
 VINA RESULT:      -8.3      3.145      6.732
  Name = 
  5 active torsions:
  status: ('A' for Active; 'I' for Inactive)
    1  A    between atoms: C_4  and  C_5
    2  A    between atoms: C_5  and  C_25
    3  A    between atoms: C_9  and  C_25
    4  A    between atoms: C_12  and  C_25
    5  A    between atoms: C_17  and  C_26
                            x       y       z     vdW  Elec       q    Type
                         _______ _______ _______ _____ _____    ______ ____

>  <TORSDO>
F 5

$$$$
=
 OpenBabel11062416593D

 26 29  0  0  1  0  0  0  0  0999 V2000
  189.8490  177.2920  141.1990 C   0  0  0  0  0  0  0  0  0  0  0  0
  190.4940  177.7360  143.5700 N   0  0  0  0  0  0  0  0  0  0  0  0
  188.2570  176.8900  143.0120 C   0  0  2  0  0  3  0  0  0  0  0  0
  189.2950  177.4360  143.9640 C   0  0  0  0  0  3  0  0  0  0  0  0
  188.6470  176.9980  141.5990 N   0  0  0  0  0  0  0  0  0  0  0  0
  192.0650  177.8490  141.8540 O   0  0  0  0  0  0  0  0  0  0  0  0
  190.8750  177.6250  142.1980 C   0  0  0  0  0  0  0  0  0  0  0  0
  184.5870  178.4600  146.1880 C   0  0  0  0  0  2  0  0  0  0  0  0
  185.9060  179.2110  146.3040 C   0  0  0  0  0  2  0  0  0  0  0  0
  186.2480  177.3400  144.5790 C   0  0  0  0  0  2  0  0  0  0  0  0
  185.4890  178.6050  144.9860 C   0  0  0  0  0  0  0  0  0  0  0  0
  186.3490  178.2880  142.2930 C   0  0  0  0  0  3  0  0  0  0  0  0
  185.0190  179.6060  143.9280 C   0  0  0  0  0  2  0  0  0  0  0  0
  185.0260  178.9570  142.5440 C   0  0  0  0  0  2  0  0  0  0  0  0
  186.9200  177.5240  143.2410 C   0  0  0  0  0  0  0  0  0  0  0  0
  190.1670  177.3670  139.7300 C   0  0  2  0  0  3  0  0  0  0  0  0
  188.3300  176.6200  138.1770 C   0  0  0  0  0  2  0  0  0  0  0  0
  187.6030  178.0970  136.4510 C   0  0  0  0  0  2  0  0  0  0  0  0
  187.1740  177.0700  137.4000 N   0  0  0  0  0  2  0  0  0  0  0  0
  188.3010  179.2310  137.2060 C   0  0  0  0  0  2  0  0  0  0  0  0
  189.0060  177.8270  138.8400 C   0  0  2  0  0  3  0  0  0  0  0  0
  189.4460  178.7340  137.8530 O   0  0  0  0  0  0  0  0  0  0  0  0
  190.9200  176.1450  139.1940 C   0  0  0  0  0  2  0  0  0  0  0  0
  192.0780  176.4870  138.3130 C   0  0  0  0  0  0  0  0  0  0  0  0
  191.9480  176.4590  137.0610 O   0  0  0  0  0  0  0  0  0  0  0  0
  193.3290  176.8440  138.8860 N   0  0  0  0  0  1  0  0  0  0  0  0
  1  5  2  0  0  0  0
  1  7  1  0  0  0  0
  2  4  2  0  0  0  0
  3 15  1  6  0  0  0
  3  4  1  0  0  0  0
  5  3  1  0  0  0  0
  6  7  2  0  0  0  0
  7  2  1  0  0  0  0
  8  9  1  0  0  0  0
 10 11  1  0  0  0  0
 11  8  1  0  0  0  0
 11  9  1  0  0  0  0
 12 14  1  0  0  0  0
 12 15  2  0  0  0  0
 13 11  1  0  0  0  0
 14 13  1  0  0  0  0
 15 10  1  0  0  0  0
 16 23  1  6  0  0  0
 16  1  1  0  0  0  0
 17 21  1  0  0  0  0
 18 20  1  0  0  0  0
 18 19  1  0  0  0  0
 19 17  1  0  0  0  0
 20 22  1  0  0  0  0
 21 16  1  6  0  0  0
 22 21  1  0  0  0  0
 24 26  1  0  0  0  0
 24 23  1  0  0  0  0
 25 24  2  0  0  0  0
M  END
>  <MODEL>
4

>  <REMARK>
 VINA RESULT:      -8.1      3.691      6.472
  Name = 
  5 active torsions:
  status: ('A' for Active; 'I' for Inactive)
    1  A    between atoms: C_4  and  C_5
    2  A    between atoms: C_5  and  C_25
    3  A    between atoms: C_9  and  C_25
    4  A    between atoms: C_12  and  C_25
    5  A    between atoms: C_17  and  C_26
                            x       y       z     vdW  Elec       q    Type
                         _______ _______ _______ _____ _____    ______ ____

>  <TORSDO>
F 5

$$$$
=
 OpenBabel11062416593D

 26 29  0  0  1  0  0  0  0  0999 V2000
  188.2510  177.3650  143.8780 C   0  0  0  0  0  0  0  0  0  0  0  0
  187.5850  178.3330  146.0810 N   0  0  0  0  0  0  0  0  0  0  0  0
  185.8890  177.5420  144.4890 C   0  0  2  0  0  3  0  0  0  0  0  0
  186.3310  178.2290  145.7600 C   0  0  0  0  0  3  0  0  0  0  0  0
  186.9930  177.2690  143.5600 N   0  0  0  0  0  0  0  0  0  0  0  0
  189.8190  177.9020  145.5820 O   0  0  0  0  0  0  0  0  0  0  0  0
  188.6150  177.8580  145.2130 C   0  0  0  0  0  0  0  0  0  0  0  0
  183.5290  179.0330  140.2200 C   0  0  0  0  0  2  0  0  0  0  0  0
  183.4510  177.5420  140.5130 C   0  0  0  0  0  2  0  0  0  0  0  0
  184.9260  178.5960  142.3310 C   0  0  0  0  0  2  0  0  0  0  0  0
  183.5600  178.5350  141.6450 C   0  0  0  0  0  0  0  0  0  0  0  0
  183.7010  178.6930  144.4820 C   0  0  0  0  0  3  0  0  0  0  0  0
  182.2750  178.7530  142.4460 C   0  0  0  0  0  2  0  0  0  0  0  0
  182.5910  179.4280  143.7810 C   0  0  0  0  0  2  0  0  0  0  0  0
  184.8000  178.3100  143.8060 C   0  0  0  0  0  0  0  0  0  0  0  0
  189.3200  177.0500  142.8670 C   0  0  2  0  0  3  0  0  0  0  0  0
  190.0860  176.9660  140.4680 C   0  0  0  0  0  2  0  0  0  0  0  0
  188.9940  178.3450  138.8570 C   0  0  0  0  0  2  0  0  0  0  0  0
  189.6440  177.0530  139.0760 N   0  0  0  0  0  2  0  0  0  0  0  0
  187.8550  178.5210  139.8640 C   0  0  0  0  0  2  0  0  0  0  0  0
  188.8970  177.2240  141.4030 C   0  0  2  0  0  3  0  0  0  0  0  0
  188.3730  178.5120  141.1710 O   0  0  0  0  0  0  0  0  0  0  0  0
  190.0790  175.7490  143.1490 C   0  0  0  0  0  2  0  0  0  0  0  0
  191.4840  175.9580  143.6120 C   0  0  0  0  0  0  0  0  0  0  0  0
  192.0810  177.0360  143.3530 O   0  0  0  0  0  0  0  0  0  0  0  0
  192.1510  174.9390  144.3470 N   0  0  0  0  0  1  0  0  0  0  0  0
  1  7  1  0  0  0  0
  3 15  1  6  0  0  0
  3  4  1  0  0  0  0
  4  2  2  0  0  0  0
  5  1  2  0  0  0  0
  5  3  1  0  0  0  0
  7  6  2  0  0  0  0
  7  2  1  0  0  0  0
  8  9  1  0  0  0  0
  8 11  1  0  0  0  0
  9 11  1  0  0  0  0
 10 15  1  0  0  0  0
 11 10  1  0  0  0  0
 11 13  1  0  0  0  0
 13 14  1  0  0  0  0
 14 12  1  0  0  0  0
 15 12  2  0  0  0  0
 16 23  1  6  0  0  0
 16  1  1  0  0  0  0
 17 21  1  0  0  0  0
 18 19  1  0  0  0  0
 18 20  1  0  0  0  0
 19 17  1  0  0  0  0
 20 22  1  0  0  0  0
 21 16  1  1  0  0  0
 22 21  1  0  0  0  0
 23 24  1  0  0  0  0
 24 26  1  0  0  0  0
 25 24  2  0  0  0  0
M  END
>  <MODEL>
5

>  <REMARK>
 VINA RESULT:      -8.0      2.686      6.753
  Name = 
  5 active torsions:
  status: ('A' for Active; 'I' for Inactive)
    1  A    between atoms: C_4  and  C_5
    2  A    between atoms: C_5  and  C_25
    3  A    between atoms: C_9  and  C_25
    4  A    between atoms: C_12  and  C_25
    5  A    between atoms: C_17  and  C_26
                            x       y       z     vdW  Elec       q    Type
                         _______ _______ _______ _____ _____    ______ ____

>  <TORSDO>
F 5

$$$$
=
 OpenBabel11062416593D

 26 29  0  0  1  0  0  0  0  0999 V2000
  189.5030  177.6250  142.0500 C   0  0  0  0  0  0  0  0  0  0  0  0
  191.7420  177.1810  143.0600 N   0  0  0  0  0  0  0  0  0  0  0  0
  189.6810  176.7410  144.3230 C   0  0  2  0  0  3  0  0  0  0  0  0
  191.1820  176.8510  144.1840 C   0  0  0  0  0  3  0  0  0  0  0  0
  188.9470  177.2990  143.1800 N   0  0  0  0  0  0  0  0  0  0  0  0
  191.5280  177.7620  140.8150 O   0  0  0  0  0  0  0  0  0  0  0  0
  190.9610  177.5200  141.9130 C   0  0  0  0  0  0  0  0  0  0  0  0
  186.0550  179.0870  147.0380 C   0  0  0  0  0  2  0  0  0  0  0  0
  185.7230  177.6640  146.6100 C   0  0  0  0  0  2  0  0  0  0  0  0
  187.9990  178.2530  145.5800 C   0  0  0  0  0  2  0  0  0  0  0  0
  187.1570  178.0730  146.8440 C   0  0  0  0  0  0  0  0  0  0  0  0
  189.8150  177.0630  146.7710 C   0  0  0  0  0  3  0  0  0  0  0  0
  187.7870  177.5330  148.1290 C   0  0  0  0  0  2  0  0  0  0  0  0
  189.3100  177.6460  148.0620 C   0  0  0  0  0  2  0  0  0  0  0  0
  189.2080  177.3520  145.6060 C   0  0  0  0  0  0  0  0  0  0  0  0
  188.6710  178.1760  140.9220 C   0  0  2  0  0  3  0  0  0  0  0  0
  186.7080  177.7500  142.4420 C   0  0  0  0  0  2  0  0  0  0  0  0
  184.5220  178.3580  141.7050 C   0  0  0  0  0  2  0  0  0  0  0  0
  185.4030  178.2580  142.8680 N   0  0  0  0  0  2  0  0  0  0  0  0
  185.1870  179.2270  140.6350 C   0  0  0  0  0  2  0  0  0  0  0  0
  187.2650  178.6390  141.3220 C   0  0  2  0  0  3  0  0  0  0  0  0
  186.3890  178.6270  140.2180 O   0  0  0  0  0  0  0  0  0  0  0  0
  188.7110  177.3270  139.6480 C   0  0  0  0  0  2  0  0  0  0  0  0
  189.2400  178.0540  138.4540 C   0  0  0  0  0  0  0  0  0  0  0  0
  189.0560  179.2940  138.3380 O   0  0  0  0  0  0  0  0  0  0  0  0
  189.9500  177.3460  137.4450 N   0  0  0  0  0  1  0  0  0  0  0  0
  1  5  2  0  0  0  0
  2  4  2  0  0  0  0
  3 15  1  1  0  0  0
  4  3  1  0  0  0  0
  5  3  1  0  0  0  0
  6  7  2  0  0  0  0
  7  1  1  0  0  0  0
  7  2  1  0  0  0  0
  9 11  1  0  0  0  0
  9  8  1  0  0  0  0
 10 15  1  0  0  0  0
 10 11  1  0  0  0  0
 11  8  1  0  0  0  0
 11 13  1  0  0  0  0
 12 14  1  0  0  0  0
 14 13  1  0  0  0  0
 15 12  2  0  0  0  0
 16 23  1  6  0  0  0
 16  1  1  0  0  0  0
 17 19  1  0  0  0  0
 18 19  1  0  0  0  0
 20 18  1  0  0  0  0
 21 16  1  6  0  0  0
 21 17  1  0  0  0  0
 22 20  1  0  0  0  0
 22 21  1  0  0  0  0
 24 23  1  0  0  0  0
 25 24  2  0  0  0  0
 26 24  1  0  0  0  0
M  END
>  <MODEL>
6

>  <REMARK>
 VINA RESULT:      -7.9      2.317      4.648
  Name = 
  5 active torsions:
  status: ('A' for Active; 'I' for Inactive)
    1  A    between atoms: C_4  and  C_5
    2  A    between atoms: C_5  and  C_25
    3  A    between atoms: C_9  and  C_25
    4  A    between atoms: C_12  and  C_25
    5  A    between atoms: C_17  and  C_26
                            x       y       z     vdW  Elec       q    Type
                         _______ _______ _______ _____ _____    ______ ____

>  <TORSDO>
F 5

$$$$
=
 OpenBabel11062416593D

 26 29  0  0  1  0  0  0  0  0999 V2000
  183.3460  178.7810  142.2260 C   0  0  0  0  0  0  0  0  0  0  0  0
  182.4080  178.9320  144.5340 N   0  0  0  0  0  0  0  0  0  0  0  0
  184.8260  179.1190  144.1440 C   0  0  2  0  0  3  0  0  0  0  0  0
  183.6050  179.0100  145.0280 C   0  0  0  0  0  3  0  0  0  0  0  0
  184.5450  178.8530  142.7270 N   0  0  0  0  0  0  0  0  0  0  0  0
  181.0140  178.8830  142.6690 O   0  0  0  0  0  0  0  0  0  0  0  0
  182.1880  178.8810  143.1240 C   0  0  0  0  0  0  0  0  0  0  0  0
  188.9340  176.2370  143.2270 C   0  0  0  0  0  2  0  0  0  0  0  0
  189.1040  177.7190  142.9220 C   0  0  0  0  0  2  0  0  0  0  0  0
  186.6660  177.3690  143.6480 C   0  0  0  0  0  2  0  0  0  0  0  0
  188.1510  177.2680  144.0040 C   0  0  0  0  0  0  0  0  0  0  0  0
  186.3110  178.2690  145.9290 C   0  0  0  0  0  3  0  0  0  0  0  0
  188.6280  177.5150  145.4360 C   0  0  0  0  0  2  0  0  0  0  0  0
  187.4540  177.4180  146.4100 C   0  0  0  0  0  2  0  0  0  0  0  0
  185.9350  178.2420  144.6370 C   0  0  0  0  0  0  0  0  0  0  0  0
  183.1480  178.5200  140.7560 C   0  0  2  0  0  3  0  0  0  0  0  0
  182.3880  176.3320  139.7670 C   0  0  0  0  0  2  0  0  0  0  0  0
  180.2450  176.2160  138.7270 C   0  0  0  0  0  2  0  0  0  0  0  0
  181.2240  175.4790  139.5240 N   0  0  0  0  0  2  0  0  0  0  0  0
  179.8940  177.5270  139.4340 C   0  0  0  0  0  2  0  0  0  0  0  0
  181.9340  177.6480  140.4120 C   0  0  2  0  0  3  0  0  0  0  0  0
  181.0460  178.3250  139.5520 O   0  0  0  0  0  0  0  0  0  0  0  0
  184.4310  178.1280  140.0160 C   0  0  0  0  0  2  0  0  0  0  0  0
  184.9040  179.1570  139.0410 C   0  0  0  0  0  0  0  0  0  0  0  0
  184.3620  180.2930  139.0090 O   0  0  0  0  0  0  0  0  0  0  0  0
  185.9680  178.8550  138.1460 N   0  0  0  0  0  1  0  0  0  0  0  0
  1  5  2  0  0  0  0
  1  7  1  0  0  0  0
  2  4  2  0  0  0  0
  3 15  1  1  0  0  0
  3  4  1  0  0  0  0
  5  3  1  0  0  0  0
  6  7  2  0  0  0  0
  7  2  1  0  0  0  0
  8 11  1  0  0  0  0
  9  8  1  0  0  0  0
  9 11  1  0  0  0  0
 10 11  1  0  0  0  0
 10 15  1  0  0  0  0
 11 13  1  0  0  0  0
 12 14  1  0  0  0  0
 13 14  1  0  0  0  0
 15 12  2  0  0  0  0
 16 23  1  1  0  0  0
 16  1  1  0  0  0  0
 17 21  1  0  0  0  0
 18 20  1  0  0  0  0
 18 19  1  0  0  0  0
 19 17  1  0  0  0  0
 20 22  1  0  0  0  0
 21 16  1  6  0  0  0
 22 21  1  0  0  0  0
 24 23  1  0  0  0  0
 25 24  2  0  0  0  0
 26 24  1  0  0  0  0
M  END
>  <MODEL>
7

>  <REMARK>
 VINA RESULT:      -7.8      2.193      4.581
  Name = 
  5 active torsions:
  status: ('A' for Active; 'I' for Inactive)
    1  A    between atoms: C_4  and  C_5
    2  A    between atoms: C_5  and  C_25
    3  A    between atoms: C_9  and  C_25
    4  A    between atoms: C_12  and  C_25
    5  A    between atoms: C_17  and  C_26
                            x       y       z     vdW  Elec       q    Type
                         _______ _______ _______ _____ _____    ______ ____

>  <TORSDO>
F 5

$$$$
=
 OpenBabel11062416593D

 26 29  0  0  1  0  0  0  0  0999 V2000
  190.0420  177.0160  140.8510 C   0  0  0  0  0  0  0  0  0  0  0  0
  191.7880  177.4350  142.5850 N   0  0  0  0  0  0  0  0  0  0  0  0
  189.5400  176.6730  143.2200 C   0  0  2  0  0  3  0  0  0  0  0  0
  190.9300  177.1800  143.5260 C   0  0  0  0  0  3  0  0  0  0  0  0
  189.1850  176.7670  141.7970 N   0  0  0  0  0  0  0  0  0  0  0  0
  192.3080  177.4900  140.3150 O   0  0  0  0  0  0  0  0  0  0  0  0
  191.4370  177.3100  141.2060 C   0  0  0  0  0  0  0  0  0  0  0  0
  185.1720  179.2710  143.6530 C   0  0  0  0  0  2  0  0  0  0  0  0
  185.0270  177.8460  143.1390 C   0  0  0  0  0  2  0  0  0  0  0  0
  187.5390  178.3010  143.4110 C   0  0  0  0  0  2  0  0  0  0  0  0
  186.1600  178.2080  144.0680 C   0  0  0  0  0  0  0  0  0  0  0  0
  188.4220  177.0930  145.3840 C   0  0  0  0  0  3  0  0  0  0  0  0
  186.0140  177.6980  145.5030 C   0  0  0  0  0  2  0  0  0  0  0  0
  187.3610  177.7500  146.2240 C   0  0  0  0  0  2  0  0  0  0  0  0
  188.5130  177.3560  144.0680 C   0  0  0  0  0  0  0  0  0  0  0  0
  189.5950  177.0790  139.4140 C   0  0  2  0  0  3  0  0  0  0  0  0
  190.1370  176.8080  136.9690 C   0  0  0  0  0  2  0  0  0  0  0  0
  191.3800  174.8990  136.2650 C   0  0  0  0  0  2  0  0  0  0  0  0
  191.1390  176.3200  136.0210 N   0  0  0  0  0  2  0  0  0  0  0  0
  191.7810  174.6920  137.7270 C   0  0  0  0  0  2  0  0  0  0  0  0
  190.5890  176.4970  138.4020 C   0  0  2  0  0  3  0  0  0  0  0  0
  190.7330  175.1050  138.5690 O   0  0  0  0  0  0  0  0  0  0  0  0
  189.0050  178.4330  139.0050 C   0  0  0  0  0  2  0  0  0  0  0  0
  187.5120  178.4470  138.9430 C   0  0  0  0  0  0  0  0  0  0  0  0
  186.8380  178.5820  139.9980 O   0  0  0  0  0  0  0  0  0  0  0  0
  186.8490  178.3050  137.6930 N   0  0  0  0  0  1  0  0  0  0  0  0
  1  7  1  0  0  0  0
  1  5  2  0  0  0  0
  2  4  2  0  0  0  0
  3  4  1  0  0  0  0
  3 15  1  1  0  0  0
  5  3  1  0  0  0  0
  6  7  2  0  0  0  0
  7  2  1  0  0  0  0
  8 11  1  0  0  0  0
  9  8  1  0  0  0  0
  9 11  1  0  0  0  0
 10 15  1  0  0  0  0
 10 11  1  0  0  0  0
 11 13  1  0  0  0  0
 12 14  1  0  0  0  0
 13 14  1  0  0  0  0
 15 12  2  0  0  0  0
 16 23  1  6  0  0  0
 16  1  1  0  0  0  0
 17 21  1  0  0  0  0
 18 20  1  0  0  0  0
 19 18  1  0  0  0  0
 19 17  1  0  0  0  0
 20 22  1  0  0  0  0
 21 22  1  0  0  0  0
 21 16  1  1  0  0  0
 24 23  1  0  0  0  0
 24 25  2  0  0  0  0
 26 24  1  0  0  0  0
M  END
>  <MODEL>
8

>  <REMARK>
 VINA RESULT:      -7.8      3.602      6.445
  Name = 
  5 active torsions:
  status: ('A' for Active; 'I' for Inactive)
    1  A    between atoms: C_4  and  C_5
    2  A    between atoms: C_5  and  C_25
    3  A    between atoms: C_9  and  C_25
    4  A    between atoms: C_12  and  C_25
    5  A    between atoms: C_17  and  C_26
                            x       y       z     vdW  Elec       q    Type
                         _______ _______ _______ _____ _____    ______ ____

>  <TORSDO>
F 5

$$$$
=
 OpenBabel11062416593D

 26 29  0  0  1  0  0  0  0  0999 V2000
  187.4430  178.0060  141.7570 C   0  0  0  0  0  0  0  0  0  0  0  0
  189.6710  177.6530  140.6900 N   0  0  0  0  0  0  0  0  0  0  0  0
  189.1780  176.7260  142.9110 C   0  0  2  0  0  3  0  0  0  0  0  0
  190.0970  177.0450  141.7550 C   0  0  0  0  0  3  0  0  0  0  0  0
  187.8760  177.4010  142.8240 N   0  0  0  0  0  0  0  0  0  0  0  0
  187.9140  178.6290  139.5130 O   0  0  0  0  0  0  0  0  0  0  0  0
  188.3220  178.1100  140.5860 C   0  0  0  0  0  0  0  0  0  0  0  0
  188.8880  178.2530  147.7690 C   0  0  0  0  0  2  0  0  0  0  0  0
  188.1640  176.9520  147.4580 C   0  0  0  0  0  2  0  0  0  0  0  0
  189.0990  177.8480  145.2410 C   0  0  0  0  0  2  0  0  0  0  0  0
  189.3810  177.3540  146.6620 C   0  0  0  0  0  0  0  0  0  0  0  0
  191.0420  176.4940  144.5180 C   0  0  0  0  0  3  0  0  0  0  0  0
  190.6540  176.5640  146.9730 C   0  0  0  0  0  2  0  0  0  0  0  0
  191.6810  176.7510  145.8560 C   0  0  0  0  0  2  0  0  0  0  0  0
  189.8360  177.0140  144.2250 C   0  0  0  0  0  0  0  0  0  0  0  0
  186.0860  178.6590  141.7490 C   0  0  2  0  0  3  0  0  0  0  0  0
  185.8050  177.8850  144.1300 C   0  0  0  0  0  2  0  0  0  0  0  0
  183.9420  178.6770  145.3910 C   0  0  0  0  0  2  0  0  0  0  0  0
  185.3480  178.2820  145.4620 N   0  0  0  0  0  2  0  0  0  0  0  0
  183.7740  179.7800  144.3430 C   0  0  0  0  0  2  0  0  0  0  0  0
  185.5340  179.0200  143.1340 C   0  0  2  0  0  3  0  0  0  0  0  0
  184.1520  179.2920  143.0790 O   0  0  0  0  0  0  0  0  0  0  0  0
  185.0710  177.9710  140.8310 C   0  0  0  0  0  2  0  0  0  0  0  0
  184.7570  178.7440  139.5910 C   0  0  0  0  0  0  0  0  0  0  0  0
  184.5550  179.9850  139.6550 O   0  0  0  0  0  0  0  0  0  0  0  0
  184.6850  178.0790  138.3360 N   0  0  0  0  0  1  0  0  0  0  0  0
  1  5  2  0  0  0  0
  2  4  2  0  0  0  0
  3 15  1  1  0  0  0
  4  3  1  0  0  0  0
  5  3  1  0  0  0  0
  6  7  2  0  0  0  0
  7  2  1  0  0  0  0
  7  1  1  0  0  0  0
  9  8  1  0  0  0  0
 10 11  1  0  0  0  0
 11 13  1  0  0  0  0
 11  9  1  0  0  0  0
 11  8  1  0  0  0  0
 12 14  1  0  0  0  0
 14 13  1  0  0  0  0
 15 12  2  0  0  0  0
 15 10  1  0  0  0  0
 16 23  1  1  0  0  0
 16  1  1  0  0  0  0
 17 19  1  0  0  0  0
 18 19  1  0  0  0  0
 20 18  1  0  0  0  0
 21 16  1  6  0  0  0
 21 17  1  0  0  0  0
 22 21  1  0  0  0  0
 22 20  1  0  0  0  0
 24 25  2  0  0  0  0
 24 23  1  0  0  0  0
 26 24  1  0  0  0  0
M  END
>  <MODEL>
9

>  <REMARK>
 VINA RESULT:      -7.8      1.769      3.365
  Name = 
  5 active torsions:
  status: ('A' for Active; 'I' for Inactive)
    1  A    between atoms: C_4  and  C_5
    2  A    between atoms: C_5  and  C_25
    3  A    between atoms: C_9  and  C_25
    4  A    between atoms: C_12  and  C_25
    5  A    between atoms: C_17  and  C_26
                            x       y       z     vdW  Elec       q    Type
                         _______ _______ _______ _____ _____    ______ ____

>  <TORSDO>
F 5

$$$$
