=
 OpenBabel11062412433D

 32 37  0  0  1  0  0  0  0  0999 V2000
  181.8220  179.1670  143.2170 C   0  0  0  0  0  1  0  0  0  0  0  0
  188.2490  178.5290  139.8260 N   0  0  1  0  0  0  0  0  0  0  0  0
  190.7840  178.5150  141.3530 O   0  0  0  0  0  0  0  0  0  0  0  0
  182.9440  179.0330  144.1920 C   0  0  0  0  0  3  0  0  0  0  0  0
  184.6800  178.4700  146.3020 N   0  0  0  0  0  2  0  0  0  0  0  0
  185.7020  178.6500  147.3490 C   0  0  0  0  0  2  0  0  0  0  0  0
  188.8300  177.2530  139.4750 C   0  0  2  0  0  0  0  0  0  0  0  0
  185.2470  178.8440  144.9960 C   0  0  2  0  0  3  0  0  0  0  0  0
  191.9020  176.6110  146.8540 O   0  0  0  0  0  0  0  0  0  0  0  0
  191.2510  176.0110  144.6840 C   0  0  0  0  0  2  0  0  0  0  0  0
  187.4880  177.4110  139.4720 O   0  0  0  0  0  0  0  0  0  0  0  0
  189.8370  177.5740  146.2810 C   0  0  0  0  0  2  0  0  0  0  0  0
  188.7590  177.5260  145.1920 C   0  0  2  0  0  3  0  0  0  0  0  0
  187.0860  178.1650  141.9770 C   0  0  0  0  0  2  0  0  0  0  0  0
  192.0290  176.6070  142.3650 C   0  0  0  0  0  2  0  0  0  0  0  0
  189.2000  178.2170  144.0410 O   0  0  0  0  0  0  0  0  0  0  0  0
  189.4680  176.5960  140.6800 C   0  0  0  0  0  2  0  0  0  0  0  0
  191.0480  176.7230  145.9890 C   0  0  0  0  0  0  0  0  0  0  0  0
  186.0480  179.2860  142.0210 C   0  0  0  0  0  2  0  0  0  0  0  0
  183.3680  177.4550  140.7050 O   0  0  0  0  0  0  0  0  0  0  0  0
  191.9620  177.7130  141.3000 C   0  0  0  0  0  2  0  0  0  0  0  0
  189.7080  177.2600  143.1470 C   0  0  1  0  0  3  0  0  0  0  0  0
  184.2330  178.8300  143.8700 C   0  0  0  0  0  0  0  0  0  0  0  0
  186.3830  177.8950  144.7000 C   0  0  0  0  0  2  0  0  0  0  0  0
  186.9700  177.8220  147.0590 C   0  0  0  0  0  2  0  0  0  0  0  0
  188.3870  178.6040  141.2920 C   0  0  1  0  0  3  0  0  0  0  0  0
  184.0140  178.0890  141.5490 C   0  0  0  0  0  0  0  0  0  0  0  0
  189.4430  177.2650  138.2230 O   0  0  0  0  0  1  0  0  0  0  0  0
  189.6210  177.7510  141.6620 C   0  0  1  0  0  0  0  0  0  0  0  0
  191.1720  177.0080  143.5460 C   0  0  1  0  0  3  0  0  0  0  0  0
  184.7000  178.7580  142.4410 C   0  0  0  0  0  0  0  0  0  0  0  0
  187.4820  178.2040  145.6720 C   0  0  1  0  0  3  0  0  0  0  0  0
  1  4  1  0  0  0  0
  2 11  1  1  0  0  0
  2 26  1  0  0  0  0
  3 29  1  0  0  0  0
  5  6  1  0  0  0  0
  7 28  1  6  0  0  0
  7  2  1  0  0  0  0
  7 17  1  0  0  0  0
  8 24  1  6  0  0  0
  8  5  1  0  0  0  0
 10 18  1  0  0  0  0
 11  7  1  0  0  0  0
 13 32  1  0  0  0  0
 13 12  1  1  0  0  0
 14 19  1  0  0  0  0
 16 13  1  0  0  0  0
 18 12  1  0  0  0  0
 18  9  2  0  0  0  0
 19 31  1  0  0  0  0
 20 27  2  0  0  0  0
 21  3  1  0  0  0  0
 21 15  1  0  0  0  0
 22 30  1  0  0  0  0
 22 16  1  1  0  0  0
 23  4  2  0  0  0  0
 23  8  1  0  0  0  0
 25  6  1  0  0  0  0
 26 29  1  0  0  0  0
 26 14  1  1  0  0  0
 27 31  2  0  0  0  0
 29 17  1  6  0  0  0
 29 22  1  0  0  0  0
 30 15  1  6  0  0  0
 30 10  1  0  0  0  0
 31 23  1  0  0  0  0
 32 24  1  6  0  0  0
 32 25  1  0  0  0  0
M  END
>  <MODEL>
1

>  <REMARK>
 VINA RESULT:     -11.4      0.000      0.000
  Name = 
  0 active torsions:
  status: ('A' for Active; 'I' for Inactive)
                            x       y       z     vdW  Elec       q    Type
                         _______ _______ _______ _____ _____    ______ ____

>  <TORSDO>
F 0

$$$$
=
 OpenBabel11062412433D

 32 37  0  0  1  0  0  0  0  0999 V2000
  187.3010  177.4260  135.5180 C   0  0  0  0  0  1  0  0  0  0  0  0
  190.7160  177.3010  141.9630 N   0  0  1  0  0  0  0  0  0  0  0  0
  189.4860  178.5160  144.3640 O   0  0  0  0  0  0  0  0  0  0  0  0
  186.4320  177.9600  136.6080 C   0  0  0  0  0  3  0  0  0  0  0  0
  184.4020  178.6900  138.3760 N   0  0  0  0  0  2  0  0  0  0  0  0
  183.5710  179.5050  139.2820 C   0  0  0  0  0  2  0  0  0  0  0  0
  190.6270  176.1860  142.8790 C   0  0  2  0  0  0  0  0  0  0  0  0
  185.7930  178.6930  138.8530 C   0  0  2  0  0  3  0  0  0  0  0  0
  183.7710  179.1330  145.8130 O   0  0  0  0  0  0  0  0  0  0  0  0
  185.5220  177.6290  145.4080 C   0  0  0  0  0  2  0  0  0  0  0  0
  190.5840  175.9740  141.5460 O   0  0  0  0  0  0  0  0  0  0  0  0
  184.4930  179.2400  143.5800 C   0  0  0  0  0  2  0  0  0  0  0  0
  185.4050  178.5130  142.5850 C   0  0  2  0  0  3  0  0  0  0  0  0
  188.4960  177.4610  140.8870 C   0  0  0  0  0  2  0  0  0  0  0  0
  187.9520  177.5140  146.0550 C   0  0  0  0  0  2  0  0  0  0  0  0
  186.7580  178.8220  142.8520 O   0  0  0  0  0  0  0  0  0  0  0  0
  189.3190  176.2110  143.6400 C   0  0  0  0  0  2  0  0  0  0  0  0
  184.5500  178.6920  144.9840 C   0  0  0  0  0  0  0  0  0  0  0  0
  188.7800  178.2030  139.5820 C   0  0  0  0  0  2  0  0  0  0  0  0
  189.1380  175.3820  137.5390 O   0  0  0  0  0  0  0  0  0  0  0  0
  189.3360  178.0910  145.7180 C   0  0  0  0  0  2  0  0  0  0  0  0
  187.2830  177.7730  143.6250 C   0  0  1  0  0  3  0  0  0  0  0  0
  186.7580  177.9990  137.9120 C   0  0  0  0  0  0  0  0  0  0  0  0
  185.8130  178.0360  140.2130 C   0  0  0  0  0  2  0  0  0  0  0  0
  183.6390  178.9930  140.7340 C   0  0  0  0  0  2  0  0  0  0  0  0
  189.3910  177.9430  142.0370 C   0  0  1  0  0  3  0  0  0  0  0  0
  188.6310  176.4280  137.9650 C   0  0  0  0  0  0  0  0  0  0  0  0
  191.8420  175.8980  143.4980 O   0  0  0  0  0  1  0  0  0  0  0  0
  188.8340  177.6430  143.4460 C   0  0  1  0  0  0  0  0  0  0  0  0
  186.9340  178.0800  145.0900 C   0  0  1  0  0  3  0  0  0  0  0  0
  188.0950  177.5330  138.4190 C   0  0  0  0  0  0  0  0  0  0  0  0
  185.1050  178.9580  141.1600 C   0  0  1  0  0  3  0  0  0  0  0  0
  1  4  1  0  0  0  0
  2 11  1  6  0  0  0
  2 26  1  0  0  0  0
  2  7  1  0  0  0  0
  3 21  1  0  0  0  0
  4 23  2  0  0  0  0
  5  8  1  0  0  0  0
  5  6  1  0  0  0  0
  6 25  1  0  0  0  0
  7 28  1  1  0  0  0
  7 17  1  0  0  0  0
  8 24  1  1  0  0  0
 11  7  1  0  0  0  0
 12 18  1  0  0  0  0
 13 16  1  0  0  0  0
 13 12  1  1  0  0  0
 18 10  1  0  0  0  0
 18  9  2  0  0  0  0
 19 14  1  0  0  0  0
 20 27  2  0  0  0  0
 21 15  1  0  0  0  0
 22 16  1  6  0  0  0
 22 30  1  0  0  0  0
 23 31  1  0  0  0  0
 23  8  1  0  0  0  0
 25 32  1  0  0  0  0
 26 14  1  6  0  0  0
 26 29  1  0  0  0  0
 27 31  2  0  0  0  0
 29 22  1  0  0  0  0
 29 17  1  1  0  0  0
 29  3  1  0  0  0  0
 30 10  1  1  0  0  0
 30 15  1  0  0  0  0
 31 19  1  0  0  0  0
 32 24  1  6  0  0  0
 32 13  1  0  0  0  0
M  END
>  <MODEL>
2

>  <REMARK>
 VINA RESULT:     -10.5      2.321      5.649
  Name = 
  0 active torsions:
  status: ('A' for Active; 'I' for Inactive)
                            x       y       z     vdW  Elec       q    Type
                         _______ _______ _______ _____ _____    ______ ____

>  <TORSDO>
F 0

$$$$
=
 OpenBabel11062412433D

 32 37  0  0  1  0  0  0  0  0999 V2000
  181.0590  179.1670  143.1830 C   0  0  0  0  0  1  0  0  0  0  0  0
  186.6150  178.7080  138.4780 N   0  0  1  0  0  0  0  0  0  0  0  0
  189.4170  178.6540  139.4280 O   0  0  0  0  0  0  0  0  0  0  0  0
  182.3630  179.0040  143.8910 C   0  0  0  0  0  3  0  0  0  0  0  0
  184.5090  178.3730  145.5580 N   0  0  0  0  0  2  0  0  0  0  0  0
  185.7310  178.5210  146.3690 C   0  0  0  0  0  2  0  0  0  0  0  0
  187.1060  177.4510  137.9610 C   0  0  2  0  0  0  0  0  0  0  0  0
  184.7850  178.8010  144.1780 C   0  0  2  0  0  3  0  0  0  0  0  0
  191.6800  176.5470  144.4850 O   0  0  0  0  0  0  0  0  0  0  0  0
  190.5810  176.0270  142.4820 C   0  0  0  0  0  2  0  0  0  0  0  0
  185.7950  177.5990  138.2510 O   0  0  0  0  0  0  0  0  0  0  0  0
  189.5420  177.5170  144.4040 C   0  0  0  0  0  2  0  0  0  0  0  0
  188.2570  177.5030  143.5690 C   0  0  2  0  0  3  0  0  0  0  0  0
  185.9360  178.2530  140.8110 C   0  0  0  0  0  2  0  0  0  0  0  0
  190.8470  176.7180  140.0760 C   0  0  0  0  0  2  0  0  0  0  0  0
  188.4430  178.2410  142.3780 O   0  0  0  0  0  0  0  0  0  0  0  0
  187.9860  176.7530  138.9750 C   0  0  0  0  0  2  0  0  0  0  0  0
  190.6620  176.6870  143.8270 C   0  0  0  0  0  0  0  0  0  0  0  0
  184.9330  179.3630  141.1190 C   0  0  0  0  0  2  0  0  0  0  0  0
  182.0330  177.5650  140.3340 O   0  0  0  0  0  0  0  0  0  0  0  0
  190.5560  177.8630  139.0940 C   0  0  0  0  0  2  0  0  0  0  0  0
  188.7470  177.3220  141.3590 C   0  0  1  0  0  3  0  0  0  0  0  0
  183.5540  178.8230  143.2930 C   0  0  0  0  0  0  0  0  0  0  0  0
  185.8300  177.8720  143.6090 C   0  0  0  0  0  2  0  0  0  0  0  0
  186.9070  177.7140  145.7840 C   0  0  0  0  0  2  0  0  0  0  0  0
  187.0630  178.7280  139.8830 C   0  0  1  0  0  3  0  0  0  0  0  0
  182.8440  178.1710  141.0450 C   0  0  0  0  0  0  0  0  0  0  0  0
  187.4380  177.5160  136.6090 O   0  0  0  0  0  1  0  0  0  0  0  0
  188.3460  177.8700  139.9470 C   0  0  1  0  0  0  0  0  0  0  0  0
  190.2620  177.0670  141.4260 C   0  0  1  0  0  3  0  0  0  0  0  0
  183.7060  178.8100  141.7960 C   0  0  0  0  0  0  0  0  0  0  0  0
  187.1120  178.1520  144.3360 C   0  0  1  0  0  3  0  0  0  0  0  0
  1  4  1  0  0  0  0
  2 11  1  1  0  0  0
  2 26  1  0  0  0  0
  3 29  1  0  0  0  0
  5  6  1  0  0  0  0
  7 28  1  6  0  0  0
  7 11  1  0  0  0  0
  7  2  1  0  0  0  0
  7 17  1  0  0  0  0
  8 24  1  6  0  0  0
  8  5  1  0  0  0  0
 10 18  1  0  0  0  0
 13 32  1  0  0  0  0
 13 12  1  1  0  0  0
 14 19  1  0  0  0  0
 16 13  1  0  0  0  0
 18 12  1  0  0  0  0
 18  9  2  0  0  0  0
 19 31  1  0  0  0  0
 20 27  2  0  0  0  0
 21  3  1  0  0  0  0
 21 15  1  0  0  0  0
 22 30  1  0  0  0  0
 22 16  1  1  0  0  0
 23  4  2  0  0  0  0
 23  8  1  0  0  0  0
 25  6  1  0  0  0  0
 26 29  1  0  0  0  0
 26 14  1  1  0  0  0
 27 31  2  0  0  0  0
 29 17  1  6  0  0  0
 29 22  1  0  0  0  0
 30 15  1  6  0  0  0
 30 10  1  0  0  0  0
 31 23  1  0  0  0  0
 32 24  1  6  0  0  0
 32 25  1  0  0  0  0
M  END
>  <MODEL>
3

>  <REMARK>
 VINA RESULT:      -9.9      1.466      1.834
  Name = 
  0 active torsions:
  status: ('A' for Active; 'I' for Inactive)
                            x       y       z     vdW  Elec       q    Type
                         _______ _______ _______ _____ _____    ______ ____

>  <TORSDO>
F 0

$$$$
=
 OpenBabel11062412433D

 32 37  0  0  1  0  0  0  0  0999 V2000
  181.9150  178.4800  137.5880 C   0  0  0  0  0  1  0  0  0  0  0  0
  188.8340  178.2840  139.8900 N   0  0  1  0  0  0  0  0  0  0  0  0
  189.5270  178.9250  142.6940 O   0  0  0  0  0  0  0  0  0  0  0  0
  182.0070  178.6900  139.0630 C   0  0  0  0  0  3  0  0  0  0  0  0
  181.7180  178.7730  141.8360 N   0  0  0  0  0  2  0  0  0  0  0  0
  181.6920  179.2850  143.2180 C   0  0  0  0  0  2  0  0  0  0  0  0
  189.4760  177.0730  140.3480 C   0  0  2  0  0  0  0  0  0  0  0  0
  183.0490  179.0020  141.2540 C   0  0  2  0  0  3  0  0  0  0  0  0
  186.3720  178.1820  147.6580 O   0  0  0  0  0  0  0  0  0  0  0  0
  187.4530  177.1280  145.8650 C   0  0  0  0  0  2  0  0  0  0  0  0
  188.5390  177.0180  139.3780 O   0  0  0  0  0  0  0  0  0  0  0  0
  185.3420  178.7010  145.6110 C   0  0  0  0  0  2  0  0  0  0  0  0
  185.3600  178.3010  144.1320 C   0  0  2  0  0  3  0  0  0  0  0  0
  186.4820  178.1140  140.6310 C   0  0  0  0  0  2  0  0  0  0  0  0
  189.6570  177.4350  144.6890 C   0  0  0  0  0  2  0  0  0  0  0  0
  186.4970  178.8460  143.4950 O   0  0  0  0  0  0  0  0  0  0  0  0
  189.0590  176.7380  141.7640 C   0  0  0  0  0  2  0  0  0  0  0  0
  186.3900  178.0120  146.4500 C   0  0  0  0  0  0  0  0  0  0  0  0
  185.7350  179.0500  139.6810 C   0  0  0  0  0  2  0  0  0  0  0  0
  184.7690  176.6280  137.3450 O   0  0  0  0  0  0  0  0  0  0  0  0
  190.3820  178.3190  143.6620 C   0  0  0  0  0  2  0  0  0  0  0  0
  187.4800  177.8410  143.4590 C   0  0  1  0  0  3  0  0  0  0  0  0
  183.1390  178.6390  139.7850 C   0  0  0  0  0  0  0  0  0  0  0  0
  184.0460  178.2050  142.0600 C   0  0  0  0  0  2  0  0  0  0  0  0
  182.7780  178.6280  144.0920 C   0  0  0  0  0  2  0  0  0  0  0  0
  187.8880  178.6280  140.9680 C   0  0  1  0  0  3  0  0  0  0  0  0
  184.6290  177.4890  138.2230 C   0  0  0  0  0  0  0  0  0  0  0  0
  190.7980  176.9670  139.9190 O   0  0  0  0  0  1  0  0  0  0  0  0
  188.4810  178.0530  142.2730 C   0  0  1  0  0  0  0  0  0  0  0  0
  188.2200  177.8920  144.8050 C   0  0  1  0  0  3  0  0  0  0  0  0
  184.4830  178.3980  139.1540 C   0  0  0  0  0  0  0  0  0  0  0  0
  184.1300  178.8430  143.4150 C   0  0  1  0  0  3  0  0  0  0  0  0
  1  4  1  0  0  0  0
  2 11  1  6  0  0  0
  2  7  1  0  0  0  0
  2 26  1  0  0  0  0
  3 21  1  0  0  0  0
  4 23  2  0  0  0  0
  5  6  1  0  0  0  0
  6 25  1  0  0  0  0
  7 28  1  6  0  0  0
  7 17  1  0  0  0  0
  8  5  1  0  0  0  0
  8 24  1  1  0  0  0
 10 18  1  0  0  0  0
 11  7  1  0  0  0  0
 12 18  1  0  0  0  0
 13 12  1  1  0  0  0
 16 13  1  0  0  0  0
 18  9  2  0  0  0  0
 19 14  1  0  0  0  0
 20 27  2  0  0  0  0
 21 15  1  0  0  0  0
 22 16  1  1  0  0  0
 22 30  1  0  0  0  0
 23  8  1  0  0  0  0
 26 14  1  6  0  0  0
 26 29  1  0  0  0  0
 27 31  2  0  0  0  0
 29 17  1  6  0  0  0
 29  3  1  0  0  0  0
 29 22  1  0  0  0  0
 30 15  1  6  0  0  0
 30 10  1  0  0  0  0
 31 19  1  0  0  0  0
 31 23  1  0  0  0  0
 32 24  1  6  0  0  0
 32 25  1  0  0  0  0
 32 13  1  0  0  0  0
M  END
>  <MODEL>
4

>  <REMARK>
 VINA RESULT:      -9.6      2.200      3.658
  Name = 
  0 active torsions:
  status: ('A' for Active; 'I' for Inactive)
                            x       y       z     vdW  Elec       q    Type
                         _______ _______ _______ _____ _____    ______ ____

>  <TORSDO>
F 0

$$$$
=
 OpenBabel11062412433D

 32 37  0  0  1  0  0  0  0  0999 V2000
  191.6810  177.2040  143.9640 C   0  0  0  0  0  1  0  0  0  0  0  0
  184.9300  179.5080  142.4340 N   0  0  1  0  0  0  0  0  0  0  0  0
  184.0600  179.9260  139.6370 O   0  0  0  0  0  0  0  0  0  0  0  0
  191.4210  177.1980  142.4940 C   0  0  0  0  0  3  0  0  0  0  0  0
  191.2310  176.7160  139.7540 N   0  0  0  0  0  2  0  0  0  0  0  0
  191.2100  176.9480  138.2980 C   0  0  0  0  0  2  0  0  0  0  0  0
  183.8030  178.6120  142.3100 C   0  0  2  0  0  0  0  0  0  0  0  0
  190.2130  177.5610  140.3970 C   0  0  2  0  0  3  0  0  0  0  0  0
  185.7680  177.1810  134.6690 O   0  0  0  0  0  0  0  0  0  0  0  0
  184.6960  176.9600  136.7410 C   0  0  0  0  0  2  0  0  0  0  0  0
  184.8010  178.3300  143.1750 O   0  0  0  0  0  0  0  0  0  0  0  0
  187.2590  177.5460  136.4480 C   0  0  0  0  0  2  0  0  0  0  0  0
  187.3470  177.4270  137.9730 C   0  0  2  0  0  3  0  0  0  0  0  0
  186.8690  178.2720  141.5240 C   0  0  0  0  0  2  0  0  0  0  0  0
  183.0210  178.3280  138.0310 C   0  0  0  0  0  2  0  0  0  0  0  0
  186.6360  178.4840  138.5850 O   0  0  0  0  0  0  0  0  0  0  0  0
  183.8060  177.9170  140.9650 C   0  0  0  0  0  2  0  0  0  0  0  0
  185.8980  177.2250  135.8810 C   0  0  0  0  0  0  0  0  0  0  0  0
  188.0710  178.9560  142.1740 C   0  0  0  0  0  2  0  0  0  0  0  0
  188.4240  176.7520  144.8720 O   0  0  0  0  0  0  0  0  0  0  0  0
  182.8830  179.5810  138.9090 C   0  0  0  0  0  2  0  0  0  0  0  0
  185.3660  177.9910  138.9300 C   0  0  1  0  0  3  0  0  0  0  0  0
  190.2480  177.5030  141.9120 C   0  0  0  0  0  0  0  0  0  0  0  0
  188.8620  177.1280  139.8810 C   0  0  0  0  0  2  0  0  0  0  0  0
  189.8200  176.6660  137.6940 C   0  0  0  0  0  2  0  0  0  0  0  0
  185.7320  179.2590  141.2220 C   0  0  1  0  0  3  0  0  0  0  0  0
  188.7280  177.3290  143.8210 C   0  0  0  0  0  0  0  0  0  0  0  0
  182.6390  179.1280  142.8770 O   0  0  0  0  0  1  0  0  0  0  0  0
  184.7460  178.7800  140.1330 C   0  0  1  0  0  0  0  0  0  0  0  0
  184.4800  178.1290  137.6810 C   0  0  1  0  0  3  0  0  0  0  0  0
  189.0470  177.9390  142.7070 C   0  0  0  0  0  0  0  0  0  0  0  0
  188.7950  177.5210  138.4350 C   0  0  1  0  0  3  0  0  0  0  0  0
  2 11  1  1  0  0  0
  3 29  1  0  0  0  0
  4  1  1  0  0  0  0
  5  8  1  0  0  0  0
  6  5  1  0  0  0  0
  7  2  1  0  0  0  0
  7 28  1  1  0  0  0
  7 11  1  0  0  0  0
  8 24  1  6  0  0  0
  8 23  1  0  0  0  0
  9 18  2  0  0  0  0
 13 12  1  6  0  0  0
 13 32  1  0  0  0  0
 13 16  1  0  0  0  0
 14 19  1  0  0  0  0
 15 21  1  0  0  0  0
 17  7  1  0  0  0  0
 18 12  1  0  0  0  0
 18 10  1  0  0  0  0
 19 31  1  0  0  0  0
 21  3  1  0  0  0  0
 22 16  1  6  0  0  0
 22 29  1  0  0  0  0
 23  4  2  0  0  0  0
 23 31  1  0  0  0  0
 25  6  1  0  0  0  0
 26 14  1  1  0  0  0
 26  2  1  0  0  0  0
 27 20  2  0  0  0  0
 29 17  1  1  0  0  0
 29 26  1  0  0  0  0
 30 10  1  6  0  0  0
 30 15  1  0  0  0  0
 30 22  1  0  0  0  0
 31 27  2  0  0  0  0
 32 25  1  6  0  0  0
 32 24  1  0  0  0  0
M  END
>  <MODEL>
5

>  <REMARK>
 VINA RESULT:      -9.2      2.624      7.795
  Name = 
  0 active torsions:
  status: ('A' for Active; 'I' for Inactive)
                            x       y       z     vdW  Elec       q    Type
                         _______ _______ _______ _____ _____    ______ ____

>  <TORSDO>
F 0

$$$$
=
 OpenBabel11062412433D

 32 37  0  0  1  0  0  0  0  0999 V2000
  189.7500  177.2820  146.9160 C   0  0  0  0  0  1  0  0  0  0  0  0
  184.1550  179.4600  142.7730 N   0  0  1  0  0  0  0  0  0  0  0  0
  184.5060  179.9600  139.8780 O   0  0  0  0  0  0  0  0  0  0  0  0
  190.1230  177.3240  145.4710 C   0  0  0  0  0  3  0  0  0  0  0  0
  191.1060  176.9410  142.8890 N   0  0  0  0  0  2  0  0  0  0  0  0
  191.6810  177.2270  141.5620 C   0  0  0  0  0  2  0  0  0  0  0  0
  183.2170  178.5400  142.1710 C   0  0  2  0  0  0  0  0  0  0  0  0
  189.8800  177.7340  143.0720 C   0  0  2  0  0  3  0  0  0  0  0  0
  188.2280  177.4500  136.0060 O   0  0  0  0  0  0  0  0  0  0  0  0
  186.4030  177.1230  137.4410 C   0  0  0  0  0  2  0  0  0  0  0  0
  183.7780  178.2530  143.3660 O   0  0  0  0  0  0  0  0  0  0  0  0
  188.8310  177.7880  138.2520 C   0  0  0  0  0  2  0  0  0  0  0  0
  188.2840  177.6140  139.6730 C   0  0  2  0  0  3  0  0  0  0  0  0
  186.3440  178.3120  142.7220 C   0  0  0  0  0  2  0  0  0  0  0  0
  184.2910  178.3960  137.9480 C   0  0  0  0  0  2  0  0  0  0  0  0
  187.3420  178.6280  139.9580 O   0  0  0  0  0  0  0  0  0  0  0  0
  183.8040  177.8960  140.9340 C   0  0  0  0  0  2  0  0  0  0  0  0
  187.8410  177.4520  137.1640 C   0  0  0  0  0  0  0  0  0  0  0  0
  187.1400  179.0030  143.8290 C   0  0  0  0  0  2  0  0  0  0  0  0
  186.4310  176.7090  146.3780 O   0  0  0  0  0  0  0  0  0  0  0  0
  183.7510  179.6110  138.7190 C   0  0  0  0  0  2  0  0  0  0  0  0
  186.0640  178.0890  139.7330 C   0  0  1  0  0  3  0  0  0  0  0  0
  189.2860  177.6200  144.4620 C   0  0  0  0  0  0  0  0  0  0  0  0
  188.8830  177.2840  142.0300 C   0  0  0  0  0  2  0  0  0  0  0  0
  190.6790  176.9300  140.4290 C   0  0  0  0  0  2  0  0  0  0  0  0
  185.3960  179.2780  141.9980 C   0  0  1  0  0  3  0  0  0  0  0  0
  187.1200  177.3330  145.5620 C   0  0  0  0  0  0  0  0  0  0  0  0
  181.9030  179.0030  142.2150 O   0  0  0  0  0  1  0  0  0  0  0  0
  184.9700  178.8150  140.5870 C   0  0  1  0  0  0  0  0  0  0  0  0
  185.7700  178.2500  138.2320 C   0  0  1  0  0  3  0  0  0  0  0  0
  187.8480  177.9930  144.6960 C   0  0  0  0  0  0  0  0  0  0  0  0
  189.4050  177.7290  140.6970 C   0  0  1  0  0  3  0  0  0  0  0  0
  2 11  1  1  0  0  0
  3 29  1  0  0  0  0
  4  1  1  0  0  0  0
  5  8  1  0  0  0  0
  6  5  1  0  0  0  0
  7 28  1  6  0  0  0
  7  2  1  0  0  0  0
  7 11  1  0  0  0  0
  8 24  1  6  0  0  0
  8 23  1  0  0  0  0
  9 18  2  0  0  0  0
 13 12  1  6  0  0  0
 13 16  1  0  0  0  0
 13 32  1  0  0  0  0
 14 19  1  0  0  0  0
 15 30  1  0  0  0  0
 15 21  1  0  0  0  0
 17  7  1  0  0  0  0
 18 10  1  0  0  0  0
 18 12  1  0  0  0  0
 19 31  1  0  0  0  0
 21  3  1  0  0  0  0
 22 16  1  6  0  0  0
 22 29  1  0  0  0  0
 23 31  1  0  0  0  0
 23  4  2  0  0  0  0
 25  6  1  0  0  0  0
 26 14  1  1  0  0  0
 26  2  1  0  0  0  0
 27 20  2  0  0  0  0
 29 17  1  1  0  0  0
 29 26  1  0  0  0  0
 30 10  1  6  0  0  0
 30 22  1  0  0  0  0
 31 27  2  0  0  0  0
 32 25  1  6  0  0  0
 32 24  1  0  0  0  0
M  END
>  <MODEL>
6

>  <REMARK>
 VINA RESULT:      -9.1      2.215      6.731
  Name = 
  0 active torsions:
  status: ('A' for Active; 'I' for Inactive)
                            x       y       z     vdW  Elec       q    Type
                         _______ _______ _______ _____ _____    ______ ____

>  <TORSDO>
F 0

$$$$
=
 OpenBabel11062412433D

 32 37  0  0  1  0  0  0  0  0999 V2000
  189.7390  177.5020  147.4390 C   0  0  0  0  0  1  0  0  0  0  0  0
  190.3580  176.4370  140.2490 N   0  0  1  0  0  0  0  0  0  0  0  0
  187.9770  176.4750  138.4920 O   0  0  0  0  0  0  0  0  0  0  0  0
  188.4370  177.7140  146.7410 C   0  0  0  0  0  3  0  0  0  0  0  0
  185.9400  178.5260  145.7980 N   0  0  0  0  0  2  0  0  0  0  0  0
  184.5600  178.4660  145.2850 C   0  0  0  0  0  2  0  0  0  0  0  0
  190.6600  177.5010  139.3200 C   0  0  2  0  0  0  0  0  0  0  0  0
  186.8300  177.7780  144.8970 C   0  0  2  0  0  3  0  0  0  0  0  0
  182.8930  179.4730  139.0360 O   0  0  0  0  0  0  0  0  0  0  0  0
  185.2100  179.6180  138.7200 C   0  0  0  0  0  2  0  0  0  0  0  0
  191.1680  177.5290  140.5710 O   0  0  0  0  0  0  0  0  0  0  0  0
  184.0650  178.6870  140.9140 C   0  0  0  0  0  2  0  0  0  0  0  0
  185.4830  178.6180  141.4920 C   0  0  2  0  0  3  0  0  0  0  0  0
  188.9400  177.4590  141.9980 C   0  0  0  0  0  2  0  0  0  0  0  0
  186.8930  178.3830  137.3110 C   0  0  0  0  0  2  0  0  0  0  0  0
  186.2300  177.6190  140.8290 O   0  0  0  0  0  0  0  0  0  0  0  0
  189.4310  178.3360  139.0290 C   0  0  0  0  0  2  0  0  0  0  0  0
  183.9920  179.2730  139.5260 C   0  0  0  0  0  0  0  0  0  0  0  0
  189.1220  176.5320  143.1990 C   0  0  0  0  0  2  0  0  0  0  0  0
  191.6820  178.3380  144.7630 O   0  0  0  0  0  0  0  0  0  0  0  0
  187.6930  177.0750  137.2290 C   0  0  0  0  0  2  0  0  0  0  0  0
  186.9980  178.2560  139.8390 C   0  0  1  0  0  3  0  0  0  0  0  0
  188.2510  177.6580  145.4110 C   0  0  0  0  0  0  0  0  0  0  0  0
  186.8070  178.4660  143.5530 C   0  0  0  0  0  2  0  0  0  0  0  0
  184.4580  179.0220  143.8510 C   0  0  0  0  0  2  0  0  0  0  0  0
  188.9670  176.6970  140.6650 C   0  0  1  0  0  3  0  0  0  0  0  0
  190.5570  177.8440  144.6170 C   0  0  0  0  0  0  0  0  0  0  0  0
  191.5440  177.1070  138.3170 O   0  0  0  0  0  1  0  0  0  0  0  0
  188.2890  177.4400  139.4930 C   0  0  1  0  0  0  0  0  0  0  0  0
  186.1000  178.3970  138.5990 C   0  0  1  0  0  3  0  0  0  0  0  0
  189.3660  177.3220  144.4590 C   0  0  0  0  0  0  0  0  0  0  0  0
  185.4420  178.2540  142.9710 C   0  0  1  0  0  3  0  0  0  0  0  0
  2 11  1  1  0  0  0
  2 26  1  0  0  0  0
  3 29  1  0  0  0  0
  4  1  1  0  0  0  0
  6  5  1  0  0  0  0
  7 28  1  6  0  0  0
  7  2  1  0  0  0  0
  7 11  1  0  0  0  0
  8 24  1  6  0  0  0
  8 23  1  0  0  0  0
  8  5  1  0  0  0  0
  9 18  2  0  0  0  0
 10 18  1  0  0  0  0
 13 12  1  6  0  0  0
 13 32  1  0  0  0  0
 14 19  1  0  0  0  0
 16 13  1  0  0  0  0
 17  7  1  0  0  0  0
 18 12  1  0  0  0  0
 19 31  1  0  0  0  0
 21 15  1  0  0  0  0
 21  3  1  0  0  0  0
 22 16  1  1  0  0  0
 23  4  2  0  0  0  0
 25  6  1  0  0  0  0
 26 14  1  1  0  0  0
 27 20  2  0  0  0  0
 29 17  1  6  0  0  0
 29 22  1  0  0  0  0
 29 26  1  0  0  0  0
 30 15  1  6  0  0  0
 30 10  1  0  0  0  0
 30 22  1  0  0  0  0
 31 27  2  0  0  0  0
 31 23  1  0  0  0  0
 32 24  1  1  0  0  0
 32 25  1  0  0  0  0
M  END
>  <MODEL>
7

>  <REMARK>
 VINA RESULT:      -8.8      1.798      5.715
  Name = 
  0 active torsions:
  status: ('A' for Active; 'I' for Inactive)
                            x       y       z     vdW  Elec       q    Type
                         _______ _______ _______ _____ _____    ______ ____

>  <TORSDO>
F 0

$$$$
