=
 OpenBabel11062412313D

 33 35  0  0  1  0  0  0  0  0999 V2000
  184.6440  178.9260  144.7830 C   0  0  0  0  0  3  0  0  0  0  0  0
  186.4750  177.8330  143.6250 C   0  0  0  0  0  0  0  0  0  0  0  0
  185.8970  178.3070  144.8110 C   0  0  0  0  0  3  0  0  0  0  0  0
  185.8000  177.9990  142.4130 C   0  0  0  0  0  3  0  0  0  0  0  0
  184.5480  178.6210  142.3790 C   0  0  0  0  0  0  0  0  0  0  0  0
  183.9700  179.0850  143.5690 C   0  0  0  0  0  3  0  0  0  0  0  0
  187.8350  177.2100  143.6160 C   0  0  2  0  0  3  0  0  0  0  0  0
  188.2110  176.7930  144.8960 O   0  0  0  0  0  1  0  0  0  0  0  0
  190.0880  178.3600  143.8950 C   0  0  0  0  0  1  0  0  0  0  0  0
  188.8810  178.1390  142.9930 C   0  0  1  0  0  3  0  0  0  0  0  0
  189.4650  177.2830  139.5710 C   0  0  0  0  0  0  0  0  0  0  0  0
  189.2950  177.6390  141.6880 N   0  0  0  0  0  0  0  0  0  0  0  0
  190.1630  176.6590  141.4910 N   0  0  0  0  0  0  0  0  0  0  0  0
  190.2930  176.4240  140.1960 N   0  0  0  0  0  0  0  0  0  0  0  0
  188.8210  178.0680  140.5060 C   0  0  0  0  0  3  0  0  0  0  0  0
  189.3210  177.3840  138.0920 C   0  0  0  0  0  2  0  0  0  0  0  0
  187.1120  178.4820  137.7210 O   0  0  0  0  0  1  0  0  0  0  0  0
  189.0600  179.6510  137.4130 O   0  0  0  0  0  0  0  0  0  0  0  0
  188.4970  178.5720  137.7330 C   0  0  0  0  0  0  0  0  0  0  0  0
  183.8740  178.8170  141.0530 C   0  0  1  0  0  3  0  0  0  0  0  0
  184.7590  179.4370  140.0950 N   0  0  0  0  0  0  0  0  0  0  0  0
  184.3250  180.2090  139.2180 N   0  0  0  0  0  2  0  0  0  0  0  0
  183.3480  177.5600  140.5280 N   0  0  0  0  0  2  0  0  0  0  0  0
  181.6930  178.5920  138.7410 O   0  0  0  0  0  0  0  0  0  0  0  0
  181.7060  177.8010  140.0200 S   0  0  0  0  0  0  0  0  0  0  0  0
  181.0590  176.4680  139.7660 O   0  0  0  0  0  0  0  0  0  0  0  0
  179.3720  180.0760  143.2050 C   0  0  0  0  0  3  0  0  0  0  0  0
  179.5840  178.2060  144.6690 F   0  0  0  0  0  0  0  0  0  0  0  0
  179.8310  178.7820  143.4670 C   0  0  0  0  0  0  0  0  0  0  0  0
  180.3380  179.9690  140.9870 C   0  0  0  0  0  3  0  0  0  0  0  0
  180.7960  178.6720  141.2460 C   0  0  0  0  0  0  0  0  0  0  0  0
  180.5430  178.0810  142.4890 C   0  0  0  0  0  3  0  0  0  0  0  0
  179.6260  180.6700  141.9650 C   0  0  0  0  0  3  0  0  0  0  0  0
  1  3  1  0  0  0  0
  2  3  2  0  0  0  0
  4  2  1  0  0  0  0
  5  4  2  0  0  0  0
  5  6  1  0  0  0  0
  6  1  2  0  0  0  0
  7  2  1  0  0  0  0
  7  8  1  1  0  0  0
 10  7  1  0  0  0  0
 10  9  1  1  0  0  0
 11 14  1  0  0  0  0
 11 15  2  0  0  0  0
 12 10  1  0  0  0  0
 13 12  1  0  0  0  0
 14 13  2  0  0  0  0
 15 12  1  0  0  0  0
 16 11  1  0  0  0  0
 17 19  1  0  0  0  0
 18 19  2  0  0  0  0
 19 16  1  0  0  0  0
 20 21  1  6  0  0  0
 20  5  1  0  0  0  0
 22 21  2  0  0  0  0
 23 20  1  0  0  0  0
 24 25  2  0  0  0  0
 25 23  1  0  0  0  0
 25 31  1  0  0  0  0
 26 25  2  0  0  0  0
 27 29  1  0  0  0  0
 29 28  1  0  0  0  0
 30 31  2  0  0  0  0
 30 33  1  0  0  0  0
 31 32  1  0  0  0  0
 32 29  2  0  0  0  0
 33 27  2  0  0  0  0
M  END
>  <MODEL>
1

>  <REMARK>
 VINA RESULT:      -8.3      0.000      0.000
  Name = 
  10 active torsions:
  status: ('A' for Active; 'I' for Inactive)
    1  A    between atoms: C_2  and  C_18
    2  A    between atoms: N_4  and  C_15
    3  A    between atoms: C_6  and  C_20
    4  A    between atoms: N_10  and  C_26
    5  A    between atoms: C_15  and  C_27
    6  A    between atoms: C_15  and  N_30
    7  A    between atoms: S_17  and  C_21
    8  A    between atoms: S_17  and  N_30
    9  A    between atoms: C_18  and  C_33
   10  A    between atoms: C_20  and  C_26
                            x       y       z     vdW  Elec       q    Type
                         _______ _______ _______ _____ _____    ______ ____

>  <TORSDO>
F 10

$$$$
=
 OpenBabel11062412313D

 33 35  0  0  1  0  0  0  0  0999 V2000
  192.9140  177.2970  139.7350 C   0  0  0  0  0  3  0  0  0  0  0  0
  190.7450  176.3950  139.1260 C   0  0  0  0  0  0  0  0  0  0  0  0
  192.0610  176.7340  138.7810 C   0  0  0  0  0  3  0  0  0  0  0  0
  190.2860  176.6380  140.4230 C   0  0  0  0  0  3  0  0  0  0  0  0
  191.1340  177.2040  141.3800 C   0  0  0  0  0  0  0  0  0  0  0  0
  192.4510  177.5340  141.0330 C   0  0  0  0  0  3  0  0  0  0  0  0
  189.7940  175.8350  138.1150 C   0  0  2  0  0  3  0  0  0  0  0  0
  190.2090  174.5770  137.6690 O   0  0  0  0  0  1  0  0  0  0  0  0
  189.5510  176.1070  135.5970 C   0  0  0  0  0  1  0  0  0  0  0  0
  189.5700  176.8040  136.9510 C   0  0  1  0  0  3  0  0  0  0  0  0
  186.3250  178.1560  137.6030 C   0  0  0  0  0  0  0  0  0  0  0  0
  188.3490  177.5730  137.1540 N   0  0  0  0  0  0  0  0  0  0  0  0
  188.1990  178.8530  136.8510 N   0  0  0  0  0  0  0  0  0  0  0  0
  186.9640  179.2400  137.1250 N   0  0  0  0  0  0  0  0  0  0  0  0
  187.1930  177.0820  137.6310 C   0  0  0  0  0  3  0  0  0  0  0  0
  184.9110  178.1530  138.0700 C   0  0  0  0  0  2  0  0  0  0  0  0
  185.1160  178.7000  140.4950 O   0  0  0  0  0  1  0  0  0  0  0  0
  184.2350  180.2250  139.0270 O   0  0  0  0  0  0  0  0  0  0  0  0
  184.7420  179.0900  139.2150 C   0  0  0  0  0  0  0  0  0  0  0  0
  190.5910  177.4880  142.7500 C   0  0  1  0  0  3  0  0  0  0  0  0
  191.5280  178.2480  143.5450 N   0  0  0  0  0  0  0  0  0  0  0  0
  191.2520  179.3920  143.9520 N   0  0  0  0  0  2  0  0  0  0  0  0
  189.3010  178.1700  142.6840 N   0  0  0  0  0  2  0  0  0  0  0  0
  186.7540  177.4780  142.8420 O   0  0  0  0  0  0  0  0  0  0  0  0
  188.0970  177.1780  143.4460 S   0  0  0  0  0  0  0  0  0  0  0  0
  188.4170  175.7290  143.2060 O   0  0  0  0  0  0  0  0  0  0  0  0
  187.9390  178.0130  147.9230 C   0  0  0  0  0  3  0  0  0  0  0  0
  190.2290  177.3750  148.1030 F   0  0  0  0  0  0  0  0  0  0  0  0
  189.1260  177.5610  147.3380 C   0  0  0  0  0  0  0  0  0  0  0  0
  186.8490  177.9440  145.7610 C   0  0  0  0  0  3  0  0  0  0  0  0
  188.0360  177.4890  145.1740 C   0  0  0  0  0  0  0  0  0  0  0  0
  189.1750  177.3000  145.9650 C   0  0  0  0  0  3  0  0  0  0  0  0
  186.8000  178.2050  147.1340 C   0  0  0  0  0  3  0  0  0  0  0  0
  1  6  1  0  0  0  0
  2  4  2  0  0  0  0
  3  2  1  0  0  0  0
  3  1  2  0  0  0  0
  4  5  1  0  0  0  0
  5 20  1  0  0  0  0
  6  5  2  0  0  0  0
  7  8  1  6  0  0  0
  7  2  1  0  0  0  0
 10  9  1  6  0  0  0
 10 12  1  0  0  0  0
 10  7  1  0  0  0  0
 11 15  2  0  0  0  0
 11 16  1  0  0  0  0
 12 15  1  0  0  0  0
 13 14  2  0  0  0  0
 13 12  1  0  0  0  0
 14 11  1  0  0  0  0
 16 19  1  0  0  0  0
 18 19  2  0  0  0  0
 19 17  1  0  0  0  0
 20 23  1  6  0  0  0
 20 21  1  0  0  0  0
 21 22  2  0  0  0  0
 23 25  1  0  0  0  0
 24 25  2  0  0  0  0
 25 31  1  0  0  0  0
 26 25  2  0  0  0  0
 29 27  1  0  0  0  0
 29 28  1  0  0  0  0
 30 33  1  0  0  0  0
 31 30  2  0  0  0  0
 31 32  1  0  0  0  0
 32 29  2  0  0  0  0
 33 27  2  0  0  0  0
M  END
>  <MODEL>
2

>  <REMARK>
 VINA RESULT:      -8.3      4.237      7.345
  Name = 
  10 active torsions:
  status: ('A' for Active; 'I' for Inactive)
    1  A    between atoms: C_2  and  C_18
    2  A    between atoms: N_4  and  C_15
    3  A    between atoms: C_6  and  C_20
    4  A    between atoms: N_10  and  C_26
    5  A    between atoms: C_15  and  C_27
    6  A    between atoms: C_15  and  N_30
    7  A    between atoms: S_17  and  C_21
    8  A    between atoms: S_17  and  N_30
    9  A    between atoms: C_18  and  C_33
   10  A    between atoms: C_20  and  C_26
                            x       y       z     vdW  Elec       q    Type
                         _______ _______ _______ _____ _____    ______ ____

>  <TORSDO>
F 10

$$$$
=
 OpenBabel11062412313D

 33 35  0  0  1  0  0  0  0  0999 V2000
  192.9490  177.4290  139.8350 C   0  0  0  0  0  3  0  0  0  0  0  0
  190.7780  176.5430  139.2070 C   0  0  0  0  0  0  0  0  0  0  0  0
  192.0920  176.8960  138.8670 C   0  0  0  0  0  3  0  0  0  0  0  0
  190.3250  176.7430  140.5130 C   0  0  0  0  0  3  0  0  0  0  0  0
  191.1770  177.2790  141.4840 C   0  0  0  0  0  0  0  0  0  0  0  0
  192.4920  177.6230  141.1410 C   0  0  0  0  0  3  0  0  0  0  0  0
  189.8240  176.0150  138.1830 C   0  0  2  0  0  3  0  0  0  0  0  0
  190.2410  174.7740  137.6920 O   0  0  0  0  0  1  0  0  0  0  0  0
  189.6250  176.3800  135.6730 C   0  0  0  0  0  1  0  0  0  0  0  0
  189.5900  177.0220  137.0530 C   0  0  1  0  0  3  0  0  0  0  0  0
  186.3130  178.2510  137.7810 C   0  0  0  0  0  0  0  0  0  0  0  0
  188.3380  177.7380  137.2590 N   0  0  0  0  0  0  0  0  0  0  0  0
  188.0910  178.9700  136.8420 N   0  0  0  0  0  0  0  0  0  0  0  0
  186.8530  179.3150  137.1570 N   0  0  0  0  0  0  0  0  0  0  0  0
  187.2450  177.2350  137.8580 C   0  0  0  0  0  3  0  0  0  0  0  0
  184.9310  178.2170  138.3380 C   0  0  0  0  0  2  0  0  0  0  0  0
  183.8000  180.3230  139.0500 O   0  0  0  0  0  0  0  0  0  0  0  0
  185.4450  179.3890  140.3460 O   0  0  0  0  0  1  0  0  0  0  0  0
  184.7380  179.3310  139.3070 C   0  0  0  0  0  0  0  0  0  0  0  0
  190.6400  177.5170  142.8650 C   0  0  1  0  0  3  0  0  0  0  0  0
  191.4450  178.4730  143.5890 N   0  0  0  0  0  0  0  0  0  0  0  0
  190.9650  179.5520  143.9870 N   0  0  0  0  0  2  0  0  0  0  0  0
  189.2430  177.9410  142.8310 N   0  0  0  0  0  2  0  0  0  0  0  0
  188.0200  175.6360  143.2610 O   0  0  0  0  0  0  0  0  0  0  0  0
  188.3240  176.9520  143.9220 S   0  0  0  0  0  0  0  0  0  0  0  0
  189.1320  176.6900  145.1620 O   0  0  0  0  0  0  0  0  0  0  0  0
  184.4030  178.9730  145.0660 C   0  0  0  0  0  3  0  0  0  0  0  0
  183.7110  178.8750  142.7860 F   0  0  0  0  0  0  0  0  0  0  0  0
  184.6440  178.6190  143.7350 C   0  0  0  0  0  0  0  0  0  0  0  0
  186.5720  178.0930  145.6910 C   0  0  0  0  0  3  0  0  0  0  0  0
  186.8160  177.7410  144.3590 C   0  0  0  0  0  0  0  0  0  0  0  0
  185.8490  178.0030  143.3820 C   0  0  0  0  0  3  0  0  0  0  0  0
  185.3670  178.7100  146.0440 C   0  0  0  0  0  3  0  0  0  0  0  0
  1  6  1  0  0  0  0
  2  4  2  0  0  0  0
  3  2  1  0  0  0  0
  3  1  2  0  0  0  0
  4  5  1  0  0  0  0
  5 20  1  0  0  0  0
  6  5  2  0  0  0  0
  7  8  1  6  0  0  0
  7  2  1  0  0  0  0
 10  9  1  6  0  0  0
 10 12  1  0  0  0  0
 10  7  1  0  0  0  0
 11 15  2  0  0  0  0
 11 16  1  0  0  0  0
 12 15  1  0  0  0  0
 13 14  2  0  0  0  0
 13 12  1  0  0  0  0
 14 11  1  0  0  0  0
 16 19  1  0  0  0  0
 17 19  2  0  0  0  0
 19 18  1  0  0  0  0
 20 23  1  6  0  0  0
 20 21  1  0  0  0  0
 21 22  2  0  0  0  0
 23 25  1  0  0  0  0
 24 25  2  0  0  0  0
 25 31  1  0  0  0  0
 25 26  2  0  0  0  0
 27 33  1  0  0  0  0
 28 29  1  0  0  0  0
 29 27  2  0  0  0  0
 30 33  2  0  0  0  0
 31 30  1  0  0  0  0
 32 29  1  0  0  0  0
 32 31  2  0  0  0  0
M  END
>  <MODEL>
3

>  <REMARK>
 VINA RESULT:      -8.2      3.419      6.642
  Name = 
  10 active torsions:
  status: ('A' for Active; 'I' for Inactive)
    1  A    between atoms: C_2  and  C_18
    2  A    between atoms: N_4  and  C_15
    3  A    between atoms: C_6  and  C_20
    4  A    between atoms: N_10  and  C_26
    5  A    between atoms: C_15  and  C_27
    6  A    between atoms: C_15  and  N_30
    7  A    between atoms: S_17  and  C_21
    8  A    between atoms: S_17  and  N_30
    9  A    between atoms: C_18  and  C_33
   10  A    between atoms: C_20  and  C_26
                            x       y       z     vdW  Elec       q    Type
                         _______ _______ _______ _____ _____    ______ ____

>  <TORSDO>
F 10

$$$$
=
 OpenBabel11062412313D

 33 35  0  0  1  0  0  0  0  0999 V2000
  185.7120  178.0200  145.4380 C   0  0  0  0  0  3  0  0  0  0  0  0
  184.5630  178.6760  143.4020 C   0  0  0  0  0  0  0  0  0  0  0  0
  184.5670  178.4990  144.7940 C   0  0  0  0  0  3  0  0  0  0  0  0
  185.7040  178.3550  142.6620 C   0  0  0  0  0  3  0  0  0  0  0  0
  186.8510  177.8730  143.3010 C   0  0  0  0  0  0  0  0  0  0  0  0
  186.8520  177.7060  144.6930 C   0  0  0  0  0  3  0  0  0  0  0  0
  183.3390  179.1400  142.6790 C   0  0  2  0  0  3  0  0  0  0  0  0
  182.2730  179.3380  143.5620 O   0  0  0  0  0  1  0  0  0  0  0  0
  181.4660  178.1830  141.2480 C   0  0  0  0  0  1  0  0  0  0  0  0
  182.9610  178.1930  141.5380 C   0  0  1  0  0  3  0  0  0  0  0  0
  184.8110  178.3800  138.4850 C   0  0  0  0  0  0  0  0  0  0  0  0
  183.7190  178.5140  140.3360 N   0  0  0  0  0  0  0  0  0  0  0  0
  184.1940  179.7120  140.0350 N   0  0  0  0  0  0  0  0  0  0  0  0
  184.8640  179.6610  138.8960 N   0  0  0  0  0  0  0  0  0  0  0  0
  184.0830  177.6320  139.3880 C   0  0  0  0  0  3  0  0  0  0  0  0
  185.4130  177.8800  137.2170 C   0  0  0  0  0  2  0  0  0  0  0  0
  187.5980  179.0740  137.0650 O   0  0  0  0  0  0  0  0  0  0  0  0
  187.5250  176.8400  137.5780 O   0  0  0  0  0  1  0  0  0  0  0  0
  186.8990  177.8990  137.3080 C   0  0  0  0  0  0  0  0  0  0  0  0
  188.0410  177.5000  142.4670 C   0  0  1  0  0  3  0  0  0  0  0  0
  187.8400  177.8390  141.0760 N   0  0  0  0  0  0  0  0  0  0  0  0
  188.7210  178.4280  140.4210 N   0  0  0  0  0  2  0  0  0  0  0  0
  189.2650  178.1150  142.9740 N   0  0  0  0  0  2  0  0  0  0  0  0
  189.9160  175.5620  142.7480 O   0  0  0  0  0  0  0  0  0  0  0  0
  190.4480  176.8750  143.2500 S   0  0  0  0  0  0  0  0  0  0  0  0
  191.7050  177.2040  142.4930 O   0  0  0  0  0  0  0  0  0  0  0  0
  191.3850  176.4800  147.6930 C   0  0  0  0  0  3  0  0  0  0  0  0
  189.5050  177.8600  148.1910 F   0  0  0  0  0  0  0  0  0  0  0  0
  190.2890  177.2420  147.2750 C   0  0  0  0  0  0  0  0  0  0  0  0
  191.9080  175.9690  145.3830 C   0  0  0  0  0  3  0  0  0  0  0  0
  190.8140  176.7330  144.9630 C   0  0  0  0  0  0  0  0  0  0  0  0
  190.0030  177.3680  145.9120 C   0  0  0  0  0  3  0  0  0  0  0  0
  192.1940  175.8430  146.7470 C   0  0  0  0  0  3  0  0  0  0  0  0
  2  3  2  0  0  0  0
  3  1  1  0  0  0  0
  4  5  2  0  0  0  0
  4  2  1  0  0  0  0
  5  6  1  0  0  0  0
  6  1  2  0  0  0  0
  7  2  1  0  0  0  0
  7  8  1  1  0  0  0
 10  9  1  6  0  0  0
 10  7  1  0  0  0  0
 11 14  1  0  0  0  0
 11 15  2  0  0  0  0
 12 10  1  0  0  0  0
 13 12  1  0  0  0  0
 14 13  2  0  0  0  0
 15 12  1  0  0  0  0
 16 19  1  0  0  0  0
 16 11  1  0  0  0  0
 17 19  2  0  0  0  0
 19 18  1  0  0  0  0
 20 21  1  6  0  0  0
 20 23  1  0  0  0  0
 20  5  1  0  0  0  0
 22 21  2  0  0  0  0
 23 25  1  0  0  0  0
 24 25  2  0  0  0  0
 25 31  1  0  0  0  0
 26 25  2  0  0  0  0
 29 27  1  0  0  0  0
 29 28  1  0  0  0  0
 30 33  1  0  0  0  0
 31 30  2  0  0  0  0
 31 32  1  0  0  0  0
 32 29  2  0  0  0  0
 33 27  2  0  0  0  0
M  END
>  <MODEL>
4

>  <REMARK>
 VINA RESULT:      -8.2      3.339      7.434
  Name = 
  10 active torsions:
  status: ('A' for Active; 'I' for Inactive)
    1  A    between atoms: C_2  and  C_18
    2  A    between atoms: N_4  and  C_15
    3  A    between atoms: C_6  and  C_20
    4  A    between atoms: N_10  and  C_26
    5  A    between atoms: C_15  and  C_27
    6  A    between atoms: C_15  and  N_30
    7  A    between atoms: S_17  and  C_21
    8  A    between atoms: S_17  and  N_30
    9  A    between atoms: C_18  and  C_33
   10  A    between atoms: C_20  and  C_26
                            x       y       z     vdW  Elec       q    Type
                         _______ _______ _______ _____ _____    ______ ____

>  <TORSDO>
F 10

$$$$
=
 OpenBabel11062412313D

 33 35  0  0  1  0  0  0  0  0999 V2000
  188.5440  178.2910  138.5310 C   0  0  0  0  0  3  0  0  0  0  0  0
  190.5800  177.0500  138.0780 C   0  0  0  0  0  0  0  0  0  0  0  0
  189.4530  177.7470  137.6190 C   0  0  0  0  0  3  0  0  0  0  0  0
  190.7790  176.8880  139.4510 C   0  0  0  0  0  3  0  0  0  0  0  0
  189.8710  177.4270  140.3670 C   0  0  0  0  0  0  0  0  0  0  0  0
  188.7510  178.1300  139.9030 C   0  0  0  0  0  3  0  0  0  0  0  0
  191.5450  176.4150  137.1260 C   0  0  2  0  0  3  0  0  0  0  0  0
  190.9770  176.2550  135.8590 O   0  0  0  0  0  1  0  0  0  0  0  0
  191.4040  173.8750  137.0760 C   0  0  0  0  0  1  0  0  0  0  0  0
  192.0940  175.0940  137.6720 C   0  0  1  0  0  3  0  0  0  0  0  0
  195.6090  174.4510  137.5860 C   0  0  0  0  0  0  0  0  0  0  0  0
  193.5350  175.0210  137.4760 N   0  0  0  0  0  0  0  0  0  0  0  0
  194.2530  175.8920  136.7830 N   0  0  0  0  0  0  0  0  0  0  0  0
  195.5320  175.5600  136.8260 N   0  0  0  0  0  0  0  0  0  0  0  0
  194.3450  174.0890  138.0080 C   0  0  0  0  0  3  0  0  0  0  0  0
  196.8730  173.7150  137.8710 C   0  0  0  0  0  2  0  0  0  0  0  0
  199.0670  174.8420  137.4990 O   0  0  0  0  0  0  0  0  0  0  0  0
  197.8330  175.2870  139.3800 O   0  0  0  0  0  1  0  0  0  0  0  0
  197.9400  174.6650  138.2910 C   0  0  0  0  0  0  0  0  0  0  0  0
  190.0990  177.1950  141.8320 C   0  0  1  0  0  3  0  0  0  0  0  0
  191.4980  177.3050  142.1750 N   0  0  0  0  0  0  0  0  0  0  0  0
  191.8690  177.3760  143.3630 N   0  0  0  0  0  2  0  0  0  0  0  0
  189.2970  178.1020  142.6490 N   0  0  0  0  0  2  0  0  0  0  0  0
  186.7150  177.6310  142.9770 O   0  0  0  0  0  0  0  0  0  0  0  0
  188.0660  177.1890  143.4660 S   0  0  0  0  0  0  0  0  0  0  0  0
  188.2360  175.7290  143.1540 O   0  0  0  0  0  0  0  0  0  0  0  0
  188.3080  177.8540  147.9680 C   0  0  0  0  0  3  0  0  0  0  0  0
  190.6120  177.2430  147.9150 F   0  0  0  0  0  0  0  0  0  0  0  0
  189.4420  177.4420  147.2610 C   0  0  0  0  0  0  0  0  0  0  0  0
  187.0260  177.8500  145.9130 C   0  0  0  0  0  3  0  0  0  0  0  0
  188.1590  177.4340  145.2040 C   0  0  0  0  0  0  0  0  0  0  0  0
  189.3680  177.2330  145.8800 C   0  0  0  0  0  3  0  0  0  0  0  0
  187.1000  178.0580  147.2940 C   0  0  0  0  0  3  0  0  0  0  0  0
  1  6  1  0  0  0  0
  2  4  2  0  0  0  0
  3  2  1  0  0  0  0
  3  1  2  0  0  0  0
  4  5  1  0  0  0  0
  5 20  1  0  0  0  0
  6  5  2  0  0  0  0
  7  8  1  6  0  0  0
  7 10  1  0  0  0  0
  7  2  1  0  0  0  0
 10  9  1  6  0  0  0
 11 16  1  0  0  0  0
 11 15  2  0  0  0  0
 12 10  1  0  0  0  0
 12 15  1  0  0  0  0
 13 14  2  0  0  0  0
 13 12  1  0  0  0  0
 14 11  1  0  0  0  0
 16 19  1  0  0  0  0
 17 19  2  0  0  0  0
 19 18  1  0  0  0  0
 20 21  1  6  0  0  0
 20 23  1  0  0  0  0
 21 22  2  0  0  0  0
 23 25  1  0  0  0  0
 24 25  2  0  0  0  0
 25 31  1  0  0  0  0
 26 25  2  0  0  0  0
 29 28  1  0  0  0  0
 29 27  2  0  0  0  0
 30 33  2  0  0  0  0
 31 32  2  0  0  0  0
 31 30  1  0  0  0  0
 32 29  1  0  0  0  0
 33 27  1  0  0  0  0
M  END
>  <MODEL>
5

>  <REMARK>
 VINA RESULT:      -8.2      5.338      8.248
  Name = 
  10 active torsions:
  status: ('A' for Active; 'I' for Inactive)
    1  A    between atoms: C_2  and  C_18
    2  A    between atoms: N_4  and  C_15
    3  A    between atoms: C_6  and  C_20
    4  A    between atoms: N_10  and  C_26
    5  A    between atoms: C_15  and  C_27
    6  A    between atoms: C_15  and  N_30
    7  A    between atoms: S_17  and  C_21
    8  A    between atoms: S_17  and  N_30
    9  A    between atoms: C_18  and  C_33
   10  A    between atoms: C_20  and  C_26
                            x       y       z     vdW  Elec       q    Type
                         _______ _______ _______ _____ _____    ______ ____

>  <TORSDO>
F 10

$$$$
=
 OpenBabel11062412313D

 33 35  0  0  1  0  0  0  0  0999 V2000
  184.7740  177.8340  137.9720 C   0  0  0  0  0  3  0  0  0  0  0  0
  186.7910  178.3700  139.2110 C   0  0  0  0  0  0  0  0  0  0  0  0
  186.1650  177.9640  138.0230 C   0  0  0  0  0  3  0  0  0  0  0  0
  186.0180  178.6270  140.3460 C   0  0  0  0  0  3  0  0  0  0  0  0
  184.6270  178.4950  140.3010 C   0  0  0  0  0  0  0  0  0  0  0  0
  184.0050  178.0970  139.1090 C   0  0  0  0  0  3  0  0  0  0  0  0
  188.2800  178.4720  139.3110 C   0  0  2  0  0  3  0  0  0  0  0  0
  188.8070  179.2430  138.2700 O   0  0  0  0  0  1  0  0  0  0  0  0
  189.4340  176.6000  138.0310 C   0  0  0  0  0  1  0  0  0  0  0  0
  188.9400  177.0920  139.3850 C   0  0  1  0  0  3  0  0  0  0  0  0
  191.1640  176.9270  142.1780 C   0  0  0  0  0  0  0  0  0  0  0  0
  190.0210  177.0950  140.3610 N   0  0  0  0  0  0  0  0  0  0  0  0
  191.2520  177.5240  140.1290 N   0  0  0  0  0  0  0  0  0  0  0  0
  191.9800  177.4240  141.2290 N   0  0  0  0  0  0  0  0  0  0  0  0
  189.9100  176.7080  141.6430 C   0  0  0  0  0  3  0  0  0  0  0  0
  191.5880  176.6230  143.5730 C   0  0  0  0  0  2  0  0  0  0  0  0
  191.1700  179.0660  143.8510 O   0  0  0  0  0  0  0  0  0  0  0  0
  191.6840  177.7600  145.6630 O   0  0  0  0  0  1  0  0  0  0  0  0
  191.4750  177.8390  144.4250 C   0  0  0  0  0  0  0  0  0  0  0  0
  183.8370  178.7400  141.5520 C   0  0  1  0  0  3  0  0  0  0  0  0
  182.4190  178.5730  141.3260 N   0  0  0  0  0  0  0  0  0  0  0  0
  181.5790  179.0160  142.1320 N   0  0  0  0  0  2  0  0  0  0  0  0
  184.2860  177.8830  142.6470 N   0  0  0  0  0  2  0  0  0  0  0  0
  184.8880  180.2780  143.5930 O   0  0  0  0  0  0  0  0  0  0  0  0
  184.6170  178.8680  144.0370 S   0  0  0  0  0  0  0  0  0  0  0  0
  183.4190  178.8730  144.9440 O   0  0  0  0  0  0  0  0  0  0  0  0
  188.2320  177.2650  146.3030 C   0  0  0  0  0  3  0  0  0  0  0  0
  187.2280  177.9550  148.3530 F   0  0  0  0  0  0  0  0  0  0  0  0
  187.1760  177.8590  147.0030 C   0  0  0  0  0  0  0  0  0  0  0  0
  187.0710  177.6630  144.2150 C   0  0  0  0  0  3  0  0  0  0  0  0
  186.0150  178.2600  144.9130 C   0  0  0  0  0  0  0  0  0  0  0  0
  186.0680  178.3550  146.3080 C   0  0  0  0  0  3  0  0  0  0  0  0
  188.1790  177.1660  144.9100 C   0  0  0  0  0  3  0  0  0  0  0  0
  1  3  2  0  0  0  0
  1  6  1  0  0  0  0
  2  7  1  0  0  0  0
  2  4  2  0  0  0  0
  3  2  1  0  0  0  0
  5  4  1  0  0  0  0
  5 20  1  0  0  0  0
  6  5  2  0  0  0  0
  7  8  1  6  0  0  0
  7 10  1  0  0  0  0
 10  9  1  6  0  0  0
 10 12  1  0  0  0  0
 11 16  1  0  0  0  0
 12 15  1  0  0  0  0
 13 12  1  0  0  0  0
 13 14  2  0  0  0  0
 14 11  1  0  0  0  0
 15 11  2  0  0  0  0
 16 19  1  0  0  0  0
 17 19  2  0  0  0  0
 19 18  1  0  0  0  0
 20 21  1  6  0  0  0
 20 23  1  0  0  0  0
 21 22  2  0  0  0  0
 23 25  1  0  0  0  0
 24 25  2  0  0  0  0
 25 31  1  0  0  0  0
 25 26  2  0  0  0  0
 27 29  1  0  0  0  0
 29 28  1  0  0  0  0
 30 33  1  0  0  0  0
 30 31  2  0  0  0  0
 31 32  1  0  0  0  0
 32 29  2  0  0  0  0
 33 27  2  0  0  0  0
M  END
>  <MODEL>
6

>  <REMARK>
 VINA RESULT:      -8.1      3.235      5.832
  Name = 
  10 active torsions:
  status: ('A' for Active; 'I' for Inactive)
    1  A    between atoms: C_2  and  C_18
    2  A    between atoms: N_4  and  C_15
    3  A    between atoms: C_6  and  C_20
    4  A    between atoms: N_10  and  C_26
    5  A    between atoms: C_15  and  C_27
    6  A    between atoms: C_15  and  N_30
    7  A    between atoms: S_17  and  C_21
    8  A    between atoms: S_17  and  N_30
    9  A    between atoms: C_18  and  C_33
   10  A    between atoms: C_20  and  C_26
                            x       y       z     vdW  Elec       q    Type
                         _______ _______ _______ _____ _____    ______ ____

>  <TORSDO>
F 10

$$$$
=
 OpenBabel11062412313D

 33 35  0  0  1  0  0  0  0  0999 V2000
  183.5710  178.9670  144.1900 C   0  0  0  0  0  3  0  0  0  0  0  0
  182.8430  178.7920  141.8810 C   0  0  0  0  0  0  0  0  0  0  0  0
  182.5500  179.0100  143.2350 C   0  0  0  0  0  3  0  0  0  0  0  0
  184.1560  178.5150  141.4940 C   0  0  0  0  0  3  0  0  0  0  0  0
  185.1800  178.4680  142.4450 C   0  0  0  0  0  0  0  0  0  0  0  0
  184.8840  178.6950  143.7960 C   0  0  0  0  0  3  0  0  0  0  0  0
  181.7660  178.7840  140.8420 C   0  0  2  0  0  3  0  0  0  0  0  0
  181.1930  177.5150  140.7150 O   0  0  0  0  0  1  0  0  0  0  0  0
  182.3330  178.2380  138.4230 C   0  0  0  0  0  1  0  0  0  0  0  0
  182.2700  179.3150  139.4980 C   0  0  1  0  0  3  0  0  0  0  0  0
  180.6680  182.1100  137.9490 C   0  0  0  0  0  0  0  0  0  0  0  0
  181.4570  180.4400  139.0560 N   0  0  0  0  0  0  0  0  0  0  0  0
  180.4630  180.9760  139.7470 N   0  0  0  0  0  0  0  0  0  0  0  0
  179.9530  182.0010  139.0840 N   0  0  0  0  0  0  0  0  0  0  0  0
  181.6310  181.1220  137.9110 C   0  0  0  0  0  3  0  0  0  0  0  0
  180.4080  183.1220  136.8870 C   0  0  0  0  0  2  0  0  0  0  0  0
  182.2820  184.6100  137.5930 O   0  0  0  0  0  1  0  0  0  0  0  0
  180.1480  185.4300  137.4160 O   0  0  0  0  0  0  0  0  0  0  0  0
  180.9330  184.4530  137.3020 C   0  0  0  0  0  0  0  0  0  0  0  0
  186.5700  178.1270  141.9950 C   0  0  1  0  0  3  0  0  0  0  0  0
  186.8340  178.6260  140.6650 N   0  0  0  0  0  0  0  0  0  0  0  0
  187.9970  178.7070  140.2240 N   0  0  0  0  0  2  0  0  0  0  0  0
  187.5740  178.6170  142.9360 N   0  0  0  0  0  2  0  0  0  0  0  0
  187.7560  175.9920  143.2040 O   0  0  0  0  0  0  0  0  0  0  0  0
  188.4660  177.2670  143.5660 S   0  0  0  0  0  0  0  0  0  0  0  0
  189.8380  177.2430  142.9530 O   0  0  0  0  0  0  0  0  0  0  0  0
  188.8250  177.5730  148.0990 C   0  0  0  0  0  3  0  0  0  0  0  0
  191.1550  177.0980  147.9260 F   0  0  0  0  0  0  0  0  0  0  0  0
  189.9540  177.2840  147.3270 C   0  0  0  0  0  0  0  0  0  0  0  0
  187.4760  177.6660  146.0890 C   0  0  0  0  0  3  0  0  0  0  0  0
  188.6050  177.3730  145.3150 C   0  0  0  0  0  0  0  0  0  0  0  0
  189.8440  177.1850  145.9360 C   0  0  0  0  0  3  0  0  0  0  0  0
  187.5860  177.7640  147.4800 C   0  0  0  0  0  3  0  0  0  0  0  0
  2  3  1  0  0  0  0
  3  1  2  0  0  0  0
  4  2  2  0  0  0  0
  4  5  1  0  0  0  0
  5  6  2  0  0  0  0
  6  1  1  0  0  0  0
  7  8  1  6  0  0  0
  7  2  1  0  0  0  0
 10  9  1  6  0  0  0
 10  7  1  0  0  0  0
 11 14  1  0  0  0  0
 12 10  1  0  0  0  0
 12 13  1  0  0  0  0
 14 13  2  0  0  0  0
 15 11  2  0  0  0  0
 15 12  1  0  0  0  0
 16 19  1  0  0  0  0
 16 11  1  0  0  0  0
 19 18  2  0  0  0  0
 19 17  1  0  0  0  0
 20 21  1  6  0  0  0
 20  5  1  0  0  0  0
 20 23  1  0  0  0  0
 22 21  2  0  0  0  0
 23 25  1  0  0  0  0
 24 25  2  0  0  0  0
 25 31  1  0  0  0  0
 26 25  2  0  0  0  0
 29 28  1  0  0  0  0
 29 27  2  0  0  0  0
 30 33  2  0  0  0  0
 31 32  2  0  0  0  0
 31 30  1  0  0  0  0
 32 29  1  0  0  0  0
 33 27  1  0  0  0  0
M  END
>  <MODEL>
7

>  <REMARK>
 VINA RESULT:      -8.0      4.025      8.155
  Name = 
  10 active torsions:
  status: ('A' for Active; 'I' for Inactive)
    1  A    between atoms: C_2  and  C_18
    2  A    between atoms: N_4  and  C_15
    3  A    between atoms: C_6  and  C_20
    4  A    between atoms: N_10  and  C_26
    5  A    between atoms: C_15  and  C_27
    6  A    between atoms: C_15  and  N_30
    7  A    between atoms: S_17  and  C_21
    8  A    between atoms: S_17  and  N_30
    9  A    between atoms: C_18  and  C_33
   10  A    between atoms: C_20  and  C_26
                            x       y       z     vdW  Elec       q    Type
                         _______ _______ _______ _____ _____    ______ ____

>  <TORSDO>
F 10

$$$$
=
 OpenBabel11062412313D

 33 35  0  0  1  0  0  0  0  0999 V2000
  189.5230  177.3720  141.9330 C   0  0  0  0  0  3  0  0  0  0  0  0
  189.0690  178.0410  139.6450 C   0  0  0  0  0  0  0  0  0  0  0  0
  189.9290  177.4800  140.6000 C   0  0  0  0  0  3  0  0  0  0  0  0
  187.8120  178.5070  140.0370 C   0  0  0  0  0  3  0  0  0  0  0  0
  187.4020  178.4040  141.3700 C   0  0  0  0  0  0  0  0  0  0  0  0
  188.2630  177.8350  142.3190 C   0  0  0  0  0  3  0  0  0  0  0  0
  189.4930  178.2140  138.2200 C   0  0  2  0  0  3  0  0  0  0  0  0
  188.8800  179.3280  137.6400 O   0  0  0  0  0  1  0  0  0  0  0  0
  188.9450  177.2340  135.9360 C   0  0  0  0  0  1  0  0  0  0  0  0
  189.2520  176.9440  137.3990 C   0  0  1  0  0  3  0  0  0  0  0  0
  192.3730  175.2100  137.5820 C   0  0  0  0  0  0  0  0  0  0  0  0
  190.3860  176.0360  137.5200 N   0  0  0  0  0  0  0  0  0  0  0  0
  190.2950  174.7210  137.6470 N   0  0  0  0  0  0  0  0  0  0  0  0
  191.5050  174.1880  137.6970 N   0  0  0  0  0  0  0  0  0  0  0  0
  191.6790  176.3980  137.4710 C   0  0  0  0  0  3  0  0  0  0  0  0
  193.8550  175.0610  137.6230 C   0  0  0  0  0  2  0  0  0  0  0  0
  194.8610  176.8290  136.1790 O   0  0  0  0  0  1  0  0  0  0  0  0
  194.5680  174.7000  135.3790 O   0  0  0  0  0  0  0  0  0  0  0  0
  194.4550  175.5100  136.3360 C   0  0  0  0  0  0  0  0  0  0  0  0
  186.0610  178.9540  141.7590 C   0  0  1  0  0  3  0  0  0  0  0  0
  185.2820  179.3210  140.5990 N   0  0  0  0  0  0  0  0  0  0  0  0
  184.0800  179.0070  140.5010 N   0  0  0  0  0  2  0  0  0  0  0  0
  185.3210  178.0160  142.5990 N   0  0  0  0  0  2  0  0  0  0  0  0
  184.8230  180.3120  143.8140 O   0  0  0  0  0  0  0  0  0  0  0  0
  184.8270  178.8280  144.0520 S   0  0  0  0  0  0  0  0  0  0  0  0
  183.4340  178.3970  144.4180 O   0  0  0  0  0  0  0  0  0  0  0  0
  187.6810  177.8980  147.4820 C   0  0  0  0  0  3  0  0  0  0  0  0
  189.0570  176.6640  145.9750 F   0  0  0  0  0  0  0  0  0  0  0  0
  187.9480  177.4100  146.1990 C   0  0  0  0  0  0  0  0  0  0  0  0
  185.6580  178.9480  146.6600 C   0  0  0  0  0  3  0  0  0  0  0  0
  185.9230  178.4580  145.3750 C   0  0  0  0  0  0  0  0  0  0  0  0
  187.0710  177.6910  145.1460 C   0  0  0  0  0  3  0  0  0  0  0  0
  186.5360  178.6670  147.7120 C   0  0  0  0  0  3  0  0  0  0  0  0
  1  6  1  0  0  0  0
  2  4  2  0  0  0  0
  2  3  1  0  0  0  0
  3  1  2  0  0  0  0
  4  5  1  0  0  0  0
  5 20  1  0  0  0  0
  5  6  2  0  0  0  0
  7  8  1  6  0  0  0
  7  2  1  0  0  0  0
 10  9  1  6  0  0  0
 10 12  1  0  0  0  0
 10  7  1  0  0  0  0
 11 16  1  0  0  0  0
 11 14  1  0  0  0  0
 12 13  1  0  0  0  0
 13 14  2  0  0  0  0
 15 12  1  0  0  0  0
 15 11  2  0  0  0  0
 17 19  1  0  0  0  0
 18 19  2  0  0  0  0
 19 16  1  0  0  0  0
 20 21  1  6  0  0  0
 20 23  1  0  0  0  0
 22 21  2  0  0  0  0
 23 25  1  0  0  0  0
 24 25  2  0  0  0  0
 25 26  2  0  0  0  0
 25 31  1  0  0  0  0
 27 33  1  0  0  0  0
 28 29  1  0  0  0  0
 29 27  2  0  0  0  0
 30 33  2  0  0  0  0
 31 30  1  0  0  0  0
 32 31  2  0  0  0  0
 32 29  1  0  0  0  0
M  END
>  <MODEL>
8

>  <REMARK>
 VINA RESULT:      -8.0      3.987      6.091
  Name = 
  10 active torsions:
  status: ('A' for Active; 'I' for Inactive)
    1  A    between atoms: C_2  and  C_18
    2  A    between atoms: N_4  and  C_15
    3  A    between atoms: C_6  and  C_20
    4  A    between atoms: N_10  and  C_26
    5  A    between atoms: C_15  and  C_27
    6  A    between atoms: C_15  and  N_30
    7  A    between atoms: S_17  and  C_21
    8  A    between atoms: S_17  and  N_30
    9  A    between atoms: C_18  and  C_33
   10  A    between atoms: C_20  and  C_26
                            x       y       z     vdW  Elec       q    Type
                         _______ _______ _______ _____ _____    ______ ____

>  <TORSDO>
F 10

$$$$
=
 OpenBabel11062412313D

 33 35  0  0  1  0  0  0  0  0999 V2000
  184.7260  178.8740  144.9160 C   0  0  0  0  0  3  0  0  0  0  0  0
  186.5530  177.8400  143.6960 C   0  0  0  0  0  0  0  0  0  0  0  0
  185.9760  178.2460  144.9080 C   0  0  0  0  0  3  0  0  0  0  0  0
  185.8800  178.0820  142.4960 C   0  0  0  0  0  3  0  0  0  0  0  0
  184.6310  178.7120  142.4980 C   0  0  0  0  0  0  0  0  0  0  0  0
  184.0550  179.1080  143.7130 C   0  0  0  0  0  3  0  0  0  0  0  0
  187.9090  177.2100  143.6510 C   0  0  2  0  0  3  0  0  0  0  0  0
  188.2980  176.7510  144.9130 O   0  0  0  0  0  1  0  0  0  0  0  0
  190.1300  178.4080  143.9770 C   0  0  0  0  0  1  0  0  0  0  0  0
  188.9520  178.1530  143.0460 C   0  0  1  0  0  3  0  0  0  0  0  0
  189.6980  177.3270  139.6480 C   0  0  0  0  0  0  0  0  0  0  0  0
  189.4110  177.6480  141.7580 N   0  0  0  0  0  0  0  0  0  0  0  0
  190.1970  176.5960  141.5920 N   0  0  0  0  0  0  0  0  0  0  0  0
  190.3970  176.3810  140.3020 N   0  0  0  0  0  0  0  0  0  0  0  0
  189.0630  178.1470  140.5600 C   0  0  0  0  0  3  0  0  0  0  0  0
  189.6690  177.4770  138.1660 C   0  0  0  0  0  2  0  0  0  0  0  0
  187.2360  177.8440  137.7550 O   0  0  0  0  0  1  0  0  0  0  0  0
  188.7480  179.5280  137.3840 O   0  0  0  0  0  0  0  0  0  0  0  0
  188.5310  178.3460  137.7560 C   0  0  0  0  0  0  0  0  0  0  0  0
  183.9600  178.9900  141.1860 C   0  0  1  0  0  3  0  0  0  0  0  0
  184.9140  179.3820  140.1740 N   0  0  0  0  0  0  0  0  0  0  0  0
  184.5630  180.0310  139.1700 N   0  0  0  0  0  2  0  0  0  0  0  0
  183.1720  177.8460  140.7330 N   0  0  0  0  0  2  0  0  0  0  0  0
  180.6470  177.0800  140.5500 O   0  0  0  0  0  0  0  0  0  0  0  0
  181.5030  178.3140  140.6310 S   0  0  0  0  0  0  0  0  0  0  0  0
  181.1210  179.0820  141.8650 O   0  0  0  0  0  0  0  0  0  0  0  0
  180.8000  180.8900  136.9380 C   0  0  0  0  0  3  0  0  0  0  0  0
  180.3620  182.7600  138.3500 F   0  0  0  0  0  0  0  0  0  0  0  0
  180.6820  181.4510  138.2130 C   0  0  0  0  0  0  0  0  0  0  0  0
  181.3410  178.7480  137.9310 C   0  0  0  0  0  3  0  0  0  0  0  0
  181.2210  179.3070  139.2080 C   0  0  0  0  0  0  0  0  0  0  0  0
  180.8930  180.6600  139.3470 C   0  0  0  0  0  3  0  0  0  0  0  0
  181.1300  179.5380  136.7960 C   0  0  0  0  0  3  0  0  0  0  0  0
  2  3  2  0  0  0  0
  3  1  1  0  0  0  0
  4  5  2  0  0  0  0
  4  2  1  0  0  0  0
  5  6  1  0  0  0  0
  6  1  2  0  0  0  0
  7  2  1  0  0  0  0
  7  8  1  1  0  0  0
 10  7  1  0  0  0  0
 10  9  1  1  0  0  0
 11 14  1  0  0  0  0
 11 15  2  0  0  0  0
 12 10  1  0  0  0  0
 13 12  1  0  0  0  0
 14 13  2  0  0  0  0
 15 12  1  0  0  0  0
 16 11  1  0  0  0  0
 17 19  1  0  0  0  0
 18 19  2  0  0  0  0
 19 16  1  0  0  0  0
 20 21  1  6  0  0  0
 20  5  1  0  0  0  0
 22 21  2  0  0  0  0
 23 20  1  0  0  0  0
 24 25  2  0  0  0  0
 25 23  1  0  0  0  0
 25 26  2  0  0  0  0
 27 29  1  0  0  0  0
 29 28  1  0  0  0  0
 29 32  2  0  0  0  0
 30 31  2  0  0  0  0
 31 32  1  0  0  0  0
 31 25  1  0  0  0  0
 33 27  2  0  0  0  0
 33 30  1  0  0  0  0
M  END
>  <MODEL>
9

>  <REMARK>
 VINA RESULT:      -8.0      2.058      2.595
  Name = 
  10 active torsions:
  status: ('A' for Active; 'I' for Inactive)
    1  A    between atoms: C_2  and  C_18
    2  A    between atoms: N_4  and  C_15
    3  A    between atoms: C_6  and  C_20
    4  A    between atoms: N_10  and  C_26
    5  A    between atoms: C_15  and  C_27
    6  A    between atoms: C_15  and  N_30
    7  A    between atoms: S_17  and  C_21
    8  A    between atoms: S_17  and  N_30
    9  A    between atoms: C_18  and  C_33
   10  A    between atoms: C_20  and  C_26
                            x       y       z     vdW  Elec       q    Type
                         _______ _______ _______ _____ _____    ______ ____

>  <TORSDO>
F 10

$$$$
