=
 OpenBabel11062414193D

 45 49  0  0  1  0  0  0  0  0999 V2000
  190.2370  173.7780  137.2230 C   0  0  0  0  0  2  0  0  0  0  0  0
  190.0890  175.7350  139.1140 O   0  0  0  0  0  1  0  0  0  0  0  0
  192.2680  173.3530  135.9170 C   0  0  0  0  0  3  0  0  0  0  0  0
  191.3560  176.6900  137.4330 O   0  0  0  0  0  0  0  0  0  0  0  0
  191.5120  174.2840  136.6350 C   0  0  0  0  0  0  0  0  0  0  0  0
  194.2340  172.7830  134.5940 N   0  0  0  0  0  1  0  0  0  0  0  0
  188.9650  176.4930  137.0840 C   0  0  1  0  0  3  0  0  0  0  0  0
  190.0990  176.7160  138.1160 C   0  0  1  0  0  0  0  0  0  0  0  0
  187.8340  175.5830  137.5720 C   0  0  0  0  0  2  0  0  0  0  0  0
  193.4680  173.7340  135.3230 C   0  0  0  0  0  0  0  0  0  0  0  0
  193.1980  175.9460  136.1280 C   0  0  0  0  0  3  0  0  0  0  0  0
  187.7890  174.2410  136.8230 C   0  0  2  0  0  3  0  0  0  0  0  0
  189.1240  173.8270  136.1880 C   0  0  0  0  0  2  0  0  0  0  0  0
  191.9840  175.6270  136.7460 C   0  0  0  0  0  0  0  0  0  0  0  0
  193.9050  175.0130  135.4400 N   0  0  0  0  0  0  0  0  0  0  0  0
  188.5540  177.8320  135.0560 C   0  0  0  0  0  2  0  0  0  0  0  0
  188.4670  177.7220  136.3790 C   0  0  0  0  0  3  0  0  0  0  0  0
  189.9360  178.0790  138.8050 C   0  0  0  0  0  2  0  0  0  0  0  0
  189.3530  177.9720  140.1780 C   0  0  0  0  0  0  0  0  0  0  0  0
  189.5730  177.4670  142.5140 C   0  0  0  0  0  0  0  0  0  0  0  0
  188.2710  177.8110  142.7300 C   0  0  0  0  0  0  0  0  0  0  0  0
  189.1360  177.0740  144.7670 C   0  0  0  0  0  2  0  0  0  0  0  0
  188.0060  178.3330  140.4000 C   0  0  0  0  0  3  0  0  0  0  0  0
  190.1680  177.0360  143.7270 N   0  0  0  0  0  0  0  0  0  0  0  0
  187.4500  178.2500  141.6880 C   0  0  0  0  0  0  0  0  0  0  0  0
  187.9480  177.6190  144.1020 N   0  0  0  0  0  0  0  0  0  0  0  0
  191.4490  176.3660  143.8530 C   0  0  0  0  0  1  0  0  0  0  0  0
  186.6150  177.6060  144.6740 C   0  0  0  0  0  1  0  0  0  0  0  0
  190.1540  177.5300  141.2470 C   0  0  0  0  0  3  0  0  0  0  0  0
  186.1240  178.6020  141.9050 O   0  0  0  0  0  1  0  0  0  0  0  0
  186.6940  174.2950  135.7660 C   0  0  0  0  0  2  0  0  0  0  0  0
  185.3100  174.2020  136.3970 C   0  0  0  0  0  2  0  0  0  0  0  0
  185.0570  176.1220  134.8030 C   0  0  0  0  0  1  0  0  0  0  0  0
  184.4320  175.3700  135.9670 C   0  0  2  0  0  3  0  0  0  0  0  0
  183.5750  178.1090  139.2460 C   0  0  1  0  0  3  0  0  0  0  0  0
  183.0420  176.6770  139.3400 C   0  0  0  0  0  2  0  0  0  0  0  0
  182.3860  174.9560  137.8320 O   0  0  0  0  0  0  0  0  0  0  0  0
  184.8230  177.5860  137.1230 C   0  0  0  0  0  2  0  0  0  0  0  0
  183.1530  175.9340  138.0420 C   0  0  0  0  0  0  0  0  0  0  0  0
  184.1790  176.2700  137.0910 N   0  0  0  0  0  0  0  0  0  0  0  0
  184.9380  178.1160  138.5500 C   0  0  0  0  0  2  0  0  0  0  0  0
  182.5710  179.0530  138.5710 C   0  0  2  0  0  3  0  0  0  0  0  0
  182.9300  180.3860  138.7880 O   0  0  0  0  0  1  0  0  0  0  0  0
  180.7710  179.8250  139.9640 O   0  0  0  0  0  1  0  0  0  0  0  0
  181.1500  178.8200  139.0730 C   0  0  0  0  0  2  0  0  0  0  0  0
  3  5  1  0  0  0  0
  4  8  1  0  0  0  0
  5 14  2  0  0  0  0
  5  1  1  0  0  0  0
  6 10  1  0  0  0  0
  7 17  1  1  0  0  0
  7  9  1  0  0  0  0
  7  8  1  0  0  0  0
  8 18  1  0  0  0  0
  8  2  1  1  0  0  0
 10 15  1  0  0  0  0
 10  3  2  0  0  0  0
 11 14  1  0  0  0  0
 12 31  1  6  0  0  0
 12  9  1  0  0  0  0
 13 12  1  0  0  0  0
 13  1  1  0  0  0  0
 14  4  1  0  0  0  0
 15 11  2  0  0  0  0
 16 17  2  0  0  0  0
 18 19  1  0  0  0  0
 19 23  2  0  0  0  0
 19 29  1  0  0  0  0
 20 21  1  0  0  0  0
 20 24  1  0  0  0  0
 21 26  1  0  0  0  0
 23 25  1  0  0  0  0
 24 27  1  0  0  0  0
 24 22  1  0  0  0  0
 25 30  1  0  0  0  0
 25 21  2  0  0  0  0
 26 28  1  0  0  0  0
 26 22  1  0  0  0  0
 29 20  2  0  0  0  0
 31 32  1  0  0  0  0
 34 33  1  6  0  0  0
 34 32  1  0  0  0  0
 34 40  1  0  0  0  0
 35 42  1  6  0  0  0
 35 36  1  0  0  0  0
 37 39  2  0  0  0  0
 38 41  1  0  0  0  0
 39 36  1  0  0  0  0
 40 38  1  0  0  0  0
 40 39  1  0  0  0  0
 41 35  1  0  0  0  0
 42 43  1  1  0  0  0
 42 45  1  0  0  0  0
 45 44  1  0  0  0  0
M  END
>  <MODEL>
1

>  <REMARK>
 VINA RESULT:      -7.0      0.000      0.000
  Name = 
  9 active torsions:
  status: ('A' for Active; 'I' for Inactive)
    1  A    between atoms: C_1  and  C_13
    2  A    between atoms: C_2  and  C_3
    3  A    between atoms: C_2  and  C_29
    4  A    between atoms: C_11  and  C_21
    5  A    between atoms: C_11  and  C_35
    6  A    between atoms: C_13  and  C_36
    7  A    between atoms: C_21  and  C_37
    8  A    between atoms: C_23  and  C_44
    9  A    between atoms: N_32  and  C_35
                            x       y       z     vdW  Elec       q    Type
                         _______ _______ _______ _____ _____    ______ ____

>  <TORSDO>
F 9

$$$$
=
 OpenBabel11062414193D

 45 49  0  0  1  0  0  0  0  0999 V2000
  189.9980  173.9900  137.0790 C   0  0  0  0  0  2  0  0  0  0  0  0
  189.9350  175.7270  139.1760 O   0  0  0  0  0  1  0  0  0  0  0  0
  192.0590  173.4690  135.8550 C   0  0  0  0  0  3  0  0  0  0  0  0
  191.4230  176.7030  137.7000 O   0  0  0  0  0  0  0  0  0  0  0  0
  191.3630  174.3990  136.6330 C   0  0  0  0  0  0  0  0  0  0  0  0
  194.0400  172.8150  134.5940 N   0  0  0  0  0  1  0  0  0  0  0  0
  189.0570  176.8380  137.1880 C   0  0  1  0  0  3  0  0  0  0  0  0
  190.1300  176.8050  138.3050 C   0  0  1  0  0  0  0  0  0  0  0  0
  187.7980  176.0230  137.4950 C   0  0  0  0  0  2  0  0  0  0  0  0
  193.3350  173.7650  135.3840 C   0  0  0  0  0  0  0  0  0  0  0  0
  193.2600  175.8900  136.4290 C   0  0  0  0  0  3  0  0  0  0  0  0
  187.6560  174.7880  136.5900 C   0  0  2  0  0  3  0  0  0  0  0  0
  188.9780  174.2880  135.9920 C   0  0  0  0  0  2  0  0  0  0  0  0
  191.9750  175.6550  136.9310 C   0  0  0  0  0  0  0  0  0  0  0  0
  193.9050  174.9600  135.6790 N   0  0  0  0  0  0  0  0  0  0  0  0
  187.5030  178.6240  136.5010 C   0  0  0  0  0  2  0  0  0  0  0  0
  188.7560  178.1890  136.6050 C   0  0  0  0  0  3  0  0  0  0  0  0
  190.0730  178.0930  139.1400 C   0  0  0  0  0  2  0  0  0  0  0  0
  189.6860  177.8470  140.5640 C   0  0  0  0  0  0  0  0  0  0  0  0
  188.0220  177.7050  142.2880 C   0  0  0  0  0  0  0  0  0  0  0  0
  188.9720  177.3540  143.2010 C   0  0  0  0  0  0  0  0  0  0  0  0
  186.9410  177.4950  144.3400 C   0  0  0  0  0  2  0  0  0  0  0  0
  190.6700  177.4800  141.5060 C   0  0  0  0  0  3  0  0  0  0  0  0
  186.7520  177.7790  142.9140 N   0  0  0  0  0  0  0  0  0  0  0  0
  190.3180  177.2320  142.8440 C   0  0  0  0  0  0  0  0  0  0  0  0
  188.3670  177.1820  144.4770 N   0  0  0  0  0  0  0  0  0  0  0  0
  185.5520  178.3540  142.3350 C   0  0  0  0  0  1  0  0  0  0  0  0
  189.0610  177.0810  145.7480 C   0  0  0  0  0  1  0  0  0  0  0  0
  188.3390  177.9650  140.9540 C   0  0  0  0  0  3  0  0  0  0  0  0
  191.2870  176.8740  143.7720 O   0  0  0  0  0  1  0  0  0  0  0  0
  186.6540  175.0920  135.4830 C   0  0  0  0  0  2  0  0  0  0  0  0
  185.2720  174.5480  135.8220 C   0  0  0  0  0  2  0  0  0  0  0  0
  184.6740  176.7210  134.7200 C   0  0  0  0  0  1  0  0  0  0  0  0
  184.2060  175.6250  135.6640 C   0  0  2  0  0  3  0  0  0  0  0  0
  182.9810  177.3320  139.4810 C   0  0  1  0  0  3  0  0  0  0  0  0
  182.7550  175.8350  139.2510 C   0  0  0  0  0  2  0  0  0  0  0  0
  182.3850  174.3910  137.3960 O   0  0  0  0  0  0  0  0  0  0  0  0
  184.1980  177.5630  137.2890 C   0  0  0  0  0  2  0  0  0  0  0  0
  182.9480  175.4360  137.8180 C   0  0  0  0  0  0  0  0  0  0  0  0
  183.8340  176.1810  136.9630 N   0  0  0  0  0  0  0  0  0  0  0  0
  184.2770  177.7780  138.7990 C   0  0  0  0  0  2  0  0  0  0  0  0
  181.7720  178.1700  139.0420 C   0  0  2  0  0  3  0  0  0  0  0  0
  182.0430  179.5330  139.1870 O   0  0  0  0  0  1  0  0  0  0  0  0
  179.5570  177.2390  138.9980 O   0  0  0  0  0  1  0  0  0  0  0  0
  180.5190  177.8120  139.8330 C   0  0  0  0  0  2  0  0  0  0  0  0
  3  5  1  0  0  0  0
  4  8  1  0  0  0  0
  5 14  2  0  0  0  0
  5  1  1  0  0  0  0
  6 10  1  0  0  0  0
  7 17  1  1  0  0  0
  7  9  1  0  0  0  0
  7  8  1  0  0  0  0
  8 18  1  0  0  0  0
  8  2  1  1  0  0  0
 10 15  1  0  0  0  0
 10  3  2  0  0  0  0
 11 14  1  0  0  0  0
 12 31  1  6  0  0  0
 12  9  1  0  0  0  0
 13 12  1  0  0  0  0
 13  1  1  0  0  0  0
 14  4  1  0  0  0  0
 15 11  2  0  0  0  0
 16 17  2  0  0  0  0
 18 19  1  0  0  0  0
 19 29  2  0  0  0  0
 19 23  1  0  0  0  0
 20 24  1  0  0  0  0
 20 21  2  0  0  0  0
 21 26  1  0  0  0  0
 22 26  1  0  0  0  0
 23 25  2  0  0  0  0
 24 22  1  0  0  0  0
 25 21  1  0  0  0  0
 25 30  1  0  0  0  0
 26 28  1  0  0  0  0
 27 24  1  0  0  0  0
 29 20  1  0  0  0  0
 31 32  1  0  0  0  0
 34 33  1  6  0  0  0
 34 32  1  0  0  0  0
 34 40  1  0  0  0  0
 35 42  1  6  0  0  0
 36 35  1  0  0  0  0
 37 39  2  0  0  0  0
 38 41  1  0  0  0  0
 39 36  1  0  0  0  0
 40 38  1  0  0  0  0
 40 39  1  0  0  0  0
 41 35  1  0  0  0  0
 42 43  1  1  0  0  0
 42 45  1  0  0  0  0
 44 45  1  0  0  0  0
M  END
>  <MODEL>
2

>  <REMARK>
 VINA RESULT:      -6.8      1.141      1.844
  Name = 
  9 active torsions:
  status: ('A' for Active; 'I' for Inactive)
    1  A    between atoms: C_1  and  C_13
    2  A    between atoms: C_2  and  C_3
    3  A    between atoms: C_2  and  C_29
    4  A    between atoms: C_11  and  C_21
    5  A    between atoms: C_11  and  C_35
    6  A    between atoms: C_13  and  C_36
    7  A    between atoms: C_21  and  C_37
    8  A    between atoms: C_23  and  C_44
    9  A    between atoms: N_32  and  C_35
                            x       y       z     vdW  Elec       q    Type
                         _______ _______ _______ _____ _____    ______ ____

>  <TORSDO>
F 9

$$$$
=
 OpenBabel11062414193D

 45 49  0  0  1  0  0  0  0  0999 V2000
  187.3620  178.2500  137.7590 C   0  0  0  0  0  2  0  0  0  0  0  0
  189.2810  178.0570  135.8340 O   0  0  0  0  0  1  0  0  0  0  0  0
  187.8790  178.1560  140.1550 C   0  0  0  0  0  3  0  0  0  0  0  0
  189.9700  176.5520  137.4490 O   0  0  0  0  0  0  0  0  0  0  0  0
  188.2590  177.7890  138.8610 C   0  0  0  0  0  0  0  0  0  0  0  0
  188.2570  178.1410  142.5620 N   0  0  0  0  0  1  0  0  0  0  0  0
  188.1140  175.9210  136.0210 C   0  0  1  0  0  3  0  0  0  0  0  0
  189.4510  176.6980  136.1230 C   0  0  1  0  0  0  0  0  0  0  0  0
  187.0240  176.6380  135.2220 C   0  0  0  0  0  2  0  0  0  0  0  0
  188.6470  177.7640  141.2470 C   0  0  0  0  0  0  0  0  0  0  0  0
  190.1670  176.6460  139.8160 C   0  0  0  0  0  3  0  0  0  0  0  0
  185.8490  177.0970  136.1020 C   0  0  2  0  0  3  0  0  0  0  0  0
  186.2040  177.2800  137.5840 C   0  0  0  0  0  2  0  0  0  0  0  0
  189.4390  177.0060  138.6760 C   0  0  0  0  0  0  0  0  0  0  0  0
  189.7670  177.0240  141.0570 N   0  0  0  0  0  0  0  0  0  0  0  0
  188.1820  173.5350  136.6400 C   0  0  0  0  0  2  0  0  0  0  0  0
  188.2270  174.4610  135.6850 C   0  0  0  0  0  3  0  0  0  0  0  0
  190.4740  176.1360  135.1250 C   0  0  0  0  0  2  0  0  0  0  0  0
  191.5990  175.4090  135.7900 C   0  0  0  0  0  0  0  0  0  0  0  0
  192.9330  173.4370  136.0880 C   0  0  0  0  0  0  0  0  0  0  0  0
  193.7120  174.0790  137.0040 C   0  0  0  0  0  0  0  0  0  0  0  0
  194.4840  171.8820  136.8650 C   0  0  0  0  0  2  0  0  0  0  0  0
  192.4070  176.0780  136.7350 C   0  0  0  0  0  3  0  0  0  0  0  0
  193.3720  172.0970  135.9350 N   0  0  0  0  0  0  0  0  0  0  0  0
  193.4760  175.4110  137.3570 C   0  0  0  0  0  0  0  0  0  0  0  0
  194.7030  173.1870  137.4990 N   0  0  0  0  0  0  0  0  0  0  0  0
  192.6530  171.0420  135.2440 C   0  0  0  0  0  1  0  0  0  0  0  0
  195.5370  173.3950  138.6680 C   0  0  0  0  0  1  0  0  0  0  0  0
  191.8600  174.0670  135.4580 C   0  0  0  0  0  3  0  0  0  0  0  0
  194.2680  176.0690  138.2890 O   0  0  0  0  0  1  0  0  0  0  0  0
  184.6960  176.1140  135.9500 C   0  0  0  0  0  2  0  0  0  0  0  0
  183.3940  176.8320  135.6200 C   0  0  0  0  0  2  0  0  0  0  0  0
  180.9310  176.6820  136.0700 C   0  0  0  0  0  1  0  0  0  0  0  0
  182.3230  176.5320  136.6610 C   0  0  2  0  0  3  0  0  0  0  0  0
  182.6760  179.0560  140.1950 C   0  0  1  0  0  3  0  0  0  0  0  0
  183.2440  177.6360  140.2600 C   0  0  0  0  0  2  0  0  0  0  0  0
  182.8100  175.5340  139.2320 O   0  0  0  0  0  0  0  0  0  0  0  0
  182.1200  178.8050  137.7520 C   0  0  0  0  0  2  0  0  0  0  0  0
  182.8090  176.7870  139.1010 C   0  0  0  0  0  0  0  0  0  0  0  0
  182.4850  177.3870  137.8350 N   0  0  0  0  0  0  0  0  0  0  0  0
  182.8700  179.6350  138.7910 C   0  0  0  0  0  2  0  0  0  0  0  0
  181.2120  179.1110  140.6520 C   0  0  2  0  0  3  0  0  0  0  0  0
  180.6410  180.3420  140.3190 O   0  0  0  0  0  1  0  0  0  0  0  0
  180.7070  180.0530  142.8040 O   0  0  0  0  0  1  0  0  0  0  0  0
  181.0780  178.8750  142.1520 C   0  0  0  0  0  2  0  0  0  0  0  0
  1  5  1  0  0  0  0
  3 10  1  0  0  0  0
  4 14  1  0  0  0  0
  5  3  2  0  0  0  0
  7 17  1  6  0  0  0
  7  8  1  0  0  0  0
  8  2  1  6  0  0  0
  8  4  1  0  0  0  0
  9  7  1  0  0  0  0
  9 12  1  0  0  0  0
 10  6  1  0  0  0  0
 11 15  1  0  0  0  0
 12 31  1  1  0  0  0
 12 13  1  0  0  0  0
 13  1  1  0  0  0  0
 14  5  1  0  0  0  0
 14 11  2  0  0  0  0
 15 10  2  0  0  0  0
 17 16  2  0  0  0  0
 18 19  1  0  0  0  0
 18  8  1  0  0  0  0
 19 23  1  0  0  0  0
 20 21  2  0  0  0  0
 21 25  1  0  0  0  0
 21 26  1  0  0  0  0
 22 26  1  0  0  0  0
 23 25  2  0  0  0  0
 24 20  1  0  0  0  0
 24 22  1  0  0  0  0
 25 30  1  0  0  0  0
 26 28  1  0  0  0  0
 27 24  1  0  0  0  0
 29 19  2  0  0  0  0
 29 20  1  0  0  0  0
 32 31  1  0  0  0  0
 32 34  1  0  0  0  0
 34 33  1  6  0  0  0
 34 40  1  0  0  0  0
 35 36  1  0  0  0  0
 35 42  1  6  0  0  0
 38 40  1  0  0  0  0
 38 41  1  0  0  0  0
 39 37  2  0  0  0  0
 39 36  1  0  0  0  0
 40 39  1  0  0  0  0
 41 35  1  0  0  0  0
 42 43  1  1  0  0  0
 42 45  1  0  0  0  0
 45 44  1  0  0  0  0
M  END
>  <MODEL>
3

>  <REMARK>
 VINA RESULT:      -6.2      1.930      5.963
  Name = 
  9 active torsions:
  status: ('A' for Active; 'I' for Inactive)
    1  A    between atoms: C_1  and  C_13
    2  A    between atoms: C_2  and  C_3
    3  A    between atoms: C_2  and  C_29
    4  A    between atoms: C_11  and  C_21
    5  A    between atoms: C_11  and  C_35
    6  A    between atoms: C_13  and  C_36
    7  A    between atoms: C_21  and  C_37
    8  A    between atoms: C_23  and  C_44
    9  A    between atoms: N_32  and  C_35
                            x       y       z     vdW  Elec       q    Type
                         _______ _______ _______ _____ _____    ______ ____

>  <TORSDO>
F 9

$$$$
=
 OpenBabel11062414193D

 45 49  0  0  1  0  0  0  0  0999 V2000
  187.4900  178.8680  140.8660 C   0  0  0  0  0  2  0  0  0  0  0  0
  189.0430  179.2310  138.6560 O   0  0  0  0  0  1  0  0  0  0  0  0
  188.3300  177.8110  142.9130 C   0  0  0  0  0  3  0  0  0  0  0  0
  189.6940  177.1600  139.4510 O   0  0  0  0  0  0  0  0  0  0  0  0
  188.4470  177.9310  141.5250 C   0  0  0  0  0  0  0  0  0  0  0  0
  189.0500  176.8340  145.0270 N   0  0  0  0  0  1  0  0  0  0  0  0
  187.5690  177.3190  138.2960 C   0  0  1  0  0  3  0  0  0  0  0  0
  189.0190  177.8550  138.3990 C   0  0  1  0  0  0  0  0  0  0  0  0
  186.5120  178.3970  138.0420 C   0  0  0  0  0  2  0  0  0  0  0  0
  189.1720  176.9530  143.6140 C   0  0  0  0  0  0  0  0  0  0  0  0
  190.2510  176.3180  141.6030 C   0  0  0  0  0  3  0  0  0  0  0  0
  185.5750  178.6030  139.2450 C   0  0  2  0  0  3  0  0  0  0  0  0
  186.1700  178.1650  140.5900 C   0  0  0  0  0  2  0  0  0  0  0  0
  189.4350  177.1600  140.8390 C   0  0  0  0  0  0  0  0  0  0  0  0
  190.1080  176.2300  142.9510 N   0  0  0  0  0  0  0  0  0  0  0  0
  186.8800  176.1930  136.2140 C   0  0  0  0  0  2  0  0  0  0  0  0
  187.3790  176.0970  137.4440 C   0  0  0  0  0  3  0  0  0  0  0  0
  189.7730  177.6170  137.0820 C   0  0  0  0  0  2  0  0  0  0  0  0
  190.8820  176.6230  137.2170 C   0  0  0  0  0  0  0  0  0  0  0  0
  191.9010  174.5290  136.6390 C   0  0  0  0  0  0  0  0  0  0  0  0
  192.9640  174.8010  137.4470 C   0  0  0  0  0  0  0  0  0  0  0  0
  193.3060  172.6730  136.5540 C   0  0  0  0  0  2  0  0  0  0  0  0
  191.9840  176.9100  138.0510 C   0  0  0  0  0  3  0  0  0  0  0  0
  192.0630  173.2540  136.0380 N   0  0  0  0  0  0  0  0  0  0  0  0
  193.0400  175.9910  138.1760 C   0  0  0  0  0  0  0  0  0  0  0  0
  193.8780  173.7120  137.4170 N   0  0  0  0  0  0  0  0  0  0  0  0
  191.0390  172.5180  135.3190 C   0  0  0  0  0  1  0  0  0  0  0  0
  194.9800  173.4920  138.3360 C   0  0  0  0  0  1  0  0  0  0  0  0
  190.8320  175.4150  136.4980 C   0  0  0  0  0  3  0  0  0  0  0  0
  194.1230  176.2720  139.0000 O   0  0  0  0  0  1  0  0  0  0  0  0
  184.2610  177.8770  138.9850 C   0  0  0  0  0  2  0  0  0  0  0  0
  183.9430  177.8240  137.4970 C   0  0  0  0  0  2  0  0  0  0  0  0
  181.8570  176.7540  138.3910 C   0  0  0  0  0  1  0  0  0  0  0  0
  182.8150  176.8400  137.2130 C   0  0  2  0  0  3  0  0  0  0  0  0
  184.2760  172.8580  136.2160 C   0  0  1  0  0  3  0  0  0  0  0  0
  184.1640  173.8910  135.0910 C   0  0  0  0  0  2  0  0  0  0  0  0
  182.8410  175.8100  134.6100 O   0  0  0  0  0  0  0  0  0  0  0  0
  183.6400  174.5660  137.9530 C   0  0  0  0  0  2  0  0  0  0  0  0
  183.3890  175.1080  135.5020 C   0  0  0  0  0  0  0  0  0  0  0  0
  183.3480  175.5210  136.8800 N   0  0  0  0  0  0  0  0  0  0  0  0
  184.6890  173.5450  137.5200 C   0  0  0  0  0  2  0  0  0  0  0  0
  182.9890  172.0360  136.3720 C   0  0  2  0  0  3  0  0  0  0  0  0
  183.2550  170.8260  137.0170 O   0  0  0  0  0  1  0  0  0  0  0  0
  180.9360  171.7460  135.1560 O   0  0  0  0  0  1  0  0  0  0  0  0
  182.3260  171.7620  135.0260 C   0  0  0  0  0  2  0  0  0  0  0  0
  1  5  1  0  0  0  0
  3 10  1  0  0  0  0
  4 14  1  0  0  0  0
  5  3  2  0  0  0  0
  7 17  1  6  0  0  0
  7  8  1  0  0  0  0
  8  2  1  1  0  0  0
  8  4  1  0  0  0  0
  9  7  1  0  0  0  0
  9 12  1  0  0  0  0
 10  6  1  0  0  0  0
 11 15  1  0  0  0  0
 12 31  1  6  0  0  0
 12 13  1  0  0  0  0
 13  1  1  0  0  0  0
 14  5  1  0  0  0  0
 14 11  2  0  0  0  0
 15 10  2  0  0  0  0
 16 17  2  0  0  0  0
 18 19  1  0  0  0  0
 18  8  1  0  0  0  0
 19 23  1  0  0  0  0
 20 21  2  0  0  0  0
 21 25  1  0  0  0  0
 22 26  1  0  0  0  0
 23 25  2  0  0  0  0
 24 22  1  0  0  0  0
 24 20  1  0  0  0  0
 25 30  1  0  0  0  0
 26 21  1  0  0  0  0
 26 28  1  0  0  0  0
 27 24  1  0  0  0  0
 29 20  1  0  0  0  0
 29 19  2  0  0  0  0
 32 31  1  0  0  0  0
 34 32  1  0  0  0  0
 34 33  1  1  0  0  0
 35 42  1  1  0  0  0
 35 41  1  0  0  0  0
 36 39  1  0  0  0  0
 36 35  1  0  0  0  0
 37 39  2  0  0  0  0
 39 40  1  0  0  0  0
 40 34  1  0  0  0  0
 40 38  1  0  0  0  0
 41 38  1  0  0  0  0
 42 43  1  6  0  0  0
 45 44  1  0  0  0  0
 45 42  1  0  0  0  0
M  END
>  <MODEL>
4

>  <REMARK>
 VINA RESULT:      -6.0      2.243      6.632
  Name = 
  9 active torsions:
  status: ('A' for Active; 'I' for Inactive)
    1  A    between atoms: C_1  and  C_13
    2  A    between atoms: C_2  and  C_3
    3  A    between atoms: C_2  and  C_29
    4  A    between atoms: C_11  and  C_21
    5  A    between atoms: C_11  and  C_35
    6  A    between atoms: C_13  and  C_36
    7  A    between atoms: C_21  and  C_37
    8  A    between atoms: C_23  and  C_44
    9  A    between atoms: N_32  and  C_35
                            x       y       z     vdW  Elec       q    Type
                         _______ _______ _______ _____ _____    ______ ____

>  <TORSDO>
F 9

$$$$
=
 OpenBabel11062414193D

 45 49  0  0  1  0  0  0  0  0999 V2000
  187.7810  178.2440  137.6830 C   0  0  0  0  0  2  0  0  0  0  0  0
  189.3560  177.9100  135.4850 O   0  0  0  0  0  1  0  0  0  0  0  0
  188.6490  178.0740  139.9700 C   0  0  0  0  0  3  0  0  0  0  0  0
  190.1500  176.3300  136.9740 O   0  0  0  0  0  0  0  0  0  0  0  0
  188.7920  177.6920  138.6330 C   0  0  0  0  0  0  0  0  0  0  0  0
  189.3900  177.9940  142.2910 N   0  0  0  0  0  1  0  0  0  0  0  0
  188.0490  175.8820  135.8500 C   0  0  1  0  0  3  0  0  0  0  0  0
  189.4480  176.5380  135.7450 C   0  0  1  0  0  0  0  0  0  0  0  0
  186.9160  176.7020  135.2280 C   0  0  0  0  0  2  0  0  0  0  0  0
  189.5380  177.6020  140.9310 C   0  0  0  0  0  0  0  0  0  0  0  0
  190.7160  176.3750  139.2820 C   0  0  0  0  0  3  0  0  0  0  0  0
  185.9350  177.2500  136.2790 C   0  0  2  0  0  3  0  0  0  0  0  0
  186.5290  177.3810  137.6880 C   0  0  0  0  0  2  0  0  0  0  0  0
  189.8560  176.8120  138.2690 C   0  0  0  0  0  0  0  0  0  0  0  0
  190.5460  176.7690  140.5710 N   0  0  0  0  0  0  0  0  0  0  0  0
  187.2510  173.5800  136.2300 C   0  0  0  0  0  2  0  0  0  0  0  0
  187.9800  174.4220  135.5010 C   0  0  0  0  0  3  0  0  0  0  0  0
  190.2530  175.9030  134.6000 C   0  0  0  0  0  2  0  0  0  0  0  0
  191.5720  175.3590  135.0470 C   0  0  0  0  0  0  0  0  0  0  0  0
  193.9270  175.6240  135.4300 C   0  0  0  0  0  0  0  0  0  0  0  0
  194.0110  174.3520  135.9130 C   0  0  0  0  0  0  0  0  0  0  0  0
  196.1680  175.2380  135.9290 C   0  0  0  0  0  2  0  0  0  0  0  0
  191.6550  174.0430  135.5520 C   0  0  0  0  0  3  0  0  0  0  0  0
  195.2080  176.2320  135.4420 N   0  0  0  0  0  0  0  0  0  0  0  0
  192.8860  173.5250  135.9880 C   0  0  0  0  0  0  0  0  0  0  0  0
  195.3580  174.0630  136.2650 N   0  0  0  0  0  0  0  0  0  0  0  0
  195.5630  177.4760  134.7830 C   0  0  0  0  0  1  0  0  0  0  0  0
  195.9060  172.7500  136.5520 C   0  0  0  0  0  1  0  0  0  0  0  0
  192.7230  176.1670  134.9810 C   0  0  0  0  0  3  0  0  0  0  0  0
  192.9690  172.2290  136.4810 O   0  0  0  0  0  1  0  0  0  0  0  0
  184.6910  176.3730  136.3060 C   0  0  0  0  0  2  0  0  0  0  0  0
  183.4660  177.1330  135.8150 C   0  0  0  0  0  2  0  0  0  0  0  0
  180.9610  177.1520  135.9460 C   0  0  0  0  0  1  0  0  0  0  0  0
  182.2520  176.8380  136.6860 C   0  0  2  0  0  3  0  0  0  0  0  0
  182.3320  179.0170  140.4580 C   0  0  1  0  0  3  0  0  0  0  0  0
  182.8620  177.5810  140.4400 C   0  0  0  0  0  2  0  0  0  0  0  0
  182.4810  175.5960  139.1840 O   0  0  0  0  0  0  0  0  0  0  0  0
  181.9960  179.0060  137.9630 C   0  0  0  0  0  2  0  0  0  0  0  0
  182.5180  176.8550  139.1730 C   0  0  0  0  0  0  0  0  0  0  0  0
  182.3230  177.5770  137.9440 N   0  0  0  0  0  0  0  0  0  0  0  0
  182.6650  179.7160  139.1370 C   0  0  0  0  0  2  0  0  0  0  0  0
  180.8330  179.0720  140.7850 C   0  0  2  0  0  3  0  0  0  0  0  0
  180.4160  180.3960  140.9500 O   0  0  0  0  0  1  0  0  0  0  0  0
  179.5690  177.2710  141.7530 O   0  0  0  0  0  1  0  0  0  0  0  0
  180.4990  178.2730  142.0400 C   0  0  0  0  0  2  0  0  0  0  0  0
  1 13  1  0  0  0  0
  1  5  1  0  0  0  0
  3 10  1  0  0  0  0
  4 14  1  0  0  0  0
  5  3  2  0  0  0  0
  7 17  1  6  0  0  0
  8  2  1  6  0  0  0
  8  7  1  0  0  0  0
  8  4  1  0  0  0  0
  9  7  1  0  0  0  0
  9 12  1  0  0  0  0
 10  6  1  0  0  0  0
 11 15  1  0  0  0  0
 12 31  1  1  0  0  0
 12 13  1  0  0  0  0
 14  5  1  0  0  0  0
 14 11  2  0  0  0  0
 15 10  2  0  0  0  0
 17 16  2  0  0  0  0
 18 19  1  0  0  0  0
 18  8  1  0  0  0  0
 19 23  1  0  0  0  0
 20 24  1  0  0  0  0
 20 21  2  0  0  0  0
 21 25  1  0  0  0  0
 21 26  1  0  0  0  0
 22 26  1  0  0  0  0
 23 25  2  0  0  0  0
 24 22  1  0  0  0  0
 25 30  1  0  0  0  0
 26 28  1  0  0  0  0
 27 24  1  0  0  0  0
 29 19  2  0  0  0  0
 29 20  1  0  0  0  0
 32 31  1  0  0  0  0
 32 34  1  0  0  0  0
 34 33  1  6  0  0  0
 34 40  1  0  0  0  0
 35 42  1  6  0  0  0
 36 35  1  0  0  0  0
 38 41  1  0  0  0  0
 39 37  2  0  0  0  0
 39 36  1  0  0  0  0
 40 38  1  0  0  0  0
 40 39  1  0  0  0  0
 41 35  1  0  0  0  0
 42 43  1  1  0  0  0
 42 45  1  0  0  0  0
 44 45  1  0  0  0  0
M  END
>  <MODEL>
5

>  <REMARK>
 VINA RESULT:      -5.8      2.051      6.190
  Name = 
  9 active torsions:
  status: ('A' for Active; 'I' for Inactive)
    1  A    between atoms: C_1  and  C_13
    2  A    between atoms: C_2  and  C_3
    3  A    between atoms: C_2  and  C_29
    4  A    between atoms: C_11  and  C_21
    5  A    between atoms: C_11  and  C_35
    6  A    between atoms: C_13  and  C_36
    7  A    between atoms: C_21  and  C_37
    8  A    between atoms: C_23  and  C_44
    9  A    between atoms: N_32  and  C_35
                            x       y       z     vdW  Elec       q    Type
                         _______ _______ _______ _____ _____    ______ ____

>  <TORSDO>
F 9

$$$$
=
 OpenBabel11062414193D

 45 49  0  0  1  0  0  0  0  0999 V2000
  187.5590  178.9820  141.0270 C   0  0  0  0  0  2  0  0  0  0  0  0
  188.9340  179.2990  138.6970 O   0  0  0  0  0  1  0  0  0  0  0  0
  188.5400  177.9180  143.0080 C   0  0  0  0  0  3  0  0  0  0  0  0
  189.6040  177.2190  139.4510 O   0  0  0  0  0  0  0  0  0  0  0  0
  188.5460  178.0280  141.6140 C   0  0  0  0  0  0  0  0  0  0  0  0
  189.4090  176.9390  145.0630 N   0  0  0  0  0  1  0  0  0  0  0  0
  187.3950  177.4170  138.4710 C   0  0  1  0  0  3  0  0  0  0  0  0
  188.8600  177.9230  138.4520 C   0  0  1  0  0  0  0  0  0  0  0  0
  186.3440  178.5160  138.2960 C   0  0  0  0  0  2  0  0  0  0  0  0
  189.4180  177.0470  143.6450 C   0  0  0  0  0  0  0  0  0  0  0  0
  190.3160  176.3780  141.5570 C   0  0  0  0  0  3  0  0  0  0  0  0
  185.5130  178.7490  139.5700 C   0  0  2  0  0  3  0  0  0  0  0  0
  186.2060  178.3060  140.8650 C   0  0  0  0  0  2  0  0  0  0  0  0
  189.4590  177.2330  140.8560 C   0  0  0  0  0  0  0  0  0  0  0  0
  190.2820  176.3000  142.9120 N   0  0  0  0  0  0  0  0  0  0  0  0
  186.2670  176.2450  136.6200 C   0  0  0  0  0  2  0  0  0  0  0  0
  187.1110  176.1950  137.6460 C   0  0  0  0  0  3  0  0  0  0  0  0
  189.4990  177.6610  137.0800 C   0  0  0  0  0  2  0  0  0  0  0  0
  190.6010  176.6510  137.1340 C   0  0  0  0  0  0  0  0  0  0  0  0
  191.5590  174.5570  136.4580 C   0  0  0  0  0  0  0  0  0  0  0  0
  192.6680  174.8000  137.2110 C   0  0  0  0  0  0  0  0  0  0  0  0
  192.9320  172.6870  136.2590 C   0  0  0  0  0  2  0  0  0  0  0  0
  191.7510  176.9080  137.9110 C   0  0  0  0  0  3  0  0  0  0  0  0
  191.6700  173.2930  135.8250 N   0  0  0  0  0  0  0  0  0  0  0  0
  192.8000  175.9740  137.9590 C   0  0  0  0  0  0  0  0  0  0  0  0
  193.5650  173.7010  137.1090 N   0  0  0  0  0  0  0  0  0  0  0  0
  190.5990  172.5840  135.1500 C   0  0  0  0  0  1  0  0  0  0  0  0
  194.7130  173.4490  137.9610 C   0  0  0  0  0  1  0  0  0  0  0  0
  190.4950  175.4590  136.3950 C   0  0  0  0  0  3  0  0  0  0  0  0
  193.9310  176.2250  138.7260 O   0  0  0  0  0  1  0  0  0  0  0  0
  184.1670  178.0500  139.4230 C   0  0  0  0  0  2  0  0  0  0  0  0
  183.2870  178.7520  138.3970 C   0  0  0  0  0  2  0  0  0  0  0  0
  181.6420  178.2530  136.5710 C   0  0  0  0  0  1  0  0  0  0  0  0
  182.1430  177.8530  137.9500 C   0  0  2  0  0  3  0  0  0  0  0  0
  178.9850  177.9640  140.9490 C   0  0  1  0  0  3  0  0  0  0  0  0
  179.0540  179.1020  139.9280 C   0  0  0  0  0  2  0  0  0  0  0  0
  180.7280  180.1740  138.6200 O   0  0  0  0  0  0  0  0  0  0  0  0
  180.8450  176.7160  139.7990 C   0  0  0  0  0  2  0  0  0  0  0  0
  180.3350  179.0990  139.1470 C   0  0  0  0  0  0  0  0  0  0  0  0
  181.0540  177.8730  138.9240 N   0  0  0  0  0  0  0  0  0  0  0  0
  179.4020  176.6450  140.2940 C   0  0  0  0  0  2  0  0  0  0  0  0
  179.8030  178.2730  142.2110 C   0  0  2  0  0  3  0  0  0  0  0  0
  179.6800  177.2360  143.1400 O   0  0  0  0  0  1  0  0  0  0  0  0
  180.4290  180.5040  142.8490 O   0  0  0  0  0  1  0  0  0  0  0  0
  179.3750  179.5880  142.8540 C   0  0  0  0  0  2  0  0  0  0  0  0
  1  5  1  0  0  0  0
  3 10  1  0  0  0  0
  4 14  1  0  0  0  0
  5  3  2  0  0  0  0
  7 17  1  6  0  0  0
  8  7  1  0  0  0  0
  8  2  1  1  0  0  0
  8  4  1  0  0  0  0
  9  7  1  0  0  0  0
  9 12  1  0  0  0  0
 10  6  1  0  0  0  0
 11 15  1  0  0  0  0
 12 31  1  6  0  0  0
 12 13  1  0  0  0  0
 13  1  1  0  0  0  0
 14 11  2  0  0  0  0
 14  5  1  0  0  0  0
 15 10  2  0  0  0  0
 16 17  2  0  0  0  0
 18 19  1  0  0  0  0
 18  8  1  0  0  0  0
 19 23  1  0  0  0  0
 20 21  2  0  0  0  0
 21 25  1  0  0  0  0
 22 26  1  0  0  0  0
 23 25  2  0  0  0  0
 24 22  1  0  0  0  0
 24 20  1  0  0  0  0
 25 30  1  0  0  0  0
 26 21  1  0  0  0  0
 26 28  1  0  0  0  0
 27 24  1  0  0  0  0
 29 20  1  0  0  0  0
 29 19  2  0  0  0  0
 32 31  1  0  0  0  0
 34 33  1  6  0  0  0
 34 32  1  0  0  0  0
 34 40  1  0  0  0  0
 35 42  1  1  0  0  0
 36 35  1  0  0  0  0
 37 39  2  0  0  0  0
 38 41  1  0  0  0  0
 39 36  1  0  0  0  0
 40 39  1  0  0  0  0
 40 38  1  0  0  0  0
 41 35  1  0  0  0  0
 42 45  1  0  0  0  0
 42 43  1  1  0  0  0
 44 45  1  0  0  0  0
M  END
>  <MODEL>
6

>  <REMARK>
 VINA RESULT:      -5.6      2.116      6.425
  Name = 
  9 active torsions:
  status: ('A' for Active; 'I' for Inactive)
    1  A    between atoms: C_1  and  C_13
    2  A    between atoms: C_2  and  C_3
    3  A    between atoms: C_2  and  C_29
    4  A    between atoms: C_11  and  C_21
    5  A    between atoms: C_11  and  C_35
    6  A    between atoms: C_13  and  C_36
    7  A    between atoms: C_21  and  C_37
    8  A    between atoms: C_23  and  C_44
    9  A    between atoms: N_32  and  C_35
                            x       y       z     vdW  Elec       q    Type
                         _______ _______ _______ _____ _____    ______ ____

>  <TORSDO>
F 9

$$$$
=
 OpenBabel11062414193D

 45 49  0  0  1  0  0  0  0  0999 V2000
  186.7050  177.6600  135.4950 C   0  0  0  0  0  2  0  0  0  0  0  0
  188.1970  179.2820  137.0970 O   0  0  0  0  0  1  0  0  0  0  0  0
  184.3570  177.1300  135.9690 C   0  0  0  0  0  3  0  0  0  0  0  0
  186.9120  178.0680  138.5880 O   0  0  0  0  0  0  0  0  0  0  0  0
  185.6010  177.5030  136.4880 C   0  0  0  0  0  0  0  0  0  0  0  0
  182.0070  176.5710  136.2850 N   0  0  0  0  0  1  0  0  0  0  0  0
  188.7910  176.9550  137.5340 C   0  0  1  0  0  3  0  0  0  0  0  0
  188.2330  178.2910  138.0850 C   0  0  1  0  0  0  0  0  0  0  0  0
  189.5830  177.0890  136.2310 C   0  0  0  0  0  2  0  0  0  0  0  0
  183.2700  176.9490  136.8180 C   0  0  0  0  0  0  0  0  0  0  0  0
  184.6080  177.4940  138.6960 C   0  0  0  0  0  3  0  0  0  0  0  0
  188.8660  176.4430  135.0330 C   0  0  2  0  0  3  0  0  0  0  0  0
  187.3460  176.3130  135.2030 C   0  0  0  0  0  2  0  0  0  0  0  0
  185.7400  177.6900  137.8970 C   0  0  0  0  0  0  0  0  0  0  0  0
  183.4160  177.1340  138.1540 N   0  0  0  0  0  0  0  0  0  0  0  0
  190.6970  175.6180  138.3430 C   0  0  0  0  0  2  0  0  0  0  0  0
  189.4570  176.0570  138.5380 C   0  0  0  0  0  3  0  0  0  0  0  0
  189.1190  178.8100  139.2290 C   0  0  0  0  0  2  0  0  0  0  0  0
  188.5970  178.4430  140.5820 C   0  0  0  0  0  0  0  0  0  0  0  0
  186.7910  178.2540  142.1510 C   0  0  0  0  0  0  0  0  0  0  0  0
  187.6320  177.7260  143.0840 C   0  0  0  0  0  0  0  0  0  0  0  0
  185.5300  177.9140  144.0790 C   0  0  0  0  0  2  0  0  0  0  0  0
  189.4700  177.8930  141.5450 C   0  0  0  0  0  3  0  0  0  0  0  0
  185.4820  178.3670  142.6860 N   0  0  0  0  0  0  0  0  0  0  0  0
  188.9900  177.5310  142.8160 C   0  0  0  0  0  0  0  0  0  0  0  0
  186.9120  177.4680  144.2830 N   0  0  0  0  0  0  0  0  0  0  0  0
  184.3820  179.1020  142.0900 C   0  0  0  0  0  1  0  0  0  0  0  0
  187.4890  177.1700  145.5820 C   0  0  0  0  0  1  0  0  0  0  0  0
  187.2360  178.6320  140.8830 C   0  0  0  0  0  3  0  0  0  0  0  0
  189.8490  176.9920  143.7640 O   0  0  0  0  0  1  0  0  0  0  0  0
  189.4870  175.0800  134.7540 C   0  0  0  0  0  2  0  0  0  0  0  0
  190.9980  175.1830  134.5940 C   0  0  0  0  0  2  0  0  0  0  0  0
  190.7840  173.0060  135.8220 C   0  0  0  0  0  1  0  0  0  0  0  0
  191.6770  173.8630  134.9380 C   0  0  2  0  0  3  0  0  0  0  0  0
  195.4760  174.5370  136.9620 C   0  0  1  0  0  3  0  0  0  0  0  0
  195.2180  173.1590  136.3460 C   0  0  0  0  0  2  0  0  0  0  0  0
  193.3310  171.7960  135.8490 O   0  0  0  0  0  0  0  0  0  0  0  0
  193.3280  175.4480  136.0150 C   0  0  0  0  0  2  0  0  0  0  0  0
  193.7850  172.9680  135.9420 C   0  0  0  0  0  0  0  0  0  0  0  0
  192.9700  174.0960  135.5760 N   0  0  0  0  0  0  0  0  0  0  0  0
  194.8420  175.6270  136.0930 C   0  0  0  0  0  2  0  0  0  0  0  0
  195.0100  174.6110  138.4220 C   0  0  2  0  0  3  0  0  0  0  0  0
  194.3190  175.8030  138.6560 O   0  0  0  0  0  1  0  0  0  0  0  0
  196.2070  175.5980  140.2580 O   0  0  0  0  0  1  0  0  0  0  0  0
  196.1790  174.5000  139.3950 C   0  0  0  0  0  2  0  0  0  0  0  0
  1  5  1  0  0  0  0
  3  5  2  0  0  0  0
  3 10  1  0  0  0  0
  5 14  1  0  0  0  0
  6 10  1  0  0  0  0
  7  8  1  0  0  0  0
  7 17  1  1  0  0  0
  8  2  1  6  0  0  0
  8  4  1  0  0  0  0
  8 18  1  0  0  0  0
  9  7  1  0  0  0  0
 10 15  2  0  0  0  0
 12 31  1  1  0  0  0
 12 13  1  0  0  0  0
 12  9  1  0  0  0  0
 13  1  1  0  0  0  0
 14  4  1  0  0  0  0
 14 11  2  0  0  0  0
 15 11  1  0  0  0  0
 16 17  2  0  0  0  0
 18 19  1  0  0  0  0
 19 29  2  0  0  0  0
 19 23  1  0  0  0  0
 20 24  1  0  0  0  0
 20 21  2  0  0  0  0
 21 26  1  0  0  0  0
 22 26  1  0  0  0  0
 23 25  2  0  0  0  0
 24 22  1  0  0  0  0
 25 21  1  0  0  0  0
 25 30  1  0  0  0  0
 26 28  1  0  0  0  0
 27 24  1  0  0  0  0
 29 20  1  0  0  0  0
 32 31  1  0  0  0  0
 32 34  1  0  0  0  0
 34 40  1  0  0  0  0
 34 33  1  1  0  0  0
 35 42  1  1  0  0  0
 36 35  1  0  0  0  0
 37 39  2  0  0  0  0
 38 41  1  0  0  0  0
 39 36  1  0  0  0  0
 40 39  1  0  0  0  0
 40 38  1  0  0  0  0
 41 35  1  0  0  0  0
 42 43  1  6  0  0  0
 42 45  1  0  0  0  0
 45 44  1  0  0  0  0
M  END
>  <MODEL>
7

>  <REMARK>
 VINA RESULT:      -5.5      2.366      7.853
  Name = 
  9 active torsions:
  status: ('A' for Active; 'I' for Inactive)
    1  A    between atoms: C_1  and  C_13
    2  A    between atoms: C_2  and  C_3
    3  A    between atoms: C_2  and  C_29
    4  A    between atoms: C_11  and  C_21
    5  A    between atoms: C_11  and  C_35
    6  A    between atoms: C_13  and  C_36
    7  A    between atoms: C_21  and  C_37
    8  A    between atoms: C_23  and  C_44
    9  A    between atoms: N_32  and  C_35
                            x       y       z     vdW  Elec       q    Type
                         _______ _______ _______ _____ _____    ______ ____

>  <TORSDO>
F 9

$$$$
=
 OpenBabel11062414193D

 45 49  0  0  1  0  0  0  0  0999 V2000
  183.5260  177.7890  138.6040 C   0  0  0  0  0  2  0  0  0  0  0  0
  183.1310  175.6670  136.9420 O   0  0  0  0  0  1  0  0  0  0  0  0
  181.9900  179.7000  138.6970 C   0  0  0  0  0  3  0  0  0  0  0  0
  182.4760  177.4860  135.6740 O   0  0  0  0  0  0  0  0  0  0  0  0
  182.5100  178.6520  137.9300 C   0  0  0  0  0  0  0  0  0  0  0  0
  180.5180  181.6270  138.9350 N   0  0  0  0  0  1  0  0  0  0  0  0
  184.8500  177.1190  135.9950 C   0  0  1  0  0  3  0  0  0  0  0  0
  183.4580  176.4590  135.8340 C   0  0  1  0  0  0  0  0  0  0  0  0
  185.7480  176.4560  137.0430 C   0  0  0  0  0  2  0  0  0  0  0  0
  181.0450  180.5630  138.1510 C   0  0  0  0  0  0  0  0  0  0  0  0
  181.1110  179.3860  136.0960 C   0  0  0  0  0  3  0  0  0  0  0  0
  185.9880  177.3530  138.2700 C   0  0  2  0  0  3  0  0  0  0  0  0
  184.9060  178.4180  138.4940 C   0  0  0  0  0  2  0  0  0  0  0  0
  182.0640  178.4850  136.5840 C   0  0  0  0  0  0  0  0  0  0  0  0
  180.6270  180.3900  136.8730 N   0  0  0  0  0  0  0  0  0  0  0  0
  186.6790  178.1860  134.7330 C   0  0  0  0  0  2  0  0  0  0  0  0
  185.5750  177.4440  134.7200 C   0  0  0  0  0  3  0  0  0  0  0  0
  183.4360  175.5520  134.5940 C   0  0  0  0  0  2  0  0  0  0  0  0
  182.7480  174.2470  134.8390 C   0  0  0  0  0  0  0  0  0  0  0  0
  182.8220  171.8740  135.1950 C   0  0  0  0  0  0  0  0  0  0  0  0
  181.4670  171.8330  135.3300 C   0  0  0  0  0  0  0  0  0  0  0  0
  182.2420  169.6400  135.4980 C   0  0  0  0  0  2  0  0  0  0  0  0
  181.3450  174.2080  134.9830 C   0  0  0  0  0  3  0  0  0  0  0  0
  183.3610  170.5680  135.3180 N   0  0  0  0  0  0  0  0  0  0  0  0
  180.6880  172.9900  135.2280 C   0  0  0  0  0  0  0  0  0  0  0  0
  181.0490  170.4910  135.5470 N   0  0  0  0  0  0  0  0  0  0  0  0
  184.7200  170.1760  134.9910 C   0  0  0  0  0  1  0  0  0  0  0  0
  179.6880  169.9930  135.4650 C   0  0  0  0  0  1  0  0  0  0  0  0
  183.5050  173.0650  134.9430 C   0  0  0  0  0  3  0  0  0  0  0  0
  179.3060  172.9510  135.3660 O   0  0  0  0  0  1  0  0  0  0  0  0
  187.3590  178.0070  138.1510 C   0  0  0  0  0  2  0  0  0  0  0  0
  188.4460  177.1280  138.7560 C   0  0  0  0  0  2  0  0  0  0  0  0
  190.7800  177.8550  139.3170 C   0  0  0  0  0  1  0  0  0  0  0  0
  189.3160  177.9200  139.7230 C   0  0  2  0  0  3  0  0  0  0  0  0
  188.8400  176.6190  143.8540 C   0  0  1  0  0  3  0  0  0  0  0  0
  187.6470  177.2830  143.1610 C   0  0  0  0  0  2  0  0  0  0  0  0
  187.3000  178.8660  141.4190 O   0  0  0  0  0  0  0  0  0  0  0  0
  190.1880  176.6470  141.7270 C   0  0  0  0  0  2  0  0  0  0  0  0
  188.0230  177.9350  141.8630 C   0  0  0  0  0  0  0  0  0  0  0  0
  189.1350  177.4460  141.0930 N   0  0  0  0  0  0  0  0  0  0  0  0
  189.6280  175.7750  142.8480 C   0  0  0  0  0  2  0  0  0  0  0  0
  189.7270  177.6420  144.5770 C   0  0  2  0  0  3  0  0  0  0  0  0
  190.9810  177.0920  144.8570 O   0  0  0  0  0  1  0  0  0  0  0  0
  188.5640  177.0600  146.5990 O   0  0  0  0  0  1  0  0  0  0  0  0
  189.0850  178.1320  145.8710 C   0  0  0  0  0  2  0  0  0  0  0  0
  4  8  1  0  0  0  0
  4 14  1  0  0  0  0
  5  1  1  0  0  0  0
  5  3  2  0  0  0  0
  7 17  1  6  0  0  0
  7  9  1  0  0  0  0
  8  7  1  0  0  0  0
  8  2  1  1  0  0  0
  9 12  1  0  0  0  0
 10  3  1  0  0  0  0
 10  6  1  0  0  0  0
 11 14  2  0  0  0  0
 11 15  1  0  0  0  0
 12 31  1  6  0  0  0
 12 13  1  0  0  0  0
 13  1  1  0  0  0  0
 14  5  1  0  0  0  0
 15 10  2  0  0  0  0
 17 16  2  0  0  0  0
 18 19  1  0  0  0  0
 18  8  1  0  0  0  0
 19 29  2  0  0  0  0
 19 23  1  0  0  0  0
 20 24  1  0  0  0  0
 20 21  2  0  0  0  0
 21 26  1  0  0  0  0
 22 26  1  0  0  0  0
 23 25  2  0  0  0  0
 24 22  1  0  0  0  0
 25 21  1  0  0  0  0
 25 30  1  0  0  0  0
 27 24  1  0  0  0  0
 28 26  1  0  0  0  0
 29 20  1  0  0  0  0
 31 32  1  0  0  0  0
 32 34  1  0  0  0  0
 34 33  1  6  0  0  0
 34 40  1  0  0  0  0
 35 42  1  6  0  0  0
 36 35  1  0  0  0  0
 37 39  2  0  0  0  0
 38 41  1  0  0  0  0
 39 36  1  0  0  0  0
 40 38  1  0  0  0  0
 40 39  1  0  0  0  0
 41 35  1  0  0  0  0
 42 43  1  1  0  0  0
 42 45  1  0  0  0  0
 45 44  1  0  0  0  0
M  END
>  <MODEL>
8

>  <REMARK>
 VINA RESULT:      -5.5      3.469      9.637
  Name = 
  9 active torsions:
  status: ('A' for Active; 'I' for Inactive)
    1  A    between atoms: C_1  and  C_13
    2  A    between atoms: C_2  and  C_3
    3  A    between atoms: C_2  and  C_29
    4  A    between atoms: C_11  and  C_21
    5  A    between atoms: C_11  and  C_35
    6  A    between atoms: C_13  and  C_36
    7  A    between atoms: C_21  and  C_37
    8  A    between atoms: C_23  and  C_44
    9  A    between atoms: N_32  and  C_35
                            x       y       z     vdW  Elec       q    Type
                         _______ _______ _______ _____ _____    ______ ____

>  <TORSDO>
F 9

$$$$
=
 OpenBabel11062414193D

 45 49  0  0  1  0  0  0  0  0999 V2000
  182.4000  180.1320  138.2360 C   0  0  0  0  0  2  0  0  0  0  0  0
  182.9110  179.7550  140.8850 O   0  0  0  0  0  1  0  0  0  0  0  0
  180.8190  181.8200  137.4210 C   0  0  0  0  0  3  0  0  0  0  0  0
  180.6400  180.1810  140.8200 O   0  0  0  0  0  0  0  0  0  0  0  0
  181.1920  180.9770  138.4720 C   0  0  0  0  0  0  0  0  0  0  0  0
  179.3240  183.4960  136.4730 N   0  0  0  0  0  1  0  0  0  0  0  0
  181.4100  177.9980  140.1010 C   0  0  1  0  0  3  0  0  0  0  0  0
  181.6430  179.1900  141.0620 C   0  0  1  0  0  0  0  0  0  0  0  0
  182.6900  177.4030  139.5090 C   0  0  0  0  0  2  0  0  0  0  0  0
  179.6990  182.6380  137.5440 C   0  0  0  0  0  0  0  0  0  0  0  0
  179.2970  181.8100  139.7270 C   0  0  0  0  0  3  0  0  0  0  0  0
  182.8170  177.6550  137.9960 C   0  0  2  0  0  3  0  0  0  0  0  0
  182.0180  178.8630  137.4900 C   0  0  0  0  0  2  0  0  0  0  0  0
  180.4090  180.9620  139.6660 C   0  0  0  0  0  0  0  0  0  0  0  0
  178.9670  182.6170  138.6860 N   0  0  0  0  0  0  0  0  0  0  0  0
  179.3690  176.6400  139.8460 C   0  0  0  0  0  2  0  0  0  0  0  0
  180.4390  176.9540  140.5720 C   0  0  0  0  0  3  0  0  0  0  0  0
  181.5410  178.7270  142.5240 C   0  0  0  0  0  2  0  0  0  0  0  0
  182.8740  178.6190  143.1940 C   0  0  0  0  0  0  0  0  0  0  0  0
  185.2620  178.4090  143.0880 C   0  0  0  0  0  0  0  0  0  0  0  0
  185.3450  178.4530  144.4470 C   0  0  0  0  0  0  0  0  0  0  0  0
  187.5100  178.1450  143.6350 C   0  0  0  0  0  2  0  0  0  0  0  0
  182.9570  178.6690  144.6020 C   0  0  0  0  0  3  0  0  0  0  0  0
  186.5560  178.2520  142.5280 N   0  0  0  0  0  0  0  0  0  0  0  0
  184.2040  178.5820  145.2450 C   0  0  0  0  0  0  0  0  0  0  0  0
  186.7040  178.3240  144.8470 N   0  0  0  0  0  0  0  0  0  0  0  0
  186.8480  177.9210  141.1460 C   0  0  0  0  0  1  0  0  0  0  0  0
  187.1800  178.0500  146.1910 C   0  0  0  0  0  1  0  0  0  0  0  0
  184.0400  178.4850  142.4180 C   0  0  0  0  0  3  0  0  0  0  0  0
  184.2860  178.6280  146.6300 O   0  0  0  0  0  1  0  0  0  0  0  0
  182.4080  176.3960  137.2430 C   0  0  0  0  0  2  0  0  0  0  0  0
  183.2700  176.1860  136.0050 C   0  0  0  0  0  2  0  0  0  0  0  0
  184.1400  174.4510  137.5940 C   0  0  0  0  0  1  0  0  0  0  0  0
  184.3610  175.1550  136.2650 C   0  0  2  0  0  3  0  0  0  0  0  0
  188.3350  176.9410  136.2470 C   0  0  1  0  0  3  0  0  0  0  0  0
  188.0900  175.7110  135.3690 C   0  0  0  0  0  2  0  0  0  0  0  0
  186.6560  173.8120  135.3880 O   0  0  0  0  0  0  0  0  0  0  0  0
  185.9070  177.0540  136.9010 C   0  0  0  0  0  2  0  0  0  0  0  0
  186.7900  175.0300  135.6810 C   0  0  0  0  0  0  0  0  0  0  0  0
  185.6830  175.7750  136.2200 N   0  0  0  0  0  0  0  0  0  0  0  0
  187.0790  177.8150  136.2880 C   0  0  0  0  0  2  0  0  0  0  0  0
  188.8250  176.5580  137.6500 C   0  0  2  0  0  3  0  0  0  0  0  0
  189.1730  177.7000  138.3770 O   0  0  0  0  0  1  0  0  0  0  0  0
  190.7200  175.6280  138.8000 O   0  0  0  0  0  1  0  0  0  0  0  0
  190.0160  175.6080  137.5940 C   0  0  0  0  0  2  0  0  0  0  0  0
  1  5  1  0  0  0  0
  3 10  2  0  0  0  0
  3  5  1  0  0  0  0
  4  8  1  0  0  0  0
  5 14  2  0  0  0  0
  6 10  1  0  0  0  0
  7 17  1  1  0  0  0
  7  8  1  0  0  0  0
  8  2  1  6  0  0  0
  8 18  1  0  0  0  0
  9  7  1  0  0  0  0
 10 15  1  0  0  0  0
 12 31  1  6  0  0  0
 12  9  1  0  0  0  0
 13 12  1  0  0  0  0
 13  1  1  0  0  0  0
 14 11  1  0  0  0  0
 14  4  1  0  0  0  0
 15 11  2  0  0  0  0
 16 17  2  0  0  0  0
 18 19  1  0  0  0  0
 19 23  1  0  0  0  0
 20 21  2  0  0  0  0
 21 26  1  0  0  0  0
 21 25  1  0  0  0  0
 22 26  1  0  0  0  0
 23 25  2  0  0  0  0
 24 20  1  0  0  0  0
 24 22  1  0  0  0  0
 25 30  1  0  0  0  0
 26 28  1  0  0  0  0
 27 24  1  0  0  0  0
 29 20  1  0  0  0  0
 29 19  2  0  0  0  0
 32 34  1  0  0  0  0
 32 31  1  0  0  0  0
 34 33  1  1  0  0  0
 35 41  1  0  0  0  0
 35 42  1  1  0  0  0
 36 39  1  0  0  0  0
 36 35  1  0  0  0  0
 37 39  2  0  0  0  0
 39 40  1  0  0  0  0
 40 34  1  0  0  0  0
 40 38  1  0  0  0  0
 41 38  1  0  0  0  0
 42 43  1  6  0  0  0
 45 42  1  0  0  0  0
 45 44  1  0  0  0  0
M  END
>  <MODEL>
9

>  <REMARK>
 VINA RESULT:      -5.5      2.945      8.593
  Name = 
  9 active torsions:
  status: ('A' for Active; 'I' for Inactive)
    1  A    between atoms: C_1  and  C_13
    2  A    between atoms: C_2  and  C_3
    3  A    between atoms: C_2  and  C_29
    4  A    between atoms: C_11  and  C_21
    5  A    between atoms: C_11  and  C_35
    6  A    between atoms: C_13  and  C_36
    7  A    between atoms: C_21  and  C_37
    8  A    between atoms: C_23  and  C_44
    9  A    between atoms: N_32  and  C_35
                            x       y       z     vdW  Elec       q    Type
                         _______ _______ _______ _____ _____    ______ ____

>  <TORSDO>
F 9

$$$$
