=
 OpenBabel11062412583D

 38 44  0  0  1  0  0  0  0  0999 V2000
  189.0770  176.1340  135.9660 C   0  0  2  0  0  3  0  0  0  0  0  0
  186.5980  176.5210  135.9730 C   0  0  0  0  0  3  0  0  0  0  0  0
  185.3000  176.0430  136.1690 C   0  0  0  0  0  0  0  0  0  0  0  0
  187.4960  174.3590  136.6970 C   0  0  0  0  0  0  0  0  0  0  0  0
  189.5800  176.0720  137.3870 C   0  0  1  0  0  0  0  0  0  0  0  0
  185.0950  174.7320  136.6100 C   0  0  0  0  0  3  0  0  0  0  0  0
  190.0220  173.7550  137.2190 C   0  0  0  0  0  3  0  0  0  0  0  0
  188.6070  173.4710  137.0130 N   0  0  0  0  0  2  0  0  0  0  0  0
  185.9580  172.6250  137.2940 F   0  0  0  0  0  0  0  0  0  0  0  0
  190.5030  174.9620  137.3740 N   0  0  0  0  0  0  0  0  0  0  0  0
  186.1840  173.8900  136.8630 C   0  0  0  0  0  0  0  0  0  0  0  0
  189.8700  177.3060  136.5040 C   0  0  2  0  0  3  0  0  0  0  0  0
  190.2090  177.3070  137.9710 C   0  0  1  0  0  3  0  0  0  0  0  0
  187.6900  175.6910  136.2360 C   0  0  0  0  0  0  0  0  0  0  0  0
  188.5700  179.0030  138.2640 O   0  0  0  0  0  0  0  0  0  0  0  0
  189.1860  178.0370  138.7890 C   0  0  0  0  0  0  0  0  0  0  0  0
  188.9030  177.6480  140.1350 N   0  0  0  0  0  2  0  0  0  0  0  0
  187.9290  178.3480  140.9580 C   0  0  0  0  0  2  0  0  0  0  0  0
  187.0580  177.4430  143.0510 N   0  0  0  0  0  0  0  0  0  0  0  0
  188.0570  177.8970  142.3690 C   0  0  0  0  0  0  0  0  0  0  0  0
  187.5670  177.0550  144.3580 C   0  0  1  0  0  3  0  0  0  0  0  0
  190.0520  177.1280  145.2580 C   0  0  0  0  0  1  0  0  0  0  0  0
  189.3000  177.8550  143.0560 N   0  0  0  0  0  0  0  0  0  0  0  0
  189.0180  177.3700  144.2160 C   0  0  0  0  0  0  0  0  0  0  0  0
  185.2940  178.3330  144.6860 C   0  0  0  0  0  1  0  0  0  0  0  0
  186.8190  178.1080  145.6430 S   0  0  0  0  0  0  0  0  0  0  0  0
  183.9050  177.1270  135.8920 S   0  0  0  0  0  0  0  0  0  0  0  0
  180.9430  175.2560  139.5010 N   0  0  0  0  0  0  0  0  0  0  0  0
  182.3580  176.2380  138.0340 C   0  0  0  0  0  0  0  0  0  0  0  0
  181.9830  176.1850  139.3330 C   0  0  0  0  0  0  0  0  0  0  0  0
  183.6350  177.8180  139.9240 C   0  0  0  0  0  0  0  0  0  0  0  0
  180.6030  174.6710  138.2640 N   0  0  0  0  0  0  0  0  0  0  0  0
  184.0330  177.8770  138.5710 C   0  0  0  0  0  3  0  0  0  0  0  0
  181.5160  175.2790  137.2710 C   0  0  0  0  0  3  0  0  0  0  0  0
  182.5910  176.9610  140.3180 C   0  0  0  0  0  3  0  0  0  0  0  0
  183.3880  177.0800  137.6080 C   0  0  1  0  0  3  0  0  0  0  0  0
  184.3030  178.6860  140.9300 C   0  0  0  0  0  2  0  0  0  0  0  0
  184.9300  179.7530  140.2890 O   0  0  0  0  0  1  0  0  0  0  0  0
  1 14  1  1  0  0  0
  1 12  1  0  0  0  0
  1  5  1  0  0  0  0
  2  3  2  0  0  0  0
  2 14  1  0  0  0  0
  3  6  1  0  0  0  0
  4 11  1  0  0  0  0
  4  8  1  0  0  0  0
  5 10  1  6  0  0  0
  5 13  1  0  0  0  0
  6 11  2  0  0  0  0
  7 10  2  0  0  0  0
  8  7  1  0  0  0  0
 11  9  1  0  0  0  0
 12  5  1  0  0  0  0
 12 13  1  0  0  0  0
 13 16  1  0  0  0  0
 14  4  2  0  0  0  0
 15 16  2  0  0  0  0
 16 17  1  0  0  0  0
 17 18  1  0  0  0  0
 18 20  1  0  0  0  0
 19 21  1  0  0  0  0
 20 19  2  0  0  0  0
 20 23  1  0  0  0  0
 21 26  1  0  0  0  0
 23 24  2  0  0  0  0
 24 21  1  0  0  0  0
 24 22  1  0  0  0  0
 25 26  1  0  0  0  0
 27  3  1  0  0  0  0
 27 36  1  0  0  0  0
 29 30  1  0  0  0  0
 30 28  1  0  0  0  0
 30 35  2  0  0  0  0
 31 35  1  0  0  0  0
 31 37  1  0  0  0  0
 32 28  2  0  0  0  0
 33 31  2  0  0  0  0
 34 29  2  0  0  0  0
 34 32  1  0  0  0  0
 36 29  1  0  0  0  0
 36 33  1  0  0  0  0
 38 37  1  0  0  0  0
M  END
>  <MODEL>
1

>  <REMARK>
 VINA RESULT:      -7.6      0.000      0.000
  Name = 
  7 active torsions:
  status: ('A' for Active; 'I' for Inactive)
    1  A    between atoms: C_4  and  C_21
    2  A    between atoms: C_4  and  N_34
    3  A    between atoms: S_8  and  C_23
    4  A    between atoms: C_9  and  S_35
    5  A    between atoms: C_16  and  C_31
    6  A    between atoms: C_17  and  C_19
    7  A    between atoms: S_35  and  C_38
                            x       y       z     vdW  Elec       q    Type
                         _______ _______ _______ _____ _____    ______ ____

>  <TORSDO>
F 7

$$$$
=
 OpenBabel11062412583D

 38 44  0  0  1  0  0  0  0  0999 V2000
  188.9600  176.1220  135.9620 C   0  0  2  0  0  3  0  0  0  0  0  0
  186.4880  176.5480  136.0240 C   0  0  0  0  0  3  0  0  0  0  0  0
  185.1880  176.0940  136.2630 C   0  0  0  0  0  0  0  0  0  0  0  0
  187.3710  174.3870  136.7700 C   0  0  0  0  0  0  0  0  0  0  0  0
  189.4980  176.0820  137.3700 C   0  0  1  0  0  0  0  0  0  0  0  0
  184.9740  174.7960  136.7360 C   0  0  0  0  0  3  0  0  0  0  0  0
  189.9000  173.7550  137.2410 C   0  0  0  0  0  3  0  0  0  0  0  0
  188.4760  173.4890  137.0770 N   0  0  0  0  0  2  0  0  0  0  0  0
  185.8220  172.6900  137.4440 F   0  0  0  0  0  0  0  0  0  0  0  0
  190.4030  174.9570  137.3580 N   0  0  0  0  0  0  0  0  0  0  0  0
  186.0560  173.9430  136.9800 C   0  0  0  0  0  0  0  0  0  0  0  0
  189.7830  177.2920  136.4540 C   0  0  2  0  0  3  0  0  0  0  0  0
  190.1610  177.3190  137.9120 C   0  0  1  0  0  3  0  0  0  0  0  0
  187.5730  175.7060  136.2760 C   0  0  0  0  0  0  0  0  0  0  0  0
  188.5560  179.0460  138.2100 O   0  0  0  0  0  0  0  0  0  0  0  0
  189.1700  178.0820  138.7390 C   0  0  0  0  0  0  0  0  0  0  0  0
  188.9160  177.7250  140.1010 N   0  0  0  0  0  2  0  0  0  0  0  0
  187.9740  178.4570  140.9330 C   0  0  0  0  0  2  0  0  0  0  0  0
  187.0370  177.4440  142.9460 N   0  0  0  0  0  0  0  0  0  0  0  0
  188.0520  177.9530  142.3300 C   0  0  0  0  0  0  0  0  0  0  0  0
  187.4970  177.0180  144.2590 C   0  0  1  0  0  3  0  0  0  0  0  0
  189.9350  177.1270  145.2770 C   0  0  0  0  0  1  0  0  0  0  0  0
  189.2620  177.9200  143.0720 N   0  0  0  0  0  0  0  0  0  0  0  0
  188.9430  177.3810  144.1980 C   0  0  0  0  0  0  0  0  0  0  0  0
  185.2680  178.3960  144.4540 C   0  0  0  0  0  1  0  0  0  0  0  0
  186.6600  177.9960  145.5470 S   0  0  0  0  0  0  0  0  0  0  0  0
  183.8030  177.1950  135.9980 S   0  0  0  0  0  0  0  0  0  0  0  0
  184.0550  178.7390  140.7780 N   0  0  0  0  0  0  0  0  0  0  0  0
  183.7940  177.8880  138.6980 C   0  0  0  0  0  0  0  0  0  0  0  0
  183.3590  177.8190  139.9780 C   0  0  0  0  0  0  0  0  0  0  0  0
  181.7750  176.1170  139.3940 C   0  0  0  0  0  0  0  0  0  0  0  0
  184.9990  179.4460  140.0060 N   0  0  0  0  0  2  0  0  0  0  0  0
  182.2230  176.1860  138.0570 C   0  0  0  0  0  3  0  0  0  0  0  0
  184.8560  178.9270  138.6280 C   0  0  0  0  0  3  0  0  0  0  0  0
  182.3510  176.9430  140.3760 C   0  0  0  0  0  3  0  0  0  0  0  0
  183.2480  177.0800  137.6990 C   0  0  0  0  0  0  0  0  0  0  0  0
  180.7120  175.1470  139.7690 C   0  0  0  0  0  2  0  0  0  0  0  0
  180.3900  174.3530  138.6700 O   0  0  0  0  0  1  0  0  0  0  0  0
  1 14  1  1  0  0  0
  1 12  1  0  0  0  0
  1  5  1  0  0  0  0
  2  3  2  0  0  0  0
  2 14  1  0  0  0  0
  3  6  1  0  0  0  0
  4 11  1  0  0  0  0
  4  8  1  0  0  0  0
  5 10  1  6  0  0  0
  5 13  1  0  0  0  0
  6 11  2  0  0  0  0
  7 10  2  0  0  0  0
  8  7  1  0  0  0  0
 11  9  1  0  0  0  0
 12  5  1  0  0  0  0
 12 13  1  0  0  0  0
 13 16  1  0  0  0  0
 14  4  2  0  0  0  0
 15 16  2  0  0  0  0
 16 17  1  0  0  0  0
 17 18  1  0  0  0  0
 18 20  1  0  0  0  0
 19 21  1  0  0  0  0
 20 19  2  0  0  0  0
 20 23  1  0  0  0  0
 21 26  1  0  0  0  0
 23 24  2  0  0  0  0
 24 21  1  0  0  0  0
 24 22  1  0  0  0  0
 25 26  1  0  0  0  0
 27  3  1  0  0  0  0
 27 36  1  0  0  0  0
 29 30  1  0  0  0  0
 30 35  1  0  0  0  0
 30 28  2  0  0  0  0
 31 37  1  0  0  0  0
 31 35  2  0  0  0  0
 32 28  1  0  0  0  0
 33 31  1  0  0  0  0
 34 29  2  0  0  0  0
 34 32  1  0  0  0  0
 36 33  2  0  0  0  0
 36 29  1  0  0  0  0
 38 37  1  0  0  0  0
M  END
>  <MODEL>
2

>  <REMARK>
 VINA RESULT:      -7.6      1.550      2.282
  Name = 
  7 active torsions:
  status: ('A' for Active; 'I' for Inactive)
    1  A    between atoms: C_4  and  C_21
    2  A    between atoms: C_4  and  N_34
    3  A    between atoms: S_8  and  C_23
    4  A    between atoms: C_9  and  S_35
    5  A    between atoms: C_16  and  C_31
    6  A    between atoms: C_17  and  C_19
    7  A    between atoms: S_35  and  C_38
                            x       y       z     vdW  Elec       q    Type
                         _______ _______ _______ _____ _____    ______ ____

>  <TORSDO>
F 7

$$$$
=
 OpenBabel11062412583D

 38 44  0  0  1  0  0  0  0  0999 V2000
  190.7270  175.9110  139.5320 C   0  0  2  0  0  3  0  0  0  0  0  0
  189.0450  176.7710  141.1830 C   0  0  0  0  0  3  0  0  0  0  0  0
  188.7430  177.5210  142.3220 C   0  0  0  0  0  0  0  0  0  0  0  0
  191.3820  177.4920  141.3370 C   0  0  0  0  0  0  0  0  0  0  0  0
  191.1340  177.0270  138.6020 C   0  0  1  0  0  0  0  0  0  0  0  0
  189.7490  178.2390  142.9760 C   0  0  0  0  0  3  0  0  0  0  0  0
  193.3000  177.1360  139.5460 C   0  0  0  0  0  3  0  0  0  0  0  0
  192.7490  177.5280  140.8370 N   0  0  0  0  0  2  0  0  0  0  0  0
  192.0190  178.9280  143.1430 F   0  0  0  0  0  0  0  0  0  0  0  0
  192.5660  176.8760  138.4940 N   0  0  0  0  0  0  0  0  0  0  0  0
  191.0620  178.2190  142.4940 C   0  0  0  0  0  0  0  0  0  0  0  0
  190.2140  175.8890  138.1080 C   0  0  2  0  0  3  0  0  0  0  0  0
  190.4820  177.0970  137.2490 C   0  0  1  0  0  3  0  0  0  0  0  0
  190.3510  176.7550  140.6890 C   0  0  0  0  0  0  0  0  0  0  0  0
  189.4270  179.0400  138.1200 O   0  0  0  0  0  0  0  0  0  0  0  0
  189.3570  178.0880  137.2980 C   0  0  0  0  0  0  0  0  0  0  0  0
  188.2280  177.9660  136.4300 N   0  0  0  0  0  2  0  0  0  0  0  0
  187.1150  178.9000  136.4670 C   0  0  0  0  0  2  0  0  0  0  0  0
  185.4300  177.2650  137.1330 N   0  0  0  0  0  0  0  0  0  0  0  0
  186.0540  178.3720  137.3650 C   0  0  0  0  0  0  0  0  0  0  0  0
  184.5110  177.0460  138.2400 C   0  0  1  0  0  3  0  0  0  0  0  0
  184.1540  178.5110  140.4130 C   0  0  0  0  0  1  0  0  0  0  0  0
  185.6950  179.0000  138.5870 N   0  0  0  0  0  0  0  0  0  0  0  0
  184.7920  178.2340  139.0980 C   0  0  0  0  0  0  0  0  0  0  0  0
  182.5830  175.3130  137.8140 C   0  0  0  0  0  1  0  0  0  0  0  0
  182.7950  177.1050  137.6310 S   0  0  0  0  0  0  0  0  0  0  0  0
  187.0580  177.5900  142.9160 S   0  0  0  0  0  0  0  0  0  0  0  0
  186.0260  178.6270  147.7290 N   0  0  0  0  0  0  0  0  0  0  0  0
  186.6980  178.1030  145.6330 C   0  0  0  0  0  0  0  0  0  0  0  0
  187.0610  178.1030  146.9360 C   0  0  0  0  0  0  0  0  0  0  0  0
  189.1800  177.1230  146.3930 C   0  0  0  0  0  0  0  0  0  0  0  0
  184.9320  179.0010  146.9230 N   0  0  0  0  0  0  0  0  0  0  0  0
  188.8070  177.1190  145.0310 C   0  0  0  0  0  3  0  0  0  0  0  0
  185.3240  178.6650  145.5370 C   0  0  0  0  0  3  0  0  0  0  0  0
  188.2970  177.6250  147.3660 C   0  0  0  0  0  3  0  0  0  0  0  0
  187.5510  177.6160  144.6400 C   0  0  1  0  0  3  0  0  0  0  0  0
  190.5210  176.6230  146.7940 C   0  0  0  0  0  2  0  0  0  0  0  0
  191.4860  177.0950  145.9040 O   0  0  0  0  0  1  0  0  0  0  0  0
  1 14  1  1  0  0  0
  2  3  1  0  0  0  0
  3 27  1  0  0  0  0
  3  6  2  0  0  0  0
  4 11  2  0  0  0  0
  5 10  1  6  0  0  0
  5  1  1  0  0  0  0
  7  8  1  0  0  0  0
  8  4  1  0  0  0  0
 10  7  2  0  0  0  0
 11  6  1  0  0  0  0
 11  9  1  0  0  0  0
 12  5  1  0  0  0  0
 12  1  1  0  0  0  0
 13 16  1  0  0  0  0
 13 12  1  0  0  0  0
 13  5  1  0  0  0  0
 14  2  2  0  0  0  0
 14  4  1  0  0  0  0
 16 15  2  0  0  0  0
 17 18  1  0  0  0  0
 17 16  1  0  0  0  0
 18 20  1  0  0  0  0
 19 20  2  0  0  0  0
 19 21  1  0  0  0  0
 20 23  1  0  0  0  0
 21 24  1  0  0  0  0
 23 24  2  0  0  0  0
 24 22  1  0  0  0  0
 26 25  1  0  0  0  0
 26 21  1  0  0  0  0
 27 36  1  0  0  0  0
 29 30  1  0  0  0  0
 30 35  2  0  0  0  0
 30 28  1  0  0  0  0
 31 37  1  0  0  0  0
 31 35  1  0  0  0  0
 32 28  2  0  0  0  0
 33 31  2  0  0  0  0
 34 29  2  0  0  0  0
 34 32  1  0  0  0  0
 36 33  1  0  0  0  0
 36 29  1  0  0  0  0
 38 37  1  0  0  0  0
M  END
>  <MODEL>
3

>  <REMARK>
 VINA RESULT:      -7.4      3.284      7.166
  Name = 
  7 active torsions:
  status: ('A' for Active; 'I' for Inactive)
    1  A    between atoms: C_4  and  C_21
    2  A    between atoms: C_4  and  N_34
    3  A    between atoms: S_8  and  C_23
    4  A    between atoms: C_9  and  S_35
    5  A    between atoms: C_16  and  C_31
    6  A    between atoms: C_17  and  C_19
    7  A    between atoms: S_35  and  C_38
                            x       y       z     vdW  Elec       q    Type
                         _______ _______ _______ _____ _____    ______ ____

>  <TORSDO>
F 7

$$$$
=
 OpenBabel11062412583D

 38 44  0  0  1  0  0  0  0  0999 V2000
  182.4740  177.3440  139.5450 C   0  0  2  0  0  3  0  0  0  0  0  0
  183.8710  175.9910  137.9590 C   0  0  0  0  0  3  0  0  0  0  0  0
  184.2770  175.6970  136.6550 C   0  0  0  0  0  0  0  0  0  0  0  0
  182.4930  177.8290  137.1050 C   0  0  0  0  0  0  0  0  0  0  0  0
  183.0620  178.7260  139.6800 C   0  0  1  0  0  0  0  0  0  0  0  0
  183.7880  176.4470  135.5810 C   0  0  0  0  0  3  0  0  0  0  0  0
  181.2530  179.7010  138.5100 C   0  0  0  0  0  3  0  0  0  0  0  0
  181.5960  178.9600  137.3030 N   0  0  0  0  0  2  0  0  0  0  0  0
  182.4370  178.2150  134.7440 F   0  0  0  0  0  0  0  0  0  0  0  0
  181.9090  179.5930  139.6370 N   0  0  0  0  0  0  0  0  0  0  0  0
  182.8940  177.5000  135.8020 C   0  0  0  0  0  0  0  0  0  0  0  0
  183.1950  177.7000  140.8270 C   0  0  2  0  0  3  0  0  0  0  0  0
  183.9280  179.0150  140.8750 C   0  0  1  0  0  3  0  0  0  0  0  0
  182.9890  177.0490  138.1880 C   0  0  0  0  0  0  0  0  0  0  0  0
  185.6770  179.0010  139.2670 O   0  0  0  0  0  0  0  0  0  0  0  0
  185.3680  178.8760  140.4820 C   0  0  0  0  0  0  0  0  0  0  0  0
  186.3780  178.6130  141.4600 N   0  0  0  0  0  2  0  0  0  0  0  0
  187.7790  178.4560  141.1060 C   0  0  0  0  0  2  0  0  0  0  0  0
  187.9040  177.3710  143.2890 N   0  0  0  0  0  0  0  0  0  0  0  0
  188.5030  177.8030  142.2290 C   0  0  0  0  0  0  0  0  0  0  0  0
  188.9140  176.7530  144.1350 C   0  0  1  0  0  3  0  0  0  0  0  0
  191.4960  176.4280  143.6670 C   0  0  0  0  0  1  0  0  0  0  0  0
  189.8970  177.5300  142.1940 N   0  0  0  0  0  0  0  0  0  0  0  0
  190.1420  176.9240  143.3040 C   0  0  0  0  0  0  0  0  0  0  0  0
  187.2750  177.8780  145.8530 C   0  0  0  0  0  1  0  0  0  0  0  0
  189.0720  177.6930  145.6870 S   0  0  0  0  0  0  0  0  0  0  0  0
  185.4560  174.3820  136.3710 S   0  0  0  0  0  0  0  0  0  0  0  0
  190.3750  174.9530  137.2520 N   0  0  0  0  0  0  0  0  0  0  0  0
  188.1460  174.9210  136.8710 C   0  0  0  0  0  0  0  0  0  0  0  0
  189.2190  175.7250  137.0480 C   0  0  0  0  0  0  0  0  0  0  0  0
  187.8600  177.6790  136.7710 C   0  0  0  0  0  0  0  0  0  0  0  0
  190.0610  173.5800  137.2190 N   0  0  0  0  0  2  0  0  0  0  0  0
  186.7350  176.8460  136.5840 C   0  0  0  0  0  3  0  0  0  0  0  0
  188.6050  173.5100  136.9600 C   0  0  0  0  0  3  0  0  0  0  0  0
  189.1260  177.1150  137.0110 C   0  0  0  0  0  3  0  0  0  0  0  0
  186.8730  175.4480  136.6350 C   0  0  0  0  0  0  0  0  0  0  0  0
  187.6990  179.1570  136.7440 C   0  0  0  0  0  2  0  0  0  0  0  0
  188.6810  179.7530  137.5340 O   0  0  0  0  0  1  0  0  0  0  0  0
  1 14  1  6  0  0  0
  1  5  1  0  0  0  0
  1 12  1  0  0  0  0
  2 14  1  0  0  0  0
  3  2  2  0  0  0  0
  4  8  1  0  0  0  0
  4 14  2  0  0  0  0
  5 10  1  1  0  0  0
  5 12  1  0  0  0  0
  5 13  1  0  0  0  0
  6 11  2  0  0  0  0
  6  3  1  0  0  0  0
  7 10  2  0  0  0  0
  8  7  1  0  0  0  0
  9 11  1  0  0  0  0
 11  4  1  0  0  0  0
 12 13  1  0  0  0  0
 15 16  2  0  0  0  0
 16 13  1  0  0  0  0
 16 17  1  0  0  0  0
 18 17  1  0  0  0  0
 18 20  1  0  0  0  0
 19 21  1  0  0  0  0
 20 19  2  0  0  0  0
 21 26  1  0  0  0  0
 23 20  1  0  0  0  0
 23 24  2  0  0  0  0
 24 22  1  0  0  0  0
 24 21  1  0  0  0  0
 26 25  1  0  0  0  0
 27 36  1  0  0  0  0
 27  3  1  0  0  0  0
 29 34  2  0  0  0  0
 29 30  1  0  0  0  0
 30 28  2  0  0  0  0
 31 35  2  0  0  0  0
 32 28  1  0  0  0  0
 33 36  2  0  0  0  0
 33 31  1  0  0  0  0
 34 32  1  0  0  0  0
 35 30  1  0  0  0  0
 36 29  1  0  0  0  0
 37 31  1  0  0  0  0
 37 38  1  0  0  0  0
M  END
>  <MODEL>
4

>  <REMARK>
 VINA RESULT:      -7.1      2.121      5.719
  Name = 
  7 active torsions:
  status: ('A' for Active; 'I' for Inactive)
    1  A    between atoms: C_4  and  C_21
    2  A    between atoms: C_4  and  N_34
    3  A    between atoms: S_8  and  C_23
    4  A    between atoms: C_9  and  S_35
    5  A    between atoms: C_16  and  C_31
    6  A    between atoms: C_17  and  C_19
    7  A    between atoms: S_35  and  C_38
                            x       y       z     vdW  Elec       q    Type
                         _______ _______ _______ _____ _____    ______ ____

>  <TORSDO>
F 7

$$$$
=
 OpenBabel11062412583D

 38 44  0  0  1  0  0  0  0  0999 V2000
  186.8280  176.7190  136.0070 C   0  0  2  0  0  3  0  0  0  0  0  0
  184.8970  177.9070  137.0810 C   0  0  0  0  0  3  0  0  0  0  0  0
  183.7030  177.8650  137.8060 C   0  0  0  0  0  0  0  0  0  0  0  0
  185.1150  175.4780  137.3160 C   0  0  0  0  0  0  0  0  0  0  0  0
  187.7820  176.2440  137.0740 C   0  0  1  0  0  0  0  0  0  0  0  0
  183.2070  176.6430  138.2710 C   0  0  0  0  0  3  0  0  0  0  0  0
  187.2110  173.9800  136.6960 C   0  0  0  0  0  3  0  0  0  0  0  0
  185.8360  174.2280  137.1110 N   0  0  0  0  0  2  0  0  0  0  0  0
  183.4020  174.2830  138.4860 F   0  0  0  0  0  0  0  0  0  0  0  0
  188.1310  174.9090  136.6500 N   0  0  0  0  0  0  0  0  0  0  0  0
  183.9020  175.4550  138.0200 C   0  0  0  0  0  0  0  0  0  0  0  0
  188.1460  177.4440  136.1730 C   0  0  2  0  0  3  0  0  0  0  0  0
  189.0050  177.0740  137.3540 C   0  0  1  0  0  3  0  0  0  0  0  0
  185.6020  176.7270  136.8380 C   0  0  0  0  0  0  0  0  0  0  0  0
  188.6770  179.1960  138.3720 O   0  0  0  0  0  0  0  0  0  0  0  0
  188.7420  177.9490  138.5420 C   0  0  0  0  0  0  0  0  0  0  0  0
  188.5600  177.3890  139.8450 N   0  0  0  0  0  2  0  0  0  0  0  0
  188.3210  178.2130  141.0190 C   0  0  0  0  0  2  0  0  0  0  0  0
  188.4430  177.5830  143.3740 N   0  0  0  0  0  0  0  0  0  0  0  0
  188.9830  177.5990  142.2000 C   0  0  0  0  0  0  0  0  0  0  0  0
  189.3470  176.8600  144.2550 C   0  0  1  0  0  3  0  0  0  0  0  0
  191.6390  175.6770  143.6720 C   0  0  0  0  0  1  0  0  0  0  0  0
  190.2230  176.9120  142.1180 N   0  0  0  0  0  0  0  0  0  0  0  0
  190.4420  176.4850  143.3140 C   0  0  0  0  0  0  0  0  0  0  0  0
  189.7120  176.7700  146.8560 C   0  0  0  0  0  1  0  0  0  0  0  0
  189.9830  177.9870  145.5380 S   0  0  0  0  0  0  0  0  0  0  0  0
  182.8340  179.3850  138.1700 S   0  0  0  0  0  0  0  0  0  0  0  0
  180.2780  178.4590  142.4020 N   0  0  0  0  0  0  0  0  0  0  0  0
  181.6140  178.8840  140.6260 C   0  0  0  0  0  0  0  0  0  0  0  0
  181.5990  178.6290  141.9550 C   0  0  0  0  0  0  0  0  0  0  0  0
  183.9910  178.7340  142.0490 C   0  0  0  0  0  0  0  0  0  0  0  0
  179.3730  178.6150  141.3320 N   0  0  0  0  0  0  0  0  0  0  0  0
  184.0140  178.9990  140.6620 C   0  0  0  0  0  3  0  0  0  0  0  0
  180.2080  178.8860  140.1400 C   0  0  0  0  0  3  0  0  0  0  0  0
  182.7650  178.5480  142.7130 C   0  0  0  0  0  3  0  0  0  0  0  0
  182.8130  179.0780  139.9360 C   0  0  1  0  0  3  0  0  0  0  0  0
  185.2650  178.6820  142.8140 C   0  0  0  0  0  2  0  0  0  0  0  0
  185.0170  178.2430  144.1140 O   0  0  0  0  0  1  0  0  0  0  0  0
  1 12  1  0  0  0  0
  1 14  1  1  0  0  0
  1  5  1  0  0  0  0
  2  3  1  0  0  0  0
  3 27  1  0  0  0  0
  3  6  2  0  0  0  0
  4 11  2  0  0  0  0
  5 10  1  6  0  0  0
  5 13  1  0  0  0  0
  7  8  1  0  0  0  0
  8  4  1  0  0  0  0
 10  7  2  0  0  0  0
 11  6  1  0  0  0  0
 11  9  1  0  0  0  0
 12  5  1  0  0  0  0
 12 13  1  0  0  0  0
 13 16  1  0  0  0  0
 14  2  2  0  0  0  0
 14  4  1  0  0  0  0
 15 16  2  0  0  0  0
 16 17  1  0  0  0  0
 17 18  1  0  0  0  0
 18 20  1  0  0  0  0
 19 21  1  0  0  0  0
 20 19  2  0  0  0  0
 21 26  1  0  0  0  0
 23 20  1  0  0  0  0
 23 24  2  0  0  0  0
 24 22  1  0  0  0  0
 24 21  1  0  0  0  0
 26 25  1  0  0  0  0
 27 36  1  0  0  0  0
 29 30  1  0  0  0  0
 30 28  1  0  0  0  0
 30 35  2  0  0  0  0
 31 35  1  0  0  0  0
 31 37  1  0  0  0  0
 32 28  2  0  0  0  0
 33 31  2  0  0  0  0
 34 29  2  0  0  0  0
 34 32  1  0  0  0  0
 36 29  1  0  0  0  0
 36 33  1  0  0  0  0
 37 38  1  0  0  0  0
M  END
>  <MODEL>
5

>  <REMARK>
 VINA RESULT:      -7.0      2.075      2.850
  Name = 
  7 active torsions:
  status: ('A' for Active; 'I' for Inactive)
    1  A    between atoms: C_4  and  C_21
    2  A    between atoms: C_4  and  N_34
    3  A    between atoms: S_8  and  C_23
    4  A    between atoms: C_9  and  S_35
    5  A    between atoms: C_16  and  C_31
    6  A    between atoms: C_17  and  C_19
    7  A    between atoms: S_35  and  C_38
                            x       y       z     vdW  Elec       q    Type
                         _______ _______ _______ _____ _____    ______ ____

>  <TORSDO>
F 7

$$$$
=
 OpenBabel11062412583D

 38 44  0  0  1  0  0  0  0  0999 V2000
  186.3420  176.7050  135.7090 C   0  0  2  0  0  3  0  0  0  0  0  0
  184.2290  176.0300  136.8830 C   0  0  0  0  0  3  0  0  0  0  0  0
  183.4630  175.0570  137.5280 C   0  0  0  0  0  0  0  0  0  0  0  0
  186.0770  174.4320  136.6850 C   0  0  0  0  0  0  0  0  0  0  0  0
  187.4520  176.8540  136.7190 C   0  0  1  0  0  0  0  0  0  0  0  0
  183.9860  173.7780  137.7400 C   0  0  0  0  0  3  0  0  0  0  0  0
  188.5610  174.9280  135.9100 C   0  0  0  0  0  3  0  0  0  0  0  0
  187.4360  174.0840  136.2940 N   0  0  0  0  0  2  0  0  0  0  0  0
  185.7670  172.2160  137.5340 F   0  0  0  0  0  0  0  0  0  0  0  0
  188.5820  176.2260  136.0780 N   0  0  0  0  0  0  0  0  0  0  0  0
  185.2810  173.4620  137.3130 C   0  0  0  0  0  0  0  0  0  0  0  0
  186.8090  178.0990  136.0680 C   0  0  2  0  0  3  0  0  0  0  0  0
  187.7890  178.2380  137.2040 C   0  0  1  0  0  3  0  0  0  0  0  0
  185.5270  175.7260  136.4660 C   0  0  0  0  0  0  0  0  0  0  0  0
  185.8840  178.7850  138.5140 O   0  0  0  0  0  0  0  0  0  0  0  0
  187.1050  178.4770  138.5160 C   0  0  0  0  0  0  0  0  0  0  0  0
  187.8150  178.3530  139.7510 N   0  0  0  0  0  2  0  0  0  0  0  0
  187.1830  178.5960  141.0380 C   0  0  0  0  0  2  0  0  0  0  0  0
  187.4540  177.2830  143.0780 N   0  0  0  0  0  0  0  0  0  0  0  0
  187.9870  177.9580  142.1140 C   0  0  0  0  0  0  0  0  0  0  0  0
  188.5400  176.7710  143.9000 C   0  0  1  0  0  3  0  0  0  0  0  0
  191.1480  177.0220  143.5450 C   0  0  0  0  0  1  0  0  0  0  0  0
  189.4070  177.9700  142.1260 N   0  0  0  0  0  0  0  0  0  0  0  0
  189.7340  177.2850  143.1670 C   0  0  0  0  0  0  0  0  0  0  0  0
  186.6440  177.6130  145.5130 C   0  0  0  0  0  1  0  0  0  0  0  0
  188.4550  177.5150  145.5600 S   0  0  0  0  0  0  0  0  0  0  0  0
  181.8240  175.4670  138.1180 S   0  0  0  0  0  0  0  0  0  0  0  0
  182.0890  180.4890  138.2090 N   0  0  0  0  0  0  0  0  0  0  0  0
  182.1010  178.2310  138.3530 C   0  0  0  0  0  0  0  0  0  0  0  0
  182.4920  179.3740  138.9620 C   0  0  0  0  0  0  0  0  0  0  0  0
  183.4690  178.1310  140.7640 C   0  0  0  0  0  0  0  0  0  0  0  0
  181.4090  180.0750  137.0450 N   0  0  0  0  0  0  0  0  0  0  0  0
  183.0620  176.9350  140.1340 C   0  0  0  0  0  3  0  0  0  0  0  0
  181.3840  178.5970  137.1030 C   0  0  0  0  0  3  0  0  0  0  0  0
  183.1850  179.3750  140.1710 C   0  0  0  0  0  3  0  0  0  0  0  0
  182.3700  176.9790  138.9110 C   0  0  1  0  0  3  0  0  0  0  0  0
  184.2260  178.0740  142.0430 C   0  0  0  0  0  2  0  0  0  0  0  0
  183.4580  178.6220  143.0700 O   0  0  0  0  0  1  0  0  0  0  0  0
  1 12  1  0  0  0  0
  1 14  1  1  0  0  0
  1  5  1  0  0  0  0
  2  3  1  0  0  0  0
  3  6  2  0  0  0  0
  3 27  1  0  0  0  0
  4 11  2  0  0  0  0
  5 10  1  6  0  0  0
  5 13  1  0  0  0  0
  7 10  2  0  0  0  0
  7  8  1  0  0  0  0
  8  4  1  0  0  0  0
 11  9  1  0  0  0  0
 11  6  1  0  0  0  0
 12  5  1  0  0  0  0
 12 13  1  0  0  0  0
 13 16  1  0  0  0  0
 14  4  1  0  0  0  0
 14  2  2  0  0  0  0
 15 16  2  0  0  0  0
 16 17  1  0  0  0  0
 17 18  1  0  0  0  0
 18 20  1  0  0  0  0
 19 21  1  0  0  0  0
 20 23  1  0  0  0  0
 20 19  2  0  0  0  0
 21 26  1  0  0  0  0
 23 24  2  0  0  0  0
 24 22  1  0  0  0  0
 24 21  1  0  0  0  0
 25 26  1  0  0  0  0
 27 36  1  0  0  0  0
 28 30  1  0  0  0  0
 29 36  1  0  0  0  0
 29 30  1  0  0  0  0
 30 35  2  0  0  0  0
 31 37  1  0  0  0  0
 32 34  1  0  0  0  0
 32 28  2  0  0  0  0
 33 31  2  0  0  0  0
 34 29  2  0  0  0  0
 35 31  1  0  0  0  0
 36 33  1  0  0  0  0
 37 38  1  0  0  0  0
M  END
>  <MODEL>
6

>  <REMARK>
 VINA RESULT:      -6.9      2.045      2.433
  Name = 
  7 active torsions:
  status: ('A' for Active; 'I' for Inactive)
    1  A    between atoms: C_4  and  C_21
    2  A    between atoms: C_4  and  N_34
    3  A    between atoms: S_8  and  C_23
    4  A    between atoms: C_9  and  S_35
    5  A    between atoms: C_16  and  C_31
    6  A    between atoms: C_17  and  C_19
    7  A    between atoms: S_35  and  C_38
                            x       y       z     vdW  Elec       q    Type
                         _______ _______ _______ _____ _____    ______ ____

>  <TORSDO>
F 7

$$$$
=
 OpenBabel11062412583D

 38 44  0  0  1  0  0  0  0  0999 V2000
  187.0700  176.4790  144.0360 C   0  0  2  0  0  3  0  0  0  0  0  0
  185.8020  177.7510  142.2840 C   0  0  0  0  0  3  0  0  0  0  0  0
  184.9580  178.8060  141.9300 C   0  0  0  0  0  0  0  0  0  0  0  0
  185.8280  178.5600  144.5980 C   0  0  0  0  0  0  0  0  0  0  0  0
  188.2900  177.2660  144.4450 C   0  0  1  0  0  0  0  0  0  0  0  0
  184.5360  179.7230  142.8980 C   0  0  0  0  0  3  0  0  0  0  0  0
  187.3790  177.7300  146.5780 C   0  0  0  0  0  3  0  0  0  0  0  0
  186.2850  178.4830  145.9790 N   0  0  0  0  0  2  0  0  0  0  0  0
  184.5400  180.5020  145.1450 F   0  0  0  0  0  0  0  0  0  0  0  0
  188.3140  177.1350  145.8820 N   0  0  0  0  0  0  0  0  0  0  0  0
  184.9590  179.5970  144.2260 C   0  0  0  0  0  0  0  0  0  0  0  0
  188.4280  176.0030  143.5680 C   0  0  2  0  0  3  0  0  0  0  0  0
  189.6120  176.8950  143.8330 C   0  0  1  0  0  3  0  0  0  0  0  0
  186.2390  177.6260  143.6050 C   0  0  0  0  0  0  0  0  0  0  0  0
  190.4740  178.9110  142.9160 O   0  0  0  0  0  0  0  0  0  0  0  0
  189.8960  177.8160  142.6840 C   0  0  0  0  0  0  0  0  0  0  0  0
  189.5280  177.4640  141.3480 N   0  0  0  0  0  2  0  0  0  0  0  0
  189.7740  178.3440  140.2170 C   0  0  0  0  0  2  0  0  0  0  0  0
  189.4200  176.8880  138.2910 N   0  0  0  0  0  0  0  0  0  0  0  0
  189.0100  177.8600  139.0370 C   0  0  0  0  0  0  0  0  0  0  0  0
  188.4000  176.6620  137.2770 C   0  0  1  0  0  3  0  0  0  0  0  0
  186.0720  177.8760  136.9670 C   0  0  0  0  0  1  0  0  0  0  0  0
  187.7350  178.3730  138.6800 N   0  0  0  0  0  0  0  0  0  0  0  0
  187.3780  177.6820  137.6520 C   0  0  0  0  0  0  0  0  0  0  0  0
  190.5580  176.0200  135.9210 C   0  0  0  0  0  1  0  0  0  0  0  0
  189.0820  177.0350  135.6300 S   0  0  0  0  0  0  0  0  0  0  0  0
  184.4510  179.0010  140.2260 S   0  0  0  0  0  0  0  0  0  0  0  0
  181.0360  175.4630  139.1680 N   0  0  0  0  0  0  0  0  0  0  0  0
  182.4180  177.1450  139.7830 C   0  0  0  0  0  0  0  0  0  0  0  0
  181.2130  176.5740  140.0100 C   0  0  2  0  0  3  0  0  0  0  0  0
  180.7200  178.1830  141.7170 C   0  0  0  0  0  0  0  0  0  0  0  0
  182.1620  175.2910  138.3390 N   0  0  0  0  0  0  0  0  0  0  0  0
  181.9770  178.7830  141.4860 C   0  0  0  0  0  3  0  0  0  0  0  0
  183.1030  176.3690  138.7160 C   0  0  0  0  0  3  0  0  0  0  0  0
  180.3250  177.0610  140.9670 C   0  0  0  0  0  3  0  0  0  0  0  0
  182.8410  178.2630  140.5060 C   0  0  0  0  0  0  0  0  0  0  0  0
  179.8010  178.7580  142.7350 C   0  0  0  0  0  2  0  0  0  0  0  0
  179.6800  177.8790  143.8100 O   0  0  0  0  0  1  0  0  0  0  0  0
  1 14  1  6  0  0  0
  1  5  1  0  0  0  0
  2 14  1  0  0  0  0
  3  2  2  0  0  0  0
  3  6  1  0  0  0  0
  4  8  1  0  0  0  0
  5 10  1  1  0  0  0
  6 11  2  0  0  0  0
  8  7  1  0  0  0  0
 10  7  2  0  0  0  0
 11  4  1  0  0  0  0
 11  9  1  0  0  0  0
 12 13  1  0  0  0  0
 12  1  1  0  0  0  0
 12  5  1  0  0  0  0
 13  5  1  0  0  0  0
 14  4  2  0  0  0  0
 16 15  2  0  0  0  0
 16 13  1  0  0  0  0
 17 16  1  0  0  0  0
 18 17  1  0  0  0  0
 19 20  2  0  0  0  0
 20 18  1  0  0  0  0
 21 24  1  0  0  0  0
 21 19  1  0  0  0  0
 22 24  1  0  0  0  0
 23 20  1  0  0  0  0
 24 23  2  0  0  0  0
 26 25  1  0  0  0  0
 26 21  1  0  0  0  0
 27 36  1  0  0  0  0
 27  3  1  0  0  0  0
 28 30  1  0  0  0  0
 29 30  1  0  0  0  0
 29 36  1  0  0  0  0
 30 35  1  0  0  0  0
 31 37  1  0  0  0  0
 32 34  1  0  0  0  0
 32 28  2  0  0  0  0
 33 31  1  0  0  0  0
 34 29  2  0  0  0  0
 35 31  2  0  0  0  0
 36 33  2  0  0  0  0
 37 38  1  0  0  0  0
M  END
>  <MODEL>
7

>  <REMARK>
 VINA RESULT:      -6.8      3.109      6.631
  Name = 
  7 active torsions:
  status: ('A' for Active; 'I' for Inactive)
    1  A    between atoms: C_4  and  C_21
    2  A    between atoms: C_4  and  N_34
    3  A    between atoms: S_8  and  C_23
    4  A    between atoms: C_9  and  S_35
    5  A    between atoms: C_16  and  C_31
    6  A    between atoms: C_17  and  C_19
    7  A    between atoms: S_35  and  C_38
                            x       y       z     vdW  Elec       q    Type
                         _______ _______ _______ _____ _____    ______ ____

>  <TORSDO>
F 7

$$$$
=
 OpenBabel11062412583D

 38 44  0  0  1  0  0  0  0  0999 V2000
  183.1530  179.4570  139.6380 C   0  0  2  0  0  3  0  0  0  0  0  0
  185.3700  178.8590  140.6510 C   0  0  0  0  0  3  0  0  0  0  0  0
  186.1300  178.4880  141.7620 C   0  0  0  0  0  0  0  0  0  0  0  0
  183.3380  178.7530  142.0170 C   0  0  0  0  0  0  0  0  0  0  0  0
  182.3190  178.2100  139.4820 C   0  0  1  0  0  0  0  0  0  0  0  0
  185.5090  178.2650  142.9950 C   0  0  0  0  0  3  0  0  0  0  0  0
  180.8270  178.8930  141.1850 C   0  0  0  0  0  3  0  0  0  0  0  0
  181.8930  178.8470  142.1780 N   0  0  0  0  0  2  0  0  0  0  0  0
  183.5450  178.1790  144.3320 F   0  0  0  0  0  0  0  0  0  0  0  0
  181.0060  178.6210  139.9180 N   0  0  0  0  0  0  0  0  0  0  0  0
  184.1240  178.4060  143.1260 C   0  0  0  0  0  0  0  0  0  0  0  0
  182.9550  178.8890  138.2490 C   0  0  2  0  0  3  0  0  0  0  0  0
  182.2730  177.5510  138.1310 C   0  0  1  0  0  3  0  0  0  0  0  0
  183.9840  178.9890  140.7720 C   0  0  0  0  0  0  0  0  0  0  0  0
  183.0540  175.4290  138.8620 O   0  0  0  0  0  0  0  0  0  0  0  0
  183.2530  176.4170  138.1060 C   0  0  0  0  0  0  0  0  0  0  0  0
  184.3900  176.4430  137.2390 N   0  0  0  0  0  2  0  0  0  0  0  0
  185.3670  175.3660  137.2050 C   0  0  0  0  0  2  0  0  0  0  0  0
  187.7090  175.3810  136.5200 N   0  0  0  0  0  0  0  0  0  0  0  0
  186.7370  175.9410  137.1610 C   0  0  0  0  0  0  0  0  0  0  0  0
  188.8720  176.2450  136.6550 C   0  0  1  0  0  3  0  0  0  0  0  0
  189.0660  178.5840  137.8740 C   0  0  0  0  0  1  0  0  0  0  0  0
  187.0700  177.1890  137.7520 N   0  0  0  0  0  0  0  0  0  0  0  0
  188.3140  177.3670  137.4640 C   0  0  0  0  0  0  0  0  0  0  0  0
  189.7730  173.7830  136.8320 C   0  0  0  0  0  1  0  0  0  0  0  0
  190.1710  175.3810  137.5940 S   0  0  0  0  0  0  0  0  0  0  0  0
  187.8960  178.2600  141.5910 S   0  0  0  0  0  0  0  0  0  0  0  0
  190.8470  176.7530  145.3740 N   0  0  0  0  0  0  0  0  0  0  0  0
  189.3520  177.4420  143.8230 C   0  0  0  0  0  0  0  0  0  0  0  0
  189.5360  177.1990  145.1410 C   0  0  0  0  0  0  0  0  0  0  0  0
  187.2870  177.8710  145.6260 C   0  0  0  0  0  0  0  0  0  0  0  0
  191.5660  176.6860  144.1630 N   0  0  0  0  0  0  0  0  0  0  0  0
  187.0880  178.1280  144.2520 C   0  0  0  0  0  3  0  0  0  0  0  0
  190.6240  177.1400  143.1160 C   0  0  0  0  0  3  0  0  0  0  0  0
  188.5290  177.3950  146.0840 C   0  0  0  0  0  3  0  0  0  0  0  0
  188.1300  177.9100  143.3330 C   0  0  1  0  0  3  0  0  0  0  0  0
  186.1700  178.0760  146.5860 C   0  0  0  0  0  2  0  0  0  0  0  0
  185.6800  179.3760  146.4690 O   0  0  0  0  0  1  0  0  0  0  0  0
  1 14  1  1  0  0  0
  2 14  2  0  0  0  0
  2  3  1  0  0  0  0
  3  6  2  0  0  0  0
  4  8  1  0  0  0  0
  4 11  2  0  0  0  0
  5  1  1  0  0  0  0
  5 10  1  6  0  0  0
  6 11  1  0  0  0  0
  7  8  1  0  0  0  0
 10  7  2  0  0  0  0
 11  9  1  0  0  0  0
 12  5  1  0  0  0  0
 12  1  1  0  0  0  0
 13 12  1  0  0  0  0
 13  5  1  0  0  0  0
 14  4  1  0  0  0  0
 16 13  1  0  0  0  0
 16 15  2  0  0  0  0
 17 16  1  0  0  0  0
 18 17  1  0  0  0  0
 19 21  1  0  0  0  0
 19 20  2  0  0  0  0
 20 18  1  0  0  0  0
 20 23  1  0  0  0  0
 21 24  1  0  0  0  0
 21 26  1  0  0  0  0
 24 23  2  0  0  0  0
 24 22  1  0  0  0  0
 25 26  1  0  0  0  0
 27  3  1  0  0  0  0
 27 36  1  0  0  0  0
 29 30  1  0  0  0  0
 30 28  1  0  0  0  0
 30 35  2  0  0  0  0
 31 35  1  0  0  0  0
 31 37  1  0  0  0  0
 32 28  2  0  0  0  0
 33 31  2  0  0  0  0
 34 29  2  0  0  0  0
 34 32  1  0  0  0  0
 36 29  1  0  0  0  0
 36 33  1  0  0  0  0
 38 37  1  0  0  0  0
M  END
>  <MODEL>
8

>  <REMARK>
 VINA RESULT:      -6.8      3.032      8.093
  Name = 
  7 active torsions:
  status: ('A' for Active; 'I' for Inactive)
    1  A    between atoms: C_4  and  C_21
    2  A    between atoms: C_4  and  N_34
    3  A    between atoms: S_8  and  C_23
    4  A    between atoms: C_9  and  S_35
    5  A    between atoms: C_16  and  C_31
    6  A    between atoms: C_17  and  C_19
    7  A    between atoms: S_35  and  C_38
                            x       y       z     vdW  Elec       q    Type
                         _______ _______ _______ _____ _____    ______ ____

>  <TORSDO>
F 7

$$$$
=
 OpenBabel11062412583D

 38 44  0  0  1  0  0  0  0  0999 V2000
  183.4550  179.5370  139.7900 C   0  0  2  0  0  3  0  0  0  0  0  0
  185.5310  178.7170  140.9350 C   0  0  0  0  0  3  0  0  0  0  0  0
  186.1750  178.2560  142.0860 C   0  0  0  0  0  0  0  0  0  0  0  0
  183.4080  178.7780  142.1580 C   0  0  0  0  0  0  0  0  0  0  0  0
  182.5220  178.3780  139.5480 C   0  0  1  0  0  0  0  0  0  0  0  0
  185.4520  178.0700  143.2680 C   0  0  0  0  0  3  0  0  0  0  0  0
  180.9850  179.1680  141.1620 C   0  0  0  0  0  3  0  0  0  0  0  0
  181.9710  179.0040  142.2230 N   0  0  0  0  0  2  0  0  0  0  0  0
  183.4000  178.1460  144.4670 F   0  0  0  0  0  0  0  0  0  0  0  0
  181.2250  178.9030  139.9040 N   0  0  0  0  0  0  0  0  0  0  0  0
  184.0800  178.3380  143.3090 C   0  0  0  0  0  0  0  0  0  0  0  0
  183.3020  179.0160  138.3780 C   0  0  2  0  0  3  0  0  0  0  0  0
  182.5090  177.7500  138.1810 C   0  0  1  0  0  3  0  0  0  0  0  0
  184.1590  178.9740  140.9650 C   0  0  0  0  0  0  0  0  0  0  0  0
  183.1830  175.6570  139.0820 O   0  0  0  0  0  0  0  0  0  0  0  0
  183.3790  176.5290  138.1950 C   0  0  0  0  0  0  0  0  0  0  0  0
  184.4100  176.3470  137.2200 N   0  0  0  0  0  2  0  0  0  0  0  0
  185.2810  175.1820  137.2190 C   0  0  0  0  0  2  0  0  0  0  0  0
  187.3980  176.2910  137.7140 N   0  0  0  0  0  0  0  0  0  0  0  0
  186.6700  175.6030  136.8980 C   0  0  0  0  0  0  0  0  0  0  0  0
  188.7000  176.4680  137.0890 C   0  0  1  0  0  3  0  0  0  0  0  0
  189.5670  175.5340  134.7720 C   0  0  0  0  0  1  0  0  0  0  0  0
  187.3370  175.2170  135.7050 N   0  0  0  0  0  0  0  0  0  0  0  0
  188.5170  175.7230  135.8090 C   0  0  0  0  0  0  0  0  0  0  0  0
  189.1580  178.6280  138.5140 C   0  0  0  0  0  1  0  0  0  0  0  0
  188.9810  178.2360  136.7510 S   0  0  0  0  0  0  0  0  0  0  0  0
  187.9200  177.8670  142.0290 S   0  0  0  0  0  0  0  0  0  0  0  0
  190.6770  176.8920  146.1210 N   0  0  0  0  0  0  0  0  0  0  0  0
  189.2590  177.3500  144.4180 C   0  0  0  0  0  0  0  0  0  0  0  0
  189.3680  177.2550  145.7640 C   0  0  0  0  0  0  0  0  0  0  0  0
  187.0700  177.8770  146.0390 C   0  0  0  0  0  0  0  0  0  0  0  0
  191.4730  176.7290  144.9690 N   0  0  0  0  0  0  0  0  0  0  0  0
  186.9500  177.9800  144.6360 C   0  0  0  0  0  3  0  0  0  0  0  0
  190.5840  177.0300  143.8250 C   0  0  0  0  0  3  0  0  0  0  0  0
  188.2970  177.5060  146.6190 C   0  0  0  0  0  3  0  0  0  0  0  0
  188.0550  177.7120  143.8090 C   0  0  1  0  0  3  0  0  0  0  0  0
  185.8870  178.1340  146.9040 C   0  0  0  0  0  2  0  0  0  0  0  0
  185.3390  179.3780  146.5940 O   0  0  0  0  0  1  0  0  0  0  0  0
  1 14  1  1  0  0  0
  2 14  2  0  0  0  0
  2  3  1  0  0  0  0
  3  6  2  0  0  0  0
  4  8  1  0  0  0  0
  4 11  2  0  0  0  0
  5  1  1  0  0  0  0
  5 10  1  6  0  0  0
  6 11  1  0  0  0  0
  7  8  1  0  0  0  0
 10  7  2  0  0  0  0
 11  9  1  0  0  0  0
 12  5  1  0  0  0  0
 12  1  1  0  0  0  0
 13 16  1  0  0  0  0
 13 12  1  0  0  0  0
 13  5  1  0  0  0  0
 14  4  1  0  0  0  0
 16 15  2  0  0  0  0
 17 16  1  0  0  0  0
 18 17  1  0  0  0  0
 20 18  1  0  0  0  0
 20 19  2  0  0  0  0
 21 19  1  0  0  0  0
 22 24  1  0  0  0  0
 23 24  2  0  0  0  0
 23 20  1  0  0  0  0
 24 21  1  0  0  0  0
 26 21  1  0  0  0  0
 26 25  1  0  0  0  0
 27  3  1  0  0  0  0
 27 36  1  0  0  0  0
 29 30  1  0  0  0  0
 30 28  1  0  0  0  0
 30 35  2  0  0  0  0
 31 35  1  0  0  0  0
 31 37  1  0  0  0  0
 32 28  2  0  0  0  0
 33 31  2  0  0  0  0
 34 29  2  0  0  0  0
 34 32  1  0  0  0  0
 36 29  1  0  0  0  0
 36 33  1  0  0  0  0
 38 37  1  0  0  0  0
M  END
>  <MODEL>
9

>  <REMARK>
 VINA RESULT:      -6.7      2.991      8.253
  Name = 
  7 active torsions:
  status: ('A' for Active; 'I' for Inactive)
    1  A    between atoms: C_4  and  C_21
    2  A    between atoms: C_4  and  N_34
    3  A    between atoms: S_8  and  C_23
    4  A    between atoms: C_9  and  S_35
    5  A    between atoms: C_16  and  C_31
    6  A    between atoms: C_17  and  C_19
    7  A    between atoms: S_35  and  C_38
                            x       y       z     vdW  Elec       q    Type
                         _______ _______ _______ _____ _____    ______ ____

>  <TORSDO>
F 7

$$$$
