=
 OpenBabel11062415343D

 35 38  0  0  1  0  0  0  0  0999 V2000
  186.5910  177.1880  144.6270 C   0  0  0  0  0  1  0  0  0  0  0  0
  185.1420  178.5330  143.1490 C   0  0  0  0  0  3  0  0  0  0  0  0
  187.2130  177.7000  142.2080 C   0  0  0  0  0  0  0  0  0  0  0  0
  185.6250  178.9640  140.8650 C   0  0  0  0  0  0  0  0  0  0  0  0
  184.8220  179.0850  141.9520 N   0  0  0  0  0  0  0  0  0  0  0  0
  185.1990  179.5420  139.6320 N   0  0  0  0  0  1  0  0  0  0  0  0
  186.8440  178.2530  140.9570 C   0  0  0  0  0  0  0  0  0  0  0  0
  186.3310  177.8260  143.3060 C   0  0  0  0  0  0  0  0  0  0  0  0
  188.6020  179.0040  139.5320 O   0  0  0  0  0  0  0  0  0  0  0  0
  187.6340  176.9760  138.9210 N   0  0  0  0  0  2  0  0  0  0  0  0
  187.7400  178.1190  139.7780 C   0  0  0  0  0  0  0  0  0  0  0  0
  189.6370  174.3370  136.2030 C   0  0  0  0  0  2  0  0  0  0  0  0
  190.0080  176.4840  138.1730 C   0  0  0  0  0  2  0  0  0  0  0  0
  188.2540  177.5950  136.5980 C   0  0  0  0  0  2  0  0  0  0  0  0
  188.6420  175.2700  135.5080 C   0  0  2  0  0  0  0  0  0  0  0  0
  191.0180  174.9630  136.4210 C   0  0  1  0  0  3  0  0  0  0  0  0
  188.5310  176.7120  137.8010 C   0  0  2  0  0  0  0  0  0  0  0  0
  187.8500  176.1160  136.5550 C   0  0  1  0  0  0  0  0  0  0  0  0
  190.9630  176.3800  136.9900 C   0  0  0  0  0  2  0  0  0  0  0  0
  186.3310  175.9720  136.6280 C   0  0  0  0  0  1  0  0  0  0  0  0
  187.7070  174.3760  134.7060 C   0  0  0  0  0  1  0  0  0  0  0  0
  191.7810  174.1450  137.2540 O   0  0  0  0  0  1  0  0  0  0  0  0
  189.2950  176.0870  134.5940 F   0  0  0  0  0  0  0  0  0  0  0  0
  188.4500  177.0390  142.3180 O   0  0  0  0  0  0  0  0  0  0  0  0
  189.9750  178.5260  143.3900 C   0  0  0  0  0  3  0  0  0  0  0  0
  191.3470  178.1350  145.4240 C   0  0  0  0  0  3  0  0  0  0  0  0
  191.5170  176.8000  145.4560 C   0  0  0  0  0  0  0  0  0  0  0  0
  191.3050  175.9260  144.2800 C   0  0  0  0  0  3  0  0  0  0  0  0
  190.8540  178.9540  144.2970 C   0  0  0  0  0  0  0  0  0  0  0  0
  189.3420  177.1730  143.4180 C   0  0  2  0  0  3  0  0  0  0  0  0
  190.3690  176.0970  143.3460 C   0  0  0  0  0  3  0  0  0  0  0  0
  191.2770  180.2380  144.2170 F   0  0  0  0  0  0  0  0  0  0  0  0
  192.1060  176.8940  147.8670 O   0  0  0  0  0  1  0  0  0  0  0  0
  192.0920  176.1880  146.6690 C   0  0  0  0  0  0  0  0  0  0  0  0
  192.5730  175.0240  146.6390 O   0  0  0  0  0  0  0  0  0  0  0  0
  2  8  1  0  0  0  0
  3 24  1  0  0  0  0
  3  8  2  0  0  0  0
  4  7  2  0  0  0  0
  4  5  1  0  0  0  0
  5  2  2  0  0  0  0
  6  4  1  0  0  0  0
  7  3  1  0  0  0  0
  8  1  1  0  0  0  0
  9 11  2  0  0  0  0
 10 11  1  0  0  0  0
 11  7  1  0  0  0  0
 12 16  1  0  0  0  0
 14 17  1  0  0  0  0
 15 21  1  6  0  0  0
 15 12  1  0  0  0  0
 15 18  1  0  0  0  0
 16 19  1  0  0  0  0
 16 22  1  1  0  0  0
 17 13  1  0  0  0  0
 17 10  1  1  0  0  0
 18 14  1  0  0  0  0
 18 20  1  1  0  0  0
 18 17  1  0  0  0  0
 19 13  1  0  0  0  0
 23 15  1  0  0  0  0
 25 30  1  0  0  0  0
 25 29  2  0  0  0  0
 26 27  2  0  0  0  0
 27 34  1  0  0  0  0
 28 27  1  0  0  0  0
 29 26  1  0  0  0  0
 30 24  1  6  0  0  0
 31 30  1  0  0  0  0
 31 28  2  0  0  0  0
 32 29  1  0  0  0  0
 34 33  1  0  0  0  0
 35 34  2  0  0  0  0
M  END
>  <MODEL>
1

>  <REMARK>
 VINA RESULT:      -8.8      0.000      0.000
  Name = 
  5 active torsions:
  status: ('A' for Active; 'I' for Inactive)
    1  A    between atoms: C_8  and  O_16
    2  A    between atoms: C_10  and  C_14
    3  A    between atoms: O_16  and  C_25
    4  A    between atoms: C_22  and  N_28
    5  A    between atoms: C_29  and  C_34
                            x       y       z     vdW  Elec       q    Type
                         _______ _______ _______ _____ _____    ______ ____

>  <TORSDO>
F 5

$$$$
=
 OpenBabel11062415343D

 35 38  0  0  1  0  0  0  0  0999 V2000
  187.1620  177.2820  146.3170 C   0  0  0  0  0  1  0  0  0  0  0  0
  184.9720  178.4200  146.3310 C   0  0  0  0  0  3  0  0  0  0  0  0
  186.0710  178.1620  144.1880 C   0  0  0  0  0  0  0  0  0  0  0  0
  183.8660  179.1780  144.3710 C   0  0  0  0  0  0  0  0  0  0  0  0
  183.9160  179.0080  145.7170 N   0  0  0  0  0  0  0  0  0  0  0  0
  182.7020  179.7720  143.7990 N   0  0  0  0  0  1  0  0  0  0  0  0
  184.9410  178.7460  143.5610 C   0  0  0  0  0  0  0  0  0  0  0  0
  186.0640  177.9790  145.5890 C   0  0  0  0  0  0  0  0  0  0  0  0
  185.6330  179.8060  141.5400 O   0  0  0  0  0  0  0  0  0  0  0  0
  184.0570  178.1120  141.2770 N   0  0  0  0  0  2  0  0  0  0  0  0
  184.9080  178.9320  142.0860 C   0  0  0  0  0  0  0  0  0  0  0  0
  183.8060  176.2490  137.4260 C   0  0  0  0  0  2  0  0  0  0  0  0
  185.3990  178.0390  139.1250 C   0  0  0  0  0  2  0  0  0  0  0  0
  183.0720  179.2010  139.2760 C   0  0  0  0  0  2  0  0  0  0  0  0
  182.6200  177.1690  137.7250 C   0  0  2  0  0  0  0  0  0  0  0  0
  185.0250  176.9800  136.8570 C   0  0  1  0  0  3  0  0  0  0  0  0
  184.0290  178.1570  139.8190 C   0  0  2  0  0  0  0  0  0  0  0  0
  182.6960  177.7180  139.1850 C   0  0  1  0  0  0  0  0  0  0  0  0
  185.3800  178.2580  137.6170 C   0  0  0  0  0  2  0  0  0  0  0  0
  181.5680  177.3880  140.1610 C   0  0  0  0  0  1  0  0  0  0  0  0
  181.3670  176.3300  137.5200 C   0  0  0  0  0  1  0  0  0  0  0  0
  186.1240  176.1220  136.8320 O   0  0  0  0  0  1  0  0  0  0  0  0
  182.5620  178.2050  136.8020 F   0  0  0  0  0  0  0  0  0  0  0  0
  187.1650  177.7810  143.3900 O   0  0  0  0  0  0  0  0  0  0  0  0
  189.3440  178.6860  143.7380 C   0  0  0  0  0  3  0  0  0  0  0  0
  191.3430  177.5780  144.7120 C   0  0  0  0  0  3  0  0  0  0  0  0
  191.1500  176.2700  144.4610 C   0  0  0  0  0  0  0  0  0  0  0  0
  190.1960  175.7700  143.4450 C   0  0  0  0  0  3  0  0  0  0  0  0
  190.6190  178.7240  144.1230 C   0  0  0  0  0  0  0  0  0  0  0  0
  188.4640  177.4870  143.8900 C   0  0  2  0  0  3  0  0  0  0  0  0
  189.0170  176.3180  143.1530 C   0  0  0  0  0  3  0  0  0  0  0  0
  191.2790  179.9030  144.0240 F   0  0  0  0  0  0  0  0  0  0  0  0
  192.3840  175.4370  146.4490 O   0  0  0  0  0  1  0  0  0  0  0  0
  192.0370  175.2860  145.1110 C   0  0  0  0  0  0  0  0  0  0  0  0
  192.4870  174.3000  144.4690 O   0  0  0  0  0  0  0  0  0  0  0  0
  3  8  1  0  0  0  0
  4  5  2  0  0  0  0
  5  2  1  0  0  0  0
  6  4  1  0  0  0  0
  7  3  2  0  0  0  0
  7  4  1  0  0  0  0
  8  1  1  0  0  0  0
  8  2  2  0  0  0  0
  9 11  2  0  0  0  0
 10 11  1  0  0  0  0
 11  7  1  0  0  0  0
 12 15  1  0  0  0  0
 13 17  1  0  0  0  0
 14 17  1  0  0  0  0
 15 21  1  6  0  0  0
 15 18  1  0  0  0  0
 16 22  1  1  0  0  0
 16 12  1  0  0  0  0
 16 19  1  0  0  0  0
 17 10  1  1  0  0  0
 18 14  1  0  0  0  0
 18 17  1  0  0  0  0
 18 20  1  1  0  0  0
 19 13  1  0  0  0  0
 23 15  1  0  0  0  0
 24  3  1  0  0  0  0
 25 30  1  0  0  0  0
 25 29  2  0  0  0  0
 27 26  2  0  0  0  0
 27 34  1  0  0  0  0
 28 27  1  0  0  0  0
 29 26  1  0  0  0  0
 30 24  1  6  0  0  0
 31 28  2  0  0  0  0
 31 30  1  0  0  0  0
 32 29  1  0  0  0  0
 34 33  1  0  0  0  0
 35 34  2  0  0  0  0
M  END
>  <MODEL>
2

>  <REMARK>
 VINA RESULT:      -8.6      3.235      4.218
  Name = 
  5 active torsions:
  status: ('A' for Active; 'I' for Inactive)
    1  A    between atoms: C_8  and  O_16
    2  A    between atoms: C_10  and  C_14
    3  A    between atoms: O_16  and  C_25
    4  A    between atoms: C_22  and  N_28
    5  A    between atoms: C_29  and  C_34
                            x       y       z     vdW  Elec       q    Type
                         _______ _______ _______ _____ _____    ______ ____

>  <TORSDO>
F 5

$$$$
=
 OpenBabel11062415343D

 35 38  0  0  1  0  0  0  0  0999 V2000
  182.9630  178.9990  143.9650 C   0  0  0  0  0  1  0  0  0  0  0  0
  181.4210  178.4650  142.1110 C   0  0  0  0  0  3  0  0  0  0  0  0
  183.7320  178.9110  141.5360 C   0  0  0  0  0  0  0  0  0  0  0  0
  182.1000  178.2810  139.8430 C   0  0  0  0  0  0  0  0  0  0  0  0
  181.1450  178.2210  140.8070 N   0  0  0  0  0  0  0  0  0  0  0  0
  181.7360  177.9720  138.4990 N   0  0  0  0  0  1  0  0  0  0  0  0
  183.4310  178.6160  140.1830 C   0  0  0  0  0  0  0  0  0  0  0  0
  182.7120  178.8080  142.5080 C   0  0  0  0  0  0  0  0  0  0  0  0
  184.8930  179.8160  138.7300 O   0  0  0  0  0  0  0  0  0  0  0  0
  185.0560  177.4960  138.6000 N   0  0  0  0  0  2  0  0  0  0  0  0
  184.4870  178.6950  139.1390 C   0  0  0  0  0  0  0  0  0  0  0  0
  188.7440  175.9140  137.0960 C   0  0  0  0  0  2  0  0  0  0  0  0
  187.3760  178.3440  138.0210 C   0  0  0  0  0  2  0  0  0  0  0  0
  185.6990  177.5290  136.2020 C   0  0  0  0  0  2  0  0  0  0  0  0
  187.5750  175.7350  136.1240 C   0  0  2  0  0  0  0  0  0  0  0  0
  189.4290  177.2800  136.9910 C   0  0  1  0  0  3  0  0  0  0  0  0
  186.1610  177.4760  137.6470 C   0  0  2  0  0  0  0  0  0  0  0  0
  186.2360  176.2100  136.7720 C   0  0  1  0  0  0  0  0  0  0  0  0
  188.4490  178.4520  136.9430 C   0  0  0  0  0  2  0  0  0  0  0  0
  185.1030  175.2020  136.9570 C   0  0  0  0  0  1  0  0  0  0  0  0
  187.5240  174.2520  135.7860 C   0  0  0  0  0  1  0  0  0  0  0  0
  190.3180  177.4460  138.0520 O   0  0  0  0  0  1  0  0  0  0  0  0
  187.8220  176.4080  134.9340 F   0  0  0  0  0  0  0  0  0  0  0  0
  185.0430  179.2990  141.8680 O   0  0  0  0  0  0  0  0  0  0  0  0
  186.0790  178.2190  143.7240 C   0  0  0  0  0  3  0  0  0  0  0  0
  188.0120  176.6580  143.7260 C   0  0  0  0  0  3  0  0  0  0  0  0
  188.7050  176.9900  142.6220 C   0  0  0  0  0  0  0  0  0  0  0  0
  188.5350  178.2790  141.9130 C   0  0  0  0  0  3  0  0  0  0  0  0
  186.9310  177.4280  144.3770 C   0  0  0  0  0  0  0  0  0  0  0  0
  186.0800  178.3990  142.2410 C   0  0  2  0  0  3  0  0  0  0  0  0
  187.3850  178.9360  141.7650 C   0  0  0  0  0  3  0  0  0  0  0  0
  186.7610  177.2720  145.7110 F   0  0  0  0  0  0  0  0  0  0  0  0
  190.3960  176.2980  140.9380 O   0  0  0  0  0  0  0  0  0  0  0  0
  189.7980  176.1040  142.1780 C   0  0  0  0  0  0  0  0  0  0  0  0
  190.2060  175.1650  142.9140 O   0  0  0  0  0  1  0  0  0  0  0  0
  2  8  1  0  0  0  0
  3 24  1  0  0  0  0
  3  8  2  0  0  0  0
  4  7  2  0  0  0  0
  4  5  1  0  0  0  0
  5  2  2  0  0  0  0
  6  4  1  0  0  0  0
  7  3  1  0  0  0  0
  8  1  1  0  0  0  0
  9 11  2  0  0  0  0
 10 11  1  0  0  0  0
 11  7  1  0  0  0  0
 14 18  1  0  0  0  0
 14 17  1  0  0  0  0
 15 21  1  6  0  0  0
 15 18  1  0  0  0  0
 15 12  1  0  0  0  0
 16 12  1  0  0  0  0
 16 22  1  1  0  0  0
 17 13  1  0  0  0  0
 17 10  1  1  0  0  0
 18 20  1  1  0  0  0
 18 17  1  0  0  0  0
 19 16  1  0  0  0  0
 19 13  1  0  0  0  0
 23 15  1  0  0  0  0
 25 29  2  0  0  0  0
 26 29  1  0  0  0  0
 27 26  2  0  0  0  0
 28 27  1  0  0  0  0
 29 32  1  0  0  0  0
 30 24  1  1  0  0  0
 30 25  1  0  0  0  0
 31 28  2  0  0  0  0
 31 30  1  0  0  0  0
 33 34  2  0  0  0  0
 34 27  1  0  0  0  0
 34 35  1  0  0  0  0
M  END
>  <MODEL>
3

>  <REMARK>
 VINA RESULT:      -8.6      2.680      3.716
  Name = 
  5 active torsions:
  status: ('A' for Active; 'I' for Inactive)
    1  A    between atoms: C_8  and  O_16
    2  A    between atoms: C_10  and  C_14
    3  A    between atoms: O_16  and  C_25
    4  A    between atoms: C_22  and  N_28
    5  A    between atoms: C_29  and  C_34
                            x       y       z     vdW  Elec       q    Type
                         _______ _______ _______ _____ _____    ______ ____

>  <TORSDO>
F 5

$$$$
=
 OpenBabel11062415343D

 35 38  0  0  1  0  0  0  0  0999 V2000
  181.0370  178.4820  142.4380 C   0  0  0  0  0  1  0  0  0  0  0  0
  180.6180  177.6550  140.1490 C   0  0  0  0  0  3  0  0  0  0  0  0
  182.7940  178.6240  140.5950 C   0  0  0  0  0  0  0  0  0  0  0  0
  182.2450  177.6780  138.4200 C   0  0  0  0  0  0  0  0  0  0  0  0
  181.0020  177.3820  138.8780 N   0  0  0  0  0  0  0  0  0  0  0  0
  182.5830  177.3240  137.0800 N   0  0  0  0  0  1  0  0  0  0  0  0
  183.1870  178.2980  139.2730 C   0  0  0  0  0  0  0  0  0  0  0  0
  181.4980  178.2710  141.0360 C   0  0  0  0  0  0  0  0  0  0  0  0
  184.9310  179.8370  138.7460 O   0  0  0  0  0  0  0  0  0  0  0  0
  185.4430  177.5970  138.3670 N   0  0  0  0  0  2  0  0  0  0  0  0
  184.5510  178.6360  138.7860 C   0  0  0  0  0  0  0  0  0  0  0  0
  189.4600  176.2760  137.6750 C   0  0  0  0  0  2  0  0  0  0  0  0
  187.7890  178.2250  139.1010 C   0  0  0  0  0  2  0  0  0  0  0  0
  186.9500  178.5890  136.6620 C   0  0  0  0  0  2  0  0  0  0  0  0
  188.7540  176.7410  136.3980 C   0  0  2  0  0  0  0  0  0  0  0  0
  190.1030  177.4150  138.4730 C   0  0  1  0  0  3  0  0  0  0  0  0
  186.8280  177.8250  137.9670 C   0  0  2  0  0  0  0  0  0  0  0  0
  187.2590  177.0880  136.6860 C   0  0  1  0  0  0  0  0  0  0  0  0
  189.1890  178.6270  138.6500 C   0  0  0  0  0  2  0  0  0  0  0  0
  186.1640  176.3020  135.9660 C   0  0  0  0  0  1  0  0  0  0  0  0
  188.8700  175.5940  135.4040 C   0  0  0  0  0  1  0  0  0  0  0  0
  190.5170  176.9450  139.7180 O   0  0  0  0  0  1  0  0  0  0  0  0
  189.4210  177.8230  135.8380 F   0  0  0  0  0  0  0  0  0  0  0  0
  183.7100  179.2900  141.4290 O   0  0  0  0  0  0  0  0  0  0  0  0
  184.2720  179.0650  143.7350 C   0  0  0  0  0  3  0  0  0  0  0  0
  186.0670  177.6890  144.7640 C   0  0  0  0  0  3  0  0  0  0  0  0
  186.9930  177.5770  143.7940 C   0  0  0  0  0  0  0  0  0  0  0  0
  187.0500  178.4730  142.6170 C   0  0  0  0  0  3  0  0  0  0  0  0
  184.9220  178.6220  144.8120 C   0  0  0  0  0  0  0  0  0  0  0  0
  184.5920  178.6430  142.3380 C   0  0  2  0  0  3  0  0  0  0  0  0
  185.9970  178.9850  141.9810 C   0  0  0  0  0  3  0  0  0  0  0  0
  184.4690  179.0030  146.0300 F   0  0  0  0  0  0  0  0  0  0  0  0
  188.9640  176.7530  145.0630 O   0  0  0  0  0  1  0  0  0  0  0  0
  188.1010  176.6200  143.9810 C   0  0  0  0  0  0  0  0  0  0  0  0
  188.2770  175.6720  143.1690 O   0  0  0  0  0  0  0  0  0  0  0  0
  2  8  1  0  0  0  0
  3  8  2  0  0  0  0
  3 24  1  0  0  0  0
  4  5  1  0  0  0  0
  4  7  2  0  0  0  0
  5  2  2  0  0  0  0
  6  4  1  0  0  0  0
  7  3  1  0  0  0  0
  8  1  1  0  0  0  0
  9 11  2  0  0  0  0
 10 11  1  0  0  0  0
 11  7  1  0  0  0  0
 12 16  1  0  0  0  0
 14 18  1  0  0  0  0
 14 17  1  0  0  0  0
 15 21  1  6  0  0  0
 15 18  1  0  0  0  0
 15 12  1  0  0  0  0
 16 19  1  0  0  0  0
 16 22  1  1  0  0  0
 17 10  1  1  0  0  0
 17 13  1  0  0  0  0
 18 20  1  6  0  0  0
 18 17  1  0  0  0  0
 19 13  1  0  0  0  0
 23 15  1  0  0  0  0
 25 29  2  0  0  0  0
 26 29  1  0  0  0  0
 27 34  1  0  0  0  0
 27 26  2  0  0  0  0
 28 27  1  0  0  0  0
 29 32  1  0  0  0  0
 30 24  1  6  0  0  0
 30 25  1  0  0  0  0
 31 30  1  0  0  0  0
 31 28  2  0  0  0  0
 34 33  1  0  0  0  0
 35 34  2  0  0  0  0
M  END
>  <MODEL>
4

>  <REMARK>
 VINA RESULT:      -8.5      2.895      4.337
  Name = 
  5 active torsions:
  status: ('A' for Active; 'I' for Inactive)
    1  A    between atoms: C_8  and  O_16
    2  A    between atoms: C_10  and  C_14
    3  A    between atoms: O_16  and  C_25
    4  A    between atoms: C_22  and  N_28
    5  A    between atoms: C_29  and  C_34
                            x       y       z     vdW  Elec       q    Type
                         _______ _______ _______ _____ _____    ______ ____

>  <TORSDO>
F 5

$$$$
=
 OpenBabel11062415343D

 35 38  0  0  1  0  0  0  0  0999 V2000
  180.7660  178.6210  143.2750 C   0  0  0  0  0  1  0  0  0  0  0  0
  179.5920  177.4480  141.4470 C   0  0  0  0  0  3  0  0  0  0  0  0
  181.7860  178.3510  140.9540 C   0  0  0  0  0  0  0  0  0  0  0  0
  180.5290  177.0870  139.2950 C   0  0  0  0  0  0  0  0  0  0  0  0
  179.5180  176.9450  140.1910 N   0  0  0  0  0  0  0  0  0  0  0  0
  180.3890  176.4950  138.0050 N   0  0  0  0  0  1  0  0  0  0  0  0
  181.7040  177.7860  139.6570 C   0  0  0  0  0  0  0  0  0  0  0  0
  180.7200  178.1520  141.8610 C   0  0  0  0  0  0  0  0  0  0  0  0
  182.9010  179.0120  137.9980 O   0  0  0  0  0  0  0  0  0  0  0  0
  183.8060  176.9340  138.5350 N   0  0  0  0  0  2  0  0  0  0  0  0
  182.8170  177.9600  138.6860 C   0  0  0  0  0  0  0  0  0  0  0  0
  187.9100  176.1410  137.5920 C   0  0  0  0  0  2  0  0  0  0  0  0
  185.9050  178.2500  137.9900 C   0  0  0  0  0  2  0  0  0  0  0  0
  184.6870  176.7780  136.2200 C   0  0  0  0  0  2  0  0  0  0  0  0
  186.9340  175.5300  136.5820 C   0  0  2  0  0  0  0  0  0  0  0  0
  188.2550  177.6060  137.3070 C   0  0  1  0  0  3  0  0  0  0  0  0
  184.9830  177.0570  137.6820 C   0  0  2  0  0  0  0  0  0  0  0  0
  185.4570  175.7380  137.0420 C   0  0  1  0  0  0  0  0  0  0  0  0
  187.0340  178.4700  136.9900 C   0  0  0  0  0  2  0  0  0  0  0  0
  184.5850  174.5130  137.3120 C   0  0  0  0  0  1  0  0  0  0  0  0
  187.2790  174.0500  136.4980 C   0  0  0  0  0  1  0  0  0  0  0  0
  188.9540  178.1460  138.3860 O   0  0  0  0  0  1  0  0  0  0  0  0
  187.1450  176.0620  135.3170 F   0  0  0  0  0  0  0  0  0  0  0  0
  182.9300  179.0940  141.2980 O   0  0  0  0  0  0  0  0  0  0  0  0
  184.0030  179.0420  143.4260 C   0  0  0  0  0  3  0  0  0  0  0  0
  186.1000  177.8790  144.0750 C   0  0  0  0  0  3  0  0  0  0  0  0
  186.7980  177.7920  142.9270 C   0  0  0  0  0  0  0  0  0  0  0  0
  186.5110  178.6260  141.7370 C   0  0  0  0  0  3  0  0  0  0  0  0
  184.9110  178.7140  144.3460 C   0  0  0  0  0  0  0  0  0  0  0  0
  184.0460  178.5730  142.0080 C   0  0  2  0  0  3  0  0  0  0  0  0
  185.3000  179.0120  141.3350 C   0  0  0  0  0  3  0  0  0  0  0  0
  184.7030  179.1210  145.6200 F   0  0  0  0  0  0  0  0  0  0  0  0
  189.2260  177.4800  142.5030 O   0  0  0  0  0  0  0  0  0  0  0  0
  188.0030  176.9430  142.8940 C   0  0  0  0  0  0  0  0  0  0  0  0
  187.9450  175.7260  143.2190 O   0  0  0  0  0  1  0  0  0  0  0  0
  2  8  1  0  0  0  0
  3 24  1  0  0  0  0
  3  8  2  0  0  0  0
  4  7  2  0  0  0  0
  4  5  1  0  0  0  0
  5  2  2  0  0  0  0
  6  4  1  0  0  0  0
  7  3  1  0  0  0  0
  8  1  1  0  0  0  0
  9 11  2  0  0  0  0
 10 11  1  0  0  0  0
 11  7  1  0  0  0  0
 14 18  1  0  0  0  0
 14 17  1  0  0  0  0
 15 21  1  6  0  0  0
 15 18  1  0  0  0  0
 15 12  1  0  0  0  0
 16 12  1  0  0  0  0
 16 22  1  1  0  0  0
 17 13  1  0  0  0  0
 17 10  1  1  0  0  0
 18 20  1  1  0  0  0
 18 17  1  0  0  0  0
 19 16  1  0  0  0  0
 19 13  1  0  0  0  0
 23 15  1  0  0  0  0
 25 29  2  0  0  0  0
 26 29  1  0  0  0  0
 27 26  2  0  0  0  0
 28 27  1  0  0  0  0
 29 32  1  0  0  0  0
 30 24  1  6  0  0  0
 30 25  1  0  0  0  0
 31 28  2  0  0  0  0
 31 30  1  0  0  0  0
 33 34  2  0  0  0  0
 34 27  1  0  0  0  0
 34 35  1  0  0  0  0
M  END
>  <MODEL>
5

>  <REMARK>
 VINA RESULT:      -8.2      3.384      5.087
  Name = 
  5 active torsions:
  status: ('A' for Active; 'I' for Inactive)
    1  A    between atoms: C_8  and  O_16
    2  A    between atoms: C_10  and  C_14
    3  A    between atoms: O_16  and  C_25
    4  A    between atoms: C_22  and  N_28
    5  A    between atoms: C_29  and  C_34
                            x       y       z     vdW  Elec       q    Type
                         _______ _______ _______ _____ _____    ______ ____

>  <TORSDO>
F 5

$$$$
=
 OpenBabel11062415343D

 35 38  0  0  1  0  0  0  0  0999 V2000
  182.8320  179.3100  138.3680 C   0  0  0  0  0  1  0  0  0  0  0  0
  182.1400  178.8580  140.6950 C   0  0  0  0  0  3  0  0  0  0  0  0
  184.5190  178.9750  140.2500 C   0  0  0  0  0  0  0  0  0  0  0  0
  183.6620  178.6280  142.5020 C   0  0  0  0  0  0  0  0  0  0  0  0
  182.3970  178.6570  142.0110 N   0  0  0  0  0  0  0  0  0  0  0  0
  183.8460  178.4500  143.9060 N   0  0  0  0  0  1  0  0  0  0  0  0
  184.7650  178.8000  141.6350 C   0  0  0  0  0  0  0  0  0  0  0  0
  183.1840  179.0270  139.7890 C   0  0  0  0  0  0  0  0  0  0  0  0
  186.7640  179.8330  142.4260 O   0  0  0  0  0  0  0  0  0  0  0  0
  186.8140  177.5050  142.3610 N   0  0  0  0  0  2  0  0  0  0  0  0
  186.1580  178.7620  142.1550 C   0  0  0  0  0  0  0  0  0  0  0  0
  189.9110  178.7290  145.0570 C   0  0  0  0  0  2  0  0  0  0  0  0
  189.2680  178.1410  142.2530 C   0  0  0  0  0  2  0  0  0  0  0  0
  188.4480  175.9450  143.3890 C   0  0  0  0  0  2  0  0  0  0  0  0
  189.3460  177.3440  145.3830 C   0  0  2  0  0  0  0  0  0  0  0  0
  191.0130  178.7110  143.9940 C   0  0  1  0  0  3  0  0  0  0  0  0
  188.1380  177.3660  142.9570 C   0  0  2  0  0  0  0  0  0  0  0  0
  188.1380  177.0040  144.4540 C   0  0  1  0  0  0  0  0  0  0  0  0
  190.6700  177.8540  142.7750 C   0  0  0  0  0  2  0  0  0  0  0  0
  186.7680  176.7530  145.0800 C   0  0  0  0  0  1  0  0  0  0  0  0
  188.9180  177.3890  146.8430 C   0  0  0  0  0  1  0  0  0  0  0  0
  191.3060  180.0140  143.5930 O   0  0  0  0  0  1  0  0  0  0  0  0
  190.3400  176.3770  145.2880 F   0  0  0  0  0  0  0  0  0  0  0  0
  185.6150  179.0910  139.3770 O   0  0  0  0  0  0  0  0  0  0  0  0
  187.8070  178.2530  138.9550 C   0  0  0  0  0  3  0  0  0  0  0  0
  188.4660  176.1070  137.8910 C   0  0  0  0  0  3  0  0  0  0  0  0
  187.4240  175.8000  137.0960 C   0  0  0  0  0  0  0  0  0  0  0  0
  186.4050  176.7870  136.6740 C   0  0  0  0  0  3  0  0  0  0  0  0
  188.7480  177.4010  138.5460 C   0  0  0  0  0  0  0  0  0  0  0  0
  186.3400  177.9910  138.8420 C   0  0  2  0  0  3  0  0  0  0  0  0
  185.9390  177.7870  137.4220 C   0  0  0  0  0  3  0  0  0  0  0  0
  190.0420  177.7120  138.7980 F   0  0  0  0  0  0  0  0  0  0  0  0
  186.8410  173.3870  137.1970 O   0  0  0  0  0  1  0  0  0  0  0  0
  187.3710  174.4580  136.4850 C   0  0  0  0  0  0  0  0  0  0  0  0
  187.8000  174.2640  135.3150 O   0  0  0  0  0  0  0  0  0  0  0  0
  1  8  1  0  0  0  0
  2  5  1  0  0  0  0
  3  7  2  0  0  0  0
  4  6  1  0  0  0  0
  5  4  2  0  0  0  0
  7 11  1  0  0  0  0
  7  4  1  0  0  0  0
  8  3  1  0  0  0  0
  8  2  2  0  0  0  0
 11 10  1  0  0  0  0
 11  9  2  0  0  0  0
 12 15  1  0  0  0  0
 13 19  1  0  0  0  0
 13 17  1  0  0  0  0
 14 18  1  0  0  0  0
 15 21  1  1  0  0  0
 16 22  1  6  0  0  0
 16 12  1  0  0  0  0
 17 10  1  6  0  0  0
 17 14  1  0  0  0  0
 17 18  1  0  0  0  0
 18 20  1  1  0  0  0
 18 15  1  0  0  0  0
 19 16  1  0  0  0  0
 23 15  1  0  0  0  0
 24  3  1  0  0  0  0
 26 29  1  0  0  0  0
 27 26  2  0  0  0  0
 28 27  1  0  0  0  0
 28 31  2  0  0  0  0
 29 32  1  0  0  0  0
 29 25  2  0  0  0  0
 30 25  1  0  0  0  0
 30 24  1  6  0  0  0
 31 30  1  0  0  0  0
 34 27  1  0  0  0  0
 34 33  1  0  0  0  0
 35 34  2  0  0  0  0
M  END
>  <MODEL>
6

>  <REMARK>
 VINA RESULT:      -7.9      2.684      7.472
  Name = 
  5 active torsions:
  status: ('A' for Active; 'I' for Inactive)
    1  A    between atoms: C_8  and  O_16
    2  A    between atoms: C_10  and  C_14
    3  A    between atoms: O_16  and  C_25
    4  A    between atoms: C_22  and  N_28
    5  A    between atoms: C_29  and  C_34
                            x       y       z     vdW  Elec       q    Type
                         _______ _______ _______ _____ _____    ______ ____

>  <TORSDO>
F 5

$$$$
=
 OpenBabel11062415343D

 35 38  0  0  1  0  0  0  0  0999 V2000
  183.5170  179.3550  143.7220 C   0  0  0  0  0  1  0  0  0  0  0  0
  185.2990  178.0540  144.8290 C   0  0  0  0  0  3  0  0  0  0  0  0
  185.7190  178.8010  142.5630 C   0  0  0  0  0  0  0  0  0  0  0  0
  187.4030  177.5860  143.8330 C   0  0  0  0  0  0  0  0  0  0  0  0
  186.5380  177.5040  144.8760 N   0  0  0  0  0  0  0  0  0  0  0  0
  188.7030  177.0140  143.9760 N   0  0  0  0  0  1  0  0  0  0  0  0
  187.0230  178.2520  142.6450 C   0  0  0  0  0  0  0  0  0  0  0  0
  184.8630  178.7170  143.6840 C   0  0  0  0  0  0  0  0  0  0  0  0
  188.8230  179.2560  141.4450 O   0  0  0  0  0  0  0  0  0  0  0  0
  187.8780  177.3870  140.4260 N   0  0  0  0  0  2  0  0  0  0  0  0
  187.9550  178.3430  141.4900 C   0  0  0  0  0  0  0  0  0  0  0  0
  189.6030  175.4710  137.0030 C   0  0  0  0  0  2  0  0  0  0  0  0
  190.1800  176.7040  139.6060 C   0  0  0  0  0  2  0  0  0  0  0  0
  188.8110  178.6130  138.4800 C   0  0  0  0  0  2  0  0  0  0  0  0
  188.8630  176.7660  136.6560 C   0  0  2  0  0  0  0  0  0  0  0  0
  191.0490  175.6910  137.4570 C   0  0  1  0  0  3  0  0  0  0  0  0
  188.8100  177.3390  139.3050 C   0  0  2  0  0  0  0  0  0  0  0  0
  188.1480  177.3510  137.9140 C   0  0  1  0  0  0  0  0  0  0  0  0
  191.2040  176.8130  138.4830 C   0  0  0  0  0  2  0  0  0  0  0  0
  186.6270  177.5040  137.8990 C   0  0  0  0  0  1  0  0  0  0  0  0
  187.8580  176.4060  135.5720 C   0  0  0  0  0  1  0  0  0  0  0  0
  191.5700  174.5030  137.9690 O   0  0  0  0  0  1  0  0  0  0  0  0
  189.7360  177.6920  136.0990 F   0  0  0  0  0  0  0  0  0  0  0  0
  185.3180  179.4160  141.3630 O   0  0  0  0  0  0  0  0  0  0  0  0
  183.7310  179.7530  139.6160 C   0  0  0  0  0  3  0  0  0  0  0  0
  182.7870  178.0830  138.0380 C   0  0  0  0  0  3  0  0  0  0  0  0
  182.8710  176.9160  138.7030 C   0  0  0  0  0  0  0  0  0  0  0  0
  183.0560  176.8290  140.1700 C   0  0  0  0  0  3  0  0  0  0  0  0
  182.9400  179.4460  138.5870 C   0  0  0  0  0  0  0  0  0  0  0  0
  184.5990  178.7640  140.3240 C   0  0  2  0  0  3  0  0  0  0  0  0
  183.7880  177.6610  140.9100 C   0  0  0  0  0  3  0  0  0  0  0  0
  182.2800  180.4540  137.9680 F   0  0  0  0  0  0  0  0  0  0  0  0
  183.5870  174.6700  137.9210 O   0  0  0  0  0  1  0  0  0  0  0  0
  182.6140  175.6620  137.9690 C   0  0  0  0  0  0  0  0  0  0  0  0
  181.5160  175.4720  137.3820 O   0  0  0  0  0  0  0  0  0  0  0  0
  2  5  1  0  0  0  0
  3  7  2  0  0  0  0
  3  8  1  0  0  0  0
  4  6  1  0  0  0  0
  4  5  2  0  0  0  0
  7  4  1  0  0  0  0
  8  1  1  0  0  0  0
  8  2  2  0  0  0  0
  9 11  2  0  0  0  0
 10 11  1  0  0  0  0
 11  7  1  0  0  0  0
 12 16  1  0  0  0  0
 14 17  1  0  0  0  0
 15 21  1  6  0  0  0
 15 12  1  0  0  0  0
 15 18  1  0  0  0  0
 16 22  1  1  0  0  0
 16 19  1  0  0  0  0
 17 13  1  0  0  0  0
 17 10  1  1  0  0  0
 18 20  1  6  0  0  0
 18 14  1  0  0  0  0
 18 17  1  0  0  0  0
 19 13  1  0  0  0  0
 23 15  1  0  0  0  0
 24  3  1  0  0  0  0
 25 30  1  0  0  0  0
 26 29  1  0  0  0  0
 26 27  2  0  0  0  0
 27 28  1  0  0  0  0
 28 31  2  0  0  0  0
 29 25  2  0  0  0  0
 30 31  1  0  0  0  0
 30 24  1  1  0  0  0
 32 29  1  0  0  0  0
 33 34  1  0  0  0  0
 34 27  1  0  0  0  0
 35 34  2  0  0  0  0
M  END
>  <MODEL>
7

>  <REMARK>
 VINA RESULT:      -7.9      3.332      6.318
  Name = 
  5 active torsions:
  status: ('A' for Active; 'I' for Inactive)
    1  A    between atoms: C_8  and  O_16
    2  A    between atoms: C_10  and  C_14
    3  A    between atoms: O_16  and  C_25
    4  A    between atoms: C_22  and  N_28
    5  A    between atoms: C_29  and  C_34
                            x       y       z     vdW  Elec       q    Type
                         _______ _______ _______ _____ _____    ______ ____

>  <TORSDO>
F 5

$$$$
=
 OpenBabel11062415343D

 35 38  0  0  1  0  0  0  0  0999 V2000
  188.4840  177.8380  135.2170 C   0  0  0  0  0  1  0  0  0  0  0  0
  186.4350  178.1000  136.5690 C   0  0  0  0  0  3  0  0  0  0  0  0
  188.5370  177.9550  137.7640 C   0  0  0  0  0  0  0  0  0  0  0  0
  186.4320  178.3060  138.9350 C   0  0  0  0  0  0  0  0  0  0  0  0
  185.7800  178.2650  137.7450 N   0  0  0  0  0  0  0  0  0  0  0  0
  185.6740  178.5220  140.1240 N   0  0  0  0  0  1  0  0  0  0  0  0
  187.8390  178.1650  138.9780 C   0  0  0  0  0  0  0  0  0  0  0  0
  187.8190  177.9490  136.5470 C   0  0  0  0  0  0  0  0  0  0  0  0
  188.8400  179.3010  140.8210 O   0  0  0  0  0  0  0  0  0  0  0  0
  188.9580  176.9770  140.9110 N   0  0  0  0  0  2  0  0  0  0  0  0
  188.5680  178.1990  140.2740 C   0  0  0  0  0  0  0  0  0  0  0  0
  190.0300  178.6670  144.7000 C   0  0  0  0  0  2  0  0  0  0  0  0
  191.0600  177.3610  142.2790 C   0  0  0  0  0  2  0  0  0  0  0  0
  189.2310  175.6480  142.9900 C   0  0  0  0  0  2  0  0  0  0  0  0
  189.0720  177.4790  144.8230 C   0  0  2  0  0  0  0  0  0  0  0  0
  191.5040  178.2620  144.6020 C   0  0  1  0  0  3  0  0  0  0  0  0
  189.5890  176.9080  142.2240 C   0  0  2  0  0  0  0  0  0  0  0  0
  188.6140  176.9860  143.4140 C   0  0  1  0  0  0  0  0  0  0  0  0
  191.7590  177.1250  143.6120 C   0  0  0  0  0  2  0  0  0  0  0  0
  187.1290  177.0310  143.0590 C   0  0  0  0  0  1  0  0  0  0  0  0
  187.8870  177.9700  145.6430 C   0  0  0  0  0  1  0  0  0  0  0  0
  192.2780  179.3710  144.2630 O   0  0  0  0  0  1  0  0  0  0  0  0
  189.6600  176.4510  145.5480 F   0  0  0  0  0  0  0  0  0  0  0  0
  189.9300  177.7600  137.8090 O   0  0  0  0  0  0  0  0  0  0  0  0
  189.6950  175.4000  137.5540 C   0  0  0  0  0  3  0  0  0  0  0  0
  191.3480  173.7650  136.6810 C   0  0  0  0  0  3  0  0  0  0  0  0
  192.5410  174.3360  136.9330 C   0  0  0  0  0  0  0  0  0  0  0  0
  192.7260  175.4340  137.9080 C   0  0  0  0  0  3  0  0  0  0  0  0
  190.0310  174.1520  137.2280 C   0  0  0  0  0  0  0  0  0  0  0  0
  190.5930  176.5800  137.3710 C   0  0  2  0  0  3  0  0  0  0  0  0
  191.8570  176.4170  138.1420 C   0  0  0  0  0  3  0  0  0  0  0  0
  189.0890  173.1860  137.3480 F   0  0  0  0  0  0  0  0  0  0  0  0
  193.6560  172.5790  135.5750 O   0  0  0  0  0  0  0  0  0  0  0  0
  193.7510  173.7430  136.3310 C   0  0  0  0  0  0  0  0  0  0  0  0
  194.8800  174.2800  136.4900 O   0  0  0  0  0  1  0  0  0  0  0  0
  1  8  1  0  0  0  0
  2  5  1  0  0  0  0
  3 24  1  0  0  0  0
  3  7  2  0  0  0  0
  4  7  1  0  0  0  0
  4  6  1  0  0  0  0
  5  4  2  0  0  0  0
  7 11  1  0  0  0  0
  8  2  2  0  0  0  0
  8  3  1  0  0  0  0
 11  9  2  0  0  0  0
 11 10  1  0  0  0  0
 12 15  1  0  0  0  0
 13 19  1  0  0  0  0
 14 18  1  0  0  0  0
 15 23  1  0  0  0  0
 15 21  1  1  0  0  0
 16 22  1  6  0  0  0
 16 12  1  0  0  0  0
 17 10  1  6  0  0  0
 17 13  1  0  0  0  0
 17 14  1  0  0  0  0
 17 18  1  0  0  0  0
 18 20  1  6  0  0  0
 18 15  1  0  0  0  0
 19 16  1  0  0  0  0
 26 27  2  0  0  0  0
 26 29  1  0  0  0  0
 27 28  1  0  0  0  0
 28 31  2  0  0  0  0
 29 32  1  0  0  0  0
 29 25  2  0  0  0  0
 30 25  1  0  0  0  0
 30 24  1  1  0  0  0
 30 31  1  0  0  0  0
 33 34  2  0  0  0  0
 34 35  1  0  0  0  0
 34 27  1  0  0  0  0
M  END
>  <MODEL>
8

>  <REMARK>
 VINA RESULT:      -7.7      2.262      7.528
  Name = 
  5 active torsions:
  status: ('A' for Active; 'I' for Inactive)
    1  A    between atoms: C_8  and  O_16
    2  A    between atoms: C_10  and  C_14
    3  A    between atoms: O_16  and  C_25
    4  A    between atoms: C_22  and  N_28
    5  A    between atoms: C_29  and  C_34
                            x       y       z     vdW  Elec       q    Type
                         _______ _______ _______ _____ _____    ______ ____

>  <TORSDO>
F 5

$$$$
=
 OpenBabel11062415343D

 35 38  0  0  1  0  0  0  0  0999 V2000
  185.1560  179.7090  144.6600 C   0  0  0  0  0  1  0  0  0  0  0  0
  182.9650  179.0030  143.7690 C   0  0  0  0  0  3  0  0  0  0  0  0
  184.7500  179.3510  142.1690 C   0  0  0  0  0  0  0  0  0  0  0  0
  182.5540  178.5670  141.4710 C   0  0  0  0  0  0  0  0  0  0  0  0
  182.1390  178.6240  142.7620 N   0  0  0  0  0  0  0  0  0  0  0  0
  181.6340  178.1220  140.4760 N   0  0  0  0  0  1  0  0  0  0  0  0
  183.8820  178.9170  141.1360 C   0  0  0  0  0  0  0  0  0  0  0  0
  184.2820  179.3670  143.5020 C   0  0  0  0  0  0  0  0  0  0  0  0
  184.5190  179.9360  139.0760 O   0  0  0  0  0  0  0  0  0  0  0  0
  184.6220  177.6090  139.1010 N   0  0  0  0  0  2  0  0  0  0  0  0
  184.3510  178.8690  139.7250 C   0  0  0  0  0  0  0  0  0  0  0  0
  187.1480  175.6920  136.2180 C   0  0  0  0  0  2  0  0  0  0  0  0
  186.4730  178.2530  137.4890 C   0  0  0  0  0  2  0  0  0  0  0  0
  184.1160  177.5030  136.6730 C   0  0  0  0  0  2  0  0  0  0  0  0
  185.6580  175.5680  135.8860 C   0  0  2  0  0  0  0  0  0  0  0  0
  187.7820  176.9960  135.7250 C   0  0  1  0  0  3  0  0  0  0  0  0
  185.1760  177.4680  137.7580 C   0  0  2  0  0  0  0  0  0  0  0  0
  184.7830  176.1690  137.0310 C   0  0  1  0  0  0  0  0  0  0  0  0
  186.9490  178.2380  136.0410 C   0  0  0  0  0  2  0  0  0  0  0  0
  183.8030  175.2590  137.7700 C   0  0  0  0  0  1  0  0  0  0  0  0
  185.3830  174.0820  135.7080 C   0  0  0  0  0  1  0  0  0  0  0  0
  189.0620  177.1330  136.2620 O   0  0  0  0  0  1  0  0  0  0  0  0
  185.3780  176.1750  134.6680 F   0  0  0  0  0  0  0  0  0  0  0  0
  186.0550  179.7530  141.8310 O   0  0  0  0  0  0  0  0  0  0  0  0
  187.7540  178.4850  140.7380 C   0  0  0  0  0  3  0  0  0  0  0  0
  189.6510  177.2410  141.7510 C   0  0  0  0  0  3  0  0  0  0  0  0
  189.2190  176.9300  142.9870 C   0  0  0  0  0  0  0  0  0  0  0  0
  187.7910  176.9550  143.3790 C   0  0  0  0  0  3  0  0  0  0  0  0
  188.8460  177.7310  140.6120 C   0  0  0  0  0  0  0  0  0  0  0  0
  187.2220  178.9690  142.0480 C   0  0  2  0  0  3  0  0  0  0  0  0
  186.8840  177.8290  142.9450 C   0  0  0  0  0  3  0  0  0  0  0  0
  189.2810  177.4430  139.3620 F   0  0  0  0  0  0  0  0  0  0  0  0
  190.1030  176.7460  145.3020 O   0  0  0  0  0  1  0  0  0  0  0  0
  190.1870  176.3880  143.9600 C   0  0  0  0  0  0  0  0  0  0  0  0
  191.0960  175.5970  143.5930 O   0  0  0  0  0  0  0  0  0  0  0  0
  3  8  2  0  0  0  0
  4  5  1  0  0  0  0
  5  2  2  0  0  0  0
  6  4  1  0  0  0  0
  7  4  2  0  0  0  0
  7  3  1  0  0  0  0
  8  2  1  0  0  0  0
  8  1  1  0  0  0  0
  9 11  2  0  0  0  0
 10 11  1  0  0  0  0
 11  7  1  0  0  0  0
 13 17  1  0  0  0  0
 14 18  1  0  0  0  0
 14 17  1  0  0  0  0
 15 21  1  6  0  0  0
 15 12  1  0  0  0  0
 15 18  1  0  0  0  0
 16 19  1  0  0  0  0
 16 12  1  0  0  0  0
 16 22  1  1  0  0  0
 17 10  1  1  0  0  0
 18 17  1  0  0  0  0
 18 20  1  1  0  0  0
 19 13  1  0  0  0  0
 23 15  1  0  0  0  0
 24  3  1  0  0  0  0
 25 30  1  0  0  0  0
 26 27  2  0  0  0  0
 27 28  1  0  0  0  0
 27 34  1  0  0  0  0
 29 25  2  0  0  0  0
 29 26  1  0  0  0  0
 30 24  1  6  0  0  0
 30 31  1  0  0  0  0
 31 28  2  0  0  0  0
 32 29  1  0  0  0  0
 34 33  1  0  0  0  0
 35 34  2  0  0  0  0
M  END
>  <MODEL>
9

>  <REMARK>
 VINA RESULT:      -7.6      2.611      3.573
  Name = 
  5 active torsions:
  status: ('A' for Active; 'I' for Inactive)
    1  A    between atoms: C_8  and  O_16
    2  A    between atoms: C_10  and  C_14
    3  A    between atoms: O_16  and  C_25
    4  A    between atoms: C_22  and  N_28
    5  A    between atoms: C_29  and  C_34
                            x       y       z     vdW  Elec       q    Type
                         _______ _______ _______ _____ _____    ______ ____

>  <TORSDO>
F 5

$$$$
