=
 OpenBabel11062418013D

 58 65  0  0  1  0  0  0  0  0999 V2000
  187.3060  177.7350  139.8390 C   0  0  2  0  0  3  0  0  0  0  0  0
  187.3020  178.8420  140.8860 C   0  0  2  0  0  3  0  0  0  0  0  0
  189.5830  178.0630  140.5740 C   0  0  1  0  0  3  0  0  0  0  0  0
  188.6450  177.0350  139.9800 C   0  0  0  0  0  2  0  0  0  0  0  0
  188.7160  178.9610  141.4340 C   0  0  0  0  0  2  0  0  0  0  0  0
  190.8340  177.2700  141.5690 S   0  0  0  0  0  0  0  0  0  0  0  0
  191.0850  178.2070  143.0600 C   0  0  0  0  0  1  0  0  0  0  0  0
  192.1280  177.1820  140.8190 O   0  0  0  0  0  0  0  0  0  0  0  0
  190.3880  175.8800  141.9320 O   0  0  0  0  0  0  0  0  0  0  0  0
  186.2760  178.6050  142.0130 C   0  0  2  0  0  3  0  0  0  0  0  0
  186.6650  177.4220  142.8910 C   0  0  0  0  0  2  0  0  0  0  0  0
  186.6870  178.2150  146.4400 C   0  0  0  0  0  0  0  0  0  0  0  0
  188.6720  177.3390  145.3870 C   0  0  0  0  0  3  0  0  0  0  0  0
  186.4000  177.6990  144.3320 C   0  0  0  0  0  0  0  0  0  0  0  0
  189.4360  178.2090  149.0150 C   0  0  0  0  0  1  0  0  0  0  0  0
  187.3390  178.3950  147.6570 C   0  0  0  0  0  3  0  0  0  0  0  0
  188.6970  178.0290  147.7380 C   0  0  0  0  0  0  0  0  0  0  0  0
  189.3560  177.4970  146.6100 C   0  0  0  0  0  3  0  0  0  0  0  0
  185.4410  178.5010  146.1480 O   0  0  0  0  0  0  0  0  0  0  0  0
  185.2310  178.2190  144.8740 C   0  0  0  0  0  3  0  0  0  0  0  0
  187.3310  177.7130  145.3480 C   0  0  0  0  0  0  0  0  0  0  0  0
  184.9000  178.3360  141.4180 C   0  0  0  0  0  2  0  0  0  0  0  0
  184.4740  179.4380  140.6290 O   0  0  0  0  0  0  0  0  0  0  0  0
  183.6100  179.9010  138.5590 O   0  0  0  0  0  0  0  0  0  0  0  0
  183.4760  179.2990  139.6630 C   0  0  0  0  0  0  0  0  0  0  0  0
  181.1140  179.0220  139.3540 C   0  0  0  0  0  0  0  0  0  0  0  0
  181.8280  177.7690  138.8380 N   0  0  0  0  0  0  0  0  0  0  0  0
  180.1980  179.8850  139.2710 O   0  0  0  0  0  0  0  0  0  0  0  0
  182.2440  178.4870  139.9590 C   0  0  1  0  0  3  0  0  0  0  0  0
  183.3300  175.8940  136.1070 C   0  0  0  0  0  2  0  0  0  0  0  0
  183.5770  174.9870  137.3020 C   0  0  0  0  0  2  0  0  0  0  0  0
  182.6890  177.1460  136.6580 C   0  0  0  0  0  2  0  0  0  0  0  0
  182.7860  175.5630  138.4660 C   0  0  0  0  0  2  0  0  0  0  0  0
  181.9480  176.6770  137.8860 C   0  0  0  0  0  3  0  0  0  0  0  0
  187.1870  178.3550  138.4550 C   0  0  0  0  0  2  0  0  0  0  0  0
  186.2010  177.5880  137.5930 C   0  0  0  0  0  2  0  0  0  0  0  0
  186.7880  177.3270  136.2150 C   0  0  0  0  0  2  0  0  0  0  0  0
  187.6840  176.1090  136.2920 C   0  0  0  0  0  2  0  0  0  0  0  0
  189.0220  177.7060  134.8910 C   0  0  0  0  0  1  0  0  0  0  0  0
  189.0260  176.3550  135.5960 C   0  0  1  0  0  3  0  0  0  0  0  0
  191.4080  175.1250  134.9360 O   0  0  0  0  0  1  0  0  0  0  0  0
  191.3530  175.5940  136.2450 C   0  0  1  0  0  0  0  0  0  0  0  0
  190.7630  174.9900  138.4910 O   0  0  0  0  0  1  0  0  0  0  0  0
  190.1180  176.3700  136.6570 C   0  0  2  0  0  3  0  0  0  0  0  0
  190.3400  174.9420  137.1660 C   0  0  1  0  0  3  0  0  0  0  0  0
  194.6590  175.7640  137.8330 O   0  0  0  0  0  0  0  0  0  0  0  0
  193.6620  175.2410  137.2640 C   0  0  0  0  0  0  0  0  0  0  0  0
  192.5950  176.0930  136.8370 N   0  0  0  0  0  2  0  0  0  0  0  0
  193.5910  173.7800  137.0570 C   0  0  0  0  0  3  0  0  0  0  0  0
  194.5680  172.9920  136.5930 C   0  0  0  0  0  3  0  0  0  0  0  0
  195.9200  173.4890  136.1940 C   0  0  0  0  0  2  0  0  0  0  0  0
  198.3410  172.7170  135.4650 O   0  0  0  0  0  0  0  0  0  0  0  0
  197.8130  174.3710  137.6330 C   0  0  0  0  0  2  0  0  0  0  0  0
  196.9630  173.1620  137.2680 C   0  0  2  0  0  0  0  0  0  0  0  0
  198.3850  174.9810  136.4030 N   0  0  0  0  0  2  0  0  0  0  0  0
  198.2220  172.3960  136.8100 C   0  0  1  0  0  3  0  0  0  0  0  0
  199.0140  173.9810  135.4820 C   0  0  0  0  0  2  0  0  0  0  0  0
  197.0750  171.6450  137.3480 C   0  0  0  0  0  2  0  0  0  0  0  0
  1 35  1  6  0  0  0
  1  4  1  0  0  0  0
  1  2  1  0  0  0  0
  2  5  1  0  0  0  0
  2 10  1  1  0  0  0
  3  5  1  0  0  0  0
  3  6  1  1  0  0  0
  4  3  1  0  0  0  0
  6  9  2  0  0  0  0
  6  7  1  0  0  0  0
  8  6  2  0  0  0  0
 10 22  1  6  0  0  0
 10 11  1  0  0  0  0
 11 14  1  0  0  0  0
 12 16  1  0  0  0  0
 13 18  2  0  0  0  0
 14 20  2  0  0  0  0
 14 21  1  0  0  0  0
 16 17  2  0  0  0  0
 17 15  1  0  0  0  0
 18 17  1  0  0  0  0
 19 12  1  0  0  0  0
 20 19  1  0  0  0  0
 21 13  1  0  0  0  0
 21 12  2  0  0  0  0
 23 22  1  0  0  0  0
 24 25  2  0  0  0  0
 25 23  1  0  0  0  0
 26 29  1  0  0  0  0
 27 26  1  0  0  0  0
 27 29  1  0  0  0  0
 28 26  2  0  0  0  0
 29 25  1  6  0  0  0
 30 32  1  0  0  0  0
 30 31  1  0  0  0  0
 31 33  1  0  0  0  0
 32 34  1  0  0  0  0
 34 33  1  0  0  0  0
 34 27  1  0  0  0  0
 36 35  1  0  0  0  0
 37 38  1  0  0  0  0
 37 36  1  0  0  0  0
 40 39  1  1  0  0  0
 40 38  1  0  0  0  0
 42 41  1  6  0  0  0
 42 44  1  0  0  0  0
 42 48  1  0  0  0  0
 42 45  1  0  0  0  0
 44 40  1  6  0  0  0
 44 45  1  0  0  0  0
 45 43  1  1  0  0  0
 47 46  2  0  0  0  0
 48 47  1  0  0  0  0
 49 47  1  0  0  0  0
 50 49  2  0  0  0  0
 51 50  1  0  0  0  0
 52 57  1  0  0  0  0
 52 56  1  0  0  0  0
 54 51  1  6  0  0  0
 54 58  1  0  0  0  0
 54 53  1  0  0  0  0
 55 53  1  0  0  0  0
 56 54  1  0  0  0  0
 56 58  1  6  0  0  0
 57 55  1  0  0  0  0
M  END
>  <MODEL>
1

>  <REMARK>
 VINA RESULT:      -7.3      0.000      0.000
  Name = 
  19 active torsions:
  status: ('A' for Active; 'I' for Inactive)
    1  A    between atoms: C_3  and  C_18
    2  A    between atoms: C_4  and  C_47
    3  A    between atoms: N_5  and  C_46
    4  A    between atoms: C_7  and  N_28
    5  A    between atoms: C_12  and  C_25
    6  A    between atoms: O_13  and  C_39
    7  A    between atoms: O_13  and  C_41
    8  A    between atoms: C_15  and  C_42
    9  A    between atoms: C_17  and  S_19
   10  A    between atoms: C_18  and  C_35
   11  A    between atoms: C_22  and  C_34
   12  A    between atoms: C_22  and  C_35
   13  A    between atoms: C_23  and  C_26
   14  A    between atoms: C_26  and  C_53
   15  A    between atoms: C_34  and  C_58
   16  A    between atoms: C_39  and  C_47
   17  A    between atoms: C_41  and  CA_55
   18  A    between atoms: C_42  and  C_47
   19  A    between atoms: C_45  and  C_58
                            x       y       z     vdW  Elec       q    Type
                         _______ _______ _______ _____ _____    ______ ____

>  <TORSDO>
F 19

$$$$
=
 OpenBabel11062418013D

 58 65  0  0  1  0  0  0  0  0999 V2000
  187.2020  177.8780  140.0460 C   0  0  2  0  0  3  0  0  0  0  0  0
  187.0510  179.0610  140.9950 C   0  0  2  0  0  3  0  0  0  0  0  0
  189.3020  178.1680  141.2020 C   0  0  1  0  0  3  0  0  0  0  0  0
  188.4460  177.1370  140.5000 C   0  0  0  0  0  2  0  0  0  0  0  0
  188.3320  179.1640  141.8070 C   0  0  0  0  0  2  0  0  0  0  0  0
  190.2860  177.4040  142.4780 S   0  0  0  0  0  0  0  0  0  0  0  0
  190.5050  178.5490  143.8220 C   0  0  0  0  0  1  0  0  0  0  0  0
  191.6280  177.0080  141.9450 O   0  0  0  0  0  0  0  0  0  0  0  0
  189.5860  176.1740  142.9910 O   0  0  0  0  0  0  0  0  0  0  0  0
  185.8110  178.9510  141.9050 C   0  0  2  0  0  3  0  0  0  0  0  0
  185.8890  177.7370  142.8230 C   0  0  0  0  0  2  0  0  0  0  0  0
  185.9710  178.6210  146.3500 C   0  0  0  0  0  0  0  0  0  0  0  0
  187.7560  177.3120  145.3910 C   0  0  0  0  0  3  0  0  0  0  0  0
  185.6450  178.1100  144.2450 C   0  0  0  0  0  0  0  0  0  0  0  0
  188.5770  178.1170  149.0220 C   0  0  0  0  0  1  0  0  0  0  0  0
  186.6090  178.6980  147.5850 C   0  0  0  0  0  3  0  0  0  0  0  0
  187.8560  178.0570  147.7230 C   0  0  0  0  0  0  0  0  0  0  0  0
  188.4210  177.3630  146.6330 C   0  0  0  0  0  3  0  0  0  0  0  0
  184.8230  179.1530  146.0050 O   0  0  0  0  0  0  0  0  0  0  0  0
  184.5970  178.8820  144.7320 C   0  0  0  0  0  3  0  0  0  0  0  0
  186.5270  177.9590  145.2940 C   0  0  0  0  0  0  0  0  0  0  0  0
  184.5490  178.8380  141.0580 C   0  0  0  0  0  2  0  0  0  0  0  0
  183.4000  178.7450  141.8870 O   0  0  0  0  0  0  0  0  0  0  0  0
  181.1310  178.5360  142.1290 O   0  0  0  0  0  0  0  0  0  0  0  0
  182.1160  178.6570  141.3460 C   0  0  0  0  0  0  0  0  0  0  0  0
  180.6860  178.1420  139.4900 C   0  0  0  0  0  0  0  0  0  0  0  0
  181.0120  179.6390  139.4600 N   0  0  0  0  0  0  0  0  0  0  0  0
  179.8860  177.1820  139.3230 O   0  0  0  0  0  0  0  0  0  0  0  0
  181.9230  178.6590  139.8530 C   0  0  1  0  0  3  0  0  0  0  0  0
  180.9190  182.7740  137.6180 C   0  0  0  0  0  2  0  0  0  0  0  0
  179.4950  182.2610  137.4660 C   0  0  0  0  0  2  0  0  0  0  0  0
  181.6740  181.6940  138.3570 C   0  0  0  0  0  2  0  0  0  0  0  0
  179.3540  181.0650  138.3930 C   0  0  0  0  0  2  0  0  0  0  0  0
  180.6260  181.0170  139.2050 C   0  0  0  0  0  3  0  0  0  0  0  0
  187.3940  178.3960  138.6280 C   0  0  0  0  0  2  0  0  0  0  0  0
  186.1830  178.0930  137.7640 C   0  0  0  0  0  2  0  0  0  0  0  0
  186.6150  177.6470  136.3770 C   0  0  0  0  0  2  0  0  0  0  0  0
  187.2660  176.2850  136.4860 C   0  0  0  0  0  2  0  0  0  0  0  0
  188.6200  177.3430  134.6560 C   0  0  0  0  0  1  0  0  0  0  0  0
  188.5690  176.2190  135.6830 C   0  0  1  0  0  3  0  0  0  0  0  0
  190.9870  175.1320  134.9110 O   0  0  0  0  0  1  0  0  0  0  0  0
  190.9930  175.6890  136.1870 C   0  0  1  0  0  0  0  0  0  0  0  0
  190.6290  175.2050  138.5080 O   0  0  0  0  0  1  0  0  0  0  0  0
  189.7330  176.3950  136.6460 C   0  0  2  0  0  3  0  0  0  0  0  0
  190.1120  175.0290  137.2280 C   0  0  1  0  0  3  0  0  0  0  0  0
  194.5070  176.2880  137.0700 O   0  0  0  0  0  0  0  0  0  0  0  0
  193.5110  175.6860  136.5830 C   0  0  0  0  0  0  0  0  0  0  0  0
  192.2310  176.3230  136.6400 N   0  0  0  0  0  2  0  0  0  0  0  0
  193.6600  174.3460  135.9790 C   0  0  0  0  0  3  0  0  0  0  0  0
  194.8060  173.6840  135.7800 C   0  0  0  0  0  3  0  0  0  0  0  0
  196.1520  174.2220  136.1420 C   0  0  0  0  0  2  0  0  0  0  0  0
  197.6010  174.8740  138.2560 O   0  0  0  0  0  0  0  0  0  0  0  0
  196.2540  172.4620  137.9660 C   0  0  0  0  0  2  0  0  0  0  0  0
  197.0030  173.1520  136.8330 C   0  0  2  0  0  0  0  0  0  0  0  0
  195.6910  173.4770  138.8960 N   0  0  0  0  0  2  0  0  0  0  0  0
  198.0790  173.6440  137.8240 C   0  0  1  0  0  3  0  0  0  0  0  0
  196.6810  174.5280  139.2970 C   0  0  0  0  0  2  0  0  0  0  0  0
  198.4520  173.3850  136.4230 C   0  0  0  0  0  2  0  0  0  0  0  0
  1 35  1  6  0  0  0
  1  4  1  0  0  0  0
  1  2  1  0  0  0  0
  2  5  1  0  0  0  0
  2 10  1  1  0  0  0
  3  5  1  0  0  0  0
  3  6  1  1  0  0  0
  4  3  1  0  0  0  0
  6  9  2  0  0  0  0
  6  7  1  0  0  0  0
  8  6  2  0  0  0  0
 10 22  1  6  0  0  0
 10 11  1  0  0  0  0
 11 14  1  0  0  0  0
 12 16  1  0  0  0  0
 13 18  2  0  0  0  0
 14 20  2  0  0  0  0
 14 21  1  0  0  0  0
 16 17  2  0  0  0  0
 17 15  1  0  0  0  0
 18 17  1  0  0  0  0
 19 12  1  0  0  0  0
 20 19  1  0  0  0  0
 21 13  1  0  0  0  0
 21 12  2  0  0  0  0
 22 23  1  0  0  0  0
 25 23  1  0  0  0  0
 25 24  2  0  0  0  0
 26 29  1  0  0  0  0
 27 26  1  0  0  0  0
 27 29  1  0  0  0  0
 28 26  2  0  0  0  0
 29 25  1  1  0  0  0
 30 32  1  0  0  0  0
 31 30  1  0  0  0  0
 31 33  1  0  0  0  0
 32 34  1  0  0  0  0
 33 34  1  0  0  0  0
 34 27  1  0  0  0  0
 36 35  1  0  0  0  0
 37 38  1  0  0  0  0
 37 36  1  0  0  0  0
 40 39  1  6  0  0  0
 40 38  1  0  0  0  0
 42 41  1  6  0  0  0
 42 48  1  0  0  0  0
 42 44  1  0  0  0  0
 42 45  1  0  0  0  0
 44 40  1  6  0  0  0
 44 45  1  0  0  0  0
 45 43  1  1  0  0  0
 47 48  1  0  0  0  0
 47 46  2  0  0  0  0
 49 47  1  0  0  0  0
 50 49  2  0  0  0  0
 50 51  1  0  0  0  0
 52 57  1  0  0  0  0
 53 55  1  0  0  0  0
 54 51  1  6  0  0  0
 54 56  1  0  0  0  0
 54 53  1  0  0  0  0
 55 57  1  0  0  0  0
 56 58  1  6  0  0  0
 56 52  1  0  0  0  0
 58 54  1  0  0  0  0
M  END
>  <MODEL>
2

>  <REMARK>
 VINA RESULT:      -7.1      1.604      2.432
  Name = 
  19 active torsions:
  status: ('A' for Active; 'I' for Inactive)
    1  A    between atoms: C_3  and  C_18
    2  A    between atoms: C_4  and  C_47
    3  A    between atoms: N_5  and  C_46
    4  A    between atoms: C_7  and  N_28
    5  A    between atoms: C_12  and  C_25
    6  A    between atoms: O_13  and  C_39
    7  A    between atoms: O_13  and  C_41
    8  A    between atoms: C_15  and  C_42
    9  A    between atoms: C_17  and  S_19
   10  A    between atoms: C_18  and  C_35
   11  A    between atoms: C_22  and  C_34
   12  A    between atoms: C_22  and  C_35
   13  A    between atoms: C_23  and  C_26
   14  A    between atoms: C_26  and  C_53
   15  A    between atoms: C_34  and  C_58
   16  A    between atoms: C_39  and  C_47
   17  A    between atoms: C_41  and  CA_55
   18  A    between atoms: C_42  and  C_47
   19  A    between atoms: C_45  and  C_58
                            x       y       z     vdW  Elec       q    Type
                         _______ _______ _______ _____ _____    ______ ____

>  <TORSDO>
F 19

$$$$
=
 OpenBabel11062418013D

 58 65  0  0  1  0  0  0  0  0999 V2000
  186.2080  177.1410  137.2270 C   0  0  2  0  0  3  0  0  0  0  0  0
  184.8800  176.8840  136.5250 C   0  0  2  0  0  3  0  0  0  0  0  0
  184.5830  178.6790  138.1370 C   0  0  1  0  0  3  0  0  0  0  0  0
  185.8740  177.9590  138.4610 C   0  0  0  0  0  2  0  0  0  0  0  0
  183.8330  177.7680  137.1850 C   0  0  0  0  0  2  0  0  0  0  0  0
  183.6270  178.9510  139.6180 S   0  0  0  0  0  0  0  0  0  0  0  0
  183.0210  177.3930  140.2270 C   0  0  0  0  0  1  0  0  0  0  0  0
  182.4660  179.8560  139.3390 O   0  0  0  0  0  0  0  0  0  0  0  0
  184.4940  179.5860  140.6720 O   0  0  0  0  0  0  0  0  0  0  0  0
  184.4630  175.3990  136.5460 C   0  0  2  0  0  3  0  0  0  0  0  0
  185.1890  174.5920  135.4770 C   0  0  0  0  0  2  0  0  0  0  0  0
  188.3630  173.2880  136.6820 C   0  0  0  0  0  0  0  0  0  0  0  0
  188.3210  174.8740  134.8640 C   0  0  0  0  0  3  0  0  0  0  0  0
  186.3400  173.8370  136.0500 C   0  0  0  0  0  0  0  0  0  0  0  0
  191.9320  174.1230  135.8150 C   0  0  0  0  0  1  0  0  0  0  0  0
  189.7550  173.2810  136.7230 C   0  0  0  0  0  3  0  0  0  0  0  0
  190.4460  174.0930  135.8030 C   0  0  0  0  0  0  0  0  0  0  0  0
  189.7310  174.8790  134.8750 C   0  0  0  0  0  3  0  0  0  0  0  0
  187.5350  172.6240  137.4510 O   0  0  0  0  0  0  0  0  0  0  0  0
  186.2970  172.9420  137.1120 C   0  0  0  0  0  3  0  0  0  0  0  0
  187.6750  174.0580  135.7910 C   0  0  0  0  0  0  0  0  0  0  0  0
  182.9630  175.2750  136.3120 C   0  0  0  0  0  2  0  0  0  0  0  0
  182.3170  174.7720  137.4730 O   0  0  0  0  0  0  0  0  0  0  0  0
  181.6610  172.6630  136.8650 O   0  0  0  0  0  0  0  0  0  0  0  0
  181.3490  173.7700  137.3910 C   0  0  0  0  0  0  0  0  0  0  0  0
  179.9400  174.6220  139.1360 C   0  0  0  0  0  0  0  0  0  0  0  0
  179.6400  175.3870  137.8420 N   0  0  0  0  0  0  0  0  0  0  0  0
  180.0810  174.5810  140.3870 O   0  0  0  0  0  0  0  0  0  0  0  0
  179.9490  174.0280  137.8790 C   0  0  1  0  0  3  0  0  0  0  0  0
  180.2200  178.7160  136.4950 C   0  0  0  0  0  2  0  0  0  0  0  0
  180.0960  177.8700  135.2380 C   0  0  0  0  0  2  0  0  0  0  0  0
  180.1460  177.7510  137.6560 C   0  0  0  0  0  2  0  0  0  0  0  0
  179.6200  176.4940  135.6750 C   0  0  0  0  0  2  0  0  0  0  0  0
  179.2960  176.6150  137.1450 C   0  0  0  0  0  3  0  0  0  0  0  0
  187.1150  177.9410  136.3030 C   0  0  0  0  0  2  0  0  0  0  0  0
  188.2300  178.6170  137.0800 C   0  0  0  0  0  2  0  0  0  0  0  0
  189.4390  177.7020  137.1850 C   0  0  0  0  0  2  0  0  0  0  0  0
  189.1050  176.5630  138.1250 C   0  0  0  0  0  2  0  0  0  0  0  0
  191.5360  176.5330  138.7540 C   0  0  0  0  0  1  0  0  0  0  0  0
  190.1070  176.4770  139.2800 C   0  0  1  0  0  3  0  0  0  0  0  0
  190.7620  176.1370  141.9410 O   0  0  0  0  0  1  0  0  0  0  0  0
  190.1820  177.3690  141.6490 C   0  0  1  0  0  0  0  0  0  0  0  0
  188.0910  178.5350  141.5070 O   0  0  0  0  0  1  0  0  0  0  0  0
  189.8850  177.6730  140.1940 C   0  0  2  0  0  3  0  0  0  0  0  0
  188.7450  177.3540  141.1680 C   0  0  1  0  0  3  0  0  0  0  0  0
  191.0290  179.6210  144.4240 O   0  0  0  0  0  0  0  0  0  0  0  0
  190.6990  178.5470  143.8500 C   0  0  0  0  0  0  0  0  0  0  0  0
  190.6350  178.5270  142.4200 N   0  0  0  0  0  2  0  0  0  0  0  0
  190.3700  177.3400  144.6360 C   0  0  0  0  0  3  0  0  0  0  0  0
  189.2450  177.1210  145.3270 C   0  0  0  0  0  3  0  0  0  0  0  0
  188.1190  178.0990  145.4170 C   0  0  0  0  0  2  0  0  0  0  0  0
  186.1100  179.6820  146.0850 O   0  0  0  0  0  0  0  0  0  0  0  0
  185.8390  176.9880  145.4650 C   0  0  0  0  0  2  0  0  0  0  0  0
  186.9870  177.5520  146.2920 C   0  0  2  0  0  0  0  0  0  0  0  0
  185.3940  177.9910  144.4610 N   0  0  0  0  0  2  0  0  0  0  0  0
  186.0360  178.5850  146.9330 C   0  0  1  0  0  3  0  0  0  0  0  0
  185.1870  179.3570  145.0400 C   0  0  0  0  0  2  0  0  0  0  0  0
  187.1940  178.0960  147.7000 C   0  0  0  0  0  2  0  0  0  0  0  0
  1 35  1  6  0  0  0
  1  4  1  0  0  0  0
  2 10  1  1  0  0  0
  2  5  1  0  0  0  0
  2  1  1  0  0  0  0
  3  4  1  0  0  0  0
  3  6  1  1  0  0  0
  5  3  1  0  0  0  0
  6  7  1  0  0  0  0
  6  9  2  0  0  0  0
  8  6  2  0  0  0  0
 10 11  1  6  0  0  0
 11 14  1  0  0  0  0
 12 16  1  0  0  0  0
 12 19  1  0  0  0  0
 13 18  2  0  0  0  0
 13 21  1  0  0  0  0
 14 20  2  0  0  0  0
 17 15  1  0  0  0  0
 17 16  2  0  0  0  0
 18 17  1  0  0  0  0
 20 19  1  0  0  0  0
 21 14  1  0  0  0  0
 21 12  2  0  0  0  0
 22 10  1  0  0  0  0
 22 23  1  0  0  0  0
 24 25  2  0  0  0  0
 25 23  1  0  0  0  0
 26 28  2  0  0  0  0
 27 29  1  0  0  0  0
 27 26  1  0  0  0  0
 29 25  1  6  0  0  0
 29 26  1  0  0  0  0
 30 32  1  0  0  0  0
 31 33  1  0  0  0  0
 31 30  1  0  0  0  0
 33 34  1  0  0  0  0
 34 32  1  0  0  0  0
 34 27  1  0  0  0  0
 35 36  1  0  0  0  0
 36 37  1  0  0  0  0
 37 38  1  0  0  0  0
 38 40  1  0  0  0  0
 40 39  1  6  0  0  0
 42 41  1  1  0  0  0
 42 48  1  0  0  0  0
 44 40  1  6  0  0  0
 44 45  1  0  0  0  0
 44 42  1  0  0  0  0
 45 43  1  1  0  0  0
 45 42  1  0  0  0  0
 47 46  2  0  0  0  0
 47 49  1  0  0  0  0
 48 47  1  0  0  0  0
 49 50  2  0  0  0  0
 50 51  1  0  0  0  0
 52 56  1  0  0  0  0
 53 54  1  0  0  0  0
 54 51  1  6  0  0  0
 54 56  1  0  0  0  0
 54 58  1  0  0  0  0
 55 57  1  0  0  0  0
 55 53  1  0  0  0  0
 56 58  1  1  0  0  0
 57 52  1  0  0  0  0
M  END
>  <MODEL>
3

>  <REMARK>
 VINA RESULT:      -7.0      3.589      9.016
  Name = 
  19 active torsions:
  status: ('A' for Active; 'I' for Inactive)
    1  A    between atoms: C_3  and  C_18
    2  A    between atoms: C_4  and  C_47
    3  A    between atoms: N_5  and  C_46
    4  A    between atoms: C_7  and  N_28
    5  A    between atoms: C_12  and  C_25
    6  A    between atoms: O_13  and  C_39
    7  A    between atoms: O_13  and  C_41
    8  A    between atoms: C_15  and  C_42
    9  A    between atoms: C_17  and  S_19
   10  A    between atoms: C_18  and  C_35
   11  A    between atoms: C_22  and  C_34
   12  A    between atoms: C_22  and  C_35
   13  A    between atoms: C_23  and  C_26
   14  A    between atoms: C_26  and  C_53
   15  A    between atoms: C_34  and  C_58
   16  A    between atoms: C_39  and  C_47
   17  A    between atoms: C_41  and  CA_55
   18  A    between atoms: C_42  and  C_47
   19  A    between atoms: C_45  and  C_58
                            x       y       z     vdW  Elec       q    Type
                         _______ _______ _______ _____ _____    ______ ____

>  <TORSDO>
F 19

$$$$
=
 OpenBabel11062418013D

 58 65  0  0  1  0  0  0  0  0999 V2000
  183.0750  176.9860  135.7610 C   0  0  2  0  0  3  0  0  0  0  0  0
  183.2330  176.7420  137.2570 C   0  0  2  0  0  3  0  0  0  0  0  0
  182.6310  174.6490  136.1780 C   0  0  1  0  0  3  0  0  0  0  0  0
  182.3290  175.7800  135.2190 C   0  0  0  0  0  2  0  0  0  0  0  0
  182.8340  175.3010  137.5310 C   0  0  0  0  0  2  0  0  0  0  0  0
  181.2700  173.4980  136.2390 S   0  0  0  0  0  0  0  0  0  0  0  0
  181.8900  171.8640  136.5690 C   0  0  0  0  0  1  0  0  0  0  0  0
  180.5260  173.4890  134.9390 O   0  0  0  0  0  0  0  0  0  0  0  0
  180.3200  173.8940  137.3370 O   0  0  0  0  0  0  0  0  0  0  0  0
  182.4190  177.7290  138.1190 C   0  0  2  0  0  3  0  0  0  0  0  0
  181.3400  177.0170  138.9260 C   0  0  0  0  0  2  0  0  0  0  0  0
  181.8630  178.4500  142.2280 C   0  0  0  0  0  0  0  0  0  0  0  0
  183.7540  177.7680  140.8940 C   0  0  0  0  0  3  0  0  0  0  0  0
  181.2990  177.5060  140.3340 C   0  0  0  0  0  0  0  0  0  0  0  0
  184.9860  179.4240  144.0950 C   0  0  0  0  0  1  0  0  0  0  0  0
  182.6800  178.9690  143.2290 C   0  0  0  0  0  3  0  0  0  0  0  0
  184.0740  178.8780  143.0550 C   0  0  0  0  0  0  0  0  0  0  0  0
  184.6060  178.2740  141.8970 C   0  0  0  0  0  3  0  0  0  0  0  0
  180.5530  178.4440  142.1840 O   0  0  0  0  0  0  0  0  0  0  0  0
  180.1700  177.8960  141.0440 C   0  0  0  0  0  3  0  0  0  0  0  0
  182.3810  177.8770  141.1030 C   0  0  0  0  0  0  0  0  0  0  0  0
  181.7510  178.7710  137.2300 C   0  0  0  0  0  2  0  0  0  0  0  0
  180.5280  179.2070  137.8070 O   0  0  0  0  0  0  0  0  0  0  0  0
  179.5110  180.0640  135.9410 O   0  0  0  0  0  0  0  0  0  0  0  0
  179.7300  180.1660  137.1820 C   0  0  0  0  0  0  0  0  0  0  0  0
  179.8220  181.4660  139.1970 C   0  0  0  0  0  0  0  0  0  0  0  0
  180.0850  182.3890  138.0030 N   0  0  0  0  0  0  0  0  0  0  0  0
  180.0420  181.1080  140.3850 O   0  0  0  0  0  0  0  0  0  0  0  0
  179.1830  181.3260  137.9710 C   0  0  1  0  0  3  0  0  0  0  0  0
  180.8310  184.8140  135.3970 C   0  0  0  0  0  2  0  0  0  0  0  0
  180.1860  185.6750  136.4710 C   0  0  0  0  0  2  0  0  0  0  0  0
  180.7460  183.3910  135.8960 C   0  0  0  0  0  2  0  0  0  0  0  0
  180.0410  184.8040  137.7090 C   0  0  0  0  0  2  0  0  0  0  0  0
  180.7710  183.5190  137.3990 C   0  0  0  0  0  3  0  0  0  0  0  0
  184.4530  177.0740  135.1210 C   0  0  0  0  0  2  0  0  0  0  0  0
  185.5500  176.9370  136.1610 C   0  0  0  0  0  2  0  0  0  0  0  0
  186.7430  177.8060  135.7980 C   0  0  0  0  0  2  0  0  0  0  0  0
  188.0040  177.1360  136.3000 C   0  0  0  0  0  2  0  0  0  0  0  0
  187.2020  177.9220  138.5460 C   0  0  0  0  0  1  0  0  0  0  0  0
  188.4240  177.6840  137.6670 C   0  0  1  0  0  3  0  0  0  0  0  0
  189.8960  178.5470  139.8380 O   0  0  0  0  0  1  0  0  0  0  0  0
  190.1490  177.2290  139.4650 C   0  0  1  0  0  0  0  0  0  0  0  0
  191.5380  175.8440  138.0850 O   0  0  0  0  0  1  0  0  0  0  0  0
  189.3080  176.6480  138.3460 C   0  0  2  0  0  3  0  0  0  0  0  0
  190.7780  177.0100  138.1040 C   0  0  1  0  0  3  0  0  0  0  0  0
  190.1680  175.4160  142.6580 O   0  0  0  0  0  0  0  0  0  0  0  0
  189.7660  176.2230  141.7760 C   0  0  0  0  0  0  0  0  0  0  0  0
  190.4670  176.2760  140.5290 N   0  0  0  0  0  2  0  0  0  0  0  0
  188.6080  177.1040  142.0280 C   0  0  0  0  0  3  0  0  0  0  0  0
  188.0760  177.3970  143.2210 C   0  0  0  0  0  3  0  0  0  0  0  0
  188.5830  176.8540  144.5160 C   0  0  0  0  0  2  0  0  0  0  0  0
  190.3200  176.3450  146.4440 O   0  0  0  0  0  0  0  0  0  0  0  0
  190.2850  178.6850  144.9480 C   0  0  0  0  0  2  0  0  0  0  0  0
  189.0290  177.9850  145.4490 C   0  0  2  0  0  0  0  0  0  0  0  0
  191.3470  177.6830  144.6650 N   0  0  0  0  0  2  0  0  0  0  0  0
  189.7560  177.5770  146.7470 C   0  0  1  0  0  3  0  0  0  0  0  0
  191.5360  176.6910  145.7730 C   0  0  0  0  0  2  0  0  0  0  0  0
  188.3000  177.7980  146.7740 C   0  0  0  0  0  2  0  0  0  0  0  0
  1 35  1  6  0  0  0
  1  2  1  0  0  0  0
  2  5  1  0  0  0  0
  2 10  1  1  0  0  0
  3  6  1  1  0  0  0
  3  5  1  0  0  0  0
  4  1  1  0  0  0  0
  4  3  1  0  0  0  0
  6  7  1  0  0  0  0
  6  9  2  0  0  0  0
  8  6  2  0  0  0  0
 10 22  1  6  0  0  0
 10 11  1  0  0  0  0
 11 14  1  0  0  0  0
 12 16  1  0  0  0  0
 13 21  1  0  0  0  0
 13 18  2  0  0  0  0
 14 20  2  0  0  0  0
 14 21  1  0  0  0  0
 17 16  2  0  0  0  0
 17 15  1  0  0  0  0
 18 17  1  0  0  0  0
 19 12  1  0  0  0  0
 20 19  1  0  0  0  0
 21 12  2  0  0  0  0
 22 23  1  0  0  0  0
 24 25  2  0  0  0  0
 25 23  1  0  0  0  0
 26 28  2  0  0  0  0
 27 26  1  0  0  0  0
 29 25  1  6  0  0  0
 29 27  1  0  0  0  0
 29 26  1  0  0  0  0
 30 32  1  0  0  0  0
 30 31  1  0  0  0  0
 31 33  1  0  0  0  0
 32 34  1  0  0  0  0
 34 33  1  0  0  0  0
 34 27  1  0  0  0  0
 35 36  1  0  0  0  0
 37 36  1  0  0  0  0
 37 38  1  0  0  0  0
 38 40  1  0  0  0  0
 40 39  1  1  0  0  0
 42 41  1  1  0  0  0
 42 48  1  0  0  0  0
 44 40  1  6  0  0  0
 44 42  1  0  0  0  0
 45 43  1  1  0  0  0
 45 44  1  0  0  0  0
 45 42  1  0  0  0  0
 47 49  1  0  0  0  0
 47 46  2  0  0  0  0
 48 47  1  0  0  0  0
 49 50  2  0  0  0  0
 50 51  1  0  0  0  0
 52 56  1  0  0  0  0
 53 54  1  0  0  0  0
 54 51  1  6  0  0  0
 54 56  1  0  0  0  0
 54 58  1  0  0  0  0
 55 53  1  0  0  0  0
 55 57  1  0  0  0  0
 56 58  1  1  0  0  0
 57 52  1  0  0  0  0
M  END
>  <MODEL>
4

>  <REMARK>
 VINA RESULT:      -6.9      4.040      7.904
  Name = 
  19 active torsions:
  status: ('A' for Active; 'I' for Inactive)
    1  A    between atoms: C_3  and  C_18
    2  A    between atoms: C_4  and  C_47
    3  A    between atoms: N_5  and  C_46
    4  A    between atoms: C_7  and  N_28
    5  A    between atoms: C_12  and  C_25
    6  A    between atoms: O_13  and  C_39
    7  A    between atoms: O_13  and  C_41
    8  A    between atoms: C_15  and  C_42
    9  A    between atoms: C_17  and  S_19
   10  A    between atoms: C_18  and  C_35
   11  A    between atoms: C_22  and  C_34
   12  A    between atoms: C_22  and  C_35
   13  A    between atoms: C_23  and  C_26
   14  A    between atoms: C_26  and  C_53
   15  A    between atoms: C_34  and  C_58
   16  A    between atoms: C_39  and  C_47
   17  A    between atoms: C_41  and  CA_55
   18  A    between atoms: C_42  and  C_47
   19  A    between atoms: C_45  and  C_58
                            x       y       z     vdW  Elec       q    Type
                         _______ _______ _______ _____ _____    ______ ____

>  <TORSDO>
F 19

$$$$
=
 OpenBabel11062418013D

 58 65  0  0  1  0  0  0  0  0999 V2000
  183.0280  177.9260  140.4940 C   0  0  2  0  0  3  0  0  0  0  0  0
  183.9350  178.2830  139.3220 C   0  0  2  0  0  3  0  0  0  0  0  0
  182.3570  180.0970  139.6780 C   0  0  1  0  0  3  0  0  0  0  0  0
  181.8470  178.8750  140.4100 C   0  0  0  0  0  2  0  0  0  0  0  0
  183.4320  179.5930  138.7360 C   0  0  0  0  0  2  0  0  0  0  0  0
  181.0390  180.8740  138.7600 S   0  0  0  0  0  0  0  0  0  0  0  0
  180.3830  179.7200  137.5760 C   0  0  0  0  0  1  0  0  0  0  0  0
  181.5420  182.0870  138.0400 O   0  0  0  0  0  0  0  0  0  0  0  0
  179.9410  181.2900  139.7010 O   0  0  0  0  0  0  0  0  0  0  0  0
  184.0060  177.1740  138.2530 C   0  0  2  0  0  3  0  0  0  0  0  0
  184.8290  177.6070  137.0450 C   0  0  0  0  0  2  0  0  0  0  0  0
  188.0340  175.8920  137.1840 C   0  0  0  0  0  0  0  0  0  0  0  0
  187.8280  178.1380  138.0400 C   0  0  0  0  0  3  0  0  0  0  0  0
  186.0470  176.7610  136.8820 C   0  0  0  0  0  0  0  0  0  0  0  0
  191.3380  176.8300  138.7300 C   0  0  0  0  0  1  0  0  0  0  0  0
  189.3570  175.7890  137.6040 C   0  0  0  0  0  3  0  0  0  0  0  0
  189.9290  176.8970  138.2580 C   0  0  0  0  0  0  0  0  0  0  0  0
  189.1690  178.0670  138.4670 C   0  0  0  0  0  3  0  0  0  0  0  0
  187.3120  174.9820  136.5760 O   0  0  0  0  0  0  0  0  0  0  0  0
  186.0950  175.4630  136.3910 C   0  0  0  0  0  3  0  0  0  0  0  0
  187.2980  177.0200  137.3990 C   0  0  0  0  0  0  0  0  0  0  0  0
  182.6040  176.8130  137.7800 C   0  0  0  0  0  2  0  0  0  0  0  0
  182.6630  175.8790  136.7120 O   0  0  0  0  0  0  0  0  0  0  0  0
  182.8770  173.6740  137.2990 O   0  0  0  0  0  0  0  0  0  0  0  0
  182.1380  174.5920  136.8400 C   0  0  0  0  0  0  0  0  0  0  0  0
  180.4040  172.9600  136.5480 C   0  0  0  0  0  0  0  0  0  0  0  0
  179.8900  174.0640  137.4790 N   0  0  0  0  0  0  0  0  0  0  0  0
  180.4770  171.7490  136.2070 O   0  0  0  0  0  0  0  0  0  0  0  0
  180.7310  174.3010  136.3920 C   0  0  1  0  0  3  0  0  0  0  0  0
  179.2850  174.8390  140.9810 C   0  0  0  0  0  2  0  0  0  0  0  0
  179.2330  176.2110  140.3270 C   0  0  0  0  0  2  0  0  0  0  0  0
  179.6590  173.8680  139.8850 C   0  0  0  0  0  2  0  0  0  0  0  0
  179.2430  175.9860  138.8240 C   0  0  0  0  0  2  0  0  0  0  0  0
  179.1100  174.4940  138.6270 C   0  0  0  0  0  3  0  0  0  0  0  0
  183.7830  178.1480  141.7960 C   0  0  0  0  0  2  0  0  0  0  0  0
  182.8510  178.6210  142.8970 C   0  0  0  0  0  2  0  0  0  0  0  0
  183.6420  179.0140  144.1340 C   0  0  0  0  0  2  0  0  0  0  0  0
  185.1180  178.9510  143.8060 C   0  0  0  0  0  2  0  0  0  0  0  0
  186.9940  177.3000  144.0540 C   0  0  0  0  0  1  0  0  0  0  0  0
  185.8690  178.0320  144.7750 C   0  0  1  0  0  3  0  0  0  0  0  0
  186.6850  176.7210  147.0640 O   0  0  0  0  0  1  0  0  0  0  0  0
  186.8140  178.1060  147.1240 C   0  0  1  0  0  0  0  0  0  0  0  0
  185.6820  180.1270  147.7470 O   0  0  0  0  0  1  0  0  0  0  0  0
  186.4810  178.8920  145.8710 C   0  0  2  0  0  3  0  0  0  0  0  0
  185.5340  178.9170  147.0750 C   0  0  1  0  0  3  0  0  0  0  0  0
  190.0530  178.4660  148.8150 O   0  0  0  0  0  0  0  0  0  0  0  0
  189.1730  177.9460  148.0760 C   0  0  0  0  0  0  0  0  0  0  0  0
  187.9390  178.6470  147.8860 N   0  0  0  0  0  2  0  0  0  0  0  0
  189.4030  176.6370  147.4330 C   0  0  0  0  0  3  0  0  0  0  0  0
  189.8590  176.4280  146.1920 C   0  0  0  0  0  3  0  0  0  0  0  0
  190.2080  177.5220  145.2370 C   0  0  0  0  0  2  0  0  0  0  0  0
  190.0600  175.8410  143.2020 O   0  0  0  0  0  0  0  0  0  0  0  0
  191.6790  178.0980  143.2520 C   0  0  0  0  0  2  0  0  0  0  0  0
  191.4760  177.1780  144.4490 C   0  0  2  0  0  0  0  0  0  0  0  0
  190.4450  178.1330  142.4230 N   0  0  0  0  0  2  0  0  0  0  0  0
  191.4090  175.9520  143.5140 C   0  0  1  0  0  3  0  0  0  0  0  0
  189.8890  176.7730  142.1290 C   0  0  0  0  0  2  0  0  0  0  0  0
  191.9220  175.7880  144.8850 C   0  0  0  0  0  2  0  0  0  0  0  0
  1 35  1  1  0  0  0
  2 10  1  6  0  0  0
  2  1  1  0  0  0  0
  3  6  1  6  0  0  0
  3  4  1  0  0  0  0
  4  1  1  0  0  0  0
  5  2  1  0  0  0  0
  5  3  1  0  0  0  0
  6  9  2  0  0  0  0
  7  6  1  0  0  0  0
  8  6  2  0  0  0  0
 10 11  1  6  0  0  0
 12 21  2  0  0  0  0
 12 16  1  0  0  0  0
 13 18  2  0  0  0  0
 14 11  1  0  0  0  0
 14 21  1  0  0  0  0
 16 17  2  0  0  0  0
 17 18  1  0  0  0  0
 17 15  1  0  0  0  0
 19 12  1  0  0  0  0
 20 19  1  0  0  0  0
 20 14  2  0  0  0  0
 21 13  1  0  0  0  0
 22 10  1  0  0  0  0
 23 25  1  0  0  0  0
 23 22  1  0  0  0  0
 25 24  2  0  0  0  0
 26 27  1  0  0  0  0
 27 34  1  0  0  0  0
 28 26  2  0  0  0  0
 29 26  1  0  0  0  0
 29 25  1  1  0  0  0
 29 27  1  0  0  0  0
 31 30  1  0  0  0  0
 32 30  1  0  0  0  0
 33 31  1  0  0  0  0
 34 33  1  0  0  0  0
 34 32  1  0  0  0  0
 35 36  1  0  0  0  0
 36 37  1  0  0  0  0
 38 37  1  0  0  0  0
 38 40  1  0  0  0  0
 40 39  1  6  0  0  0
 42 41  1  6  0  0  0
 42 48  1  0  0  0  0
 44 40  1  6  0  0  0
 44 45  1  0  0  0  0
 44 42  1  0  0  0  0
 45 42  1  0  0  0  0
 45 43  1  1  0  0  0
 47 46  2  0  0  0  0
 48 47  1  0  0  0  0
 49 47  1  0  0  0  0
 50 49  2  0  0  0  0
 51 50  1  0  0  0  0
 52 56  1  0  0  0  0
 53 54  1  0  0  0  0
 54 58  1  0  0  0  0
 54 51  1  1  0  0  0
 55 53  1  0  0  0  0
 56 54  1  0  0  0  0
 56 58  1  1  0  0  0
 57 55  1  0  0  0  0
 57 52  1  0  0  0  0
M  END
>  <MODEL>
5

>  <REMARK>
 VINA RESULT:      -6.9      4.229      9.043
  Name = 
  19 active torsions:
  status: ('A' for Active; 'I' for Inactive)
    1  A    between atoms: C_3  and  C_18
    2  A    between atoms: C_4  and  C_47
    3  A    between atoms: N_5  and  C_46
    4  A    between atoms: C_7  and  N_28
    5  A    between atoms: C_12  and  C_25
    6  A    between atoms: O_13  and  C_39
    7  A    between atoms: O_13  and  C_41
    8  A    between atoms: C_15  and  C_42
    9  A    between atoms: C_17  and  S_19
   10  A    between atoms: C_18  and  C_35
   11  A    between atoms: C_22  and  C_34
   12  A    between atoms: C_22  and  C_35
   13  A    between atoms: C_23  and  C_26
   14  A    between atoms: C_26  and  C_53
   15  A    between atoms: C_34  and  C_58
   16  A    between atoms: C_39  and  C_47
   17  A    between atoms: C_41  and  CA_55
   18  A    between atoms: C_42  and  C_47
   19  A    between atoms: C_45  and  C_58
                            x       y       z     vdW  Elec       q    Type
                         _______ _______ _______ _____ _____    ______ ____

>  <TORSDO>
F 19

$$$$
=
 OpenBabel11062418013D

 58 65  0  0  1  0  0  0  0  0999 V2000
  188.3170  177.8340  139.8140 C   0  0  2  0  0  3  0  0  0  0  0  0
  189.6310  178.3130  139.2100 C   0  0  2  0  0  3  0  0  0  0  0  0
  187.9140  178.3530  137.4900 C   0  0  1  0  0  3  0  0  0  0  0  0
  187.4150  177.5040  138.6390 C   0  0  0  0  0  2  0  0  0  0  0  0
  189.4020  178.5230  137.7210 C   0  0  0  0  0  2  0  0  0  0  0  0
  187.6150  177.5390  135.9310 S   0  0  0  0  0  0  0  0  0  0  0  0
  189.1200  177.5030  134.9840 C   0  0  0  0  0  1  0  0  0  0  0  0
  186.5600  178.2630  135.1520 O   0  0  0  0  0  0  0  0  0  0  0  0
  187.1540  176.1280  136.1760 O   0  0  0  0  0  0  0  0  0  0  0  0
  190.8050  177.3480  139.4720 C   0  0  2  0  0  3  0  0  0  0  0  0
  190.4050  175.8960  139.2390 C   0  0  0  0  0  2  0  0  0  0  0  0
  192.2570  174.5240  136.4250 C   0  0  0  0  0  0  0  0  0  0  0  0
  193.4370  175.5430  138.2660 C   0  0  0  0  0  3  0  0  0  0  0  0
  190.9320  175.3860  137.9400 C   0  0  0  0  0  0  0  0  0  0  0  0
  195.9440  174.0750  135.8030 C   0  0  0  0  0  1  0  0  0  0  0  0
  193.4400  174.1390  135.8010 C   0  0  0  0  0  3  0  0  0  0  0  0
  194.6560  174.4720  136.4300 C   0  0  0  0  0  0  0  0  0  0  0  0
  194.6520  175.1760  137.6510 C   0  0  0  0  0  3  0  0  0  0  0  0
  191.0290  174.3040  136.0220 O   0  0  0  0  0  0  0  0  0  0  0  0
  190.1940  174.7950  136.9210 C   0  0  0  0  0  3  0  0  0  0  0  0
  192.2570  175.1950  137.6130 C   0  0  0  0  0  0  0  0  0  0  0  0
  191.2890  177.4930  140.9090 C   0  0  0  0  0  2  0  0  0  0  0  0
  190.9570  176.3380  141.6650 O   0  0  0  0  0  0  0  0  0  0  0  0
  188.9960  176.0490  142.8140 O   0  0  0  0  0  0  0  0  0  0  0  0
  190.2030  176.4250  142.8360 C   0  0  0  0  0  0  0  0  0  0  0  0
  190.6420  178.3820  144.1530 C   0  0  0  0  0  0  0  0  0  0  0  0
  189.8270  177.3950  144.9940 N   0  0  0  0  0  0  0  0  0  0  0  0
  190.9230  179.5570  143.7930 O   0  0  0  0  0  0  0  0  0  0  0  0
  190.8100  177.0050  144.0860 C   0  0  1  0  0  3  0  0  0  0  0  0
  187.9020  177.9640  148.0280 C   0  0  0  0  0  2  0  0  0  0  0  0
  186.8820  178.2440  146.9350 C   0  0  0  0  0  2  0  0  0  0  0  0
  189.2100  177.6960  147.3200 C   0  0  0  0  0  2  0  0  0  0  0  0
  187.5120  177.8120  145.6210 C   0  0  0  0  0  2  0  0  0  0  0  0
  188.8020  177.1180  145.9880 C   0  0  0  0  0  3  0  0  0  0  0  0
  187.7070  178.9580  140.6380 C   0  0  0  0  0  2  0  0  0  0  0  0
  186.9630  178.4130  141.8440 C   0  0  0  0  0  2  0  0  0  0  0  0
  185.7850  179.3070  142.1940 C   0  0  0  0  0  2  0  0  0  0  0  0
  184.5580  178.4400  142.3820 C   0  0  0  0  0  2  0  0  0  0  0  0
  183.8930  178.2740  139.9660 C   0  0  0  0  0  1  0  0  0  0  0  0
  183.4770  178.7660  141.3470 C   0  0  1  0  0  3  0  0  0  0  0  0
  181.1460  179.6130  140.1320 O   0  0  0  0  0  1  0  0  0  0  0  0
  180.9590  178.6350  141.1050 C   0  0  1  0  0  0  0  0  0  0  0  0
  180.5370  178.2880  143.4410 O   0  0  0  0  0  1  0  0  0  0  0  0
  182.1980  178.0450  141.7480 C   0  0  2  0  0  3  0  0  0  0  0  0
  181.3040  179.0110  142.5320 C   0  0  1  0  0  3  0  0  0  0  0  0
  178.9690  175.8240  139.8300 O   0  0  0  0  0  0  0  0  0  0  0  0
  179.9830  176.5540  140.0020 C   0  0  0  0  0  0  0  0  0  0  0  0
  179.8800  177.6690  140.8930 N   0  0  0  0  0  2  0  0  0  0  0  0
  181.2450  176.2750  139.2870 C   0  0  0  0  0  3  0  0  0  0  0  0
  181.5830  176.7100  138.0670 C   0  0  0  0  0  3  0  0  0  0  0  0
  180.7030  177.5630  137.2140 C   0  0  0  0  0  2  0  0  0  0  0  0
  179.7920  178.5020  134.9160 O   0  0  0  0  0  0  0  0  0  0  0  0
  181.1420  180.0280  136.8040 C   0  0  0  0  0  2  0  0  0  0  0  0
  181.5270  178.6000  136.4420 C   0  0  2  0  0  0  0  0  0  0  0  0
  179.6710  180.2080  136.6730 N   0  0  0  0  0  2  0  0  0  0  0  0
  181.1340  178.8520  134.9710 C   0  0  1  0  0  3  0  0  0  0  0  0
  179.1220  179.6780  135.3830 C   0  0  0  0  0  2  0  0  0  0  0  0
  182.1950  177.8780  135.2790 C   0  0  0  0  0  2  0  0  0  0  0  0
  1 35  1  6  0  0  0
  2 10  1  6  0  0  0
  2  1  1  0  0  0  0
  3  6  1  6  0  0  0
  3  5  1  0  0  0  0
  3  4  1  0  0  0  0
  4  1  1  0  0  0  0
  5  2  1  0  0  0  0
  6  9  2  0  0  0  0
  7  6  1  0  0  0  0
  8  6  2  0  0  0  0
 10 11  1  1  0  0  0
 10 22  1  0  0  0  0
 12 21  1  0  0  0  0
 14 11  1  0  0  0  0
 15 17  1  0  0  0  0
 16 12  2  0  0  0  0
 16 17  1  0  0  0  0
 17 18  2  0  0  0  0
 18 13  1  0  0  0  0
 19 12  1  0  0  0  0
 19 20  1  0  0  0  0
 20 14  2  0  0  0  0
 21 14  1  0  0  0  0
 21 13  2  0  0  0  0
 22 23  1  0  0  0  0
 23 25  1  0  0  0  0
 24 25  2  0  0  0  0
 26 27  1  0  0  0  0
 27 34  1  0  0  0  0
 28 26  2  0  0  0  0
 29 25  1  6  0  0  0
 29 26  1  0  0  0  0
 29 27  1  0  0  0  0
 31 30  1  0  0  0  0
 32 30  1  0  0  0  0
 33 34  1  0  0  0  0
 33 31  1  0  0  0  0
 34 32  1  0  0  0  0
 35 36  1  0  0  0  0
 36 37  1  0  0  0  0
 37 38  1  0  0  0  0
 40 39  1  6  0  0  0
 40 38  1  0  0  0  0
 42 41  1  6  0  0  0
 42 44  1  0  0  0  0
 42 45  1  0  0  0  0
 44 40  1  6  0  0  0
 44 45  1  0  0  0  0
 45 43  1  1  0  0  0
 46 47  2  0  0  0  0
 47 48  1  0  0  0  0
 48 42  1  0  0  0  0
 49 47  1  0  0  0  0
 50 49  2  0  0  0  0
 51 50  1  0  0  0  0
 52 56  1  0  0  0  0
 52 57  1  0  0  0  0
 54 53  1  0  0  0  0
 54 51  1  1  0  0  0
 55 53  1  0  0  0  0
 56 58  1  6  0  0  0
 56 54  1  0  0  0  0
 57 55  1  0  0  0  0
 58 54  1  0  0  0  0
M  END
>  <MODEL>
6

>  <REMARK>
 VINA RESULT:      -6.8      3.033     11.327
  Name = 
  19 active torsions:
  status: ('A' for Active; 'I' for Inactive)
    1  A    between atoms: C_3  and  C_18
    2  A    between atoms: C_4  and  C_47
    3  A    between atoms: N_5  and  C_46
    4  A    between atoms: C_7  and  N_28
    5  A    between atoms: C_12  and  C_25
    6  A    between atoms: O_13  and  C_39
    7  A    between atoms: O_13  and  C_41
    8  A    between atoms: C_15  and  C_42
    9  A    between atoms: C_17  and  S_19
   10  A    between atoms: C_18  and  C_35
   11  A    between atoms: C_22  and  C_34
   12  A    between atoms: C_22  and  C_35
   13  A    between atoms: C_23  and  C_26
   14  A    between atoms: C_26  and  C_53
   15  A    between atoms: C_34  and  C_58
   16  A    between atoms: C_39  and  C_47
   17  A    between atoms: C_41  and  CA_55
   18  A    between atoms: C_42  and  C_47
   19  A    between atoms: C_45  and  C_58
                            x       y       z     vdW  Elec       q    Type
                         _______ _______ _______ _____ _____    ______ ____

>  <TORSDO>
F 19

$$$$
=
 OpenBabel11062418013D

 58 65  0  0  1  0  0  0  0  0999 V2000
  187.7290  177.5960  140.3700 C   0  0  2  0  0  3  0  0  0  0  0  0
  187.4850  178.9920  140.9300 C   0  0  2  0  0  3  0  0  0  0  0  0
  189.7130  178.2650  141.5750 C   0  0  1  0  0  3  0  0  0  0  0  0
  188.9310  177.0520  141.1200 C   0  0  0  0  0  2  0  0  0  0  0  0
  188.6860  179.3590  141.7880 C   0  0  0  0  0  2  0  0  0  0  0  0
  190.5790  177.9200  143.0950 S   0  0  0  0  0  0  0  0  0  0  0  0
  190.2940  176.2290  143.5680 C   0  0  0  0  0  1  0  0  0  0  0  0
  190.1040  178.8240  144.1900 O   0  0  0  0  0  0  0  0  0  0  0  0
  192.0560  178.1310  142.8970 O   0  0  0  0  0  0  0  0  0  0  0  0
  186.1670  179.1030  141.7230 C   0  0  2  0  0  3  0  0  0  0  0  0
  185.8990  177.8530  142.5520 C   0  0  0  0  0  2  0  0  0  0  0  0
  185.8220  178.6070  146.1090 C   0  0  0  0  0  0  0  0  0  0  0  0
  187.5720  177.2120  145.2080 C   0  0  0  0  0  3  0  0  0  0  0  0
  185.5930  178.1930  143.9710 C   0  0  0  0  0  0  0  0  0  0  0  0
  188.2180  177.8320  148.9100 C   0  0  0  0  0  1  0  0  0  0  0  0
  186.3860  178.5960  147.3820 C   0  0  0  0  0  3  0  0  0  0  0  0
  187.5760  177.8670  147.5690 C   0  0  0  0  0  0  0  0  0  0  0  0
  188.1600  177.1730  146.4890 C   0  0  0  0  0  3  0  0  0  0  0  0
  184.7360  179.2280  145.7180 O   0  0  0  0  0  0  0  0  0  0  0  0
  184.5710  179.0170  144.4240 C   0  0  0  0  0  3  0  0  0  0  0  0
  186.3960  177.9450  145.0630 C   0  0  0  0  0  0  0  0  0  0  0  0
  184.9990  179.3110  140.7680 C   0  0  0  0  0  2  0  0  0  0  0  0
  184.0160  178.3030  140.9570 O   0  0  0  0  0  0  0  0  0  0  0  0
  183.7500  176.8260  139.2250 O   0  0  0  0  0  0  0  0  0  0  0  0
  183.2780  177.7960  139.8860 C   0  0  0  0  0  0  0  0  0  0  0  0
  180.9220  177.5160  139.5320 C   0  0  0  0  0  0  0  0  0  0  0  0
  181.1360  178.5870  140.6070 N   0  0  0  0  0  0  0  0  0  0  0  0
  180.2820  176.5400  139.0580 O   0  0  0  0  0  0  0  0  0  0  0  0
  181.9690  178.4290  139.5010 C   0  0  1  0  0  3  0  0  0  0  0  0
  178.9870  179.2710  143.4620 C   0  0  0  0  0  2  0  0  0  0  0  0
  180.1880  178.5970  144.1080 C   0  0  0  0  0  2  0  0  0  0  0  0
  179.2360  179.2260  141.9720 C   0  0  0  0  0  2  0  0  0  0  0  0
  181.2570  178.4740  143.0350 C   0  0  0  0  0  2  0  0  0  0  0  0
  180.7390  179.2420  141.8430 C   0  0  0  0  0  3  0  0  0  0  0  0
  188.0480  177.7030  138.8860 C   0  0  0  0  0  2  0  0  0  0  0  0
  186.7930  177.9620  138.0720 C   0  0  0  0  0  2  0  0  0  0  0  0
  187.1180  178.0040  136.5880 C   0  0  0  0  0  2  0  0  0  0  0  0
  187.2290  176.5850  136.0740 C   0  0  0  0  0  2  0  0  0  0  0  0
  189.0510  177.5030  134.6100 C   0  0  0  0  0  1  0  0  0  0  0  0
  188.6050  176.3170  135.4570 C   0  0  1  0  0  3  0  0  0  0  0  0
  191.1350  175.4750  134.7390 O   0  0  0  0  0  1  0  0  0  0  0  0
  190.9370  175.5790  136.1130 C   0  0  1  0  0  0  0  0  0  0  0  0
  190.2390  174.3660  138.0610 O   0  0  0  0  0  1  0  0  0  0  0  0
  189.6070  176.1300  136.5860 C   0  0  2  0  0  3  0  0  0  0  0  0
  189.9240  174.6380  136.7330 C   0  0  1  0  0  3  0  0  0  0  0  0
  194.1180  175.5780  137.9490 O   0  0  0  0  0  0  0  0  0  0  0  0
  193.2210  175.1610  137.1660 C   0  0  0  0  0  0  0  0  0  0  0  0
  192.0790  175.9910  136.9300 N   0  0  0  0  0  2  0  0  0  0  0  0
  193.3380  173.8380  136.5190 C   0  0  0  0  0  3  0  0  0  0  0  0
  194.4710  173.2310  136.1470 C   0  0  0  0  0  3  0  0  0  0  0  0
  195.8310  173.8230  136.3270 C   0  0  0  0  0  2  0  0  0  0  0  0
  198.3480  173.0670  136.0340 O   0  0  0  0  0  0  0  0  0  0  0  0
  197.3090  174.1820  138.3570 C   0  0  0  0  0  2  0  0  0  0  0  0
  196.5640  173.1660  137.5020 C   0  0  2  0  0  0  0  0  0  0  0  0
  198.1830  175.0260  137.4990 N   0  0  0  0  0  2  0  0  0  0  0  0
  197.8870  172.4400  137.1840 C   0  0  1  0  0  3  0  0  0  0  0  0
  199.0110  174.2330  136.5340 C   0  0  0  0  0  2  0  0  0  0  0  0
  196.6320  171.6710  137.2190 C   0  0  0  0  0  2  0  0  0  0  0  0
  1 35  1  6  0  0  0
  1  2  1  0  0  0  0
  1  4  1  0  0  0  0
  2 10  1  1  0  0  0
  2  5  1  0  0  0  0
  3  5  1  0  0  0  0
  3  6  1  1  0  0  0
  4  3  1  0  0  0  0
  6  7  1  0  0  0  0
  6  8  2  0  0  0  0
  9  6  2  0  0  0  0
 10 22  1  6  0  0  0
 10 11  1  0  0  0  0
 11 14  1  0  0  0  0
 12 16  1  0  0  0  0
 13 18  2  0  0  0  0
 14 20  2  0  0  0  0
 14 21  1  0  0  0  0
 16 17  2  0  0  0  0
 17 15  1  0  0  0  0
 18 17  1  0  0  0  0
 19 12  1  0  0  0  0
 20 19  1  0  0  0  0
 21 13  1  0  0  0  0
 21 12  2  0  0  0  0
 22 23  1  0  0  0  0
 24 25  2  0  0  0  0
 25 23  1  0  0  0  0
 26 27  1  0  0  0  0
 27 34  1  0  0  0  0
 28 26  2  0  0  0  0
 29 26  1  0  0  0  0
 29 25  1  1  0  0  0
 29 27  1  0  0  0  0
 30 31  1  0  0  0  0
 32 30  1  0  0  0  0
 33 31  1  0  0  0  0
 34 32  1  0  0  0  0
 34 33  1  0  0  0  0
 36 35  1  0  0  0  0
 37 36  1  0  0  0  0
 38 37  1  0  0  0  0
 40 39  1  6  0  0  0
 40 38  1  0  0  0  0
 42 41  1  6  0  0  0
 42 44  1  0  0  0  0
 42 45  1  0  0  0  0
 42 48  1  0  0  0  0
 44 40  1  6  0  0  0
 44 45  1  0  0  0  0
 45 43  1  1  0  0  0
 47 46  2  0  0  0  0
 48 47  1  0  0  0  0
 49 47  1  0  0  0  0
 50 51  1  0  0  0  0
 50 49  2  0  0  0  0
 52 57  1  0  0  0  0
 52 56  1  0  0  0  0
 54 51  1  6  0  0  0
 54 53  1  0  0  0  0
 55 53  1  0  0  0  0
 56 58  1  6  0  0  0
 56 54  1  0  0  0  0
 57 55  1  0  0  0  0
 58 54  1  0  0  0  0
M  END
>  <MODEL>
7

>  <REMARK>
 VINA RESULT:      -6.7      1.632      2.461
  Name = 
  19 active torsions:
  status: ('A' for Active; 'I' for Inactive)
    1  A    between atoms: C_3  and  C_18
    2  A    between atoms: C_4  and  C_47
    3  A    between atoms: N_5  and  C_46
    4  A    between atoms: C_7  and  N_28
    5  A    between atoms: C_12  and  C_25
    6  A    between atoms: O_13  and  C_39
    7  A    between atoms: O_13  and  C_41
    8  A    between atoms: C_15  and  C_42
    9  A    between atoms: C_17  and  S_19
   10  A    between atoms: C_18  and  C_35
   11  A    between atoms: C_22  and  C_34
   12  A    between atoms: C_22  and  C_35
   13  A    between atoms: C_23  and  C_26
   14  A    between atoms: C_26  and  C_53
   15  A    between atoms: C_34  and  C_58
   16  A    between atoms: C_39  and  C_47
   17  A    between atoms: C_41  and  CA_55
   18  A    between atoms: C_42  and  C_47
   19  A    between atoms: C_45  and  C_58
                            x       y       z     vdW  Elec       q    Type
                         _______ _______ _______ _____ _____    ______ ____

>  <TORSDO>
F 19

$$$$
=
 OpenBabel11062418013D

 58 65  0  0  1  0  0  0  0  0999 V2000
  183.3650  178.2460  140.8840 C   0  0  2  0  0  3  0  0  0  0  0  0
  182.6490  179.0780  139.8270 C   0  0  2  0  0  3  0  0  0  0  0  0
  181.5380  179.3970  141.9660 C   0  0  1  0  0  3  0  0  0  0  0  0
  182.4160  178.1690  142.0660 C   0  0  0  0  0  2  0  0  0  0  0  0
  181.4290  179.7040  140.4850 C   0  0  0  0  0  2  0  0  0  0  0  0
  179.9250  179.0740  142.6540 S   0  0  0  0  0  0  0  0  0  0  0  0
  180.0990  178.1360  144.1560 C   0  0  0  0  0  1  0  0  0  0  0  0
  179.0830  178.3000  141.6860 O   0  0  0  0  0  0  0  0  0  0  0  0
  179.2350  180.3750  142.9640 O   0  0  0  0  0  0  0  0  0  0  0  0
  182.2620  178.2630  138.5760 C   0  0  2  0  0  3  0  0  0  0  0  0
  180.8150  178.5100  138.1660 C   0  0  0  0  0  2  0  0  0  0  0  0
  180.8220  180.8890  135.4150 C   0  0  0  0  0  0  0  0  0  0  0  0
  180.5120  181.6620  137.6780 C   0  0  0  0  0  3  0  0  0  0  0  0
  180.7330  179.2690  136.8850 C   0  0  0  0  0  0  0  0  0  0  0  0
  180.6910  184.6520  135.3260 C   0  0  0  0  0  1  0  0  0  0  0  0
  180.8350  182.1860  134.9090 C   0  0  0  0  0  3  0  0  0  0  0  0
  180.6770  183.2500  135.8200 C   0  0  0  0  0  0  0  0  0  0  0  0
  180.5090  182.9860  137.1950 C   0  0  0  0  0  3  0  0  0  0  0  0
  180.9660  179.7680  134.7500 O   0  0  0  0  0  0  0  0  0  0  0  0
  180.9350  178.7620  135.6070 C   0  0  0  0  0  3  0  0  0  0  0  0
  180.6720  180.6390  136.7470 C   0  0  0  0  0  0  0  0  0  0  0  0
  182.4420  176.7750  138.8460 C   0  0  0  0  0  2  0  0  0  0  0  0
  182.6760  176.0730  137.6330 O   0  0  0  0  0  0  0  0  0  0  0  0
  184.8260  176.7730  137.2610 O   0  0  0  0  0  0  0  0  0  0  0  0
  183.9700  175.8480  137.1600 C   0  0  0  0  0  0  0  0  0  0  0  0
  184.5640  173.5390  137.4280 C   0  0  0  0  0  0  0  0  0  0  0  0
  183.2730  173.6230  136.6080 N   0  0  0  0  0  0  0  0  0  0  0  0
  185.2850  172.9820  138.2990 O   0  0  0  0  0  0  0  0  0  0  0  0
  184.3160  174.5420  136.4980 C   0  0  1  0  0  3  0  0  0  0  0  0
  180.8330  171.0670  135.7480 C   0  0  0  0  0  2  0  0  0  0  0  0
  180.3660  171.5160  137.1240 C   0  0  0  0  0  2  0  0  0  0  0  0
  182.1140  171.8200  135.4750 C   0  0  0  0  0  2  0  0  0  0  0  0
  181.1780  172.7490  137.4860 C   0  0  0  0  0  2  0  0  0  0  0  0
  181.9630  173.1070  136.2460 C   0  0  0  0  0  3  0  0  0  0  0  0
  184.6480  178.9550  141.2930 C   0  0  0  0  0  2  0  0  0  0  0  0
  185.0090  178.6460  142.7350 C   0  0  0  0  0  2  0  0  0  0  0  0
  186.2720  177.8020  142.8000 C   0  0  0  0  0  2  0  0  0  0  0  0
  187.0280  178.1560  144.0630 C   0  0  0  0  0  2  0  0  0  0  0  0
  188.2090  176.0120  143.5060 C   0  0  0  0  0  1  0  0  0  0  0  0
  188.3430  177.3790  144.1660 C   0  0  1  0  0  3  0  0  0  0  0  0
  190.8930  176.3200  144.2140 O   0  0  0  0  0  1  0  0  0  0  0  0
  190.8020  177.5600  143.5880 C   0  0  1  0  0  0  0  0  0  0  0  0
  190.9360  179.9270  143.9600 O   0  0  0  0  0  1  0  0  0  0  0  0
  189.4200  178.1630  143.4320 C   0  0  2  0  0  3  0  0  0  0  0  0
  190.4060  178.7390  144.4550 C   0  0  1  0  0  3  0  0  0  0  0  0
  192.3290  177.5120  140.2490 O   0  0  0  0  0  0  0  0  0  0  0  0
  191.4600  177.3040  141.1390 C   0  0  0  0  0  0  0  0  0  0  0  0
  191.6940  177.8120  142.4560 N   0  0  0  0  0  2  0  0  0  0  0  0
  190.2330  176.5400  140.8320 C   0  0  0  0  0  3  0  0  0  0  0  0
  189.3840  176.7670  139.8230 C   0  0  0  0  0  3  0  0  0  0  0  0
  189.5490  177.8680  138.8270 C   0  0  0  0  0  2  0  0  0  0  0  0
  190.3890  177.2910  136.3880 O   0  0  0  0  0  0  0  0  0  0  0  0
  188.0490  176.3030  137.5110 C   0  0  0  0  0  2  0  0  0  0  0  0
  188.5310  177.7360  137.6900 C   0  0  2  0  0  0  0  0  0  0  0  0
  189.2130  175.3860  137.3860 N   0  0  0  0  0  2  0  0  0  0  0  0
  189.0850  177.7450  136.2500 C   0  0  1  0  0  3  0  0  0  0  0  0
  190.2450  175.8670  136.4120 C   0  0  0  0  0  2  0  0  0  0  0  0
  188.6160  179.0050  136.8510 C   0  0  0  0  0  2  0  0  0  0  0  0
  1 35  1  1  0  0  0
  1  4  1  0  0  0  0
  2 10  1  6  0  0  0
  2  5  1  0  0  0  0
  2  1  1  0  0  0  0
  3  4  1  0  0  0  0
  3  6  1  6  0  0  0
  5  3  1  0  0  0  0
  6  9  2  0  0  0  0
  6  7  1  0  0  0  0
  8  6  2  0  0  0  0
 10 11  1  1  0  0  0
 10 22  1  0  0  0  0
 12 21  1  0  0  0  0
 14 11  1  0  0  0  0
 15 17  1  0  0  0  0
 16 12  2  0  0  0  0
 16 17  1  0  0  0  0
 17 18  2  0  0  0  0
 18 13  1  0  0  0  0
 19 12  1  0  0  0  0
 19 20  1  0  0  0  0
 20 14  2  0  0  0  0
 21 14  1  0  0  0  0
 21 13  2  0  0  0  0
 23 22  1  0  0  0  0
 25 24  2  0  0  0  0
 25 23  1  0  0  0  0
 26 28  2  0  0  0  0
 27 26  1  0  0  0  0
 29 27  1  0  0  0  0
 29 25  1  1  0  0  0
 29 26  1  0  0  0  0
 30 31  1  0  0  0  0
 31 33  1  0  0  0  0
 32 30  1  0  0  0  0
 32 34  1  0  0  0  0
 34 27  1  0  0  0  0
 34 33  1  0  0  0  0
 35 36  1  0  0  0  0
 36 37  1  0  0  0  0
 37 38  1  0  0  0  0
 38 40  1  0  0  0  0
 40 39  1  6  0  0  0
 42 41  1  1  0  0  0
 42 45  1  0  0  0  0
 44 42  1  0  0  0  0
 44 40  1  1  0  0  0
 44 45  1  0  0  0  0
 45 43  1  6  0  0  0
 46 47  2  0  0  0  0
 47 48  1  0  0  0  0
 48 42  1  0  0  0  0
 49 47  1  0  0  0  0
 50 49  2  0  0  0  0
 51 50  1  0  0  0  0
 52 57  1  0  0  0  0
 53 54  1  0  0  0  0
 54 51  1  1  0  0  0
 55 53  1  0  0  0  0
 56 52  1  0  0  0  0
 56 58  1  1  0  0  0
 56 54  1  0  0  0  0
 57 55  1  0  0  0  0
 58 54  1  0  0  0  0
M  END
>  <MODEL>
8

>  <REMARK>
 VINA RESULT:      -6.4      4.148      8.785
  Name = 
  19 active torsions:
  status: ('A' for Active; 'I' for Inactive)
    1  A    between atoms: C_3  and  C_18
    2  A    between atoms: C_4  and  C_47
    3  A    between atoms: N_5  and  C_46
    4  A    between atoms: C_7  and  N_28
    5  A    between atoms: C_12  and  C_25
    6  A    between atoms: O_13  and  C_39
    7  A    between atoms: O_13  and  C_41
    8  A    between atoms: C_15  and  C_42
    9  A    between atoms: C_17  and  S_19
   10  A    between atoms: C_18  and  C_35
   11  A    between atoms: C_22  and  C_34
   12  A    between atoms: C_22  and  C_35
   13  A    between atoms: C_23  and  C_26
   14  A    between atoms: C_26  and  C_53
   15  A    between atoms: C_34  and  C_58
   16  A    between atoms: C_39  and  C_47
   17  A    between atoms: C_41  and  CA_55
   18  A    between atoms: C_42  and  C_47
   19  A    between atoms: C_45  and  C_58
                            x       y       z     vdW  Elec       q    Type
                         _______ _______ _______ _____ _____    ______ ____

>  <TORSDO>
F 19

$$$$
=
 OpenBabel11062418013D

 58 65  0  0  1  0  0  0  0  0999 V2000
  183.1540  177.5480  136.7900 C   0  0  2  0  0  3  0  0  0  0  0  0
  183.4480  177.2290  138.2510 C   0  0  2  0  0  3  0  0  0  0  0  0
  182.4680  175.2690  137.1990 C   0  0  1  0  0  3  0  0  0  0  0  0
  182.2050  176.4650  136.3110 C   0  0  0  0  0  2  0  0  0  0  0  0
  182.9040  175.8380  138.5350 C   0  0  0  0  0  2  0  0  0  0  0  0
  180.9880  174.2930  137.3920 S   0  0  0  0  0  0  0  0  0  0  0  0
  181.3820  172.5710  137.1740 C   0  0  0  0  0  1  0  0  0  0  0  0
  179.9560  174.6930  136.3830 O   0  0  0  0  0  0  0  0  0  0  0  0
  180.4220  174.4960  138.7710 O   0  0  0  0  0  0  0  0  0  0  0  0
  182.8680  178.2740  139.2260 C   0  0  2  0  0  3  0  0  0  0  0  0
  181.7680  177.6820  140.0990 C   0  0  0  0  0  2  0  0  0  0  0  0
  182.5060  179.1310  143.3520 C   0  0  0  0  0  0  0  0  0  0  0  0
  184.1990  177.8770  142.1770 C   0  0  0  0  0  3  0  0  0  0  0  0
  181.7960  178.2540  141.4760 C   0  0  0  0  0  0  0  0  0  0  0  0
  185.6840  179.3420  145.3640 C   0  0  0  0  0  1  0  0  0  0  0  0
  183.3850  179.4730  144.3760 C   0  0  0  0  0  3  0  0  0  0  0  0
  184.7080  178.9960  144.2960 C   0  0  0  0  0  0  0  0  0  0  0  0
  185.1080  178.1970  143.2050 C   0  0  0  0  0  3  0  0  0  0  0  0
  181.2480  179.4780  143.2260 O   0  0  0  0  0  0  0  0  0  0  0  0
  180.7840  178.9810  142.0930 C   0  0  0  0  0  3  0  0  0  0  0  0
  182.9000  178.3680  142.2920 C   0  0  0  0  0  0  0  0  0  0  0  0
  182.2910  179.4500  138.4490 C   0  0  0  0  0  2  0  0  0  0  0  0
  180.8920  179.2870  138.2650 O   0  0  0  0  0  0  0  0  0  0  0  0
  180.6210  180.0080  136.1070 O   0  0  0  0  0  0  0  0  0  0  0  0
  180.1950  180.0120  137.2980 C   0  0  0  0  0  0  0  0  0  0  0  0
  179.1370  181.4140  138.9320 C   0  0  0  0  0  0  0  0  0  0  0  0
  179.2490  182.1900  137.6160 N   0  0  0  0  0  0  0  0  0  0  0  0
  179.1730  181.3640  140.1910 O   0  0  0  0  0  0  0  0  0  0  0  0
  178.9870  180.8230  137.6840 C   0  0  1  0  0  3  0  0  0  0  0  0
  181.1420  185.0710  136.4550 C   0  0  0  0  0  2  0  0  0  0  0  0
  180.9700  184.2570  135.1820 C   0  0  0  0  0  2  0  0  0  0  0  0
  180.5430  184.2410  137.5650 C   0  0  0  0  0  2  0  0  0  0  0  0
  179.9900  183.1390  135.5010 C   0  0  0  0  0  2  0  0  0  0  0  0
  179.4670  183.4290  136.8870 C   0  0  0  0  0  3  0  0  0  0  0  0
  184.4510  177.4910  135.9960 C   0  0  0  0  0  2  0  0  0  0  0  0
  185.6590  177.5290  136.9140 C   0  0  0  0  0  2  0  0  0  0  0  0
  186.9140  177.1180  136.1620 C   0  0  0  0  0  2  0  0  0  0  0  0
  187.8140  176.3470  137.1040 C   0  0  0  0  0  2  0  0  0  0  0  0
  189.5600  178.0430  137.7190 C   0  0  0  0  0  1  0  0  0  0  0  0
  189.2800  176.7620  136.9440 C   0  0  1  0  0  3  0  0  0  0  0  0
  191.6910  176.3120  135.6770 O   0  0  0  0  0  1  0  0  0  0  0  0
  191.4120  175.4150  136.7040 C   0  0  1  0  0  0  0  0  0  0  0  0
  190.3890  173.3030  137.2010 O   0  0  0  0  0  1  0  0  0  0  0  0
  190.1540  175.6550  137.5150 C   0  0  2  0  0  3  0  0  0  0  0  0
  190.2200  174.5000  136.5100 C   0  0  1  0  0  3  0  0  0  0  0  0
  194.2960  175.2170  138.9680 O   0  0  0  0  0  0  0  0  0  0  0  0
  193.2920  175.7240  138.3980 C   0  0  0  0  0  0  0  0  0  0  0  0
  192.5410  174.9140  137.4880 N   0  0  0  0  0  2  0  0  0  0  0  0
  192.9080  177.1280  138.6510 C   0  0  0  0  0  3  0  0  0  0  0  0
  192.1200  177.5730  139.6370 C   0  0  0  0  0  3  0  0  0  0  0  0
  191.4830  176.6880  140.6580 C   0  0  0  0  0  2  0  0  0  0  0  0
  190.2830  175.4740  142.6770 O   0  0  0  0  0  0  0  0  0  0  0  0
  191.3000  178.0560  142.7860 C   0  0  0  0  0  2  0  0  0  0  0  0
  190.5610  177.4910  141.5810 C   0  0  2  0  0  0  0  0  0  0  0  0
  192.0490  176.9730  143.4780 N   0  0  0  0  0  2  0  0  0  0  0  0
  189.6280  176.6870  142.5120 C   0  0  1  0  0  3  0  0  0  0  0  0
  191.2260  175.7450  143.7190 C   0  0  0  0  0  2  0  0  0  0  0  0
  189.1250  177.1450  141.2050 C   0  0  0  0  0  2  0  0  0  0  0  0
  1 35  1  6  0  0  0
  1  2  1  0  0  0  0
  2  5  1  0  0  0  0
  2 10  1  1  0  0  0
  3  6  1  1  0  0  0
  3  5  1  0  0  0  0
  4  1  1  0  0  0  0
  4  3  1  0  0  0  0
  6  9  2  0  0  0  0
  7  6  1  0  0  0  0
  8  6  2  0  0  0  0
 10 22  1  6  0  0  0
 10 11  1  0  0  0  0
 11 14  1  0  0  0  0
 12 16  1  0  0  0  0
 13 21  1  0  0  0  0
 13 18  2  0  0  0  0
 14 20  2  0  0  0  0
 14 21  1  0  0  0  0
 17 16  2  0  0  0  0
 17 15  1  0  0  0  0
 18 17  1  0  0  0  0
 19 12  1  0  0  0  0
 20 19  1  0  0  0  0
 21 12  2  0  0  0  0
 23 22  1  0  0  0  0
 24 25  2  0  0  0  0
 25 23  1  0  0  0  0
 26 28  2  0  0  0  0
 27 29  1  0  0  0  0
 27 26  1  0  0  0  0
 29 25  1  6  0  0  0
 29 26  1  0  0  0  0
 30 32  1  0  0  0  0
 31 33  1  0  0  0  0
 31 30  1  0  0  0  0
 33 34  1  0  0  0  0
 34 32  1  0  0  0  0
 34 27  1  0  0  0  0
 35 36  1  0  0  0  0
 37 36  1  0  0  0  0
 37 38  1  0  0  0  0
 40 38  1  0  0  0  0
 40 39  1  1  0  0  0
 42 41  1  6  0  0  0
 42 48  1  0  0  0  0
 42 44  1  0  0  0  0
 44 40  1  6  0  0  0
 45 42  1  0  0  0  0
 45 43  1  1  0  0  0
 45 44  1  0  0  0  0
 47 49  1  0  0  0  0
 47 46  2  0  0  0  0
 48 47  1  0  0  0  0
 49 50  2  0  0  0  0
 50 51  1  0  0  0  0
 52 57  1  0  0  0  0
 53 55  1  0  0  0  0
 54 51  1  6  0  0  0
 54 56  1  0  0  0  0
 54 53  1  0  0  0  0
 55 57  1  0  0  0  0
 56 58  1  6  0  0  0
 56 52  1  0  0  0  0
 58 54  1  0  0  0  0
M  END
>  <MODEL>
9

>  <REMARK>
 VINA RESULT:      -6.3      3.308      6.591
  Name = 
  19 active torsions:
  status: ('A' for Active; 'I' for Inactive)
    1  A    between atoms: C_3  and  C_18
    2  A    between atoms: C_4  and  C_47
    3  A    between atoms: N_5  and  C_46
    4  A    between atoms: C_7  and  N_28
    5  A    between atoms: C_12  and  C_25
    6  A    between atoms: O_13  and  C_39
    7  A    between atoms: O_13  and  C_41
    8  A    between atoms: C_15  and  C_42
    9  A    between atoms: C_17  and  S_19
   10  A    between atoms: C_18  and  C_35
   11  A    between atoms: C_22  and  C_34
   12  A    between atoms: C_22  and  C_35
   13  A    between atoms: C_23  and  C_26
   14  A    between atoms: C_26  and  C_53
   15  A    between atoms: C_34  and  C_58
   16  A    between atoms: C_39  and  C_47
   17  A    between atoms: C_41  and  CA_55
   18  A    between atoms: C_42  and  C_47
   19  A    between atoms: C_45  and  C_58
                            x       y       z     vdW  Elec       q    Type
                         _______ _______ _______ _____ _____    ______ ____

>  <TORSDO>
F 19

$$$$
