=
 OpenBabel11062417103D

 36 39  0  0  1  0  0  0  0  0999 V2000
  184.2750  178.6540  141.8230 C   0  0  0  0  0  0  0  0  0  0  0  0
  181.1880  175.8700  140.2720 C   0  0  0  0  0  2  0  0  0  0  0  0
  183.0470  175.6730  138.7270 N   0  0  0  0  0  2  0  0  0  0  0  0
  186.8620  176.7800  137.2190 C   0  0  0  0  0  3  0  0  0  0  0  0
  183.9090  179.3820  139.5410 F   0  0  0  0  0  0  0  0  0  0  0  0
  178.9310  174.6830  140.5880 C   0  0  0  0  0  1  0  0  0  0  0  0
  179.6980  175.9510  140.4400 C   0  0  0  0  0  0  0  0  0  0  0  0
  188.3440  177.9240  140.7400 C   0  0  0  0  0  0  0  0  0  0  0  0
  190.9550  177.3050  138.0380 S   0  0  0  0  0  0  0  0  0  0  0  0
  185.2000  178.2470  142.8050 C   0  0  0  0  0  0  0  0  0  0  0  0
  190.3330  177.1350  140.7520 N   0  0  0  0  0  0  0  0  0  0  0  0
  179.6580  178.4780  140.4670 C   0  0  0  0  0  2  0  0  0  0  0  0
  190.2190  175.6920  137.7130 C   0  0  0  0  0  0  0  0  0  0  0  0
  189.2940  177.3890  141.5360 N   0  0  0  0  0  0  0  0  0  0  0  0
  186.5430  178.0440  142.4690 C   0  0  0  0  0  3  0  0  0  0  0  0
  180.5050  178.7640  141.6960 C   0  0  0  0  0  2  0  0  0  0  0  0
  187.6780  175.5590  137.1240 C   0  0  0  0  0  0  0  0  0  0  0  0
  183.3740  175.2990  137.3610 C   0  0  0  0  0  2  0  0  0  0  0  0
  185.5300  176.6930  137.2200 C   0  0  0  0  0  3  0  0  0  0  0  0
  181.3260  177.1770  138.2650 O   0  0  0  0  0  1  0  0  0  0  0  0
  184.7420  178.9450  140.5210 C   0  0  0  0  0  0  0  0  0  0  0  0
  185.5570  174.2540  136.9730 C   0  0  0  0  0  3  0  0  0  0  0  0
  184.8510  175.3790  137.1560 C   0  0  0  0  0  0  0  0  0  0  0  0
  188.7630  178.0290  139.5050 O   0  0  0  0  0  0  0  0  0  0  0  0
  189.9720  177.5310  139.5170 C   0  0  0  0  0  0  0  0  0  0  0  0
  179.0310  177.1130  140.5380 C   0  0  0  0  0  3  0  0  0  0  0  0
  184.7800  178.0140  144.1120 O   0  0  0  0  0  1  0  0  0  0  0  0
  188.9550  175.6180  137.3840 C   0  0  0  0  0  0  0  0  0  0  0  0
  186.0800  178.7370  140.1990 C   0  0  0  0  0  3  0  0  0  0  0  0
  181.9340  178.7870  141.2880 C   0  0  0  0  0  3  0  0  0  0  0  0
  181.6140  175.9220  138.8060 C   0  0  2  0  0  3  0  0  0  0  0  0
  186.9830  178.2690  141.1580 C   0  0  0  0  0  0  0  0  0  0  0  0
  187.0460  174.2580  136.7260 C   0  0  0  0  0  2  0  0  0  0  0  0
  182.8790  178.6980  142.1670 N   0  0  0  0  0  0  0  0  0  0  0  0
  190.9470  174.4880  137.9660 N   0  0  0  0  0  2  0  0  0  0  0  0
  192.1410  174.1270  137.2190 C   0  0  0  0  0  1  0  0  0  0  0  0
  1 34  1  0  0  0  0
  1 10  1  0  0  0  0
  2  7  1  0  0  0  0
  3 31  1  0  0  0  0
  4 19  2  0  0  0  0
  5 21  1  0  0  0  0
  7 26  2  0  0  0  0
  7  6  1  0  0  0  0
  8 32  1  0  0  0  0
  8 14  2  0  0  0  0
  9 25  1  0  0  0  0
 10 27  1  0  0  0  0
 11 14  1  0  0  0  0
 12 26  1  0  0  0  0
 12 16  1  0  0  0  0
 13 35  1  0  0  0  0
 13  9  1  0  0  0  0
 15 10  2  0  0  0  0
 17  4  1  0  0  0  0
 17 28  2  0  0  0  0
 18  3  1  0  0  0  0
 21  1  2  0  0  0  0
 22 23  2  0  0  0  0
 23 19  1  0  0  0  0
 23 18  1  0  0  0  0
 24 25  1  0  0  0  0
 24  8  1  0  0  0  0
 25 11  2  0  0  0  0
 28 13  2  0  0  0  0
 29 21  1  0  0  0  0
 29 32  2  0  0  0  0
 30 16  1  0  0  0  0
 30 34  2  0  0  0  0
 31 20  1  1  0  0  0
 31  2  1  0  0  0  0
 32 15  1  0  0  0  0
 33 22  1  0  0  0  0
 33 17  1  0  0  0  0
 36 35  1  0  0  0  0
M  END
>  <MODEL>
1

>  <REMARK>
 VINA RESULT:      -8.5      0.000      0.000
  Name = 
  1 active torsions:
  status: ('A' for Active; 'I' for Inactive)
    1  A    between atoms: C_13  and  N_22
                            x       y       z     vdW  Elec       q    Type
                         _______ _______ _______ _____ _____    ______ ____

>  <TORSDO>
F 1

$$$$
=
 OpenBabel11062417103D

 36 39  0  0  1  0  0  0  0  0999 V2000
  188.1560  176.3350  137.7060 C   0  0  0  0  0  0  0  0  0  0  0  0
  189.3450  176.5560  141.9750 C   0  0  0  0  0  2  0  0  0  0  0  0
  187.1980  177.6770  141.8610 N   0  0  0  0  0  2  0  0  0  0  0  0
  183.8480  179.2590  139.7800 C   0  0  0  0  0  3  0  0  0  0  0  0
  188.1060  178.7030  138.2160 F   0  0  0  0  0  0  0  0  0  0  0  0
  190.9570  175.8640  143.8540 C   0  0  0  0  0  1  0  0  0  0  0  0
  190.7310  176.5530  142.5530 C   0  0  0  0  0  0  0  0  0  0  0  0
  183.9950  176.6390  136.7770 C   0  0  0  0  0  0  0  0  0  0  0  0
  180.6950  178.5110  137.0970 S   0  0  0  0  0  0  0  0  0  0  0  0
  187.4680  175.2170  137.1950 C   0  0  0  0  0  0  0  0  0  0  0  0
  181.9500  176.1060  136.4460 N   0  0  0  0  0  0  0  0  0  0  0  0
  191.7500  177.7570  140.5780 C   0  0  0  0  0  2  0  0  0  0  0  0
  180.6250  178.0650  138.8420 C   0  0  0  0  0  0  0  0  0  0  0  0
  183.1830  175.6190  136.4290 N   0  0  0  0  0  0  0  0  0  0  0  0
  186.1150  175.3160  136.8510 C   0  0  0  0  0  3  0  0  0  0  0  0
  191.4690  176.7640  139.4610 C   0  0  0  0  0  2  0  0  0  0  0  0
  182.6340  178.6930  140.3880 C   0  0  0  0  0  0  0  0  0  0  0  0
  186.3760  178.6640  142.5430 C   0  0  0  0  0  2  0  0  0  0  0  0
  184.9830  179.3100  140.4800 C   0  0  0  0  0  3  0  0  0  0  0  0
  189.1560  178.9290  141.6820 O   0  0  0  0  0  1  0  0  0  0  0  0
  187.4870  177.5790  137.7740 C   0  0  0  0  0  0  0  0  0  0  0  0
  183.9470  178.3410  142.4800 C   0  0  0  0  0  3  0  0  0  0  0  0
  185.0530  178.7770  141.8600 C   0  0  0  0  0  0  0  0  0  0  0  0
  183.3150  177.7370  136.9870 O   0  0  0  0  0  0  0  0  0  0  0  0
  182.0660  177.4000  136.7980 C   0  0  0  0  0  0  0  0  0  0  0  0
  191.7930  177.0780  141.9190 C   0  0  0  0  0  3  0  0  0  0  0  0
  188.1190  173.9940  137.0580 O   0  0  0  0  0  1  0  0  0  0  0  0
  181.6110  178.4050  139.6310 C   0  0  0  0  0  0  0  0  0  0  0  0
  186.1410  177.6640  137.4300 C   0  0  0  0  0  3  0  0  0  0  0  0
  190.1070  177.0300  138.9270 C   0  0  0  0  0  3  0  0  0  0  0  0
  188.5730  177.8290  142.3150 C   0  0  2  0  0  3  0  0  0  0  0  0
  185.4420  176.5370  136.9870 C   0  0  0  0  0  0  0  0  0  0  0  0
  182.5720  178.4530  141.8680 C   0  0  0  0  0  2  0  0  0  0  0  0
  189.4950  176.1550  138.1980 N   0  0  0  0  0  0  0  0  0  0  0  0
  179.5930  177.2090  139.3410 N   0  0  0  0  0  2  0  0  0  0  0  0
  179.8790  176.0210  140.1290 C   0  0  0  0  0  1  0  0  0  0  0  0
  1 21  1  0  0  0  0
  1 34  1  0  0  0  0
  2 31  1  0  0  0  0
  2  7  1  0  0  0  0
  3 31  1  0  0  0  0
  3 18  1  0  0  0  0
  4 17  1  0  0  0  0
  4 19  2  0  0  0  0
  7  6  1  0  0  0  0
  8 24  1  0  0  0  0
  8 32  1  0  0  0  0
  9 13  1  0  0  0  0
 10  1  2  0  0  0  0
 11 25  2  0  0  0  0
 12 26  1  0  0  0  0
 13 35  1  0  0  0  0
 13 28  2  0  0  0  0
 14 11  1  0  0  0  0
 14  8  2  0  0  0  0
 15 32  2  0  0  0  0
 15 10  1  0  0  0  0
 16 12  1  0  0  0  0
 17 33  1  0  0  0  0
 19 23  1  0  0  0  0
 21  5  1  0  0  0  0
 23 22  2  0  0  0  0
 23 18  1  0  0  0  0
 25 24  1  0  0  0  0
 25  9  1  0  0  0  0
 26  7  2  0  0  0  0
 27 10  1  0  0  0  0
 28 17  2  0  0  0  0
 29 21  2  0  0  0  0
 30 16  1  0  0  0  0
 31 20  1  6  0  0  0
 32 29  1  0  0  0  0
 33 22  1  0  0  0  0
 34 30  2  0  0  0  0
 35 36  1  0  0  0  0
M  END
>  <MODEL>
2

>  <REMARK>
 VINA RESULT:      -8.0      2.789      8.379
  Name = 
  1 active torsions:
  status: ('A' for Active; 'I' for Inactive)
    1  A    between atoms: C_13  and  N_22
                            x       y       z     vdW  Elec       q    Type
                         _______ _______ _______ _____ _____    ______ ____

>  <TORSDO>
F 1

$$$$
=
 OpenBabel11062417103D

 36 39  0  0  1  0  0  0  0  0999 V2000
  186.8330  175.3380  137.2440 C   0  0  0  0  0  0  0  0  0  0  0  0
  189.0840  176.8640  140.7500 C   0  0  0  0  0  2  0  0  0  0  0  0
  186.9000  177.9070  140.9030 N   0  0  0  0  0  2  0  0  0  0  0  0
  183.0040  178.7850  139.4500 C   0  0  0  0  0  3  0  0  0  0  0  0
  186.7300  177.7480  137.0150 F   0  0  0  0  0  0  0  0  0  0  0  0
  191.1850  176.7800  142.2290 C   0  0  0  0  0  1  0  0  0  0  0  0
  190.5690  177.0330  140.8970 C   0  0  0  0  0  0  0  0  0  0  0  0
  182.5640  175.3630  137.4510 C   0  0  0  0  0  0  0  0  0  0  0  0
  179.3260  177.2600  138.0930 S   0  0  0  0  0  0  0  0  0  0  0  0
  186.1270  174.1210  137.3020 C   0  0  0  0  0  0  0  0  0  0  0  0
  180.5540  174.7650  137.8720 N   0  0  0  0  0  0  0  0  0  0  0  0
  190.9310  177.5600  138.4510 C   0  0  0  0  0  2  0  0  0  0  0  0
  179.7550  177.3770  139.8390 C   0  0  0  0  0  0  0  0  0  0  0  0
  181.7740  174.2900  137.6620 N   0  0  0  0  0  0  0  0  0  0  0  0
  184.7280  174.1160  137.3300 C   0  0  0  0  0  3  0  0  0  0  0  0
  190.4460  176.2720  137.8060 C   0  0  0  0  0  2  0  0  0  0  0  0
  182.0430  178.4420  140.5100 C   0  0  0  0  0  0  0  0  0  0  0  0
  186.2110  179.0610  141.4560 C   0  0  0  0  0  2  0  0  0  0  0  0
  184.2760  179.0440  139.7620 C   0  0  0  0  0  3  0  0  0  0  0  0
  188.6350  179.0310  139.8240 O   0  0  0  0  0  1  0  0  0  0  0  0
  186.1080  176.5460  137.1180 C   0  0  0  0  0  0  0  0  0  0  0  0
  183.8850  178.7480  142.1650 C   0  0  0  0  0  3  0  0  0  0  0  0
  184.7500  178.9640  141.1630 C   0  0  0  0  0  0  0  0  0  0  0  0
  181.8780  176.4760  137.5010 O   0  0  0  0  0  0  0  0  0  0  0  0
  180.6550  176.1030  137.7740 C   0  0  0  0  0  0  0  0  0  0  0  0
  191.3810  177.3300  139.8680 C   0  0  0  0  0  3  0  0  0  0  0  0
  186.8150  172.9120  137.3630 O   0  0  0  0  0  1  0  0  0  0  0  0
  180.8830  177.9390  140.1870 C   0  0  0  0  0  0  0  0  0  0  0  0
  184.7160  176.5270  137.1490 C   0  0  0  0  0  3  0  0  0  0  0  0
  188.9750  176.3670  137.6140 C   0  0  0  0  0  3  0  0  0  0  0  0
  188.3290  178.1840  140.8920 C   0  0  2  0  0  3  0  0  0  0  0  0
  184.0180  175.3230  137.2740 C   0  0  0  0  0  0  0  0  0  0  0  0
  182.3930  178.6730  141.9510 C   0  0  0  0  0  2  0  0  0  0  0  0
  188.2650  175.3120  137.3780 N   0  0  0  0  0  0  0  0  0  0  0  0
  178.9630  176.7240  140.8360 N   0  0  0  0  0  2  0  0  0  0  0  0
  178.9820  175.2830  141.0250 C   0  0  0  0  0  1  0  0  0  0  0  0
  1 10  1  0  0  0  0
  1 34  1  0  0  0  0
  2 31  1  0  0  0  0
  2  7  1  0  0  0  0
  3 18  1  0  0  0  0
  4 19  2  0  0  0  0
  4 17  1  0  0  0  0
  5 21  1  0  0  0  0
  7  6  1  0  0  0  0
  8 24  1  0  0  0  0
  8 14  2  0  0  0  0
  9 13  1  0  0  0  0
 10 15  2  0  0  0  0
 10 27  1  0  0  0  0
 12 26  1  0  0  0  0
 13 28  2  0  0  0  0
 13 35  1  0  0  0  0
 14 11  1  0  0  0  0
 16 12  1  0  0  0  0
 17 33  1  0  0  0  0
 19 23  1  0  0  0  0
 21 29  1  0  0  0  0
 21  1  2  0  0  0  0
 23 18  1  0  0  0  0
 23 22  2  0  0  0  0
 24 25  1  0  0  0  0
 25 11  2  0  0  0  0
 25  9  1  0  0  0  0
 26  7  2  0  0  0  0
 28 17  2  0  0  0  0
 29 32  2  0  0  0  0
 30 16  1  0  0  0  0
 31 20  1  6  0  0  0
 31  3  1  0  0  0  0
 32 15  1  0  0  0  0
 32  8  1  0  0  0  0
 33 22  1  0  0  0  0
 34 30  2  0  0  0  0
 35 36  1  0  0  0  0
M  END
>  <MODEL>
3

>  <REMARK>
 VINA RESULT:      -7.6      2.777      8.575
  Name = 
  1 active torsions:
  status: ('A' for Active; 'I' for Inactive)
    1  A    between atoms: C_13  and  N_22
                            x       y       z     vdW  Elec       q    Type
                         _______ _______ _______ _____ _____    ______ ____

>  <TORSDO>
F 1

$$$$
=
 OpenBabel11062417103D

 36 39  0  0  1  0  0  0  0  0999 V2000
  189.3240  176.4300  138.2330 C   0  0  0  0  0  0  0  0  0  0  0  0
  189.3640  176.6500  142.6640 C   0  0  0  0  0  2  0  0  0  0  0  0
  187.2130  177.5580  142.0090 N   0  0  0  0  0  2  0  0  0  0  0  0
  184.3570  178.8600  139.1440 C   0  0  0  0  0  3  0  0  0  0  0  0
  188.9060  178.7670  138.7170 F   0  0  0  0  0  0  0  0  0  0  0  0
  190.5090  176.0690  144.8910 C   0  0  0  0  0  1  0  0  0  0  0  0
  190.5510  176.7680  143.5760 C   0  0  0  0  0  0  0  0  0  0  0  0
  185.5260  176.3500  136.2750 C   0  0  0  0  0  0  0  0  0  0  0  0
  182.0800  177.8800  135.7460 S   0  0  0  0  0  0  0  0  0  0  0  0
  188.9050  175.2640  137.5620 C   0  0  0  0  0  0  0  0  0  0  0  0
  183.6970  175.6280  135.4330 N   0  0  0  0  0  0  0  0  0  0  0  0
  191.9090  178.1190  141.9270 C   0  0  0  0  0  2  0  0  0  0  0  0
  181.6160  177.3820  137.4140 C   0  0  0  0  0  0  0  0  0  0  0  0
  184.9370  175.2650  135.7300 N   0  0  0  0  0  0  0  0  0  0  0  0
  187.6810  175.2400  136.8840 C   0  0  0  0  0  3  0  0  0  0  0  0
  192.0230  177.1340  140.7750 C   0  0  0  0  0  2  0  0  0  0  0  0
  183.0930  178.1610  139.4220 C   0  0  0  0  0  0  0  0  0  0  0  0
  186.1500  178.4410  142.4590 C   0  0  0  0  0  2  0  0  0  0  0  0
  185.2670  179.0030  140.1110 C   0  0  0  0  0  3  0  0  0  0  0  0
  189.0150  179.0000  142.3360 O   0  0  0  0  0  1  0  0  0  0  0  0
  188.5370  177.6000  138.1290 C   0  0  0  0  0  0  0  0  0  0  0  0
  183.8610  177.8830  141.7790 C   0  0  0  0  0  3  0  0  0  0  0  0
  185.0390  178.4420  141.4620 C   0  0  0  0  0  0  0  0  0  0  0  0
  184.7070  177.3700  136.3060 O   0  0  0  0  0  0  0  0  0  0  0  0
  183.5880  176.9170  135.8050 C   0  0  0  0  0  0  0  0  0  0  0  0
  191.6800  177.4110  143.2340 C   0  0  0  0  0  3  0  0  0  0  0  0
  189.6910  174.1150  137.5930 O   0  0  0  0  0  1  0  0  0  0  0  0
  182.3290  177.7950  138.4290 C   0  0  0  0  0  0  0  0  0  0  0  0
  187.3200  177.5620  137.4540 C   0  0  0  0  0  3  0  0  0  0  0  0
  190.8210  177.2800  139.9120 C   0  0  0  0  0  3  0  0  0  0  0  0
  188.4060  177.8320  142.7980 C   0  0  2  0  0  3  0  0  0  0  0  0
  186.8750  176.3850  136.8460 C   0  0  0  0  0  0  0  0  0  0  0  0
  182.6830  177.8770  140.8370 C   0  0  0  0  0  2  0  0  0  0  0  0
  190.5060  176.3690  139.0500 N   0  0  0  0  0  0  0  0  0  0  0  0
  180.5840  176.4160  137.6330 N   0  0  0  0  0  2  0  0  0  0  0  0
  180.8280  175.1540  138.3120 C   0  0  0  0  0  1  0  0  0  0  0  0
  1 34  1  0  0  0  0
  2 31  1  0  0  0  0
  2  7  1  0  0  0  0
  3 18  1  0  0  0  0
  3 31  1  0  0  0  0
  4 17  1  0  0  0  0
  4 19  2  0  0  0  0
  7  6  1  0  0  0  0
  8 24  1  0  0  0  0
  8 32  1  0  0  0  0
  9 25  1  0  0  0  0
  9 13  1  0  0  0  0
 10 27  1  0  0  0  0
 10  1  2  0  0  0  0
 11 14  1  0  0  0  0
 11 25  2  0  0  0  0
 12 26  1  0  0  0  0
 13 35  1  0  0  0  0
 13 28  2  0  0  0  0
 14  8  2  0  0  0  0
 15 10  1  0  0  0  0
 16 12  1  0  0  0  0
 17 33  1  0  0  0  0
 19 23  1  0  0  0  0
 21  1  1  0  0  0  0
 21  5  1  0  0  0  0
 23 22  2  0  0  0  0
 23 18  1  0  0  0  0
 25 24  1  0  0  0  0
 26  7  2  0  0  0  0
 28 17  2  0  0  0  0
 29 21  2  0  0  0  0
 30 16  1  0  0  0  0
 31 20  1  6  0  0  0
 32 15  2  0  0  0  0
 32 29  1  0  0  0  0
 33 22  1  0  0  0  0
 34 30  2  0  0  0  0
 35 36  1  0  0  0  0
M  END
>  <MODEL>
4

>  <REMARK>
 VINA RESULT:      -7.3      2.938      8.094
  Name = 
  1 active torsions:
  status: ('A' for Active; 'I' for Inactive)
    1  A    between atoms: C_13  and  N_22
                            x       y       z     vdW  Elec       q    Type
                         _______ _______ _______ _____ _____    ______ ____

>  <TORSDO>
F 1

$$$$
=
 OpenBabel11062417103D

 36 39  0  0  1  0  0  0  0  0999 V2000
  187.0030  178.4640  139.0480 C   0  0  0  0  0  0  0  0  0  0  0  0
  183.3950  175.9030  138.7180 C   0  0  0  0  0  2  0  0  0  0  0  0
  184.9840  174.9550  137.1510 N   0  0  0  0  0  2  0  0  0  0  0  0
  188.6720  174.9210  135.0400 C   0  0  0  0  0  3  0  0  0  0  0  0
  186.4300  178.5430  136.6960 F   0  0  0  0  0  0  0  0  0  0  0  0
  181.0640  175.2530  139.5870 C   0  0  0  0  0  1  0  0  0  0  0  0
  181.9650  176.2760  138.9850 C   0  0  0  0  0  0  0  0  0  0  0  0
  190.7560  176.7810  137.8870 C   0  0  0  0  0  0  0  0  0  0  0  0
  192.8710  174.9740  135.2880 S   0  0  0  0  0  0  0  0  0  0  0  0
  187.9910  178.2140  140.0210 C   0  0  0  0  0  0  0  0  0  0  0  0
  192.6060  175.7110  137.9650 N   0  0  0  0  0  0  0  0  0  0  0  0
  182.2620  178.6700  138.2320 C   0  0  0  0  0  2  0  0  0  0  0  0
  191.8920  173.4820  135.5450 C   0  0  0  0  0  0  0  0  0  0  0  0
  191.7250  176.3530  138.7210 N   0  0  0  0  0  0  0  0  0  0  0  0
  189.2370  177.7010  139.6470 C   0  0  0  0  0  3  0  0  0  0  0  0
  183.2980  179.1580  139.2310 C   0  0  0  0  0  2  0  0  0  0  0  0
  189.3000  173.6080  135.2560 C   0  0  0  0  0  0  0  0  0  0  0  0
  185.0710  174.1490  135.9450 C   0  0  0  0  0  2  0  0  0  0  0  0
  187.3530  175.0620  135.1870 C   0  0  0  0  0  3  0  0  0  0  0  0
  183.4290  176.5230  136.4020 O   0  0  0  0  0  1  0  0  0  0  0  0
  187.3230  178.2790  137.6840 C   0  0  0  0  0  0  0  0  0  0  0  0
  187.0250  172.6880  135.7070 C   0  0  0  0  0  3  0  0  0  0  0  0
  186.5040  173.9190  135.5940 C   0  0  0  0  0  0  0  0  0  0  0  0
  191.0130  176.4490  136.6470 O   0  0  0  0  0  0  0  0  0  0  0  0
  192.1370  175.7830  136.7060 C   0  0  0  0  0  0  0  0  0  0  0  0
  181.4760  177.5100  138.7780 C   0  0  0  0  0  3  0  0  0  0  0  0
  187.7250  178.4470  141.3680 O   0  0  0  0  0  1  0  0  0  0  0  0
  190.5970  173.5270  135.3690 C   0  0  0  0  0  0  0  0  0  0  0  0
  188.5660  177.7660  137.3250 C   0  0  0  0  0  3  0  0  0  0  0  0
  184.6490  178.8220  138.7100 C   0  0  0  0  0  3  0  0  0  0  0  0
  183.6210  175.4520  137.2770 C   0  0  2  0  0  3  0  0  0  0  0  0
  189.5210  177.4560  138.2970 C   0  0  0  0  0  0  0  0  0  0  0  0
  188.4540  172.3710  135.3390 C   0  0  0  0  0  2  0  0  0  0  0  0
  185.6840  178.8380  139.4850 N   0  0  0  0  0  0  0  0  0  0  0  0
  192.4830  172.3010  136.0930 N   0  0  0  0  0  2  0  0  0  0  0  0
  193.8860  172.2320  136.4670 C   0  0  0  0  0  1  0  0  0  0  0  0
  1 34  1  0  0  0  0
  1 10  1  0  0  0  0
  2  7  1  0  0  0  0
  3 31  1  0  0  0  0
  4 19  2  0  0  0  0
  4 17  1  0  0  0  0
  5 21  1  0  0  0  0
  7  6  1  0  0  0  0
  8 32  1  0  0  0  0
  8 14  2  0  0  0  0
  9 13  1  0  0  0  0
  9 25  1  0  0  0  0
 10 27  1  0  0  0  0
 11 14  1  0  0  0  0
 12 26  1  0  0  0  0
 12 16  1  0  0  0  0
 13 35  1  0  0  0  0
 15 10  2  0  0  0  0
 17 33  1  0  0  0  0
 17 28  2  0  0  0  0
 18  3  1  0  0  0  0
 19 23  1  0  0  0  0
 21  1  2  0  0  0  0
 23 22  2  0  0  0  0
 23 18  1  0  0  0  0
 24 25  1  0  0  0  0
 24  8  1  0  0  0  0
 25 11  2  0  0  0  0
 26  7  2  0  0  0  0
 28 13  2  0  0  0  0
 29 21  1  0  0  0  0
 29 32  2  0  0  0  0
 30 16  1  0  0  0  0
 30 34  2  0  0  0  0
 31 20  1  6  0  0  0
 31  2  1  0  0  0  0
 32 15  1  0  0  0  0
 33 22  1  0  0  0  0
 35 36  1  0  0  0  0
M  END
>  <MODEL>
5

>  <REMARK>
 VINA RESULT:      -7.1      2.462      3.428
  Name = 
  1 active torsions:
  status: ('A' for Active; 'I' for Inactive)
    1  A    between atoms: C_13  and  N_22
                            x       y       z     vdW  Elec       q    Type
                         _______ _______ _______ _____ _____    ______ ____

>  <TORSDO>
F 1

$$$$
=
 OpenBabel11062417103D

 36 39  0  0  1  0  0  0  0  0999 V2000
  188.0110  174.9190  137.2530 C   0  0  0  0  0  0  0  0  0  0  0  0
  189.7120  176.8180  140.8840 C   0  0  0  0  0  2  0  0  0  0  0  0
  187.4670  177.7150  140.6990 N   0  0  0  0  0  2  0  0  0  0  0  0
  183.7360  178.2270  138.7310 C   0  0  0  0  0  3  0  0  0  0  0  0
  187.7910  177.2970  136.8410 F   0  0  0  0  0  0  0  0  0  0  0  0
  191.6130  176.9740  142.6070 C   0  0  0  0  0  1  0  0  0  0  0  0
  191.1540  177.0990  141.1960 C   0  0  0  0  0  0  0  0  0  0  0  0
  183.7560  174.6610  136.9450 C   0  0  0  0  0  0  0  0  0  0  0  0
  180.3540  176.3670  137.0550 S   0  0  0  0  0  0  0  0  0  0  0  0
  187.3790  173.6620  137.3140 C   0  0  0  0  0  0  0  0  0  0  0  0
  181.7490  173.9540  137.1640 N   0  0  0  0  0  0  0  0  0  0  0  0
  191.7850  177.4920  138.7800 C   0  0  0  0  0  2  0  0  0  0  0  0
  180.5540  176.6250  138.8280 C   0  0  0  0  0  0  0  0  0  0  0  0
  183.0130  173.5520  137.1370 N   0  0  0  0  0  0  0  0  0  0  0  0
  185.9900  173.5620  137.1740 C   0  0  0  0  0  3  0  0  0  0  0  0
  191.4630  176.1350  138.1760 C   0  0  0  0  0  2  0  0  0  0  0  0
  182.6730  177.8860  139.6900 C   0  0  0  0  0  0  0  0  0  0  0  0
  186.6450  178.8510  141.0810 C   0  0  0  0  0  2  0  0  0  0  0  0
  184.9410  178.5920  139.1730 C   0  0  0  0  0  3  0  0  0  0  0  0
  189.2510  178.8850  139.7580 O   0  0  0  0  0  1  0  0  0  0  0  0
  187.2350  176.0630  136.9550 C   0  0  0  0  0  0  0  0  0  0  0  0
  184.2720  178.4240  141.5270 C   0  0  0  0  0  3  0  0  0  0  0  0
  185.2410  178.6360  140.6230 C   0  0  0  0  0  0  0  0  0  0  0  0
  183.0030  175.7250  136.8320 O   0  0  0  0  0  0  0  0  0  0  0  0
  181.7800  175.2870  136.9830 C   0  0  0  0  0  0  0  0  0  0  0  0
  192.0680  177.3840  140.2530 C   0  0  0  0  0  3  0  0  0  0  0  0
  188.1260  172.5100  137.5430 O   0  0  0  0  0  1  0  0  0  0  0  0
  181.5950  177.2850  139.2670 C   0  0  0  0  0  0  0  0  0  0  0  0
  185.8550  175.9500  136.8200 C   0  0  0  0  0  3  0  0  0  0  0  0
  190.0240  176.1150  137.8020 C   0  0  0  0  0  3  0  0  0  0  0  0
  188.8670  178.0890  140.8400 C   0  0  2  0  0  3  0  0  0  0  0  0
  185.2210  174.7110  136.9470 C   0  0  0  0  0  0  0  0  0  0  0  0
  182.8260  178.2330  141.1410 C   0  0  0  0  0  2  0  0  0  0  0  0
  189.4140  175.0010  137.5600 N   0  0  0  0  0  0  0  0  0  0  0  0
  179.6860  175.9840  139.7670 N   0  0  0  0  0  2  0  0  0  0  0  0
  179.8460  174.5910  140.1510 C   0  0  0  0  0  1  0  0  0  0  0  0
  1 10  1  0  0  0  0
  1 34  1  0  0  0  0
  2  7  1  0  0  0  0
  3 31  1  0  0  0  0
  3 18  1  0  0  0  0
  4 19  2  0  0  0  0
  4 17  1  0  0  0  0
  5 21  1  0  0  0  0
  7  6  1  0  0  0  0
  8 32  1  0  0  0  0
  8 14  2  0  0  0  0
  9 13  1  0  0  0  0
 10 27  1  0  0  0  0
 12 26  1  0  0  0  0
 13 28  2  0  0  0  0
 13 35  1  0  0  0  0
 14 11  1  0  0  0  0
 15 10  2  0  0  0  0
 16 12  1  0  0  0  0
 17 33  1  0  0  0  0
 19 23  1  0  0  0  0
 21  1  2  0  0  0  0
 23 18  1  0  0  0  0
 23 22  2  0  0  0  0
 24  8  1  0  0  0  0
 24 25  1  0  0  0  0
 25  9  1  0  0  0  0
 25 11  2  0  0  0  0
 26  7  2  0  0  0  0
 28 17  2  0  0  0  0
 29 32  2  0  0  0  0
 29 21  1  0  0  0  0
 30 16  1  0  0  0  0
 31 20  1  6  0  0  0
 31  2  1  0  0  0  0
 32 15  1  0  0  0  0
 33 22  1  0  0  0  0
 34 30  2  0  0  0  0
 35 36  1  0  0  0  0
M  END
>  <MODEL>
6

>  <REMARK>
 VINA RESULT:      -6.8      2.802      8.525
  Name = 
  1 active torsions:
  status: ('A' for Active; 'I' for Inactive)
    1  A    between atoms: C_13  and  N_22
                            x       y       z     vdW  Elec       q    Type
                         _______ _______ _______ _____ _____    ______ ____

>  <TORSDO>
F 1

$$$$
=
 OpenBabel11062417103D

 36 39  0  0  1  0  0  0  0  0999 V2000
  186.5930  177.2680  136.9440 C   0  0  0  0  0  0  0  0  0  0  0  0
  190.2780  174.8410  137.4110 C   0  0  0  0  0  2  0  0  0  0  0  0
  190.0120  175.9940  139.5280 N   0  0  0  0  0  2  0  0  0  0  0  0
  188.1170  178.7760  142.1220 C   0  0  0  0  0  3  0  0  0  0  0  0
  188.2940  178.8810  137.5570 F   0  0  0  0  0  0  0  0  0  0  0  0
  191.8670  173.0450  136.4870 C   0  0  0  0  0  1  0  0  0  0  0  0
  191.2280  174.3820  136.3420 C   0  0  0  0  0  0  0  0  0  0  0  0
  184.4970  178.4130  140.4890 C   0  0  0  0  0  0  0  0  0  0  0  0
  184.5330  180.0150  143.9420 S   0  0  0  0  0  0  0  0  0  0  0  0
  185.3210  176.7260  137.2130 C   0  0  0  0  0  0  0  0  0  0  0  0
  183.1700  178.3520  142.1650 N   0  0  0  0  0  0  0  0  0  0  0  0
  190.8680  176.4230  134.8950 C   0  0  0  0  0  2  0  0  0  0  0  0
  185.5210  178.6390  144.5580 C   0  0  0  0  0  0  0  0  0  0  0  0
  183.3520  177.8650  140.9460 N   0  0  0  0  0  0  0  0  0  0  0  0
  184.6090  177.1230  138.3500 C   0  0  0  0  0  3  0  0  0  0  0  0
  189.3830  176.3020  134.5940 C   0  0  0  0  0  2  0  0  0  0  0  0
  187.7720  178.0670  143.3640 C   0  0  0  0  0  0  0  0  0  0  0  0
  190.7550  176.4600  140.6870 C   0  0  0  0  0  2  0  0  0  0  0  0
  189.0900  178.3090  141.3360 C   0  0  0  0  0  3  0  0  0  0  0  0
  191.3450  176.9410  137.8650 O   0  0  0  0  0  1  0  0  0  0  0  0
  187.0950  178.2880  137.7860 C   0  0  0  0  0  0  0  0  0  0  0  0
  189.5950  176.4440  142.8470 C   0  0  0  0  0  3  0  0  0  0  0  0
  189.8170  177.0650  141.6780 C   0  0  0  0  0  0  0  0  0  0  0  0
  185.0160  179.2330  141.3670 O   0  0  0  0  0  0  0  0  0  0  0  0
  184.2080  179.1780  142.3940 C   0  0  0  0  0  0  0  0  0  0  0  0
  191.4720  175.0850  135.2240 C   0  0  0  0  0  3  0  0  0  0  0  0
  184.7730  175.7650  136.3670 O   0  0  0  0  0  1  0  0  0  0  0  0
  186.6660  178.3660  143.9880 C   0  0  0  0  0  0  0  0  0  0  0  0
  186.3780  178.6730  138.9150 C   0  0  0  0  0  3  0  0  0  0  0  0
  188.6240  176.9460  135.6990 C   0  0  0  0  0  3  0  0  0  0  0  0
  190.9550  175.7330  138.4490 C   0  0  2  0  0  3  0  0  0  0  0  0
  185.1460  178.0850  139.2160 C   0  0  0  0  0  0  0  0  0  0  0  0
  188.6880  177.0110  143.9110 C   0  0  0  0  0  2  0  0  0  0  0  0
  187.3610  176.7200  135.8590 N   0  0  0  0  0  0  0  0  0  0  0  0
  185.0010  177.7450  145.5460 N   0  0  0  0  0  2  0  0  0  0  0  0
  185.0140  178.0590  146.9650 C   0  0  0  0  0  1  0  0  0  0  0  0
  1 10  2  0  0  0  0
  1 21  1  0  0  0  0
  2 31  1  0  0  0  0
  3 18  1  0  0  0  0
  4 17  1  0  0  0  0
  5 21  1  0  0  0  0
  7  6  1  0  0  0  0
  7  2  1  0  0  0  0
  8 14  2  0  0  0  0
  8 24  1  0  0  0  0
  9 13  1  0  0  0  0
 10 15  1  0  0  0  0
 11 25  2  0  0  0  0
 12 26  1  0  0  0  0
 13 35  1  0  0  0  0
 14 11  1  0  0  0  0
 15 32  2  0  0  0  0
 16 12  1  0  0  0  0
 16 30  1  0  0  0  0
 17 33  1  0  0  0  0
 17 28  2  0  0  0  0
 18 23  1  0  0  0  0
 19 23  1  0  0  0  0
 19  4  2  0  0  0  0
 21 29  2  0  0  0  0
 22 33  1  0  0  0  0
 23 22  2  0  0  0  0
 24 25  1  0  0  0  0
 25  9  1  0  0  0  0
 26  7  2  0  0  0  0
 27 10  1  0  0  0  0
 28 13  2  0  0  0  0
 29 32  1  0  0  0  0
 30 34  2  0  0  0  0
 31 20  1  6  0  0  0
 31  3  1  0  0  0  0
 32  8  1  0  0  0  0
 34  1  1  0  0  0  0
 35 36  1  0  0  0  0
M  END
>  <MODEL>
7

>  <REMARK>
 VINA RESULT:      -6.6      3.297      8.304
  Name = 
  1 active torsions:
  status: ('A' for Active; 'I' for Inactive)
    1  A    between atoms: C_13  and  N_22
                            x       y       z     vdW  Elec       q    Type
                         _______ _______ _______ _____ _____    ______ ____

>  <TORSDO>
F 1

$$$$
=
 OpenBabel11062417103D

 36 39  0  0  1  0  0  0  0  0999 V2000
  189.9260  176.7780  138.6940 C   0  0  0  0  0  0  0  0  0  0  0  0
  188.9320  176.9450  143.0150 C   0  0  0  0  0  2  0  0  0  0  0  0
  186.9100  177.6500  141.8760 N   0  0  0  0  0  2  0  0  0  0  0  0
  184.6720  178.7080  138.4220 C   0  0  0  0  0  3  0  0  0  0  0  0
  189.1860  179.0570  139.0470 F   0  0  0  0  0  0  0  0  0  0  0  0
  189.5880  176.4490  145.4500 C   0  0  0  0  0  1  0  0  0  0  0  0
  189.8620  177.1650  144.1730 C   0  0  0  0  0  0  0  0  0  0  0  0
  186.7020  176.3570  135.9210 C   0  0  0  0  0  0  0  0  0  0  0  0
  183.3370  177.5560  134.6030 S   0  0  0  0  0  0  0  0  0  0  0  0
  189.7860  175.5850  137.9570 C   0  0  0  0  0  0  0  0  0  0  0  0
  185.1910  175.4740  134.6900 N   0  0  0  0  0  0  0  0  0  0  0  0
  191.4240  178.6610  142.8650 C   0  0  0  0  0  2  0  0  0  0  0  0
  182.5540  176.9950  136.1270 C   0  0  0  0  0  0  0  0  0  0  0  0
  186.3600  175.2280  135.2670 N   0  0  0  0  0  0  0  0  0  0  0  0
  188.7580  175.4520  137.0180 C   0  0  0  0  0  3  0  0  0  0  0  0
  191.8920  177.7060  141.7790 C   0  0  0  0  0  2  0  0  0  0  0  0
  183.4510  177.8870  138.4110 C   0  0  0  0  0  0  0  0  0  0  0  0
  185.6920  178.4210  142.0630 C   0  0  0  0  0  2  0  0  0  0  0  0
  185.3190  178.9250  139.5700 C   0  0  0  0  0  3  0  0  0  0  0  0
  188.4420  179.2550  142.5930 O   0  0  0  0  0  1  0  0  0  0  0  0
  189.0740  177.8680  138.4020 C   0  0  0  0  0  0  0  0  0  0  0  0
  183.6840  177.6540  140.8840 C   0  0  0  0  0  3  0  0  0  0  0  0
  184.8430  178.3280  140.8390 C   0  0  0  0  0  0  0  0  0  0  0  0
  185.8030  177.2940  135.7540 O   0  0  0  0  0  0  0  0  0  0  0  0
  184.8770  176.7420  135.0150 C   0  0  0  0  0  0  0  0  0  0  0  0
  190.9720  177.9180  144.0920 C   0  0  0  0  0  3  0  0  0  0  0  0
  190.6510  174.5160  138.1780 O   0  0  0  0  0  1  0  0  0  0  0  0
  182.9730  177.4620  137.2740 C   0  0  0  0  0  0  0  0  0  0  0  0
  188.0540  177.7220  137.4670 C   0  0  0  0  0  3  0  0  0  0  0  0
  190.9110  177.7460  140.6620 C   0  0  0  0  0  3  0  0  0  0  0  0
  187.8590  178.0270  142.9140 C   0  0  2  0  0  3  0  0  0  0  0  0
  187.8750  176.5150  136.7850 C   0  0  0  0  0  0  0  0  0  0  0  0
  182.7580  177.5470  139.6980 C   0  0  0  0  0  2  0  0  0  0  0  0
  190.8910  176.8200  139.7600 N   0  0  0  0  0  0  0  0  0  0  0  0
  181.5970  175.9320  136.1130 N   0  0  0  0  0  2  0  0  0  0  0  0
  181.5980  174.8950  135.0940 C   0  0  0  0  0  1  0  0  0  0  0  0
  1 34  1  0  0  0  0
  2  7  1  0  0  0  0
  3 18  1  0  0  0  0
  3 31  1  0  0  0  0
  4 19  2  0  0  0  0
  7  6  1  0  0  0  0
  8 32  1  0  0  0  0
  9 25  1  0  0  0  0
  9 13  1  0  0  0  0
 10 27  1  0  0  0  0
 10  1  2  0  0  0  0
 11 25  2  0  0  0  0
 11 14  1  0  0  0  0
 12 26  1  0  0  0  0
 13 28  2  0  0  0  0
 14  8  2  0  0  0  0
 15 10  1  0  0  0  0
 16 12  1  0  0  0  0
 17  4  1  0  0  0  0
 17 33  1  0  0  0  0
 19 23  1  0  0  0  0
 21  1  1  0  0  0  0
 21  5  1  0  0  0  0
 23 22  2  0  0  0  0
 23 18  1  0  0  0  0
 24  8  1  0  0  0  0
 25 24  1  0  0  0  0
 26  7  2  0  0  0  0
 28 17  2  0  0  0  0
 29 21  2  0  0  0  0
 30 16  1  0  0  0  0
 31 20  1  6  0  0  0
 31  2  1  0  0  0  0
 32 15  2  0  0  0  0
 32 29  1  0  0  0  0
 33 22  1  0  0  0  0
 34 30  2  0  0  0  0
 35 13  1  0  0  0  0
 36 35  1  0  0  0  0
M  END
>  <MODEL>
8

>  <REMARK>
 VINA RESULT:      -6.6      3.127      7.740
  Name = 
  1 active torsions:
  status: ('A' for Active; 'I' for Inactive)
    1  A    between atoms: C_13  and  N_22
                            x       y       z     vdW  Elec       q    Type
                         _______ _______ _______ _____ _____    ______ ____

>  <TORSDO>
F 1

$$$$
=
 OpenBabel11062417103D

 36 39  0  0  1  0  0  0  0  0999 V2000
  189.5310  177.2550  138.3230 C   0  0  0  0  0  0  0  0  0  0  0  0
  186.2790  174.4470  137.2180 C   0  0  0  0  0  2  0  0  0  0  0  0
  188.2290  173.6550  136.0150 N   0  0  0  0  0  2  0  0  0  0  0  0
  192.2700  173.9390  134.7320 C   0  0  0  0  0  3  0  0  0  0  0  0
  189.4610  177.3480  135.9030 F   0  0  0  0  0  0  0  0  0  0  0  0
  183.8740  173.6100  137.5690 C   0  0  0  0  0  1  0  0  0  0  0  0
  184.8000  174.7090  137.1800 C   0  0  0  0  0  0  0  0  0  0  0  0
  193.5610  175.8780  137.9690 C   0  0  0  0  0  0  0  0  0  0  0  0
  196.3070  174.2900  135.8620 S   0  0  0  0  0  0  0  0  0  0  0  0
  190.3080  177.0550  139.4810 C   0  0  0  0  0  0  0  0  0  0  0  0
  195.4300  174.9440  138.4290 N   0  0  0  0  0  0  0  0  0  0  0  0
  185.0660  177.1360  136.5240 C   0  0  0  0  0  2  0  0  0  0  0  0
  195.4120  172.7260  135.8950 C   0  0  0  0  0  0  0  0  0  0  0  0
  194.3640  175.5010  138.9860 N   0  0  0  0  0  0  0  0  0  0  0  0
  191.6410  176.6430  139.3750 C   0  0  0  0  0  3  0  0  0  0  0  0
  185.8290  177.6740  137.7240 C   0  0  0  0  0  2  0  0  0  0  0  0
  192.9370  172.6700  135.0650 C   0  0  0  0  0  0  0  0  0  0  0  0
  188.6290  172.8860  134.8480 C   0  0  0  0  0  2  0  0  0  0  0  0
  190.9430  173.9800  134.5980 C   0  0  0  0  0  3  0  0  0  0  0  0
  186.7520  175.1230  134.9660 O   0  0  0  0  0  1  0  0  0  0  0  0
  190.1440  177.1270  137.0560 C   0  0  0  0  0  0  0  0  0  0  0  0
  190.6950  171.5760  135.0180 C   0  0  0  0  0  3  0  0  0  0  0  0
  190.1170  172.7680  134.8070 C   0  0  0  0  0  0  0  0  0  0  0  0
  194.0980  175.5940  136.8090 O   0  0  0  0  0  0  0  0  0  0  0  0
  195.2320  175.0100  137.0990 C   0  0  0  0  0  0  0  0  0  0  0  0
  184.2730  175.9090  136.8830 C   0  0  0  0  0  3  0  0  0  0  0  0
  189.7490  177.2360  140.7430 O   0  0  0  0  0  1  0  0  0  0  0  0
  194.1830  172.6810  135.4500 C   0  0  0  0  0  0  0  0  0  0  0  0
  191.4700  176.7140  136.9640 C   0  0  0  0  0  3  0  0  0  0  0  0
  187.2810  177.4490  137.4980 C   0  0  0  0  0  3  0  0  0  0  0  0
  186.8370  174.0480  135.8540 C   0  0  2  0  0  3  0  0  0  0  0  0
  192.2200  176.4510  138.1140 C   0  0  0  0  0  0  0  0  0  0  0  0
  192.1890  171.3730  134.9580 C   0  0  0  0  0  2  0  0  0  0  0  0
  188.1260  177.5230  138.4740 N   0  0  0  0  0  0  0  0  0  0  0  0
  195.9630  171.5780  136.5470 N   0  0  0  0  0  2  0  0  0  0  0  0
  195.5090  171.1310  137.8530 C   0  0  0  0  0  1  0  0  0  0  0  0
  1 34  1  0  0  0  0
  1 10  1  0  0  0  0
  4 17  1  0  0  0  0
  5 21  1  0  0  0  0
  7  2  1  0  0  0  0
  7  6  1  0  0  0  0
  8 32  1  0  0  0  0
  8 14  2  0  0  0  0
  9 13  1  0  0  0  0
  9 25  1  0  0  0  0
 10 27  1  0  0  0  0
 11 14  1  0  0  0  0
 12 26  1  0  0  0  0
 12 16  1  0  0  0  0
 13 35  1  0  0  0  0
 15 10  2  0  0  0  0
 17 28  2  0  0  0  0
 18  3  1  0  0  0  0
 19  4  2  0  0  0  0
 19 23  1  0  0  0  0
 21  1  2  0  0  0  0
 23 18  1  0  0  0  0
 23 22  2  0  0  0  0
 24 25  1  0  0  0  0
 24  8  1  0  0  0  0
 25 11  2  0  0  0  0
 26  7  2  0  0  0  0
 28 13  2  0  0  0  0
 29 21  1  0  0  0  0
 29 32  2  0  0  0  0
 30 16  1  0  0  0  0
 30 34  2  0  0  0  0
 31 20  1  6  0  0  0
 31  3  1  0  0  0  0
 31  2  1  0  0  0  0
 32 15  1  0  0  0  0
 33 22  1  0  0  0  0
 33 17  1  0  0  0  0
 35 36  1  0  0  0  0
M  END
>  <MODEL>
9

>  <REMARK>
 VINA RESULT:      -6.4      4.286      6.319
  Name = 
  1 active torsions:
  status: ('A' for Active; 'I' for Inactive)
    1  A    between atoms: C_13  and  N_22
                            x       y       z     vdW  Elec       q    Type
                         _______ _______ _______ _____ _____    ______ ____

>  <TORSDO>
F 1

$$$$
