=
 OpenBabel11062413533D

 25 26  0  0  1  0  0  0  0  0999 V2000
  189.5070  177.7810  148.3360 F   0  0  0  0  0  0  0  0  0  0  0  0
  189.0090  177.7640  146.0230 C   0  0  0  0  0  3  0  0  0  0  0  0
  189.8740  177.4530  147.0730 C   0  0  0  0  0  0  0  0  0  0  0  0
  190.5530  176.7860  144.4210 C   0  0  0  0  0  0  0  0  0  0  0  0
  191.4230  176.4980  145.4830 C   0  0  0  0  0  3  0  0  0  0  0  0
  191.1050  176.8270  146.8070 C   0  0  0  0  0  0  0  0  0  0  0  0
  189.3310  177.4510  144.6930 C   0  0  0  0  0  0  0  0  0  0  0  0
  186.2630  178.6060  141.4050 C   0  0  0  0  0  0  0  0  0  0  0  0
  187.5440  178.3550  140.6060 C   0  0  0  0  0  2  0  0  0  0  0  0
  184.8970  178.4070  143.2930 F   0  0  0  0  0  0  0  0  0  0  0  0
  188.7880  178.8360  141.3000 C   0  0  0  0  0  2  0  0  0  0  0  0
  188.4130  177.8950  143.6190 C   0  0  1  0  0  3  0  0  0  0  0  0
  186.0630  178.1180  142.6620 C   0  0  0  0  0  0  0  0  0  0  0  0
  188.8420  178.4240  142.5200 C   0  0  0  0  0  2  0  0  0  0  0  0
  187.0550  177.2570  143.4410 C   0  0  0  0  0  2  0  0  0  0  0  0
  183.7800  180.1900  139.1950 O   0  0  0  0  0  0  0  0  0  0  0  0
  184.7280  178.0750  138.7210 C   0  0  0  0  0  1  0  0  0  0  0  0
  185.2230  179.4260  140.8440 N   0  0  0  0  0  2  0  0  0  0  0  0
  184.5600  179.2820  139.5800 C   0  0  0  0  0  0  0  0  0  0  0  0
  191.8700  177.0180  142.3110 O   0  0  0  0  0  0  0  0  0  0  0  0
  190.9410  176.3170  143.0720 C   0  0  0  0  0  0  0  0  0  0  0  0
  190.3880  175.3010  142.5740 O   0  0  0  0  0  1  0  0  0  0  0  0
  192.0670  176.4950  147.8810 C   0  0  0  0  0  0  0  0  0  0  0  0
  192.6440  175.1950  147.9510 N   0  0  0  0  0  1  0  0  0  0  0  0
  192.3900  177.3520  148.7460 O   0  0  0  0  0  0  0  0  0  0  0  0
  2  3  1  0  0  0  0
  3  1  1  0  0  0  0
  4  7  1  0  0  0  0
  4  5  2  0  0  0  0
  5  6  1  0  0  0  0
  6  3  2  0  0  0  0
  6 23  1  0  0  0  0
  7  2  2  0  0  0  0
  8 13  2  0  0  0  0
  9 11  1  0  0  0  0
  9  8  1  0  0  0  0
 11 14  1  0  0  0  0
 12  7  1  6  0  0  0
 13 10  1  0  0  0  0
 13 15  1  0  0  0  0
 14 12  1  0  0  0  0
 15 12  1  0  0  0  0
 16 19  2  0  0  0  0
 17 19  1  0  0  0  0
 18  8  1  0  0  0  0
 19 18  1  0  0  0  0
 20 21  2  0  0  0  0
 21  4  1  0  0  0  0
 22 21  1  0  0  0  0
 23 24  1  0  0  0  0
 23 25  2  0  0  0  0
M  END
>  <MODEL>
1

>  <REMARK>
 VINA RESULT:      -8.9      0.000      0.000
  Name = 
  4 active torsions:
  status: ('A' for Active; 'I' for Inactive)
    1  A    between atoms: C_4  and  N_15
    2  A    between atoms: C_5  and  C_18
    3  A    between atoms: C_10  and  C_22
    4  A    between atoms: C_17  and  C_24
                            x       y       z     vdW  Elec       q    Type
                         _______ _______ _______ _____ _____    ______ ____

>  <TORSDO>
F 4

$$$$
=
 OpenBabel11062413533D

 25 26  0  0  1  0  0  0  0  0999 V2000
  189.1920  177.2650  148.0540 F   0  0  0  0  0  0  0  0  0  0  0  0
  188.6710  177.4510  145.7540 C   0  0  0  0  0  3  0  0  0  0  0  0
  189.5860  177.1460  146.7620 C   0  0  0  0  0  0  0  0  0  0  0  0
  190.3200  176.9050  144.0530 C   0  0  0  0  0  0  0  0  0  0  0  0
  191.2350  176.6210  145.0770 C   0  0  0  0  0  3  0  0  0  0  0  0
  190.8910  176.7410  146.4280 C   0  0  0  0  0  0  0  0  0  0  0  0
  189.0180  177.3490  144.3970 C   0  0  0  0  0  0  0  0  0  0  0  0
  186.1390  178.9080  141.1050 C   0  0  0  0  0  0  0  0  0  0  0  0
  185.3660  179.1870  142.3960 C   0  0  0  0  0  2  0  0  0  0  0  0
  188.0790  178.4580  139.8780 F   0  0  0  0  0  0  0  0  0  0  0  0
  185.5230  178.1090  143.4330 C   0  0  0  0  0  2  0  0  0  0  0  0
  188.0310  177.7810  143.3810 C   0  0  1  0  0  3  0  0  0  0  0  0
  187.4870  178.7120  141.0730 C   0  0  0  0  0  0  0  0  0  0  0  0
  186.7600  177.8030  143.6190 C   0  0  0  0  0  2  0  0  0  0  0  0
  188.4130  178.7520  142.2880 C   0  0  0  0  0  2  0  0  0  0  0  0
  183.8030  178.0100  138.4040 O   0  0  0  0  0  0  0  0  0  0  0  0
  183.3310  177.5760  140.6810 C   0  0  0  0  0  1  0  0  0  0  0  0
  185.4280  178.8020  139.8600 N   0  0  0  0  0  2  0  0  0  0  0  0
  184.1930  178.1220  139.5950 C   0  0  0  0  0  0  0  0  0  0  0  0
  191.6640  177.5060  142.0350 O   0  0  0  0  0  1  0  0  0  0  0  0
  190.7530  176.6610  142.6590 C   0  0  0  0  0  0  0  0  0  0  0  0
  190.2540  175.7100  142.0000 O   0  0  0  0  0  0  0  0  0  0  0  0
  191.9040  176.4250  147.4600 C   0  0  0  0  0  0  0  0  0  0  0  0
  192.6550  175.2170  147.3810 N   0  0  0  0  0  1  0  0  0  0  0  0
  192.1190  177.2150  148.4170 O   0  0  0  0  0  0  0  0  0  0  0  0
  2  3  1  0  0  0  0
  3  1  1  0  0  0  0
  4  7  1  0  0  0  0
  4  5  2  0  0  0  0
  5  6  1  0  0  0  0
  6  3  2  0  0  0  0
  6 23  1  0  0  0  0
  7  2  2  0  0  0  0
  8  9  1  0  0  0  0
  9 11  1  0  0  0  0
 10 13  1  0  0  0  0
 11 14  1  0  0  0  0
 12 14  1  0  0  0  0
 12  7  1  1  0  0  0
 13  8  2  0  0  0  0
 13 15  1  0  0  0  0
 15 12  1  0  0  0  0
 16 19  2  0  0  0  0
 18  8  1  0  0  0  0
 19 18  1  0  0  0  0
 19 17  1  0  0  0  0
 20 21  1  0  0  0  0
 21  4  1  0  0  0  0
 22 21  2  0  0  0  0
 23 25  2  0  0  0  0
 24 23  1  0  0  0  0
M  END
>  <MODEL>
2

>  <REMARK>
 VINA RESULT:      -8.7      1.313      1.798
  Name = 
  4 active torsions:
  status: ('A' for Active; 'I' for Inactive)
    1  A    between atoms: C_4  and  N_15
    2  A    between atoms: C_5  and  C_18
    3  A    between atoms: C_10  and  C_22
    4  A    between atoms: C_17  and  C_24
                            x       y       z     vdW  Elec       q    Type
                         _______ _______ _______ _____ _____    ______ ____

>  <TORSDO>
F 4

$$$$
=
 OpenBabel11062413533D

 25 26  0  0  1  0  0  0  0  0999 V2000
  188.9200  177.7000  148.8430 F   0  0  0  0  0  0  0  0  0  0  0  0
  187.7210  177.7650  146.8040 C   0  0  0  0  0  3  0  0  0  0  0  0
  188.8980  177.4940  147.5020 C   0  0  0  0  0  0  0  0  0  0  0  0
  188.7650  177.0730  144.7200 C   0  0  0  0  0  0  0  0  0  0  0  0
  189.9470  176.8240  145.4320 C   0  0  0  0  0  3  0  0  0  0  0  0
  190.0340  177.0330  146.8140 C   0  0  0  0  0  0  0  0  0  0  0  0
  187.6350  177.5730  145.4160 C   0  0  0  0  0  0  0  0  0  0  0  0
  183.9050  178.9700  143.0300 C   0  0  0  0  0  0  0  0  0  0  0  0
  183.6790  179.5890  144.4120 C   0  0  0  0  0  2  0  0  0  0  0  0
  185.2210  178.0110  141.3520 F   0  0  0  0  0  0  0  0  0  0  0  0
  184.1070  178.6970  145.5450 C   0  0  0  0  0  2  0  0  0  0  0  0
  186.3880  177.9720  144.7230 C   0  0  1  0  0  3  0  0  0  0  0  0
  185.1270  178.5600  142.5890 C   0  0  0  0  0  0  0  0  0  0  0  0
  185.2960  178.2360  145.3640 C   0  0  0  0  0  2  0  0  0  0  0  0
  186.4300  178.6640  143.3800 C   0  0  0  0  0  2  0  0  0  0  0  0
  180.5950  178.2300  141.5950 O   0  0  0  0  0  0  0  0  0  0  0  0
  180.8980  178.7210  143.8890 C   0  0  0  0  0  1  0  0  0  0  0  0
  182.7840  178.7620  142.1520 N   0  0  0  0  0  2  0  0  0  0  0  0
  181.4100  178.5460  142.5000 C   0  0  0  0  0  0  0  0  0  0  0  0
  189.2910  177.6000  142.3360 O   0  0  0  0  0  0  0  0  0  0  0  0
  188.7480  176.7350  143.2790 C   0  0  0  0  0  0  0  0  0  0  0  0
  188.1880  175.6770  142.8850 O   0  0  0  0  0  1  0  0  0  0  0  0
  191.3120  176.7510  147.5050 C   0  0  0  0  0  0  0  0  0  0  0  0
  192.0330  175.5560  147.2190 N   0  0  0  0  0  1  0  0  0  0  0  0
  191.7810  177.5570  148.3510 O   0  0  0  0  0  0  0  0  0  0  0  0
  2  3  1  0  0  0  0
  3  1  1  0  0  0  0
  4  7  1  0  0  0  0
  4  5  2  0  0  0  0
  5  6  1  0  0  0  0
  6  3  2  0  0  0  0
  6 23  1  0  0  0  0
  7  2  2  0  0  0  0
  8  9  1  0  0  0  0
  9 11  1  0  0  0  0
 10 13  1  0  0  0  0
 12 14  1  0  0  0  0
 12  7  1  1  0  0  0
 13  8  2  0  0  0  0
 13 15  1  0  0  0  0
 14 11  1  0  0  0  0
 15 12  1  0  0  0  0
 16 19  2  0  0  0  0
 18 19  1  0  0  0  0
 18  8  1  0  0  0  0
 19 17  1  0  0  0  0
 20 21  2  0  0  0  0
 21  4  1  0  0  0  0
 22 21  1  0  0  0  0
 23 25  2  0  0  0  0
 24 23  1  0  0  0  0
M  END
>  <MODEL>
3

>  <REMARK>
 VINA RESULT:      -8.6      2.403      3.067
  Name = 
  4 active torsions:
  status: ('A' for Active; 'I' for Inactive)
    1  A    between atoms: C_4  and  N_15
    2  A    between atoms: C_5  and  C_18
    3  A    between atoms: C_10  and  C_22
    4  A    between atoms: C_17  and  C_24
                            x       y       z     vdW  Elec       q    Type
                         _______ _______ _______ _____ _____    ______ ____

>  <TORSDO>
F 4

$$$$
=
 OpenBabel11062413533D

 25 26  0  0  1  0  0  0  0  0999 V2000
  185.3180  178.7090  147.5400 F   0  0  0  0  0  0  0  0  0  0  0  0
  185.6310  178.3650  145.2200 C   0  0  0  0  0  3  0  0  0  0  0  0
  186.1260  178.3170  146.5240 C   0  0  0  0  0  0  0  0  0  0  0  0
  187.7330  177.5000  144.3590 C   0  0  0  0  0  0  0  0  0  0  0  0
  188.2240  177.4760  145.6720 C   0  0  0  0  0  3  0  0  0  0  0  0
  187.4430  177.8840  146.7600 C   0  0  0  0  0  0  0  0  0  0  0  0
  186.4170  177.9730  144.1250 C   0  0  0  0  0  0  0  0  0  0  0  0
  184.9170  178.7020  139.7920 C   0  0  0  0  0  0  0  0  0  0  0  0
  183.7150  179.1170  140.6450 C   0  0  0  0  0  2  0  0  0  0  0  0
  187.1830  178.2380  139.4480 F   0  0  0  0  0  0  0  0  0  0  0  0
  183.5060  178.2420  141.8500 C   0  0  0  0  0  2  0  0  0  0  0  0
  185.8640  178.1410  142.7610 C   0  0  1  0  0  3  0  0  0  0  0  0
  186.1870  178.6280  140.2820 C   0  0  0  0  0  0  0  0  0  0  0  0
  184.5950  178.0850  142.5190 C   0  0  0  0  0  2  0  0  0  0  0  0
  186.5980  178.9500  141.7170 C   0  0  0  0  0  2  0  0  0  0  0  0
  184.1180  176.9350  136.6620 O   0  0  0  0  0  0  0  0  0  0  0  0
  183.2680  176.2420  138.7580 C   0  0  0  0  0  1  0  0  0  0  0  0
  184.7190  178.3290  138.4170 N   0  0  0  0  0  2  0  0  0  0  0  0
  184.0590  177.1670  137.8970 C   0  0  0  0  0  0  0  0  0  0  0  0
  189.6040  177.7490  142.7230 O   0  0  0  0  0  0  0  0  0  0  0  0
  188.6070  176.9650  143.2910 C   0  0  0  0  0  0  0  0  0  0  0  0
  188.4160  175.8020  142.8440 O   0  0  0  0  0  1  0  0  0  0  0  0
  188.0220  177.8340  148.1210 C   0  0  0  0  0  0  0  0  0  0  0  0
  189.1740  178.6090  148.4390 N   0  0  0  0  0  1  0  0  0  0  0  0
  187.5080  177.1100  149.0150 O   0  0  0  0  0  0  0  0  0  0  0  0
  2  3  1  0  0  0  0
  3  6  2  0  0  0  0
  3  1  1  0  0  0  0
  4  5  2  0  0  0  0
  5  6  1  0  0  0  0
  6 23  1  0  0  0  0
  7  4  1  0  0  0  0
  7  2  2  0  0  0  0
  8 13  2  0  0  0  0
  8  9  1  0  0  0  0
  9 11  1  0  0  0  0
 10 13  1  0  0  0  0
 11 14  1  0  0  0  0
 12  7  1  1  0  0  0
 13 15  1  0  0  0  0
 14 12  1  0  0  0  0
 15 12  1  0  0  0  0
 16 19  2  0  0  0  0
 18  8  1  0  0  0  0
 19 18  1  0  0  0  0
 19 17  1  0  0  0  0
 20 21  2  0  0  0  0
 21  4  1  0  0  0  0
 22 21  1  0  0  0  0
 23 24  1  0  0  0  0
 23 25  2  0  0  0  0
M  END
>  <MODEL>
4

>  <REMARK>
 VINA RESULT:      -8.5      2.775      3.550
  Name = 
  4 active torsions:
  status: ('A' for Active; 'I' for Inactive)
    1  A    between atoms: C_4  and  N_15
    2  A    between atoms: C_5  and  C_18
    3  A    between atoms: C_10  and  C_22
    4  A    between atoms: C_17  and  C_24
                            x       y       z     vdW  Elec       q    Type
                         _______ _______ _______ _____ _____    ______ ____

>  <TORSDO>
F 4

$$$$
=
 OpenBabel11062413533D

 25 26  0  0  1  0  0  0  0  0999 V2000
  182.7370  178.6220  143.4920 F   0  0  0  0  0  0  0  0  0  0  0  0
  185.0150  178.3260  144.0590 C   0  0  0  0  0  3  0  0  0  0  0  0
  184.0270  178.5030  143.0900 C   0  0  0  0  0  0  0  0  0  0  0  0
  186.7320  178.2680  142.3390 C   0  0  0  0  0  0  0  0  0  0  0  0
  185.7260  178.4250  141.3750 C   0  0  0  0  0  3  0  0  0  0  0  0
  184.3760  178.5380  141.7290 C   0  0  0  0  0  0  0  0  0  0  0  0
  186.3680  178.1950  143.7080 C   0  0  0  0  0  0  0  0  0  0  0  0
  189.5740  177.0860  146.8770 C   0  0  0  0  0  0  0  0  0  0  0  0
  188.2590  176.8610  147.6270 C   0  0  0  0  0  2  0  0  0  0  0  0
  190.8700  177.3410  144.9480 F   0  0  0  0  0  0  0  0  0  0  0  0
  187.2020  177.8810  147.3040 C   0  0  0  0  0  2  0  0  0  0  0  0
  187.3520  177.9130  144.7780 C   0  0  1  0  0  3  0  0  0  0  0  0
  189.6580  177.1230  145.5180 C   0  0  0  0  0  0  0  0  0  0  0  0
  187.0620  178.0340  146.0320 C   0  0  0  0  0  2  0  0  0  0  0  0
  188.4850  176.9380  144.5570 C   0  0  0  0  0  2  0  0  0  0  0  0
  192.8180  176.7490  148.5870 O   0  0  0  0  0  0  0  0  0  0  0  0
  192.0730  175.1910  146.9710 C   0  0  0  0  0  1  0  0  0  0  0  0
  190.7850  177.3120  147.6190 N   0  0  0  0  0  2  0  0  0  0  0  0
  191.9120  176.4380  147.7720 C   0  0  0  0  0  0  0  0  0  0  0  0
  188.6620  177.1280  141.2380 O   0  0  0  0  0  0  0  0  0  0  0  0
  188.1350  178.2480  141.8690 C   0  0  0  0  0  0  0  0  0  0  0  0
  188.8880  179.2350  142.0880 O   0  0  0  0  0  1  0  0  0  0  0  0
  183.3640  178.7030  140.6610 C   0  0  0  0  0  0  0  0  0  0  0  0
  183.5950  179.6100  139.5870 N   0  0  0  0  0  1  0  0  0  0  0  0
  182.2890  178.0480  140.6840 O   0  0  0  0  0  0  0  0  0  0  0  0
  3  1  1  0  0  0  0
  3  2  2  0  0  0  0
  4  7  2  0  0  0  0
  5  6  2  0  0  0  0
  5  4  1  0  0  0  0
  6  3  1  0  0  0  0
  7  2  1  0  0  0  0
  8 18  1  0  0  0  0
  8  9  1  0  0  0  0
 10 13  1  0  0  0  0
 11  9  1  0  0  0  0
 12  7  1  6  0  0  0
 12 14  1  0  0  0  0
 13  8  2  0  0  0  0
 14 11  1  0  0  0  0
 15 12  1  0  0  0  0
 15 13  1  0  0  0  0
 17 19  1  0  0  0  0
 18 19  1  0  0  0  0
 19 16  2  0  0  0  0
 20 21  2  0  0  0  0
 21 22  1  0  0  0  0
 21  4  1  0  0  0  0
 23 25  2  0  0  0  0
 23  6  1  0  0  0  0
 24 23  1  0  0  0  0
M  END
>  <MODEL>
5

>  <REMARK>
 VINA RESULT:      -8.3      1.984      7.885
  Name = 
  4 active torsions:
  status: ('A' for Active; 'I' for Inactive)
    1  A    between atoms: C_4  and  N_15
    2  A    between atoms: C_5  and  C_18
    3  A    between atoms: C_10  and  C_22
    4  A    between atoms: C_17  and  C_24
                            x       y       z     vdW  Elec       q    Type
                         _______ _______ _______ _____ _____    ______ ____

>  <TORSDO>
F 4

$$$$
=
 OpenBabel11062413533D

 25 26  0  0  1  0  0  0  0  0999 V2000
  180.4140  178.6830  144.7160 F   0  0  0  0  0  0  0  0  0  0  0  0
  182.7390  178.6290  144.2830 C   0  0  0  0  0  3  0  0  0  0  0  0
  181.4260  178.6900  143.8140 C   0  0  0  0  0  0  0  0  0  0  0  0
  183.5870  178.7210  142.0070 C   0  0  0  0  0  0  0  0  0  0  0  0
  182.2620  178.7610  141.5490 C   0  0  0  0  0  3  0  0  0  0  0  0
  181.1750  178.7400  142.4320 C   0  0  0  0  0  0  0  0  0  0  0  0
  183.8310  178.6320  143.4010 C   0  0  0  0  0  0  0  0  0  0  0  0
  188.1490  177.8920  144.9390 C   0  0  0  0  0  0  0  0  0  0  0  0
  187.2920  177.6140  146.1760 C   0  0  0  0  0  2  0  0  0  0  0  0
  188.4910  178.1440  142.6390 F   0  0  0  0  0  0  0  0  0  0  0  0
  186.1180  178.5440  146.3140 C   0  0  0  0  0  2  0  0  0  0  0  0
  185.1930  178.4680  143.9600 C   0  0  1  0  0  3  0  0  0  0  0  0
  187.6520  177.8710  143.6700 C   0  0  0  0  0  0  0  0  0  0  0  0
  185.4460  178.6270  145.2180 C   0  0  0  0  0  2  0  0  0  0  0  0
  186.2040  177.5620  143.2960 C   0  0  0  0  0  2  0  0  0  0  0  0
  191.8260  177.8540  145.1360 O   0  0  0  0  0  0  0  0  0  0  0  0
  190.6020  176.1650  144.0200 C   0  0  0  0  0  1  0  0  0  0  0  0
  189.5360  178.2340  145.0970 N   0  0  0  0  0  2  0  0  0  0  0  0
  190.6910  177.4420  144.7840 C   0  0  0  0  0  0  0  0  0  0  0  0
  185.6990  179.7520  141.1600 O   0  0  0  0  0  1  0  0  0  0  0  0
  184.6640  178.8380  140.9990 C   0  0  0  0  0  0  0  0  0  0  0  0
  184.6240  178.1430  139.9480 O   0  0  0  0  0  0  0  0  0  0  0  0
  179.8020  178.7860  141.8830 C   0  0  0  0  0  0  0  0  0  0  0  0
  179.3840  179.8890  141.0840 N   0  0  0  0  0  1  0  0  0  0  0  0
  178.9850  177.8550  142.1100 O   0  0  0  0  0  0  0  0  0  0  0  0
  3  2  1  0  0  0  0
  3  1  1  0  0  0  0
  4  7  1  0  0  0  0
  5  4  2  0  0  0  0
  5  6  1  0  0  0  0
  6  3  2  0  0  0  0
  7  2  2  0  0  0  0
  8 18  1  0  0  0  0
  8  9  1  0  0  0  0
  9 11  1  0  0  0  0
 10 13  1  0  0  0  0
 12  7  1  1  0  0  0
 12 14  1  0  0  0  0
 13  8  2  0  0  0  0
 14 11  1  0  0  0  0
 15 13  1  0  0  0  0
 15 12  1  0  0  0  0
 17 19  1  0  0  0  0
 19 18  1  0  0  0  0
 19 16  2  0  0  0  0
 21 20  1  0  0  0  0
 21  4  1  0  0  0  0
 22 21  2  0  0  0  0
 23 25  2  0  0  0  0
 23  6  1  0  0  0  0
 24 23  1  0  0  0  0
M  END
>  <MODEL>
6

>  <REMARK>
 VINA RESULT:      -8.2      3.413      8.372
  Name = 
  4 active torsions:
  status: ('A' for Active; 'I' for Inactive)
    1  A    between atoms: C_4  and  N_15
    2  A    between atoms: C_5  and  C_18
    3  A    between atoms: C_10  and  C_22
    4  A    between atoms: C_17  and  C_24
                            x       y       z     vdW  Elec       q    Type
                         _______ _______ _______ _____ _____    ______ ____

>  <TORSDO>
F 4

$$$$
=
 OpenBabel11062413533D

 25 26  0  0  1  0  0  0  0  0999 V2000
  183.7370  179.0700  142.5660 F   0  0  0  0  0  0  0  0  0  0  0  0
  186.0260  178.4740  142.5980 C   0  0  0  0  0  3  0  0  0  0  0  0
  184.8790  178.8180  141.8810 C   0  0  0  0  0  0  0  0  0  0  0  0
  187.2990  178.3000  140.5340 C   0  0  0  0  0  0  0  0  0  0  0  0
  186.1340  178.6280  139.8250 C   0  0  0  0  0  3  0  0  0  0  0  0
  184.9210  178.8830  140.4770 C   0  0  0  0  0  0  0  0  0  0  0  0
  187.2390  178.2010  141.9470 C   0  0  0  0  0  0  0  0  0  0  0  0
  191.0040  177.0370  144.4040 C   0  0  0  0  0  0  0  0  0  0  0  0
  190.8340  175.8490  143.4530 C   0  0  0  0  0  2  0  0  0  0  0  0
  190.6470  179.2460  145.0830 F   0  0  0  0  0  0  0  0  0  0  0  0
  189.3970  175.4710  143.2180 C   0  0  0  0  0  2  0  0  0  0  0  0
  188.3910  177.7470  142.7600 C   0  0  1  0  0  3  0  0  0  0  0  0
  190.4480  178.2590  144.1720 C   0  0  0  0  0  0  0  0  0  0  0  0
  188.6800  176.4950  142.9100 C   0  0  0  0  0  2  0  0  0  0  0  0
  189.6040  178.6280  142.9540 C   0  0  0  0  0  2  0  0  0  0  0  0
  192.0570  176.7900  147.9230 O   0  0  0  0  0  0  0  0  0  0  0  0
  189.7890  176.6400  147.2690 C   0  0  0  0  0  1  0  0  0  0  0  0
  191.7440  176.8700  145.6250 N   0  0  0  0  0  2  0  0  0  0  0  0
  191.2410  176.7820  146.9660 C   0  0  0  0  0  0  0  0  0  0  0  0
  189.2160  176.9190  139.7250 O   0  0  0  0  0  1  0  0  0  0  0  0
  188.5490  178.1380  139.7590 C   0  0  0  0  0  0  0  0  0  0  0  0
  189.0550  179.1260  139.1630 O   0  0  0  0  0  0  0  0  0  0  0  0
  183.7280  179.2230  139.6700 C   0  0  0  0  0  0  0  0  0  0  0  0
  182.6570  178.2920  139.5450 N   0  0  0  0  0  1  0  0  0  0  0  0
  183.6410  180.3350  139.0840 O   0  0  0  0  0  0  0  0  0  0  0  0
  3  1  1  0  0  0  0
  3  2  2  0  0  0  0
  4  7  2  0  0  0  0
  5  6  2  0  0  0  0
  5  4  1  0  0  0  0
  6  3  1  0  0  0  0
  7  2  1  0  0  0  0
  8 18  1  0  0  0  0
  9  8  1  0  0  0  0
 11  9  1  0  0  0  0
 12  7  1  6  0  0  0
 12 14  1  0  0  0  0
 12 15  1  0  0  0  0
 13  8  2  0  0  0  0
 13 10  1  0  0  0  0
 14 11  1  0  0  0  0
 15 13  1  0  0  0  0
 18 19  1  0  0  0  0
 19 17  1  0  0  0  0
 19 16  2  0  0  0  0
 20 21  1  0  0  0  0
 21  4  1  0  0  0  0
 22 21  2  0  0  0  0
 23  6  1  0  0  0  0
 24 23  1  0  0  0  0
 25 23  2  0  0  0  0
M  END
>  <MODEL>
7

>  <REMARK>
 VINA RESULT:      -8.1      1.909      7.685
  Name = 
  4 active torsions:
  status: ('A' for Active; 'I' for Inactive)
    1  A    between atoms: C_4  and  N_15
    2  A    between atoms: C_5  and  C_18
    3  A    between atoms: C_10  and  C_22
    4  A    between atoms: C_17  and  C_24
                            x       y       z     vdW  Elec       q    Type
                         _______ _______ _______ _____ _____    ______ ____

>  <TORSDO>
F 4

$$$$
=
 OpenBabel11062413533D

 25 26  0  0  1  0  0  0  0  0999 V2000
  186.6520  178.5040  138.4840 F   0  0  0  0  0  0  0  0  0  0  0  0
  187.5080  178.0590  140.6440 C   0  0  0  0  0  3  0  0  0  0  0  0
  186.4610  178.4850  139.8260 C   0  0  0  0  0  0  0  0  0  0  0  0
  186.1380  178.3960  142.6240 C   0  0  0  0  0  0  0  0  0  0  0  0
  185.1010  178.8420  141.7910 C   0  0  0  0  0  3  0  0  0  0  0  0
  185.2450  178.8990  140.3990 C   0  0  0  0  0  0  0  0  0  0  0  0
  187.3730  178.0170  142.0410 C   0  0  0  0  0  0  0  0  0  0  0  0
  191.1940  177.1440  144.5310 C   0  0  0  0  0  0  0  0  0  0  0  0
  191.2240  176.0490  143.4620 C   0  0  0  0  0  2  0  0  0  0  0  0
  190.5030  179.1980  145.4100 F   0  0  0  0  0  0  0  0  0  0  0  0
  189.8650  175.4990  143.1280 C   0  0  0  0  0  2  0  0  0  0  0  0
  188.5550  177.6470  142.8550 C   0  0  1  0  0  3  0  0  0  0  0  0
  190.4750  178.2940  144.3980 C   0  0  0  0  0  0  0  0  0  0  0  0
  189.0160  176.4390  142.8920 C   0  0  0  0  0  2  0  0  0  0  0  0
  189.6210  178.6640  143.1870 C   0  0  0  0  0  2  0  0  0  0  0  0
  192.1790  176.7700  148.0600 O   0  0  0  0  0  0  0  0  0  0  0  0
  189.9410  176.5160  147.3390 C   0  0  0  0  0  1  0  0  0  0  0  0
  191.9150  176.9560  145.7610 N   0  0  0  0  0  2  0  0  0  0  0  0
  191.3880  176.7640  147.0820 C   0  0  0  0  0  0  0  0  0  0  0  0
  186.2790  177.1850  144.8040 O   0  0  0  0  0  1  0  0  0  0  0  0
  185.8550  178.2880  144.0720 C   0  0  0  0  0  0  0  0  0  0  0  0
  185.1720  179.1770  144.6500 O   0  0  0  0  0  0  0  0  0  0  0  0
  184.1120  179.3780  139.5780 C   0  0  0  0  0  0  0  0  0  0  0  0
  182.9080  178.6200  139.5030 N   0  0  0  0  0  1  0  0  0  0  0  0
  184.1920  180.4590  138.9360 O   0  0  0  0  0  0  0  0  0  0  0  0
  1  3  1  0  0  0  0
  2  7  1  0  0  0  0
  3  6  1  0  0  0  0
  3  2  2  0  0  0  0
  4 21  1  0  0  0  0
  5  4  1  0  0  0  0
  6  5  2  0  0  0  0
  7  4  2  0  0  0  0
  8 18  1  0  0  0  0
  9  8  1  0  0  0  0
 11  9  1  0  0  0  0
 12  7  1  6  0  0  0
 12 14  1  0  0  0  0
 12 15  1  0  0  0  0
 13  8  2  0  0  0  0
 13 10  1  0  0  0  0
 14 11  1  0  0  0  0
 15 13  1  0  0  0  0
 18 19  1  0  0  0  0
 19 17  1  0  0  0  0
 19 16  2  0  0  0  0
 21 22  2  0  0  0  0
 21 20  1  0  0  0  0
 23  6  1  0  0  0  0
 24 23  1  0  0  0  0
 25 23  2  0  0  0  0
M  END
>  <MODEL>
8

>  <REMARK>
 VINA RESULT:      -8.1      2.333      7.960
  Name = 
  4 active torsions:
  status: ('A' for Active; 'I' for Inactive)
    1  A    between atoms: C_4  and  N_15
    2  A    between atoms: C_5  and  C_18
    3  A    between atoms: C_10  and  C_22
    4  A    between atoms: C_17  and  C_24
                            x       y       z     vdW  Elec       q    Type
                         _______ _______ _______ _____ _____    ______ ____

>  <TORSDO>
F 4

$$$$
=
 OpenBabel11062413533D

 25 26  0  0  1  0  0  0  0  0999 V2000
  181.6330  178.4650  140.8950 F   0  0  0  0  0  0  0  0  0  0  0  0
  183.7380  178.2730  141.9580 C   0  0  0  0  0  3  0  0  0  0  0  0
  182.3880  178.6260  142.0100 C   0  0  0  0  0  0  0  0  0  0  0  0
  184.0230  178.9090  144.2870 C   0  0  0  0  0  0  0  0  0  0  0  0
  182.6700  179.2780  144.3190 C   0  0  0  0  0  3  0  0  0  0  0  0
  181.8440  179.1500  143.1950 C   0  0  0  0  0  0  0  0  0  0  0  0
  184.5730  178.4160  143.0770 C   0  0  0  0  0  0  0  0  0  0  0  0
  189.0470  177.4540  142.2920 C   0  0  0  0  0  0  0  0  0  0  0  0
  188.6100  176.3170  143.2180 C   0  0  0  0  0  2  0  0  0  0  0  0
  188.6560  179.1980  140.7840 F   0  0  0  0  0  0  0  0  0  0  0  0
  187.6530  176.7540  144.2930 C   0  0  0  0  0  2  0  0  0  0  0  0
  186.0160  178.1150  142.9260 C   0  0  1  0  0  3  0  0  0  0  0  0
  188.1690  178.2030  141.5680 C   0  0  0  0  0  0  0  0  0  0  0  0
  186.6770  177.4420  143.8100 C   0  0  0  0  0  2  0  0  0  0  0  0
  186.6530  178.0200  141.5590 C   0  0  0  0  0  2  0  0  0  0  0  0
  192.5880  177.7230  141.3170 O   0  0  0  0  0  0  0  0  0  0  0  0
  190.9370  176.8630  139.8580 C   0  0  0  0  0  1  0  0  0  0  0  0
  190.4410  177.7960  142.1950 N   0  0  0  0  0  2  0  0  0  0  0  0
  191.3680  177.4650  141.1520 C   0  0  0  0  0  0  0  0  0  0  0  0
  184.5620  178.1010  146.5880 O   0  0  0  0  0  1  0  0  0  0  0  0
  184.7870  178.9990  145.5510 C   0  0  0  0  0  0  0  0  0  0  0  0
  185.6170  179.9320  145.7220 O   0  0  0  0  0  0  0  0  0  0  0  0
  180.4250  179.5580  143.2960 C   0  0  0  0  0  0  0  0  0  0  0  0
  179.4710  178.6910  143.9030 N   0  0  0  0  0  1  0  0  0  0  0  0
  180.0400  180.6700  142.8500 O   0  0  0  0  0  0  0  0  0  0  0  0
  1  3  1  0  0  0  0
  2  3  2  0  0  0  0
  2  7  1  0  0  0  0
  3  6  1  0  0  0  0
  4  5  1  0  0  0  0
  4 21  1  0  0  0  0
  6 23  1  0  0  0  0
  6  5  2  0  0  0  0
  7  4  2  0  0  0  0
  8  9  1  0  0  0  0
  9 11  1  0  0  0  0
 10 13  1  0  0  0  0
 12  7  1  6  0  0  0
 12 14  1  0  0  0  0
 13  8  2  0  0  0  0
 14 11  1  0  0  0  0
 15 13  1  0  0  0  0
 15 12  1  0  0  0  0
 17 19  1  0  0  0  0
 18  8  1  0  0  0  0
 19 16  2  0  0  0  0
 19 18  1  0  0  0  0
 21 22  2  0  0  0  0
 21 20  1  0  0  0  0
 23 24  1  0  0  0  0
 25 23  2  0  0  0  0
M  END
>  <MODEL>
9

>  <REMARK>
 VINA RESULT:      -7.9      3.858      7.868
  Name = 
  4 active torsions:
  status: ('A' for Active; 'I' for Inactive)
    1  A    between atoms: C_4  and  N_15
    2  A    between atoms: C_5  and  C_18
    3  A    between atoms: C_10  and  C_22
    4  A    between atoms: C_17  and  C_24
                            x       y       z     vdW  Elec       q    Type
                         _______ _______ _______ _____ _____    ______ ____

>  <TORSDO>
F 4

$$$$
