=
 OpenBabel11062413493D

 52 56  0  0  1  0  0  0  0  0999 V2000
  188.2050  175.8960  136.0520 C   0  0  1  0  0  3  0  0  0  0  0  0
  187.4980  178.4030  141.2470 C   0  0  0  0  0  0  0  0  0  0  0  0
  184.9420  173.9170  135.4900 C   0  0  0  0  0  3  0  0  0  0  0  0
  183.8350  179.3390  140.5500 C   0  0  0  0  0  2  0  0  0  0  0  0
  186.7410  175.6750  135.6910 C   0  0  2  0  0  3  0  0  0  0  0  0
  183.6350  176.0020  135.5190 C   0  0  0  0  0  0  0  0  0  0  0  0
  186.0040  176.8010  135.6140 C   0  0  0  0  0  2  0  0  0  0  0  0
  188.3400  178.1090  142.4420 C   0  0  0  0  0  1  0  0  0  0  0  0
  184.5500  176.9290  135.7950 C   0  0  0  0  0  3  0  0  0  0  0  0
  188.2660  178.0010  137.2900 C   0  0  0  0  0  2  0  0  0  0  0  0
  186.0930  178.8260  141.4390 C   0  0  0  0  0  3  0  0  0  0  0  0
  188.2720  176.4920  137.4750 C   0  0  1  0  0  0  0  0  0  0  0  0
  181.7600  178.9940  139.1540 C   0  0  1  0  0  3  0  0  0  0  0  0
  180.8890  177.4660  137.5570 C   0  0  0  0  0  2  0  0  0  0  0  0
  186.1490  174.3240  135.8940 C   0  0  0  0  0  3  0  0  0  0  0  0
  187.9470  178.1960  140.0090 C   0  0  0  0  0  3  0  0  0  0  0  0
  185.2630  178.9580  140.4030 C   0  0  0  0  0  3  0  0  0  0  0  0
  187.2830  176.0680  138.3720 O   0  0  0  0  0  1  0  0  0  0  0  0
  182.1190  176.5830  137.4130 C   0  0  0  0  0  2  0  0  0  0  0  0
  182.3100  176.1600  136.0300 N   0  0  0  0  0  2  0  0  0  0  0  0
  189.4020  177.3510  138.0630 C   0  0  2  0  0  3  0  0  0  0  0  0
  181.2910  178.8540  137.7760 N   0  0  0  0  0  2  0  0  0  0  0  0
  189.2750  177.6150  139.5960 C   0  0  0  0  0  2  0  0  0  0  0  0
  183.9860  174.7850  134.7330 C   0  0  0  0  0  2  0  0  0  0  0  0
  183.2280  179.4120  139.1530 C   0  0  0  0  0  2  0  0  0  0  0  0
  180.9090  180.0170  139.8950 C   0  0  0  0  0  2  0  0  0  0  0  0
  181.5070  183.5930  137.5190 C   0  0  0  0  0  2  0  0  0  0  0  0
  180.0740  181.7350  138.2340 C   0  0  0  0  0  0  0  0  0  0  0  0
  179.1370  183.6440  136.8760 C   0  0  0  0  0  2  0  0  0  0  0  0
  181.2300  182.3350  138.2230 N   0  0  0  0  0  0  0  0  0  0  0  0
  180.5520  183.8020  136.3520 C   0  0  1  0  0  3  0  0  0  0  0  0
  178.9310  182.2180  137.3850 C   0  0  0  0  0  2  0  0  0  0  0  0
  179.8920  180.5390  138.9970 N   0  0  0  0  0  2  0  0  0  0  0  0
  180.7320  185.1990  135.7990 C   0  0  0  0  0  1  0  0  0  0  0  0
  189.1000  174.6480  135.8990 C   0  0  2  0  0  3  0  0  0  0  0  0
  190.5650  175.0090  135.9380 C   0  0  0  0  0  0  0  0  0  0  0  0
  190.1080  176.9710  134.5940 O   0  0  0  0  0  1  0  0  0  0  0  0
  191.0060  176.1520  135.2670 C   0  0  0  0  0  0  0  0  0  0  0  0
  193.7930  173.6180  137.2110 C   0  0  0  0  0  1  0  0  0  0  0  0
  193.2780  175.6690  135.9360 C   0  0  0  0  0  0  0  0  0  0  0  0
  192.3560  176.4810  135.2690 C   0  0  0  0  0  3  0  0  0  0  0  0
  191.5160  174.1960  136.5900 C   0  0  0  0  0  0  0  0  0  0  0  0
  191.1360  173.1470  137.1820 O   0  0  0  0  0  0  0  0  0  0  0  0
  192.8450  174.5290  136.5750 N   0  0  0  0  0  0  0  0  0  0  0  0
  194.7020  176.0860  135.9100 C   0  0  0  0  0  0  0  0  0  0  0  0
  195.7390  175.1250  135.6680 N   0  0  0  0  0  2  0  0  0  0  0  0
  197.1430  175.4060  135.6380 C   0  0  0  0  0  0  0  0  0  0  0  0
  197.5740  176.5810  135.8000 O   0  0  0  0  0  1  0  0  0  0  0  0
  194.9980  177.2900  136.1430 O   0  0  0  0  0  0  0  0  0  0  0  0
  198.0460  174.3640  135.4290 O   0  0  0  0  0  0  0  0  0  0  0  0
  188.8100  172.5050  134.8730 O   0  0  0  0  0  1  0  0  0  0  0  0
  188.7780  173.8770  134.6220 C   0  0  0  0  0  2  0  0  0  0  0  0
  1 35  1  1  0  0  0
  1 12  1  0  0  0  0
  2 11  1  0  0  0  0
  2  8  1  0  0  0  0
  3 15  2  0  0  0  0
  5  7  1  1  0  0  0
  5 15  1  0  0  0  0
  5  1  1  0  0  0  0
  6  9  2  0  0  0  0
  6 20  1  0  0  0  0
  7  9  1  0  0  0  0
 10 12  1  0  0  0  0
 12 21  1  0  0  0  0
 12 18  1  1  0  0  0
 13 26  1  6  0  0  0
 14 22  1  0  0  0  0
 16  2  2  0  0  0  0
 17  4  1  0  0  0  0
 17 11  2  0  0  0  0
 19 14  1  0  0  0  0
 20 19  1  0  0  0  0
 21 10  1  6  0  0  0
 21 23  1  0  0  0  0
 22 13  1  0  0  0  0
 23 16  1  0  0  0  0
 24  3  1  0  0  0  0
 24  6  1  0  0  0  0
 25 13  1  0  0  0  0
 25  4  1  0  0  0  0
 27 30  1  0  0  0  0
 28 33  1  0  0  0  0
 29 32  1  0  0  0  0
 30 28  2  0  0  0  0
 31 34  1  1  0  0  0
 31 29  1  0  0  0  0
 31 27  1  0  0  0  0
 32 28  1  0  0  0  0
 33 26  1  0  0  0  0
 35 52  1  6  0  0  0
 35 36  1  0  0  0  0
 36 42  1  0  0  0  0
 37 38  1  0  0  0  0
 38 41  1  0  0  0  0
 38 36  2  0  0  0  0
 40 44  1  0  0  0  0
 41 40  2  0  0  0  0
 42 43  2  0  0  0  0
 44 42  1  0  0  0  0
 44 39  1  0  0  0  0
 45 40  1  0  0  0  0
 45 49  2  0  0  0  0
 46 45  1  0  0  0  0
 47 46  1  0  0  0  0
 47 48  1  0  0  0  0
 50 47  2  0  0  0  0
 52 51  1  0  0  0  0
M  END
>  <MODEL>
1

>  <REMARK>
 VINA RESULT:      -7.3      0.000      0.000
  Name = 
  6 active torsions:
  status: ('A' for Active; 'I' for Inactive)
    1  A    between atoms: C_1  and  C_43
    2  A    between atoms: C_2  and  C_43
    3  A    between atoms: C_8  and  C_26
    4  A    between atoms: C_29  and  C_35
    5  A    between atoms: C_35  and  N_46
    6  A    between atoms: C_39  and  C_43
                            x       y       z     vdW  Elec       q    Type
                         _______ _______ _______ _____ _____    ______ ____

>  <TORSDO>
F 6

$$$$
=
 OpenBabel11062413493D

 52 56  0  0  1  0  0  0  0  0999 V2000
  189.5350  177.6080  139.6770 C   0  0  1  0  0  3  0  0  0  0  0  0
  184.5320  178.5660  142.4760 C   0  0  0  0  0  0  0  0  0  0  0  0
  188.6630  174.9250  137.0470 C   0  0  0  0  0  3  0  0  0  0  0  0
  182.4490  178.5000  139.2450 C   0  0  0  0  0  2  0  0  0  0  0  0
  188.9770  177.0480  138.3750 C   0  0  2  0  0  3  0  0  0  0  0  0
  187.0860  176.4640  135.9530 C   0  0  0  0  0  0  0  0  0  0  0  0
  188.1720  177.8910  137.6980 C   0  0  0  0  0  2  0  0  0  0  0  0
  184.3120  178.2780  143.9220 C   0  0  0  0  0  1  0  0  0  0  0  0
  187.1110  177.5360  136.7430 C   0  0  0  0  0  3  0  0  0  0  0  0
  187.9330  179.3040  140.4020 C   0  0  0  0  0  2  0  0  0  0  0  0
  183.3870  178.4980  141.5420 C   0  0  0  0  0  3  0  0  0  0  0  0
  188.3570  177.8640  140.6420 C   0  0  1  0  0  0  0  0  0  0  0  0
  182.2930  177.8730  136.8050 C   0  0  1  0  0  3  0  0  0  0  0  0
  183.4440  176.5510  135.2010 C   0  0  0  0  0  2  0  0  0  0  0  0
  188.9660  175.5720  138.1770 C   0  0  0  0  0  3  0  0  0  0  0  0
  185.7530  178.7850  141.9870 C   0  0  0  0  0  3  0  0  0  0  0  0
  183.5620  178.6040  140.2240 C   0  0  0  0  0  3  0  0  0  0  0  0
  187.2760  176.9760  140.5520 O   0  0  0  0  0  1  0  0  0  0  0  0
  184.6170  176.1300  136.0720 C   0  0  0  0  0  2  0  0  0  0  0  0
  185.8610  176.1020  135.3120 N   0  0  0  0  0  2  0  0  0  0  0  0
  188.3180  178.8680  141.8060 C   0  0  2  0  0  3  0  0  0  0  0  0
  183.0280  177.9100  135.5420 N   0  0  0  0  0  2  0  0  0  0  0  0
  187.0650  178.7330  142.7260 C   0  0  0  0  0  2  0  0  0  0  0  0
  188.2970  175.6150  135.7700 C   0  0  0  0  0  2  0  0  0  0  0  0
  183.0360  178.6980  137.8520 C   0  0  0  0  0  2  0  0  0  0  0  0
  180.8800  178.4040  136.6040 C   0  0  0  0  0  2  0  0  0  0  0  0
  180.6740  182.6580  137.4130 C   0  0  0  0  0  2  0  0  0  0  0  0
  180.7890  180.8050  135.8090 C   0  0  0  0  0  0  0  0  0  0  0  0
  180.3270  183.1620  135.0350 C   0  0  0  0  0  2  0  0  0  0  0  0
  180.8200  181.2470  137.0340 N   0  0  0  0  0  0  0  0  0  0  0  0
  181.0840  183.5870  136.2800 C   0  0  1  0  0  3  0  0  0  0  0  0
  180.7400  181.7460  134.6370 C   0  0  0  0  0  2  0  0  0  0  0  0
  180.8860  179.4030  135.5470 N   0  0  0  0  0  2  0  0  0  0  0  0
  180.7120  185.0090  136.6360 C   0  0  0  0  0  1  0  0  0  0  0  0
  190.6430  176.7510  140.3240 C   0  0  2  0  0  3  0  0  0  0  0  0
  190.6840  176.9360  141.8220 C   0  0  0  0  0  0  0  0  0  0  0  0
  189.2490  175.0050  142.0920 O   0  0  0  0  0  1  0  0  0  0  0  0
  189.9680  176.0590  142.6400 C   0  0  0  0  0  0  0  0  0  0  0  0
  192.0600  179.3300  144.3430 C   0  0  0  0  0  1  0  0  0  0  0  0
  190.6890  177.2910  144.5900 C   0  0  0  0  0  0  0  0  0  0  0  0
  189.9740  176.2350  144.0180 C   0  0  0  0  0  3  0  0  0  0  0  0
  191.3840  178.0040  142.4210 C   0  0  0  0  0  0  0  0  0  0  0  0
  192.0170  178.8190  141.6930 O   0  0  0  0  0  0  0  0  0  0  0  0
  191.3720  178.1700  143.7810 N   0  0  0  0  0  0  0  0  0  0  0  0
  190.6620  177.4120  146.0690 C   0  0  0  0  0  0  0  0  0  0  0  0
  189.4780  177.8630  146.7430 N   0  0  0  0  0  2  0  0  0  0  0  0
  189.3400  178.0380  148.1580 C   0  0  0  0  0  0  0  0  0  0  0  0
  190.2910  177.7610  148.9410 O   0  0  0  0  0  1  0  0  0  0  0  0
  191.7050  177.1540  146.7310 O   0  0  0  0  0  0  0  0  0  0  0  0
  188.1400  178.5210  148.6760 O   0  0  0  0  0  0  0  0  0  0  0  0
  192.2590  176.1760  138.6550 O   0  0  0  0  0  1  0  0  0  0  0  0
  192.0110  177.0470  139.7160 C   0  0  0  0  0  2  0  0  0  0  0  0
  1 35  1  1  0  0  0
  1 12  1  0  0  0  0
  2  8  1  0  0  0  0
  3 15  2  0  0  0  0
  4 17  1  0  0  0  0
  5  7  1  1  0  0  0
  5  1  1  0  0  0  0
  6  9  2  0  0  0  0
  9  7  1  0  0  0  0
 10 12  1  0  0  0  0
 11  2  1  0  0  0  0
 12 18  1  6  0  0  0
 12 21  1  0  0  0  0
 13 26  1  6  0  0  0
 13 25  1  0  0  0  0
 14 22  1  0  0  0  0
 14 19  1  0  0  0  0
 15  5  1  0  0  0  0
 16  2  2  0  0  0  0
 16 23  1  0  0  0  0
 17 11  2  0  0  0  0
 20  6  1  0  0  0  0
 20 19  1  0  0  0  0
 21 10  1  6  0  0  0
 21 23  1  0  0  0  0
 22 13  1  0  0  0  0
 24  6  1  0  0  0  0
 24  3  1  0  0  0  0
 25  4  1  0  0  0  0
 28 30  2  0  0  0  0
 29 31  1  0  0  0  0
 30 27  1  0  0  0  0
 31 34  1  1  0  0  0
 31 27  1  0  0  0  0
 32 29  1  0  0  0  0
 32 28  1  0  0  0  0
 33 28  1  0  0  0  0
 33 26  1  0  0  0  0
 35 52  1  6  0  0  0
 35 36  1  0  0  0  0
 36 42  1  0  0  0  0
 36 38  2  0  0  0  0
 37 38  1  0  0  0  0
 38 41  1  0  0  0  0
 40 45  1  0  0  0  0
 41 40  2  0  0  0  0
 42 44  1  0  0  0  0
 43 42  2  0  0  0  0
 44 39  1  0  0  0  0
 44 40  1  0  0  0  0
 45 49  2  0  0  0  0
 45 46  1  0  0  0  0
 46 47  1  0  0  0  0
 47 50  2  0  0  0  0
 47 48  1  0  0  0  0
 51 52  1  0  0  0  0
M  END
>  <MODEL>
2

>  <REMARK>
 VINA RESULT:      -5.6      3.933      6.481
  Name = 
  6 active torsions:
  status: ('A' for Active; 'I' for Inactive)
    1  A    between atoms: C_1  and  C_43
    2  A    between atoms: C_2  and  C_43
    3  A    between atoms: C_8  and  C_26
    4  A    between atoms: C_29  and  C_35
    5  A    between atoms: C_35  and  N_46
    6  A    between atoms: C_39  and  C_43
                            x       y       z     vdW  Elec       q    Type
                         _______ _______ _______ _____ _____    ______ ____

>  <TORSDO>
F 6

$$$$
=
 OpenBabel11062413493D

 52 56  0  0  1  0  0  0  0  0999 V2000
  181.7300  178.1420  138.5240 C   0  0  1  0  0  3  0  0  0  0  0  0
  186.0130  175.0110  136.1530 C   0  0  0  0  0  0  0  0  0  0  0  0
  182.3210  177.8540  142.3250 C   0  0  0  0  0  3  0  0  0  0  0  0
  188.6550  176.3500  138.6040 C   0  0  0  0  0  2  0  0  0  0  0  0
  182.3720  178.4460  139.8720 C   0  0  2  0  0  3  0  0  0  0  0  0
  184.4960  178.9830  142.1040 C   0  0  0  0  0  0  0  0  0  0  0  0
  183.5270  179.1380  139.8020 C   0  0  0  0  0  2  0  0  0  0  0  0
  185.8010  173.7760  135.3460 C   0  0  0  0  0  1  0  0  0  0  0  0
  184.6180  179.1520  140.7890 C   0  0  0  0  0  3  0  0  0  0  0  0
  183.5610  178.1470  136.9080 C   0  0  0  0  0  2  0  0  0  0  0  0
  187.2650  175.1630  136.9270 C   0  0  0  0  0  3  0  0  0  0  0  0
  182.6780  177.2200  137.7280 C   0  0  1  0  0  0  0  0  0  0  0  0
  189.1650  177.5210  140.7810 C   0  0  1  0  0  3  0  0  0  0  0  0
  188.0640  178.1780  142.7810 C   0  0  0  0  0  2  0  0  0  0  0  0
  181.9800  177.6270  141.0520 C   0  0  0  0  0  3  0  0  0  0  0  0
  185.0610  175.9360  136.2760 C   0  0  0  0  0  3  0  0  0  0  0  0
  187.4340  176.1790  137.7750 C   0  0  0  0  0  3  0  0  0  0  0  0
  183.4290  176.3060  138.4790 O   0  0  0  0  0  1  0  0  0  0  0  0
  186.6520  177.7640  142.3950 C   0  0  0  0  0  2  0  0  0  0  0  0
  185.6650  178.7210  142.8820 N   0  0  0  0  0  2  0  0  0  0  0  0
  182.7540  177.0710  136.2000 C   0  0  2  0  0  3  0  0  0  0  0  0
  188.7830  178.6660  141.6070 N   0  0  0  0  0  2  0  0  0  0  0  0
  183.6630  175.8990  135.7150 C   0  0  0  0  0  2  0  0  0  0  0  0
  183.1590  179.0140  142.7630 C   0  0  0  0  0  2  0  0  0  0  0  0
  188.4890  177.6290  139.4170 C   0  0  0  0  0  2  0  0  0  0  0  0
  190.6790  177.4670  140.6290 C   0  0  0  0  0  2  0  0  0  0  0  0
  190.8800  175.6900  144.5780 C   0  0  0  0  0  2  0  0  0  0  0  0
  191.3430  177.5690  143.0700 C   0  0  0  0  0  0  0  0  0  0  0  0
  191.6600  177.8000  145.5630 C   0  0  0  0  0  2  0  0  0  0  0  0
  190.9290  176.3490  143.2680 N   0  0  0  0  0  0  0  0  0  0  0  0
  191.8810  176.2990  145.5490 C   0  0  1  0  0  3  0  0  0  0  0  0
  191.9540  178.3790  144.1790 C   0  0  0  0  0  2  0  0  0  0  0  0
  191.3010  178.1390  141.7600 N   0  0  0  0  0  2  0  0  0  0  0  0
  191.6430  175.7410  146.9340 C   0  0  0  0  0  1  0  0  0  0  0  0
  180.2970  177.5750  138.6070 C   0  0  2  0  0  3  0  0  0  0  0  0
  180.2000  176.2170  137.9540 C   0  0  0  0  0  0  0  0  0  0  0  0
  180.8890  175.1780  140.0290 O   0  0  0  0  0  1  0  0  0  0  0  0
  180.5170  175.0770  138.6950 C   0  0  0  0  0  0  0  0  0  0  0  0
  179.4980  174.7340  134.5940 C   0  0  0  0  0  1  0  0  0  0  0  0
  180.0920  173.6980  136.7550 C   0  0  0  0  0  0  0  0  0  0  0  0
  180.4610  173.8230  138.0980 C   0  0  0  0  0  3  0  0  0  0  0  0
  179.8480  176.0670  136.5960 C   0  0  0  0  0  0  0  0  0  0  0  0
  179.5810  177.0910  135.9060 O   0  0  0  0  0  0  0  0  0  0  0  0
  179.8060  174.8260  136.0190 N   0  0  0  0  0  0  0  0  0  0  0  0
  180.0390  172.3290  136.1860 C   0  0  0  0  0  0  0  0  0  0  0  0
  181.2410  171.5630  136.0140 N   0  0  0  0  0  2  0  0  0  0  0  0
  181.3160  170.2450  135.4600 C   0  0  0  0  0  0  0  0  0  0  0  0
  180.2720  169.6330  135.0990 O   0  0  0  0  0  0  0  0  0  0  0  0
  178.9310  171.8560  135.8130 O   0  0  0  0  0  0  0  0  0  0  0  0
  182.5590  169.6310  135.3160 O   0  0  0  0  0  1  0  0  0  0  0  0
  179.8950  179.7310  137.6510 O   0  0  0  0  0  1  0  0  0  0  0  0
  179.2760  178.5300  137.9960 C   0  0  0  0  0  2  0  0  0  0  0  0
  1 35  1  1  0  0  0
  1  5  1  0  0  0  0
  2 16  2  0  0  0  0
  2 11  1  0  0  0  0
  3 24  1  0  0  0  0
  4 25  1  0  0  0  0
  5  7  1  6  0  0  0
  5 15  1  0  0  0  0
  6 24  1  0  0  0  0
  6 20  1  0  0  0  0
  7  9  1  0  0  0  0
  8  2  1  0  0  0  0
  9  6  2  0  0  0  0
 10 12  1  0  0  0  0
 11 17  2  0  0  0  0
 12 18  1  1  0  0  0
 12  1  1  0  0  0  0
 13 26  1  6  0  0  0
 13 22  1  0  0  0  0
 15  3  2  0  0  0  0
 17  4  1  0  0  0  0
 19 14  1  0  0  0  0
 19 20  1  0  0  0  0
 21 23  1  1  0  0  0
 21 10  1  0  0  0  0
 21 12  1  0  0  0  0
 22 14  1  0  0  0  0
 23 16  1  0  0  0  0
 25 13  1  0  0  0  0
 26 33  1  0  0  0  0
 27 31  1  0  0  0  0
 28 30  2  0  0  0  0
 28 32  1  0  0  0  0
 30 27  1  0  0  0  0
 31 29  1  0  0  0  0
 31 34  1  1  0  0  0
 32 29  1  0  0  0  0
 33 28  1  0  0  0  0
 35 52  1  6  0  0  0
 36 35  1  0  0  0  0
 36 38  2  0  0  0  0
 38 37  1  0  0  0  0
 39 44  1  0  0  0  0
 40 41  2  0  0  0  0
 41 38  1  0  0  0  0
 42 36  1  0  0  0  0
 43 42  2  0  0  0  0
 44 42  1  0  0  0  0
 44 40  1  0  0  0  0
 45 40  1  0  0  0  0
 46 45  1  0  0  0  0
 47 46  1  0  0  0  0
 48 47  2  0  0  0  0
 49 45  2  0  0  0  0
 50 47  1  0  0  0  0
 51 52  1  0  0  0  0
M  END
>  <MODEL>
3

>  <REMARK>
 VINA RESULT:      -5.4      5.301     11.078
  Name = 
  6 active torsions:
  status: ('A' for Active; 'I' for Inactive)
    1  A    between atoms: C_1  and  C_43
    2  A    between atoms: C_2  and  C_43
    3  A    between atoms: C_8  and  C_26
    4  A    between atoms: C_29  and  C_35
    5  A    between atoms: C_35  and  N_46
    6  A    between atoms: C_39  and  C_43
                            x       y       z     vdW  Elec       q    Type
                         _______ _______ _______ _____ _____    ______ ____

>  <TORSDO>
F 6

$$$$
=
 OpenBabel11062413493D

 52 56  0  0  1  0  0  0  0  0999 V2000
  182.9890  178.4530  138.9360 C   0  0  1  0  0  3  0  0  0  0  0  0
  186.2960  174.8400  135.8080 C   0  0  0  0  0  0  0  0  0  0  0  0
  184.1830  177.9440  142.5680 C   0  0  0  0  0  3  0  0  0  0  0  0
  189.4890  175.7030  137.7670 C   0  0  0  0  0  2  0  0  0  0  0  0
  183.8930  178.6130  140.1520 C   0  0  2  0  0  3  0  0  0  0  0  0
  186.4270  178.7640  141.9790 C   0  0  0  0  0  0  0  0  0  0  0  0
  185.1060  179.1380  139.8880 C   0  0  0  0  0  2  0  0  0  0  0  0
  185.7700  173.6780  135.0360 C   0  0  0  0  0  1  0  0  0  0  0  0
  186.3420  178.9620  140.6650 C   0  0  0  0  0  3  0  0  0  0  0  0
  184.4930  178.2600  137.0210 C   0  0  0  0  0  2  0  0  0  0  0  0
  187.6710  174.7860  136.3490 C   0  0  0  0  0  3  0  0  0  0  0  0
  183.6410  177.4370  137.9740 C   0  0  1  0  0  0  0  0  0  0  0  0
  190.5330  176.7100  139.8330 C   0  0  1  0  0  3  0  0  0  0  0  0
  189.9030  177.4400  142.0040 C   0  0  0  0  0  2  0  0  0  0  0  0
  183.5970  177.8150  141.3740 C   0  0  0  0  0  3  0  0  0  0  0  0
  185.5230  175.8850  136.1080 C   0  0  0  0  0  3  0  0  0  0  0  0
  188.1310  175.7360  137.1650 C   0  0  0  0  0  3  0  0  0  0  0  0
  184.3700  176.3990  138.5690 O   0  0  0  0  0  1  0  0  0  0  0  0
  188.4010  177.2430  141.8690 C   0  0  0  0  0  2  0  0  0  0  0  0
  187.6630  178.3100  142.5340 N   0  0  0  0  0  2  0  0  0  0  0  0
  183.4270  177.3350  136.4550 C   0  0  2  0  0  3  0  0  0  0  0  0
  190.4710  177.8650  140.7260 N   0  0  0  0  0  2  0  0  0  0  0  0
  184.0590  176.0660  135.8030 C   0  0  0  0  0  2  0  0  0  0  0  0
  185.2440  178.9570  142.8640 C   0  0  0  0  0  2  0  0  0  0  0  0
  189.6540  176.9620  138.6110 C   0  0  0  0  0  2  0  0  0  0  0  0
  191.9740  176.4490  139.4150 C   0  0  0  0  0  2  0  0  0  0  0  0
  195.3790  174.8380  137.2680 C   0  0  0  0  0  2  0  0  0  0  0  0
  193.2010  175.9670  137.2530 C   0  0  0  0  0  0  0  0  0  0  0  0
  194.5940  175.8130  135.1550 C   0  0  0  0  0  2  0  0  0  0  0  0
  194.1500  175.3440  137.8920 N   0  0  0  0  0  0  0  0  0  0  0  0
  195.1800  174.5620  135.7850 C   0  0  1  0  0  3  0  0  0  0  0  0
  193.2180  176.0980  135.7560 C   0  0  0  0  0  2  0  0  0  0  0  0
  192.0660  176.4700  137.9630 N   0  0  0  0  0  2  0  0  0  0  0  0
  196.5170  174.2550  135.1470 C   0  0  0  0  0  1  0  0  0  0  0  0
  181.5260  178.0900  139.2650 C   0  0  2  0  0  3  0  0  0  0  0  0
  181.0210  176.9730  138.3840 C   0  0  0  0  0  0  0  0  0  0  0  0
  181.6890  175.3600  140.0610 O   0  0  0  0  0  1  0  0  0  0  0  0
  181.1400  175.6510  138.8190 C   0  0  0  0  0  0  0  0  0  0  0  0
  179.5650  176.4920  134.9750 C   0  0  0  0  0  1  0  0  0  0  0  0
  180.1540  174.8820  136.7510 C   0  0  0  0  0  0  0  0  0  0  0  0
  180.7060  174.6110  138.0060 C   0  0  0  0  0  3  0  0  0  0  0  0
  180.4760  177.2200  137.1070 C   0  0  0  0  0  0  0  0  0  0  0  0
  180.3820  178.4080  136.6900 O   0  0  0  0  0  0  0  0  0  0  0  0
  180.0610  176.1830  136.3130 N   0  0  0  0  0  0  0  0  0  0  0  0
  179.6990  173.7240  135.9410 C   0  0  0  0  0  0  0  0  0  0  0  0
  179.9030  172.3820  136.4060 N   0  0  0  0  0  2  0  0  0  0  0  0
  179.5260  171.1920  135.7060 C   0  0  0  0  0  0  0  0  0  0  0  0
  178.9320  171.2540  134.5940 O   0  0  0  0  0  0  0  0  0  0  0  0
  179.1650  173.9280  134.8160 O   0  0  0  0  0  0  0  0  0  0  0  0
  179.8210  169.9470  136.2610 O   0  0  0  0  0  1  0  0  0  0  0  0
  180.6910  180.0670  140.3250 O   0  0  0  0  0  1  0  0  0  0  0  0
  180.6070  179.3040  139.1600 C   0  0  0  0  0  2  0  0  0  0  0  0
  1 35  1  1  0  0  0
  1  5  1  0  0  0  0
  2 16  2  0  0  0  0
  2 11  1  0  0  0  0
  3 24  1  0  0  0  0
  4 25  1  0  0  0  0
  5  7  1  6  0  0  0
  5 15  1  0  0  0  0
  6 20  1  0  0  0  0
  6 24  1  0  0  0  0
  7  9  1  0  0  0  0
  8  2  1  0  0  0  0
  9  6  2  0  0  0  0
 10 12  1  0  0  0  0
 11 17  2  0  0  0  0
 12 18  1  1  0  0  0
 12  1  1  0  0  0  0
 13 26  1  6  0  0  0
 13 22  1  0  0  0  0
 15  3  2  0  0  0  0
 17  4  1  0  0  0  0
 19 14  1  0  0  0  0
 19 20  1  0  0  0  0
 21 23  1  6  0  0  0
 21 10  1  0  0  0  0
 21 12  1  0  0  0  0
 22 14  1  0  0  0  0
 23 16  1  0  0  0  0
 25 13  1  0  0  0  0
 27 30  1  0  0  0  0
 28 30  2  0  0  0  0
 28 33  1  0  0  0  0
 29 32  1  0  0  0  0
 29 31  1  0  0  0  0
 31 34  1  6  0  0  0
 31 27  1  0  0  0  0
 32 28  1  0  0  0  0
 33 26  1  0  0  0  0
 35 52  1  6  0  0  0
 36 38  2  0  0  0  0
 36 35  1  0  0  0  0
 38 37  1  0  0  0  0
 39 44  1  0  0  0  0
 40 41  2  0  0  0  0
 41 38  1  0  0  0  0
 42 36  1  0  0  0  0
 43 42  2  0  0  0  0
 44 40  1  0  0  0  0
 44 42  1  0  0  0  0
 45 46  1  0  0  0  0
 45 40  1  0  0  0  0
 47 50  1  0  0  0  0
 47 46  1  0  0  0  0
 48 47  2  0  0  0  0
 49 45  2  0  0  0  0
 52 51  1  0  0  0  0
M  END
>  <MODEL>
4

>  <REMARK>
 VINA RESULT:      -5.2      4.318     11.537
  Name = 
  6 active torsions:
  status: ('A' for Active; 'I' for Inactive)
    1  A    between atoms: C_1  and  C_43
    2  A    between atoms: C_2  and  C_43
    3  A    between atoms: C_8  and  C_26
    4  A    between atoms: C_29  and  C_35
    5  A    between atoms: C_35  and  N_46
    6  A    between atoms: C_39  and  C_43
                            x       y       z     vdW  Elec       q    Type
                         _______ _______ _______ _____ _____    ______ ____

>  <TORSDO>
F 6

$$$$
