=
 OpenBabel11062414533D

 56 60  0  0  1  0  0  0  0  0999 V2000
  185.3980  178.1410  144.8590 N   0  0  0  0  0  0  0  0  0  0  0  0
  185.5760  177.8650  146.2810 C   0  0  0  0  0  2  0  0  0  0  0  0
  186.8710  178.4880  146.7630 C   0  0  0  0  0  2  0  0  0  0  0  0
  187.7990  177.3930  147.2570 C   0  0  0  0  0  2  0  0  0  0  0  0
  189.1690  177.9690  147.5920 C   0  0  1  0  0  3  0  0  0  0  0  0
  189.0920  178.7210  148.8340 N   0  0  0  0  0  1  0  0  0  0  0  0
  191.3390  177.0600  146.6470 C   0  0  0  0  0  1  0  0  0  0  0  0
  190.2410  176.8790  147.6820 C   0  0  2  0  0  3  0  0  0  0  0  0
  189.6580  175.6210  147.5340 O   0  0  0  0  0  1  0  0  0  0  0  0
  184.4030  179.1950  144.6940 C   0  0  0  0  0  2  0  0  0  0  0  0
  182.1150  178.8490  144.2650 O   0  0  0  0  0  0  0  0  0  0  0  0
  183.2580  178.7150  143.8580 C   0  0  0  0  0  0  0  0  0  0  0  0
  183.5050  178.0320  142.5500 C   0  0  0  0  0  2  0  0  0  0  0  0
  185.3590  179.0100  139.4820 C   0  0  0  0  0  2  0  0  0  0  0  0
  184.1690  178.9760  141.5590 C   0  0  1  0  0  3  0  0  0  0  0  0
  185.2880  178.2900  140.8090 C   0  0  0  0  0  2  0  0  0  0  0  0
  183.9510  179.5110  139.1950 C   0  0  1  0  0  0  0  0  0  0  0  0
  183.1780  179.4080  140.5000 C   0  0  0  0  0  2  0  0  0  0  0  0
  183.9980  180.8470  138.7880 O   0  0  0  0  0  1  0  0  0  0  0  0
  183.2550  178.6510  138.1400 C   0  0  0  0  0  2  0  0  0  0  0  0
  182.1370  177.7750  138.7080 C   0  0  1  0  0  3  0  0  0  0  0  0
  179.0900  179.8250  138.8770 C   0  0  0  0  0  2  0  0  0  0  0  0
  180.7760  179.3240  137.2390 C   0  0  0  0  0  2  0  0  0  0  0  0
  179.4450  180.0160  137.4190 C   0  0  0  0  0  2  0  0  0  0  0  0
  180.7370  178.1610  138.2080 C   0  0  0  0  0  3  0  0  0  0  0  0
  179.7670  178.5390  139.3150 C   0  0  0  0  0  2  0  0  0  0  0  0
  182.6820  176.2430  136.1040 C   0  0  0  0  0  1  0  0  0  0  0  0
  182.6440  175.6820  139.7080 O   0  0  0  0  0  0  0  0  0  0  0  0
  182.4450  176.3010  138.6260 C   0  0  0  0  0  0  0  0  0  0  0  0
  182.4730  175.5770  137.3800 N   0  0  0  0  0  0  0  0  0  0  0  0
  182.4300  174.1210  137.3750 C   0  0  0  0  0  2  0  0  0  0  0  0
  184.8000  173.3910  137.7610 C   0  0  0  0  0  2  0  0  0  0  0  0
  186.0540  172.7460  137.1480 C   0  0  0  0  0  2  0  0  0  0  0  0
  185.8110  172.1630  135.8240 N   0  0  0  0  0  2  0  0  0  0  0  0
  184.6060  171.3380  135.8780 C   0  0  0  0  0  2  0  0  0  0  0  0
  183.6830  173.5520  136.7270 C   0  0  0  0  0  3  0  0  0  0  0  0
  183.3590  172.2120  136.0620 C   0  0  0  0  0  2  0  0  0  0  0  0
  186.6630  178.5560  144.2350 C   0  0  0  0  0  2  0  0  0  0  0  0
  187.4620  177.4170  143.5840 C   0  0  0  0  0  2  0  0  0  0  0  0
  189.5940  176.2130  144.1440 C   0  0  0  0  0  2  0  0  0  0  0  0
  190.4690  176.0000  141.8430 N   0  0  0  0  0  2  0  0  0  0  0  0
  190.5430  179.1030  142.8390 C   0  0  0  0  0  2  0  0  0  0  0  0
  189.7000  175.3270  142.8920 C   0  0  0  0  0  2  0  0  0  0  0  0
  189.6240  178.1620  142.6170 C   0  0  0  0  0  0  0  0  0  0  0  0
  189.7380  177.2020  141.4460 C   0  0  1  0  0  3  0  0  0  0  0  0
  188.9590  177.5740  143.8230 C   0  0  1  0  0  3  0  0  0  0  0  0
  189.2480  177.0970  138.9260 C   0  0  2  0  0  3  0  0  0  0  0  0
  189.0410  178.5290  139.3920 C   0  0  0  0  0  2  0  0  0  0  0  0
  190.1200  177.6740  140.0270 C   0  0  1  0  0  3  0  0  0  0  0  0
  190.0320  177.0730  137.6190 C   0  0  1  0  0  3  0  0  0  0  0  0
  191.9900  176.0560  136.4030 C   0  0  0  0  0  1  0  0  0  0  0  0
  191.2880  176.2030  137.7410 C   0  0  2  0  0  3  0  0  0  0  0  0
  190.9900  174.9430  138.2650 O   0  0  0  0  0  1  0  0  0  0  0  0
  189.1560  176.7370  136.4000 C   0  0  0  0  0  2  0  0  0  0  0  0
  187.9380  175.8830  136.7330 C   0  0  0  0  0  2  0  0  0  0  0  0
  186.7710  176.5610  136.3810 O   0  0  0  0  0  1  0  0  0  0  0  0
  1  2  1  0  0  0  0
  2  3  1  0  0  0  0
  3  4  1  0  0  0  0
  4  5  1  0  0  0  0
  5  8  1  0  0  0  0
  5  6  1  1  0  0  0
  8  7  1  6  0  0  0
  9  8  1  0  0  0  0
 10  1  1  0  0  0  0
 12 11  2  0  0  0  0
 12 10  1  0  0  0  0
 13 12  1  0  0  0  0
 14 16  1  0  0  0  0
 15 13  1  1  0  0  0
 16 15  1  0  0  0  0
 17 19  1  6  0  0  0
 17 14  1  0  0  0  0
 17 18  1  0  0  0  0
 18 15  1  0  0  0  0
 20 17  1  0  0  0  0
 21 20  1  6  0  0  0
 22 26  1  0  0  0  0
 23 24  1  0  0  0  0
 23 25  1  0  0  0  0
 24 22  1  0  0  0  0
 25 21  1  0  0  0  0
 25 26  1  0  0  0  0
 27 30  1  0  0  0  0
 29 21  1  0  0  0  0
 29 28  2  0  0  0  0
 30 29  1  0  0  0  0
 31 30  1  0  0  0  0
 33 32  1  0  0  0  0
 34 35  1  0  0  0  0
 34 33  1  0  0  0  0
 35 37  1  0  0  0  0
 36 31  1  0  0  0  0
 36 32  1  0  0  0  0
 37 36  1  0  0  0  0
 38  1  1  0  0  0  0
 39 38  1  0  0  0  0
 41 43  1  0  0  0  0
 43 40  1  0  0  0  0
 44 42  2  0  0  0  0
 44 46  1  0  0  0  0
 45 41  1  1  0  0  0
 45 44  1  0  0  0  0
 46 39  1  6  0  0  0
 46 40  1  0  0  0  0
 47 50  1  6  0  0  0
 47 48  1  0  0  0  0
 47 49  1  0  0  0  0
 49 48  1  1  0  0  0
 49 45  1  0  0  0  0
 50 54  1  6  0  0  0
 50 52  1  0  0  0  0
 52 51  1  6  0  0  0
 52 53  1  0  0  0  0
 54 55  1  0  0  0  0
 56 55  1  0  0  0  0
M  END
>  <MODEL>
1

>  <REMARK>
 VINA RESULT:      -5.7      0.000      0.000
  Name = 
  23 active torsions:
  status: ('A' for Active; 'I' for Inactive)
    1  A    between atoms: C_2  and  N_3
    2  A    between atoms: C_2  and  C_24
    3  A    between atoms: N_3  and  C_16
    4  A    between atoms: N_3  and  C_53
    5  A    between atoms: C_10  and  C_32
    6  A    between atoms: C_11  and  C_16
    7  A    between atoms: C_11  and  C_32
    8  A    between atoms: C_13  and  C_28
    9  A    between atoms: C_13  and  C_50
   10  A    between atoms: C_15  and  C_27
   11  A    between atoms: C_22  and  C_31
   12  A    between atoms: C_23  and  C_29
   13  A    between atoms: C_23  and  C_46
   14  A    between atoms: C_24  and  C_52
   15  A    between atoms: C_26  and  C_37
   16  A    between atoms: C_27  and  C_31
   17  A    between atoms: C_27  and  C_40
   18  A    between atoms: C_28  and  C_38
   19  A    between atoms: C_28  and  C_47
   20  A    between atoms: C_29  and  C_39
   21  A    between atoms: C_37  and  N_51
   22  A    between atoms: C_43  and  C_54
   23  A    between atoms: C_46  and  C_53
                            x       y       z     vdW  Elec       q    Type
                         _______ _______ _______ _____ _____    ______ ____

>  <TORSDO>
F 23

$$$$
=
 OpenBabel11062414533D

 56 60  0  0  1  0  0  0  0  0999 V2000
  189.1500  177.3950  142.4940 N   0  0  0  0  0  0  0  0  0  0  0  0
  190.1310  178.2770  143.1190 C   0  0  0  0  0  2  0  0  0  0  0  0
  189.8100  178.4320  144.5930 C   0  0  0  0  0  2  0  0  0  0  0  0
  191.0050  177.9850  145.4140 C   0  0  0  0  0  2  0  0  0  0  0  0
  190.5790  176.9610  146.4590 C   0  0  1  0  0  3  0  0  0  0  0  0
  191.6810  176.7070  147.3720 N   0  0  0  0  0  1  0  0  0  0  0  0
  189.6720  178.2160  148.4670 C   0  0  0  0  0  1  0  0  0  0  0  0
  189.3300  177.4100  147.2240 C   0  0  2  0  0  3  0  0  0  0  0  0
  188.5610  176.3020  147.5780 O   0  0  0  0  0  1  0  0  0  0  0  0
  189.8430  176.2890  141.8420 C   0  0  0  0  0  2  0  0  0  0  0  0
  191.5590  177.3840  140.6620 O   0  0  0  0  0  0  0  0  0  0  0  0
  190.5170  176.7530  140.5890 C   0  0  0  0  0  0  0  0  0  0  0  0
  189.9010  176.4900  139.2520 C   0  0  0  0  0  2  0  0  0  0  0  0
  188.3590  178.8840  136.8630 C   0  0  0  0  0  2  0  0  0  0  0  0
  189.0400  177.6640  138.8070 C   0  0  1  0  0  3  0  0  0  0  0  0
  189.5740  178.2910  137.5390 C   0  0  0  0  0  2  0  0  0  0  0  0
  187.1770  178.0240  137.2830 C   0  0  1  0  0  0  0  0  0  0  0  0
  187.6430  177.1910  138.4670 C   0  0  0  0  0  2  0  0  0  0  0  0
  186.1150  178.8410  137.6810 O   0  0  0  0  0  1  0  0  0  0  0  0
  186.7410  177.0840  136.1600 C   0  0  0  0  0  2  0  0  0  0  0  0
  187.1470  175.6270  136.3910 C   0  0  1  0  0  3  0  0  0  0  0  0
  185.8790  172.2230  135.8240 C   0  0  0  0  0  2  0  0  0  0  0  0
  185.6010  173.9420  137.4800 C   0  0  0  0  0  2  0  0  0  0  0  0
  185.0750  172.5930  137.0500 C   0  0  0  0  0  2  0  0  0  0  0  0
  185.9980  174.6270  136.1890 C   0  0  0  0  0  3  0  0  0  0  0  0
  186.3020  173.5310  135.1810 C   0  0  0  0  0  2  0  0  0  0  0  0
  188.9950  173.3230  137.2290 C   0  0  0  0  0  1  0  0  0  0  0  0
  188.6860  175.8260  134.5950 O   0  0  0  0  0  0  0  0  0  0  0  0
  188.4290  175.2540  135.6900 C   0  0  0  0  0  0  0  0  0  0  0  0
  189.3770  174.3180  136.2410 N   0  0  0  0  0  0  0  0  0  0  0  0
  190.7340  174.2520  135.7140 C   0  0  0  0  0  2  0  0  0  0  0  0
  192.6290  174.2590  137.3580 C   0  0  0  0  0  2  0  0  0  0  0  0
  193.6380  175.1160  138.1430 C   0  0  0  0  0  2  0  0  0  0  0  0
  193.6570  176.5180  137.7110 N   0  0  0  0  0  2  0  0  0  0  0  0
  193.7440  176.5690  136.2530 C   0  0  0  0  0  2  0  0  0  0  0  0
  191.6690  175.1230  136.5380 C   0  0  0  0  0  3  0  0  0  0  0  0
  192.4400  176.0710  135.6150 C   0  0  0  0  0  2  0  0  0  0  0  0
  188.2020  176.8650  143.4860 C   0  0  0  0  0  2  0  0  0  0  0  0
  186.7330  176.8760  143.0390 C   0  0  0  0  0  2  0  0  0  0  0  0
  186.7370  179.3390  142.5470 C   0  0  0  0  0  2  0  0  0  0  0  0
  184.9110  179.3480  140.8820 N   0  0  0  0  0  2  0  0  0  0  0  0
  183.7650  178.7200  143.8680 C   0  0  0  0  0  2  0  0  0  0  0  0
  186.3640  179.2830  141.0570 C   0  0  0  0  0  2  0  0  0  0  0  0
  184.6070  178.1590  142.9990 C   0  0  0  0  0  0  0  0  0  0  0  0
  184.3260  178.1630  141.5060 C   0  0  1  0  0  3  0  0  0  0  0  0
  186.0640  178.2110  143.3430 C   0  0  1  0  0  3  0  0  0  0  0  0
  182.7840  178.1400  139.4510 C   0  0  2  0  0  3  0  0  0  0  0  0
  182.9870  176.7050  139.9110 C   0  0  0  0  0  2  0  0  0  0  0  0
  182.9340  177.8270  140.9290 C   0  0  1  0  0  3  0  0  0  0  0  0
  181.3150  178.3930  139.1330 C   0  0  1  0  0  3  0  0  0  0  0  0
  182.3620  180.6380  138.6800 C   0  0  0  0  0  1  0  0  0  0  0  0
  181.0590  179.8750  138.8360 C   0  0  2  0  0  3  0  0  0  0  0  0
  180.2730  180.4680  139.8250 O   0  0  0  0  0  1  0  0  0  0  0  0
  180.7580  177.4360  138.0650 C   0  0  0  0  0  2  0  0  0  0  0  0
  180.3550  178.1270  136.7680 C   0  0  0  0  0  2  0  0  0  0  0  0
  179.0570  177.7570  136.4160 O   0  0  0  0  0  1  0  0  0  0  0  0
  1  2  1  0  0  0  0
  1 38  1  0  0  0  0
  2  3  1  0  0  0  0
  3  4  1  0  0  0  0
  4  5  1  0  0  0  0
  5  8  1  0  0  0  0
  5  6  1  1  0  0  0
  8  9  1  0  0  0  0
  8  7  1  1  0  0  0
 10  1  1  0  0  0  0
 12 11  2  0  0  0  0
 12 10  1  0  0  0  0
 13 12  1  0  0  0  0
 14 17  1  0  0  0  0
 14 16  1  0  0  0  0
 15 13  1  6  0  0  0
 16 15  1  0  0  0  0
 17 19  1  1  0  0  0
 17 18  1  0  0  0  0
 18 15  1  0  0  0  0
 20 17  1  0  0  0  0
 21 20  1  6  0  0  0
 22 24  1  0  0  0  0
 24 23  1  0  0  0  0
 25 21  1  0  0  0  0
 25 23  1  0  0  0  0
 26 22  1  0  0  0  0
 26 25  1  0  0  0  0
 28 29  2  0  0  0  0
 29 30  1  0  0  0  0
 29 21  1  0  0  0  0
 30 27  1  0  0  0  0
 31 30  1  0  0  0  0
 31 36  1  0  0  0  0
 32 33  1  0  0  0  0
 34 33  1  0  0  0  0
 35 34  1  0  0  0  0
 36 32  1  0  0  0  0
 37 35  1  0  0  0  0
 37 36  1  0  0  0  0
 39 38  1  0  0  0  0
 40 46  1  0  0  0  0
 41 43  1  0  0  0  0
 43 40  1  0  0  0  0
 44 46  1  0  0  0  0
 44 42  2  0  0  0  0
 45 41  1  1  0  0  0
 45 44  1  0  0  0  0
 46 39  1  6  0  0  0
 47 50  1  1  0  0  0
 47 48  1  0  0  0  0
 47 49  1  0  0  0  0
 49 48  1  6  0  0  0
 49 45  1  0  0  0  0
 50 54  1  6  0  0  0
 52 51  1  1  0  0  0
 52 50  1  0  0  0  0
 52 53  1  0  0  0  0
 55 54  1  0  0  0  0
 56 55  1  0  0  0  0
M  END
>  <MODEL>
2

>  <REMARK>
 VINA RESULT:      -5.7      2.213      6.973
  Name = 
  23 active torsions:
  status: ('A' for Active; 'I' for Inactive)
    1  A    between atoms: C_2  and  N_3
    2  A    between atoms: C_2  and  C_24
    3  A    between atoms: N_3  and  C_16
    4  A    between atoms: N_3  and  C_53
    5  A    between atoms: C_10  and  C_32
    6  A    between atoms: C_11  and  C_16
    7  A    between atoms: C_11  and  C_32
    8  A    between atoms: C_13  and  C_28
    9  A    between atoms: C_13  and  C_50
   10  A    between atoms: C_15  and  C_27
   11  A    between atoms: C_22  and  C_31
   12  A    between atoms: C_23  and  C_29
   13  A    between atoms: C_23  and  C_46
   14  A    between atoms: C_24  and  C_52
   15  A    between atoms: C_26  and  C_37
   16  A    between atoms: C_27  and  C_31
   17  A    between atoms: C_27  and  C_40
   18  A    between atoms: C_28  and  C_38
   19  A    between atoms: C_28  and  C_47
   20  A    between atoms: C_29  and  C_39
   21  A    between atoms: C_37  and  N_51
   22  A    between atoms: C_43  and  C_54
   23  A    between atoms: C_46  and  C_53
                            x       y       z     vdW  Elec       q    Type
                         _______ _______ _______ _____ _____    ______ ____

>  <TORSDO>
F 23

$$$$
=
 OpenBabel11062414533D

 56 60  0  0  1  0  0  0  0  0999 V2000
  186.1500  177.3680  145.4620 N   0  0  0  0  0  0  0  0  0  0  0  0
  187.0170  177.0030  146.5780 C   0  0  0  0  0  2  0  0  0  0  0  0
  187.7680  178.2280  147.0620 C   0  0  0  0  0  2  0  0  0  0  0  0
  189.2470  178.0580  146.7650 C   0  0  0  0  0  2  0  0  0  0  0  0
  189.9070  177.1890  147.8280 C   0  0  1  0  0  3  0  0  0  0  0  0
  189.1020  176.0000  148.0550 N   0  0  0  0  0  1  0  0  0  0  0  0
  191.6720  177.1670  146.0070 C   0  0  0  0  0  1  0  0  0  0  0  0
  191.3420  176.8120  147.4470 C   0  0  2  0  0  3  0  0  0  0  0  0
  191.5490  175.4490  147.6550 O   0  0  0  0  0  1  0  0  0  0  0  0
  185.9640  178.8150  145.4500 C   0  0  0  0  0  2  0  0  0  0  0  0
  183.7290  178.9720  146.1680 O   0  0  0  0  0  0  0  0  0  0  0  0
  184.5210  179.1600  145.2580 C   0  0  0  0  0  0  0  0  0  0  0  0
  184.0330  179.6910  143.9470 C   0  0  0  0  0  2  0  0  0  0  0  0
  181.6300  178.3190  141.4660 C   0  0  0  0  0  2  0  0  0  0  0  0
  183.2880  178.6170  143.1680 C   0  0  1  0  0  3  0  0  0  0  0  0
  181.9260  179.1010  142.7250 C   0  0  0  0  0  2  0  0  0  0  0  0
  182.9780  178.0110  140.8310 C   0  0  1  0  0  0  0  0  0  0  0  0
  184.0320  178.2820  141.8930 C   0  0  0  0  0  2  0  0  0  0  0  0
  183.0300  176.6640  140.4600 O   0  0  0  0  0  1  0  0  0  0  0  0
  183.2490  178.9120  139.6260 C   0  0  0  0  0  2  0  0  0  0  0  0
  182.2380  178.7340  138.4910 C   0  0  1  0  0  3  0  0  0  0  0  0
  179.9870  181.4000  137.3340 C   0  0  0  0  0  2  0  0  0  0  0  0
  182.0360  181.2560  138.5820 C   0  0  0  0  0  2  0  0  0  0  0  0
  181.0900  182.2410  137.9370 C   0  0  0  0  0  2  0  0  0  0  0  0
  181.9610  180.0230  137.7050 C   0  0  0  0  0  3  0  0  0  0  0  0
  180.6060  180.0500  137.0180 C   0  0  0  0  0  2  0  0  0  0  0  0
  185.0360  177.8490  137.5890 C   0  0  0  0  0  1  0  0  0  0  0  0
  181.5680  176.7390  137.3930 O   0  0  0  0  0  0  0  0  0  0  0  0
  182.5230  177.5270  137.6320 C   0  0  0  0  0  0  0  0  0  0  0  0
  183.8160  177.2730  137.0470 N   0  0  0  0  0  0  0  0  0  0  0  0
  183.9550  176.3090  135.9650 C   0  0  0  0  0  2  0  0  0  0  0  0
  184.0830  174.2600  137.4080 C   0  0  0  0  0  2  0  0  0  0  0  0
  184.9120  173.0270  137.8070 C   0  0  0  0  0  2  0  0  0  0  0  0
  186.0700  172.8080  136.9340 N   0  0  0  0  0  2  0  0  0  0  0  0
  185.6400  172.8880  135.5390 C   0  0  0  0  0  2  0  0  0  0  0  0
  184.8250  175.1390  136.4000 C   0  0  0  0  0  3  0  0  0  0  0  0
  185.2500  174.3260  135.1750 C   0  0  0  0  0  2  0  0  0  0  0  0
  186.7240  176.9350  144.1780 C   0  0  0  0  0  2  0  0  0  0  0  0
  187.5590  178.0030  143.4560 C   0  0  0  0  0  2  0  0  0  0  0  0
  189.3590  176.3280  143.9670 C   0  0  0  0  0  2  0  0  0  0  0  0
  190.1830  176.0110  141.6580 N   0  0  0  0  0  2  0  0  0  0  0  0
  190.9470  178.9770  142.7750 C   0  0  0  0  0  2  0  0  0  0  0  0
  189.2730  175.4890  142.6810 C   0  0  0  0  0  2  0  0  0  0  0  0
  189.8410  178.2770  142.5180 C   0  0  0  0  0  0  0  0  0  0  0  0
  189.7450  177.3610  141.3090 C   0  0  1  0  0  3  0  0  0  0  0  0
  189.0500  177.8090  143.7000 C   0  0  1  0  0  3  0  0  0  0  0  0
  189.5320  177.0830  138.7640 C   0  0  2  0  0  3  0  0  0  0  0  0
  189.1640  178.5150  139.1190 C   0  0  0  0  0  2  0  0  0  0  0  0
  190.2350  177.7890  139.9100 C   0  0  1  0  0  3  0  0  0  0  0  0
  190.4490  177.0580  137.5460 C   0  0  1  0  0  3  0  0  0  0  0  0
  192.4240  175.9130  136.4830 C   0  0  0  0  0  1  0  0  0  0  0  0
  191.6360  176.1130  137.7650 C   0  0  2  0  0  3  0  0  0  0  0  0
  191.2220  174.8780  138.2680 O   0  0  0  0  0  1  0  0  0  0  0  0
  189.6900  176.8140  136.2300 C   0  0  0  0  0  2  0  0  0  0  0  0
  188.4480  175.9440  136.3870 C   0  0  0  0  0  2  0  0  0  0  0  0
  188.7210  174.6450  135.9590 O   0  0  0  0  0  1  0  0  0  0  0  0
  1  2  1  0  0  0  0
  2  3  1  0  0  0  0
  4  3  1  0  0  0  0
  4  5  1  0  0  0  0
  5  6  1  6  0  0  0
  8  7  1  6  0  0  0
  8  9  1  0  0  0  0
  8  5  1  0  0  0  0
 10  1  1  0  0  0  0
 12 10  1  0  0  0  0
 12 11  2  0  0  0  0
 13 12  1  0  0  0  0
 14 16  1  0  0  0  0
 15 13  1  6  0  0  0
 16 15  1  0  0  0  0
 17 19  1  6  0  0  0
 17 14  1  0  0  0  0
 17 18  1  0  0  0  0
 18 15  1  0  0  0  0
 20 17  1  0  0  0  0
 21 20  1  1  0  0  0
 22 24  1  0  0  0  0
 24 23  1  0  0  0  0
 25 21  1  0  0  0  0
 25 23  1  0  0  0  0
 26 22  1  0  0  0  0
 26 25  1  0  0  0  0
 28 29  2  0  0  0  0
 29 21  1  0  0  0  0
 30 27  1  0  0  0  0
 30 29  1  0  0  0  0
 31 36  1  0  0  0  0
 31 30  1  0  0  0  0
 32 33  1  0  0  0  0
 34 33  1  0  0  0  0
 35 34  1  0  0  0  0
 36 32  1  0  0  0  0
 37 35  1  0  0  0  0
 37 36  1  0  0  0  0
 38  1  1  0  0  0  0
 39 38  1  0  0  0  0
 41 43  1  0  0  0  0
 43 40  1  0  0  0  0
 44 42  2  0  0  0  0
 44 46  1  0  0  0  0
 45 41  1  1  0  0  0
 45 44  1  0  0  0  0
 46 39  1  6  0  0  0
 46 40  1  0  0  0  0
 47 50  1  6  0  0  0
 47 48  1  0  0  0  0
 47 49  1  0  0  0  0
 49 48  1  6  0  0  0
 49 45  1  0  0  0  0
 50 54  1  6  0  0  0
 50 52  1  0  0  0  0
 52 51  1  6  0  0  0
 52 53  1  0  0  0  0
 54 55  1  0  0  0  0
 56 55  1  0  0  0  0
M  END
>  <MODEL>
3

>  <REMARK>
 VINA RESULT:      -5.3      1.441      1.962
  Name = 
  23 active torsions:
  status: ('A' for Active; 'I' for Inactive)
    1  A    between atoms: C_2  and  N_3
    2  A    between atoms: C_2  and  C_24
    3  A    between atoms: N_3  and  C_16
    4  A    between atoms: N_3  and  C_53
    5  A    between atoms: C_10  and  C_32
    6  A    between atoms: C_11  and  C_16
    7  A    between atoms: C_11  and  C_32
    8  A    between atoms: C_13  and  C_28
    9  A    between atoms: C_13  and  C_50
   10  A    between atoms: C_15  and  C_27
   11  A    between atoms: C_22  and  C_31
   12  A    between atoms: C_23  and  C_29
   13  A    between atoms: C_23  and  C_46
   14  A    between atoms: C_24  and  C_52
   15  A    between atoms: C_26  and  C_37
   16  A    between atoms: C_27  and  C_31
   17  A    between atoms: C_27  and  C_40
   18  A    between atoms: C_28  and  C_38
   19  A    between atoms: C_28  and  C_47
   20  A    between atoms: C_29  and  C_39
   21  A    between atoms: C_37  and  N_51
   22  A    between atoms: C_43  and  C_54
   23  A    between atoms: C_46  and  C_53
                            x       y       z     vdW  Elec       q    Type
                         _______ _______ _______ _____ _____    ______ ____

>  <TORSDO>
F 23

$$$$
=
 OpenBabel11062414533D

 56 60  0  0  1  0  0  0  0  0999 V2000
  187.8950  178.4860  141.9260 N   0  0  0  0  0  0  0  0  0  0  0  0
  188.2840  178.2490  143.3130 C   0  0  0  0  0  2  0  0  0  0  0  0
  187.7250  176.9190  143.7790 C   0  0  0  0  0  2  0  0  0  0  0  0
  186.7560  177.1580  144.9220 C   0  0  0  0  0  2  0  0  0  0  0  0
  187.3860  178.0620  145.9740 C   0  0  1  0  0  3  0  0  0  0  0  0
  186.3440  178.6540  146.7970 N   0  0  0  0  0  1  0  0  0  0  0  0
  188.2370  177.6100  148.3200 C   0  0  0  0  0  1  0  0  0  0  0  0
  188.4020  177.3100  146.8390 C   0  0  2  0  0  3  0  0  0  0  0  0
  189.7000  177.6260  146.4370 O   0  0  0  0  0  1  0  0  0  0  0  0
  188.0570  177.2530  141.1630 C   0  0  0  0  0  2  0  0  0  0  0  0
  190.2850  176.6380  140.7200 O   0  0  0  0  0  0  0  0  0  0  0  0
  189.3190  177.2920  140.3600 C   0  0  0  0  0  0  0  0  0  0  0  0
  189.4210  178.1570  139.1440 C   0  0  0  0  0  2  0  0  0  0  0  0
  187.5280  178.0150  135.9490 C   0  0  0  0  0  2  0  0  0  0  0  0
  188.2060  177.9790  138.2450 C   0  0  1  0  0  3  0  0  0  0  0  0
  188.3430  178.7780  136.9680 C   0  0  0  0  0  2  0  0  0  0  0  0
  187.5730  176.5550  136.3750 C   0  0  1  0  0  0  0  0  0  0  0  0
  188.0840  176.5360  137.8070 C   0  0  0  0  0  2  0  0  0  0  0  0
  186.2870  176.0100  136.3340 O   0  0  0  0  0  1  0  0  0  0  0  0
  188.5290  175.7460  135.4990 C   0  0  0  0  0  2  0  0  0  0  0  0
  189.1170  174.5220  136.2050 C   0  0  1  0  0  3  0  0  0  0  0  0
  185.9780  172.6850  136.7370 C   0  0  0  0  0  2  0  0  0  0  0  0
  187.3460  173.3090  134.8620 C   0  0  0  0  0  2  0  0  0  0  0  0
  186.1450  172.4790  135.2480 C   0  0  0  0  0  2  0  0  0  0  0  0
  188.2500  173.2610  136.0770 C   0  0  0  0  0  3  0  0  0  0  0  0
  187.3600  172.9980  137.2810 C   0  0  0  0  0  2  0  0  0  0  0  0
  191.4020  176.2880  137.2490 C   0  0  0  0  0  1  0  0  0  0  0  0
  190.9010  173.2480  135.2970 O   0  0  0  0  0  0  0  0  0  0  0  0
  190.5780  174.3090  135.8970 C   0  0  0  0  0  0  0  0  0  0  0  0
  191.5940  175.2810  136.2170 N   0  0  0  0  0  0  0  0  0  0  0  0
  192.9120  175.1940  135.6040 C   0  0  0  0  0  2  0  0  0  0  0  0
  193.9730  173.7010  137.3190 C   0  0  0  0  0  2  0  0  0  0  0  0
  195.1050  173.5400  138.3480 C   0  0  0  0  0  2  0  0  0  0  0  0
  196.1090  174.6060  138.2680 N   0  0  0  0  0  2  0  0  0  0  0  0
  196.5090  174.7830  136.8730 C   0  0  0  0  0  2  0  0  0  0  0  0
  193.9910  175.0870  136.6700 C   0  0  0  0  0  3  0  0  0  0  0  0
  195.3600  175.3830  136.0530 C   0  0  0  0  0  2  0  0  0  0  0  0
  186.5000  178.9410  141.8350 C   0  0  0  0  0  2  0  0  0  0  0  0
  185.5920  178.0580  140.9660 C   0  0  0  0  0  2  0  0  0  0  0  0
  184.5300  179.5860  139.2790 C   0  0  0  0  0  2  0  0  0  0  0  0
  183.3920  177.8540  137.9330 N   0  0  0  0  0  2  0  0  0  0  0  0
  182.0040  178.1530  140.8680 C   0  0  0  0  0  2  0  0  0  0  0  0
  184.6050  178.6670  138.0480 C   0  0  0  0  0  2  0  0  0  0  0  0
  183.1940  177.8100  140.3710 C   0  0  0  0  0  0  0  0  0  0  0  0
  183.3170  176.9830  139.1040 C   0  0  1  0  0  3  0  0  0  0  0  0
  184.3130  178.7860  140.5720 C   0  0  1  0  0  3  0  0  0  0  0  0
  182.1200  175.4950  137.3840 C   0  0  2  0  0  3  0  0  0  0  0  0
  183.1880  174.6620  138.0740 C   0  0  0  0  0  2  0  0  0  0  0  0
  182.4470  175.7340  138.8480 C   0  0  1  0  0  3  0  0  0  0  0  0
  180.8190  174.7080  137.2770 C   0  0  1  0  0  3  0  0  0  0  0  0
  178.9330  175.4800  135.7970 C   0  0  0  0  0  1  0  0  0  0  0  0
  179.6130  175.6450  137.1450 C   0  0  2  0  0  3  0  0  0  0  0  0
  179.9770  176.9790  137.3350 O   0  0  0  0  0  1  0  0  0  0  0  0
  180.8730  173.6030  136.2080 C   0  0  0  0  0  2  0  0  0  0  0  0
  180.5020  172.2210  136.7320 C   0  0  0  0  0  2  0  0  0  0  0  0
  180.2500  172.2840  138.1020 O   0  0  0  0  0  1  0  0  0  0  0  0
  1  2  1  0  0  0  0
  2  3  1  0  0  0  0
  3  4  1  0  0  0  0
  4  5  1  0  0  0  0
  5  6  1  1  0  0  0
  5  8  1  0  0  0  0
  8  7  1  1  0  0  0
  9  8  1  0  0  0  0
 10  1  1  0  0  0  0
 12 11  2  0  0  0  0
 12 10  1  0  0  0  0
 13 12  1  0  0  0  0
 14 17  1  0  0  0  0
 14 16  1  0  0  0  0
 15 13  1  1  0  0  0
 16 15  1  0  0  0  0
 17 19  1  6  0  0  0
 17 18  1  0  0  0  0
 18 15  1  0  0  0  0
 20 17  1  0  0  0  0
 21 20  1  6  0  0  0
 22 26  1  0  0  0  0
 23 24  1  0  0  0  0
 23 25  1  0  0  0  0
 24 22  1  0  0  0  0
 25 21  1  0  0  0  0
 25 26  1  0  0  0  0
 28 29  2  0  0  0  0
 29 21  1  0  0  0  0
 29 30  1  0  0  0  0
 30 27  1  0  0  0  0
 31 30  1  0  0  0  0
 31 36  1  0  0  0  0
 32 33  1  0  0  0  0
 34 33  1  0  0  0  0
 35 34  1  0  0  0  0
 36 32  1  0  0  0  0
 37 36  1  0  0  0  0
 37 35  1  0  0  0  0
 38  1  1  0  0  0  0
 39 38  1  0  0  0  0
 40 46  1  0  0  0  0
 41 43  1  0  0  0  0
 43 40  1  0  0  0  0
 44 46  1  0  0  0  0
 44 42  2  0  0  0  0
 45 41  1  6  0  0  0
 45 44  1  0  0  0  0
 46 39  1  6  0  0  0
 47 50  1  1  0  0  0
 47 48  1  0  0  0  0
 47 49  1  0  0  0  0
 49 48  1  6  0  0  0
 49 45  1  0  0  0  0
 50 54  1  6  0  0  0
 52 51  1  6  0  0  0
 52 50  1  0  0  0  0
 52 53  1  0  0  0  0
 54 55  1  0  0  0  0
 55 56  1  0  0  0  0
M  END
>  <MODEL>
4

>  <REMARK>
 VINA RESULT:      -5.3      2.580      7.935
  Name = 
  23 active torsions:
  status: ('A' for Active; 'I' for Inactive)
    1  A    between atoms: C_2  and  N_3
    2  A    between atoms: C_2  and  C_24
    3  A    between atoms: N_3  and  C_16
    4  A    between atoms: N_3  and  C_53
    5  A    between atoms: C_10  and  C_32
    6  A    between atoms: C_11  and  C_16
    7  A    between atoms: C_11  and  C_32
    8  A    between atoms: C_13  and  C_28
    9  A    between atoms: C_13  and  C_50
   10  A    between atoms: C_15  and  C_27
   11  A    between atoms: C_22  and  C_31
   12  A    between atoms: C_23  and  C_29
   13  A    between atoms: C_23  and  C_46
   14  A    between atoms: C_24  and  C_52
   15  A    between atoms: C_26  and  C_37
   16  A    between atoms: C_27  and  C_31
   17  A    between atoms: C_27  and  C_40
   18  A    between atoms: C_28  and  C_38
   19  A    between atoms: C_28  and  C_47
   20  A    between atoms: C_29  and  C_39
   21  A    between atoms: C_37  and  N_51
   22  A    between atoms: C_43  and  C_54
   23  A    between atoms: C_46  and  C_53
                            x       y       z     vdW  Elec       q    Type
                         _______ _______ _______ _____ _____    ______ ____

>  <TORSDO>
F 23

$$$$
=
 OpenBabel11062414533D

 56 60  0  0  1  0  0  0  0  0999 V2000
  186.5710  177.3980  145.2940 N   0  0  0  0  0  0  0  0  0  0  0  0
  187.2430  177.4870  146.5860 C   0  0  0  0  0  2  0  0  0  0  0  0
  188.6840  177.9110  146.3840 C   0  0  0  0  0  2  0  0  0  0  0  0
  189.5940  176.9790  147.1620 C   0  0  0  0  0  2  0  0  0  0  0  0
  190.8540  176.6740  146.3610 C   0  0  1  0  0  3  0  0  0  0  0  0
  191.1480  177.7860  145.4710 N   0  0  0  0  0  1  0  0  0  0  0  0
  192.0260  174.9500  147.8030 C   0  0  0  0  0  1  0  0  0  0  0  0
  192.0500  176.3720  147.2690 C   0  0  2  0  0  3  0  0  0  0  0  0
  192.0830  177.2740  148.3330 O   0  0  0  0  0  1  0  0  0  0  0  0
  186.2920  178.7430  144.8020 C   0  0  0  0  0  2  0  0  0  0  0  0
  184.1640  178.7480  145.8060 O   0  0  0  0  0  0  0  0  0  0  0  0
  184.8200  179.0140  144.8120 C   0  0  0  0  0  0  0  0  0  0  0  0
  184.1400  179.5660  143.6000 C   0  0  0  0  0  2  0  0  0  0  0  0
  181.5260  178.1720  141.3560 C   0  0  0  0  0  2  0  0  0  0  0  0
  183.3440  178.4860  142.8820 C   0  0  1  0  0  3  0  0  0  0  0  0
  181.9320  178.9410  142.5920 C   0  0  0  0  0  2  0  0  0  0  0  0
  182.8070  177.9100  140.5790 C   0  0  1  0  0  0  0  0  0  0  0  0
  183.9590  178.1930  141.5300 C   0  0  0  0  0  2  0  0  0  0  0  0
  182.8540  176.5720  140.1780 O   0  0  0  0  0  1  0  0  0  0  0  0
  182.9280  178.8380  139.3690 C   0  0  0  0  0  2  0  0  0  0  0  0
  181.6350  178.9590  138.5610 C   0  0  1  0  0  3  0  0  0  0  0  0
  179.8630  181.9560  137.3810 C   0  0  0  0  0  2  0  0  0  0  0  0
  181.9320  181.4730  138.5040 C   0  0  0  0  0  2  0  0  0  0  0  0
  181.1490  182.5920  137.8590 C   0  0  0  0  0  2  0  0  0  0  0  0
  181.5550  180.2370  137.7130 C   0  0  0  0  0  3  0  0  0  0  0  0
  180.1830  180.4970  137.1130 C   0  0  0  0  0  2  0  0  0  0  0  0
  183.5200  177.4720  136.6480 C   0  0  0  0  0  1  0  0  0  0  0  0
  180.2010  177.1210  138.1170 O   0  0  0  0  0  0  0  0  0  0  0  0
  181.2840  177.6940  137.8180 C   0  0  0  0  0  0  0  0  0  0  0  0
  182.1060  177.1530  136.7650 N   0  0  0  0  0  0  0  0  0  0  0  0
  181.5700  176.1490  135.8570 C   0  0  0  0  0  2  0  0  0  0  0  0
  181.0570  173.8660  136.7640 C   0  0  0  0  0  2  0  0  0  0  0  0
  181.5900  172.4470  137.0300 C   0  0  0  0  0  2  0  0  0  0  0  0
  182.8930  172.1970  136.4050 N   0  0  0  0  0  2  0  0  0  0  0  0
  182.8450  172.6310  135.0100 C   0  0  0  0  0  2  0  0  0  0  0  0
  182.1400  174.7760  136.1820 C   0  0  0  0  0  3  0  0  0  0  0  0
  182.7530  174.1600  134.9220 C   0  0  0  0  0  2  0  0  0  0  0  0
  187.3970  176.6770  144.3130 C   0  0  0  0  0  2  0  0  0  0  0  0
  187.2900  177.2030  142.8740 C   0  0  0  0  0  2  0  0  0  0  0  0
  189.7950  177.3610  142.7710 C   0  0  0  0  0  2  0  0  0  0  0  0
  190.0600  176.8580  140.3660 N   0  0  0  0  0  2  0  0  0  0  0  0
  188.6860  179.7820  140.8030 C   0  0  0  0  0  2  0  0  0  0  0  0
  190.0560  176.2780  141.7110 C   0  0  0  0  0  2  0  0  0  0  0  0
  188.3990  178.5080  141.0770 C   0  0  0  0  0  0  0  0  0  0  0  0
  188.7260  177.3930  140.0990 C   0  0  1  0  0  3  0  0  0  0  0  0
  188.4710  178.0970  142.5150 C   0  0  1  0  0  3  0  0  0  0  0  0
  187.5210  176.4270  138.0460 C   0  0  2  0  0  3  0  0  0  0  0  0
  186.9820  177.8250  138.3000 C   0  0  0  0  0  2  0  0  0  0  0  0
  188.4360  177.5100  138.5880 C   0  0  1  0  0  3  0  0  0  0  0  0
  187.7970  176.2270  136.5600 C   0  0  1  0  0  3  0  0  0  0  0  0
  189.4180  177.3210  134.9720 C   0  0  0  0  0  1  0  0  0  0  0  0
  189.2720  176.4840  136.2300 C   0  0  2  0  0  3  0  0  0  0  0  0
  189.9820  175.2890  136.0930 O   0  0  0  0  0  1  0  0  0  0  0  0
  187.2610  174.8880  136.0250 C   0  0  0  0  0  2  0  0  0  0  0  0
  185.9520  174.4470  136.6700 C   0  0  0  0  0  2  0  0  0  0  0  0
  186.1600  173.2950  137.4270 O   0  0  0  0  0  1  0  0  0  0  0  0
  1  2  1  0  0  0  0
  3  2  1  0  0  0  0
  3  4  1  0  0  0  0
  5  6  1  1  0  0  0
  5  4  1  0  0  0  0
  5  8  1  0  0  0  0
  8  7  1  1  0  0  0
  8  9  1  0  0  0  0
 10 12  1  0  0  0  0
 10  1  1  0  0  0  0
 12 11  2  0  0  0  0
 13 12  1  0  0  0  0
 14 16  1  0  0  0  0
 15 13  1  6  0  0  0
 16 15  1  0  0  0  0
 17 19  1  6  0  0  0
 17 14  1  0  0  0  0
 17 18  1  0  0  0  0
 18 15  1  0  0  0  0
 20 17  1  0  0  0  0
 21 20  1  6  0  0  0
 22 24  1  0  0  0  0
 24 23  1  0  0  0  0
 25 23  1  0  0  0  0
 25 21  1  0  0  0  0
 26 22  1  0  0  0  0
 26 25  1  0  0  0  0
 27 30  1  0  0  0  0
 29 28  2  0  0  0  0
 29 21  1  0  0  0  0
 30 29  1  0  0  0  0
 31 36  1  0  0  0  0
 31 30  1  0  0  0  0
 32 33  1  0  0  0  0
 34 33  1  0  0  0  0
 35 34  1  0  0  0  0
 36 32  1  0  0  0  0
 37 35  1  0  0  0  0
 37 36  1  0  0  0  0
 38  1  1  0  0  0  0
 39 38  1  0  0  0  0
 41 43  1  0  0  0  0
 42 44  2  0  0  0  0
 43 40  1  0  0  0  0
 44 46  1  0  0  0  0
 45 41  1  6  0  0  0
 45 44  1  0  0  0  0
 46 40  1  0  0  0  0
 46 39  1  6  0  0  0
 47 50  1  6  0  0  0
 47 48  1  0  0  0  0
 47 49  1  0  0  0  0
 49 48  1  1  0  0  0
 49 45  1  0  0  0  0
 50 54  1  1  0  0  0
 52 51  1  6  0  0  0
 52 50  1  0  0  0  0
 53 52  1  0  0  0  0
 54 55  1  0  0  0  0
 55 56  1  0  0  0  0
M  END
>  <MODEL>
5

>  <REMARK>
 VINA RESULT:      -5.2      1.827      2.561
  Name = 
  23 active torsions:
  status: ('A' for Active; 'I' for Inactive)
    1  A    between atoms: C_2  and  N_3
    2  A    between atoms: C_2  and  C_24
    3  A    between atoms: N_3  and  C_16
    4  A    between atoms: N_3  and  C_53
    5  A    between atoms: C_10  and  C_32
    6  A    between atoms: C_11  and  C_16
    7  A    between atoms: C_11  and  C_32
    8  A    between atoms: C_13  and  C_28
    9  A    between atoms: C_13  and  C_50
   10  A    between atoms: C_15  and  C_27
   11  A    between atoms: C_22  and  C_31
   12  A    between atoms: C_23  and  C_29
   13  A    between atoms: C_23  and  C_46
   14  A    between atoms: C_24  and  C_52
   15  A    between atoms: C_26  and  C_37
   16  A    between atoms: C_27  and  C_31
   17  A    between atoms: C_27  and  C_40
   18  A    between atoms: C_28  and  C_38
   19  A    between atoms: C_28  and  C_47
   20  A    between atoms: C_29  and  C_39
   21  A    between atoms: C_37  and  N_51
   22  A    between atoms: C_43  and  C_54
   23  A    between atoms: C_46  and  C_53
                            x       y       z     vdW  Elec       q    Type
                         _______ _______ _______ _____ _____    ______ ____

>  <TORSDO>
F 23

$$$$
=
 OpenBabel11062414533D

 56 60  0  0  1  0  0  0  0  0999 V2000
  188.4220  177.7570  141.7170 N   0  0  0  0  0  0  0  0  0  0  0  0
  189.6780  178.1230  142.3660 C   0  0  0  0  0  2  0  0  0  0  0  0
  189.8920  177.2530  143.5900 C   0  0  0  0  0  2  0  0  0  0  0  0
  189.9820  178.1350  144.8210 C   0  0  0  0  0  2  0  0  0  0  0  0
  188.7270  177.9900  145.6720 C   0  0  1  0  0  3  0  0  0  0  0  0
  187.9040  176.9100  145.1500 N   0  0  0  0  0  1  0  0  0  0  0  0
  190.1740  176.7370  147.3360 C   0  0  0  0  0  1  0  0  0  0  0  0
  189.0610  177.7550  147.1490 C   0  0  2  0  0  3  0  0  0  0  0  0
  187.9220  177.3400  147.8370 O   0  0  0  0  0  1  0  0  0  0  0  0
  187.6370  178.9620  141.4730 C   0  0  0  0  0  2  0  0  0  0  0  0
  185.8360  178.1450  142.7480 O   0  0  0  0  0  0  0  0  0  0  0  0
  186.1840  178.7050  141.7200 C   0  0  0  0  0  0  0  0  0  0  0  0
  185.1590  179.0880  140.7010 C   0  0  0  0  0  2  0  0  0  0  0  0
  182.5570  176.8210  139.3200 C   0  0  0  0  0  2  0  0  0  0  0  0
  184.6080  177.8580  139.9940 C   0  0  1  0  0  3  0  0  0  0  0  0
  183.2210  177.5120  140.4890 C   0  0  0  0  0  2  0  0  0  0  0  0
  183.1940  177.4010  138.0660 C   0  0  1  0  0  0  0  0  0  0  0  0
  184.4520  178.1290  138.5130 C   0  0  0  0  0  2  0  0  0  0  0  0
  183.5420  176.3680  137.1910 O   0  0  0  0  0  1  0  0  0  0  0  0
  182.2650  178.4000  137.3770 C   0  0  0  0  0  2  0  0  0  0  0  0
  180.7940  178.2350  137.7670 C   0  0  1  0  0  3  0  0  0  0  0  0
  180.0870  181.1910  139.8360 C   0  0  0  0  0  2  0  0  0  0  0  0
  180.9130  180.7610  137.6200 C   0  0  0  0  0  2  0  0  0  0  0  0
  180.4610  181.8720  138.5380 C   0  0  0  0  0  2  0  0  0  0  0  0
  180.0720  179.5670  138.0220 C   0  0  0  0  0  3  0  0  0  0  0  0
  179.6620  179.7810  139.4700 C   0  0  0  0  0  2  0  0  0  0  0  0
  178.9320  175.9980  138.7440 C   0  0  0  0  0  1  0  0  0  0  0  0
  180.0680  177.5130  135.6260 O   0  0  0  0  0  0  0  0  0  0  0  0
  180.0490  177.2830  136.8670 C   0  0  0  0  0  0  0  0  0  0  0  0
  179.3670  176.1120  137.3610 N   0  0  0  0  0  0  0  0  0  0  0  0
  178.9660  175.0550  136.4430 C   0  0  0  0  0  2  0  0  0  0  0  0
  180.3470  173.1320  137.2750 C   0  0  0  0  0  2  0  0  0  0  0  0
  181.4810  172.1420  136.9590 C   0  0  0  0  0  2  0  0  0  0  0  0
  181.9020  172.1820  135.5540 N   0  0  0  0  0  2  0  0  0  0  0  0
  180.7190  172.1230  134.6980 C   0  0  0  0  0  2  0  0  0  0  0  0
  180.1410  174.1370  136.1400 C   0  0  0  0  0  3  0  0  0  0  0  0
  179.9040  173.4180  134.8100 C   0  0  0  0  0  2  0  0  0  0  0  0
  188.6650  177.0610  140.4450 C   0  0  0  0  0  2  0  0  0  0  0  0
  188.6820  177.9720  139.2080 C   0  0  0  0  0  2  0  0  0  0  0  0
  187.8330  178.3220  136.8710 C   0  0  0  0  0  2  0  0  0  0  0  0
  189.7800  177.3890  135.6670 N   0  0  0  0  0  2  0  0  0  0  0  0
  188.1250  175.0420  137.2100 C   0  0  0  0  0  2  0  0  0  0  0  0
  189.1720  178.6210  136.1750 C   0  0  0  0  0  2  0  0  0  0  0  0
  188.8040  176.1430  137.5340 C   0  0  0  0  0  0  0  0  0  0  0  0
  190.0820  176.5280  136.8090 C   0  0  1  0  0  3  0  0  0  0  0  0
  188.0020  177.3120  138.0150 C   0  0  1  0  0  3  0  0  0  0  0  0
  192.1860  175.2920  137.6150 C   0  0  2  0  0  3  0  0  0  0  0  0
  191.0980  174.2620  137.3560 C   0  0  0  0  0  2  0  0  0  0  0  0
  191.1900  175.5020  136.4890 C   0  0  1  0  0  3  0  0  0  0  0  0
  193.5140  174.8190  137.0360 C   0  0  1  0  0  3  0  0  0  0  0  0
  194.6980  174.8520  134.8130 C   0  0  0  0  0  1  0  0  0  0  0  0
  193.9310  175.6730  135.8330 C   0  0  2  0  0  3  0  0  0  0  0  0
  194.6900  176.7770  136.2270 O   0  0  0  0  0  1  0  0  0  0  0  0
  194.6120  174.6640  138.1030 C   0  0  0  0  0  2  0  0  0  0  0  0
  195.1480  173.2430  138.2330 C   0  0  0  0  0  2  0  0  0  0  0  0
  196.4020  173.1510  137.6320 O   0  0  0  0  0  1  0  0  0  0  0  0
  1  2  1  0  0  0  0
  2  3  1  0  0  0  0
  3  4  1  0  0  0  0
  4  5  1  0  0  0  0
  5  6  1  6  0  0  0
  5  8  1  0  0  0  0
  8  7  1  6  0  0  0
  8  9  1  0  0  0  0
 10  1  1  0  0  0  0
 10 12  1  0  0  0  0
 12 11  2  0  0  0  0
 13 12  1  0  0  0  0
 14 16  1  0  0  0  0
 15 16  1  0  0  0  0
 15 13  1  1  0  0  0
 17 19  1  6  0  0  0
 17 18  1  0  0  0  0
 17 14  1  0  0  0  0
 18 15  1  0  0  0  0
 20 17  1  0  0  0  0
 21 20  1  6  0  0  0
 21 25  1  0  0  0  0
 23 25  1  0  0  0  0
 23 24  1  0  0  0  0
 24 22  1  0  0  0  0
 25 26  1  0  0  0  0
 26 22  1  0  0  0  0
 28 29  2  0  0  0  0
 29 30  1  0  0  0  0
 29 21  1  0  0  0  0
 30 27  1  0  0  0  0
 31 30  1  0  0  0  0
 33 32  1  0  0  0  0
 34 33  1  0  0  0  0
 35 37  1  0  0  0  0
 35 34  1  0  0  0  0
 36 31  1  0  0  0  0
 36 32  1  0  0  0  0
 37 36  1  0  0  0  0
 38  1  1  0  0  0  0
 39 38  1  0  0  0  0
 40 46  1  0  0  0  0
 41 43  1  0  0  0  0
 42 44  2  0  0  0  0
 43 40  1  0  0  0  0
 44 46  1  0  0  0  0
 45 41  1  6  0  0  0
 45 44  1  0  0  0  0
 46 39  1  1  0  0  0
 47 50  1  6  0  0  0
 48 47  1  0  0  0  0
 49 45  1  0  0  0  0
 49 48  1  1  0  0  0
 49 47  1  0  0  0  0
 50 54  1  1  0  0  0
 52 51  1  6  0  0  0
 52 53  1  0  0  0  0
 52 50  1  0  0  0  0
 54 55  1  0  0  0  0
 56 55  1  0  0  0  0
M  END
>  <MODEL>
6

>  <REMARK>
 VINA RESULT:      -5.1      2.574      4.430
  Name = 
  23 active torsions:
  status: ('A' for Active; 'I' for Inactive)
    1  A    between atoms: C_2  and  N_3
    2  A    between atoms: C_2  and  C_24
    3  A    between atoms: N_3  and  C_16
    4  A    between atoms: N_3  and  C_53
    5  A    between atoms: C_10  and  C_32
    6  A    between atoms: C_11  and  C_16
    7  A    between atoms: C_11  and  C_32
    8  A    between atoms: C_13  and  C_28
    9  A    between atoms: C_13  and  C_50
   10  A    between atoms: C_15  and  C_27
   11  A    between atoms: C_22  and  C_31
   12  A    between atoms: C_23  and  C_29
   13  A    between atoms: C_23  and  C_46
   14  A    between atoms: C_24  and  C_52
   15  A    between atoms: C_26  and  C_37
   16  A    between atoms: C_27  and  C_31
   17  A    between atoms: C_27  and  C_40
   18  A    between atoms: C_28  and  C_38
   19  A    between atoms: C_28  and  C_47
   20  A    between atoms: C_29  and  C_39
   21  A    between atoms: C_37  and  N_51
   22  A    between atoms: C_43  and  C_54
   23  A    between atoms: C_46  and  C_53
                            x       y       z     vdW  Elec       q    Type
                         _______ _______ _______ _____ _____    ______ ____

>  <TORSDO>
F 23

$$$$
=
 OpenBabel11062414533D

 56 60  0  0  1  0  0  0  0  0999 V2000
  191.5270  175.4330  137.9140 N   0  0  0  0  0  0  0  0  0  0  0  0
  192.0210  174.7190  136.7410 C   0  0  0  0  0  2  0  0  0  0  0  0
  193.2380  173.8970  137.1190 C   0  0  0  0  0  2  0  0  0  0  0  0
  194.4890  174.7330  136.9140 C   0  0  0  0  0  2  0  0  0  0  0  0
  195.4930  174.4700  138.0290 C   0  0  1  0  0  3  0  0  0  0  0  0
  195.1680  173.2180  138.6940 N   0  0  0  0  0  1  0  0  0  0  0  0
  197.2170  173.2450  136.6300 C   0  0  0  0  0  1  0  0  0  0  0  0
  196.9330  174.4520  137.5090 C   0  0  2  0  0  3  0  0  0  0  0  0
  197.8290  174.4770  138.5780 O   0  0  0  0  0  1  0  0  0  0  0  0
  192.1260  176.7620  137.9570 C   0  0  0  0  0  2  0  0  0  0  0  0
  193.6380  176.8510  139.7580 O   0  0  0  0  0  0  0  0  0  0  0  0
  192.5170  177.1210  139.3560 C   0  0  0  0  0  0  0  0  0  0  0  0
  191.5330  177.7670  140.2800 C   0  0  0  0  0  2  0  0  0  0  0  0
  190.5290  176.5230  143.6350 C   0  0  0  0  0  2  0  0  0  0  0  0
  191.0100  176.7680  141.3020 C   0  0  1  0  0  3  0  0  0  0  0  0
  191.5790  177.0370  142.6770 C   0  0  0  0  0  2  0  0  0  0  0  0
  189.1940  176.6690  142.9190 C   0  0  1  0  0  0  0  0  0  0  0  0
  189.5100  176.9070  141.4510 C   0  0  0  0  0  2  0  0  0  0  0  0
  188.4560  175.4890  143.0490 O   0  0  0  0  0  1  0  0  0  0  0  0
  188.3990  177.8610  143.4520 C   0  0  0  0  0  2  0  0  0  0  0  0
  187.6010  177.5460  144.7180 C   0  0  1  0  0  3  0  0  0  0  0  0
  187.9340  177.6280  148.3790 C   0  0  0  0  0  2  0  0  0  0  0  0
  189.3580  177.1570  146.5000 C   0  0  0  0  0  2  0  0  0  0  0  0
  189.3720  177.3530  147.9980 C   0  0  0  0  0  2  0  0  0  0  0  0
  188.2550  178.0700  146.0060 C   0  0  0  0  0  3  0  0  0  0  0  0
  187.2840  178.2580  147.1600 C   0  0  0  0  0  2  0  0  0  0  0  0
  186.3140  178.8600  142.2600 C   0  0  0  0  0  1  0  0  0  0  0  0
  185.3550  177.4380  145.4790 O   0  0  0  0  0  0  0  0  0  0  0  0
  186.1340  177.8710  144.5860 C   0  0  0  0  0  0  0  0  0  0  0  0
  185.6070  178.6850  143.5190 N   0  0  0  0  0  0  0  0  0  0  0  0
  184.2700  179.2520  143.6210 C   0  0  0  0  0  2  0  0  0  0  0  0
  181.8840  179.0120  142.8810 C   0  0  0  0  0  2  0  0  0  0  0  0
  180.9220  178.4110  141.8410 C   0  0  0  0  0  2  0  0  0  0  0  0
  181.6160  177.8270  140.6890 N   0  0  0  0  0  2  0  0  0  0  0  0
  182.6090  178.7780  140.1940 C   0  0  0  0  0  2  0  0  0  0  0  0
  183.3310  178.5850  142.6270 C   0  0  0  0  0  3  0  0  0  0  0  0
  183.7590  178.9310  141.1980 C   0  0  0  0  0  2  0  0  0  0  0  0
  190.0620  175.5540  137.8860 C   0  0  0  0  0  2  0  0  0  0  0  0
  189.3350  174.3840  137.2050 C   0  0  0  0  0  2  0  0  0  0  0  0
  188.5900  173.9850  134.8400 C   0  0  0  0  0  2  0  0  0  0  0  0
  186.5130  172.7460  135.3510 N   0  0  0  0  0  2  0  0  0  0  0  0
  186.2360  175.8850  136.1850 C   0  0  0  0  0  2  0  0  0  0  0  0
  187.9360  172.6060  135.0280 C   0  0  0  0  0  2  0  0  0  0  0  0
  186.9900  174.8380  136.5260 C   0  0  0  0  0  0  0  0  0  0  0  0
  186.4050  173.4400  136.6320 C   0  0  1  0  0  3  0  0  0  0  0  0
  188.4210  174.8670  136.0860 C   0  0  1  0  0  3  0  0  0  0  0  0
  183.8560  173.2110  136.4140 C   0  0  2  0  0  3  0  0  0  0  0  0
  184.4180  171.8720  136.8630 C   0  0  0  0  0  2  0  0  0  0  0  0
  185.0600  173.1600  137.3360 C   0  0  1  0  0  3  0  0  0  0  0  0
  182.6120  173.5630  137.2230 C   0  0  1  0  0  3  0  0  0  0  0  0
  182.7020  175.8480  136.1680 C   0  0  0  0  0  1  0  0  0  0  0  0
  182.5150  175.0740  137.4610 C   0  0  2  0  0  3  0  0  0  0  0  0
  183.4410  175.5040  138.4130 O   0  0  0  0  0  1  0  0  0  0  0  0
  181.3280  172.9360  136.6530 C   0  0  0  0  0  2  0  0  0  0  0  0
  180.6800  171.9120  137.5780 C   0  0  0  0  0  2  0  0  0  0  0  0
  179.3710  171.6640  137.1680 O   0  0  0  0  0  1  0  0  0  0  0  0
  1 10  1  0  0  0  0
  2  3  1  0  0  0  0
  2  1  1  0  0  0  0
  4  3  1  0  0  0  0
  4  5  1  0  0  0  0
  5  6  1  6  0  0  0
  8  7  1  1  0  0  0
  8  5  1  0  0  0  0
  8  9  1  0  0  0  0
 10 12  1  0  0  0  0
 12 11  2  0  0  0  0
 12 13  1  0  0  0  0
 15 13  1  6  0  0  0
 15 18  1  0  0  0  0
 15 16  1  0  0  0  0
 16 14  1  0  0  0  0
 17 19  1  1  0  0  0
 17 20  1  0  0  0  0
 17 14  1  0  0  0  0
 18 17  1  0  0  0  0
 21 20  1  6  0  0  0
 21 25  1  0  0  0  0
 23 24  1  0  0  0  0
 24 22  1  0  0  0  0
 25 23  1  0  0  0  0
 25 26  1  0  0  0  0
 26 22  1  0  0  0  0
 27 30  1  0  0  0  0
 29 21  1  0  0  0  0
 29 28  2  0  0  0  0
 30 31  1  0  0  0  0
 30 29  1  0  0  0  0
 33 32  1  0  0  0  0
 34 33  1  0  0  0  0
 35 34  1  0  0  0  0
 35 37  1  0  0  0  0
 36 32  1  0  0  0  0
 36 31  1  0  0  0  0
 37 36  1  0  0  0  0
 38  1  1  0  0  0  0
 39 38  1  0  0  0  0
 40 43  1  0  0  0  0
 40 46  1  0  0  0  0
 42 44  2  0  0  0  0
 43 41  1  0  0  0  0
 44 45  1  0  0  0  0
 45 41  1  6  0  0  0
 45 49  1  0  0  0  0
 46 44  1  0  0  0  0
 46 39  1  1  0  0  0
 47 48  1  0  0  0  0
 47 50  1  1  0  0  0
 47 49  1  0  0  0  0
 49 48  1  6  0  0  0
 50 54  1  6  0  0  0
 50 52  1  0  0  0  0
 52 51  1  6  0  0  0
 52 53  1  0  0  0  0
 54 55  1  0  0  0  0
 56 55  1  0  0  0  0
M  END
>  <MODEL>
7

>  <REMARK>
 VINA RESULT:      -4.8      2.650      9.424
  Name = 
  23 active torsions:
  status: ('A' for Active; 'I' for Inactive)
    1  A    between atoms: C_2  and  N_3
    2  A    between atoms: C_2  and  C_24
    3  A    between atoms: N_3  and  C_16
    4  A    between atoms: N_3  and  C_53
    5  A    between atoms: C_10  and  C_32
    6  A    between atoms: C_11  and  C_16
    7  A    between atoms: C_11  and  C_32
    8  A    between atoms: C_13  and  C_28
    9  A    between atoms: C_13  and  C_50
   10  A    between atoms: C_15  and  C_27
   11  A    between atoms: C_22  and  C_31
   12  A    between atoms: C_23  and  C_29
   13  A    between atoms: C_23  and  C_46
   14  A    between atoms: C_24  and  C_52
   15  A    between atoms: C_26  and  C_37
   16  A    between atoms: C_27  and  C_31
   17  A    between atoms: C_27  and  C_40
   18  A    between atoms: C_28  and  C_38
   19  A    between atoms: C_28  and  C_47
   20  A    between atoms: C_29  and  C_39
   21  A    between atoms: C_37  and  N_51
   22  A    between atoms: C_43  and  C_54
   23  A    between atoms: C_46  and  C_53
                            x       y       z     vdW  Elec       q    Type
                         _______ _______ _______ _____ _____    ______ ____

>  <TORSDO>
F 23

$$$$
=
 OpenBabel11062414533D

 56 60  0  0  1  0  0  0  0  0999 V2000
  188.6870  177.4050  139.4660 N   0  0  0  0  0  0  0  0  0  0  0  0
  188.0560  178.6700  139.8330 C   0  0  0  0  0  2  0  0  0  0  0  0
  186.5490  178.5080  139.8300 C   0  0  0  0  0  2  0  0  0  0  0  0
  186.0260  178.6610  141.2460 C   0  0  0  0  0  2  0  0  0  0  0  0
  184.5110  178.5060  141.2740 C   0  0  1  0  0  3  0  0  0  0  0  0
  183.9650  179.2370  142.4060 N   0  0  0  0  0  1  0  0  0  0  0  0
  183.9000  177.8930  138.8900 C   0  0  0  0  0  1  0  0  0  0  0  0
  183.8650  178.9690  139.9640 C   0  0  2  0  0  3  0  0  0  0  0  0
  184.4990  180.1200  139.4980 O   0  0  0  0  0  1  0  0  0  0  0  0
  189.5900  177.6270  138.3420 C   0  0  0  0  0  2  0  0  0  0  0  0
  189.5760  177.1460  136.0380 O   0  0  0  0  0  0  0  0  0  0  0  0
  188.9090  177.3140  137.0470 C   0  0  0  0  0  0  0  0  0  0  0  0
  187.4160  177.2500  136.9680 C   0  0  0  0  0  2  0  0  0  0  0  0
  186.2860  173.8010  136.1700 C   0  0  0  0  0  2  0  0  0  0  0  0
  186.9670  176.0950  136.0850 C   0  0  1  0  0  3  0  0  0  0  0  0
  187.3280  174.7600  136.6970 C   0  0  0  0  0  2  0  0  0  0  0  0
  185.0310  174.6270  135.9280 C   0  0  1  0  0  0  0  0  0  0  0  0
  185.4590  176.0860  135.9590 C   0  0  0  0  0  2  0  0  0  0  0  0
  184.5000  174.3260  134.6710 O   0  0  0  0  0  1  0  0  0  0  0  0
  183.9890  174.3960  137.0220 C   0  0  0  0  0  2  0  0  0  0  0  0
  182.6120  174.0070  136.4810 C   0  0  1  0  0  3  0  0  0  0  0  0
  182.7210  170.7050  134.8690 C   0  0  0  0  0  2  0  0  0  0  0  0
  183.5860  171.7030  136.8770 C   0  0  0  0  0  2  0  0  0  0  0  0
  183.4380  170.3810  136.1610 C   0  0  0  0  0  2  0  0  0  0  0  0
  182.3550  172.4920  136.4810 C   0  0  0  0  0  3  0  0  0  0  0  0
  181.8890  171.9440  135.1420 C   0  0  0  0  0  2  0  0  0  0  0  0
  180.3380  175.2850  134.8610 C   0  0  0  0  0  1  0  0  0  0  0  0
  181.3960  174.8710  138.3270 O   0  0  0  0  0  0  0  0  0  0  0  0
  181.4940  174.8300  137.0700 C   0  0  0  0  0  0  0  0  0  0  0  0
  180.5780  175.5950  136.2610 N   0  0  0  0  0  0  0  0  0  0  0  0
  179.7500  176.6290  136.8690 C   0  0  0  0  0  2  0  0  0  0  0  0
  180.2310  178.9430  136.0250 C   0  0  0  0  0  2  0  0  0  0  0  0
  180.9790  180.2630  136.2720 C   0  0  0  0  0  2  0  0  0  0  0  0
  181.5900  180.3360  137.6040 N   0  0  0  0  0  2  0  0  0  0  0  0
  180.6020  179.9410  138.6060 C   0  0  0  0  0  2  0  0  0  0  0  0
  180.5600  177.8970  137.0920 C   0  0  0  0  0  3  0  0  0  0  0  0
  180.2860  178.4440  138.4950 C   0  0  0  0  0  2  0  0  0  0  0  0
  189.4360  176.8360  140.5950 C   0  0  0  0  0  2  0  0  0  0  0  0
  190.5050  177.7650  141.1900 C   0  0  0  0  0  2  0  0  0  0  0  0
  192.2400  178.0690  142.9800 C   0  0  0  0  0  2  0  0  0  0  0  0
  190.7040  178.2240  144.9100 N   0  0  0  0  0  2  0  0  0  0  0  0
  190.7480  175.2000  143.6910 C   0  0  0  0  0  2  0  0  0  0  0  0
  191.4530  178.9990  143.9180 C   0  0  0  0  0  2  0  0  0  0  0  0
  190.4130  176.4240  143.2770 C   0  0  0  0  0  0  0  0  0  0  0  0
  189.7180  177.4100  144.1990 C   0  0  1  0  0  3  0  0  0  0  0  0
  191.3180  177.0650  142.2710 C   0  0  1  0  0  3  0  0  0  0  0  0
  187.6920  178.1660  145.5870 C   0  0  2  0  0  3  0  0  0  0  0  0
  187.1930  177.2740  144.4620 C   0  0  0  0  0  2  0  0  0  0  0  0
  188.5380  177.0010  145.1060 C   0  0  1  0  0  3  0  0  0  0  0  0
  187.0160  177.7930  146.9010 C   0  0  1  0  0  3  0  0  0  0  0  0
  189.3570  178.3080  147.6730 C   0  0  0  0  0  1  0  0  0  0  0  0
  188.0420  177.6390  148.0290 C   0  0  2  0  0  3  0  0  0  0  0  0
  188.2590  176.2970  148.3450 O   0  0  0  0  0  1  0  0  0  0  0  0
  185.8350  178.7160  147.2510 C   0  0  0  0  0  2  0  0  0  0  0  0
  184.4890  178.2130  146.7440 C   0  0  0  0  0  2  0  0  0  0  0  0
  184.0500  179.0120  145.6890 O   0  0  0  0  0  1  0  0  0  0  0  0
  1  2  1  0  0  0  0
  1 38  1  0  0  0  0
  3  2  1  0  0  0  0
  3  4  1  0  0  0  0
  4  5  1  0  0  0  0
  5  6  1  1  0  0  0
  8  7  1  6  0  0  0
  8  5  1  0  0  0  0
  9  8  1  0  0  0  0
 10  1  1  0  0  0  0
 11 12  2  0  0  0  0
 12 10  1  0  0  0  0
 13 12  1  0  0  0  0
 14 16  1  0  0  0  0
 15 16  1  0  0  0  0
 15 13  1  1  0  0  0
 17 19  1  6  0  0  0
 17 18  1  0  0  0  0
 17 14  1  0  0  0  0
 17 20  1  0  0  0  0
 18 15  1  0  0  0  0
 21 25  1  0  0  0  0
 21 20  1  1  0  0  0
 21 29  1  0  0  0  0
 22 26  1  0  0  0  0
 22 24  1  0  0  0  0
 24 23  1  0  0  0  0
 25 23  1  0  0  0  0
 26 25  1  0  0  0  0
 27 30  1  0  0  0  0
 29 28  2  0  0  0  0
 30 31  1  0  0  0  0
 30 29  1  0  0  0  0
 31 36  1  0  0  0  0
 32 33  1  0  0  0  0
 32 36  1  0  0  0  0
 33 34  1  0  0  0  0
 34 35  1  0  0  0  0
 36 37  1  0  0  0  0
 37 35  1  0  0  0  0
 38 39  1  0  0  0  0
 40 43  1  0  0  0  0
 43 41  1  0  0  0  0
 44 42  2  0  0  0  0
 45 44  1  1  0  0  0
 45 41  1  0  0  0  0
 45 49  1  0  0  0  0
 46 39  1  6  0  0  0
 46 40  1  0  0  0  0
 46 44  1  0  0  0  0
 47 50  1  1  0  0  0
 48 47  1  0  0  0  0
 49 48  1  6  0  0  0
 49 47  1  0  0  0  0
 50 54  1  1  0  0  0
 50 52  1  0  0  0  0
 52 51  1  6  0  0  0
 52 53  1  0  0  0  0
 55 54  1  0  0  0  0
 56 55  1  0  0  0  0
M  END
>  <MODEL>
8

>  <REMARK>
 VINA RESULT:      -4.7      1.973      7.474
  Name = 
  23 active torsions:
  status: ('A' for Active; 'I' for Inactive)
    1  A    between atoms: C_2  and  N_3
    2  A    between atoms: C_2  and  C_24
    3  A    between atoms: N_3  and  C_16
    4  A    between atoms: N_3  and  C_53
    5  A    between atoms: C_10  and  C_32
    6  A    between atoms: C_11  and  C_16
    7  A    between atoms: C_11  and  C_32
    8  A    between atoms: C_13  and  C_28
    9  A    between atoms: C_13  and  C_50
   10  A    between atoms: C_15  and  C_27
   11  A    between atoms: C_22  and  C_31
   12  A    between atoms: C_23  and  C_29
   13  A    between atoms: C_23  and  C_46
   14  A    between atoms: C_24  and  C_52
   15  A    between atoms: C_26  and  C_37
   16  A    between atoms: C_27  and  C_31
   17  A    between atoms: C_27  and  C_40
   18  A    between atoms: C_28  and  C_38
   19  A    between atoms: C_28  and  C_47
   20  A    between atoms: C_29  and  C_39
   21  A    between atoms: C_37  and  N_51
   22  A    between atoms: C_43  and  C_54
   23  A    between atoms: C_46  and  C_53
                            x       y       z     vdW  Elec       q    Type
                         _______ _______ _______ _____ _____    ______ ____

>  <TORSDO>
F 23

$$$$
=
 OpenBabel11062414533D

 56 60  0  0  1  0  0  0  0  0999 V2000
  188.6640  177.8860  143.2680 N   0  0  0  0  0  0  0  0  0  0  0  0
  189.8130  177.8960  144.1690 C   0  0  0  0  0  2  0  0  0  0  0  0
  189.4720  177.1400  145.4380 C   0  0  0  0  0  2  0  0  0  0  0  0
  188.7950  178.0820  146.4150 C   0  0  0  0  0  2  0  0  0  0  0  0
  187.6840  177.3610  147.1670 C   0  0  1  0  0  3  0  0  0  0  0  0
  188.2570  176.5660  148.2410 N   0  0  0  0  0  1  0  0  0  0  0  0
  185.5280  178.6140  146.7070 C   0  0  0  0  0  1  0  0  0  0  0  0
  186.6350  178.3360  147.7110 C   0  0  2  0  0  3  0  0  0  0  0  0
  187.2430  179.5340  148.0850 O   0  0  0  0  0  1  0  0  0  0  0  0
  189.0190  177.1750  142.0440 C   0  0  0  0  0  2  0  0  0  0  0  0
  190.1980  175.2470  142.7010 O   0  0  0  0  0  0  0  0  0  0  0  0
  190.2690  176.3760  142.2410 C   0  0  0  0  0  0  0  0  0  0  0  0
  191.6060  176.9640  141.9200 C   0  0  0  0  0  2  0  0  0  0  0  0
  192.7510  177.1240  138.3880 C   0  0  0  0  0  2  0  0  0  0  0  0
  191.6490  177.4700  140.4860 C   0  0  1  0  0  3  0  0  0  0  0  0
  193.0150  177.2660  139.8700 C   0  0  0  0  0  2  0  0  0  0  0  0
  191.3570  176.5280  138.2600 C   0  0  1  0  0  0  0  0  0  0  0  0
  190.6940  176.6770  139.6210 C   0  0  0  0  0  2  0  0  0  0  0  0
  190.6240  177.2390  137.3070 O   0  0  0  0  0  1  0  0  0  0  0  0
  191.4140  175.0440  137.8990 C   0  0  0  0  0  2  0  0  0  0  0  0
  191.4570  174.7840  136.3920 C   0  0  1  0  0  3  0  0  0  0  0  0
  194.9730  175.6490  135.7570 C   0  0  0  0  0  2  0  0  0  0  0  0
  193.7780  173.9470  136.9620 C   0  0  0  0  0  2  0  0  0  0  0  0
  195.1620  174.3540  136.5130 C   0  0  0  0  0  2  0  0  0  0  0  0
  192.8590  174.4450  135.8650 C   0  0  0  0  0  3  0  0  0  0  0  0
  193.5650  175.6100  135.1910 C   0  0  0  0  0  2  0  0  0  0  0  0
  188.8470  175.6670  135.0380 C   0  0  0  0  0  1  0  0  0  0  0  0
  190.6140  172.6100  135.9500 O   0  0  0  0  0  0  0  0  0  0  0  0
  190.3710  173.8480  135.9240 C   0  0  0  0  0  0  0  0  0  0  0  0
  189.0720  174.3070  135.5010 N   0  0  0  0  0  0  0  0  0  0  0  0
  187.9620  173.3710  135.3920 C   0  0  0  0  0  2  0  0  0  0  0  0
  185.6060  174.2250  135.2630 C   0  0  0  0  0  2  0  0  0  0  0  0
  184.3570  174.6560  136.0510 C   0  0  0  0  0  2  0  0  0  0  0  0
  184.4470  174.3460  137.4820 N   0  0  0  0  0  2  0  0  0  0  0  0
  184.8840  172.9600  137.6450 C   0  0  0  0  0  2  0  0  0  0  0  0
  186.7660  173.8650  136.1930 C   0  0  0  0  0  3  0  0  0  0  0  0
  186.3440  172.7970  137.2040 C   0  0  0  0  0  2  0  0  0  0  0  0
  187.5030  177.2370  143.8950 C   0  0  0  0  0  2  0  0  0  0  0  0
  186.2530  177.1610  143.0050 C   0  0  0  0  0  2  0  0  0  0  0  0
  186.0980  179.4350  141.9510 C   0  0  0  0  0  2  0  0  0  0  0  0
  184.2960  178.9310  140.3360 N   0  0  0  0  0  2  0  0  0  0  0  0
  183.1580  178.9400  143.3910 C   0  0  0  0  0  2  0  0  0  0  0  0
  185.7480  179.0080  140.5160 C   0  0  0  0  0  2  0  0  0  0  0  0
  184.0470  178.2510  142.6730 C   0  0  0  0  0  0  0  0  0  0  0  0
  183.7840  177.8880  141.2220 C   0  0  1  0  0  3  0  0  0  0  0  0
  185.4930  178.4810  142.9910 C   0  0  1  0  0  3  0  0  0  0  0  0
  181.6710  178.2580  139.8080 C   0  0  2  0  0  3  0  0  0  0  0  0
  182.4080  177.0480  139.2560 C   0  0  0  0  0  2  0  0  0  0  0  0
  182.4260  177.3310  140.7450 C   0  0  1  0  0  3  0  0  0  0  0  0
  180.1770  177.9700  139.9060 C   0  0  1  0  0  3  0  0  0  0  0  0
  179.2750  175.6260  139.7280 C   0  0  0  0  0  1  0  0  0  0  0  0
  179.9130  176.6530  140.6440 C   0  0  2  0  0  3  0  0  0  0  0  0
  179.1130  176.8500  141.7720 O   0  0  0  0  0  1  0  0  0  0  0  0
  179.3710  179.1630  140.4470 C   0  0  0  0  0  2  0  0  0  0  0  0
  180.1730  180.4560  140.5440 C   0  0  0  0  0  2  0  0  0  0  0  0
  179.3680  181.4790  141.0430 O   0  0  0  0  0  1  0  0  0  0  0  0
  1 38  1  0  0  0  0
  1  2  1  0  0  0  0
  2  3  1  0  0  0  0
  3  4  1  0  0  0  0
  4  5  1  0  0  0  0
  5  8  1  0  0  0  0
  5  6  1  1  0  0  0
  8  7  1  6  0  0  0
  8  9  1  0  0  0  0
 10 12  1  0  0  0  0
 10  1  1  0  0  0  0
 12 11  2  0  0  0  0
 13 12  1  0  0  0  0
 14 16  1  0  0  0  0
 15 13  1  1  0  0  0
 16 15  1  0  0  0  0
 17 19  1  6  0  0  0
 17 14  1  0  0  0  0
 17 18  1  0  0  0  0
 18 15  1  0  0  0  0
 20 17  1  0  0  0  0
 21 20  1  1  0  0  0
 22 24  1  0  0  0  0
 24 23  1  0  0  0  0
 25 21  1  0  0  0  0
 25 23  1  0  0  0  0
 26 22  1  0  0  0  0
 26 25  1  0  0  0  0
 27 30  1  0  0  0  0
 29 28  2  0  0  0  0
 29 21  1  0  0  0  0
 30 29  1  0  0  0  0
 31 30  1  0  0  0  0
 31 36  1  0  0  0  0
 32 33  1  0  0  0  0
 32 36  1  0  0  0  0
 33 34  1  0  0  0  0
 34 35  1  0  0  0  0
 36 37  1  0  0  0  0
 37 35  1  0  0  0  0
 39 38  1  0  0  0  0
 40 46  1  0  0  0  0
 41 43  1  0  0  0  0
 43 40  1  0  0  0  0
 44 46  1  0  0  0  0
 44 42  2  0  0  0  0
 45 41  1  6  0  0  0
 45 44  1  0  0  0  0
 46 39  1  6  0  0  0
 47 50  1  1  0  0  0
 47 49  1  0  0  0  0
 48 47  1  0  0  0  0
 49 48  1  6  0  0  0
 49 45  1  0  0  0  0
 50 54  1  1  0  0  0
 50 52  1  0  0  0  0
 52 51  1  6  0  0  0
 52 53  1  0  0  0  0
 54 55  1  0  0  0  0
 55 56  1  0  0  0  0
M  END
>  <MODEL>
9

>  <REMARK>
 VINA RESULT:      -4.7      2.310      8.124
  Name = 
  23 active torsions:
  status: ('A' for Active; 'I' for Inactive)
    1  A    between atoms: C_2  and  N_3
    2  A    between atoms: C_2  and  C_24
    3  A    between atoms: N_3  and  C_16
    4  A    between atoms: N_3  and  C_53
    5  A    between atoms: C_10  and  C_32
    6  A    between atoms: C_11  and  C_16
    7  A    between atoms: C_11  and  C_32
    8  A    between atoms: C_13  and  C_28
    9  A    between atoms: C_13  and  C_50
   10  A    between atoms: C_15  and  C_27
   11  A    between atoms: C_22  and  C_31
   12  A    between atoms: C_23  and  C_29
   13  A    between atoms: C_23  and  C_46
   14  A    between atoms: C_24  and  C_52
   15  A    between atoms: C_26  and  C_37
   16  A    between atoms: C_27  and  C_31
   17  A    between atoms: C_27  and  C_40
   18  A    between atoms: C_28  and  C_38
   19  A    between atoms: C_28  and  C_47
   20  A    between atoms: C_29  and  C_39
   21  A    between atoms: C_37  and  N_51
   22  A    between atoms: C_43  and  C_54
   23  A    between atoms: C_46  and  C_53
                            x       y       z     vdW  Elec       q    Type
                         _______ _______ _______ _____ _____    ______ ____

>  <TORSDO>
F 23

$$$$
