=
 OpenBabel11062412273D

 37 41  0  0  1  0  0  0  0  0999 V2000
  184.3470  178.5170  138.3340 C   0  0  0  0  0  2  0  0  0  0  0  0
  183.5120  177.6060  140.8800 O   0  0  0  0  0  0  0  0  0  0  0  0
  182.7120  177.1800  139.7810 C   0  0  0  0  0  2  0  0  0  0  0  0
  183.3840  179.4490  144.0890 C   0  0  0  0  0  1  0  0  0  0  0  0
  187.5360  178.2100  139.9940 N   0  0  0  0  0  0  0  0  0  0  0  0
  186.6260  177.8140  137.6860 C   0  0  0  0  0  0  0  0  0  0  0  0
  187.6760  178.2040  138.5590 C   0  0  0  0  0  0  0  0  0  0  0  0
  183.1430  178.6370  141.7490 C   0  0  0  0  0  0  0  0  0  0  0  0
  184.1110  179.1140  142.7990 C   0  0  2  0  0  3  0  0  0  0  0  0
  188.6740  178.2840  140.8900 C   0  0  0  0  0  2  0  0  0  0  0  0
  188.0380  178.2500  135.8000 N   0  0  0  0  0  0  0  0  0  0  0  0
  189.0630  178.6150  136.6110 C   0  0  0  0  0  3  0  0  0  0  0  0
  186.6050  178.6160  142.0180 C   0  0  1  0  0  3  0  0  0  0  0  0
  186.2920  178.2920  140.6330 N   0  0  0  0  0  2  0  0  0  0  0  0
  188.9000  178.5960  137.9950 C   0  0  0  0  0  3  0  0  0  0  0  0
  186.8400  177.8540  136.3040 C   0  0  0  0  0  3  0  0  0  0  0  0
  182.9020  178.0620  138.5410 C   0  0  1  0  0  3  0  0  0  0  0  0
  185.3910  177.8650  143.1590 S   0  0  0  0  0  0  0  0  0  0  0  0
  182.0260  179.2090  141.6210 O   0  0  0  0  0  0  0  0  0  0  0  0
  188.0730  178.2450  142.2720 C   0  0  1  0  0  3  0  0  0  0  0  0
  185.2920  177.3370  138.1600 C   0  0  0  0  0  2  0  0  0  0  0  0
  181.9650  179.2580  138.5980 C   0  0  0  0  0  2  0  0  0  0  0  0
  180.9670  180.9600  137.0380 N   0  0  0  0  0  0  0  0  0  0  0  0
  180.1280  181.4120  138.1460 C   0  0  0  0  0  1  0  0  0  0  0  0
  179.5990  179.6210  135.4870 C   0  0  0  0  0  2  0  0  0  0  0  0
  180.8880  181.5400  134.7290 N   0  0  0  0  0  1  0  0  0  0  0  0
  180.1260  181.0080  135.8440 C   0  0  2  0  0  3  0  0  0  0  0  0
  181.3690  179.5610  137.2220 C   0  0  2  0  0  3  0  0  0  0  0  0
  179.9690  178.4860  136.8460 S   0  0  0  0  0  0  0  0  0  0  0  0
  188.2510  176.8320  142.8180 C   0  0  0  0  0  2  0  0  0  0  0  0
  189.1970  177.1620  146.2200 C   0  0  0  0  0  0  0  0  0  0  0  0
  190.4220  176.8190  145.6860 C   0  0  0  0  0  0  0  0  0  0  0  0
  190.2120  176.6430  144.3340 C   0  0  0  0  0  3  0  0  0  0  0  0
  188.9040  177.4640  147.6470 C   0  0  0  0  0  1  0  0  0  0  0  0
  188.9020  176.8770  144.1170 N   0  0  0  0  0  0  0  0  0  0  0  0
  188.2790  177.1950  145.2410 N   0  0  0  0  0  0  0  0  0  0  0  0
  191.7150  176.6720  146.4070 C   0  0  0  0  0  1  0  0  0  0  0  0
  1 17  1  0  0  0  0
  2  8  1  0  0  0  0
  3  2  1  0  0  0  0
  5 14  1  0  0  0  0
  5 10  1  0  0  0  0
  6 21  1  0  0  0  0
  6  7  1  0  0  0  0
  7  5  1  0  0  0  0
  8  9  1  0  0  0  0
  9 18  1  0  0  0  0
  9  4  1  1  0  0  0
 10 20  1  0  0  0  0
 11 16  1  0  0  0  0
 11 12  2  0  0  0  0
 12 15  1  0  0  0  0
 13 14  1  6  0  0  0
 13 20  1  0  0  0  0
 13 18  1  0  0  0  0
 15  7  2  0  0  0  0
 16  6  2  0  0  0  0
 17 22  1  1  0  0  0
 17  3  1  0  0  0  0
 19  8  2  0  0  0  0
 20 30  1  6  0  0  0
 21  1  1  0  0  0  0
 23 28  1  0  0  0  0
 23 24  1  0  0  0  0
 25 27  1  0  0  0  0
 25 29  1  0  0  0  0
 27 26  1  6  0  0  0
 27 23  1  0  0  0  0
 28 22  1  1  0  0  0
 29 28  1  0  0  0  0
 30 35  1  0  0  0  0
 31 34  1  0  0  0  0
 32 31  1  0  0  0  0
 32 37  1  0  0  0  0
 33 32  2  0  0  0  0
 35 33  1  0  0  0  0
 35 36  1  0  0  0  0
 36 31  2  0  0  0  0
M  END
>  <MODEL>
1

>  <REMARK>
 VINA RESULT:      -8.8      0.000      0.000
  Name = 
  4 active torsions:
  status: ('A' for Active; 'I' for Inactive)
    1  A    between atoms: N_25  and  C_37
    2  A    between atoms: C_27  and  C_29
    3  A    between atoms: C_28  and  C_29
    4  A    between atoms: C_34  and  C_37
                            x       y       z     vdW  Elec       q    Type
                         _______ _______ _______ _____ _____    ______ ____

>  <TORSDO>
F 4

$$$$
=
 OpenBabel11062412273D

 37 41  0  0  1  0  0  0  0  0999 V2000
  183.1380  177.9920  138.1930 C   0  0  0  0  0  2  0  0  0  0  0  0
  183.0560  177.3530  140.9490 O   0  0  0  0  0  0  0  0  0  0  0  0
  182.0740  176.7120  140.1390 C   0  0  0  0  0  2  0  0  0  0  0  0
  183.4760  179.5840  143.8740 C   0  0  0  0  0  1  0  0  0  0  0  0
  186.6440  178.2060  139.0150 N   0  0  0  0  0  0  0  0  0  0  0  0
  185.2630  177.4240  137.0670 C   0  0  0  0  0  0  0  0  0  0  0  0
  186.4350  178.0230  137.6000 C   0  0  0  0  0  0  0  0  0  0  0  0
  182.7830  178.4510  141.7700 C   0  0  0  0  0  0  0  0  0  0  0  0
  183.9080  179.1500  142.4840 C   0  0  2  0  0  3  0  0  0  0  0  0
  187.9460  178.5030  139.5800 C   0  0  0  0  0  2  0  0  0  0  0  0
  186.1160  177.7370  134.8500 N   0  0  0  0  0  0  0  0  0  0  0  0
  187.2530  178.2990  135.3320 C   0  0  0  0  0  3  0  0  0  0  0  0
  186.1840  178.7870  141.1540 C   0  0  1  0  0  3  0  0  0  0  0  0
  185.5900  178.2550  139.9350 N   0  0  0  0  0  2  0  0  0  0  0  0
  187.4300  178.4490  136.7070 C   0  0  0  0  0  3  0  0  0  0  0  0
  185.1320  177.3010  135.6800 C   0  0  0  0  0  3  0  0  0  0  0  0
  181.8520  177.4360  138.8060 C   0  0  1  0  0  3  0  0  0  0  0  0
  185.3800  178.0850  142.6370 S   0  0  0  0  0  0  0  0  0  0  0  0
  181.6060  178.8940  141.8690 O   0  0  0  0  0  0  0  0  0  0  0  0
  187.7040  178.5910  141.0660 C   0  0  1  0  0  3  0  0  0  0  0  0
  184.1500  176.8930  137.9110 C   0  0  0  0  0  2  0  0  0  0  0  0
  180.8160  178.5370  138.9720 C   0  0  0  0  0  2  0  0  0  0  0  0
  181.1940  181.0200  139.1060 N   0  0  0  0  0  0  0  0  0  0  0  0
  179.8920  181.1340  139.7600 C   0  0  0  0  0  1  0  0  0  0  0  0
  180.9910  181.7840  136.7720 C   0  0  0  0  0  2  0  0  0  0  0  0
  182.6450  182.7240  138.2890 N   0  0  0  0  0  1  0  0  0  0  0  0
  181.3040  182.1720  138.2150 C   0  0  2  0  0  3  0  0  0  0  0  0
  181.2540  179.8210  138.2630 C   0  0  2  0  0  3  0  0  0  0  0  0
  180.3110  180.1090  136.7530 S   0  0  0  0  0  0  0  0  0  0  0  0
  188.1800  177.2850  141.6940 C   0  0  0  0  0  2  0  0  0  0  0  0
  190.6290  178.3170  144.0430 C   0  0  0  0  0  0  0  0  0  0  0  0
  189.8440  177.5450  144.8730 C   0  0  0  0  0  0  0  0  0  0  0  0
  188.8160  177.0660  144.0870 C   0  0  0  0  0  3  0  0  0  0  0  0
  191.8700  179.0470  144.4210 C   0  0  0  0  0  1  0  0  0  0  0  0
  189.0170  177.5630  142.8500 N   0  0  0  0  0  0  0  0  0  0  0  0
  190.1070  178.3140  142.8060 N   0  0  0  0  0  0  0  0  0  0  0  0
  190.0540  177.2680  146.3190 C   0  0  0  0  0  1  0  0  0  0  0  0
  1 17  1  0  0  0  0
  2  8  1  0  0  0  0
  3  2  1  0  0  0  0
  5 10  1  0  0  0  0
  5 14  1  0  0  0  0
  6  7  1  0  0  0  0
  6 21  1  0  0  0  0
  7  5  1  0  0  0  0
  8 19  2  0  0  0  0
  8  9  1  0  0  0  0
  9 18  1  0  0  0  0
  9  4  1  1  0  0  0
 10 20  1  0  0  0  0
 11 12  2  0  0  0  0
 11 16  1  0  0  0  0
 12 15  1  0  0  0  0
 13 14  1  6  0  0  0
 13 18  1  0  0  0  0
 15  7  2  0  0  0  0
 16  6  2  0  0  0  0
 17 22  1  1  0  0  0
 17  3  1  0  0  0  0
 20 13  1  0  0  0  0
 20 30  1  1  0  0  0
 21  1  1  0  0  0  0
 23 24  1  0  0  0  0
 25 27  1  0  0  0  0
 27 26  1  6  0  0  0
 27 23  1  0  0  0  0
 28 22  1  1  0  0  0
 28 23  1  0  0  0  0
 29 25  1  0  0  0  0
 29 28  1  0  0  0  0
 30 35  1  0  0  0  0
 31 34  1  0  0  0  0
 31 32  1  0  0  0  0
 32 37  1  0  0  0  0
 33 32  2  0  0  0  0
 35 33  1  0  0  0  0
 36 35  1  0  0  0  0
 36 31  2  0  0  0  0
M  END
>  <MODEL>
2

>  <REMARK>
 VINA RESULT:      -7.9      1.490      1.906
  Name = 
  4 active torsions:
  status: ('A' for Active; 'I' for Inactive)
    1  A    between atoms: N_25  and  C_37
    2  A    between atoms: C_27  and  C_29
    3  A    between atoms: C_28  and  C_29
    4  A    between atoms: C_34  and  C_37
                            x       y       z     vdW  Elec       q    Type
                         _______ _______ _______ _____ _____    ______ ____

>  <TORSDO>
F 4

$$$$
=
 OpenBabel11062412273D

 37 41  0  0  1  0  0  0  0  0999 V2000
  191.0900  176.9340  139.3910 C   0  0  0  0  0  2  0  0  0  0  0  0
  188.9410  176.2290  137.6900 O   0  0  0  0  0  0  0  0  0  0  0  0
  190.0360  175.3170  137.7080 C   0  0  0  0  0  2  0  0  0  0  0  0
  186.9320  178.3900  135.4530 C   0  0  0  0  0  1  0  0  0  0  0  0
  188.3140  178.2940  141.2520 N   0  0  0  0  0  0  0  0  0  0  0  0
  190.4870  177.1460  141.7780 C   0  0  0  0  0  0  0  0  0  0  0  0
  189.4720  178.0900  142.0870 C   0  0  0  0  0  0  0  0  0  0  0  0
  188.7190  177.1480  136.6600 C   0  0  0  0  0  0  0  0  0  0  0  0
  187.6170  178.1660  136.7890 C   0  0  2  0  0  3  0  0  0  0  0  0
  187.1330  178.9970  141.7120 C   0  0  0  0  0  2  0  0  0  0  0  0
  191.6810  177.7880  143.7530 N   0  0  0  0  0  0  0  0  0  0  0  0
  190.7190  178.6880  144.0810 C   0  0  0  0  0  3  0  0  0  0  0  0
  187.1140  178.6280  139.3610 C   0  0  1  0  0  3  0  0  0  0  0  0
  188.2950  177.9600  139.8920 N   0  0  0  0  0  2  0  0  0  0  0  0
  189.6050  178.8510  143.2590 C   0  0  0  0  0  3  0  0  0  0  0  0
  191.5860  177.0240  142.6340 C   0  0  0  0  0  3  0  0  0  0  0  0
  191.3250  175.9600  138.2350 C   0  0  1  0  0  3  0  0  0  0  0  0
  186.3610  177.6550  138.0100 S   0  0  0  0  0  0  0  0  0  0  0  0
  189.4720  177.1660  135.6490 O   0  0  0  0  0  0  0  0  0  0  0  0
  186.1860  178.9580  140.5390 C   0  0  1  0  0  3  0  0  0  0  0  0
  190.4440  176.2480  140.5850 C   0  0  0  0  0  2  0  0  0  0  0  0
  192.0730  176.6430  137.1010 C   0  0  0  0  0  2  0  0  0  0  0  0
  194.1150  176.2670  135.6810 N   0  0  0  0  0  0  0  0  0  0  0  0
  193.2410  175.6800  134.6660 C   0  0  0  0  0  1  0  0  0  0  0  0
  195.3270  174.4620  136.8390 C   0  0  0  0  0  2  0  0  0  0  0  0
  196.4930  176.3260  135.7970 N   0  0  0  0  0  1  0  0  0  0  0  0
  195.3320  175.4600  135.6850 C   0  0  2  0  0  3  0  0  0  0  0  0
  193.5190  176.1500  137.0160 C   0  0  2  0  0  3  0  0  0  0  0  0
  193.6820  174.4470  137.5920 S   0  0  0  0  0  0  0  0  0  0  0  0
  185.1500  177.8720  140.8120 C   0  0  0  0  0  2  0  0  0  0  0  0
  183.4780  178.7870  143.8030 C   0  0  0  0  0  0  0  0  0  0  0  0
  182.4360  178.9460  142.9130 C   0  0  0  0  0  0  0  0  0  0  0  0
  182.9440  178.6280  141.6710 C   0  0  0  0  0  3  0  0  0  0  0  0
  183.4300  179.0030  145.2740 C   0  0  0  0  0  1  0  0  0  0  0  0
  184.2390  178.3040  141.8590 N   0  0  0  0  0  0  0  0  0  0  0  0
  184.5740  178.3890  143.1370 N   0  0  0  0  0  0  0  0  0  0  0  0
  181.0420  179.3680  143.2180 C   0  0  0  0  0  1  0  0  0  0  0  0
  1 21  1  0  0  0  0
  2  3  1  0  0  0  0
  3 17  1  0  0  0  0
  5 10  1  0  0  0  0
  5  7  1  0  0  0  0
  6  7  2  0  0  0  0
  6 16  1  0  0  0  0
  7 15  1  0  0  0  0
  8  9  1  0  0  0  0
  8  2  1  0  0  0  0
  9  4  1  6  0  0  0
  9 18  1  0  0  0  0
 11 12  1  0  0  0  0
 13 18  1  6  0  0  0
 13 14  1  0  0  0  0
 13 20  1  0  0  0  0
 14  5  1  0  0  0  0
 15 12  2  0  0  0  0
 16 11  2  0  0  0  0
 17 22  1  6  0  0  0
 17  1  1  0  0  0  0
 19  8  2  0  0  0  0
 20 30  1  1  0  0  0
 20 10  1  0  0  0  0
 21  6  1  0  0  0  0
 23 27  1  0  0  0  0
 23 28  1  0  0  0  0
 24 23  1  0  0  0  0
 25 29  1  0  0  0  0
 27 26  1  1  0  0  0
 27 25  1  0  0  0  0
 28 22  1  6  0  0  0
 28 29  1  0  0  0  0
 30 35  1  0  0  0  0
 31 34  1  0  0  0  0
 32 37  1  0  0  0  0
 32 31  1  0  0  0  0
 33 35  1  0  0  0  0
 33 32  2  0  0  0  0
 35 36  1  0  0  0  0
 36 31  2  0  0  0  0
M  END
>  <MODEL>
3

>  <REMARK>
 VINA RESULT:      -6.9      4.182      8.993
  Name = 
  4 active torsions:
  status: ('A' for Active; 'I' for Inactive)
    1  A    between atoms: N_25  and  C_37
    2  A    between atoms: C_27  and  C_29
    3  A    between atoms: C_28  and  C_29
    4  A    between atoms: C_34  and  C_37
                            x       y       z     vdW  Elec       q    Type
                         _______ _______ _______ _____ _____    ______ ____

>  <TORSDO>
F 4

$$$$
=
 OpenBabel11062412273D

 37 41  0  0  1  0  0  0  0  0999 V2000
  186.5480  178.2460  137.9480 C   0  0  0  0  0  2  0  0  0  0  0  0
  189.3740  178.3530  138.0720 O   0  0  0  0  0  0  0  0  0  0  0  0
  188.7690  179.1860  137.0870 C   0  0  0  0  0  2  0  0  0  0  0  0
  191.7950  175.5880  138.5230 C   0  0  0  0  0  1  0  0  0  0  0  0
  187.0660  177.6990  141.4770 N   0  0  0  0  0  0  0  0  0  0  0  0
  185.4000  178.9070  140.0350 C   0  0  0  0  0  0  0  0  0  0  0  0
  185.7280  178.1590  141.1960 C   0  0  0  0  0  0  0  0  0  0  0  0
  189.9930  177.1350  137.7790 C   0  0  0  0  0  0  0  0  0  0  0  0
  190.4840  176.2550  138.8980 C   0  0  2  0  0  3  0  0  0  0  0  0
  187.4730  177.2340  142.7890 C   0  0  0  0  0  2  0  0  0  0  0  0
  183.1100  178.9780  140.7320 N   0  0  0  0  0  0  0  0  0  0  0  0
  183.3970  178.2760  141.8570 C   0  0  0  0  0  3  0  0  0  0  0  0
  189.0870  176.7470  141.1090 C   0  0  1  0  0  3  0  0  0  0  0  0
  188.0340  177.5300  140.4780 N   0  0  0  0  0  2  0  0  0  0  0  0
  184.7030  177.8590  142.1070 C   0  0  0  0  0  3  0  0  0  0  0  0
  184.0730  179.2980  139.8290 C   0  0  0  0  0  3  0  0  0  0  0  0
  187.3430  178.7410  136.7390 C   0  0  1  0  0  3  0  0  0  0  0  0
  190.7280  177.1950  140.4420 S   0  0  0  0  0  0  0  0  0  0  0  0
  190.0910  176.7420  136.5850 O   0  0  0  0  0  0  0  0  0  0  0  0
  188.9300  176.8780  142.6310 C   0  0  1  0  0  3  0  0  0  0  0  0
  186.4050  179.3250  139.0100 C   0  0  0  0  0  2  0  0  0  0  0  0
  187.3740  177.6820  135.6470 C   0  0  0  0  0  2  0  0  0  0  0  0
  187.0960  175.1960  135.9020 N   0  0  0  0  0  0  0  0  0  0  0  0
  187.7920  175.0360  134.6270 C   0  0  0  0  0  1  0  0  0  0  0  0
  184.6850  174.8240  135.5530 C   0  0  0  0  0  2  0  0  0  0  0  0
  185.9460  173.5820  137.2240 N   0  0  0  0  0  1  0  0  0  0  0  0
  186.0300  174.1970  135.9110 C   0  0  2  0  0  3  0  0  0  0  0  0
  186.4500  176.5110  135.9850 C   0  0  2  0  0  3  0  0  0  0  0  0
  184.9650  176.5090  134.9600 S   0  0  0  0  0  0  0  0  0  0  0  0
  189.7550  178.0140  143.2250 C   0  0  0  0  0  2  0  0  0  0  0  0
  190.9310  176.9920  146.4110 C   0  0  0  0  0  0  0  0  0  0  0  0
  189.8170  177.7010  146.8080 C   0  0  0  0  0  0  0  0  0  0  0  0
  189.2400  178.1820  145.6510 C   0  0  0  0  0  3  0  0  0  0  0  0
  191.8870  176.2720  147.2960 C   0  0  0  0  0  1  0  0  0  0  0  0
  190.0150  177.7580  144.6330 N   0  0  0  0  0  0  0  0  0  0  0  0
  191.0330  177.0360  145.0730 N   0  0  0  0  0  0  0  0  0  0  0  0
  189.3220  177.9070  148.1960 C   0  0  0  0  0  1  0  0  0  0  0  0
  1 21  1  0  0  0  0
  3  2  1  0  0  0  0
  5 10  1  0  0  0  0
  6  7  1  0  0  0  0
  7  5  1  0  0  0  0
  7 15  2  0  0  0  0
  8  2  1  0  0  0  0
  8  9  1  0  0  0  0
  9  4  1  6  0  0  0
  9 18  1  0  0  0  0
 11 12  2  0  0  0  0
 12 15  1  0  0  0  0
 13 18  1  6  0  0  0
 13 20  1  0  0  0  0
 14 13  1  0  0  0  0
 14  5  1  0  0  0  0
 16  6  2  0  0  0  0
 16 11  1  0  0  0  0
 17 22  1  6  0  0  0
 17  3  1  0  0  0  0
 17  1  1  0  0  0  0
 19  8  2  0  0  0  0
 20 10  1  0  0  0  0
 20 30  1  6  0  0  0
 21  6  1  0  0  0  0
 23 27  1  0  0  0  0
 23 28  1  0  0  0  0
 24 23  1  0  0  0  0
 25 27  1  0  0  0  0
 27 26  1  1  0  0  0
 28 22  1  6  0  0  0
 29 25  1  0  0  0  0
 29 28  1  0  0  0  0
 30 35  1  0  0  0  0
 31 32  1  0  0  0  0
 31 34  1  0  0  0  0
 32 37  1  0  0  0  0
 33 32  2  0  0  0  0
 35 36  1  0  0  0  0
 35 33  1  0  0  0  0
 36 31  2  0  0  0  0
M  END
>  <MODEL>
4

>  <REMARK>
 VINA RESULT:      -6.7      3.392      5.877
  Name = 
  4 active torsions:
  status: ('A' for Active; 'I' for Inactive)
    1  A    between atoms: N_25  and  C_37
    2  A    between atoms: C_27  and  C_29
    3  A    between atoms: C_28  and  C_29
    4  A    between atoms: C_34  and  C_37
                            x       y       z     vdW  Elec       q    Type
                         _______ _______ _______ _____ _____    ______ ____

>  <TORSDO>
F 4

$$$$
=
 OpenBabel11062412273D

 37 41  0  0  1  0  0  0  0  0999 V2000
  185.5070  178.1850  142.2830 C   0  0  0  0  0  2  0  0  0  0  0  0
  183.4030  179.6380  143.4960 O   0  0  0  0  0  0  0  0  0  0  0  0
  184.7010  179.8680  144.0360 C   0  0  0  0  0  2  0  0  0  0  0  0
  179.9920  178.5020  144.3810 C   0  0  0  0  0  1  0  0  0  0  0  0
  183.3320  178.6720  139.4450 N   0  0  0  0  0  0  0  0  0  0  0  0
  185.8080  178.6300  139.8700 C   0  0  0  0  0  0  0  0  0  0  0  0
  184.6840  178.3770  139.0400 C   0  0  0  0  0  0  0  0  0  0  0  0
  182.4440  178.8270  144.1090 C   0  0  0  0  0  0  0  0  0  0  0  0
  181.1500  178.5300  143.4000 C   0  0  2  0  0  3  0  0  0  0  0  0
  182.2290  178.7290  138.5050 C   0  0  0  0  0  2  0  0  0  0  0  0
  187.2530  177.7490  138.1760 N   0  0  0  0  0  0  0  0  0  0  0  0
  186.1990  177.5090  137.3550 C   0  0  0  0  0  3  0  0  0  0  0  0
  181.4960  178.7360  140.7690 C   0  0  1  0  0  3  0  0  0  0  0  0
  182.9510  178.7840  140.7890 N   0  0  0  0  0  2  0  0  0  0  0  0
  184.9050  177.8190  137.7720 C   0  0  0  0  0  3  0  0  0  0  0  0
  187.0850  178.2970  139.4070 C   0  0  0  0  0  3  0  0  0  0  0  0
  185.6850  178.7420  143.6960 C   0  0  1  0  0  3  0  0  0  0  0  0
  180.7870  179.7620  142.1050 S   0  0  0  0  0  0  0  0  0  0  0  0
  182.6810  178.2960  145.2280 O   0  0  0  0  0  0  0  0  0  0  0  0
  181.0290  179.0800  139.3480 C   0  0  1  0  0  3  0  0  0  0  0  0
  185.7110  179.2570  141.2230 C   0  0  0  0  0  2  0  0  0  0  0  0
  185.5880  177.6290  144.7280 C   0  0  0  0  0  2  0  0  0  0  0  0
  187.0340  177.6220  146.7860 N   0  0  0  0  0  0  0  0  0  0  0  0
  186.5460  178.9690  147.0740 C   0  0  0  0  0  1  0  0  0  0  0  0
  189.3300  177.7690  145.9060 C   0  0  0  0  0  2  0  0  0  0  0  0
  188.7790  176.3760  147.8240 N   0  0  0  0  0  1  0  0  0  0  0  0
  188.4500  177.6160  147.1430 C   0  0  2  0  0  3  0  0  0  0  0  0
  186.9540  177.3310  145.3500 C   0  0  2  0  0  3  0  0  0  0  0  0
  188.2850  178.1980  144.4940 S   0  0  0  0  0  0  0  0  0  0  0  0
  180.7400  180.5650  139.1520 C   0  0  0  0  0  2  0  0  0  0  0  0
  179.6370  180.5630  135.7810 C   0  0  0  0  0  0  0  0  0  0  0  0
  180.3160  181.7630  135.7870 C   0  0  0  0  0  0  0  0  0  0  0  0
  180.8100  181.9150  137.0660 C   0  0  0  0  0  3  0  0  0  0  0  0
  178.9310  179.9480  134.6250 C   0  0  0  0  0  1  0  0  0  0  0  0
  180.4120  180.8300  137.7610 N   0  0  0  0  0  0  0  0  0  0  0  0
  179.7100  180.0050  137.0010 N   0  0  0  0  0  0  0  0  0  0  0  0
  180.4950  182.7080  134.6510 C   0  0  0  0  0  1  0  0  0  0  0  0
  1 17  1  0  0  0  0
  2  3  1  0  0  0  0
  2  8  1  0  0  0  0
  5 14  1  0  0  0  0
  6 21  1  0  0  0  0
  7  5  1  0  0  0  0
  7  6  2  0  0  0  0
  8 19  2  0  0  0  0
  9  8  1  0  0  0  0
  9  4  1  1  0  0  0
 10 20  1  0  0  0  0
 10  5  1  0  0  0  0
 11 16  2  0  0  0  0
 12 15  2  0  0  0  0
 12 11  1  0  0  0  0
 13 14  1  6  0  0  0
 13 18  1  0  0  0  0
 15  7  1  0  0  0  0
 16  6  1  0  0  0  0
 17  3  1  0  0  0  0
 17 22  1  1  0  0  0
 18  9  1  0  0  0  0
 20 30  1  1  0  0  0
 20 13  1  0  0  0  0
 21  1  1  0  0  0  0
 23 24  1  0  0  0  0
 23 27  1  0  0  0  0
 25 27  1  0  0  0  0
 27 26  1  6  0  0  0
 28 22  1  6  0  0  0
 28 23  1  0  0  0  0
 29 28  1  0  0  0  0
 29 25  1  0  0  0  0
 31 32  1  0  0  0  0
 31 36  2  0  0  0  0
 32 33  2  0  0  0  0
 33 35  1  0  0  0  0
 34 31  1  0  0  0  0
 35 30  1  0  0  0  0
 36 35  1  0  0  0  0
 37 32  1  0  0  0  0
M  END
>  <MODEL>
5

>  <REMARK>
 VINA RESULT:      -6.7      2.169      9.251
  Name = 
  4 active torsions:
  status: ('A' for Active; 'I' for Inactive)
    1  A    between atoms: N_25  and  C_37
    2  A    between atoms: C_27  and  C_29
    3  A    between atoms: C_28  and  C_29
    4  A    between atoms: C_34  and  C_37
                            x       y       z     vdW  Elec       q    Type
                         _______ _______ _______ _____ _____    ______ ____

>  <TORSDO>
F 4

$$$$
=
 OpenBabel11062412273D

 37 41  0  0  1  0  0  0  0  0999 V2000
  188.7890  177.6000  143.4650 C   0  0  0  0  0  2  0  0  0  0  0  0
  190.3940  176.1340  141.6530 O   0  0  0  0  0  0  0  0  0  0  0  0
  190.3410  175.6210  142.9820 C   0  0  0  0  0  2  0  0  0  0  0  0
  192.7210  177.3860  139.0590 C   0  0  0  0  0  1  0  0  0  0  0  0
  186.9600  178.1290  140.4010 N   0  0  0  0  0  0  0  0  0  0  0  0
  186.4080  177.7720  142.8260 C   0  0  0  0  0  0  0  0  0  0  0  0
  186.1380  178.3620  141.5630 C   0  0  0  0  0  0  0  0  0  0  0  0
  191.4760  176.8620  141.1490 C   0  0  0  0  0  0  0  0  0  0  0  0
  191.3890  177.4820  139.7800 C   0  0  2  0  0  3  0  0  0  0  0  0
  186.5200  178.4490  139.0570 C   0  0  0  0  0  2  0  0  0  0  0  0
  184.5050  178.8930  143.7530 N   0  0  0  0  0  0  0  0  0  0  0  0
  184.2150  179.4600  142.5540 C   0  0  0  0  0  3  0  0  0  0  0  0
  188.8410  177.9340  139.1570 C   0  0  1  0  0  3  0  0  0  0  0  0
  188.2950  177.7150  140.4890 N   0  0  0  0  0  2  0  0  0  0  0  0
  185.0210  179.2040  141.4460 C   0  0  0  0  0  3  0  0  0  0  0  0
  185.5710  178.0650  143.9070 C   0  0  0  0  0  3  0  0  0  0  0  0
  189.8850  176.6760  143.9980 C   0  0  1  0  0  3  0  0  0  0  0  0
  190.1110  176.6820  138.7530 S   0  0  0  0  0  0  0  0  0  0  0  0
  192.5020  177.0500  141.8570 O   0  0  0  0  0  0  0  0  0  0  0  0
  187.6670  178.0300  138.1720 C   0  0  1  0  0  3  0  0  0  0  0  0
  187.5400  176.8280  143.0720 C   0  0  0  0  0  2  0  0  0  0  0  0
  191.0770  177.4830  144.4890 C   0  0  0  0  0  2  0  0  0  0  0  0
  192.0570  176.7250  146.6780 N   0  0  0  0  0  0  0  0  0  0  0  0
  191.9440  175.3500  146.1970 C   0  0  0  0  0  1  0  0  0  0  0  0
  190.2670  177.1530  148.3160 C   0  0  0  0  0  2  0  0  0  0  0  0
  192.6100  177.5420  148.8460 N   0  0  0  0  0  1  0  0  0  0  0  0
  191.7050  176.6910  148.0950 C   0  0  2  0  0  3  0  0  0  0  0  0
  191.0780  177.5940  146.0150 C   0  0  2  0  0  3  0  0  0  0  0  0
  189.4430  177.2860  146.7120 S   0  0  0  0  0  0  0  0  0  0  0  0
  187.3020  176.6930  137.5370 C   0  0  0  0  0  2  0  0  0  0  0  0
  183.8240  176.4270  136.8980 C   0  0  0  0  0  0  0  0  0  0  0  0
  184.2100  177.0620  135.7370 C   0  0  0  0  0  0  0  0  0  0  0  0
  185.5730  177.2480  135.8400 C   0  0  0  0  0  3  0  0  0  0  0  0
  182.4450  176.0000  137.2610 C   0  0  0  0  0  1  0  0  0  0  0  0
  185.9390  176.7360  137.0320 N   0  0  0  0  0  0  0  0  0  0  0  0
  184.9000  176.2330  137.6780 N   0  0  0  0  0  0  0  0  0  0  0  0
  183.3460  177.4640  134.5940 C   0  0  0  0  0  1  0  0  0  0  0  0
  1 17  1  0  0  0  0
  2  3  1  0  0  0  0
  3 17  1  0  0  0  0
  5 14  1  0  0  0  0
  5  7  1  0  0  0  0
  6 21  1  0  0  0  0
  6 16  1  0  0  0  0
  7  6  2  0  0  0  0
  8  2  1  0  0  0  0
  8 19  2  0  0  0  0
  9  4  1  6  0  0  0
  9  8  1  0  0  0  0
 10  5  1  0  0  0  0
 11 16  2  0  0  0  0
 12 11  1  0  0  0  0
 13 18  1  6  0  0  0
 13 14  1  0  0  0  0
 15  7  1  0  0  0  0
 15 12  2  0  0  0  0
 17 22  1  6  0  0  0
 18  9  1  0  0  0  0
 20 30  1  1  0  0  0
 20 10  1  0  0  0  0
 20 13  1  0  0  0  0
 21  1  1  0  0  0  0
 23 27  1  0  0  0  0
 24 23  1  0  0  0  0
 27 25  1  0  0  0  0
 27 26  1  1  0  0  0
 28 22  1  6  0  0  0
 28 23  1  0  0  0  0
 28 29  1  0  0  0  0
 29 25  1  0  0  0  0
 31 34  1  0  0  0  0
 31 36  2  0  0  0  0
 32 33  2  0  0  0  0
 32 31  1  0  0  0  0
 33 35  1  0  0  0  0
 35 30  1  0  0  0  0
 35 36  1  0  0  0  0
 37 32  1  0  0  0  0
M  END
>  <MODEL>
6

>  <REMARK>
 VINA RESULT:      -6.1      3.890     10.082
  Name = 
  4 active torsions:
  status: ('A' for Active; 'I' for Inactive)
    1  A    between atoms: N_25  and  C_37
    2  A    between atoms: C_27  and  C_29
    3  A    between atoms: C_28  and  C_29
    4  A    between atoms: C_34  and  C_37
                            x       y       z     vdW  Elec       q    Type
                         _______ _______ _______ _____ _____    ______ ____

>  <TORSDO>
F 4

$$$$
=
 OpenBabel11062412273D

 37 41  0  0  1  0  0  0  0  0999 V2000
  186.6550  175.7500  137.1180 C   0  0  0  0  0  2  0  0  0  0  0  0
  188.0880  174.7140  134.9080 O   0  0  0  0  0  0  0  0  0  0  0  0
  186.8630  175.3710  134.5940 C   0  0  0  0  0  2  0  0  0  0  0  0
  189.8770  171.4870  134.5940 C   0  0  0  0  0  1  0  0  0  0  0  0
  190.0430  176.1640  138.2870 N   0  0  0  0  0  0  0  0  0  0  0  0
  187.8820  177.4380  138.4410 C   0  0  0  0  0  0  0  0  0  0  0  0
  189.1230  177.0230  138.9920 C   0  0  0  0  0  0  0  0  0  0  0  0
  188.2340  173.3240  134.9370 C   0  0  0  0  0  0  0  0  0  0  0  0
  189.5260  172.7160  135.4130 C   0  0  2  0  0  3  0  0  0  0  0  0
  191.4270  176.0060  138.6890 C   0  0  0  0  0  2  0  0  0  0  0  0
  187.4050  178.6610  140.4450 N   0  0  0  0  0  0  0  0  0  0  0  0
  188.5910  178.2910  140.9910 C   0  0  0  0  0  3  0  0  0  0  0  0
  190.7610  174.4000  137.0630 C   0  0  1  0  0  3  0  0  0  0  0  0
  189.6400  175.3100  137.2530 N   0  0  0  0  0  2  0  0  0  0  0  0
  189.4650  177.4720  140.2770 C   0  0  0  0  0  3  0  0  0  0  0  0
  187.0400  178.2570  139.2010 C   0  0  0  0  0  3  0  0  0  0  0  0
  185.9250  175.4700  135.8030 C   0  0  1  0  0  3  0  0  0  0  0  0
  190.9100  173.9000  135.3120 S   0  0  0  0  0  0  0  0  0  0  0  0
  187.2680  172.5760  134.6220 O   0  0  0  0  0  0  0  0  0  0  0  0
  192.0090  175.0500  137.6770 C   0  0  1  0  0  3  0  0  0  0  0  0
  187.4210  177.0630  137.0700 C   0  0  0  0  0  2  0  0  0  0  0  0
  185.0780  174.2120  135.9160 C   0  0  0  0  0  2  0  0  0  0  0  0
  182.9560  175.3730  136.6040 N   0  0  0  0  0  0  0  0  0  0  0  0
  183.1830  174.8790  137.9600 C   0  0  0  0  0  1  0  0  0  0  0  0
  181.1740  174.0360  135.5500 C   0  0  0  0  0  2  0  0  0  0  0  0
  181.0520  176.4640  135.6760 N   0  0  0  0  0  1  0  0  0  0  0  0
  181.5170  175.2770  136.3710 C   0  0  2  0  0  3  0  0  0  0  0  0
  183.6070  174.5060  135.6150 C   0  0  2  0  0  3  0  0  0  0  0  0
  182.6440  172.9920  135.4260 S   0  0  0  0  0  0  0  0  0  0  0  0
  192.8170  175.8670  136.6750 C   0  0  0  0  0  2  0  0  0  0  0  0
  196.2500  175.1980  136.0900 C   0  0  0  0  0  0  0  0  0  0  0  0
  195.8970  174.0090  136.6920 C   0  0  0  0  0  0  0  0  0  0  0  0
  194.5550  174.1200  136.9950 C   0  0  0  0  0  3  0  0  0  0  0  0
  197.5960  175.5640  135.5710 C   0  0  0  0  0  1  0  0  0  0  0  0
  194.1700  175.3430  136.5790 N   0  0  0  0  0  0  0  0  0  0  0  0
  195.1760  176.0010  136.0270 N   0  0  0  0  0  0  0  0  0  0  0  0
  196.7700  172.8340  136.9600 C   0  0  0  0  0  1  0  0  0  0  0  0
  2  8  1  0  0  0  0
  3  2  1  0  0  0  0
  3 17  1  0  0  0  0
  5 10  1  0  0  0  0
  5  7  1  0  0  0  0
  6  7  2  0  0  0  0
  6 16  1  0  0  0  0
  7 15  1  0  0  0  0
  8  9  1  0  0  0  0
  9  4  1  6  0  0  0
 11 12  1  0  0  0  0
 13 18  1  6  0  0  0
 13 14  1  0  0  0  0
 13 20  1  0  0  0  0
 14  5  1  0  0  0  0
 15 12  2  0  0  0  0
 16 11  2  0  0  0  0
 17 22  1  1  0  0  0
 17  1  1  0  0  0  0
 18  9  1  0  0  0  0
 19  8  2  0  0  0  0
 20 30  1  6  0  0  0
 20 10  1  0  0  0  0
 21  1  1  0  0  0  0
 21  6  1  0  0  0  0
 23 24  1  0  0  0  0
 25 27  1  0  0  0  0
 27 26  1  6  0  0  0
 27 23  1  0  0  0  0
 28 22  1  1  0  0  0
 28 23  1  0  0  0  0
 29 25  1  0  0  0  0
 29 28  1  0  0  0  0
 31 32  1  0  0  0  0
 32 37  1  0  0  0  0
 32 33  2  0  0  0  0
 34 31  1  0  0  0  0
 35 30  1  0  0  0  0
 35 33  1  0  0  0  0
 36 31  2  0  0  0  0
 36 35  1  0  0  0  0
M  END
>  <MODEL>
7

>  <REMARK>
 VINA RESULT:      -5.9      5.545      7.925
  Name = 
  4 active torsions:
  status: ('A' for Active; 'I' for Inactive)
    1  A    between atoms: N_25  and  C_37
    2  A    between atoms: C_27  and  C_29
    3  A    between atoms: C_28  and  C_29
    4  A    between atoms: C_34  and  C_37
                            x       y       z     vdW  Elec       q    Type
                         _______ _______ _______ _____ _____    ______ ____

>  <TORSDO>
F 4

$$$$
=
 OpenBabel11062412273D

 37 41  0  0  1  0  0  0  0  0999 V2000
  185.9200  174.9890  137.0910 C   0  0  0  0  0  2  0  0  0  0  0  0
  186.7200  173.2750  134.9860 O   0  0  0  0  0  0  0  0  0  0  0  0
  185.4770  173.9460  134.7950 C   0  0  0  0  0  2  0  0  0  0  0  0
  188.2670  169.9160  135.1740 C   0  0  0  0  0  1  0  0  0  0  0  0
  189.5050  175.3550  137.2810 N   0  0  0  0  0  0  0  0  0  0  0  0
  187.4940  176.8330  137.5720 C   0  0  0  0  0  0  0  0  0  0  0  0
  188.8190  176.4540  137.9140 C   0  0  0  0  0  0  0  0  0  0  0  0
  186.8230  171.9340  135.3660 C   0  0  0  0  0  0  0  0  0  0  0  0
  188.1730  171.3450  135.6780 C   0  0  2  0  0  3  0  0  0  0  0  0
  190.9390  175.1690  137.3790 C   0  0  0  0  0  2  0  0  0  0  0  0
  187.5740  178.5780  139.2120 N   0  0  0  0  0  0  0  0  0  0  0  0
  188.8460  178.2470  139.5490 C   0  0  0  0  0  3  0  0  0  0  0  0
  189.8350  173.2700  136.4630 C   0  0  1  0  0  3  0  0  0  0  0  0
  188.8280  174.3050  136.6480 N   0  0  0  0  0  2  0  0  0  0  0  0
  189.4860  177.1870  138.9080 C   0  0  0  0  0  3  0  0  0  0  0  0
  186.8960  177.9010  138.2490 C   0  0  0  0  0  3  0  0  0  0  0  0
  184.8760  174.4500  136.1130 C   0  0  1  0  0  3  0  0  0  0  0  0
  189.5250  172.3170  134.9340 S   0  0  0  0  0  0  0  0  0  0  0  0
  185.7860  171.2300  135.5030 O   0  0  0  0  0  0  0  0  0  0  0  0
  191.2180  173.9290  136.5660 C   0  0  1  0  0  3  0  0  0  0  0  0
  186.6920  176.1610  136.5050 C   0  0  0  0  0  2  0  0  0  0  0  0
  184.0440  173.3560  136.7640 C   0  0  0  0  0  2  0  0  0  0  0  0
  181.5880  172.8720  137.0160 N   0  0  0  0  0  0  0  0  0  0  0  0
  181.6290  172.2340  135.7010 C   0  0  0  0  0  1  0  0  0  0  0  0
  180.5170  175.0810  136.8050 C   0  0  0  0  0  2  0  0  0  0  0  0
  179.7210  173.4160  138.3910 N   0  0  0  0  0  1  0  0  0  0  0  0
  180.3190  173.5930  137.0800 C   0  0  2  0  0  3  0  0  0  0  0  0
  182.6550  173.8710  137.1460 C   0  0  2  0  0  3  0  0  0  0  0  0
  182.2040  175.3460  136.2100 S   0  0  0  0  0  0  0  0  0  0  0  0
  191.7760  174.3720  135.2170 C   0  0  0  0  0  2  0  0  0  0  0  0
  194.7450  176.3110  135.2650 C   0  0  0  0  0  0  0  0  0  0  0  0
  195.2160  175.1770  135.8930 C   0  0  0  0  0  0  0  0  0  0  0  0
  194.1470  174.3070  135.9590 C   0  0  0  0  0  3  0  0  0  0  0  0
  195.5230  177.5400  134.9500 C   0  0  0  0  0  1  0  0  0  0  0  0
  193.1030  174.9410  135.3890 N   0  0  0  0  0  0  0  0  0  0  0  0
  193.4470  176.1450  134.9610 N   0  0  0  0  0  0  0  0  0  0  0  0
  196.5940  174.9260  136.3950 C   0  0  0  0  0  1  0  0  0  0  0  0
  2  8  1  0  0  0  0
  3  2  1  0  0  0  0
  3 17  1  0  0  0  0
  5 10  1  0  0  0  0
  5  7  1  0  0  0  0
  6  7  2  0  0  0  0
  6 16  1  0  0  0  0
  7 15  1  0  0  0  0
  8 19  2  0  0  0  0
  8  9  1  0  0  0  0
  9  4  1  6  0  0  0
 11 12  1  0  0  0  0
 13 18  1  6  0  0  0
 13 20  1  0  0  0  0
 13 14  1  0  0  0  0
 14  5  1  0  0  0  0
 15 12  2  0  0  0  0
 16 11  2  0  0  0  0
 17 22  1  1  0  0  0
 17  1  1  0  0  0  0
 18  9  1  0  0  0  0
 20 30  1  6  0  0  0
 20 10  1  0  0  0  0
 21  1  1  0  0  0  0
 21  6  1  0  0  0  0
 23 27  1  0  0  0  0
 23 28  1  0  0  0  0
 24 23  1  0  0  0  0
 25 27  1  0  0  0  0
 27 26  1  1  0  0  0
 28 22  1  6  0  0  0
 29 25  1  0  0  0  0
 29 28  1  0  0  0  0
 30 35  1  0  0  0  0
 31 32  1  0  0  0  0
 32 33  2  0  0  0  0
 32 37  1  0  0  0  0
 34 31  1  0  0  0  0
 35 33  1  0  0  0  0
 36 31  2  0  0  0  0
 36 35  1  0  0  0  0
M  END
>  <MODEL>
8

>  <REMARK>
 VINA RESULT:      -5.9      5.620      8.167
  Name = 
  4 active torsions:
  status: ('A' for Active; 'I' for Inactive)
    1  A    between atoms: N_25  and  C_37
    2  A    between atoms: C_27  and  C_29
    3  A    between atoms: C_28  and  C_29
    4  A    between atoms: C_34  and  C_37
                            x       y       z     vdW  Elec       q    Type
                         _______ _______ _______ _____ _____    ______ ____

>  <TORSDO>
F 4

$$$$
