=
 OpenBabel11062413243D

 46 48  0  0  1  0  0  0  0  0999 V2000
  182.0660  178.2030  138.6870 C   0  0  2  0  0  3  0  0  0  0  0  0
  182.7530  175.8500  135.5930 C   0  0  1  0  0  3  0  0  0  0  0  0
  181.5910  175.0790  135.8640 O   0  0  0  0  0  0  0  0  0  0  0  0
  181.9780  177.0470  137.6790 C   0  0  2  0  0  3  0  0  0  0  0  0
  181.6450  174.5980  137.1890 C   0  0  1  0  0  3  0  0  0  0  0  0
  181.3800  175.7260  138.1950 C   0  0  1  0  0  3  0  0  0  0  0  0
  183.1540  176.8630  136.7070 C   0  0  1  0  0  3  0  0  0  0  0  0
  180.6250  173.4910  137.3720 C   0  0  0  0  0  1  0  0  0  0  0  0
  181.9240  175.3770  139.4340 O   0  0  0  0  0  1  0  0  0  0  0  0
  183.8520  175.0290  134.9830 C   0  0  0  0  0  3  0  0  0  0  0  0
  184.1430  173.8190  135.4640 C   0  0  0  0  0  2  0  0  0  0  0  0
  184.5060  176.6140  137.3990 C   0  0  0  0  0  2  0  0  0  0  0  0
  185.6520  177.4040  136.7830 C   0  0  0  0  0  2  0  0  0  0  0  0
  187.0030  176.9860  137.3730 C   0  0  1  0  0  3  0  0  0  0  0  0
  187.6380  174.6000  136.8820 C   0  0  0  0  0  1  0  0  0  0  0  0
  187.3400  176.1570  134.9800 C   0  0  0  0  0  1  0  0  0  0  0  0
  187.7720  176.0400  136.4330 C   0  0  0  0  0  3  0  0  0  0  0  0
  187.5330  179.3100  137.1410 O   0  0  0  0  0  1  0  0  0  0  0  0
  189.3470  177.8630  137.7100 C   0  0  0  0  0  1  0  0  0  0  0  0
  187.8570  178.1690  137.8900 C   0  0  2  0  0  0  0  0  0  0  0  0
  187.5500  178.3780  139.2590 O   0  0  0  0  0  0  0  0  0  0  0  0
  188.7110  178.2170  140.0420 C   0  0  0  0  0  2  0  0  0  0  0  0
  188.3540  177.8770  141.3450 O   0  0  0  0  0  1  0  0  0  0  0  0
  180.3140  178.9880  137.0960 C   0  0  0  0  0  1  0  0  0  0  0  0
  181.1390  179.3500  138.3090 C   0  0  0  0  0  2  0  0  0  0  0  0
  183.3740  178.6680  138.8210 O   0  0  0  0  0  0  0  0  0  0  0  0
  183.4000  179.2480  140.0890 C   0  0  0  0  0  2  0  0  0  0  0  0
  183.8700  178.2430  141.1250 C   0  0  0  0  0  2  0  0  0  0  0  0
  184.8270  178.8580  142.1020 C   0  0  0  0  0  0  0  0  0  0  0  0
  185.6670  179.6530  141.7100 O   0  0  0  0  0  0  0  0  0  0  0  0
  184.8110  178.4680  143.5520 C   0  0  2  0  0  3  0  0  0  0  0  0
  184.7510  178.3090  146.3460 C   0  0  0  0  0  2  0  0  0  0  0  0
  186.1510  178.4360  145.7150 C   0  0  2  0  0  3  0  0  0  0  0  0
  183.6960  179.1120  144.3360 C   0  0  0  0  0  0  0  0  0  0  0  0
  182.6180  179.7840  143.6940 N   0  0  0  0  0  1  0  0  0  0  0  0
  183.7250  179.0630  145.6280 N   0  0  0  0  0  0  0  0  0  0  0  0
  186.1390  178.8060  144.2230 C   0  0  0  0  0  2  0  0  0  0  0  0
  186.8620  177.2160  145.8940 O   0  0  0  0  0  0  0  0  0  0  0  0
  188.2610  177.1390  145.9110 C   0  0  0  0  0  0  0  0  0  0  0  0
  191.0910  176.7690  143.6090 F   0  0  0  0  0  0  0  0  0  0  0  0
  188.9950  176.9660  144.7290 C   0  0  0  0  0  3  0  0  0  0  0  0
  191.0650  177.0240  145.9770 C   0  0  0  0  0  3  0  0  0  0  0  0
  190.3430  177.1910  147.1600 C   0  0  0  0  0  3  0  0  0  0  0  0
  188.9450  177.2510  147.1320 C   0  0  0  0  0  0  0  0  0  0  0  0
  190.3920  176.9120  144.7620 C   0  0  0  0  0  0  0  0  0  0  0  0
  188.0720  177.5030  148.6290 Cl  0  0  0  0  0  0  0  0  0  0  0  0
  1 25  1  6  0  0  0
  1 26  1  0  0  0  0
  2 10  1  1  0  0  0
  2  3  1  0  0  0  0
  2  7  1  0  0  0  0
  3  5  1  0  0  0  0
  4  6  1  0  0  0  0
  4  1  1  1  0  0  0
  5  8  1  6  0  0  0
  5  6  1  0  0  0  0
  6  9  1  1  0  0  0
  7 12  1  1  0  0  0
  7  4  1  0  0  0  0
 10 11  2  0  0  0  0
 13 12  1  0  0  0  0
 14 13  1  6  0  0  0
 14 20  1  0  0  0  0
 16 17  1  0  0  0  0
 17 15  1  0  0  0  0
 17 14  1  0  0  0  0
 18 20  1  0  0  0  0
 20 19  1  6  0  0  0
 20 21  1  0  0  0  0
 21 22  1  0  0  0  0
 22 23  1  0  0  0  0
 24 25  1  0  0  0  0
 26 27  1  0  0  0  0
 27 28  1  0  0  0  0
 28 29  1  0  0  0  0
 30 29  2  0  0  0  0
 31 29  1  6  0  0  0
 31 37  1  0  0  0  0
 31 34  1  0  0  0  0
 33 38  1  6  0  0  0
 33 32  1  0  0  0  0
 34 36  2  0  0  0  0
 35 34  1  0  0  0  0
 36 32  1  0  0  0  0
 37 33  1  0  0  0  0
 38 39  1  0  0  0  0
 39 44  1  0  0  0  0
 40 45  1  0  0  0  0
 41 45  1  0  0  0  0
 41 39  2  0  0  0  0
 42 43  1  0  0  0  0
 44 43  2  0  0  0  0
 44 46  1  0  0  0  0
 45 42  2  0  0  0  0
M  END
>  <MODEL>
1

>  <REMARK>
 VINA RESULT:      -7.3      0.000      0.000
  Name = 
  17 active torsions:
  status: ('A' for Active; 'I' for Inactive)
    1  A    between atoms: C_1  and  C_10
    2  A    between atoms: C_2  and  C_37
    3  A    between atoms: C_3  and  O_36
    4  A    between atoms: C_4  and  C_22
    5  A    between atoms: C_4  and  C_38
    6  A    between atoms: C_7  and  C_24
    7  A    between atoms: C_7  and  C_37
    8  A    between atoms: C_11  and  O_36
    9  A    between atoms: C_15  and  C_29
   10  A    between atoms: O_23  and  C_24
   11  A    between atoms: O_23  and  C_29
   12  A    between atoms: C_27  and  C_38
   13  A    between atoms: C_27  and  C_43
   14  A    between atoms: C_27  and  C_44
   15  A    between atoms: C_29  and  C_35
   16  A    between atoms: O_30  and  C_34
   17  A    between atoms: O_30  and  C_43
                            x       y       z     vdW  Elec       q    Type
                         _______ _______ _______ _____ _____    ______ ____

>  <TORSDO>
F 17

$$$$
=
 OpenBabel11062413243D

 46 48  0  0  1  0  0  0  0  0999 V2000
  188.0150  178.2340  139.3930 C   0  0  2  0  0  3  0  0  0  0  0  0
  186.9800  175.8000  136.4620 C   0  0  1  0  0  3  0  0  0  0  0  0
  188.2340  175.9720  135.8160 O   0  0  0  0  0  0  0  0  0  0  0  0
  188.0170  177.4500  138.0720 C   0  0  2  0  0  3  0  0  0  0  0  0
  188.4640  177.3460  135.5940 C   0  0  1  0  0  3  0  0  0  0  0  0
  188.8100  178.0650  136.9060 C   0  0  1  0  0  3  0  0  0  0  0  0
  186.7030  176.7740  137.6460 C   0  0  1  0  0  3  0  0  0  0  0  0
  189.5920  177.5200  134.5960 C   0  0  0  0  0  1  0  0  0  0  0  0
  188.5340  179.4280  136.7720 O   0  0  0  0  0  1  0  0  0  0  0  0
  185.8630  175.5730  135.4850 C   0  0  0  0  0  3  0  0  0  0  0  0
  185.8860  174.5270  134.6570 C   0  0  0  0  0  2  0  0  0  0  0  0
  185.5260  177.7500  137.4660 C   0  0  0  0  0  2  0  0  0  0  0  0
  184.3180  177.4000  138.3230 C   0  0  0  0  0  2  0  0  0  0  0  0
  183.0380  177.3260  137.4840 C   0  0  1  0  0  3  0  0  0  0  0  0
  182.3740  175.5220  135.8580 C   0  0  0  0  0  1  0  0  0  0  0  0
  183.4470  174.8550  137.9880 C   0  0  0  0  0  1  0  0  0  0  0  0
  182.5420  175.8780  137.3210 C   0  0  0  0  0  3  0  0  0  0  0  0
  182.4540  179.6100  137.9000 O   0  0  0  0  0  1  0  0  0  0  0  0
  181.4920  177.9880  139.3680 C   0  0  0  0  0  1  0  0  0  0  0  0
  181.9310  178.3090  137.9360 C   0  0  2  0  0  0  0  0  0  0  0  0
  180.8380  178.1950  137.0400 O   0  0  0  0  0  0  0  0  0  0  0  0
  180.8350  179.2840  136.1440 C   0  0  0  0  0  2  0  0  0  0  0  0
  179.7960  179.1350  135.2280 O   0  0  0  0  0  1  0  0  0  0  0  0
  190.2320  177.6600  140.3770 C   0  0  0  0  0  1  0  0  0  0  0  0
  188.7370  177.4760  140.4980 C   0  0  0  0  0  2  0  0  0  0  0  0
  186.7190  178.5520  139.7980 O   0  0  0  0  0  0  0  0  0  0  0  0
  186.8240  178.7090  141.1810 C   0  0  0  0  0  2  0  0  0  0  0  0
  185.5670  179.3480  141.7410 C   0  0  0  0  0  2  0  0  0  0  0  0
  184.7050  178.3490  142.4540 C   0  0  0  0  0  0  0  0  0  0  0  0
  183.8720  177.7110  141.8290 O   0  0  0  0  0  0  0  0  0  0  0  0
  184.8080  178.1580  143.9390 C   0  0  2  0  0  3  0  0  0  0  0  0
  184.9560  178.3740  146.7270 C   0  0  0  0  0  2  0  0  0  0  0  0
  186.3010  178.4530  145.9790 C   0  0  2  0  0  3  0  0  0  0  0  0
  183.7290  178.8700  144.7150 C   0  0  0  0  0  0  0  0  0  0  0  0
  182.5830  179.4210  144.0740 N   0  0  0  0  0  1  0  0  0  0  0  0
  183.8530  178.9960  145.9960 N   0  0  0  0  0  0  0  0  0  0  0  0
  186.1670  178.6180  144.4570 C   0  0  0  0  0  2  0  0  0  0  0  0
  187.0680  177.2870  146.2630 O   0  0  0  0  0  0  0  0  0  0  0  0
  188.4500  177.2100  146.0510 C   0  0  0  0  0  0  0  0  0  0  0  0
  190.8560  176.4910  143.3790 F   0  0  0  0  0  0  0  0  0  0  0  0
  188.9770  176.8590  144.7990 C   0  0  0  0  0  3  0  0  0  0  0  0
  191.2270  177.0960  145.6520 C   0  0  0  0  0  3  0  0  0  0  0  0
  190.7130  177.4400  146.9030 C   0  0  0  0  0  3  0  0  0  0  0  0
  189.3300  177.5000  147.1070 C   0  0  0  0  0  0  0  0  0  0  0  0
  190.3600  176.8060  144.6000 C   0  0  0  0  0  0  0  0  0  0  0  0
  188.7180  177.9750  148.6780 Cl  0  0  0  0  0  0  0  0  0  0  0  0
  1 26  1  0  0  0  0
  1 25  1  1  0  0  0
  2 10  1  6  0  0  0
  2  7  1  0  0  0  0
  3  2  1  0  0  0  0
  4  1  1  1  0  0  0
  5  8  1  6  0  0  0
  5  3  1  0  0  0  0
  5  6  1  0  0  0  0
  6  9  1  6  0  0  0
  6  4  1  0  0  0  0
  7 12  1  6  0  0  0
  7  4  1  0  0  0  0
 11 10  2  0  0  0  0
 12 13  1  0  0  0  0
 14 20  1  0  0  0  0
 14 13  1  1  0  0  0
 15 17  1  0  0  0  0
 17 14  1  0  0  0  0
 17 16  1  0  0  0  0
 18 20  1  0  0  0  0
 20 19  1  1  0  0  0
 21 20  1  0  0  0  0
 22 21  1  0  0  0  0
 23 22  1  0  0  0  0
 24 25  1  0  0  0  0
 26 27  1  0  0  0  0
 27 28  1  0  0  0  0
 28 29  1  0  0  0  0
 30 29  2  0  0  0  0
 31 29  1  6  0  0  0
 31 37  1  0  0  0  0
 31 34  1  0  0  0  0
 33 38  1  6  0  0  0
 33 32  1  0  0  0  0
 34 36  2  0  0  0  0
 35 34  1  0  0  0  0
 36 32  1  0  0  0  0
 37 33  1  0  0  0  0
 39 38  1  0  0  0  0
 39 44  1  0  0  0  0
 40 45  1  0  0  0  0
 41 39  2  0  0  0  0
 42 43  1  0  0  0  0
 43 44  2  0  0  0  0
 44 46  1  0  0  0  0
 45 41  1  0  0  0  0
 45 42  2  0  0  0  0
M  END
>  <MODEL>
2

>  <REMARK>
 VINA RESULT:      -7.2      1.472      4.976
  Name = 
  17 active torsions:
  status: ('A' for Active; 'I' for Inactive)
    1  A    between atoms: C_1  and  C_10
    2  A    between atoms: C_2  and  C_37
    3  A    between atoms: C_3  and  O_36
    4  A    between atoms: C_4  and  C_22
    5  A    between atoms: C_4  and  C_38
    6  A    between atoms: C_7  and  C_24
    7  A    between atoms: C_7  and  C_37
    8  A    between atoms: C_11  and  O_36
    9  A    between atoms: C_15  and  C_29
   10  A    between atoms: O_23  and  C_24
   11  A    between atoms: O_23  and  C_29
   12  A    between atoms: C_27  and  C_38
   13  A    between atoms: C_27  and  C_43
   14  A    between atoms: C_27  and  C_44
   15  A    between atoms: C_29  and  C_35
   16  A    between atoms: O_30  and  C_34
   17  A    between atoms: O_30  and  C_43
                            x       y       z     vdW  Elec       q    Type
                         _______ _______ _______ _____ _____    ______ ____

>  <TORSDO>
F 17

$$$$
=
 OpenBabel11062413243D

 46 48  0  0  1  0  0  0  0  0999 V2000
  187.8920  178.2910  139.0790 C   0  0  2  0  0  3  0  0  0  0  0  0
  187.2420  175.4840  136.3810 C   0  0  1  0  0  3  0  0  0  0  0  0
  188.6220  175.4220  136.0480 O   0  0  0  0  0  0  0  0  0  0  0  0
  188.0920  177.2890  137.9320 C   0  0  2  0  0  3  0  0  0  0  0  0
  189.0780  176.7070  135.6880 C   0  0  1  0  0  3  0  0  0  0  0  0
  189.2060  177.6110  136.9210 C   0  0  1  0  0  3  0  0  0  0  0  0
  186.8330  176.6740  137.3000 C   0  0  1  0  0  3  0  0  0  0  0  0
  190.4170  176.5950  134.9870 C   0  0  0  0  0  1  0  0  0  0  0  0
  189.1520  178.9490  136.5210 O   0  0  0  0  0  1  0  0  0  0  0  0
  186.3590  175.1920  135.2020 C   0  0  0  0  0  3  0  0  0  0  0  0
  186.3380  173.9770  134.6520 C   0  0  0  0  0  2  0  0  0  0  0  0
  185.8690  177.7080  136.6890 C   0  0  0  0  0  2  0  0  0  0  0  0
  184.4680  177.1600  136.4570 C   0  0  0  0  0  2  0  0  0  0  0  0
  183.7000  177.0070  137.7750 C   0  0  1  0  0  3  0  0  0  0  0  0
  183.4070  179.3080  138.7540 C   0  0  0  0  0  1  0  0  0  0  0  0
  182.1110  178.7120  136.7290 C   0  0  0  0  0  1  0  0  0  0  0  0
  182.7270  178.1760  138.0110 C   0  0  0  0  0  3  0  0  0  0  0  0
  182.0450  175.4600  137.0000 O   0  0  0  0  0  1  0  0  0  0  0  0
  182.4230  175.5120  139.3590 C   0  0  0  0  0  1  0  0  0  0  0  0
  183.0500  175.6150  137.9660 C   0  0  2  0  0  0  0  0  0  0  0  0
  184.0520  174.6260  137.7930 O   0  0  0  0  0  0  0  0  0  0  0  0
  183.5790  173.6070  136.9410 C   0  0  0  0  0  2  0  0  0  0  0  0
  183.8840  172.3610  137.4870 O   0  0  0  0  0  1  0  0  0  0  0  0
  189.7820  176.9000  139.9180 C   0  0  0  0  0  1  0  0  0  0  0  0
  188.9790  178.1610  140.1370 C   0  0  0  0  0  2  0  0  0  0  0  0
  186.6340  178.1550  139.6650 O   0  0  0  0  0  0  0  0  0  0  0  0
  186.8210  178.5880  140.9780 C   0  0  0  0  0  2  0  0  0  0  0  0
  185.5690  179.2680  141.4990 C   0  0  0  0  0  2  0  0  0  0  0  0
  184.6630  178.3020  142.2030 C   0  0  0  0  0  0  0  0  0  0  0  0
  183.8540  177.6500  141.5610 O   0  0  0  0  0  0  0  0  0  0  0  0
  184.6940  178.1600  143.6980 C   0  0  2  0  0  3  0  0  0  0  0  0
  184.7100  178.4700  146.4800 C   0  0  0  0  0  2  0  0  0  0  0  0
  186.0890  178.5170  145.7950 C   0  0  2  0  0  3  0  0  0  0  0  0
  183.5840  178.9030  144.3960 C   0  0  0  0  0  0  0  0  0  0  0  0
  182.4730  179.4370  143.6830 N   0  0  0  0  0  1  0  0  0  0  0  0
  183.6470  179.0720  145.6770 N   0  0  0  0  0  0  0  0  0  0  0  0
  186.0290  178.6320  144.2640 C   0  0  0  0  0  2  0  0  0  0  0  0
  186.8340  177.3590  146.1550 O   0  0  0  0  0  0  0  0  0  0  0  0
  188.2170  177.2450  145.9570 C   0  0  0  0  0  0  0  0  0  0  0  0
  190.6370  176.6020  143.2770 F   0  0  0  0  0  0  0  0  0  0  0  0
  188.7500  176.9510  144.6930 C   0  0  0  0  0  3  0  0  0  0  0  0
  190.9930  177.0570  145.5870 C   0  0  0  0  0  3  0  0  0  0  0  0
  190.4730  177.3440  146.8510 C   0  0  0  0  0  3  0  0  0  0  0  0
  189.0890  177.4400  147.0390 C   0  0  0  0  0  0  0  0  0  0  0  0
  190.1330  176.8610  144.5090 C   0  0  0  0  0  0  0  0  0  0  0  0
  188.4710  177.8430  148.6280 Cl  0  0  0  0  0  0  0  0  0  0  0  0
  1 26  1  0  0  0  0
  1 25  1  1  0  0  0
  2 10  1  6  0  0  0
  2  7  1  0  0  0  0
  3  2  1  0  0  0  0
  4  1  1  6  0  0  0
  5  8  1  1  0  0  0
  5  3  1  0  0  0  0
  5  6  1  0  0  0  0
  6  9  1  6  0  0  0
  6  4  1  0  0  0  0
  7 12  1  6  0  0  0
  7  4  1  0  0  0  0
 11 10  2  0  0  0  0
 13 12  1  0  0  0  0
 14 13  1  6  0  0  0
 14 20  1  0  0  0  0
 14 17  1  0  0  0  0
 16 17  1  0  0  0  0
 17 15  1  0  0  0  0
 18 20  1  0  0  0  0
 20 19  1  1  0  0  0
 21 20  1  0  0  0  0
 22 23  1  0  0  0  0
 22 21  1  0  0  0  0
 24 25  1  0  0  0  0
 26 27  1  0  0  0  0
 27 28  1  0  0  0  0
 28 29  1  0  0  0  0
 30 29  2  0  0  0  0
 31 29  1  6  0  0  0
 31 37  1  0  0  0  0
 31 34  1  0  0  0  0
 33 38  1  6  0  0  0
 33 32  1  0  0  0  0
 34 36  2  0  0  0  0
 35 34  1  0  0  0  0
 36 32  1  0  0  0  0
 37 33  1  0  0  0  0
 39 38  1  0  0  0  0
 39 44  1  0  0  0  0
 40 45  1  0  0  0  0
 41 39  2  0  0  0  0
 42 43  1  0  0  0  0
 43 44  2  0  0  0  0
 44 46  1  0  0  0  0
 45 41  1  0  0  0  0
 45 42  2  0  0  0  0
M  END
>  <MODEL>
3

>  <REMARK>
 VINA RESULT:      -7.0      1.503      4.886
  Name = 
  17 active torsions:
  status: ('A' for Active; 'I' for Inactive)
    1  A    between atoms: C_1  and  C_10
    2  A    between atoms: C_2  and  C_37
    3  A    between atoms: C_3  and  O_36
    4  A    between atoms: C_4  and  C_22
    5  A    between atoms: C_4  and  C_38
    6  A    between atoms: C_7  and  C_24
    7  A    between atoms: C_7  and  C_37
    8  A    between atoms: C_11  and  O_36
    9  A    between atoms: C_15  and  C_29
   10  A    between atoms: O_23  and  C_24
   11  A    between atoms: O_23  and  C_29
   12  A    between atoms: C_27  and  C_38
   13  A    between atoms: C_27  and  C_43
   14  A    between atoms: C_27  and  C_44
   15  A    between atoms: C_29  and  C_35
   16  A    between atoms: O_30  and  C_34
   17  A    between atoms: O_30  and  C_43
                            x       y       z     vdW  Elec       q    Type
                         _______ _______ _______ _____ _____    ______ ____

>  <TORSDO>
F 17

$$$$
=
 OpenBabel11062413243D

 46 48  0  0  1  0  0  0  0  0999 V2000
  189.2660  176.8770  138.7850 C   0  0  2  0  0  3  0  0  0  0  0  0
  190.1550  173.6050  136.7650 C   0  0  1  0  0  3  0  0  0  0  0  0
  191.4000  173.4740  137.4360 O   0  0  0  0  0  0  0  0  0  0  0  0
  190.0270  175.6720  138.2130 C   0  0  2  0  0  3  0  0  0  0  0  0
  192.1420  174.6650  137.2850 C   0  0  1  0  0  3  0  0  0  0  0  0
  191.5600  175.7900  138.1520 C   0  0  1  0  0  3  0  0  0  0  0  0
  189.4080  174.9500  137.0050 C   0  0  1  0  0  3  0  0  0  0  0  0
  193.5890  174.4160  137.6640 C   0  0  0  0  0  1  0  0  0  0  0  0
  191.9500  177.0250  137.6290 O   0  0  0  0  0  1  0  0  0  0  0  0
  190.2120  173.0930  135.3540 C   0  0  0  0  0  3  0  0  0  0  0  0
  189.6670  171.9190  135.0330 C   0  0  0  0  0  2  0  0  0  0  0  0
  189.2090  175.8500  135.7720 C   0  0  0  0  0  2  0  0  0  0  0  0
  187.9050  175.5810  135.0350 C   0  0  0  0  0  2  0  0  0  0  0  0
  186.7290  175.4420  136.0070 C   0  0  1  0  0  3  0  0  0  0  0  0
  185.7640  177.3890  137.2790 C   0  0  0  0  0  1  0  0  0  0  0  0
  186.1440  177.6400  134.8440 C   0  0  0  0  0  1  0  0  0  0  0  0
  185.7900  176.6600  135.9510 C   0  0  0  0  0  3  0  0  0  0  0  0
  186.3920  173.2810  136.9830 O   0  0  0  0  0  1  0  0  0  0  0  0
  186.3470  173.3830  134.5960 C   0  0  0  0  0  1  0  0  0  0  0  0
  185.9880  174.0860  135.9080 C   0  0  2  0  0  0  0  0  0  0  0  0
  184.5930  174.3330  135.9790 O   0  0  0  0  0  0  0  0  0  0  0  0
  184.0410  173.6570  137.0860 C   0  0  0  0  0  2  0  0  0  0  0  0
  183.7240  174.5750  138.0860 O   0  0  0  0  0  1  0  0  0  0  0  0
  189.0000  178.9200  137.3820 C   0  0  0  0  0  1  0  0  0  0  0  0
  189.8970  178.1950  138.3590 C   0  0  0  0  0  2  0  0  0  0  0  0
  189.1790  176.8150  140.1760 O   0  0  0  0  0  0  0  0  0  0  0  0
  190.1150  177.7510  140.6170 C   0  0  0  0  0  2  0  0  0  0  0  0
  190.9060  177.2010  141.7900 C   0  0  0  0  0  2  0  0  0  0  0  0
  190.0210  176.5010  142.7780 C   0  0  0  0  0  0  0  0  0  0  0  0
  190.0310  175.2810  142.8440 O   0  0  0  0  0  0  0  0  0  0  0  0
  189.0760  177.2720  143.6540 C   0  0  2  0  0  3  0  0  0  0  0  0
  187.2450  178.2050  145.5550 C   0  0  0  0  0  2  0  0  0  0  0  0
  186.6320  177.6500  144.2550 C   0  0  2  0  0  3  0  0  0  0  0  0
  189.3360  177.0900  145.1280 C   0  0  0  0  0  0  0  0  0  0  0  0
  190.5280  176.4790  145.6100 N   0  0  0  0  0  1  0  0  0  0  0  0
  188.4460  177.4870  145.9790 N   0  0  0  0  0  0  0  0  0  0  0  0
  187.6280  176.8920  143.3630 C   0  0  0  0  0  2  0  0  0  0  0  0
  186.0510  178.7180  143.5140 O   0  0  0  0  0  0  0  0  0  0  0  0
  184.7200  178.7110  143.0770 C   0  0  0  0  0  0  0  0  0  0  0  0
  181.3100  178.7340  144.4260 F   0  0  0  0  0  0  0  0  0  0  0  0
  183.6540  178.7030  143.9880 C   0  0  0  0  0  3  0  0  0  0  0  0
  182.0640  178.7320  142.1670 C   0  0  0  0  0  3  0  0  0  0  0  0
  183.1180  178.7350  141.2520 C   0  0  0  0  0  3  0  0  0  0  0  0
  184.4440  178.7260  141.7010 C   0  0  0  0  0  0  0  0  0  0  0  0
  182.3310  178.7170  143.5350 C   0  0  0  0  0  0  0  0  0  0  0  0
  185.7420  178.7710  140.5260 Cl  0  0  0  0  0  0  0  0  0  0  0  0
  1 25  1  1  0  0  0
  1 26  1  0  0  0  0
  2 10  1  6  0  0  0
  2  7  1  0  0  0  0
  2  3  1  0  0  0  0
  4  1  1  6  0  0  0
  5  3  1  0  0  0  0
  5  8  1  1  0  0  0
  5  6  1  0  0  0  0
  6  9  1  6  0  0  0
  6  4  1  0  0  0  0
  7 12  1  6  0  0  0
  7  4  1  0  0  0  0
 11 10  2  0  0  0  0
 13 12  1  0  0  0  0
 14 13  1  6  0  0  0
 16 17  1  0  0  0  0
 17 14  1  0  0  0  0
 17 15  1  0  0  0  0
 20 19  1  6  0  0  0
 20 21  1  0  0  0  0
 20 14  1  0  0  0  0
 20 18  1  0  0  0  0
 21 22  1  0  0  0  0
 22 23  1  0  0  0  0
 24 25  1  0  0  0  0
 26 27  1  0  0  0  0
 27 28  1  0  0  0  0
 28 29  1  0  0  0  0
 29 30  2  0  0  0  0
 31 29  1  6  0  0  0
 31 34  1  0  0  0  0
 32 36  1  0  0  0  0
 33 38  1  6  0  0  0
 33 32  1  0  0  0  0
 34 35  1  0  0  0  0
 34 36  2  0  0  0  0
 37 31  1  0  0  0  0
 37 33  1  0  0  0  0
 39 38  1  0  0  0  0
 39 41  1  0  0  0  0
 42 45  1  0  0  0  0
 43 44  1  0  0  0  0
 43 42  2  0  0  0  0
 44 39  2  0  0  0  0
 45 41  2  0  0  0  0
 45 40  1  0  0  0  0
 46 44  1  0  0  0  0
M  END
>  <MODEL>
4

>  <REMARK>
 VINA RESULT:      -6.8      3.419      7.025
  Name = 
  17 active torsions:
  status: ('A' for Active; 'I' for Inactive)
    1  A    between atoms: C_1  and  C_10
    2  A    between atoms: C_2  and  C_37
    3  A    between atoms: C_3  and  O_36
    4  A    between atoms: C_4  and  C_22
    5  A    between atoms: C_4  and  C_38
    6  A    between atoms: C_7  and  C_24
    7  A    between atoms: C_7  and  C_37
    8  A    between atoms: C_11  and  O_36
    9  A    between atoms: C_15  and  C_29
   10  A    between atoms: O_23  and  C_24
   11  A    between atoms: O_23  and  C_29
   12  A    between atoms: C_27  and  C_38
   13  A    between atoms: C_27  and  C_43
   14  A    between atoms: C_27  and  C_44
   15  A    between atoms: C_29  and  C_35
   16  A    between atoms: O_30  and  C_34
   17  A    between atoms: O_30  and  C_43
                            x       y       z     vdW  Elec       q    Type
                         _______ _______ _______ _____ _____    ______ ____

>  <TORSDO>
F 17

$$$$
=
 OpenBabel11062413243D

 46 48  0  0  1  0  0  0  0  0999 V2000
  184.2080  175.3510  136.6590 C   0  0  2  0  0  3  0  0  0  0  0  0
  180.7980  175.1750  138.6390 C   0  0  1  0  0  3  0  0  0  0  0  0
  180.5720  173.8370  138.2190 O   0  0  0  0  0  0  0  0  0  0  0  0
  182.8490  174.8750  137.1930 C   0  0  2  0  0  3  0  0  0  0  0  0
  180.6170  173.7710  136.8100 C   0  0  1  0  0  3  0  0  0  0  0  0
  182.0580  173.9040  136.3000 C   0  0  1  0  0  3  0  0  0  0  0  0
  181.9740  175.9060  137.9240 C   0  0  1  0  0  3  0  0  0  0  0  0
  180.0210  172.4590  136.3410 C   0  0  0  0  0  1  0  0  0  0  0  0
  182.0390  174.3430  134.9730 O   0  0  0  0  0  1  0  0  0  0  0  0
  179.5180  175.9410  138.8130 C   0  0  0  0  0  3  0  0  0  0  0  0
  179.2560  176.5760  139.9560 C   0  0  0  0  0  2  0  0  0  0  0  0
  181.5980  177.1280  137.0680 C   0  0  0  0  0  2  0  0  0  0  0  0
  182.3190  178.4010  137.4870 C   0  0  0  0  0  2  0  0  0  0  0  0
  181.7010  179.0070  138.7510 C   0  0  1  0  0  3  0  0  0  0  0  0
  182.6130  178.2340  140.9660 C   0  0  0  0  0  1  0  0  0  0  0  0
  184.1810  179.2240  139.3230 C   0  0  0  0  0  1  0  0  0  0  0  0
  182.7540  179.2460  139.8470 C   0  0  0  0  0  3  0  0  0  0  0  0
  180.6100  180.9190  139.6940 O   0  0  0  0  0  1  0  0  0  0  0  0
  179.4380  179.7870  137.9460 C   0  0  0  0  0  1  0  0  0  0  0  0
  180.8000  180.2370  138.4830 C   0  0  2  0  0  0  0  0  0  0  0  0
  181.4550  181.0770  137.5460 O   0  0  0  0  0  0  0  0  0  0  0  0
  181.1320  182.4250  137.8000 C   0  0  0  0  0  2  0  0  0  0  0  0
  180.5580  182.9920  136.6630 O   0  0  0  0  0  1  0  0  0  0  0  0
  185.3770  173.2700  137.3790 C   0  0  0  0  0  1  0  0  0  0  0  0
  185.0780  174.1830  136.2130 C   0  0  0  0  0  2  0  0  0  0  0  0
  184.8880  176.1230  137.6010 O   0  0  0  0  0  0  0  0  0  0  0  0
  185.7990  176.8590  136.8430 C   0  0  0  0  0  2  0  0  0  0  0  0
  187.2090  176.6690  137.3730 C   0  0  0  0  0  2  0  0  0  0  0  0
  187.7950  177.9570  137.8700 C   0  0  0  0  0  0  0  0  0  0  0  0
  187.5000  179.0090  137.3230 O   0  0  0  0  0  0  0  0  0  0  0  0
  188.7870  177.9730  138.9970 C   0  0  2  0  0  3  0  0  0  0  0  0
  190.7020  177.4470  140.9690 C   0  0  0  0  0  2  0  0  0  0  0  0
  189.2360  177.2220  141.3860 C   0  0  2  0  0  3  0  0  0  0  0  0
  190.1210  177.3750  138.6340 C   0  0  0  0  0  0  0  0  0  0  0  0
  190.4750  177.0930  137.2840 N   0  0  0  0  0  1  0  0  0  0  0  0
  190.9650  177.0970  139.5740 N   0  0  0  0  0  0  0  0  0  0  0  0
  188.2390  177.2400  140.2180 C   0  0  0  0  0  2  0  0  0  0  0  0
  188.8610  178.2070  142.3440 O   0  0  0  0  0  0  0  0  0  0  0  0
  188.5170  177.8970  143.6660 C   0  0  0  0  0  0  0  0  0  0  0  0
  190.0910  177.3220  146.9280 F   0  0  0  0  0  0  0  0  0  0  0  0
  189.4980  177.7380  144.6560 C   0  0  0  0  0  3  0  0  0  0  0  0
  187.7900  177.3110  146.3140 C   0  0  0  0  0  3  0  0  0  0  0  0
  186.8070  177.4630  145.3350 C   0  0  0  0  0  3  0  0  0  0  0  0
  187.1640  177.7570  144.0140 C   0  0  0  0  0  0  0  0  0  0  0  0
  189.1350  177.4490  145.9750 C   0  0  0  0  0  0  0  0  0  0  0  0
  185.9030  177.9810  142.8190 Cl  0  0  0  0  0  0  0  0  0  0  0  0
  1 25  1  1  0  0  0
  1 26  1  0  0  0  0
  2 10  1  6  0  0  0
  3  2  1  0  0  0  0
  4  1  1  6  0  0  0
  4  7  1  0  0  0  0
  5  8  1  1  0  0  0
  5  3  1  0  0  0  0
  6  9  1  6  0  0  0
  6  5  1  0  0  0  0
  6  4  1  0  0  0  0
  7 12  1  6  0  0  0
  7  2  1  0  0  0  0
 10 11  2  0  0  0  0
 12 13  1  0  0  0  0
 14 13  1  6  0  0  0
 14 17  1  0  0  0  0
 16 17  1  0  0  0  0
 17 15  1  0  0  0  0
 20 19  1  6  0  0  0
 20 14  1  0  0  0  0
 20 18  1  0  0  0  0
 21 22  1  0  0  0  0
 21 20  1  0  0  0  0
 23 22  1  0  0  0  0
 25 24  1  0  0  0  0
 27 28  1  0  0  0  0
 27 26  1  0  0  0  0
 28 29  1  0  0  0  0
 30 29  2  0  0  0  0
 31 29  1  6  0  0  0
 31 37  1  0  0  0  0
 32 33  1  0  0  0  0
 33 38  1  1  0  0  0
 34 31  1  0  0  0  0
 34 36  2  0  0  0  0
 35 34  1  0  0  0  0
 36 32  1  0  0  0  0
 37 33  1  0  0  0  0
 38 39  1  0  0  0  0
 39 44  2  0  0  0  0
 39 41  1  0  0  0  0
 41 45  2  0  0  0  0
 43 42  2  0  0  0  0
 44 43  1  0  0  0  0
 45 42  1  0  0  0  0
 45 40  1  0  0  0  0
 46 44  1  0  0  0  0
M  END
>  <MODEL>
5

>  <REMARK>
 VINA RESULT:      -6.8      2.939      5.862
  Name = 
  17 active torsions:
  status: ('A' for Active; 'I' for Inactive)
    1  A    between atoms: C_1  and  C_10
    2  A    between atoms: C_2  and  C_37
    3  A    between atoms: C_3  and  O_36
    4  A    between atoms: C_4  and  C_22
    5  A    between atoms: C_4  and  C_38
    6  A    between atoms: C_7  and  C_24
    7  A    between atoms: C_7  and  C_37
    8  A    between atoms: C_11  and  O_36
    9  A    between atoms: C_15  and  C_29
   10  A    between atoms: O_23  and  C_24
   11  A    between atoms: O_23  and  C_29
   12  A    between atoms: C_27  and  C_38
   13  A    between atoms: C_27  and  C_43
   14  A    between atoms: C_27  and  C_44
   15  A    between atoms: C_29  and  C_35
   16  A    between atoms: O_30  and  C_34
   17  A    between atoms: O_30  and  C_43
                            x       y       z     vdW  Elec       q    Type
                         _______ _______ _______ _____ _____    ______ ____

>  <TORSDO>
F 17

$$$$
=
 OpenBabel11062413243D

 46 48  0  0  1  0  0  0  0  0999 V2000
  189.1670  176.9470  138.9620 C   0  0  2  0  0  3  0  0  0  0  0  0
  189.4450  173.6230  136.8540 C   0  0  1  0  0  3  0  0  0  0  0  0
  190.7950  173.4290  137.2520 O   0  0  0  0  0  0  0  0  0  0  0  0
  189.7290  175.7010  138.2630 C   0  0  2  0  0  3  0  0  0  0  0  0
  191.5490  174.5780  136.9310 C   0  0  1  0  0  3  0  0  0  0  0  0
  191.2190  175.7360  137.8830 C   0  0  1  0  0  3  0  0  0  0  0  0
  188.8340  175.0080  137.2230 C   0  0  1  0  0  3  0  0  0  0  0  0
  193.0280  174.2530  137.0050 C   0  0  0  0  0  1  0  0  0  0  0  0
  191.5540  176.9460  137.2700 O   0  0  0  0  0  1  0  0  0  0  0  0
  189.1800  173.1020  135.4700 C   0  0  0  0  0  3  0  0  0  0  0  0
  188.6790  171.8790  135.2880 C   0  0  0  0  0  2  0  0  0  0  0  0
  188.4290  175.9100  136.0440 C   0  0  0  0  0  2  0  0  0  0  0  0
  187.0020  175.6770  135.5700 C   0  0  0  0  0  2  0  0  0  0  0  0
  186.0530  175.4270  136.7470 C   0  0  1  0  0  3  0  0  0  0  0  0
  185.6380  177.6720  137.8100 C   0  0  0  0  0  1  0  0  0  0  0  0
  184.5860  177.1890  135.6200 C   0  0  0  0  0  1  0  0  0  0  0  0
  185.0540  176.5830  136.9340 C   0  0  0  0  0  3  0  0  0  0  0  0
  186.1030  173.1890  137.5950 O   0  0  0  0  0  1  0  0  0  0  0  0
  185.4210  173.4440  135.3190 C   0  0  0  0  0  1  0  0  0  0  0  0
  185.3860  174.0310  136.7330 C   0  0  2  0  0  0  0  0  0  0  0  0
  184.0480  174.1690  137.1840 O   0  0  0  0  0  0  0  0  0  0  0  0
  183.1970  173.3380  136.4280 C   0  0  0  0  0  2  0  0  0  0  0  0
  182.7820  172.2600  137.2070 O   0  0  0  0  0  1  0  0  0  0  0  0
  188.8830  179.0150  137.5990 C   0  0  0  0  0  1  0  0  0  0  0  0
  189.8350  178.2220  138.4640 C   0  0  0  0  0  2  0  0  0  0  0  0
  189.2870  176.8560  140.3490 O   0  0  0  0  0  0  0  0  0  0  0  0
  190.2410  177.8210  140.6730 C   0  0  0  0  0  2  0  0  0  0  0  0
  191.2320  177.2710  141.6820 C   0  0  0  0  0  2  0  0  0  0  0  0
  190.5510  176.4730  142.7530 C   0  0  0  0  0  0  0  0  0  0  0  0
  190.5150  175.2540  142.6720 O   0  0  0  0  0  0  0  0  0  0  0  0
  189.8600  177.1480  143.9020 C   0  0  2  0  0  3  0  0  0  0  0  0
  188.5420  177.8770  146.2620 C   0  0  0  0  0  2  0  0  0  0  0  0
  187.6310  177.4870  145.0830 C   0  0  2  0  0  3  0  0  0  0  0  0
  190.4370  176.7910  145.2480 C   0  0  0  0  0  0  0  0  0  0  0  0
  191.6820  176.1120  145.3740 N   0  0  0  0  0  1  0  0  0  0  0  0
  189.7780  177.0990  146.3180 N   0  0  0  0  0  0  0  0  0  0  0  0
  188.3680  176.8250  143.9090 C   0  0  0  0  0  2  0  0  0  0  0  0
  186.9400  178.6420  144.6180 O   0  0  0  0  0  0  0  0  0  0  0  0
  185.5710  178.6500  144.3250 C   0  0  0  0  0  0  0  0  0  0  0  0
  183.3030  178.5790  141.4430 F   0  0  0  0  0  0  0  0  0  0  0  0
  185.1080  178.6330  143.0010 C   0  0  0  0  0  3  0  0  0  0  0  0
  182.8180  178.6320  143.7740 C   0  0  0  0  0  3  0  0  0  0  0  0
  183.2670  178.6530  145.0960 C   0  0  0  0  0  3  0  0  0  0  0  0
  184.6390  178.6610  145.3750 C   0  0  0  0  0  0  0  0  0  0  0  0
  183.7370  178.6210  142.7270 C   0  0  0  0  0  0  0  0  0  0  0  0
  185.1690  178.6470  147.0450 Cl  0  0  0  0  0  0  0  0  0  0  0  0
  1 25  1  6  0  0  0
  1 26  1  0  0  0  0
  2 10  1  6  0  0  0
  2  7  1  0  0  0  0
  2  3  1  0  0  0  0
  4  1  1  6  0  0  0
  5  8  1  1  0  0  0
  5  3  1  0  0  0  0
  5  6  1  0  0  0  0
  6  9  1  6  0  0  0
  6  4  1  0  0  0  0
  7 12  1  6  0  0  0
  7  4  1  0  0  0  0
 11 10  2  0  0  0  0
 13 12  1  0  0  0  0
 14 13  1  6  0  0  0
 14 17  1  0  0  0  0
 16 17  1  0  0  0  0
 17 15  1  0  0  0  0
 20 19  1  6  0  0  0
 20 14  1  0  0  0  0
 20 21  1  0  0  0  0
 20 18  1  0  0  0  0
 22 21  1  0  0  0  0
 22 23  1  0  0  0  0
 24 25  1  0  0  0  0
 26 27  1  0  0  0  0
 27 28  1  0  0  0  0
 28 29  1  0  0  0  0
 30 29  2  0  0  0  0
 31 29  1  6  0  0  0
 31 37  1  0  0  0  0
 31 34  1  0  0  0  0
 32 36  1  0  0  0  0
 33 38  1  6  0  0  0
 33 32  1  0  0  0  0
 34 35  1  0  0  0  0
 34 36  2  0  0  0  0
 37 33  1  0  0  0  0
 39 38  1  0  0  0  0
 39 44  1  0  0  0  0
 40 45  1  0  0  0  0
 41 39  2  0  0  0  0
 42 43  1  0  0  0  0
 43 44  2  0  0  0  0
 44 46  1  0  0  0  0
 45 41  1  0  0  0  0
 45 42  2  0  0  0  0
M  END
>  <MODEL>
6

>  <REMARK>
 VINA RESULT:      -6.7      3.118      6.742
  Name = 
  17 active torsions:
  status: ('A' for Active; 'I' for Inactive)
    1  A    between atoms: C_1  and  C_10
    2  A    between atoms: C_2  and  C_37
    3  A    between atoms: C_3  and  O_36
    4  A    between atoms: C_4  and  C_22
    5  A    between atoms: C_4  and  C_38
    6  A    between atoms: C_7  and  C_24
    7  A    between atoms: C_7  and  C_37
    8  A    between atoms: C_11  and  O_36
    9  A    between atoms: C_15  and  C_29
   10  A    between atoms: O_23  and  C_24
   11  A    between atoms: O_23  and  C_29
   12  A    between atoms: C_27  and  C_38
   13  A    between atoms: C_27  and  C_43
   14  A    between atoms: C_27  and  C_44
   15  A    between atoms: C_29  and  C_35
   16  A    between atoms: O_30  and  C_34
   17  A    between atoms: O_30  and  C_43
                            x       y       z     vdW  Elec       q    Type
                         _______ _______ _______ _____ _____    ______ ____

>  <TORSDO>
F 17

$$$$
=
 OpenBabel11062413243D

 46 48  0  0  1  0  0  0  0  0999 V2000
  184.0240  178.5870  142.7910 C   0  0  2  0  0  3  0  0  0  0  0  0
  186.7980  176.9860  145.0980 C   0  0  1  0  0  3  0  0  0  0  0  0
  186.2530  177.6010  146.2570 O   0  0  0  0  0  0  0  0  0  0  0  0
  184.9060  178.2540  144.0040 C   0  0  2  0  0  3  0  0  0  0  0  0
  186.1680  178.9950  146.0540 C   0  0  1  0  0  3  0  0  0  0  0  0
  185.0300  179.3420  145.0840 C   0  0  1  0  0  3  0  0  0  0  0  0
  186.2080  177.4800  143.7430 C   0  0  1  0  0  3  0  0  0  0  0  0
  185.9460  179.6910  147.3830 C   0  0  0  0  0  1  0  0  0  0  0  0
  185.2760  180.5940  144.5130 O   0  0  0  0  0  1  0  0  0  0  0  0
  188.2900  176.8360  145.1820 C   0  0  0  0  0  3  0  0  0  0  0  0
  188.9830  177.4570  146.1380 C   0  0  0  0  0  2  0  0  0  0  0  0
  187.1850  178.1970  142.7940 C   0  0  0  0  0  2  0  0  0  0  0  0
  187.9500  177.2450  141.8860 C   0  0  0  0  0  2  0  0  0  0  0  0
  189.1890  177.9170  141.2850 C   0  0  1  0  0  3  0  0  0  0  0  0
  190.7860  178.5800  143.1140 C   0  0  0  0  0  1  0  0  0  0  0  0
  190.4130  176.1690  142.6880 C   0  0  0  0  0  1  0  0  0  0  0  0
  190.4710  177.5480  142.0510 C   0  0  0  0  0  3  0  0  0  0  0  0
  188.3570  176.8120  139.3300 O   0  0  0  0  0  1  0  0  0  0  0  0
  190.7100  177.2250  139.3920 C   0  0  0  0  0  1  0  0  0  0  0  0
  189.3160  177.7460  139.7510 C   0  0  2  0  0  0  0  0  0  0  0  0
  189.0770  179.0030  139.1390 O   0  0  0  0  0  0  0  0  0  0  0  0
  189.0660  178.8600  137.7370 C   0  0  0  0  0  2  0  0  0  0  0  0
  187.9760  179.5470  137.2050 O   0  0  0  0  0  1  0  0  0  0  0  0
  181.8030  179.4250  143.5520 C   0  0  0  0  0  1  0  0  0  0  0  0
  182.5660  178.2260  143.0380 C   0  0  0  0  0  2  0  0  0  0  0  0
  184.4840  177.9560  141.6340 O   0  0  0  0  0  0  0  0  0  0  0  0
  184.0100  178.7600  140.5970 C   0  0  0  0  0  2  0  0  0  0  0  0
  184.7790  178.4860  139.3180 C   0  0  0  0  0  2  0  0  0  0  0  0
  183.8690  178.0760  138.1990 C   0  0  0  0  0  0  0  0  0  0  0  0
  184.3400  177.5990  137.1770 O   0  0  0  0  0  0  0  0  0  0  0  0
  182.3860  178.2920  138.2880 C   0  0  2  0  0  3  0  0  0  0  0  0
  179.6030  178.3580  137.9880 C   0  0  0  0  0  2  0  0  0  0  0  0
  180.3820  179.4470  137.2260 C   0  0  2  0  0  3  0  0  0  0  0  0
  181.5860  177.0150  138.2370 C   0  0  0  0  0  0  0  0  0  0  0  0
  182.2010  175.7390  138.3780 N   0  0  0  0  0  1  0  0  0  0  0  0
  180.3080  177.0790  138.0470 N   0  0  0  0  0  0  0  0  0  0  0  0
  181.9010  179.2170  137.1760 C   0  0  0  0  0  2  0  0  0  0  0  0
  180.1150  180.7170  137.8120 O   0  0  0  0  0  0  0  0  0  0  0  0
  180.4110  181.9300  137.1780 C   0  0  0  0  0  0  0  0  0  0  0  0
  182.3110  185.0150  137.7440 F   0  0  0  0  0  0  0  0  0  0  0  0
  181.2120  182.8990  137.7990 C   0  0  0  0  0  3  0  0  0  0  0  0
  181.0120  184.3390  135.8670 C   0  0  0  0  0  3  0  0  0  0  0  0
  180.2090  183.3830  135.2420 C   0  0  0  0  0  3  0  0  0  0  0  0
  179.9070  182.1800  135.8920 C   0  0  0  0  0  0  0  0  0  0  0  0
  181.5140  184.0970  137.1440 C   0  0  0  0  0  0  0  0  0  0  0  0
  178.9310  180.9850  135.0630 Cl  0  0  0  0  0  0  0  0  0  0  0  0
  1 25  1  1  0  0  0
  2 10  1  6  0  0  0
  2  3  1  0  0  0  0
  4  1  1  6  0  0  0
  4  6  1  0  0  0  0
  5  3  1  0  0  0  0
  5  8  1  1  0  0  0
  6  9  1  6  0  0  0
  6  5  1  0  0  0  0
  7 12  1  1  0  0  0
  7  4  1  0  0  0  0
  7  2  1  0  0  0  0
 10 11  2  0  0  0  0
 13 12  1  0  0  0  0
 14 13  1  1  0  0  0
 14 17  1  0  0  0  0
 17 16  1  0  0  0  0
 17 15  1  0  0  0  0
 18 20  1  0  0  0  0
 20 19  1  6  0  0  0
 20 14  1  0  0  0  0
 21 20  1  0  0  0  0
 22 21  1  0  0  0  0
 23 22  1  0  0  0  0
 25 24  1  0  0  0  0
 26  1  1  0  0  0  0
 27 26  1  0  0  0  0
 28 27  1  0  0  0  0
 29 28  1  0  0  0  0
 30 29  2  0  0  0  0
 31 29  1  6  0  0  0
 32 36  1  0  0  0  0
 33 38  1  1  0  0  0
 33 32  1  0  0  0  0
 34 31  1  0  0  0  0
 34 35  1  0  0  0  0
 36 34  2  0  0  0  0
 37 33  1  0  0  0  0
 37 31  1  0  0  0  0
 39 41  1  0  0  0  0
 39 38  1  0  0  0  0
 42 45  1  0  0  0  0
 43 42  2  0  0  0  0
 43 44  1  0  0  0  0
 44 39  2  0  0  0  0
 45 40  1  0  0  0  0
 45 41  2  0  0  0  0
 46 44  1  0  0  0  0
M  END
>  <MODEL>
7

>  <REMARK>
 VINA RESULT:      -6.4      4.163      9.131
  Name = 
  17 active torsions:
  status: ('A' for Active; 'I' for Inactive)
    1  A    between atoms: C_1  and  C_10
    2  A    between atoms: C_2  and  C_37
    3  A    between atoms: C_3  and  O_36
    4  A    between atoms: C_4  and  C_22
    5  A    between atoms: C_4  and  C_38
    6  A    between atoms: C_7  and  C_24
    7  A    between atoms: C_7  and  C_37
    8  A    between atoms: C_11  and  O_36
    9  A    between atoms: C_15  and  C_29
   10  A    between atoms: O_23  and  C_24
   11  A    between atoms: O_23  and  C_29
   12  A    between atoms: C_27  and  C_38
   13  A    between atoms: C_27  and  C_43
   14  A    between atoms: C_27  and  C_44
   15  A    between atoms: C_29  and  C_35
   16  A    between atoms: O_30  and  C_34
   17  A    between atoms: O_30  and  C_43
                            x       y       z     vdW  Elec       q    Type
                         _______ _______ _______ _____ _____    ______ ____

>  <TORSDO>
F 17

$$$$
=
 OpenBabel11062413243D

 46 48  0  0  1  0  0  0  0  0999 V2000
  187.9440  177.2610  137.1200 C   0  0  2  0  0  3  0  0  0  0  0  0
  188.7740  173.5330  136.1230 C   0  0  1  0  0  3  0  0  0  0  0  0
  190.1700  173.7950  136.1280 O   0  0  0  0  0  0  0  0  0  0  0  0
  188.6990  175.9950  136.6890 C   0  0  2  0  0  3  0  0  0  0  0  0
  190.4500  174.8750  135.2640 C   0  0  1  0  0  3  0  0  0  0  0  0
  189.9900  176.2050  135.8790 C   0  0  1  0  0  3  0  0  0  0  0  0
  187.8610  174.7910  136.2290 C   0  0  1  0  0  3  0  0  0  0  0  0
  191.9370  174.9250  134.9750 C   0  0  0  0  0  1  0  0  0  0  0  0
  189.8000  177.1420  134.8600 O   0  0  0  0  0  1  0  0  0  0  0  0
  188.3940  172.4930  135.1090 C   0  0  0  0  0  3  0  0  0  0  0  0
  189.1310  171.3910  134.9560 C   0  0  0  0  0  2  0  0  0  0  0  0
  186.9580  175.0820  135.0170 C   0  0  0  0  0  2  0  0  0  0  0  0
  185.7320  174.1830  134.9500 C   0  0  0  0  0  2  0  0  0  0  0  0
  184.9560  174.1920  136.2710 C   0  0  1  0  0  3  0  0  0  0  0  0
  183.0510  175.3080  137.4820 C   0  0  0  0  0  1  0  0  0  0  0  0
  183.6280  176.0970  135.2060 C   0  0  0  0  0  1  0  0  0  0  0  0
  183.5910  174.8900  136.1300 C   0  0  0  0  0  3  0  0  0  0  0  0
  185.6680  172.8430  138.1170 O   0  0  0  0  0  1  0  0  0  0  0  0
  185.4000  171.7190  136.0260 C   0  0  0  0  0  1  0  0  0  0  0  0
  184.8720  172.8100  136.9620 C   0  0  2  0  0  0  0  0  0  0  0  0
  183.5190  172.5630  137.3070 O   0  0  0  0  0  0  0  0  0  0  0  0
  183.0510  171.4190  136.6290 C   0  0  0  0  0  2  0  0  0  0  0  0
  181.6590  171.4470  136.5670 O   0  0  0  0  0  1  0  0  0  0  0  0
  189.2250  177.2540  139.2580 C   0  0  0  0  0  1  0  0  0  0  0  0
  188.7600  178.0990  138.0950 C   0  0  0  0  0  2  0  0  0  0  0  0
  186.7020  176.9530  137.6760 O   0  0  0  0  0  0  0  0  0  0  0  0
  185.9440  178.1070  137.4730 C   0  0  0  0  0  2  0  0  0  0  0  0
  184.6130  178.0020  138.1940 C   0  0  0  0  0  2  0  0  0  0  0  0
  184.5110  178.9870  139.3200 C   0  0  0  0  0  0  0  0  0  0  0  0
  184.5840  180.1840  139.0880 O   0  0  0  0  0  0  0  0  0  0  0  0
  184.3770  178.5260  140.7430 C   0  0  2  0  0  3  0  0  0  0  0  0
  183.9650  178.2090  143.4940 C   0  0  0  0  0  2  0  0  0  0  0  0
  185.3790  178.6590  143.0780 C   0  0  2  0  0  3  0  0  0  0  0  0
  183.0520  178.8800  141.3690 C   0  0  0  0  0  0  0  0  0  0  0  0
  181.9550  179.3460  140.5900 N   0  0  0  0  0  1  0  0  0  0  0  0
  182.9110  178.7700  142.6500 N   0  0  0  0  0  0  0  0  0  0  0  0
  185.4950  179.0970  141.6100 C   0  0  0  0  0  2  0  0  0  0  0  0
  186.3030  177.6060  143.3330 O   0  0  0  0  0  0  0  0  0  0  0  0
  187.1540  177.5860  144.4450 C   0  0  0  0  0  0  0  0  0  0  0  0
  187.0710  178.1410  148.0690 F   0  0  0  0  0  0  0  0  0  0  0  0
  186.6840  177.9020  145.7280 C   0  0  0  0  0  3  0  0  0  0  0  0
  188.8800  177.5040  146.6580 C   0  0  0  0  0  3  0  0  0  0  0  0
  189.3590  177.1930  145.3840 C   0  0  0  0  0  3  0  0  0  0  0  0
  188.5020  177.2310  144.2790 C   0  0  0  0  0  0  0  0  0  0  0  0
  187.5430  177.8580  146.8300 C   0  0  0  0  0  0  0  0  0  0  0  0
  189.1260  176.7950  142.7010 Cl  0  0  0  0  0  0  0  0  0  0  0  0
  1 26  1  0  0  0  0
  1 25  1  1  0  0  0
  2 10  1  6  0  0  0
  2  3  1  0  0  0  0
  2  7  1  0  0  0  0
  4  1  1  6  0  0  0
  5  8  1  1  0  0  0
  5  6  1  0  0  0  0
  5  3  1  0  0  0  0
  6  9  1  6  0  0  0
  6  4  1  0  0  0  0
  7 12  1  6  0  0  0
  7  4  1  0  0  0  0
 11 10  2  0  0  0  0
 13 12  1  0  0  0  0
 14 13  1  6  0  0  0
 14 20  1  0  0  0  0
 16 17  1  0  0  0  0
 17 14  1  0  0  0  0
 17 15  1  0  0  0  0
 20 19  1  6  0  0  0
 20 21  1  0  0  0  0
 20 18  1  0  0  0  0
 22 21  1  0  0  0  0
 23 22  1  0  0  0  0
 25 24  1  0  0  0  0
 27 26  1  0  0  0  0
 27 28  1  0  0  0  0
 28 29  1  0  0  0  0
 30 29  2  0  0  0  0
 31 29  1  6  0  0  0
 31 34  1  0  0  0  0
 31 37  1  0  0  0  0
 33 38  1  6  0  0  0
 33 32  1  0  0  0  0
 34 36  2  0  0  0  0
 35 34  1  0  0  0  0
 36 32  1  0  0  0  0
 37 33  1  0  0  0  0
 38 39  1  0  0  0  0
 39 41  1  0  0  0  0
 41 45  2  0  0  0  0
 42 45  1  0  0  0  0
 43 42  2  0  0  0  0
 44 39  2  0  0  0  0
 44 43  1  0  0  0  0
 45 40  1  0  0  0  0
 46 44  1  0  0  0  0
M  END
>  <MODEL>
8

>  <REMARK>
 VINA RESULT:      -6.3      2.624      5.798
  Name = 
  17 active torsions:
  status: ('A' for Active; 'I' for Inactive)
    1  A    between atoms: C_1  and  C_10
    2  A    between atoms: C_2  and  C_37
    3  A    between atoms: C_3  and  O_36
    4  A    between atoms: C_4  and  C_22
    5  A    between atoms: C_4  and  C_38
    6  A    between atoms: C_7  and  C_24
    7  A    between atoms: C_7  and  C_37
    8  A    between atoms: C_11  and  O_36
    9  A    between atoms: C_15  and  C_29
   10  A    between atoms: O_23  and  C_24
   11  A    between atoms: O_23  and  C_29
   12  A    between atoms: C_27  and  C_38
   13  A    between atoms: C_27  and  C_43
   14  A    between atoms: C_27  and  C_44
   15  A    between atoms: C_29  and  C_35
   16  A    between atoms: O_30  and  C_34
   17  A    between atoms: O_30  and  C_43
                            x       y       z     vdW  Elec       q    Type
                         _______ _______ _______ _____ _____    ______ ____

>  <TORSDO>
F 17

$$$$
=
 OpenBabel11062413243D

 46 48  0  0  1  0  0  0  0  0999 V2000
  189.9430  177.4920  141.4920 C   0  0  2  0  0  3  0  0  0  0  0  0
  190.5070  177.9340  145.3730 C   0  0  1  0  0  3  0  0  0  0  0  0
  191.6110  177.0400  145.3600 O   0  0  0  0  0  0  0  0  0  0  0  0
  190.4660  177.3110  142.9240 C   0  0  2  0  0  3  0  0  0  0  0  0
  191.2120  175.8070  144.8030 C   0  0  1  0  0  3  0  0  0  0  0  0
  191.0260  175.9240  143.2840 C   0  0  1  0  0  3  0  0  0  0  0  0
  189.6710  177.9780  144.0590 C   0  0  1  0  0  3  0  0  0  0  0  0
  192.2480  174.7460  145.1180 C   0  0  0  0  0  1  0  0  0  0  0  0
  190.1740  174.9070  142.8440 O   0  0  0  0  0  1  0  0  0  0  0  0
  189.7480  177.8810  146.6680 C   0  0  0  0  0  3  0  0  0  0  0  0
  190.0750  176.9980  147.6120 C   0  0  0  0  0  2  0  0  0  0  0  0
  188.2110  177.5040  144.1630 C   0  0  0  0  0  2  0  0  0  0  0  0
  187.2160  178.6470  144.3090 C   0  0  0  0  0  2  0  0  0  0  0  0
  185.8280  178.1360  144.7090 C   0  0  1  0  0  3  0  0  0  0  0  0
  186.2520  177.1140  146.9700 C   0  0  0  0  0  1  0  0  0  0  0  0
  186.0550  179.5770  146.8050 C   0  0  0  0  0  1  0  0  0  0  0  0
  185.5880  178.2530  146.2240 C   0  0  0  0  0  3  0  0  0  0  0  0
  184.9570  180.0620  143.5840 O   0  0  0  0  0  1  0  0  0  0  0  0
  183.3530  178.6280  144.6240 C   0  0  0  0  0  1  0  0  0  0  0  0
  184.6740  178.7150  143.8550 C   0  0  2  0  0  0  0  0  0  0  0  0
  184.5990  177.9780  142.6460 O   0  0  0  0  0  0  0  0  0  0  0  0
  183.5120  178.4330  141.8710 C   0  0  0  0  0  2  0  0  0  0  0  0
  183.9170  178.6000  140.5480 O   0  0  0  0  0  1  0  0  0  0  0  0
  187.8920  178.6020  140.6110 C   0  0  0  0  0  1  0  0  0  0  0  0
  188.4220  177.4540  141.4390 C   0  0  0  0  0  2  0  0  0  0  0  0
  190.4760  176.5370  140.6260 O   0  0  0  0  0  0  0  0  0  0  0  0
  191.3210  177.2680  139.7910 C   0  0  0  0  0  2  0  0  0  0  0  0
  191.2890  176.7100  138.3800 C   0  0  0  0  0  2  0  0  0  0  0  0
  190.0280  177.0870  137.6620 C   0  0  0  0  0  0  0  0  0  0  0  0
  189.6590  178.2510  137.6530 O   0  0  0  0  0  0  0  0  0  0  0  0
  189.1750  176.0460  136.9960 C   0  0  2  0  0  3  0  0  0  0  0  0
  187.5000  174.5120  135.3590 C   0  0  0  0  0  2  0  0  0  0  0  0
  186.7900  175.3540  136.4370 C   0  0  2  0  0  3  0  0  0  0  0  0
  189.5000  175.8410  135.5390 C   0  0  0  0  0  0  0  0  0  0  0  0
  190.6800  176.3780  134.9510 N   0  0  0  0  0  1  0  0  0  0  0  0
  188.6790  175.1690  134.7980 N   0  0  0  0  0  0  0  0  0  0  0  0
  187.6940  176.3900  137.1230 C   0  0  0  0  0  2  0  0  0  0  0  0
  186.2320  174.4890  137.4200 O   0  0  0  0  0  0  0  0  0  0  0  0
  185.0180  173.8110  137.2430 C   0  0  0  0  0  0  0  0  0  0  0  0
  183.7470  170.4450  136.5320 F   0  0  0  0  0  0  0  0  0  0  0  0
  184.9860  172.4400  136.9470 C   0  0  0  0  0  3  0  0  0  0  0  0
  182.5690  172.4760  136.9290 C   0  0  0  0  0  3  0  0  0  0  0  0
  182.5900  173.8420  137.2190 C   0  0  0  0  0  3  0  0  0  0  0  0
  183.8090  174.5110  137.3780 C   0  0  0  0  0  0  0  0  0  0  0  0
  183.7660  171.7750  136.7940 C   0  0  0  0  0  0  0  0  0  0  0  0
  183.8000  176.2150  137.7820 Cl  0  0  0  0  0  0  0  0  0  0  0  0
  1 25  1  1  0  0  0
  2 10  1  1  0  0  0
  3  2  1  0  0  0  0
  4  1  1  6  0  0  0
  4  6  1  0  0  0  0
  4  7  1  0  0  0  0
  5  8  1  6  0  0  0
  5  3  1  0  0  0  0
  6  9  1  1  0  0  0
  6  5  1  0  0  0  0
  7 12  1  1  0  0  0
  7  2  1  0  0  0  0
 10 11  2  0  0  0  0
 12 13  1  0  0  0  0
 14 13  1  1  0  0  0
 14 17  1  0  0  0  0
 17 16  1  0  0  0  0
 17 15  1  0  0  0  0
 18 20  1  0  0  0  0
 20 19  1  1  0  0  0
 20 14  1  0  0  0  0
 21 20  1  0  0  0  0
 22 21  1  0  0  0  0
 23 22  1  0  0  0  0
 24 25  1  0  0  0  0
 26  1  1  0  0  0  0
 27 26  1  0  0  0  0
 28 27  1  0  0  0  0
 29 28  1  0  0  0  0
 30 29  2  0  0  0  0
 31 37  1  0  0  0  0
 31 29  1  6  0  0  0
 32 33  1  0  0  0  0
 33 37  1  0  0  0  0
 33 38  1  1  0  0  0
 34 31  1  0  0  0  0
 35 34  1  0  0  0  0
 36 32  1  0  0  0  0
 36 34  2  0  0  0  0
 39 44  1  0  0  0  0
 39 38  1  0  0  0  0
 40 45  1  0  0  0  0
 41 39  2  0  0  0  0
 42 43  1  0  0  0  0
 43 44  2  0  0  0  0
 44 46  1  0  0  0  0
 45 42  2  0  0  0  0
 45 41  1  0  0  0  0
M  END
>  <MODEL>
9

>  <REMARK>
 VINA RESULT:      -6.3      4.187     10.117
  Name = 
  17 active torsions:
  status: ('A' for Active; 'I' for Inactive)
    1  A    between atoms: C_1  and  C_10
    2  A    between atoms: C_2  and  C_37
    3  A    between atoms: C_3  and  O_36
    4  A    between atoms: C_4  and  C_22
    5  A    between atoms: C_4  and  C_38
    6  A    between atoms: C_7  and  C_24
    7  A    between atoms: C_7  and  C_37
    8  A    between atoms: C_11  and  O_36
    9  A    between atoms: C_15  and  C_29
   10  A    between atoms: O_23  and  C_24
   11  A    between atoms: O_23  and  C_29
   12  A    between atoms: C_27  and  C_38
   13  A    between atoms: C_27  and  C_43
   14  A    between atoms: C_27  and  C_44
   15  A    between atoms: C_29  and  C_35
   16  A    between atoms: O_30  and  C_34
   17  A    between atoms: O_30  and  C_43
                            x       y       z     vdW  Elec       q    Type
                         _______ _______ _______ _____ _____    ______ ____

>  <TORSDO>
F 17

$$$$
