=
 OpenBabel11062416303D

 46 50  0  0  1  0  0  0  0  0999 V2000
  190.0890  176.7920  137.3640 C   0  0  1  0  0  3  0  0  0  0  0  0
  188.7630  176.7580  138.1600 C   0  0  2  0  0  3  0  0  0  0  0  0
  186.1780  177.1780  134.9800 S   0  0  0  0  0  0  0  0  0  0  0  0
  191.1580  175.9790  138.0700 C   0  0  0  0  0  1  0  0  0  0  0  0
  186.1300  177.1900  137.7450 C   0  0  2  0  0  3  0  0  0  0  0  0
  187.5160  176.8200  137.2420 C   0  0  1  0  0  3  0  0  0  0  0  0
  188.8510  176.6330  135.2190 C   0  0  0  0  0  3  0  0  0  0  0  0
  185.2120  177.0340  136.5380 C   0  0  2  0  0  3  0  0  0  0  0  0
  189.9480  176.3300  135.9310 C   0  0  0  0  0  3  0  0  0  0  0  0
  187.7430  177.4010  135.8690 C   0  0  1  0  0  3  0  0  0  0  0  0
  186.0500  178.6350  138.2080 C   0  0  0  0  0  1  0  0  0  0  0  0
  188.7820  177.7870  139.2470 C   0  0  0  0  0  0  0  0  0  0  0  0
  188.5630  177.4030  140.6070 N   0  0  0  0  0  2  0  0  0  0  0  0
  188.9940  178.9940  138.9470 O   0  0  0  0  0  0  0  0  0  0  0  0
  188.4850  178.3770  141.6870 C   0  0  2  0  0  3  0  0  0  0  0  0
  190.1390  176.9310  142.8490 N   0  0  0  0  0  0  0  0  0  0  0  0
  191.6770  177.8200  144.4420 C   0  0  0  0  0  3  0  0  0  0  0  0
  190.0950  179.2340  143.3510 N   0  0  0  0  0  0  0  0  0  0  0  0
  189.6030  178.1690  142.6590 C   0  0  0  0  0  0  0  0  0  0  0  0
  191.1170  179.0810  144.2340 C   0  0  0  0  0  3  0  0  0  0  0  0
  191.7250  175.3780  143.9260 C   0  0  0  0  0  1  0  0  0  0  0  0
  191.1640  176.7410  143.7210 C   0  0  0  0  0  0  0  0  0  0  0  0
  184.7450  178.6840  142.3240 C   0  0  0  0  0  3  0  0  0  0  0  0
  185.9810  178.7260  141.6770 C   0  0  0  0  0  3  0  0  0  0  0  0
  185.8220  177.8470  144.3290 C   0  0  0  0  0  3  0  0  0  0  0  0
  187.0590  177.8890  143.6830 C   0  0  0  0  0  3  0  0  0  0  0  0
  184.6650  178.2440  143.6510 C   0  0  0  0  0  3  0  0  0  0  0  0
  187.1450  178.3280  142.3560 C   0  0  0  0  0  0  0  0  0  0  0  0
  184.5140  175.6850  136.5830 C   0  0  0  0  0  2  0  0  0  0  0  0
  183.0990  175.8220  136.0480 C   0  0  0  0  0  2  0  0  0  0  0  0
  182.0670  173.0900  136.4470 O   0  0  0  0  0  0  0  0  0  0  0  0
  181.6380  174.0460  137.1490 C   0  0  0  0  0  0  0  0  0  0  0  0
  180.5130  177.1910  137.0590 C   0  0  0  0  0  1  0  0  0  0  0  0
  181.3570  176.2490  137.9080 C   0  0  2  0  0  0  0  0  0  0  0  0
  182.1340  175.3670  137.0450 N   0  0  0  0  0  0  0  0  0  0  0  0
  180.4230  175.3290  138.7100 C   0  0  0  0  0  3  0  0  0  0  0  0
  180.5480  173.9130  138.1330 C   0  0  0  0  0  3  0  0  0  0  0  0
  182.9490  176.4100  139.6980 O   0  0  0  0  0  0  0  0  0  0  0  0
  182.2380  177.0220  138.8530 C   0  0  0  0  0  0  0  0  0  0  0  0
  182.2030  178.4220  138.8390 O   0  0  0  0  0  0  0  0  0  0  0  0
  182.0910  179.1940  140.0310 C   0  0  0  0  0  2  0  0  0  0  0  0
  180.7750  178.8970  140.7510 C   0  0  2  0  0  3  0  0  0  0  0  0
  179.6150  179.5870  140.0520 C   0  0  0  0  0  1  0  0  0  0  0  0
  180.2770  178.3280  143.0400 O   0  0  0  0  0  1  0  0  0  0  0  0
  180.8310  179.3090  142.2180 C   0  0  0  0  0  3  0  0  0  0  0  0
  180.1570  180.5130  142.4090 O   0  0  0  0  0  1  0  0  0  0  0  0
  1  4  1  1  0  0  0
  1  2  1  0  0  0  0
  2 12  1  1  0  0  0
  3 10  1  0  0  0  0
  3  8  1  0  0  0  0
  5 11  1  6  0  0  0
  6  5  1  0  0  0  0
  6  2  1  0  0  0  0
  7 10  1  0  0  0  0
  7  9  2  0  0  0  0
  8 29  1  0  0  0  0
  8  5  1  0  0  0  0
  9  1  1  0  0  0  0
 10  6  1  0  0  0  0
 12 13  1  0  0  0  0
 13 15  1  0  0  0  0
 14 12  2  0  0  0  0
 15 28  1  0  0  0  0
 15 19  1  0  0  0  0
 16 22  1  0  0  0  0
 18 20  2  0  0  0  0
 19 16  2  0  0  0  0
 19 18  1  0  0  0  0
 20 17  1  0  0  0  0
 22 21  1  0  0  0  0
 22 17  2  0  0  0  0
 23 27  1  0  0  0  0
 24 23  2  0  0  0  0
 24 28  1  0  0  0  0
 26 25  1  0  0  0  0
 27 25  2  0  0  0  0
 28 26  2  0  0  0  0
 30 29  1  0  0  0  0
 30 35  1  0  0  0  0
 31 32  2  0  0  0  0
 32 37  1  0  0  0  0
 33 34  1  0  0  0  0
 34 36  1  0  0  0  0
 34 39  1  0  0  0  0
 35 32  1  0  0  0  0
 35 34  1  0  0  0  0
 37 36  2  0  0  0  0
 39 38  2  0  0  0  0
 40 39  1  0  0  0  0
 40 41  1  0  0  0  0
 41 42  1  0  0  0  0
 42 45  1  0  0  0  0
 43 42  1  0  0  0  0
 45 46  1  0  0  0  0
 45 44  1  0  0  0  0
M  END
>  <MODEL>
1

>  <REMARK>
 VINA RESULT:      -7.4      0.000      0.000
  Name = 
  12 active torsions:
  status: ('A' for Active; 'I' for Inactive)
    1  A    between atoms: C_7  and  C_14
    2  A    between atoms: C_9  and  C_12
    3  A    between atoms: C_9  and  C_28
    4  A    between atoms: C_10  and  C_26
    5  A    between atoms: C_10  and  O_38
    6  A    between atoms: C_12  and  N_29
    7  A    between atoms: C_16  and  C_46
    8  A    between atoms: C_22  and  C_26
    9  A    between atoms: N_23  and  C_46
   10  A    between atoms: C_24  and  C_39
   11  A    between atoms: O_38  and  C_39
   12  A    between atoms: C_43  and  C_46
                            x       y       z     vdW  Elec       q    Type
                         _______ _______ _______ _____ _____    ______ ____

>  <TORSDO>
F 12

$$$$
=
 OpenBabel11062416303D

 46 50  0  0  1  0  0  0  0  0999 V2000
  181.3540  178.6430  142.0370 C   0  0  1  0  0  3  0  0  0  0  0  0
  182.6860  178.0130  141.5660 C   0  0  2  0  0  3  0  0  0  0  0  0
  185.0840  179.4030  144.6140 S   0  0  0  0  0  0  0  0  0  0  0  0
  180.1760  177.7950  141.5960 C   0  0  0  0  0  1  0  0  0  0  0  0
  185.3140  178.1220  142.1740 C   0  0  2  0  0  3  0  0  0  0  0  0
  183.8500  178.2760  142.5530 C   0  0  1  0  0  3  0  0  0  0  0  0
  182.3780  179.2840  144.2040 C   0  0  0  0  0  3  0  0  0  0  0  0
  186.0910  178.3870  143.4590 C   0  0  2  0  0  3  0  0  0  0  0  0
  181.2900  178.8820  143.5290 C   0  0  0  0  0  3  0  0  0  0  0  0
  183.6740  179.4570  143.4740 C   0  0  1  0  0  3  0  0  0  0  0  0
  185.7550  179.1480  141.1430 C   0  0  0  0  0  1  0  0  0  0  0  0
  182.9750  178.4050  140.1510 C   0  0  0  0  0  0  0  0  0  0  0  0
  183.3770  177.4180  139.1970 N   0  0  0  0  0  2  0  0  0  0  0  0
  182.8580  179.6140  139.8120 O   0  0  0  0  0  0  0  0  0  0  0  0
  183.7540  177.7630  137.8330 C   0  0  2  0  0  3  0  0  0  0  0  0
  181.7170  176.4560  137.2700 N   0  0  0  0  0  0  0  0  0  0  0  0
  180.7740  176.4900  135.0780 C   0  0  0  0  0  3  0  0  0  0  0  0
  182.7370  177.7490  135.5830 N   0  0  0  0  0  0  0  0  0  0  0  0
  182.7050  177.3030  136.8700 C   0  0  0  0  0  0  0  0  0  0  0  0
  181.7940  177.3590  134.6860 C   0  0  0  0  0  3  0  0  0  0  0  0
  179.6920  175.1080  136.8540 C   0  0  0  0  0  1  0  0  0  0  0  0
  180.7540  176.0470  136.4010 C   0  0  0  0  0  0  0  0  0  0  0  0
  186.5560  175.3470  136.9390 C   0  0  0  0  0  3  0  0  0  0  0  0
  185.2850  175.8410  137.2390 C   0  0  0  0  0  3  0  0  0  0  0  0
  187.4760  177.5800  137.1490 C   0  0  0  0  0  3  0  0  0  0  0  0
  186.2050  178.0760  137.4490 C   0  0  0  0  0  3  0  0  0  0  0  0
  187.6520  176.2160  136.8940 C   0  0  0  0  0  3  0  0  0  0  0  0
  185.1050  177.2100  137.4960 C   0  0  0  0  0  0  0  0  0  0  0  0
  186.4610  177.0730  144.1260 C   0  0  0  0  0  2  0  0  0  0  0  0
  187.7960  176.5850  143.5900 C   0  0  0  0  0  2  0  0  0  0  0  0
  187.6480  176.7770  146.5280 O   0  0  0  0  0  0  0  0  0  0  0  0
  188.7190  177.0520  145.9210 C   0  0  0  0  0  0  0  0  0  0  0  0
  190.0250  178.7180  143.3360 C   0  0  0  0  0  1  0  0  0  0  0  0
  190.1820  177.4240  144.1240 C   0  0  2  0  0  0  0  0  0  0  0  0
  188.8700  176.9240  144.5200 N   0  0  0  0  0  0  0  0  0  0  0  0
  190.9260  177.7240  145.4350 C   0  0  0  0  0  3  0  0  0  0  0  0
  189.9270  177.5720  146.5880 C   0  0  0  0  0  3  0  0  0  0  0  0
  191.8300  175.6930  143.8920 O   0  0  0  0  0  0  0  0  0  0  0  0
  190.9500  176.4020  143.3290 C   0  0  0  0  0  0  0  0  0  0  0  0
  190.7370  176.3000  141.9480 O   0  0  0  0  0  0  0  0  0  0  0  0
  191.4990  177.0450  141.0020 C   0  0  0  0  0  2  0  0  0  0  0  0
  190.6420  177.4290  139.7950 C   0  0  2  0  0  3  0  0  0  0  0  0
  189.1650  177.2650  140.1120 C   0  0  0  0  0  1  0  0  0  0  0  0
  190.7090  175.2640  138.7360 O   0  0  0  0  0  1  0  0  0  0  0  0
  191.0130  176.6140  138.5610 C   0  0  0  0  0  3  0  0  0  0  0  0
  192.3700  176.7540  138.2790 O   0  0  0  0  0  1  0  0  0  0  0  0
  1  4  1  1  0  0  0
  1  9  1  0  0  0  0
  2 12  1  6  0  0  0
  2  1  1  0  0  0  0
  2  6  1  0  0  0  0
  5 11  1  6  0  0  0
  5  6  1  0  0  0  0
  5  8  1  0  0  0  0
  6 10  1  0  0  0  0
  8 29  1  0  0  0  0
  8  3  1  0  0  0  0
  9  7  2  0  0  0  0
 10  7  1  0  0  0  0
 10  3  1  0  0  0  0
 13 12  1  0  0  0  0
 14 12  2  0  0  0  0
 15 13  1  0  0  0  0
 17 22  2  0  0  0  0
 18 19  1  0  0  0  0
 19 16  2  0  0  0  0
 19 15  1  0  0  0  0
 20 17  1  0  0  0  0
 20 18  2  0  0  0  0
 22 21  1  0  0  0  0
 22 16  1  0  0  0  0
 23 24  1  0  0  0  0
 24 28  2  0  0  0  0
 25 26  2  0  0  0  0
 26 28  1  0  0  0  0
 27 23  2  0  0  0  0
 27 25  1  0  0  0  0
 28 15  1  0  0  0  0
 30 29  1  0  0  0  0
 30 35  1  0  0  0  0
 32 31  2  0  0  0  0
 32 37  1  0  0  0  0
 33 34  1  0  0  0  0
 34 35  1  0  0  0  0
 34 36  1  0  0  0  0
 35 32  1  0  0  0  0
 36 37  2  0  0  0  0
 39 38  2  0  0  0  0
 39 34  1  0  0  0  0
 40 39  1  0  0  0  0
 41 40  1  0  0  0  0
 42 43  1  0  0  0  0
 42 41  1  0  0  0  0
 45 44  1  0  0  0  0
 45 42  1  0  0  0  0
 46 45  1  0  0  0  0
M  END
>  <MODEL>
2

>  <REMARK>
 VINA RESULT:      -7.2      2.862      9.808
  Name = 
  12 active torsions:
  status: ('A' for Active; 'I' for Inactive)
    1  A    between atoms: C_7  and  C_14
    2  A    between atoms: C_9  and  C_12
    3  A    between atoms: C_9  and  C_28
    4  A    between atoms: C_10  and  C_26
    5  A    between atoms: C_10  and  O_38
    6  A    between atoms: C_12  and  N_29
    7  A    between atoms: C_16  and  C_46
    8  A    between atoms: C_22  and  C_26
    9  A    between atoms: N_23  and  C_46
   10  A    between atoms: C_24  and  C_39
   11  A    between atoms: O_38  and  C_39
   12  A    between atoms: C_43  and  C_46
                            x       y       z     vdW  Elec       q    Type
                         _______ _______ _______ _____ _____    ______ ____

>  <TORSDO>
F 12

$$$$
=
 OpenBabel11062416303D

 46 50  0  0  1  0  0  0  0  0999 V2000
  190.5060  176.8930  137.3710 C   0  0  1  0  0  3  0  0  0  0  0  0
  189.1140  176.8060  138.0400 C   0  0  2  0  0  3  0  0  0  0  0  0
  186.8210  177.2500  134.6470 S   0  0  0  0  0  0  0  0  0  0  0  0
  191.5260  176.0870  138.1520 C   0  0  0  0  0  1  0  0  0  0  0  0
  186.5200  177.1850  137.3950 C   0  0  2  0  0  3  0  0  0  0  0  0
  187.9550  176.8630  137.0130 C   0  0  1  0  0  3  0  0  0  0  0  0
  189.4740  176.7620  135.1180 C   0  0  0  0  0  3  0  0  0  0  0  0
  185.7200  177.0400  136.1050 C   0  0  2  0  0  3  0  0  0  0  0  0
  190.5090  176.4670  135.9200 C   0  0  0  0  0  3  0  0  0  0  0  0
  188.2910  177.4860  135.6820 C   0  0  1  0  0  3  0  0  0  0  0  0
  186.3590  178.6150  137.8840 C   0  0  0  0  0  1  0  0  0  0  0  0
  189.0060  177.8040  139.1490 C   0  0  0  0  0  0  0  0  0  0  0  0
  188.8050  177.3670  140.4960 N   0  0  0  0  0  2  0  0  0  0  0  0
  189.0960  179.0330  138.8810 O   0  0  0  0  0  0  0  0  0  0  0  0
  188.6070  178.3020  141.5960 C   0  0  2  0  0  3  0  0  0  0  0  0
  189.0780  178.0120  144.0180 N   0  0  0  0  0  0  0  0  0  0  0  0
  191.2300  177.3440  144.8030 C   0  0  0  0  0  3  0  0  0  0  0  0
  190.8140  177.6230  142.4700 N   0  0  0  0  0  0  0  0  0  0  0  0
  189.5240  177.9740  142.7310 C   0  0  0  0  0  0  0  0  0  0  0  0
  191.6690  177.3090  143.4790 C   0  0  0  0  0  3  0  0  0  0  0  0
  189.4020  177.7630  146.4520 C   0  0  0  0  0  1  0  0  0  0  0  0
  189.9040  177.7000  145.0520 C   0  0  0  0  0  0  0  0  0  0  0  0
  185.4130  177.7240  143.5840 C   0  0  0  0  0  3  0  0  0  0  0  0
  186.7580  177.6990  143.2110 C   0  0  0  0  0  3  0  0  0  0  0  0
  184.8830  179.0000  141.5910 C   0  0  0  0  0  3  0  0  0  0  0  0
  186.2280  178.9760  141.2170 C   0  0  0  0  0  3  0  0  0  0  0  0
  184.4740  178.3750  142.7740 C   0  0  0  0  0  3  0  0  0  0  0  0
  187.1710  178.3260  142.0240 C   0  0  0  0  0  0  0  0  0  0  0  0
  185.0570  175.6740  136.0520 C   0  0  0  0  0  2  0  0  0  0  0  0
  184.2340  175.4560  137.3100 C   0  0  0  0  0  2  0  0  0  0  0  0
  185.3220  172.7490  137.7340 O   0  0  0  0  0  0  0  0  0  0  0  0
  184.1170  172.9100  137.3970 C   0  0  0  0  0  0  0  0  0  0  0  0
  182.0760  174.5190  135.2970 C   0  0  0  0  0  1  0  0  0  0  0  0
  182.1600  174.0240  136.7350 C   0  0  2  0  0  0  0  0  0  0  0  0
  183.5220  174.1830  137.2340 N   0  0  0  0  0  0  0  0  0  0  0  0
  181.8820  172.5130  136.7590 C   0  0  0  0  0  3  0  0  0  0  0  0
  183.1970  171.7980  137.0960 C   0  0  0  0  0  3  0  0  0  0  0  0
  180.5890  174.1180  138.5490 O   0  0  0  0  0  0  0  0  0  0  0  0
  181.1610  174.7360  137.6080 C   0  0  0  0  0  0  0  0  0  0  0  0
  180.8130  176.0610  137.3180 O   0  0  0  0  0  0  0  0  0  0  0  0
  180.5030  177.0090  138.3360 C   0  0  0  0  0  2  0  0  0  0  0  0
  181.7760  177.6430  138.8970 C   0  0  2  0  0  3  0  0  0  0  0  0
  181.5460  178.1420  140.3130 C   0  0  0  0  0  1  0  0  0  0  0  0
  183.0450  179.6860  138.7350 O   0  0  0  0  0  1  0  0  0  0  0  0
  182.2760  178.7770  138.0090 C   0  0  0  0  0  3  0  0  0  0  0  0
  181.2020  179.4400  137.4190 O   0  0  0  0  0  1  0  0  0  0  0  0
  1  2  1  0  0  0  0
  1  4  1  1  0  0  0
  2 12  1  1  0  0  0
  3 10  1  0  0  0  0
  3  8  1  0  0  0  0
  5 11  1  6  0  0  0
  6  5  1  0  0  0  0
  6  2  1  0  0  0  0
  7 10  1  0  0  0  0
  7  9  2  0  0  0  0
  8  5  1  0  0  0  0
  9  1  1  0  0  0  0
 10  6  1  0  0  0  0
 12 13  1  0  0  0  0
 13 15  1  0  0  0  0
 14 12  2  0  0  0  0
 15 28  1  0  0  0  0
 15 19  1  0  0  0  0
 16 22  1  0  0  0  0
 17 22  2  0  0  0  0
 18 19  1  0  0  0  0
 18 20  2  0  0  0  0
 19 16  2  0  0  0  0
 20 17  1  0  0  0  0
 22 21  1  0  0  0  0
 24 23  1  0  0  0  0
 25 27  1  0  0  0  0
 26 25  2  0  0  0  0
 26 28  1  0  0  0  0
 27 23  2  0  0  0  0
 28 24  2  0  0  0  0
 29  8  1  0  0  0  0
 29 30  1  0  0  0  0
 32 31  2  0  0  0  0
 33 34  1  0  0  0  0
 34 36  1  0  0  0  0
 34 35  1  0  0  0  0
 34 39  1  0  0  0  0
 35 30  1  0  0  0  0
 35 32  1  0  0  0  0
 36 37  2  0  0  0  0
 37 32  1  0  0  0  0
 39 38  2  0  0  0  0
 40 39  1  0  0  0  0
 40 41  1  0  0  0  0
 41 42  1  0  0  0  0
 42 43  1  0  0  0  0
 45 44  1  0  0  0  0
 45 42  1  0  0  0  0
 46 45  1  0  0  0  0
M  END
>  <MODEL>
3

>  <REMARK>
 VINA RESULT:      -7.1      1.605      2.391
  Name = 
  12 active torsions:
  status: ('A' for Active; 'I' for Inactive)
    1  A    between atoms: C_7  and  C_14
    2  A    between atoms: C_9  and  C_12
    3  A    between atoms: C_9  and  C_28
    4  A    between atoms: C_10  and  C_26
    5  A    between atoms: C_10  and  O_38
    6  A    between atoms: C_12  and  N_29
    7  A    between atoms: C_16  and  C_46
    8  A    between atoms: C_22  and  C_26
    9  A    between atoms: N_23  and  C_46
   10  A    between atoms: C_24  and  C_39
   11  A    between atoms: O_38  and  C_39
   12  A    between atoms: C_43  and  C_46
                            x       y       z     vdW  Elec       q    Type
                         _______ _______ _______ _____ _____    ______ ____

>  <TORSDO>
F 12

$$$$
=
 OpenBabel11062416303D

 46 50  0  0  1  0  0  0  0  0999 V2000
  186.7610  173.2330  135.4430 C   0  0  1  0  0  3  0  0  0  0  0  0
  186.5340  174.3310  136.5090 C   0  0  2  0  0  3  0  0  0  0  0  0
  182.9180  175.7360  135.1220 S   0  0  0  0  0  0  0  0  0  0  0  0
  187.5750  172.0890  136.0180 C   0  0  0  0  0  1  0  0  0  0  0  0
  184.8600  176.3970  136.9770 C   0  0  2  0  0  3  0  0  0  0  0  0
  185.1740  175.0530  136.3410 C   0  0  1  0  0  3  0  0  0  0  0  0
  184.4470  173.5250  134.5940 C   0  0  0  0  0  3  0  0  0  0  0  0
  183.4030  176.6750  136.6270 C   0  0  2  0  0  3  0  0  0  0  0  0
  185.4800  172.7040  134.8360 C   0  0  0  0  0  3  0  0  0  0  0  0
  184.5560  174.9710  134.9680 C   0  0  1  0  0  3  0  0  0  0  0  0
  185.7020  177.5220  136.3970 C   0  0  0  0  0  1  0  0  0  0  0  0
  187.7160  175.2460  136.5720 C   0  0  0  0  0  0  0  0  0  0  0  0
  188.3530  175.5180  137.8230 N   0  0  0  0  0  2  0  0  0  0  0  0
  188.1430  175.7730  135.5080 O   0  0  0  0  0  0  0  0  0  0  0  0
  189.4490  176.4690  137.9480 C   0  0  2  0  0  3  0  0  0  0  0  0
  191.7720  176.5510  137.0720 N   0  0  0  0  0  0  0  0  0  0  0  0
  193.1380  174.5970  136.9620 C   0  0  0  0  0  3  0  0  0  0  0  0
  190.9060  174.4820  137.8000 N   0  0  0  0  0  0  0  0  0  0  0  0
  190.7480  175.8180  137.5910 C   0  0  0  0  0  0  0  0  0  0  0  0
  192.0770  173.8630  137.4960 C   0  0  0  0  0  3  0  0  0  0  0  0
  194.0610  176.7800  136.1770 C   0  0  0  0  0  1  0  0  0  0  0  0
  192.9590  175.9660  136.7590 C   0  0  0  0  0  0  0  0  0  0  0  0
  190.4660  177.2540  141.5320 C   0  0  0  0  0  3  0  0  0  0  0  0
  190.4620  176.6910  140.2540 C   0  0  0  0  0  3  0  0  0  0  0  0
  188.5160  178.5750  140.9570 C   0  0  0  0  0  3  0  0  0  0  0  0
  188.5110  178.0130  139.6780 C   0  0  0  0  0  3  0  0  0  0  0  0
  189.4920  178.1960  141.8840 C   0  0  0  0  0  3  0  0  0  0  0  0
  189.4820  177.0690  139.3210 C   0  0  0  0  0  0  0  0  0  0  0  0
  182.5020  176.2820  137.7860 C   0  0  0  0  0  2  0  0  0  0  0  0
  183.1990  176.5850  139.1010 C   0  0  0  0  0  2  0  0  0  0  0  0
  180.5400  175.9850  140.2230 O   0  0  0  0  0  0  0  0  0  0  0  0
  181.0670  177.1190  140.3940 C   0  0  0  0  0  0  0  0  0  0  0  0
  182.6680  179.6260  138.8740 C   0  0  0  0  0  1  0  0  0  0  0  0
  182.6280  178.8590  140.1890 C   0  0  2  0  0  0  0  0  0  0  0  0
  182.3620  177.4480  139.9300 N   0  0  0  0  0  0  0  0  0  0  0  0
  181.4380  179.3610  141.0230 C   0  0  0  0  0  3  0  0  0  0  0  0
  180.3870  178.2450  141.0610 C   0  0  0  0  0  3  0  0  0  0  0  0
  184.9350  179.4990  140.3840 O   0  0  0  0  0  0  0  0  0  0  0  0
  183.9050  179.0520  140.9630 C   0  0  0  0  0  0  0  0  0  0  0  0
  183.9630  178.6600  142.3060 O   0  0  0  0  0  0  0  0  0  0  0  0
  184.2480  179.5780  143.3570 C   0  0  0  0  0  2  0  0  0  0  0  0
  185.3880  179.0620  144.2370 C   0  0  2  0  0  3  0  0  0  0  0  0
  186.0450  177.8470  143.6040 C   0  0  0  0  0  1  0  0  0  0  0  0
  183.5450  179.0010  145.7900 O   0  0  0  0  0  1  0  0  0  0  0  0
  184.9050  178.7320  145.6450 C   0  0  0  0  0  3  0  0  0  0  0  0
  185.6290  179.4590  146.5880 O   0  0  0  0  0  1  0  0  0  0  0  0
  1  4  1  1  0  0  0
  1  2  1  0  0  0  0
  2 12  1  6  0  0  0
  3  8  1  0  0  0  0
  5 11  1  6  0  0  0
  6  2  1  0  0  0  0
  6  5  1  0  0  0  0
  7  9  2  0  0  0  0
  7 10  1  0  0  0  0
  8  5  1  0  0  0  0
  8 29  1  0  0  0  0
  9  1  1  0  0  0  0
 10  3  1  0  0  0  0
 10  6  1  0  0  0  0
 12 13  1  0  0  0  0
 13 15  1  0  0  0  0
 14 12  2  0  0  0  0
 15 28  1  0  0  0  0
 16 19  2  0  0  0  0
 17 20  1  0  0  0  0
 19 18  1  0  0  0  0
 19 15  1  0  0  0  0
 20 18  2  0  0  0  0
 21 22  1  0  0  0  0
 22 17  2  0  0  0  0
 22 16  1  0  0  0  0
 23 27  1  0  0  0  0
 24 23  2  0  0  0  0
 25 27  2  0  0  0  0
 26 25  1  0  0  0  0
 28 26  2  0  0  0  0
 28 24  1  0  0  0  0
 29 30  1  0  0  0  0
 30 35  1  0  0  0  0
 31 32  2  0  0  0  0
 32 37  1  0  0  0  0
 33 34  1  0  0  0  0
 34 39  1  0  0  0  0
 34 36  1  0  0  0  0
 35 34  1  0  0  0  0
 35 32  1  0  0  0  0
 36 37  2  0  0  0  0
 38 39  2  0  0  0  0
 39 40  1  0  0  0  0
 40 41  1  0  0  0  0
 41 42  1  0  0  0  0
 42 45  1  0  0  0  0
 43 42  1  0  0  0  0
 45 44  1  0  0  0  0
 45 46  1  0  0  0  0
M  END
>  <MODEL>
4

>  <REMARK>
 VINA RESULT:      -6.7      2.677      5.053
  Name = 
  12 active torsions:
  status: ('A' for Active; 'I' for Inactive)
    1  A    between atoms: C_7  and  C_14
    2  A    between atoms: C_9  and  C_12
    3  A    between atoms: C_9  and  C_28
    4  A    between atoms: C_10  and  C_26
    5  A    between atoms: C_10  and  O_38
    6  A    between atoms: C_12  and  N_29
    7  A    between atoms: C_16  and  C_46
    8  A    between atoms: C_22  and  C_26
    9  A    between atoms: N_23  and  C_46
   10  A    between atoms: C_24  and  C_39
   11  A    between atoms: O_38  and  C_39
   12  A    between atoms: C_43  and  C_46
                            x       y       z     vdW  Elec       q    Type
                         _______ _______ _______ _____ _____    ______ ____

>  <TORSDO>
F 12

$$$$
=
 OpenBabel11062416303D

 46 50  0  0  1  0  0  0  0  0999 V2000
  189.3610  176.6780  136.6980 C   0  0  1  0  0  3  0  0  0  0  0  0
  188.1560  176.6550  137.6670 C   0  0  2  0  0  3  0  0  0  0  0  0
  185.1770  177.2730  134.8890 S   0  0  0  0  0  0  0  0  0  0  0  0
  190.4860  175.8060  137.2220 C   0  0  0  0  0  1  0  0  0  0  0  0
  185.5080  177.1840  137.6330 C   0  0  2  0  0  3  0  0  0  0  0  0
  186.7980  176.7900  136.9320 C   0  0  1  0  0  3  0  0  0  0  0  0
  187.8370  176.6370  134.7400 C   0  0  0  0  0  3  0  0  0  0  0  0
  184.4290  177.1020  136.5590 C   0  0  2  0  0  3  0  0  0  0  0  0
  189.0090  176.2740  135.2830 C   0  0  0  0  0  3  0  0  0  0  0  0
  186.8560  177.4140  135.5610 C   0  0  1  0  0  3  0  0  0  0  0  0
  185.5440  178.6130  138.1500 C   0  0  0  0  0  1  0  0  0  0  0  0
  188.3600  177.6420  138.7740 C   0  0  0  0  0  0  0  0  0  0  0  0
  188.2190  177.2350  140.1380 N   0  0  0  0  0  2  0  0  0  0  0  0
  188.6590  178.8330  138.4880 O   0  0  0  0  0  0  0  0  0  0  0  0
  188.3210  178.1750  141.2450 C   0  0  2  0  0  3  0  0  0  0  0  0
  190.1180  178.7320  142.8670 N   0  0  0  0  0  0  0  0  0  0  0  0
  191.4840  177.0410  143.8510 C   0  0  0  0  0  3  0  0  0  0  0  0
  189.7730  176.4730  142.2880 N   0  0  0  0  0  0  0  0  0  0  0  0
  189.4400  177.7870  142.1580 C   0  0  0  0  0  0  0  0  0  0  0  0
  190.7780  176.0870  143.1170 C   0  0  0  0  0  3  0  0  0  0  0  0
  191.8660  179.4310  144.4630 C   0  0  0  0  0  1  0  0  0  0  0  0
  191.1260  178.3820  143.7100 C   0  0  0  0  0  0  0  0  0  0  0  0
  184.6980  178.9980  142.0770 C   0  0  0  0  0  3  0  0  0  0  0  0
  185.9000  178.8940  141.3740 C   0  0  0  0  0  3  0  0  0  0  0  0
  185.7150  177.8930  143.9810 C   0  0  0  0  0  3  0  0  0  0  0  0
  186.9180  177.7880  143.2790 C   0  0  0  0  0  3  0  0  0  0  0  0
  184.6060  178.4980  143.3820 C   0  0  0  0  0  3  0  0  0  0  0  0
  187.0160  178.2870  141.9740 C   0  0  0  0  0  0  0  0  0  0  0  0
  183.6960  175.7740  136.6560 C   0  0  0  0  0  2  0  0  0  0  0  0
  182.2120  175.9890  136.4120 C   0  0  0  0  0  2  0  0  0  0  0  0
  182.7760  175.6070  139.2800 O   0  0  0  0  0  0  0  0  0  0  0  0
  181.8870  176.4190  138.9050 C   0  0  0  0  0  0  0  0  0  0  0  0
  179.2680  176.8290  136.8710 C   0  0  0  0  0  1  0  0  0  0  0  0
  180.4590  177.5810  137.4490 C   0  0  2  0  0  0  0  0  0  0  0  0
  181.6090  176.6880  137.5440 N   0  0  0  0  0  0  0  0  0  0  0  0
  180.1350  177.9970  138.8930 C   0  0  0  0  0  3  0  0  0  0  0  0
  181.0070  177.1550  139.8320 C   0  0  0  0  0  3  0  0  0  0  0  0
  181.5770  178.7290  135.6600 O   0  0  0  0  0  0  0  0  0  0  0  0
  180.7710  178.8050  136.6290 C   0  0  0  0  0  0  0  0  0  0  0  0
  180.2230  180.0400  136.9980 O   0  0  0  0  0  0  0  0  0  0  0  0
  181.0130  181.2200  137.1180 C   0  0  0  0  0  2  0  0  0  0  0  0
  180.4480  182.3450  136.2510 C   0  0  2  0  0  3  0  0  0  0  0  0
  180.6950  182.0630  134.7790 C   0  0  0  0  0  1  0  0  0  0  0  0
  180.3210  184.2740  137.6920 O   0  0  0  0  0  1  0  0  0  0  0  0
  181.0310  183.7000  136.6380 C   0  0  0  0  0  3  0  0  0  0  0  0
  181.0190  184.5620  135.5430 O   0  0  0  0  0  1  0  0  0  0  0  0
  1  4  1  1  0  0  0
  1  2  1  0  0  0  0
  2 12  1  1  0  0  0
  3 10  1  0  0  0  0
  3  8  1  0  0  0  0
  5 11  1  6  0  0  0
  6  5  1  0  0  0  0
  6  2  1  0  0  0  0
  7  9  2  0  0  0  0
  7 10  1  0  0  0  0
  8 29  1  0  0  0  0
  8  5  1  0  0  0  0
  9  1  1  0  0  0  0
 10  6  1  0  0  0  0
 12 13  1  0  0  0  0
 13 15  1  0  0  0  0
 14 12  2  0  0  0  0
 15 28  1  0  0  0  0
 15 19  1  0  0  0  0
 16 22  1  0  0  0  0
 18 20  2  0  0  0  0
 19 18  1  0  0  0  0
 19 16  2  0  0  0  0
 20 17  1  0  0  0  0
 22 17  2  0  0  0  0
 22 21  1  0  0  0  0
 23 27  1  0  0  0  0
 24 28  1  0  0  0  0
 24 23  2  0  0  0  0
 26 25  1  0  0  0  0
 27 25  2  0  0  0  0
 28 26  2  0  0  0  0
 30 29  1  0  0  0  0
 30 35  1  0  0  0  0
 32 31  2  0  0  0  0
 32 37  1  0  0  0  0
 33 34  1  0  0  0  0
 34 35  1  0  0  0  0
 34 36  1  0  0  0  0
 35 32  1  0  0  0  0
 36 37  2  0  0  0  0
 38 39  2  0  0  0  0
 39 40  1  0  0  0  0
 39 34  1  0  0  0  0
 40 41  1  0  0  0  0
 42 45  1  0  0  0  0
 42 41  1  0  0  0  0
 43 42  1  0  0  0  0
 45 44  1  0  0  0  0
 46 45  1  0  0  0  0
M  END
>  <MODEL>
5

>  <REMARK>
 VINA RESULT:      -6.4      2.254      2.990
  Name = 
  12 active torsions:
  status: ('A' for Active; 'I' for Inactive)
    1  A    between atoms: C_7  and  C_14
    2  A    between atoms: C_9  and  C_12
    3  A    between atoms: C_9  and  C_28
    4  A    between atoms: C_10  and  C_26
    5  A    between atoms: C_10  and  O_38
    6  A    between atoms: C_12  and  N_29
    7  A    between atoms: C_16  and  C_46
    8  A    between atoms: C_22  and  C_26
    9  A    between atoms: N_23  and  C_46
   10  A    between atoms: C_24  and  C_39
   11  A    between atoms: O_38  and  C_39
   12  A    between atoms: C_43  and  C_46
                            x       y       z     vdW  Elec       q    Type
                         _______ _______ _______ _____ _____    ______ ____

>  <TORSDO>
F 12

$$$$
=
 OpenBabel11062416303D

 46 50  0  0  1  0  0  0  0  0999 V2000
  180.4880  177.8550  141.3670 C   0  0  1  0  0  3  0  0  0  0  0  0
  181.9130  177.5690  140.8360 C   0  0  2  0  0  3  0  0  0  0  0  0
  184.0080  179.7970  143.5970 S   0  0  0  0  0  0  0  0  0  0  0  0
  179.5640  176.6890  141.0720 C   0  0  0  0  0  1  0  0  0  0  0  0
  184.4420  178.4290  141.2330 C   0  0  2  0  0  3  0  0  0  0  0  0
  183.0160  178.2150  141.7130 C   0  0  1  0  0  3  0  0  0  0  0  0
  181.4190  178.9230  143.4040 C   0  0  0  0  0  3  0  0  0  0  0  0
  185.1870  178.9980  142.4350 C   0  0  2  0  0  3  0  0  0  0  0  0
  180.4470  178.1900  142.8410 C   0  0  0  0  0  3  0  0  0  0  0  0
  182.5750  179.3760  142.5670 C   0  0  1  0  0  3  0  0  0  0  0  0
  184.5260  179.4480  140.1080 C   0  0  0  0  0  1  0  0  0  0  0  0
  182.0040  177.9070  139.3810 C   0  0  0  0  0  0  0  0  0  0  0  0
  182.6460  177.0100  138.4710 N   0  0  0  0  0  2  0  0  0  0  0  0
  181.5060  178.9910  138.9700 O   0  0  0  0  0  0  0  0  0  0  0  0
  182.8360  177.3340  137.0640 C   0  0  2  0  0  3  0  0  0  0  0  0
  181.8590  175.1890  136.2770 N   0  0  0  0  0  0  0  0  0  0  0  0
  180.1130  175.1300  134.6530 C   0  0  0  0  0  3  0  0  0  0  0  0
  181.0360  177.2080  135.3790 N   0  0  0  0  0  0  0  0  0  0  0  0
  181.8870  176.5500  136.2140 C   0  0  0  0  0  0  0  0  0  0  0  0
  180.1540  176.5250  134.6020 C   0  0  0  0  0  3  0  0  0  0  0  0
  180.9850  172.9870  135.5880 C   0  0  0  0  0  1  0  0  0  0  0  0
  180.9890  174.4730  135.5170 C   0  0  0  0  0  0  0  0  0  0  0  0
  186.5910  176.7250  137.2070 C   0  0  0  0  0  3  0  0  0  0  0  0
  185.2670  176.9090  137.6110 C   0  0  0  0  0  3  0  0  0  0  0  0
  185.9180  176.9650  134.8900 C   0  0  0  0  0  3  0  0  0  0  0  0
  184.5930  177.1490  135.2940 C   0  0  0  0  0  3  0  0  0  0  0  0
  186.9170  176.7540  135.8460 C   0  0  0  0  0  3  0  0  0  0  0  0
  184.2620  177.1210  136.6540 C   0  0  0  0  0  0  0  0  0  0  0  0
  185.9400  177.8900  143.1530 C   0  0  0  0  0  2  0  0  0  0  0  0
  187.3910  177.8810  142.7020 C   0  0  0  0  0  2  0  0  0  0  0  0
  186.6410  177.4190  145.5160 O   0  0  0  0  0  0  0  0  0  0  0  0
  187.8470  177.3470  145.1530 C   0  0  0  0  0  0  0  0  0  0  0  0
  190.2480  178.8570  143.3860 C   0  0  0  0  0  1  0  0  0  0  0  0
  189.7200  177.4740  143.7450 C   0  0  2  0  0  0  0  0  0  0  0  0
  188.2630  177.5020  143.8100 N   0  0  0  0  0  0  0  0  0  0  0  0
  190.1940  177.1110  145.1610 C   0  0  0  0  0  3  0  0  0  0  0  0
  188.9700  177.1310  146.0850 C   0  0  0  0  0  3  0  0  0  0  0  0
  190.4100  175.2530  143.1460 O   0  0  0  0  0  0  0  0  0  0  0  0
  190.2140  176.4410  142.7670 C   0  0  0  0  0  0  0  0  0  0  0  0
  190.5300  176.8270  141.4580 O   0  0  0  0  0  0  0  0  0  0  0  0
  189.5440  176.9300  140.4340 C   0  0  0  0  0  2  0  0  0  0  0  0
  190.1690  177.4000  139.1210 C   0  0  2  0  0  3  0  0  0  0  0  0
  189.3910  178.5720  138.5460 C   0  0  0  0  0  1  0  0  0  0  0  0
  191.1160  175.2610  138.5350 O   0  0  0  0  0  1  0  0  0  0  0  0
  190.2540  176.2680  138.1020 C   0  0  0  0  0  3  0  0  0  0  0  0
  190.6870  176.7570  136.8710 O   0  0  0  0  0  1  0  0  0  0  0  0
  1  4  1  1  0  0  0
  1  9  1  0  0  0  0
  2 12  1  6  0  0  0
  2  1  1  0  0  0  0
  2  6  1  0  0  0  0
  5 11  1  6  0  0  0
  5  6  1  0  0  0  0
  5  8  1  0  0  0  0
  6 10  1  0  0  0  0
  8 29  1  0  0  0  0
  8  3  1  0  0  0  0
  9  7  2  0  0  0  0
 10  7  1  0  0  0  0
 10  3  1  0  0  0  0
 13 12  1  0  0  0  0
 14 12  2  0  0  0  0
 15 13  1  0  0  0  0
 17 22  2  0  0  0  0
 18 19  1  0  0  0  0
 19 16  2  0  0  0  0
 19 15  1  0  0  0  0
 20 17  1  0  0  0  0
 20 18  2  0  0  0  0
 22 21  1  0  0  0  0
 22 16  1  0  0  0  0
 23 24  1  0  0  0  0
 25 26  2  0  0  0  0
 25 27  1  0  0  0  0
 26 28  1  0  0  0  0
 27 23  2  0  0  0  0
 28 15  1  0  0  0  0
 28 24  2  0  0  0  0
 30 29  1  0  0  0  0
 30 35  1  0  0  0  0
 32 31  2  0  0  0  0
 32 37  1  0  0  0  0
 33 34  1  0  0  0  0
 34 35  1  0  0  0  0
 34 36  1  0  0  0  0
 35 32  1  0  0  0  0
 36 37  2  0  0  0  0
 39 38  2  0  0  0  0
 39 34  1  0  0  0  0
 40 39  1  0  0  0  0
 41 40  1  0  0  0  0
 42 41  1  0  0  0  0
 43 42  1  0  0  0  0
 45 44  1  0  0  0  0
 45 42  1  0  0  0  0
 46 45  1  0  0  0  0
M  END
>  <MODEL>
6

>  <REMARK>
 VINA RESULT:      -6.3      2.666      9.809
  Name = 
  12 active torsions:
  status: ('A' for Active; 'I' for Inactive)
    1  A    between atoms: C_7  and  C_14
    2  A    between atoms: C_9  and  C_12
    3  A    between atoms: C_9  and  C_28
    4  A    between atoms: C_10  and  C_26
    5  A    between atoms: C_10  and  O_38
    6  A    between atoms: C_12  and  N_29
    7  A    between atoms: C_16  and  C_46
    8  A    between atoms: C_22  and  C_26
    9  A    between atoms: N_23  and  C_46
   10  A    between atoms: C_24  and  C_39
   11  A    between atoms: O_38  and  C_39
   12  A    between atoms: C_43  and  C_46
                            x       y       z     vdW  Elec       q    Type
                         _______ _______ _______ _____ _____    ______ ____

>  <TORSDO>
F 12

$$$$
=
 OpenBabel11062416303D

 46 50  0  0  1  0  0  0  0  0999 V2000
  190.2320  177.2460  140.0960 C   0  0  1  0  0  3  0  0  0  0  0  0
  188.7940  177.1170  139.5400 C   0  0  2  0  0  3  0  0  0  0  0  0
  189.7290  177.1260  135.5280 S   0  0  0  0  0  0  0  0  0  0  0  0
  190.3430  176.5790  141.4530 C   0  0  0  0  0  1  0  0  0  0  0  0
  187.5080  177.2620  137.1710 C   0  0  2  0  0  3  0  0  0  0  0  0
  188.7600  177.0100  137.9950 C   0  0  1  0  0  3  0  0  0  0  0  0
  191.1820  176.8630  137.8360 C   0  0  0  0  0  3  0  0  0  0  0  0
  187.9090  176.9590  135.7310 C   0  0  2  0  0  3  0  0  0  0  0  0
  191.2930  176.7060  139.1640 C   0  0  0  0  0  3  0  0  0  0  0  0
  189.9720  177.5460  137.2760 C   0  0  1  0  0  3  0  0  0  0  0  0
  187.0570  178.7120  137.2330 C   0  0  0  0  0  1  0  0  0  0  0  0
  187.9190  178.1920  140.1050 C   0  0  0  0  0  0  0  0  0  0  0  0
  186.6090  177.8780  140.5860 N   0  0  0  0  0  2  0  0  0  0  0  0
  188.3530  179.3750  140.1520 O   0  0  0  0  0  0  0  0  0  0  0  0
  185.6890  178.9010  141.0620 C   0  0  2  0  0  3  0  0  0  0  0  0
  186.4840  178.1860  143.3050 N   0  0  0  0  0  0  0  0  0  0  0  0
  185.2730  178.7200  145.2900 C   0  0  0  0  0  3  0  0  0  0  0  0
  184.4770  179.4140  143.1510 N   0  0  0  0  0  0  0  0  0  0  0  0
  185.5480  178.8250  142.5490 C   0  0  0  0  0  0  0  0  0  0  0  0
  184.3250  179.3720  144.5010 C   0  0  0  0  0  3  0  0  0  0  0  0
  187.3910  177.4100  145.4650 C   0  0  0  0  0  1  0  0  0  0  0  0
  186.3670  178.1270  144.6580 C   0  0  0  0  0  0  0  0  0  0  0  0
  182.2370  177.6840  140.0170 C   0  0  0  0  0  3  0  0  0  0  0  0
  183.4600  177.7700  140.6860 C   0  0  0  0  0  3  0  0  0  0  0  0
  182.8130  179.6420  138.7090 C   0  0  0  0  0  3  0  0  0  0  0  0
  184.0370  179.7300  139.3770 C   0  0  0  0  0  3  0  0  0  0  0  0
  181.9140  178.6200  139.0280 C   0  0  0  0  0  3  0  0  0  0  0  0
  184.3650  178.7960  140.3680 C   0  0  0  0  0  0  0  0  0  0  0  0
  187.4810  175.5500  135.3560 C   0  0  0  0  0  2  0  0  0  0  0  0
  186.9390  174.8360  136.5820 C   0  0  0  0  0  2  0  0  0  0  0  0
  189.0680  172.8070  136.3850 O   0  0  0  0  0  0  0  0  0  0  0  0
  187.8640  172.4940  136.1780 C   0  0  0  0  0  0  0  0  0  0  0  0
  185.0600  173.3860  134.5940 C   0  0  0  0  0  1  0  0  0  0  0  0
  185.5500  172.7670  135.8960 C   0  0  2  0  0  0  0  0  0  0  0  0
  186.7920  173.4080  136.3130 N   0  0  0  0  0  0  0  0  0  0  0  0
  185.9060  171.2930  135.6450 C   0  0  0  0  0  3  0  0  0  0  0  0
  187.4310  171.1560  135.7360 C   0  0  0  0  0  3  0  0  0  0  0  0
  184.8150  172.7870  138.1820 O   0  0  0  0  0  0  0  0  0  0  0  0
  184.4920  172.8560  136.9640 C   0  0  0  0  0  0  0  0  0  0  0  0
  183.1440  172.9370  136.5930 O   0  0  0  0  0  0  0  0  0  0  0  0
  182.2760  173.9540  137.0880 C   0  0  0  0  0  2  0  0  0  0  0  0
  182.4080  175.2320  136.2590 C   0  0  2  0  0  3  0  0  0  0  0  0
  183.4960  176.1290  136.8250 C   0  0  0  0  0  1  0  0  0  0  0  0
  180.2810  175.4920  135.1520 O   0  0  0  0  0  1  0  0  0  0  0  0
  181.0860  175.9880  136.1780 C   0  0  0  0  0  3  0  0  0  0  0  0
  181.3170  177.3470  135.9760 O   0  0  0  0  0  1  0  0  0  0  0  0
  1  4  1  1  0  0  0
  2  1  1  0  0  0  0
  2 12  1  6  0  0  0
  3  8  1  0  0  0  0
  3 10  1  0  0  0  0
  5 11  1  6  0  0  0
  5  6  1  0  0  0  0
  6  2  1  0  0  0  0
  7  9  2  0  0  0  0
  8  5  1  0  0  0  0
  9  1  1  0  0  0  0
 10  7  1  0  0  0  0
 10  6  1  0  0  0  0
 12 14  2  0  0  0  0
 12 13  1  0  0  0  0
 13 15  1  0  0  0  0
 15 19  1  0  0  0  0
 16 22  1  0  0  0  0
 18 20  2  0  0  0  0
 19 18  1  0  0  0  0
 19 16  2  0  0  0  0
 20 17  1  0  0  0  0
 22 17  2  0  0  0  0
 22 21  1  0  0  0  0
 23 24  1  0  0  0  0
 25 27  1  0  0  0  0
 25 26  2  0  0  0  0
 26 28  1  0  0  0  0
 27 23  2  0  0  0  0
 28 24  2  0  0  0  0
 28 15  1  0  0  0  0
 29  8  1  0  0  0  0
 29 30  1  0  0  0  0
 32 35  1  0  0  0  0
 32 31  2  0  0  0  0
 33 34  1  0  0  0  0
 34 35  1  0  0  0  0
 34 39  1  0  0  0  0
 35 30  1  0  0  0  0
 36 37  2  0  0  0  0
 36 34  1  0  0  0  0
 37 32  1  0  0  0  0
 39 38  2  0  0  0  0
 40 39  1  0  0  0  0
 40 41  1  0  0  0  0
 42 43  1  0  0  0  0
 42 41  1  0  0  0  0
 44 45  1  0  0  0  0
 45 42  1  0  0  0  0
 46 45  1  0  0  0  0
M  END
>  <MODEL>
7

>  <REMARK>
 VINA RESULT:      -6.2      2.655      4.965
  Name = 
  12 active torsions:
  status: ('A' for Active; 'I' for Inactive)
    1  A    between atoms: C_7  and  C_14
    2  A    between atoms: C_9  and  C_12
    3  A    between atoms: C_9  and  C_28
    4  A    between atoms: C_10  and  C_26
    5  A    between atoms: C_10  and  O_38
    6  A    between atoms: C_12  and  N_29
    7  A    between atoms: C_16  and  C_46
    8  A    between atoms: C_22  and  C_26
    9  A    between atoms: N_23  and  C_46
   10  A    between atoms: C_24  and  C_39
   11  A    between atoms: O_38  and  C_39
   12  A    between atoms: C_43  and  C_46
                            x       y       z     vdW  Elec       q    Type
                         _______ _______ _______ _____ _____    ______ ____

>  <TORSDO>
F 12

$$$$
=
 OpenBabel11062416303D

 46 50  0  0  1  0  0  0  0  0999 V2000
  189.9290  177.5380  139.2810 C   0  0  1  0  0  3  0  0  0  0  0  0
  188.4210  177.3160  139.5480 C   0  0  2  0  0  3  0  0  0  0  0  0
  187.0790  177.8120  135.6850 S   0  0  0  0  0  0  0  0  0  0  0  0
  190.7690  176.7560  140.2730 C   0  0  0  0  0  1  0  0  0  0  0  0
  186.0680  177.5580  138.2470 C   0  0  2  0  0  3  0  0  0  0  0  0
  187.5750  177.3570  138.2510 C   0  0  1  0  0  3  0  0  0  0  0  0
  189.5440  177.4770  136.8310 C   0  0  0  0  0  3  0  0  0  0  0  0
  185.6530  177.4390  136.7850 C   0  0  2  0  0  3  0  0  0  0  0  0
  190.3500  177.2040  137.8680 C   0  0  0  0  0  3  0  0  0  0  0  0
  188.1990  178.0830  137.0860 C   0  0  1  0  0  3  0  0  0  0  0  0
  185.6680  178.9410  138.7340 C   0  0  0  0  0  1  0  0  0  0  0  0
  187.9430  178.2350  140.6280 C   0  0  0  0  0  0  0  0  0  0  0  0
  187.1090  177.7400  141.6790 N   0  0  0  0  0  2  0  0  0  0  0  0
  188.2860  179.4480  140.5990 O   0  0  0  0  0  0  0  0  0  0  0  0
  186.5470  178.6110  142.7020 C   0  0  2  0  0  3  0  0  0  0  0  0
  186.3810  178.5800  145.1810 N   0  0  0  0  0  0  0  0  0  0  0  0
  188.0150  177.4870  146.5320 C   0  0  0  0  0  3  0  0  0  0  0  0
  188.2110  177.5060  144.1540 N   0  0  0  0  0  0  0  0  0  0  0  0
  187.0590  178.2270  144.0540 C   0  0  0  0  0  0  0  0  0  0  0  0
  188.6970  177.1320  145.3670 C   0  0  0  0  0  3  0  0  0  0  0  0
  186.0870  178.6300  147.6310 C   0  0  0  0  0  1  0  0  0  0  0  0
  186.8350  178.2210  146.4110 C   0  0  0  0  0  0  0  0  0  0  0  0
  182.9720  178.1670  141.4720 C   0  0  0  0  0  3  0  0  0  0  0  0
  184.3680  178.1540  141.5050 C   0  0  0  0  0  3  0  0  0  0  0  0
  182.9270  179.0810  143.7170 C   0  0  0  0  0  3  0  0  0  0  0  0
  184.3230  179.0670  143.7520 C   0  0  0  0  0  3  0  0  0  0  0  0
  182.2510  178.6320  142.5790 C   0  0  0  0  0  3  0  0  0  0  0  0
  185.0500  178.6040  142.6480 C   0  0  0  0  0  0  0  0  0  0  0  0
  185.1410  176.0370  136.4990 C   0  0  0  0  0  2  0  0  0  0  0  0
  184.1300  175.6350  137.5600 C   0  0  0  0  0  2  0  0  0  0  0  0
  185.6700  173.1530  137.9540 O   0  0  0  0  0  0  0  0  0  0  0  0
  184.4940  173.1120  137.4980 C   0  0  0  0  0  0  0  0  0  0  0  0
  182.3930  174.4650  135.2800 C   0  0  0  0  0  1  0  0  0  0  0  0
  182.4330  173.8910  136.6900 C   0  0  2  0  0  0  0  0  0  0  0  0
  183.6850  174.2620  137.3400 N   0  0  0  0  0  0  0  0  0  0  0  0
  182.4470  172.3570  136.6040 C   0  0  0  0  0  3  0  0  0  0  0  0
  183.8360  171.8750  137.0420 C   0  0  0  0  0  3  0  0  0  0  0  0
  180.6530  173.5340  138.2630 O   0  0  0  0  0  0  0  0  0  0  0  0
  181.2370  174.3410  137.4870 C   0  0  0  0  0  0  0  0  0  0  0  0
  180.7320  175.6340  137.3020 O   0  0  0  0  0  0  0  0  0  0  0  0
  179.6980  176.1740  138.1200 C   0  0  0  0  0  2  0  0  0  0  0  0
  180.2840  177.0140  139.2550 C   0  0  2  0  0  3  0  0  0  0  0  0
  179.6320  176.6540  140.5790 C   0  0  0  0  0  1  0  0  0  0  0  0
  179.7290  179.1940  140.1230 O   0  0  0  0  0  1  0  0  0  0  0  0
  180.1400  178.5080  138.9810 C   0  0  0  0  0  3  0  0  0  0  0  0
  179.2260  178.7250  137.9520 O   0  0  0  0  0  1  0  0  0  0  0  0
  1  2  1  0  0  0  0
  1  4  1  1  0  0  0
  2 12  1  1  0  0  0
  3  8  1  0  0  0  0
  3 10  1  0  0  0  0
  5  6  1  0  0  0  0
  5 11  1  6  0  0  0
  6  2  1  0  0  0  0
  7 10  1  0  0  0  0
  7  9  2  0  0  0  0
  8  5  1  0  0  0  0
  9  1  1  0  0  0  0
 10  6  1  0  0  0  0
 12 13  1  0  0  0  0
 13 15  1  0  0  0  0
 14 12  2  0  0  0  0
 15 19  1  0  0  0  0
 16 22  1  0  0  0  0
 18 20  2  0  0  0  0
 19 18  1  0  0  0  0
 19 16  2  0  0  0  0
 20 17  1  0  0  0  0
 22 17  2  0  0  0  0
 22 21  1  0  0  0  0
 23 24  2  0  0  0  0
 23 27  1  0  0  0  0
 24 28  1  0  0  0  0
 25 26  1  0  0  0  0
 27 25  2  0  0  0  0
 28 15  1  0  0  0  0
 28 26  2  0  0  0  0
 29  8  1  0  0  0  0
 29 30  1  0  0  0  0
 32 31  2  0  0  0  0
 33 34  1  0  0  0  0
 34 35  1  0  0  0  0
 34 39  1  0  0  0  0
 35 32  1  0  0  0  0
 35 30  1  0  0  0  0
 36 34  1  0  0  0  0
 36 37  2  0  0  0  0
 37 32  1  0  0  0  0
 39 38  2  0  0  0  0
 40 39  1  0  0  0  0
 40 41  1  0  0  0  0
 41 42  1  0  0  0  0
 42 43  1  0  0  0  0
 45 42  1  0  0  0  0
 45 44  1  0  0  0  0
 46 45  1  0  0  0  0
M  END
>  <MODEL>
8

>  <REMARK>
 VINA RESULT:      -6.1      1.993      3.075
  Name = 
  12 active torsions:
  status: ('A' for Active; 'I' for Inactive)
    1  A    between atoms: C_7  and  C_14
    2  A    between atoms: C_9  and  C_12
    3  A    between atoms: C_9  and  C_28
    4  A    between atoms: C_10  and  C_26
    5  A    between atoms: C_10  and  O_38
    6  A    between atoms: C_12  and  N_29
    7  A    between atoms: C_16  and  C_46
    8  A    between atoms: C_22  and  C_26
    9  A    between atoms: N_23  and  C_46
   10  A    between atoms: C_24  and  C_39
   11  A    between atoms: O_38  and  C_39
   12  A    between atoms: C_43  and  C_46
                            x       y       z     vdW  Elec       q    Type
                         _______ _______ _______ _____ _____    ______ ____

>  <TORSDO>
F 12

$$$$
=
 OpenBabel11062416303D

 46 50  0  0  1  0  0  0  0  0999 V2000
  184.1860  178.9140  144.2570 C   0  0  1  0  0  3  0  0  0  0  0  0
  184.9260  179.0820  142.9090 C   0  0  2  0  0  3  0  0  0  0  0  0
  181.6720  178.6770  140.4160 S   0  0  0  0  0  0  0  0  0  0  0  0
  184.8920  179.6870  145.3550 C   0  0  0  0  0  1  0  0  0  0  0  0
  184.4300  178.8130  140.2690 C   0  0  2  0  0  3  0  0  0  0  0  0
  183.9640  179.0590  141.6950 C   0  0  1  0  0  3  0  0  0  0  0  0
  181.9890  179.0470  143.1120 C   0  0  0  0  0  3  0  0  0  0  0  0
  183.1810  178.9680  139.4080 C   0  0  2  0  0  3  0  0  0  0  0  0
  182.7270  179.3090  144.2010 C   0  0  0  0  0  3  0  0  0  0  0  0
  182.6320  178.3920  141.9280 C   0  0  1  0  0  3  0  0  0  0  0  0
  184.9610  177.4020  140.0690 C   0  0  0  0  0  1  0  0  0  0  0  0
  186.0630  178.1130  142.8160 C   0  0  0  0  0  0  0  0  0  0  0  0
  187.2640  178.4730  142.1280 N   0  0  0  0  0  2  0  0  0  0  0  0
  185.9470  176.9770  143.3520 O   0  0  0  0  0  0  0  0  0  0  0  0
  188.3610  177.5360  141.9350 C   0  0  2  0  0  3  0  0  0  0  0  0
  189.2670  177.1850  144.2220 N   0  0  0  0  0  0  0  0  0  0  0  0
  191.3670  178.1010  144.8900 C   0  0  0  0  0  3  0  0  0  0  0  0
  190.5210  178.4640  142.6890 N   0  0  0  0  0  0  0  0  0  0  0  0
  189.4090  177.7350  142.9840 C   0  0  0  0  0  0  0  0  0  0  0  0
  191.4960  178.6550  143.6160 C   0  0  0  0  0  3  0  0  0  0  0  0
  190.0430  176.7570  146.5250 C   0  0  0  0  0  1  0  0  0  0  0  0
  190.2240  177.3520  145.1730 C   0  0  0  0  0  0  0  0  0  0  0  0
  188.9990  178.7150  138.3730 C   0  0  0  0  0  3  0  0  0  0  0  0
  188.4680  178.6360  139.6610 C   0  0  0  0  0  3  0  0  0  0  0  0
  190.4440  176.8280  138.8500 C   0  0  0  0  0  3  0  0  0  0  0  0
  189.9140  176.7470  140.1400 C   0  0  0  0  0  3  0  0  0  0  0  0
  189.9880  177.8100  137.9670 C   0  0  0  0  0  3  0  0  0  0  0  0
  188.9250  177.6500  140.5510 C   0  0  0  0  0  0  0  0  0  0  0  0
  183.1320  180.3630  138.8070 C   0  0  0  0  0  2  0  0  0  0  0  0
  181.7700  180.9840  139.0650 C   0  0  0  0  0  2  0  0  0  0  0  0
  181.9690  183.6730  137.8740 O   0  0  0  0  0  0  0  0  0  0  0  0
  181.2720  182.7780  137.3220 C   0  0  0  0  0  0  0  0  0  0  0  0
  178.9780  180.4080  137.8580 C   0  0  0  0  0  1  0  0  0  0  0  0
  180.2150  180.7050  137.0200 C   0  0  2  0  0  0  0  0  0  0  0  0
  181.1820  181.4540  137.8140 N   0  0  0  0  0  0  0  0  0  0  0  0
  179.8210  181.6320  135.8590 C   0  0  0  0  0  3  0  0  0  0  0  0
  180.4400  183.0100  136.1280 C   0  0  0  0  0  3  0  0  0  0  0  0
  181.4080  179.4440  135.3600 O   0  0  0  0  0  0  0  0  0  0  0  0
  180.8090  179.4340  136.4720 C   0  0  0  0  0  0  0  0  0  0  0  0
  180.6230  178.2310  137.1640 O   0  0  0  0  0  0  0  0  0  0  0  0
  180.9340  176.9650  136.5910 C   0  0  0  0  0  2  0  0  0  0  0  0
  182.3620  176.5440  136.9410 C   0  0  2  0  0  3  0  0  0  0  0  0
  183.0350  175.8870  135.7480 C   0  0  0  0  0  1  0  0  0  0  0  0
  183.2620  174.5420  137.9380 O   0  0  0  0  0  1  0  0  0  0  0  0
  182.3930  175.6120  138.1480 C   0  0  0  0  0  3  0  0  0  0  0  0
  181.1150  175.1300  138.4200 O   0  0  0  0  0  1  0  0  0  0  0  0
  1  4  1  1  0  0  0
  2 12  1  6  0  0  0
  2  1  1  0  0  0  0
  3 10  1  0  0  0  0
  5 11  1  1  0  0  0
  5  6  1  0  0  0  0
  6 10  1  0  0  0  0
  6  2  1  0  0  0  0
  7  9  2  0  0  0  0
  8  5  1  0  0  0  0
  8  3  1  0  0  0  0
  9  1  1  0  0  0  0
 10  7  1  0  0  0  0
 12 14  2  0  0  0  0
 13 12  1  0  0  0  0
 15 13  1  0  0  0  0
 15 19  1  0  0  0  0
 16 22  1  0  0  0  0
 17 22  2  0  0  0  0
 18 19  1  0  0  0  0
 18 20  2  0  0  0  0
 19 16  2  0  0  0  0
 20 17  1  0  0  0  0
 22 21  1  0  0  0  0
 23 24  1  0  0  0  0
 24 28  2  0  0  0  0
 25 26  2  0  0  0  0
 26 28  1  0  0  0  0
 27 23  2  0  0  0  0
 27 25  1  0  0  0  0
 28 15  1  0  0  0  0
 29 30  1  0  0  0  0
 29  8  1  0  0  0  0
 32 35  1  0  0  0  0
 32 31  2  0  0  0  0
 34 35  1  0  0  0  0
 34 33  1  0  0  0  0
 35 30  1  0  0  0  0
 36 37  2  0  0  0  0
 36 34  1  0  0  0  0
 37 32  1  0  0  0  0
 38 39  2  0  0  0  0
 39 34  1  0  0  0  0
 39 40  1  0  0  0  0
 41 42  1  0  0  0  0
 41 40  1  0  0  0  0
 42 45  1  0  0  0  0
 43 42  1  0  0  0  0
 44 45  1  0  0  0  0
 45 46  1  0  0  0  0
M  END
>  <MODEL>
9

>  <REMARK>
 VINA RESULT:      -6.0      2.729      6.008
  Name = 
  12 active torsions:
  status: ('A' for Active; 'I' for Inactive)
    1  A    between atoms: C_7  and  C_14
    2  A    between atoms: C_9  and  C_12
    3  A    between atoms: C_9  and  C_28
    4  A    between atoms: C_10  and  C_26
    5  A    between atoms: C_10  and  O_38
    6  A    between atoms: C_12  and  N_29
    7  A    between atoms: C_16  and  C_46
    8  A    between atoms: C_22  and  C_26
    9  A    between atoms: N_23  and  C_46
   10  A    between atoms: C_24  and  C_39
   11  A    between atoms: O_38  and  C_39
   12  A    between atoms: C_43  and  C_46
                            x       y       z     vdW  Elec       q    Type
                         _______ _______ _______ _____ _____    ______ ____

>  <TORSDO>
F 12

$$$$
