=
 OpenBabel11062415373D

 35 39  0  0  1  0  0  0  0  0999 V2000
  184.3220  179.3370  145.5780 C   0  0  0  0  0  3  0  0  0  0  0  0
  186.0150  177.9280  144.5820 C   0  0  0  0  0  0  0  0  0  0  0  0
  186.2950  178.7750  146.8040 N   0  0  0  0  0  0  0  0  0  0  0  0
  184.0620  178.4740  143.3320 C   0  0  0  0  0  0  0  0  0  0  0  0
  187.2590  177.2780  144.6990 C   0  0  0  0  0  0  0  0  0  0  0  0
  185.5510  178.6840  145.6730 C   0  0  0  0  0  0  0  0  0  0  0  0
  187.4920  178.1400  146.8980 C   0  0  0  0  0  3  0  0  0  0  0  0
  183.5720  179.2340  144.4040 C   0  0  0  0  0  3  0  0  0  0  0  0
  187.9610  177.4030  145.8570 N   0  0  0  0  0  0  0  0  0  0  0  0
  185.2630  177.8440  143.4510 N   0  0  0  0  0  0  0  0  0  0  0  0
  183.8420  177.7820  140.8940 C   0  0  0  0  0  2  0  0  0  0  0  0
  183.7740  180.1590  139.3210 O   0  0  0  0  0  1  0  0  0  0  0  0
  181.9540  178.8480  141.9850 C   0  0  0  0  0  2  0  0  0  0  0  0
  180.8540  179.7160  139.9260 C   0  0  0  0  0  2  0  0  0  0  0  0
  183.3120  178.3550  142.1150 N   0  0  0  0  0  0  0  0  0  0  0  0
  182.1560  179.3310  137.7600 C   0  0  0  0  0  2  0  0  0  0  0  0
  180.1700  180.6690  137.8430 O   0  0  0  0  0  1  0  0  0  0  0  0
  182.7750  178.0090  139.8350 C   0  0  2  0  0  3  0  0  0  0  0  0
  183.2710  178.9830  138.7520 C   0  0  2  0  0  3  0  0  0  0  0  0
  181.5110  178.4970  140.5790 C   0  0  1  0  0  0  0  0  0  0  0  0
  180.7800  179.5510  138.4080 C   0  0  2  0  0  3  0  0  0  0  0  0
  180.5100  177.3580  140.6560 C   0  0  0  0  0  1  0  0  0  0  0  0
  189.0920  177.2390  141.7570 N   0  0  0  0  0  0  0  0  0  0  0  0
  190.6480  178.1140  140.2530 O   0  0  0  0  0  0  0  0  0  0  0  0
  187.8450  176.4330  143.6010 C   0  0  2  0  0  3  0  0  0  0  0  0
  189.3210  176.1250  143.8420 C   0  0  0  0  0  2  0  0  0  0  0  0
  187.7350  177.1220  142.2530 C   0  0  0  0  0  2  0  0  0  0  0  0
  189.4360  177.9780  140.5740 C   0  0  0  0  0  0  0  0  0  0  0  0
  190.0830  176.6450  142.6350 C   0  0  1  0  0  3  0  0  0  0  0  0
  190.7090  175.5790  141.9880 O   0  0  0  0  0  1  0  0  0  0  0  0
  188.3700  178.5410  139.6830 C   0  0  0  0  0  2  0  0  0  0  0  0
  188.0720  179.2150  136.9020 O   0  0  0  0  0  0  0  0  0  0  0  0
  188.9070  178.5240  137.9550 P   0  0  0  0  0  0  0  0  0  0  0  0
  190.0860  177.4690  137.3630 O   0  0  0  0  0  0  0  0  0  0  0  0
  187.8230  177.5680  138.9320 O   0  0  0  0  0  0  0  0  0  0  0  0
  1  6  1  0  0  0  0
  2  5  2  0  0  0  0
  2  6  1  0  0  0  0
  3  7  1  0  0  0  0
  4 10  2  0  0  0  0
  4  8  1  0  0  0  0
  5  9  1  0  0  0  0
  6  3  2  0  0  0  0
  8  1  2  0  0  0  0
  9  7  2  0  0  0  0
 10  2  1  0  0  0  0
 11 15  1  0  0  0  0
 13 15  1  0  0  0  0
 14 20  1  0  0  0  0
 15  4  1  0  0  0  0
 16 21  1  0  0  0  0
 16 19  1  0  0  0  0
 18 20  1  0  0  0  0
 18 11  1  1  0  0  0
 19 12  1  1  0  0  0
 19 18  1  0  0  0  0
 20 22  1  1  0  0  0
 20 13  1  0  0  0  0
 21 17  1  6  0  0  0
 21 14  1  0  0  0  0
 23 27  1  0  0  0  0
 23 29  1  0  0  0  0
 24 28  2  0  0  0  0
 25 26  1  0  0  0  0
 25  5  1  1  0  0  0
 27 25  1  0  0  0  0
 28 23  1  0  0  0  0
 29 30  1  6  0  0  0
 29 26  1  0  0  0  0
 31 28  1  0  0  0  0
 32 33  2  0  0  0  0
 33 35  1  0  0  0  0
 34 33  2  0  0  0  0
 35 31  1  0  0  0  0
M  END
>  <MODEL>
1

>  <REMARK>
 VINA RESULT:      -8.3      0.000      0.000
  Name = 
  3 active torsions:
  status: ('A' for Active; 'I' for Inactive)
    1  A    between atoms: C_3  and  C_17
    2  A    between atoms: C_5  and  C_24
    3  A    between atoms: N_13  and  C_21
                            x       y       z     vdW  Elec       q    Type
                         _______ _______ _______ _____ _____    ______ ____

>  <TORSDO>
F 3

$$$$
=
 OpenBabel11062415373D

 35 39  0  0  1  0  0  0  0  0999 V2000
  189.2020  176.6350  137.8370 C   0  0  0  0  0  3  0  0  0  0  0  0
  187.2910  177.7650  138.7940 C   0  0  0  0  0  0  0  0  0  0  0  0
  187.2440  177.0130  136.5210 N   0  0  0  0  0  0  0  0  0  0  0  0
  189.2310  177.4070  140.1300 C   0  0  0  0  0  0  0  0  0  0  0  0
  185.9840  178.2620  138.6320 C   0  0  0  0  0  0  0  0  0  0  0  0
  187.9070  177.1330  137.6990 C   0  0  0  0  0  0  0  0  0  0  0  0
  185.9830  177.4990  136.3840 C   0  0  0  0  0  3  0  0  0  0  0  0
  189.8700  176.7710  139.0560 C   0  0  0  0  0  3  0  0  0  0  0  0
  185.3660  178.1120  137.4290 N   0  0  0  0  0  0  0  0  0  0  0  0
  187.9650  177.8830  139.9710 N   0  0  0  0  0  0  0  0  0  0  0  0
  191.2610  177.1390  141.6400 C   0  0  0  0  0  2  0  0  0  0  0  0
  190.6660  175.0960  143.5380 O   0  0  0  0  0  1  0  0  0  0  0  0
  189.2380  178.1170  142.5580 C   0  0  0  0  0  2  0  0  0  0  0  0
  189.6850  177.5730  144.9470 C   0  0  0  0  0  2  0  0  0  0  0  0
  189.8960  177.5610  141.3920 N   0  0  0  0  0  0  0  0  0  0  0  0
  191.7830  176.1720  145.3620 C   0  0  0  0  0  2  0  0  0  0  0  0
  190.2170  176.6840  147.1020 O   0  0  0  0  0  1  0  0  0  0  0  0
  191.4890  177.3400  143.1300 C   0  0  2  0  0  3  0  0  0  0  0  0
  191.6950  175.9930  143.8430 C   0  0  2  0  0  3  0  0  0  0  0  0
  190.2810  178.1460  143.6570 C   0  0  1  0  0  0  0  0  0  0  0  0
  190.7860  177.1920  145.9360 C   0  0  2  0  0  3  0  0  0  0  0  0
  190.7060  179.5850  143.8870 C   0  0  0  0  0  1  0  0  0  0  0  0
  182.8780  179.2310  139.8290 N   0  0  0  0  0  0  0  0  0  0  0  0
  180.5550  179.0600  139.9910 O   0  0  0  0  0  0  0  0  0  0  0  0
  185.2260  178.9420  139.7390 C   0  0  2  0  0  3  0  0  0  0  0  0
  184.6520  177.9410  140.7390 C   0  0  0  0  0  2  0  0  0  0  0  0
  184.0690  179.7620  139.1960 C   0  0  0  0  0  2  0  0  0  0  0  0
  181.5480  179.6320  139.4640 C   0  0  0  0  0  0  0  0  0  0  0  0
  183.1510  178.1660  140.7770 C   0  0  1  0  0  3  0  0  0  0  0  0
  182.7740  178.5670  142.0590 O   0  0  0  0  0  1  0  0  0  0  0  0
  181.3230  180.7630  138.5040 C   0  0  0  0  0  2  0  0  0  0  0  0
  180.7520  181.0810  135.7030 O   0  0  0  0  0  0  0  0  0  0  0  0
  180.8470  180.1340  136.8760 P   0  0  0  0  0  0  0  0  0  0  0  0
  180.1310  178.6210  136.6410 O   0  0  0  0  0  0  0  0  0  0  0  0
  180.0150  180.8800  138.2150 O   0  0  0  0  0  0  0  0  0  0  0  0
  1  8  1  0  0  0  0
  2 10  2  0  0  0  0
  3  6  1  0  0  0  0
  4 15  1  0  0  0  0
  5  2  1  0  0  0  0
  6  1  2  0  0  0  0
  6  2  1  0  0  0  0
  7  3  2  0  0  0  0
  7  9  1  0  0  0  0
  8  4  2  0  0  0  0
  9  5  2  0  0  0  0
 10  4  1  0  0  0  0
 13 20  1  0  0  0  0
 14 21  1  0  0  0  0
 15 11  1  0  0  0  0
 15 13  1  0  0  0  0
 16 21  1  0  0  0  0
 18 11  1  6  0  0  0
 18 20  1  0  0  0  0
 18 19  1  0  0  0  0
 19 12  1  1  0  0  0
 19 16  1  0  0  0  0
 20 22  1  1  0  0  0
 20 14  1  0  0  0  0
 21 17  1  1  0  0  0
 23 29  1  0  0  0  0
 25  5  1  6  0  0  0
 25 26  1  0  0  0  0
 26 29  1  0  0  0  0
 27 25  1  0  0  0  0
 27 23  1  0  0  0  0
 28 23  1  0  0  0  0
 28 24  2  0  0  0  0
 29 30  1  1  0  0  0
 31 28  1  0  0  0  0
 32 33  2  0  0  0  0
 33 35  1  0  0  0  0
 34 33  2  0  0  0  0
 35 31  1  0  0  0  0
M  END
>  <MODEL>
2

>  <REMARK>
 VINA RESULT:      -8.3      3.650      8.844
  Name = 
  3 active torsions:
  status: ('A' for Active; 'I' for Inactive)
    1  A    between atoms: C_3  and  C_17
    2  A    between atoms: C_5  and  C_24
    3  A    between atoms: N_13  and  C_21
                            x       y       z     vdW  Elec       q    Type
                         _______ _______ _______ _____ _____    ______ ____

>  <TORSDO>
F 3

$$$$
=
 OpenBabel11062415373D

 35 39  0  0  1  0  0  0  0  0999 V2000
  183.4560  179.2270  144.6110 C   0  0  0  0  0  3  0  0  0  0  0  0
  183.4090  178.5020  142.3050 C   0  0  0  0  0  0  0  0  0  0  0  0
  181.4720  179.4910  143.3050 N   0  0  0  0  0  0  0  0  0  0  0  0
  185.4000  178.2190  143.5820 C   0  0  0  0  0  0  0  0  0  0  0  0
  182.6880  178.3630  141.1040 C   0  0  0  0  0  0  0  0  0  0  0  0
  182.7610  179.0810  143.4110 C   0  0  0  0  0  0  0  0  0  0  0  0
  180.7930  179.3500  142.1370 C   0  0  0  0  0  3  0  0  0  0  0  0
  184.7810  178.7950  144.7010 C   0  0  0  0  0  3  0  0  0  0  0  0
  181.3990  178.7940  141.0550 N   0  0  0  0  0  0  0  0  0  0  0  0
  184.7010  178.0910  142.4210 N   0  0  0  0  0  0  0  0  0  0  0  0
  187.2150  176.7150  144.5390 C   0  0  0  0  0  2  0  0  0  0  0  0
  188.9100  178.3280  146.1680 O   0  0  0  0  0  1  0  0  0  0  0  0
  187.8200  178.3600  142.8600 C   0  0  0  0  0  2  0  0  0  0  0  0
  190.2280  178.5530  143.4670 C   0  0  0  0  0  2  0  0  0  0  0  0
  186.7590  177.7660  143.6500 N   0  0  0  0  0  0  0  0  0  0  0  0
  190.9340  177.2180  145.5290 C   0  0  0  0  0  2  0  0  0  0  0  0
  192.4070  178.7550  144.4310 O   0  0  0  0  0  1  0  0  0  0  0  0
  188.7280  176.6820  144.3960 C   0  0  2  0  0  3  0  0  0  0  0  0
  189.4150  177.1080  145.7050 C   0  0  2  0  0  3  0  0  0  0  0  0
  189.0780  177.5810  143.1880 C   0  0  1  0  0  0  0  0  0  0  0  0
  191.3720  177.8510  144.1990 C   0  0  2  0  0  3  0  0  0  0  0  0
  189.4280  176.7020  142.0000 C   0  0  0  0  0  1  0  0  0  0  0  0
  182.0810  176.7030  138.1220 N   0  0  0  0  0  0  0  0  0  0  0  0
  180.7420  176.0760  136.3150 O   0  0  0  0  0  0  0  0  0  0  0  0
  183.2860  177.7710  139.8570 C   0  0  2  0  0  3  0  0  0  0  0  0
  183.1970  178.7260  138.6690 C   0  0  0  0  0  2  0  0  0  0  0  0
  182.5840  176.4840  139.4630 C   0  0  0  0  0  2  0  0  0  0  0  0
  181.2160  175.7770  137.4440 C   0  0  0  0  0  0  0  0  0  0  0  0
  182.4300  178.0020  137.5770 C   0  0  1  0  0  3  0  0  0  0  0  0
  183.2530  177.8410  136.4620 O   0  0  0  0  0  1  0  0  0  0  0  0
  180.9160  174.4320  138.0380 C   0  0  0  0  0  2  0  0  0  0  0  0
  179.6500  173.3970  140.4040 O   0  0  0  0  0  0  0  0  0  0  0  0
  179.9150  174.6040  139.5350 P   0  0  0  0  0  0  0  0  0  0  0  0
  178.9340  175.9450  139.8430 O   0  0  0  0  0  0  0  0  0  0  0  0
  179.6140  174.1310  137.8840 O   0  0  0  0  0  0  0  0  0  0  0  0
  1  8  1  0  0  0  0
  2 10  2  0  0  0  0
  2  6  1  0  0  0  0
  3  6  1  0  0  0  0
  4 15  1  0  0  0  0
  4  8  2  0  0  0  0
  5  2  1  0  0  0  0
  6  1  2  0  0  0  0
  7  3  2  0  0  0  0
  9  5  2  0  0  0  0
  9  7  1  0  0  0  0
 10  4  1  0  0  0  0
 13 20  1  0  0  0  0
 13 15  1  0  0  0  0
 14 21  1  0  0  0  0
 15 11  1  0  0  0  0
 16 19  1  0  0  0  0
 18 11  1  1  0  0  0
 18 19  1  0  0  0  0
 19 12  1  6  0  0  0
 20 22  1  6  0  0  0
 20 14  1  0  0  0  0
 20 18  1  0  0  0  0
 21 17  1  1  0  0  0
 21 16  1  0  0  0  0
 23 27  1  0  0  0  0
 24 28  2  0  0  0  0
 25  5  1  1  0  0  0
 26 25  1  0  0  0  0
 27 25  1  0  0  0  0
 28 31  1  0  0  0  0
 28 23  1  0  0  0  0
 29 30  1  6  0  0  0
 29 23  1  0  0  0  0
 29 26  1  0  0  0  0
 33 34  2  0  0  0  0
 33 32  2  0  0  0  0
 35 31  1  0  0  0  0
 35 33  1  0  0  0  0
M  END
>  <MODEL>
3

>  <REMARK>
 VINA RESULT:      -8.3      3.460      8.215
  Name = 
  3 active torsions:
  status: ('A' for Active; 'I' for Inactive)
    1  A    between atoms: C_3  and  C_17
    2  A    between atoms: C_5  and  C_24
    3  A    between atoms: N_13  and  C_21
                            x       y       z     vdW  Elec       q    Type
                         _______ _______ _______ _____ _____    ______ ____

>  <TORSDO>
F 3

$$$$
=
 OpenBabel11062415373D

 35 39  0  0  1  0  0  0  0  0999 V2000
  183.3480  178.7010  145.3600 C   0  0  0  0  0  3  0  0  0  0  0  0
  185.6390  178.4490  144.6300 C   0  0  0  0  0  0  0  0  0  0  0  0
  185.1110  178.5210  146.9640 N   0  0  0  0  0  0  0  0  0  0  0  0
  183.9050  178.6320  143.0060 C   0  0  0  0  0  0  0  0  0  0  0  0
  186.9990  178.3050  144.9670 C   0  0  0  0  0  0  0  0  0  0  0  0
  184.7000  178.5570  145.6710 C   0  0  0  0  0  0  0  0  0  0  0  0
  186.4270  178.3810  147.2690 C   0  0  0  0  0  3  0  0  0  0  0  0
  182.9450  178.7400  144.0240 C   0  0  0  0  0  3  0  0  0  0  0  0
  187.3530  178.2740  146.2800 N   0  0  0  0  0  0  0  0  0  0  0  0
  185.2180  178.4890  143.3360 N   0  0  0  0  0  0  0  0  0  0  0  0
  182.1590  178.4620  141.1650 C   0  0  0  0  0  2  0  0  0  0  0  0
  182.6310  176.0350  139.7440 O   0  0  0  0  0  1  0  0  0  0  0  0
  184.4710  178.8790  140.5540 C   0  0  0  0  0  2  0  0  0  0  0  0
  184.3420  177.9990  138.2270 C   0  0  0  0  0  2  0  0  0  0  0  0
  183.5170  178.6710  141.6260 N   0  0  0  0  0  0  0  0  0  0  0  0
  182.1010  176.9450  137.5930 C   0  0  0  0  0  2  0  0  0  0  0  0
  184.0180  176.8430  136.1590 O   0  0  0  0  0  1  0  0  0  0  0  0
  182.2410  178.4270  139.6470 C   0  0  2  0  0  3  0  0  0  0  0  0
  181.8830  177.0310  139.1070 C   0  0  2  0  0  3  0  0  0  0  0  0
  183.6650  178.8930  139.2700 C   0  0  1  0  0  0  0  0  0  0  0  0
  183.3740  177.6480  137.0970 C   0  0  2  0  0  3  0  0  0  0  0  0
  183.6000  180.3200  138.7540 C   0  0  0  0  0  1  0  0  0  0  0  0
  189.8830  176.6310  144.0210 N   0  0  0  0  0  0  0  0  0  0  0  0
  191.3300  174.7990  144.0190 O   0  0  0  0  0  0  0  0  0  0  0  0
  188.0850  178.1690  143.9360 C   0  0  2  0  0  3  0  0  0  0  0  0
  187.8010  177.0360  142.9520 C   0  0  0  0  0  2  0  0  0  0  0  0
  189.4300  177.8880  144.5810 C   0  0  0  0  0  2  0  0  0  0  0  0
  191.0480  175.9340  144.4900 C   0  0  0  0  0  0  0  0  0  0  0  0
  188.9790  176.0800  143.0270 C   0  0  1  0  0  3  0  0  0  0  0  0
  189.6150  176.0300  141.7870 O   0  0  0  0  0  1  0  0  0  0  0  0
  191.9670  176.5650  145.4930 C   0  0  0  0  0  2  0  0  0  0  0  0
  191.8070  177.5310  148.1980 O   0  0  0  0  0  0  0  0  0  0  0  0
  191.1390  176.7500  147.0910 P   0  0  0  0  0  0  0  0  0  0  0  0
  189.8300  175.7950  147.5710 O   0  0  0  0  0  0  0  0  0  0  0  0
  192.3330  175.6680  146.4260 O   0  0  0  0  0  0  0  0  0  0  0  0
  1  6  1  0  0  0  0
  2  5  2  0  0  0  0
  2  6  1  0  0  0  0
  3  7  1  0  0  0  0
  4 10  2  0  0  0  0
  4  8  1  0  0  0  0
  5  9  1  0  0  0  0
  6  3  2  0  0  0  0
  8  1  2  0  0  0  0
  9  7  2  0  0  0  0
 10  2  1  0  0  0  0
 11 15  1  0  0  0  0
 13 15  1  0  0  0  0
 14 20  1  0  0  0  0
 15  4  1  0  0  0  0
 16 19  1  0  0  0  0
 18 11  1  1  0  0  0
 19 18  1  0  0  0  0
 19 12  1  1  0  0  0
 20 22  1  6  0  0  0
 20 18  1  0  0  0  0
 20 13  1  0  0  0  0
 21 17  1  6  0  0  0
 21 16  1  0  0  0  0
 21 14  1  0  0  0  0
 23 28  1  0  0  0  0
 23 27  1  0  0  0  0
 24 28  2  0  0  0  0
 25 27  1  0  0  0  0
 25  5  1  1  0  0  0
 26 29  1  0  0  0  0
 26 25  1  0  0  0  0
 28 31  1  0  0  0  0
 29 30  1  6  0  0  0
 29 23  1  0  0  0  0
 31 35  1  0  0  0  0
 33 34  2  0  0  0  0
 33 32  2  0  0  0  0
 35 33  1  0  0  0  0
M  END
>  <MODEL>
4

>  <REMARK>
 VINA RESULT:      -8.2      2.887      4.439
  Name = 
  3 active torsions:
  status: ('A' for Active; 'I' for Inactive)
    1  A    between atoms: C_3  and  C_17
    2  A    between atoms: C_5  and  C_24
    3  A    between atoms: N_13  and  C_21
                            x       y       z     vdW  Elec       q    Type
                         _______ _______ _______ _____ _____    ______ ____

>  <TORSDO>
F 3

$$$$
=
 OpenBabel11062415373D

 35 39  0  0  1  0  0  0  0  0999 V2000
  184.2110  179.5140  145.2150 C   0  0  0  0  0  3  0  0  0  0  0  0
  185.9210  178.0230  144.3790 C   0  0  0  0  0  0  0  0  0  0  0  0
  185.9740  178.7780  146.6500 N   0  0  0  0  0  0  0  0  0  0  0  0
  184.1800  178.7420  142.9210 C   0  0  0  0  0  0  0  0  0  0  0  0
  187.0950  177.2850  144.6220 C   0  0  0  0  0  0  0  0  0  0  0  0
  185.3730  178.7750  145.4340 C   0  0  0  0  0  0  0  0  0  0  0  0
  187.1070  178.0590  146.8660 C   0  0  0  0  0  3  0  0  0  0  0  0
  183.6090  179.5000  143.9550 C   0  0  0  0  0  3  0  0  0  0  0  0
  187.6540  177.3240  145.8620 N   0  0  0  0  0  0  0  0  0  0  0  0
  185.3130  178.0270  143.1620 N   0  0  0  0  0  0  0  0  0  0  0  0
  182.1980  178.3590  141.3740 C   0  0  0  0  0  2  0  0  0  0  0  0
  182.6940  175.9640  139.9070 O   0  0  0  0  0  1  0  0  0  0  0  0
  184.3320  178.9960  140.4100 C   0  0  0  0  0  2  0  0  0  0  0  0
  183.9380  178.0610  138.1350 C   0  0  0  0  0  2  0  0  0  0  0  0
  183.5820  178.7140  141.6180 N   0  0  0  0  0  0  0  0  0  0  0  0
  181.7480  176.7720  137.8600 C   0  0  0  0  0  2  0  0  0  0  0  0
  183.4210  176.8370  136.1470 O   0  0  0  0  0  1  0  0  0  0  0  0
  182.0480  178.3020  139.8610 C   0  0  2  0  0  3  0  0  0  0  0  0
  181.7580  176.8660  139.3890 C   0  0  2  0  0  3  0  0  0  0  0  0
  183.3410  178.9030  139.2670 C   0  0  1  0  0  0  0  0  0  0  0  0
  182.8500  177.5910  137.1700 C   0  0  2  0  0  3  0  0  0  0  0  0
  183.0510  180.3050  138.7610 C   0  0  0  0  0  1  0  0  0  0  0  0
  189.0280  177.2460  141.7440 N   0  0  0  0  0  0  0  0  0  0  0  0
  190.5910  178.1500  140.2650 O   0  0  0  0  0  0  0  0  0  0  0  0
  187.7590  176.4370  143.5720 C   0  0  2  0  0  3  0  0  0  0  0  0
  189.2390  176.2090  143.8700 C   0  0  0  0  0  2  0  0  0  0  0  0
  187.6620  177.0780  142.1990 C   0  0  0  0  0  2  0  0  0  0  0  0
  189.3770  177.9650  140.5510 C   0  0  0  0  0  0  0  0  0  0  0  0
  190.0160  176.7280  142.6730 C   0  0  1  0  0  3  0  0  0  0  0  0
  190.7140  175.6750  142.0820 O   0  0  0  0  0  1  0  0  0  0  0  0
  188.3160  178.4470  139.6070 C   0  0  0  0  0  2  0  0  0  0  0  0
  188.0990  179.0790  136.8090 O   0  0  0  0  0  0  0  0  0  0  0  0
  188.9300  178.4550  137.9050 P   0  0  0  0  0  0  0  0  0  0  0  0
  190.2040  177.4790  137.3770 O   0  0  0  0  0  0  0  0  0  0  0  0
  187.8710  177.4340  138.8420 O   0  0  0  0  0  0  0  0  0  0  0  0
  1  6  1  0  0  0  0
  2  5  2  0  0  0  0
  2  6  1  0  0  0  0
  3  7  1  0  0  0  0
  4 10  2  0  0  0  0
  4  8  1  0  0  0  0
  5  9  1  0  0  0  0
  6  3  2  0  0  0  0
  8  1  2  0  0  0  0
  9  7  2  0  0  0  0
 10  2  1  0  0  0  0
 11 15  1  0  0  0  0
 13 15  1  0  0  0  0
 14 20  1  0  0  0  0
 15  4  1  0  0  0  0
 16 19  1  0  0  0  0
 18 11  1  1  0  0  0
 19 18  1  0  0  0  0
 19 12  1  1  0  0  0
 20 22  1  6  0  0  0
 20 18  1  0  0  0  0
 20 13  1  0  0  0  0
 21 17  1  6  0  0  0
 21 16  1  0  0  0  0
 21 14  1  0  0  0  0
 23 27  1  0  0  0  0
 23 29  1  0  0  0  0
 24 28  2  0  0  0  0
 25 26  1  0  0  0  0
 25  5  1  1  0  0  0
 27 25  1  0  0  0  0
 28 23  1  0  0  0  0
 29 30  1  6  0  0  0
 29 26  1  0  0  0  0
 31 28  1  0  0  0  0
 32 33  2  0  0  0  0
 33 35  1  0  0  0  0
 34 33  2  0  0  0  0
 35 31  1  0  0  0  0
M  END
>  <MODEL>
5

>  <REMARK>
 VINA RESULT:      -8.2      1.399      1.884
  Name = 
  3 active torsions:
  status: ('A' for Active; 'I' for Inactive)
    1  A    between atoms: C_3  and  C_17
    2  A    between atoms: C_5  and  C_24
    3  A    between atoms: N_13  and  C_21
                            x       y       z     vdW  Elec       q    Type
                         _______ _______ _______ _____ _____    ______ ____

>  <TORSDO>
F 3

$$$$
=
 OpenBabel11062415373D

 35 39  0  0  1  0  0  0  0  0999 V2000
  188.6460  176.7570  143.4320 C   0  0  0  0  0  3  0  0  0  0  0  0
  186.6170  178.0710  143.4540 C   0  0  0  0  0  0  0  0  0  0  0  0
  187.4730  177.1280  145.4810 N   0  0  0  0  0  0  0  0  0  0  0  0
  187.7600  177.7150  141.3950 C   0  0  0  0  0  0  0  0  0  0  0  0
  185.5510  178.6230  144.1900 C   0  0  0  0  0  0  0  0  0  0  0  0
  187.5820  177.3130  144.1420 C   0  0  0  0  0  0  0  0  0  0  0  0
  186.4370  177.6690  146.1740 C   0  0  0  0  0  3  0  0  0  0  0  0
  188.7390  176.9560  142.0530 C   0  0  0  0  0  3  0  0  0  0  0  0
  185.4930  178.4060  145.5310 N   0  0  0  0  0  0  0  0  0  0  0  0
  186.7330  178.2500  142.1100 N   0  0  0  0  0  0  0  0  0  0  0  0
  186.6690  178.0140  139.1160 C   0  0  0  0  0  2  0  0  0  0  0  0
  187.1820  175.6590  137.5930 O   0  0  0  0  0  1  0  0  0  0  0  0
  189.0920  178.0410  139.2690 C   0  0  0  0  0  2  0  0  0  0  0  0
  189.5600  177.3820  136.9130 C   0  0  0  0  0  2  0  0  0  0  0  0
  187.8310  177.9320  139.9790 N   0  0  0  0  0  0  0  0  0  0  0  0
  187.4940  176.8140  135.5180 C   0  0  0  0  0  2  0  0  0  0  0  0
  189.7230  176.4700  134.7090 O   0  0  0  0  0  1  0  0  0  0  0  0
  187.2130  178.0810  137.6980 C   0  0  2  0  0  3  0  0  0  0  0  0
  186.8320  176.8220  136.9000 C   0  0  2  0  0  3  0  0  0  0  0  0
  188.7370  178.3040  137.8190 C   0  0  1  0  0  0  0  0  0  0  0  0
  188.9510  177.3050  135.5130 C   0  0  2  0  0  3  0  0  0  0  0  0
  189.0560  179.7530  137.4970 C   0  0  0  0  0  1  0  0  0  0  0  0
  182.7780  178.6640  142.1090 N   0  0  0  0  0  0  0  0  0  0  0  0
  180.9390  177.6810  141.0600 O   0  0  0  0  0  0  0  0  0  0  0  0
  184.4710  179.4600  143.5600 C   0  0  2  0  0  3  0  0  0  0  0  0
  183.1600  179.3850  144.3390 C   0  0  0  0  0  2  0  0  0  0  0  0
  184.1840  179.0140  142.1370 C   0  0  0  0  0  2  0  0  0  0  0  0
  182.1440  178.0430  140.9790 C   0  0  0  0  0  0  0  0  0  0  0  0
  182.1010  178.8840  143.3740 C   0  0  1  0  0  3  0  0  0  0  0  0
  181.1160  179.8600  143.2180 O   0  0  0  0  0  1  0  0  0  0  0  0
  182.8810  177.8710  139.6840 C   0  0  0  0  0  2  0  0  0  0  0  0
  183.4880  175.7310  137.8610 O   0  0  0  0  0  0  0  0  0  0  0  0
  182.6820  176.1870  139.0540 P   0  0  0  0  0  0  0  0  0  0  0  0
  181.3810  175.1920  139.4690 O   0  0  0  0  0  0  0  0  0  0  0  0
  182.0140  177.7490  138.6630 O   0  0  0  0  0  0  0  0  0  0  0  0
  1  6  1  0  0  0  0
  2  6  2  0  0  0  0
  2  5  1  0  0  0  0
  3  7  2  0  0  0  0
  4  8  1  0  0  0  0
  4 10  2  0  0  0  0
  5  9  2  0  0  0  0
  6  3  1  0  0  0  0
  8  1  2  0  0  0  0
  9  7  1  0  0  0  0
 10  2  1  0  0  0  0
 11 15  1  0  0  0  0
 13 15  1  0  0  0  0
 14 20  1  0  0  0  0
 15  4  1  0  0  0  0
 16 19  1  0  0  0  0
 18 20  1  0  0  0  0
 18 11  1  1  0  0  0
 19 12  1  1  0  0  0
 19 18  1  0  0  0  0
 20 22  1  6  0  0  0
 20 13  1  0  0  0  0
 21 17  1  6  0  0  0
 21 16  1  0  0  0  0
 21 14  1  0  0  0  0
 23 27  1  0  0  0  0
 23 29  1  0  0  0  0
 25  5  1  1  0  0  0
 25 26  1  0  0  0  0
 27 25  1  0  0  0  0
 28 24  2  0  0  0  0
 28 23  1  0  0  0  0
 29 30  1  6  0  0  0
 29 26  1  0  0  0  0
 31 28  1  0  0  0  0
 32 33  2  0  0  0  0
 33 34  2  0  0  0  0
 35 33  1  0  0  0  0
 35 31  1  0  0  0  0
M  END
>  <MODEL>
6

>  <REMARK>
 VINA RESULT:      -7.7      2.782      6.456
  Name = 
  3 active torsions:
  status: ('A' for Active; 'I' for Inactive)
    1  A    between atoms: C_3  and  C_17
    2  A    between atoms: C_5  and  C_24
    3  A    between atoms: N_13  and  C_21
                            x       y       z     vdW  Elec       q    Type
                         _______ _______ _______ _____ _____    ______ ____

>  <TORSDO>
F 3

$$$$
=
 OpenBabel11062415373D

 35 39  0  0  1  0  0  0  0  0999 V2000
  193.2760  176.1840  137.6360 C   0  0  0  0  0  3  0  0  0  0  0  0
  191.2860  174.8440  137.3390 C   0  0  0  0  0  0  0  0  0  0  0  0
  193.1250  174.6370  135.8210 N   0  0  0  0  0  0  0  0  0  0  0  0
  191.4030  176.3810  139.1560 C   0  0  0  0  0  0  0  0  0  0  0  0
  190.5950  173.8660  136.5980 C   0  0  0  0  0  0  0  0  0  0  0  0
  192.5750  175.2170  136.9170 C   0  0  0  0  0  0  0  0  0  0  0  0
  192.4440  173.6950  135.1190 C   0  0  0  0  0  3  0  0  0  0  0  0
  192.6910  176.7710  138.7600 C   0  0  0  0  0  3  0  0  0  0  0  0
  191.1970  173.3180  135.5080 N   0  0  0  0  0  0  0  0  0  0  0  0
  190.7410  175.4320  138.4390 N   0  0  0  0  0  0  0  0  0  0  0  0
  191.5150  177.5100  141.4320 C   0  0  0  0  0  2  0  0  0  0  0  0
  190.6230  175.6280  143.3790 O   0  0  0  0  0  1  0  0  0  0  0  0
  189.3400  177.0370  140.4630 C   0  0  0  0  0  2  0  0  0  0  0  0
  188.0530  176.9940  142.5950 C   0  0  0  0  0  2  0  0  0  0  0  0
  190.7800  176.9710  140.3050 N   0  0  0  0  0  0  0  0  0  0  0  0
  189.4600  177.2410  144.7140 C   0  0  0  0  0  2  0  0  0  0  0  0
  187.1220  176.7260  144.7810 O   0  0  0  0  0  1  0  0  0  0  0  0
  190.4660  177.8720  142.4720 C   0  0  2  0  0  3  0  0  0  0  0  0
  190.5990  176.9840  143.7220 C   0  0  2  0  0  3  0  0  0  0  0  0
  189.0930  177.7600  141.7730 C   0  0  1  0  0  0  0  0  0  0  0  0
  188.0830  177.4300  144.0600 C   0  0  2  0  0  3  0  0  0  0  0  0
  188.5760  179.1540  141.4670 C   0  0  0  0  0  1  0  0  0  0  0  0
  187.1800  174.3390  136.2330 N   0  0  0  0  0  0  0  0  0  0  0  0
  185.2860  175.1000  135.1010 O   0  0  0  0  0  0  0  0  0  0  0  0
  189.2190  173.3840  136.9660 C   0  0  2  0  0  3  0  0  0  0  0  0
  188.6210  172.4820  135.8890 C   0  0  0  0  0  2  0  0  0  0  0  0
  188.2620  174.5440  137.1750 C   0  0  0  0  0  2  0  0  0  0  0  0
  186.1440  175.3060  136.0030 C   0  0  0  0  0  0  0  0  0  0  0  0
  187.3130  173.1210  135.4550 C   0  0  1  0  0  3  0  0  0  0  0  0
  186.2570  172.2570  135.7460 O   0  0  0  0  0  1  0  0  0  0  0  0
  186.0320  176.5310  136.8600 C   0  0  0  0  0  2  0  0  0  0  0  0
  187.2650  179.1260  137.0160 O   0  0  0  0  0  0  0  0  0  0  0  0
  187.0730  177.8610  136.2110 P   0  0  0  0  0  0  0  0  0  0  0  0
  187.5530  177.9550  134.5940 O   0  0  0  0  0  0  0  0  0  0  0  0
  185.3670  177.5020  136.2090 O   0  0  0  0  0  0  0  0  0  0  0  0
  1  8  1  0  0  0  0
  2 10  2  0  0  0  0
  3  6  1  0  0  0  0
  4 15  1  0  0  0  0
  5  2  1  0  0  0  0
  6  2  1  0  0  0  0
  6  1  2  0  0  0  0
  7  9  1  0  0  0  0
  7  3  2  0  0  0  0
  8  4  2  0  0  0  0
  9  5  2  0  0  0  0
 10  4  1  0  0  0  0
 13 20  1  0  0  0  0
 14 21  1  0  0  0  0
 15 13  1  0  0  0  0
 15 11  1  0  0  0  0
 18 11  1  6  0  0  0
 18 19  1  0  0  0  0
 19 12  1  6  0  0  0
 19 16  1  0  0  0  0
 20 22  1  6  0  0  0
 20 18  1  0  0  0  0
 20 14  1  0  0  0  0
 21 16  1  0  0  0  0
 21 17  1  1  0  0  0
 23 27  1  0  0  0  0
 24 28  2  0  0  0  0
 25  5  1  6  0  0  0
 25 27  1  0  0  0  0
 26 25  1  0  0  0  0
 28 23  1  0  0  0  0
 28 31  1  0  0  0  0
 29 30  1  1  0  0  0
 29 26  1  0  0  0  0
 29 23  1  0  0  0  0
 33 32  2  0  0  0  0
 34 33  2  0  0  0  0
 35 33  1  0  0  0  0
 35 31  1  0  0  0  0
M  END
>  <MODEL>
7

>  <REMARK>
 VINA RESULT:      -7.3      4.516      8.700
  Name = 
  3 active torsions:
  status: ('A' for Active; 'I' for Inactive)
    1  A    between atoms: C_3  and  C_17
    2  A    between atoms: C_5  and  C_24
    3  A    between atoms: N_13  and  C_21
                            x       y       z     vdW  Elec       q    Type
                         _______ _______ _______ _____ _____    ______ ____

>  <TORSDO>
F 3

$$$$
=
 OpenBabel11062415373D

 35 39  0  0  1  0  0  0  0  0999 V2000
  186.8120  176.4740  136.2640 C   0  0  0  0  0  3  0  0  0  0  0  0
  187.9010  177.4300  138.2000 C   0  0  0  0  0  0  0  0  0  0  0  0
  189.1490  176.1280  136.6240 N   0  0  0  0  0  0  0  0  0  0  0  0
  185.5690  177.7880  137.8720 C   0  0  0  0  0  0  0  0  0  0  0  0
  189.0810  177.6120  138.9470 C   0  0  0  0  0  0  0  0  0  0  0  0
  187.9690  176.6680  137.0190 C   0  0  0  0  0  0  0  0  0  0  0  0
  190.2770  176.3160  137.3580 C   0  0  0  0  0  3  0  0  0  0  0  0
  185.6060  177.0340  136.6890 C   0  0  0  0  0  3  0  0  0  0  0  0
  190.2370  177.0490  138.5020 N   0  0  0  0  0  0  0  0  0  0  0  0
  186.7120  177.9650  138.5890 N   0  0  0  0  0  0  0  0  0  0  0  0
  184.2580  179.3090  139.4330 C   0  0  0  0  0  2  0  0  0  0  0  0
  182.7600  177.6500  141.2040 O   0  0  0  0  0  1  0  0  0  0  0  0
  183.0550  178.0340  137.7550 C   0  0  0  0  0  2  0  0  0  0  0  0
  180.8450  178.0130  138.9040 C   0  0  0  0  0  2  0  0  0  0  0  0
  184.3420  178.3710  138.3310 N   0  0  0  0  0  0  0  0  0  0  0  0
  180.8280  179.0660  141.2330 C   0  0  0  0  0  2  0  0  0  0  0  0
  178.9360  177.8990  140.3390 O   0  0  0  0  0  1  0  0  0  0  0  0
  182.7730  179.5310  139.6730 C   0  0  2  0  0  3  0  0  0  0  0  0
  182.3460  178.9770  141.0430 C   0  0  2  0  0  3  0  0  0  0  0  0
  182.0320  178.8840  138.4810 C   0  0  1  0  0  0  0  0  0  0  0  0
  180.0120  178.7080  139.9810 C   0  0  2  0  0  3  0  0  0  0  0  0
  181.5530  179.9760  137.5410 C   0  0  0  0  0  1  0  0  0  0  0  0
  188.0300  177.8670  142.2400 N   0  0  0  0  0  0  0  0  0  0  0  0
  187.2640  176.9880  144.2630 O   0  0  0  0  0  0  0  0  0  0  0  0
  189.1270  178.4180  140.2160 C   0  0  2  0  0  3  0  0  0  0  0  0
  190.1640  177.8800  141.1990 C   0  0  0  0  0  2  0  0  0  0  0  0
  187.7830  178.4160  140.9230 C   0  0  0  0  0  2  0  0  0  0  0  0
  186.9820  177.5500  143.1700 C   0  0  0  0  0  0  0  0  0  0  0  0
  189.4260  177.5510  142.4840 C   0  0  1  0  0  3  0  0  0  0  0  0
  189.9170  178.3480  143.5180 O   0  0  0  0  0  1  0  0  0  0  0  0
  185.5600  177.9310  142.8830 C   0  0  0  0  0  2  0  0  0  0  0  0
  183.2910  178.9080  144.3570 O   0  0  0  0  0  0  0  0  0  0  0  0
  184.7760  178.6280  144.3570 P   0  0  0  0  0  0  0  0  0  0  0  0
  185.6450  179.3430  145.6170 O   0  0  0  0  0  0  0  0  0  0  0  0
  185.4260  179.2690  142.8720 O   0  0  0  0  0  0  0  0  0  0  0  0
  1  8  2  0  0  0  0
  1  6  1  0  0  0  0
  2 10  1  0  0  0  0
  2  5  1  0  0  0  0
  3  6  1  0  0  0  0
  3  7  2  0  0  0  0
  4 15  1  0  0  0  0
  4 10  2  0  0  0  0
  6  2  2  0  0  0  0
  7  9  1  0  0  0  0
  8  4  1  0  0  0  0
  9  5  2  0  0  0  0
 13 15  1  0  0  0  0
 13 20  1  0  0  0  0
 14 21  1  0  0  0  0
 15 11  1  0  0  0  0
 18 11  1  6  0  0  0
 18 19  1  0  0  0  0
 19 12  1  6  0  0  0
 19 16  1  0  0  0  0
 20 22  1  6  0  0  0
 20 14  1  0  0  0  0
 20 18  1  0  0  0  0
 21 17  1  1  0  0  0
 21 16  1  0  0  0  0
 23 29  1  0  0  0  0
 23 28  1  0  0  0  0
 25  5  1  6  0  0  0
 25 27  1  0  0  0  0
 25 26  1  0  0  0  0
 26 29  1  0  0  0  0
 27 23  1  0  0  0  0
 28 24  2  0  0  0  0
 29 30  1  1  0  0  0
 31 28  1  0  0  0  0
 32 33  2  0  0  0  0
 33 34  2  0  0  0  0
 35 31  1  0  0  0  0
 35 33  1  0  0  0  0
M  END
>  <MODEL>
8

>  <REMARK>
 VINA RESULT:      -7.2      3.231      5.732
  Name = 
  3 active torsions:
  status: ('A' for Active; 'I' for Inactive)
    1  A    between atoms: C_3  and  C_17
    2  A    between atoms: C_5  and  C_24
    3  A    between atoms: N_13  and  C_21
                            x       y       z     vdW  Elec       q    Type
                         _______ _______ _______ _____ _____    ______ ____

>  <TORSDO>
F 3

$$$$
=
 OpenBabel11062415373D

 35 39  0  0  1  0  0  0  0  0999 V2000
  186.4930  178.2530  142.7750 C   0  0  0  0  0  3  0  0  0  0  0  0
  187.3520  178.2680  140.5150 C   0  0  0  0  0  0  0  0  0  0  0  0
  188.8000  177.7870  142.3600 N   0  0  0  0  0  0  0  0  0  0  0  0
  185.0490  178.7420  140.8960 C   0  0  0  0  0  0  0  0  0  0  0  0
  188.4470  178.1070  139.6450 C   0  0  0  0  0  0  0  0  0  0  0  0
  187.5640  178.0980  141.8950 C   0  0  0  0  0  0  0  0  0  0  0  0
  189.8440  177.6360  141.5040 C   0  0  0  0  0  3  0  0  0  0  0  0
  185.2290  178.5770  142.2770 C   0  0  0  0  0  3  0  0  0  0  0  0
  189.6630  177.7940  140.1670 N   0  0  0  0  0  0  0  0  0  0  0  0
  186.1090  178.5810  140.0580 N   0  0  0  0  0  0  0  0  0  0  0  0
  182.5280  179.0030  141.1210 C   0  0  0  0  0  2  0  0  0  0  0  0
  181.3020  176.9110  139.6190 O   0  0  0  0  0  1  0  0  0  0  0  0
  183.5700  179.4760  138.9800 C   0  0  0  0  0  2  0  0  0  0  0  0
  181.5560  179.1010  137.5640 C   0  0  0  0  0  2  0  0  0  0  0  0
  183.7610  179.0760  140.3610 N   0  0  0  0  0  0  0  0  0  0  0  0
  179.4930  178.2610  138.8180 C   0  0  0  0  0  2  0  0  0  0  0  0
  179.5690  178.4080  136.4280 O   0  0  0  0  0  1  0  0  0  0  0  0
  181.4130  179.2810  140.1250 C   0  0  2  0  0  3  0  0  0  0  0  0
  180.5300  178.0370  139.9240 C   0  0  2  0  0  3  0  0  0  0  0  0
  182.0920  179.7780  138.8290 C   0  0  1  0  0  0  0  0  0  0  0  0
  180.0300  179.0180  137.5930 C   0  0  2  0  0  3  0  0  0  0  0  0
  181.9130  181.2810  138.7190 C   0  0  0  0  0  1  0  0  0  0  0  0
  189.2510  176.7750  136.5470 N   0  0  0  0  0  0  0  0  0  0  0  0
  189.8310  175.0290  135.1100 O   0  0  0  0  0  0  0  0  0  0  0  0
  188.3310  178.2520  138.1520 C   0  0  2  0  0  3  0  0  0  0  0  0
  187.2050  177.3950  137.5790 C   0  0  0  0  0  2  0  0  0  0  0  0
  189.6170  177.8440  137.4540 C   0  0  0  0  0  2  0  0  0  0  0  0
  190.2150  176.0050  135.8100 C   0  0  0  0  0  0  0  0  0  0  0  0
  187.8320  176.4730  136.5480 C   0  0  1  0  0  3  0  0  0  0  0  0
  187.2900  176.7460  135.2920 O   0  0  0  0  0  1  0  0  0  0  0  0
  191.6660  176.3830  135.8160 C   0  0  0  0  0  2  0  0  0  0  0  0
  193.9470  175.9980  137.5250 O   0  0  0  0  0  0  0  0  0  0  0  0
  192.5210  175.6100  137.2100 P   0  0  0  0  0  0  0  0  0  0  0  0
  191.9720  174.2040  137.9680 O   0  0  0  0  0  0  0  0  0  0  0  0
  192.4290  175.3230  135.4930 O   0  0  0  0  0  0  0  0  0  0  0  0
  2  6  1  0  0  0  0
  4  8  2  0  0  0  0
  5  9  2  0  0  0  0
  5  2  1  0  0  0  0
  6  3  1  0  0  0  0
  6  1  2  0  0  0  0
  7  3  2  0  0  0  0
  8  1  1  0  0  0  0
  9  7  1  0  0  0  0
 10  2  2  0  0  0  0
 10  4  1  0  0  0  0
 13 15  1  0  0  0  0
 14 21  1  0  0  0  0
 14 20  1  0  0  0  0
 15  4  1  0  0  0  0
 15 11  1  0  0  0  0
 16 19  1  0  0  0  0
 18 11  1  1  0  0  0
 19 12  1  6  0  0  0
 19 18  1  0  0  0  0
 20 22  1  6  0  0  0
 20 13  1  0  0  0  0
 20 18  1  0  0  0  0
 21 17  1  6  0  0  0
 21 16  1  0  0  0  0
 23 29  1  0  0  0  0
 23 27  1  0  0  0  0
 24 28  2  0  0  0  0
 25  5  1  1  0  0  0
 26 25  1  0  0  0  0
 27 25  1  0  0  0  0
 28 31  1  0  0  0  0
 28 23  1  0  0  0  0
 29 30  1  6  0  0  0
 29 26  1  0  0  0  0
 33 32  2  0  0  0  0
 33 34  2  0  0  0  0
 35 31  1  0  0  0  0
 35 33  1  0  0  0  0
M  END
>  <MODEL>
9

>  <REMARK>
 VINA RESULT:      -7.1      2.785      4.632
  Name = 
  3 active torsions:
  status: ('A' for Active; 'I' for Inactive)
    1  A    between atoms: C_3  and  C_17
    2  A    between atoms: C_5  and  C_24
    3  A    between atoms: N_13  and  C_21
                            x       y       z     vdW  Elec       q    Type
                         _______ _______ _______ _____ _____    ______ ____

>  <TORSDO>
F 3

$$$$
