=
 OpenBabel11062417183D

 26 27  0  0  1  0  0  0  0  0999 V2000
  189.5390  175.8390  142.6880 O   0  0  0  0  0  0  0  0  0  0  0  0
  190.0180  177.5500  138.7040 C   0  0  1  0  0  3  0  0  0  0  0  0
  189.0420  177.2650  140.8990 N   0  0  0  0  0  0  0  0  0  0  0  0
  188.7990  176.7410  142.2140 C   0  0  0  0  0  0  0  0  0  0  0  0
  190.9420  176.0010  140.3190 O   0  0  0  0  0  0  0  0  0  0  0  0
  188.9130  178.5950  138.9230 C   0  0  0  0  0  3  0  0  0  0  0  0
  190.0640  176.8520  140.0120 C   0  0  0  0  0  0  0  0  0  0  0  0
  188.2410  178.2950  140.2690 C   0  0  0  0  0  3  0  0  0  0  0  0
  187.6490  177.2360  143.0300 C   0  0  0  0  0  2  0  0  0  0  0  0
  188.8950  178.5960  148.4680 C   0  0  0  0  0  1  0  0  0  0  0  0
  189.2520  177.8860  144.8410 C   0  0  0  0  0  2  0  0  0  0  0  0
  187.1900  178.3920  146.6260 C   0  0  2  0  0  3  0  0  0  0  0  0
  187.9610  177.1450  144.5140 C   0  0  1  0  0  3  0  0  0  0  0  0
  186.7810  177.6970  145.3190 C   0  0  0  0  0  2  0  0  0  0  0  0
  188.4420  177.7550  147.2880 C   0  0  0  0  0  0  0  0  0  0  0  0
  189.6260  177.6700  146.3100 C   0  0  0  0  0  2  0  0  0  0  0  0
  188.1360  176.3510  147.7900 C   0  0  0  0  0  1  0  0  0  0  0  0
  185.9760  178.4710  147.5470 C   0  0  0  0  0  2  0  0  0  0  0  0
  184.8050  178.5680  146.7960 O   0  0  0  0  0  1  0  0  0  0  0  0
  189.6230  176.5880  137.5770 C   0  0  1  0  0  3  0  0  0  0  0  0
  187.2860  176.3190  136.6380 C   0  0  0  0  0  0  0  0  0  0  0  0
  188.4630  177.0990  136.8540 N   0  0  0  0  0  2  0  0  0  0  0  0
  187.1950  175.1520  137.1020 O   0  0  0  0  0  0  0  0  0  0  0  0
  186.2060  176.8680  135.8930 N   0  0  0  0  0  1  0  0  0  0  0  0
  190.7780  176.3540  136.6030 C   0  0  0  0  0  2  0  0  0  0  0  0
  192.0060  176.5780  137.2300 O   0  0  0  0  0  1  0  0  0  0  0  0
  2 20  1  6  0  0  0
  2  6  1  0  0  0  0
  2  7  1  0  0  0  0
  3  4  1  0  0  0  0
  4  1  2  0  0  0  0
  4  9  1  0  0  0  0
  6  8  2  0  0  0  0
  7  5  2  0  0  0  0
  7  3  1  0  0  0  0
  8  3  1  0  0  0  0
 11 16  1  0  0  0  0
 12 15  1  0  0  0  0
 12 18  1  1  0  0  0
 13  9  1  6  0  0  0
 13 11  1  0  0  0  0
 13 14  1  0  0  0  0
 14 12  1  0  0  0  0
 15 17  1  0  0  0  0
 15 10  1  0  0  0  0
 16 15  1  0  0  0  0
 19 18  1  0  0  0  0
 20 25  1  6  0  0  0
 21 22  1  0  0  0  0
 21 23  2  0  0  0  0
 22 20  1  0  0  0  0
 24 21  1  0  0  0  0
 25 26  1  0  0  0  0
M  END
>  <MODEL>
1

>  <REMARK>
 VINA RESULT:      -7.5      0.000      0.000
  Name = 
  6 active torsions:
  status: ('A' for Active; 'I' for Inactive)
    1  A    between atoms: C_2  and  CA_22
    2  A    between atoms: C_4  and  CA_22
    3  A    between atoms: C_8  and  C_17
    4  A    between atoms: C_10  and  C_16
    5  A    between atoms: N_11  and  CA_22
    6  A    between atoms: C_15  and  C_17
                            x       y       z     vdW  Elec       q    Type
                         _______ _______ _______ _____ _____    ______ ____

>  <TORSDO>
F 6

$$$$
=
 OpenBabel11062417183D

 26 27  0  0  1  0  0  0  0  0999 V2000
  185.8310  179.7310  141.2470 O   0  0  0  0  0  0  0  0  0  0  0  0
  189.0270  176.8690  142.0310 C   0  0  1  0  0  3  0  0  0  0  0  0
  186.9150  177.9920  142.3800 N   0  0  0  0  0  0  0  0  0  0  0  0
  185.8300  178.9190  142.2080 C   0  0  0  0  0  0  0  0  0  0  0  0
  188.2250  178.5750  140.5130 O   0  0  0  0  0  0  0  0  0  0  0  0
  188.2710  176.2080  143.1930 C   0  0  0  0  0  3  0  0  0  0  0  0
  188.0610  177.8900  141.5580 C   0  0  0  0  0  0  0  0  0  0  0  0
  187.0030  177.0300  143.4600 C   0  0  0  0  0  3  0  0  0  0  0  0
  184.6980  178.9540  143.1840 C   0  0  0  0  0  2  0  0  0  0  0  0
  179.4900  177.7050  141.1110 C   0  0  0  0  0  1  0  0  0  0  0  0
  183.1760  177.8440  141.5310 C   0  0  0  0  0  2  0  0  0  0  0  0
  180.9280  178.4550  143.0370 C   0  0  2  0  0  3  0  0  0  0  0  0
  183.3650  179.0380  142.4600 C   0  0  1  0  0  3  0  0  0  0  0  0
  182.2320  179.1320  143.4860 C   0  0  0  0  0  2  0  0  0  0  0  0
  180.6920  178.5430  141.5050 C   0  0  0  0  0  0  0  0  0  0  0  0
  181.8970  178.0130  140.7090 C   0  0  0  0  0  2  0  0  0  0  0  0
  180.4320  179.9810  141.0780 C   0  0  0  0  0  1  0  0  0  0  0  0
  179.7730  178.9980  143.8740 C   0  0  0  0  0  2  0  0  0  0  0  0
  179.1710  177.9670  144.5930 O   0  0  0  0  0  1  0  0  0  0  0  0
  190.3180  177.5210  142.5410 C   0  0  1  0  0  3  0  0  0  0  0  0
  191.4740  177.6900  144.7880 C   0  0  0  0  0  0  0  0  0  0  0  0
  190.6930  176.9650  143.8370 N   0  0  0  0  0  2  0  0  0  0  0  0
  191.8430  178.8710  144.5500 O   0  0  0  0  0  0  0  0  0  0  0  0
  191.8340  177.0740  146.0190 N   0  0  0  0  0  1  0  0  0  0  0  0
  191.4690  177.3480  141.5500 C   0  0  0  0  0  2  0  0  0  0  0  0
  191.0140  176.7770  140.3600 O   0  0  0  0  0  1  0  0  0  0  0  0
  1  4  2  0  0  0  0
  2 20  1  1  0  0  0
  2  6  1  0  0  0  0
  3  8  1  0  0  0  0
  4  3  1  0  0  0  0
  4  9  1  0  0  0  0
  5  7  2  0  0  0  0
  6  8  2  0  0  0  0
  7  2  1  0  0  0  0
  7  3  1  0  0  0  0
 10 15  1  0  0  0  0
 11 13  1  0  0  0  0
 12 14  1  0  0  0  0
 12 18  1  1  0  0  0
 13  9  1  1  0  0  0
 13 14  1  0  0  0  0
 15 12  1  0  0  0  0
 16 15  1  0  0  0  0
 16 11  1  0  0  0  0
 17 15  1  0  0  0  0
 18 19  1  0  0  0  0
 20 25  1  6  0  0  0
 20 22  1  0  0  0  0
 21 24  1  0  0  0  0
 22 21  1  0  0  0  0
 23 21  2  0  0  0  0
 26 25  1  0  0  0  0
M  END
>  <MODEL>
2

>  <REMARK>
 VINA RESULT:      -7.3      4.703      6.943
  Name = 
  6 active torsions:
  status: ('A' for Active; 'I' for Inactive)
    1  A    between atoms: C_2  and  CA_22
    2  A    between atoms: C_4  and  CA_22
    3  A    between atoms: C_8  and  C_17
    4  A    between atoms: C_10  and  C_16
    5  A    between atoms: N_11  and  CA_22
    6  A    between atoms: C_15  and  C_17
                            x       y       z     vdW  Elec       q    Type
                         _______ _______ _______ _____ _____    ______ ____

>  <TORSDO>
F 6

$$$$
=
 OpenBabel11062417183D

 26 27  0  0  1  0  0  0  0  0999 V2000
  186.7390  178.8080  141.3230 O   0  0  0  0  0  0  0  0  0  0  0  0
  182.6310  179.2570  139.9270 C   0  0  1  0  0  3  0  0  0  0  0  0
  184.4070  178.6470  141.4510 N   0  0  0  0  0  0  0  0  0  0  0  0
  185.7280  178.4400  141.9760 C   0  0  0  0  0  0  0  0  0  0  0  0
  184.9540  179.7190  139.4270 O   0  0  0  0  0  0  0  0  0  0  0  0
  182.0330  178.7410  141.2450 C   0  0  0  0  0  3  0  0  0  0  0  0
  184.0880  179.2350  140.2050 C   0  0  0  0  0  0  0  0  0  0  0  0
  183.1880  178.2490  142.1260 C   0  0  0  0  0  3  0  0  0  0  0  0
  185.9260  177.7580  143.2920 C   0  0  0  0  0  2  0  0  0  0  0  0
  191.0090  176.8150  145.7930 C   0  0  0  0  0  1  0  0  0  0  0  0
  187.4500  177.7420  145.2800 C   0  0  0  0  0  2  0  0  0  0  0  0
  189.4240  176.3820  143.8840 C   0  0  2  0  0  3  0  0  0  0  0  0
  187.3600  177.9120  143.7680 C   0  0  1  0  0  3  0  0  0  0  0  0
  188.2510  176.9020  143.0390 C   0  0  0  0  0  2  0  0  0  0  0  0
  189.9810  177.4440  144.8710 C   0  0  0  0  0  0  0  0  0  0  0  0
  188.8740  178.0350  145.7600 C   0  0  0  0  0  2  0  0  0  0  0  0
  190.6500  178.5860  144.1180 C   0  0  0  0  0  1  0  0  0  0  0  0
  190.4790  175.7870  142.9560 C   0  0  0  0  0  2  0  0  0  0  0  0
  190.2030  176.1230  141.6310 O   0  0  0  0  0  1  0  0  0  0  0  0
  182.2720  178.3100  138.7760 C   0  0  1  0  0  3  0  0  0  0  0  0
  181.5730  175.9570  139.4000 C   0  0  0  0  0  0  0  0  0  0  0  0
  181.2710  177.3390  139.2060 N   0  0  0  0  0  2  0  0  0  0  0  0
  182.7450  175.5260  139.2340 O   0  0  0  0  0  0  0  0  0  0  0  0
  180.5400  175.0590  139.7870 N   0  0  0  0  0  1  0  0  0  0  0  0
  181.7610  179.0740  137.5540 C   0  0  0  0  0  2  0  0  0  0  0  0
  181.6590  180.4390  137.8320 O   0  0  0  0  0  1  0  0  0  0  0  0
  1  4  2  0  0  0  0
  2 20  1  6  0  0  0
  2  7  1  0  0  0  0
  2  6  1  0  0  0  0
  3  4  1  0  0  0  0
  3  8  1  0  0  0  0
  4  9  1  0  0  0  0
  5  7  2  0  0  0  0
  6  8  2  0  0  0  0
  7  3  1  0  0  0  0
 11 16  1  0  0  0  0
 12 18  1  6  0  0  0
 12 15  1  0  0  0  0
 13  9  1  6  0  0  0
 13 11  1  0  0  0  0
 14 13  1  0  0  0  0
 14 12  1  0  0  0  0
 15 16  1  0  0  0  0
 15 10  1  0  0  0  0
 17 15  1  0  0  0  0
 19 18  1  0  0  0  0
 20 25  1  6  0  0  0
 20 22  1  0  0  0  0
 21 24  1  0  0  0  0
 22 21  1  0  0  0  0
 23 21  2  0  0  0  0
 25 26  1  0  0  0  0
M  END
>  <MODEL>
3

>  <REMARK>
 VINA RESULT:      -7.3      4.358      5.956
  Name = 
  6 active torsions:
  status: ('A' for Active; 'I' for Inactive)
    1  A    between atoms: C_2  and  CA_22
    2  A    between atoms: C_4  and  CA_22
    3  A    between atoms: C_8  and  C_17
    4  A    between atoms: C_10  and  C_16
    5  A    between atoms: N_11  and  CA_22
    6  A    between atoms: C_15  and  C_17
                            x       y       z     vdW  Elec       q    Type
                         _______ _______ _______ _____ _____    ______ ____

>  <TORSDO>
F 6

$$$$
=
 OpenBabel11062417183D

 26 27  0  0  1  0  0  0  0  0999 V2000
  190.4870  176.4220  140.3450 O   0  0  0  0  0  0  0  0  0  0  0  0
  188.1030  176.5290  143.9960 C   0  0  1  0  0  3  0  0  0  0  0  0
  188.7670  177.1520  141.7550 N   0  0  0  0  0  0  0  0  0  0  0  0
  189.5140  177.1980  140.5290 C   0  0  0  0  0  0  0  0  0  0  0  0
  189.9150  175.4090  142.8460 O   0  0  0  0  0  0  0  0  0  0  0  0
  187.1100  177.5520  143.4230 C   0  0  0  0  0  3  0  0  0  0  0  0
  189.0210  176.2980  142.8540 C   0  0  0  0  0  0  0  0  0  0  0  0
  187.6400  178.0110  142.0580 C   0  0  0  0  0  3  0  0  0  0  0  0
  189.1670  178.1880  139.4640 C   0  0  0  0  0  2  0  0  0  0  0  0
  186.0360  177.3210  134.7280 C   0  0  0  0  0  1  0  0  0  0  0  0
  187.0100  178.2420  138.1910 C   0  0  0  0  0  2  0  0  0  0  0  0
  188.2900  177.6670  135.7980 C   0  0  2  0  0  3  0  0  0  0  0  0
  188.3480  177.5330  138.3650 C   0  0  1  0  0  3  0  0  0  0  0  0
  189.1510  177.5300  137.0620 C   0  0  0  0  0  2  0  0  0  0  0  0
  186.8970  176.9940  135.9350 C   0  0  0  0  0  0  0  0  0  0  0  0
  186.1420  177.4890  137.1800 C   0  0  0  0  0  2  0  0  0  0  0  0
  187.0330  175.4800  136.0290 C   0  0  0  0  0  1  0  0  0  0  0  0
  189.0940  177.1860  134.5940 C   0  0  0  0  0  2  0  0  0  0  0  0
  190.3020  176.6280  135.0110 O   0  0  0  0  0  1  0  0  0  0  0  0
  188.8500  177.1290  145.1940 C   0  0  1  0  0  3  0  0  0  0  0  0
  191.1090  178.1810  144.7380 C   0  0  0  0  0  0  0  0  0  0  0  0
  189.6820  178.2490  144.7670 N   0  0  0  0  0  2  0  0  0  0  0  0
  191.7070  177.1180  145.0540 O   0  0  0  0  0  0  0  0  0  0  0  0
  191.8600  179.3220  144.3450 N   0  0  0  0  0  1  0  0  0  0  0  0
  187.8870  177.5880  146.2880 C   0  0  0  0  0  2  0  0  0  0  0  0
  188.2620  177.0650  147.5280 O   0  0  0  0  0  1  0  0  0  0  0  0
  1  4  2  0  0  0  0
  2 20  1  1  0  0  0
  3  8  1  0  0  0  0
  3  7  1  0  0  0  0
  4  3  1  0  0  0  0
  5  7  2  0  0  0  0
  6  2  1  0  0  0  0
  7  2  1  0  0  0  0
  8  6  2  0  0  0  0
  9  4  1  0  0  0  0
 10 15  1  0  0  0  0
 11 13  1  0  0  0  0
 12 18  1  6  0  0  0
 12 15  1  0  0  0  0
 12 14  1  0  0  0  0
 13  9  1  1  0  0  0
 14 13  1  0  0  0  0
 15 17  1  0  0  0  0
 15 16  1  0  0  0  0
 16 11  1  0  0  0  0
 18 19  1  0  0  0  0
 20 25  1  1  0  0  0
 21 22  1  0  0  0  0
 21 23  2  0  0  0  0
 22 20  1  0  0  0  0
 24 21  1  0  0  0  0
 25 26  1  0  0  0  0
M  END
>  <MODEL>
4

>  <REMARK>
 VINA RESULT:      -7.1      2.344      8.622
  Name = 
  6 active torsions:
  status: ('A' for Active; 'I' for Inactive)
    1  A    between atoms: C_2  and  CA_22
    2  A    between atoms: C_4  and  CA_22
    3  A    between atoms: C_8  and  C_17
    4  A    between atoms: C_10  and  C_16
    5  A    between atoms: N_11  and  CA_22
    6  A    between atoms: C_15  and  C_17
                            x       y       z     vdW  Elec       q    Type
                         _______ _______ _______ _____ _____    ______ ____

>  <TORSDO>
F 6

$$$$
=
 OpenBabel11062417183D

 26 27  0  0  1  0  0  0  0  0999 V2000
  189.6050  175.8680  142.5670 O   0  0  0  0  0  0  0  0  0  0  0  0
  190.0010  177.6550  138.6080 C   0  0  1  0  0  3  0  0  0  0  0  0
  189.0600  177.3160  140.8100 N   0  0  0  0  0  0  0  0  0  0  0  0
  188.8440  176.7660  142.1190 C   0  0  0  0  0  0  0  0  0  0  0  0
  190.9730  176.0940  140.1820 O   0  0  0  0  0  0  0  0  0  0  0  0
  188.8810  178.6770  138.8600 C   0  0  0  0  0  3  0  0  0  0  0  0
  190.0760  176.9360  139.9020 C   0  0  0  0  0  0  0  0  0  0  0  0
  188.2330  178.3430  140.2090 C   0  0  0  0  0  3  0  0  0  0  0  0
  187.6970  177.2270  142.9590 C   0  0  0  0  0  2  0  0  0  0  0  0
  188.9550  178.5920  148.3930 C   0  0  0  0  0  1  0  0  0  0  0  0
  189.2910  177.9480  144.7520 C   0  0  0  0  0  2  0  0  0  0  0  0
  187.2330  178.3110  146.5770 C   0  0  2  0  0  3  0  0  0  0  0  0
  188.0400  177.1370  144.4360 C   0  0  1  0  0  3  0  0  0  0  0  0
  186.8430  177.6090  145.2670 C   0  0  0  0  0  2  0  0  0  0  0  0
  188.5310  177.7410  147.2100 C   0  0  0  0  0  0  0  0  0  0  0  0
  189.7010  177.7370  146.2110 C   0  0  0  0  0  2  0  0  0  0  0  0
  188.3160  176.3150  147.6990 C   0  0  0  0  0  1  0  0  0  0  0  0
  186.0320  178.3080  147.5190 C   0  0  0  0  0  2  0  0  0  0  0  0
  184.8970  178.7700  146.8550 O   0  0  0  0  0  1  0  0  0  0  0  0
  189.6060  176.7060  137.4690 C   0  0  1  0  0  3  0  0  0  0  0  0
  191.3250  175.0150  136.6970 C   0  0  0  0  0  0  0  0  0  0  0  0
  190.3030  175.4310  137.6030 N   0  0  0  0  0  2  0  0  0  0  0  0
  191.6910  175.7640  135.7520 O   0  0  0  0  0  0  0  0  0  0  0  0
  191.9390  173.7430  136.8650 N   0  0  0  0  0  1  0  0  0  0  0  0
  188.0960  176.4700  137.4290 C   0  0  0  0  0  2  0  0  0  0  0  0
  187.8130  175.1060  137.3170 O   0  0  0  0  0  1  0  0  0  0  0  0
  2 20  1  6  0  0  0
  2  6  1  0  0  0  0
  2  7  1  0  0  0  0
  3  4  1  0  0  0  0
  4  1  2  0  0  0  0
  4  9  1  0  0  0  0
  6  8  2  0  0  0  0
  7  5  2  0  0  0  0
  7  3  1  0  0  0  0
  8  3  1  0  0  0  0
 11 16  1  0  0  0  0
 12 15  1  0  0  0  0
 12 18  1  1  0  0  0
 13  9  1  6  0  0  0
 13 11  1  0  0  0  0
 13 14  1  0  0  0  0
 14 12  1  0  0  0  0
 15 17  1  0  0  0  0
 15 10  1  0  0  0  0
 16 15  1  0  0  0  0
 19 18  1  0  0  0  0
 20 25  1  1  0  0  0
 20 22  1  0  0  0  0
 21 24  1  0  0  0  0
 21 22  1  0  0  0  0
 23 21  2  0  0  0  0
 26 25  1  0  0  0  0
M  END
>  <MODEL>
5

>  <REMARK>
 VINA RESULT:      -7.1      1.197      2.137
  Name = 
  6 active torsions:
  status: ('A' for Active; 'I' for Inactive)
    1  A    between atoms: C_2  and  CA_22
    2  A    between atoms: C_4  and  CA_22
    3  A    between atoms: C_8  and  C_17
    4  A    between atoms: C_10  and  C_16
    5  A    between atoms: N_11  and  CA_22
    6  A    between atoms: C_15  and  C_17
                            x       y       z     vdW  Elec       q    Type
                         _______ _______ _______ _____ _____    ______ ____

>  <TORSDO>
F 6

$$$$
=
 OpenBabel11062417183D

 26 27  0  0  1  0  0  0  0  0999 V2000
  188.1970  177.3200  141.7220 O   0  0  0  0  0  0  0  0  0  0  0  0
  189.9370  178.0710  145.6510 C   0  0  1  0  0  3  0  0  0  0  0  0
  189.9180  177.7310  143.2560 N   0  0  0  0  0  0  0  0  0  0  0  0
  189.4310  177.4630  141.9310 C   0  0  0  0  0  0  0  0  0  0  0  0
  187.8720  177.7880  144.4210 O   0  0  0  0  0  0  0  0  0  0  0  0
  191.3550  178.2500  145.0860 C   0  0  0  0  0  3  0  0  0  0  0  0
  189.1310  177.8430  144.4270 C   0  0  0  0  0  0  0  0  0  0  0  0
  191.3160  177.9010  143.5930 C   0  0  0  0  0  3  0  0  0  0  0  0
  190.3800  177.3200  140.7860 C   0  0  0  0  0  2  0  0  0  0  0  0
  188.9400  177.2210  135.2280 C   0  0  0  0  0  1  0  0  0  0  0  0
  189.5070  178.4020  138.7020 C   0  0  0  0  0  2  0  0  0  0  0  0
  190.2330  176.2230  137.1450 C   0  0  2  0  0  3  0  0  0  0  0  0
  189.6270  177.1000  139.4860 C   0  0  1  0  0  3  0  0  0  0  0  0
  190.3320  176.0170  138.6640 C   0  0  0  0  0  2  0  0  0  0  0  0
  188.8970  176.8830  136.7070 C   0  0  0  0  0  0  0  0  0  0  0  0
  188.6300  178.1940  137.4650 C   0  0  0  0  0  2  0  0  0  0  0  0
  187.7230  175.9440  136.9480 C   0  0  0  0  0  1  0  0  0  0  0  0
  190.5290  174.9010  136.4440 C   0  0  0  0  0  2  0  0  0  0  0  0
  190.6130  173.8670  137.3760 O   0  0  0  0  0  1  0  0  0  0  0  0
  189.8870  176.8540  146.5820 C   0  0  1  0  0  3  0  0  0  0  0  0
  192.1100  175.9810  147.4250 C   0  0  0  0  0  0  0  0  0  0  0  0
  191.0060  176.8820  147.5190 N   0  0  0  0  0  2  0  0  0  0  0  0
  192.1730  175.1370  146.4910 O   0  0  0  0  0  0  0  0  0  0  0  0
  193.1500  176.0390  148.3930 N   0  0  0  0  0  1  0  0  0  0  0  0
  188.5680  176.7860  147.3520 C   0  0  0  0  0  2  0  0  0  0  0  0
  188.4440  177.8770  148.2150 O   0  0  0  0  0  1  0  0  0  0  0  0
  1  4  2  0  0  0  0
  2 20  1  1  0  0  0
  3  8  1  0  0  0  0
  3  7  1  0  0  0  0
  4  3  1  0  0  0  0
  5  7  2  0  0  0  0
  6  2  1  0  0  0  0
  7  2  1  0  0  0  0
  8  6  2  0  0  0  0
  9  4  1  0  0  0  0
 10 15  1  0  0  0  0
 11 13  1  0  0  0  0
 12 18  1  6  0  0  0
 12 14  1  0  0  0  0
 13  9  1  1  0  0  0
 14 13  1  0  0  0  0
 15 17  1  0  0  0  0
 15 12  1  0  0  0  0
 15 16  1  0  0  0  0
 16 11  1  0  0  0  0
 18 19  1  0  0  0  0
 20 25  1  1  0  0  0
 20 22  1  0  0  0  0
 21 22  1  0  0  0  0
 21 24  1  0  0  0  0
 23 21  2  0  0  0  0
 25 26  1  0  0  0  0
M  END
>  <MODEL>
6

>  <REMARK>
 VINA RESULT:      -7.0      2.979      9.035
  Name = 
  6 active torsions:
  status: ('A' for Active; 'I' for Inactive)
    1  A    between atoms: C_2  and  CA_22
    2  A    between atoms: C_4  and  CA_22
    3  A    between atoms: C_8  and  C_17
    4  A    between atoms: C_10  and  C_16
    5  A    between atoms: N_11  and  CA_22
    6  A    between atoms: C_15  and  C_17
                            x       y       z     vdW  Elec       q    Type
                         _______ _______ _______ _____ _____    ______ ____

>  <TORSDO>
F 6

$$$$
=
 OpenBabel11062417183D

 26 27  0  0  1  0  0  0  0  0999 V2000
  189.1740  178.8740  142.1480 O   0  0  0  0  0  0  0  0  0  0  0  0
  191.7410  177.2160  145.2600 C   0  0  1  0  0  3  0  0  0  0  0  0
  190.4110  177.2130  143.2400 N   0  0  0  0  0  0  0  0  0  0  0  0
  189.5450  177.6720  142.1900 C   0  0  0  0  0  0  0  0  0  0  0  0
  190.7050  179.2340  144.4140 O   0  0  0  0  0  0  0  0  0  0  0  0
  191.8360  175.8450  144.5740 C   0  0  0  0  0  3  0  0  0  0  0  0
  190.9140  177.9950  144.3070 C   0  0  0  0  0  0  0  0  0  0  0  0
  190.8810  175.8500  143.3750 C   0  0  0  0  0  3  0  0  0  0  0  0
  189.0450  176.7240  141.1480 C   0  0  0  0  0  2  0  0  0  0  0  0
  188.9090  177.4960  135.4580 C   0  0  0  0  0  1  0  0  0  0  0  0
  190.0260  176.4920  138.8540 C   0  0  0  0  0  2  0  0  0  0  0  0
  187.6800  177.3550  137.6520 C   0  0  2  0  0  3  0  0  0  0  0  0
  189.1470  177.3420  139.7640 C   0  0  1  0  0  3  0  0  0  0  0  0
  187.7430  177.5170  139.1780 C   0  0  0  0  0  2  0  0  0  0  0  0
  188.9640  177.8500  136.9330 C   0  0  0  0  0  0  0  0  0  0  0  0
  190.2310  177.1960  137.5110 C   0  0  0  0  0  2  0  0  0  0  0  0
  189.1070  179.3600  137.0580 C   0  0  0  0  0  1  0  0  0  0  0  0
  186.3950  177.9970  137.1370 C   0  0  0  0  0  2  0  0  0  0  0  0
  185.8030  178.7650  138.1390 O   0  0  0  0  0  1  0  0  0  0  0  0
  191.0420  177.0830  146.6190 C   0  0  1  0  0  3  0  0  0  0  0  0
  188.6820  177.6410  147.3470 C   0  0  0  0  0  0  0  0  0  0  0  0
  189.5950  177.0160  146.4440 N   0  0  0  0  0  2  0  0  0  0  0  0
  189.1040  178.3120  148.3270 O   0  0  0  0  0  0  0  0  0  0  0  0
  187.2820  177.5070  147.1370 N   0  0  0  0  0  1  0  0  0  0  0  0
  191.5280  175.8520  147.3850 C   0  0  0  0  0  2  0  0  0  0  0  0
  192.6330  176.1690  148.1780 O   0  0  0  0  0  1  0  0  0  0  0  0
  1  4  2  0  0  0  0
  2 20  1  1  0  0  0
  3  8  1  0  0  0  0
  3  7  1  0  0  0  0
  4  3  1  0  0  0  0
  6  2  1  0  0  0  0
  7  5  2  0  0  0  0
  7  2  1  0  0  0  0
  8  6  2  0  0  0  0
  9  4  1  0  0  0  0
 10 15  1  0  0  0  0
 11 13  1  0  0  0  0
 12 18  1  6  0  0  0
 12 14  1  0  0  0  0
 13  9  1  1  0  0  0
 14 13  1  0  0  0  0
 15 17  1  0  0  0  0
 15 16  1  0  0  0  0
 15 12  1  0  0  0  0
 16 11  1  0  0  0  0
 18 19  1  0  0  0  0
 20 25  1  6  0  0  0
 21 23  2  0  0  0  0
 22 20  1  0  0  0  0
 22 21  1  0  0  0  0
 24 21  1  0  0  0  0
 25 26  1  0  0  0  0
M  END
>  <MODEL>
7

>  <REMARK>
 VINA RESULT:      -7.0      3.261      8.408
  Name = 
  6 active torsions:
  status: ('A' for Active; 'I' for Inactive)
    1  A    between atoms: C_2  and  CA_22
    2  A    between atoms: C_4  and  CA_22
    3  A    between atoms: C_8  and  C_17
    4  A    between atoms: C_10  and  C_16
    5  A    between atoms: N_11  and  CA_22
    6  A    between atoms: C_15  and  C_17
                            x       y       z     vdW  Elec       q    Type
                         _______ _______ _______ _____ _____    ______ ____

>  <TORSDO>
F 6

$$$$
=
 OpenBabel11062417183D

 26 27  0  0  1  0  0  0  0  0999 V2000
  186.6870  178.9010  141.4040 O   0  0  0  0  0  0  0  0  0  0  0  0
  182.5700  179.2040  139.9950 C   0  0  1  0  0  3  0  0  0  0  0  0
  184.3590  178.6830  141.5370 N   0  0  0  0  0  0  0  0  0  0  0  0
  185.6850  178.5260  142.0680 C   0  0  0  0  0  0  0  0  0  0  0  0
  184.8810  179.7110  139.4830 O   0  0  0  0  0  0  0  0  0  0  0  0
  181.9840  178.7110  141.3270 C   0  0  0  0  0  3  0  0  0  0  0  0
  184.0260  179.2270  140.2730 C   0  0  0  0  0  0  0  0  0  0  0  0
  183.1510  178.2740  142.2220 C   0  0  0  0  0  3  0  0  0  0  0  0
  185.8980  177.8870  143.4020 C   0  0  0  0  0  2  0  0  0  0  0  0
  191.0480  176.7480  145.6750 C   0  0  0  0  0  1  0  0  0  0  0  0
  187.5010  177.7890  145.3260 C   0  0  0  0  0  2  0  0  0  0  0  0
  189.3750  176.3990  143.8250 C   0  0  2  0  0  3  0  0  0  0  0  0
  187.3550  177.9900  143.8220 C   0  0  1  0  0  3  0  0  0  0  0  0
  188.1850  176.9690  143.0390 C   0  0  0  0  0  2  0  0  0  0  0  0
  190.0030  177.4250  144.8070 C   0  0  0  0  0  0  0  0  0  0  0  0
  188.9510  178.0310  145.7510 C   0  0  0  0  0  2  0  0  0  0  0  0
  190.6750  178.5610  144.0480 C   0  0  0  0  0  1  0  0  0  0  0  0
  190.3730  175.7900  142.8440 C   0  0  0  0  0  2  0  0  0  0  0  0
  190.1020  176.2250  141.5470 O   0  0  0  0  0  1  0  0  0  0  0  0
  182.2370  178.2150  138.8710 C   0  0  1  0  0  3  0  0  0  0  0  0
  181.2420  178.4770  136.5560 C   0  0  0  0  0  0  0  0  0  0  0  0
  182.1190  178.9140  137.5950 N   0  0  0  0  0  2  0  0  0  0  0  0
  180.5000  177.4720  136.7230 O   0  0  0  0  0  0  0  0  0  0  0  0
  181.2030  179.1850  135.3230 N   0  0  0  0  0  1  0  0  0  0  0  0
  183.2870  177.1100  138.7600 C   0  0  0  0  0  2  0  0  0  0  0  0
  182.8400  175.9400  139.3780 O   0  0  0  0  0  1  0  0  0  0  0  0
  1  4  2  0  0  0  0
  2 20  1  6  0  0  0
  2  7  1  0  0  0  0
  2  6  1  0  0  0  0
  3  4  1  0  0  0  0
  3  8  1  0  0  0  0
  4  9  1  0  0  0  0
  5  7  2  0  0  0  0
  6  8  2  0  0  0  0
  7  3  1  0  0  0  0
 11 16  1  0  0  0  0
 12 18  1  6  0  0  0
 12 15  1  0  0  0  0
 13  9  1  6  0  0  0
 13 11  1  0  0  0  0
 14 13  1  0  0  0  0
 14 12  1  0  0  0  0
 15 10  1  0  0  0  0
 15 16  1  0  0  0  0
 17 15  1  0  0  0  0
 19 18  1  0  0  0  0
 20 25  1  6  0  0  0
 21 23  2  0  0  0  0
 21 22  1  0  0  0  0
 22 20  1  0  0  0  0
 24 21  1  0  0  0  0
 25 26  1  0  0  0  0
M  END
>  <MODEL>
8

>  <REMARK>
 VINA RESULT:      -6.9      4.118      5.758
  Name = 
  6 active torsions:
  status: ('A' for Active; 'I' for Inactive)
    1  A    between atoms: C_2  and  CA_22
    2  A    between atoms: C_4  and  CA_22
    3  A    between atoms: C_8  and  C_17
    4  A    between atoms: C_10  and  C_16
    5  A    between atoms: N_11  and  CA_22
    6  A    between atoms: C_15  and  C_17
                            x       y       z     vdW  Elec       q    Type
                         _______ _______ _______ _____ _____    ______ ____

>  <TORSDO>
F 6

$$$$
=
 OpenBabel11062417183D

 26 27  0  0  1  0  0  0  0  0999 V2000
  190.4160  176.8300  139.9290 O   0  0  0  0  0  0  0  0  0  0  0  0
  188.0710  176.6230  143.6010 C   0  0  1  0  0  3  0  0  0  0  0  0
  188.6990  177.4220  141.4060 N   0  0  0  0  0  0  0  0  0  0  0  0
  189.4310  177.5730  140.1790 C   0  0  0  0  0  0  0  0  0  0  0  0
  189.8890  175.6240  142.3530 O   0  0  0  0  0  0  0  0  0  0  0  0
  187.0540  177.6670  143.1150 C   0  0  0  0  0  3  0  0  0  0  0  0
  188.9800  176.4930  142.4360 C   0  0  0  0  0  0  0  0  0  0  0  0
  187.5610  178.2360  141.7830 C   0  0  0  0  0  3  0  0  0  0  0  0
  189.0560  178.6340  139.1950 C   0  0  0  0  0  2  0  0  0  0  0  0
  188.2950  174.9770  134.8320 C   0  0  0  0  0  1  0  0  0  0  0  0
  189.8160  177.4960  137.0960 C   0  0  0  0  0  2  0  0  0  0  0  0
  187.6720  175.7370  137.1520 C   0  0  2  0  0  3  0  0  0  0  0  0
  188.6160  178.0150  137.8790 C   0  0  1  0  0  3  0  0  0  0  0  0
  187.6030  176.9000  138.1520 C   0  0  0  0  0  2  0  0  0  0  0  0
  188.0680  176.1880  135.7200 C   0  0  0  0  0  0  0  0  0  0  0  0
  189.3730  177.0030  135.7170 C   0  0  0  0  0  2  0  0  0  0  0  0
  186.9720  177.0390  135.0960 C   0  0  0  0  0  1  0  0  0  0  0  0
  186.3660  174.9490  137.2130 C   0  0  0  0  0  2  0  0  0  0  0  0
  186.6270  173.5990  137.4420 O   0  0  0  0  0  1  0  0  0  0  0  0
  188.8210  177.1450  144.8320 C   0  0  1  0  0  3  0  0  0  0  0  0
  191.1780  178.0600  144.6940 C   0  0  0  0  0  0  0  0  0  0  0  0
  189.7770  178.1790  144.4470 N   0  0  0  0  0  2  0  0  0  0  0  0
  191.6510  177.0230  145.2320 O   0  0  0  0  0  0  0  0  0  0  0  0
  192.0500  179.1210  144.3240 N   0  0  0  0  0  1  0  0  0  0  0  0
  187.8610  177.6950  145.8870 C   0  0  0  0  0  2  0  0  0  0  0  0
  188.2010  177.2270  147.1580 O   0  0  0  0  0  1  0  0  0  0  0  0
  1  4  2  0  0  0  0
  2 20  1  1  0  0  0
  3  8  1  0  0  0  0
  3  7  1  0  0  0  0
  4  3  1  0  0  0  0
  5  7  2  0  0  0  0
  6  2  1  0  0  0  0
  7  2  1  0  0  0  0
  8  6  2  0  0  0  0
  9  4  1  0  0  0  0
 10 15  1  0  0  0  0
 11 13  1  0  0  0  0
 12 18  1  6  0  0  0
 12 14  1  0  0  0  0
 13 14  1  0  0  0  0
 13  9  1  1  0  0  0
 15 12  1  0  0  0  0
 16 15  1  0  0  0  0
 16 11  1  0  0  0  0
 17 15  1  0  0  0  0
 18 19  1  0  0  0  0
 20 25  1  1  0  0  0
 21 23  2  0  0  0  0
 22 21  1  0  0  0  0
 22 20  1  0  0  0  0
 24 21  1  0  0  0  0
 25 26  1  0  0  0  0
M  END
>  <MODEL>
9

>  <REMARK>
 VINA RESULT:      -6.6      2.210      8.339
  Name = 
  6 active torsions:
  status: ('A' for Active; 'I' for Inactive)
    1  A    between atoms: C_2  and  CA_22
    2  A    between atoms: C_4  and  CA_22
    3  A    between atoms: C_8  and  C_17
    4  A    between atoms: C_10  and  C_16
    5  A    between atoms: N_11  and  CA_22
    6  A    between atoms: C_15  and  C_17
                            x       y       z     vdW  Elec       q    Type
                         _______ _______ _______ _____ _____    ______ ____

>  <TORSDO>
F 6

$$$$
