=
 OpenBabel11062414163D

 60 65  0  0  1  0  0  0  0  0999 V2000
  184.7890  175.1250  136.5850 C   0  0  1  0  0  0  0  0  0  0  0  0
  186.0800  173.9540  135.4000 O   0  0  0  0  0  0  0  0  0  0  0  0
  186.2490  174.6990  136.5810 C   0  0  1  0  0  3  0  0  0  0  0  0
  184.7180  174.3040  135.3340 C   0  0  0  0  0  2  0  0  0  0  0  0
  184.0450  174.5190  137.5970 O   0  0  0  0  0  1  0  0  0  0  0  0
  187.2770  175.8270  136.3700 C   0  0  1  0  0  3  0  0  0  0  0  0
  187.3890  176.6580  137.6340 C   0  0  0  0  0  1  0  0  0  0  0  0
  188.9170  175.2210  134.6580 O   0  0  0  0  0  1  0  0  0  0  0  0
  188.6880  175.3310  136.0330 C   0  0  1  0  0  3  0  0  0  0  0  0
  190.4820  176.9410  135.9170 O   0  0  0  0  0  1  0  0  0  0  0  0
  189.8290  176.0460  136.7660 C   0  0  2  0  0  3  0  0  0  0  0  0
  190.7770  175.1470  137.5260 C   0  0  0  0  0  0  0  0  0  0  0  0
  191.3250  175.5030  138.8030 N   0  0  0  0  0  2  0  0  0  0  0  0
  190.8490  173.9110  137.1630 N   0  0  0  0  0  2  0  0  0  0  0  0
  191.6170  176.8600  139.2400 C   0  0  0  0  0  2  0  0  0  0  0  0
  190.3200  177.5530  139.6030 C   0  0  0  0  0  2  0  0  0  0  0  0
  189.6450  176.8850  140.7900 C   0  0  2  0  0  3  0  0  0  0  0  0
  188.4220  177.5110  141.0330 O   0  0  0  0  0  1  0  0  0  0  0  0
  190.1970  177.4620  144.6210 C   0  0  2  0  0  0  0  0  0  0  0  0
  189.7090  176.1280  143.4640 S   0  0  0  0  0  0  0  0  0  0  0  0
  190.5260  176.9330  142.0370 C   0  0  2  0  0  3  0  0  0  0  0  0
  191.0920  179.6730  144.2640 O   0  0  0  0  0  0  0  0  0  0  0  0
  190.7450  178.5600  143.7830 C   0  0  0  0  0  0  0  0  0  0  0  0
  190.8550  178.2940  142.4000 N   0  0  0  0  0  2  0  0  0  0  0  0
  191.2830  176.9600  145.5670 C   0  0  0  0  0  2  0  0  0  0  0  0
  190.7390  176.5480  146.7860 O   0  0  0  0  0  1  0  0  0  0  0  0
  188.9830  177.9390  145.4180 C   0  0  0  0  0  2  0  0  0  0  0  0
  187.8650  178.1210  144.5720 O   0  0  0  0  0  0  0  0  0  0  0  0
  186.7950  178.3580  146.7430 C   0  0  0  0  0  1  0  0  0  0  0  0
  186.6670  177.8870  145.2940 C   0  0  2  0  0  0  0  0  0  0  0  0
  186.4640  176.5210  145.3290 F   0  0  0  0  0  0  0  0  0  0  0  0
  184.2950  178.7170  145.3350 O   0  0  0  0  0  1  0  0  0  0  0  0
  185.5290  178.8850  143.4140 O   0  0  0  0  0  0  0  0  0  0  0  0
  185.4630  178.4970  144.6130 C   0  0  0  0  0  0  0  0  0  0  0  0
  184.3970  176.5820  136.3130 C   0  0  0  0  0  2  0  0  0  0  0  0
  183.0670  176.9340  136.8140 N   0  0  0  0  0  0  0  0  0  0  0  0
  182.9020  178.0990  137.6160 C   0  0  0  0  0  0  0  0  0  0  0  0
  181.1260  178.1150  136.1170 C   0  0  1  0  0  3  0  0  0  0  0  0
  181.8570  176.7750  136.0040 C   0  0  2  0  0  3  0  0  0  0  0  0
  181.8140  178.7690  137.2710 C   0  0  0  0  0  0  0  0  0  0  0  0
  184.5760  179.6110  138.6620 O   0  0  0  0  0  0  0  0  0  0  0  0
  183.9070  177.7130  139.7350 O   0  0  0  0  0  1  0  0  0  0  0  0
  183.8010  178.4620  138.7300 C   0  0  0  0  0  0  0  0  0  0  0  0
  181.3420  178.9350  134.8540 C   0  0  0  0  0  2  0  0  0  0  0  0
  181.1330  180.2880  135.1140 O   0  0  0  0  0  1  0  0  0  0  0  0
  181.3670  179.9230  137.9210 O   0  0  0  0  0  0  0  0  0  0  0  0
  179.8030  179.0410  139.5240 C   0  0  0  0  0  2  0  0  0  0  0  0
  178.9710  180.2680  139.8370 C   0  0  0  0  0  2  0  0  0  0  0  0
  181.0200  179.9210  139.3000 C   0  0  0  0  0  3  0  0  0  0  0  0
  180.1850  181.1480  139.6110 C   0  0  0  0  0  2  0  0  0  0  0  0
  180.9520  175.7250  136.6410 C   0  0  0  0  0  2  0  0  0  0  0  0
  180.5680  171.0180  136.1870 C   0  0  0  0  0  3  0  0  0  0  0  0
  181.9890  172.1120  134.6620 N   0  0  0  0  0  0  0  0  0  0  0  0
  179.0430  172.9710  136.5760 C   0  0  0  0  0  3  0  0  0  0  0  0
  180.8190  174.2990  134.5940 C   0  0  0  0  0  2  0  0  0  0  0  0
  180.0040  175.1050  135.6340 C   0  0  1  0  0  3  0  0  0  0  0  0
  180.1950  172.2710  136.0140 C   0  0  0  0  0  0  0  0  0  0  0  0
  181.0750  172.9090  135.0900 C   0  0  0  0  0  0  0  0  0  0  0  0
  181.7980  170.8240  135.3360 C   0  0  0  0  0  3  0  0  0  0  0  0
  178.9310  174.2920  136.3530 C   0  0  0  0  0  2  0  0  0  0  0  0
  1  5  1  1  0  0  0
  2  3  1  0  0  0  0
  3  6  1  6  0  0  0
  3  1  1  0  0  0  0
  4  2  1  0  0  0  0
  4  1  1  0  0  0  0
  6  7  1  1  0  0  0
  9  8  1  6  0  0  0
  9  6  1  0  0  0  0
  9 11  1  0  0  0  0
 11 10  1  6  0  0  0
 11 12  1  0  0  0  0
 12 13  1  0  0  0  0
 13 15  1  0  0  0  0
 14 12  2  0  0  0  0
 15 16  1  0  0  0  0
 16 17  1  0  0  0  0
 17 18  1  1  0  0  0
 19 27  1  1  0  0  0
 19 25  1  0  0  0  0
 20 19  1  0  0  0  0
 21 17  1  6  0  0  0
 21 24  1  0  0  0  0
 21 20  1  0  0  0  0
 23 22  2  0  0  0  0
 23 19  1  0  0  0  0
 24 23  1  0  0  0  0
 25 26  1  0  0  0  0
 28 30  1  0  0  0  0
 28 27  1  0  0  0  0
 30 31  1  0  0  0  0
 30 29  1  1  0  0  0
 33 34  2  0  0  0  0
 34 30  1  0  0  0  0
 34 32  1  0  0  0  0
 35  1  1  0  0  0  0
 35 36  1  0  0  0  0
 36 37  1  0  0  0  0
 37 43  1  0  0  0  0
 38 44  1  6  0  0  0
 38 40  1  0  0  0  0
 39 38  1  0  0  0  0
 39 51  1  1  0  0  0
 39 36  1  0  0  0  0
 40 37  2  0  0  0  0
 40 46  1  0  0  0  0
 41 43  2  0  0  0  0
 43 42  1  0  0  0  0
 44 45  1  0  0  0  0
 46 49  1  0  0  0  0
 47 48  1  0  0  0  0
 49 47  1  0  0  0  0
 49 50  1  0  0  0  0
 50 48  1  0  0  0  0
 53 58  2  0  0  0  0
 53 59  1  0  0  0  0
 55 58  1  0  0  0  0
 55 56  1  0  0  0  0
 56 60  1  0  0  0  0
 56 51  1  1  0  0  0
 57 52  1  0  0  0  0
 57 54  2  0  0  0  0
 58 57  1  0  0  0  0
 59 52  2  0  0  0  0
 60 54  1  0  0  0  0
M  END
>  <MODEL>
1

>  <REMARK>
 VINA RESULT:      -6.2      0.000      0.000
  Name = 
  21 active torsions:
  status: ('A' for Active; 'I' for Inactive)
    1  A    between atoms: N_1  and  C_47
    2  A    between atoms: C_3  and  C_28
    3  A    between atoms: C_3  and  C_38
    4  A    between atoms: C_4  and  C_42
    5  A    between atoms: C_5  and  C_18
    6  A    between atoms: C_7  and  C_32
    7  A    between atoms: O_10  and  C_30
    8  A    between atoms: O_10  and  C_48
    9  A    between atoms: C_12  and  C_47
   10  A    between atoms: C_14  and  C_20
   11  A    between atoms: C_14  and  C_28
   12  A    between atoms: C_18  and  C_22
   13  A    between atoms: N_21  and  C_52
   14  A    between atoms: C_22  and  O_44
   15  A    between atoms: C_23  and  C_26
   16  A    between atoms: C_23  and  C_52
   17  A    between atoms: C_26  and  C_27
   18  A    between atoms: C_35  and  C_59
   19  A    between atoms: C_43  and  O_44
   20  A    between atoms: C_43  and  C_60
   21  A    between atoms: C_46  and  C_59
                            x       y       z     vdW  Elec       q    Type
                         _______ _______ _______ _____ _____    ______ ____

>  <TORSDO>
F 21

$$$$
=
 OpenBabel11062414163D

 60 65  0  0  1  0  0  0  0  0999 V2000
  184.1180  178.7110  139.3590 C   0  0  1  0  0  0  0  0  0  0  0  0
  186.2180  178.7220  139.1810 O   0  0  0  0  0  0  0  0  0  0  0  0
  185.1640  178.5260  138.2700 C   0  0  1  0  0  3  0  0  0  0  0  0
  185.3120  178.9050  140.2420 C   0  0  0  0  0  2  0  0  0  0  0  0
  183.4120  179.9080  139.2400 O   0  0  0  0  0  1  0  0  0  0  0  0
  185.2400  177.1200  137.6440 C   0  0  1  0  0  3  0  0  0  0  0  0
  184.4940  177.1090  136.3240 C   0  0  0  0  0  1  0  0  0  0  0  0
  186.7250  175.3040  136.9480 O   0  0  0  0  0  1  0  0  0  0  0  0
  186.6680  176.6410  137.3560 C   0  0  1  0  0  3  0  0  0  0  0  0
  186.8330  177.8530  135.2760 O   0  0  0  0  0  1  0  0  0  0  0  0
  187.5050  177.5660  136.4640 C   0  0  2  0  0  3  0  0  0  0  0  0
  188.9380  177.1390  136.2500 C   0  0  0  0  0  0  0  0  0  0  0  0
  189.8830  177.0340  137.3240 N   0  0  0  0  0  2  0  0  0  0  0  0
  189.2290  176.5640  135.1330 N   0  0  0  0  0  2  0  0  0  0  0  0
  189.8820  177.8560  138.5250 C   0  0  0  0  0  2  0  0  0  0  0  0
  190.7730  177.2120  139.5660 C   0  0  0  0  0  2  0  0  0  0  0  0
  189.9990  176.8800  140.8320 C   0  0  2  0  0  3  0  0  0  0  0  0
  188.9540  177.7920  140.9810 O   0  0  0  0  0  1  0  0  0  0  0  0
  190.6180  177.3540  144.6680 C   0  0  2  0  0  0  0  0  0  0  0  0
  190.1160  176.0490  143.4820 S   0  0  0  0  0  0  0  0  0  0  0  0
  190.9030  176.8990  142.0630 C   0  0  2  0  0  3  0  0  0  0  0  0
  191.4950  179.5790  144.3560 O   0  0  0  0  0  0  0  0  0  0  0  0
  191.1450  178.4780  143.8500 C   0  0  0  0  0  0  0  0  0  0  0  0
  191.2310  178.2510  142.4580 N   0  0  0  0  0  2  0  0  0  0  0  0
  191.7250  176.8320  145.5780 C   0  0  0  0  0  2  0  0  0  0  0  0
  191.4110  177.0410  146.9240 O   0  0  0  0  0  1  0  0  0  0  0  0
  189.4170  177.8010  145.4990 C   0  0  0  0  0  2  0  0  0  0  0  0
  188.3360  178.1680  144.6650 O   0  0  0  0  0  0  0  0  0  0  0  0
  187.2540  177.3090  146.6670 C   0  0  0  0  0  1  0  0  0  0  0  0
  187.1260  177.6360  145.1780 C   0  0  2  0  0  0  0  0  0  0  0  0
  186.8850  176.4440  144.5220 F   0  0  0  0  0  0  0  0  0  0  0  0
  185.5730  179.4990  145.8410 O   0  0  0  0  0  1  0  0  0  0  0  0
  185.3380  178.4890  143.7990 O   0  0  0  0  0  0  0  0  0  0  0  0
  185.9450  178.5390  144.9050 C   0  0  0  0  0  0  0  0  0  0  0  0
  183.2640  177.5300  139.8330 C   0  0  0  0  0  2  0  0  0  0  0  0
  181.9060  177.5330  139.2850 N   0  0  0  0  0  0  0  0  0  0  0  0
  181.0030  178.5740  139.6480 C   0  0  0  0  0  0  0  0  0  0  0  0
  180.7350  178.2830  137.3580 C   0  0  1  0  0  3  0  0  0  0  0  0
  181.6180  177.1560  137.9000 C   0  0  2  0  0  3  0  0  0  0  0  0
  180.3140  178.9990  138.6000 C   0  0  0  0  0  0  0  0  0  0  0  0
  181.0390  180.3930  141.3430 O   0  0  0  0  0  0  0  0  0  0  0  0
  180.5110  178.2590  141.9510 O   0  0  0  0  0  1  0  0  0  0  0  0
  180.8230  179.0580  141.0320 C   0  0  0  0  0  0  0  0  0  0  0  0
  181.5570  179.2130  136.4780 C   0  0  0  0  0  2  0  0  0  0  0  0
  180.9350  179.3850  135.2420 O   0  0  0  0  0  1  0  0  0  0  0  0
  179.3150  179.9730  138.6640 O   0  0  0  0  0  0  0  0  0  0  0  0
  178.9310  182.1510  137.7140 C   0  0  0  0  0  2  0  0  0  0  0  0
  180.2720  182.4400  137.0730 C   0  0  0  0  0  2  0  0  0  0  0  0
  179.6220  181.3550  138.8060 C   0  0  0  0  0  3  0  0  0  0  0  0
  180.9630  181.6430  138.1620 C   0  0  0  0  0  2  0  0  0  0  0  0
  180.7710  175.8870  137.8830 C   0  0  0  0  0  2  0  0  0  0  0  0
  182.5260  171.5670  137.0070 C   0  0  0  0  0  3  0  0  0  0  0  0
  183.9100  173.3950  136.4730 N   0  0  0  0  0  0  0  0  0  0  0  0
  180.3530  172.7800  136.6980 C   0  0  0  0  0  3  0  0  0  0  0  0
  182.1310  175.0480  135.9620 C   0  0  0  0  0  2  0  0  0  0  0  0
  180.6980  175.2720  136.5000 C   0  0  1  0  0  3  0  0  0  0  0  0
  181.8060  172.6410  136.7490 C   0  0  0  0  0  0  0  0  0  0  0  0
  182.6690  173.7310  136.4320 C   0  0  0  0  0  0  0  0  0  0  0  0
  183.9690  171.9870  136.8790 C   0  0  0  0  0  2  0  0  0  0  0  0
  179.8380  174.0110  136.5300 C   0  0  0  0  0  3  0  0  0  0  0  0
  1  5  1  6  0  0  0
  1 35  1  0  0  0  0
  1  4  1  0  0  0  0
  2  4  1  0  0  0  0
  3  6  1  1  0  0  0
  3  2  1  0  0  0  0
  3  1  1  0  0  0  0
  6  7  1  6  0  0  0
  9  8  1  6  0  0  0
  9  6  1  0  0  0  0
 11 10  1  6  0  0  0
 11  9  1  0  0  0  0
 12 11  1  0  0  0  0
 12 13  1  0  0  0  0
 13 15  1  0  0  0  0
 14 12  2  0  0  0  0
 15 16  1  0  0  0  0
 16 17  1  0  0  0  0
 17 18  1  1  0  0  0
 19 27  1  1  0  0  0
 19 25  1  0  0  0  0
 20 19  1  0  0  0  0
 21 17  1  6  0  0  0
 21 24  1  0  0  0  0
 21 20  1  0  0  0  0
 23 22  2  0  0  0  0
 23 19  1  0  0  0  0
 24 23  1  0  0  0  0
 25 26  1  0  0  0  0
 28 30  1  0  0  0  0
 28 27  1  0  0  0  0
 30 29  1  1  0  0  0
 31 30  1  0  0  0  0
 33 34  2  0  0  0  0
 34 30  1  0  0  0  0
 34 32  1  0  0  0  0
 36 37  1  0  0  0  0
 36 35  1  0  0  0  0
 37 43  1  0  0  0  0
 38 44  1  6  0  0  0
 38 39  1  0  0  0  0
 38 40  1  0  0  0  0
 39 51  1  1  0  0  0
 39 36  1  0  0  0  0
 40 46  1  0  0  0  0
 40 37  2  0  0  0  0
 43 41  2  0  0  0  0
 43 42  1  0  0  0  0
 45 44  1  0  0  0  0
 46 49  1  0  0  0  0
 47 49  1  0  0  0  0
 48 47  1  0  0  0  0
 48 50  1  0  0  0  0
 50 49  1  0  0  0  0
 53 59  1  0  0  0  0
 54 57  1  0  0  0  0
 55 58  1  0  0  0  0
 55 56  1  0  0  0  0
 56 60  1  0  0  0  0
 56 51  1  1  0  0  0
 57 52  2  0  0  0  0
 58 53  2  0  0  0  0
 58 57  1  0  0  0  0
 59 52  1  0  0  0  0
 60 54  2  0  0  0  0
M  END
>  <MODEL>
2

>  <REMARK>
 VINA RESULT:      -6.2      1.717      2.676
  Name = 
  21 active torsions:
  status: ('A' for Active; 'I' for Inactive)
    1  A    between atoms: N_1  and  C_47
    2  A    between atoms: C_3  and  C_28
    3  A    between atoms: C_3  and  C_38
    4  A    between atoms: C_4  and  C_42
    5  A    between atoms: C_5  and  C_18
    6  A    between atoms: C_7  and  C_32
    7  A    between atoms: O_10  and  C_30
    8  A    between atoms: O_10  and  C_48
    9  A    between atoms: C_12  and  C_47
   10  A    between atoms: C_14  and  C_20
   11  A    between atoms: C_14  and  C_28
   12  A    between atoms: C_18  and  C_22
   13  A    between atoms: N_21  and  C_52
   14  A    between atoms: C_22  and  O_44
   15  A    between atoms: C_23  and  C_26
   16  A    between atoms: C_23  and  C_52
   17  A    between atoms: C_26  and  C_27
   18  A    between atoms: C_35  and  C_59
   19  A    between atoms: C_43  and  O_44
   20  A    between atoms: C_43  and  C_60
   21  A    between atoms: C_46  and  C_59
                            x       y       z     vdW  Elec       q    Type
                         _______ _______ _______ _____ _____    ______ ____

>  <TORSDO>
F 21

$$$$
=
 OpenBabel11062414163D

 60 65  0  0  1  0  0  0  0  0999 V2000
  184.5220  178.2780  138.4350 C   0  0  1  0  0  0  0  0  0  0  0  0
  186.6210  178.3520  138.2550 O   0  0  0  0  0  0  0  0  0  0  0  0
  185.5670  178.2580  137.3290 C   0  0  1  0  0  3  0  0  0  0  0  0
  185.7160  178.3760  139.3340 C   0  0  0  0  0  2  0  0  0  0  0  0
  183.7920  179.4650  138.4770 O   0  0  0  0  0  1  0  0  0  0  0  0
  185.6660  176.9490  136.5230 C   0  0  1  0  0  3  0  0  0  0  0  0
  186.0990  177.2570  135.1020 C   0  0  0  0  0  1  0  0  0  0  0  0
  186.0840  174.7320  137.4690 O   0  0  0  0  0  1  0  0  0  0  0  0
  186.6740  175.9420  137.0890 C   0  0  1  0  0  3  0  0  0  0  0  0
  187.6720  175.0120  135.0980 O   0  0  0  0  0  1  0  0  0  0  0  0
  187.9450  175.7420  136.2550 C   0  0  2  0  0  3  0  0  0  0  0  0
  189.1460  175.2280  137.0150 C   0  0  0  0  0  0  0  0  0  0  0  0
  189.8080  175.9960  138.0290 N   0  0  0  0  0  2  0  0  0  0  0  0
  189.3860  173.9610  136.9660 N   0  0  0  0  0  2  0  0  0  0  0  0
  189.9090  177.4480  138.0470 C   0  0  0  0  0  2  0  0  0  0  0  0
  190.2930  177.8990  139.4410 C   0  0  0  0  0  2  0  0  0  0  0  0
  189.7170  176.9760  140.5030 C   0  0  2  0  0  3  0  0  0  0  0  0
  188.4970  177.4910  140.9430 O   0  0  0  0  0  1  0  0  0  0  0  0
  190.5840  177.1050  144.3180 C   0  0  2  0  0  0  0  0  0  0  0  0
  189.8680  175.9540  143.0840 S   0  0  0  0  0  0  0  0  0  0  0  0
  190.6780  176.8030  141.6780 C   0  0  2  0  0  3  0  0  0  0  0  0
  191.7040  179.2290  144.0970 O   0  0  0  0  0  0  0  0  0  0  0  0
  191.1990  178.2140  143.5440 C   0  0  0  0  0  0  0  0  0  0  0  0
  191.1860  178.0770  142.1370 N   0  0  0  0  0  2  0  0  0  0  0  0
  191.6640  176.3950  145.1270 C   0  0  0  0  0  2  0  0  0  0  0  0
  191.8600  177.0180  146.3620 O   0  0  0  0  0  1  0  0  0  0  0  0
  189.4880  177.6300  145.2450 C   0  0  0  0  0  2  0  0  0  0  0  0
  188.3840  178.1060  144.5020 O   0  0  0  0  0  0  0  0  0  0  0  0
  187.2330  177.8400  146.6280 C   0  0  0  0  0  1  0  0  0  0  0  0
  187.1740  177.6830  145.1080 C   0  0  2  0  0  0  0  0  0  0  0  0
  187.0280  176.3340  144.8460 F   0  0  0  0  0  0  0  0  0  0  0  0
  184.9070  178.7430  145.3440 O   0  0  0  0  0  1  0  0  0  0  0  0
  185.9470  178.7150  143.3030 O   0  0  0  0  0  0  0  0  0  0  0  0
  185.9690  178.3820  144.5200 C   0  0  0  0  0  0  0  0  0  0  0  0
  183.6930  177.0270  138.7500 C   0  0  0  0  0  2  0  0  0  0  0  0
  182.3250  177.3260  139.1800 N   0  0  0  0  0  0  0  0  0  0  0  0
  182.1040  178.2940  140.2020 C   0  0  0  0  0  0  0  0  0  0  0  0
  180.5030  178.7260  138.5730 C   0  0  1  0  0  3  0  0  0  0  0  0
  181.2070  177.4080  138.2380 C   0  0  2  0  0  3  0  0  0  0  0  0
  181.0780  179.0770  139.9070 C   0  0  0  0  0  0  0  0  0  0  0  0
  183.8090  177.3690  141.7570 O   0  0  0  0  0  0  0  0  0  0  0  0
  182.6960  179.2900  142.2760 O   0  0  0  0  0  1  0  0  0  0  0  0
  182.8860  178.3590  141.4530 C   0  0  0  0  0  0  0  0  0  0  0  0
  180.8770  179.7910  137.5520 C   0  0  0  0  0  2  0  0  0  0  0  0
  179.7280  180.3760  137.0210 O   0  0  0  0  0  1  0  0  0  0  0  0
  180.5930  180.0810  140.7490 O   0  0  0  0  0  0  0  0  0  0  0  0
  179.4510  180.4320  142.8390 C   0  0  0  0  0  2  0  0  0  0  0  0
  179.2420  179.0080  143.3090 C   0  0  0  0  0  2  0  0  0  0  0  0
  179.3310  179.9750  141.3960 C   0  0  0  0  0  3  0  0  0  0  0  0
  179.1240  178.5490  141.8690 C   0  0  0  0  0  2  0  0  0  0  0  0
  180.2110  176.2910  138.5310 C   0  0  0  0  0  2  0  0  0  0  0  0
  182.6640  173.2360  135.8560 C   0  0  0  0  0  3  0  0  0  0  0  0
  182.7020  175.4910  135.1840 N   0  0  0  0  0  0  0  0  0  0  0  0
  180.4210  173.3300  136.9760 C   0  0  0  0  0  3  0  0  0  0  0  0
  180.4740  176.1560  136.0500 C   0  0  0  0  0  2  0  0  0  0  0  0
  179.6240  175.7060  137.2620 C   0  0  1  0  0  3  0  0  0  0  0  0
  181.5800  173.8650  136.2650 C   0  0  0  0  0  0  0  0  0  0  0  0
  181.6320  175.2270  135.8470 C   0  0  0  0  0  0  0  0  0  0  0  0
  183.5040  174.2640  135.1410 C   0  0  0  0  0  3  0  0  0  0  0  0
  179.4810  174.1930  137.3980 C   0  0  0  0  0  2  0  0  0  0  0  0
  1  5  1  6  0  0  0
  1 35  1  0  0  0  0
  1  4  1  0  0  0  0
  2  4  1  0  0  0  0
  3  6  1  1  0  0  0
  3  2  1  0  0  0  0
  3  1  1  0  0  0  0
  6  7  1  6  0  0  0
  6  9  1  0  0  0  0
  9  8  1  6  0  0  0
 11 10  1  6  0  0  0
 11 12  1  0  0  0  0
 11  9  1  0  0  0  0
 12 13  1  0  0  0  0
 13 15  1  0  0  0  0
 14 12  2  0  0  0  0
 15 16  1  0  0  0  0
 16 17  1  0  0  0  0
 17 18  1  1  0  0  0
 19 25  1  1  0  0  0
 19 27  1  0  0  0  0
 20 19  1  0  0  0  0
 21 17  1  6  0  0  0
 21 24  1  0  0  0  0
 21 20  1  0  0  0  0
 23 22  2  0  0  0  0
 23 19  1  0  0  0  0
 24 23  1  0  0  0  0
 25 26  1  0  0  0  0
 28 30  1  0  0  0  0
 28 27  1  0  0  0  0
 30 29  1  1  0  0  0
 31 30  1  0  0  0  0
 33 34  2  0  0  0  0
 34 30  1  0  0  0  0
 34 32  1  0  0  0  0
 35 36  1  0  0  0  0
 36 37  1  0  0  0  0
 37 43  1  0  0  0  0
 38 44  1  6  0  0  0
 38 40  1  0  0  0  0
 39 51  1  1  0  0  0
 39 38  1  0  0  0  0
 39 36  1  0  0  0  0
 40 37  2  0  0  0  0
 40 46  1  0  0  0  0
 43 41  2  0  0  0  0
 43 42  1  0  0  0  0
 45 44  1  0  0  0  0
 46 49  1  0  0  0  0
 47 48  1  0  0  0  0
 49 50  1  0  0  0  0
 49 47  1  0  0  0  0
 50 48  1  0  0  0  0
 52 57  1  0  0  0  0
 53 58  2  0  0  0  0
 54 60  1  0  0  0  0
 55 56  1  0  0  0  0
 56 60  1  0  0  0  0
 56 51  1  1  0  0  0
 57 54  2  0  0  0  0
 58 55  1  0  0  0  0
 58 57  1  0  0  0  0
 59 53  1  0  0  0  0
 59 52  2  0  0  0  0
M  END
>  <MODEL>
3

>  <REMARK>
 VINA RESULT:      -5.6      1.623      2.557
  Name = 
  21 active torsions:
  status: ('A' for Active; 'I' for Inactive)
    1  A    between atoms: N_1  and  C_47
    2  A    between atoms: C_3  and  C_28
    3  A    between atoms: C_3  and  C_38
    4  A    between atoms: C_4  and  C_42
    5  A    between atoms: C_5  and  C_18
    6  A    between atoms: C_7  and  C_32
    7  A    between atoms: O_10  and  C_30
    8  A    between atoms: O_10  and  C_48
    9  A    between atoms: C_12  and  C_47
   10  A    between atoms: C_14  and  C_20
   11  A    between atoms: C_14  and  C_28
   12  A    between atoms: C_18  and  C_22
   13  A    between atoms: N_21  and  C_52
   14  A    between atoms: C_22  and  O_44
   15  A    between atoms: C_23  and  C_26
   16  A    between atoms: C_23  and  C_52
   17  A    between atoms: C_26  and  C_27
   18  A    between atoms: C_35  and  C_59
   19  A    between atoms: C_43  and  O_44
   20  A    between atoms: C_43  and  C_60
   21  A    between atoms: C_46  and  C_59
                            x       y       z     vdW  Elec       q    Type
                         _______ _______ _______ _____ _____    ______ ____

>  <TORSDO>
F 21

$$$$
=
 OpenBabel11062414163D

 60 65  0  0  1  0  0  0  0  0999 V2000
  187.1270  178.3470  136.8320 C   0  0  1  0  0  0  0  0  0  0  0  0
  189.0630  178.1880  136.0140 O   0  0  0  0  0  0  0  0  0  0  0  0
  187.8280  177.5840  135.7190 C   0  0  1  0  0  3  0  0  0  0  0  0
  188.4880  178.9300  137.0620 C   0  0  0  0  0  2  0  0  0  0  0  0
  186.2590  179.3310  136.3580 O   0  0  0  0  0  1  0  0  0  0  0  0
  187.9120  176.0560  135.9010 C   0  0  1  0  0  3  0  0  0  0  0  0
  188.3260  175.4080  134.5940 C   0  0  0  0  0  1  0  0  0  0  0  0
  188.3200  175.0420  138.0910 O   0  0  0  0  0  1  0  0  0  0  0  0
  188.9230  175.6090  136.9630 C   0  0  1  0  0  3  0  0  0  0  0  0
  190.0770  173.4890  136.9850 O   0  0  0  0  0  1  0  0  0  0  0  0
  190.1000  174.7750  136.4420 C   0  0  2  0  0  3  0  0  0  0  0  0
  191.4550  175.4360  136.5330 C   0  0  0  0  0  0  0  0  0  0  0  0
  191.8330  176.2780  137.6300 N   0  0  0  0  0  2  0  0  0  0  0  0
  192.3910  174.9880  135.7670 N   0  0  0  0  0  2  0  0  0  0  0  0
  190.9230  177.1150  138.3970 C   0  0  0  0  0  2  0  0  0  0  0  0
  191.4510  177.2590  139.8090 C   0  0  0  0  0  2  0  0  0  0  0  0
  190.4180  176.8250  140.8360 C   0  0  2  0  0  3  0  0  0  0  0  0
  189.3640  177.7390  140.8380 O   0  0  0  0  0  1  0  0  0  0  0  0
  190.3670  177.4480  144.7000 C   0  0  2  0  0  0  0  0  0  0  0  0
  189.7710  176.2250  143.4720 S   0  0  0  0  0  0  0  0  0  0  0  0
  191.0280  176.7110  142.2320 C   0  0  2  0  0  3  0  0  0  0  0  0
  191.8670  179.3290  144.5200 O   0  0  0  0  0  0  0  0  0  0  0  0
  191.3350  178.3190  143.9830 C   0  0  0  0  0  0  0  0  0  0  0  0
  191.6300  177.9580  142.6490 N   0  0  0  0  0  2  0  0  0  0  0  0
  191.0830  176.7340  145.8420 C   0  0  0  0  0  2  0  0  0  0  0  0
  190.4280  176.9470  147.0580 O   0  0  0  0  0  1  0  0  0  0  0  0
  189.1950  178.2670  145.2400 C   0  0  0  0  0  2  0  0  0  0  0  0
  188.0100  177.9810  144.5250 O   0  0  0  0  0  0  0  0  0  0  0  0
  187.3560  178.1080  146.8650 C   0  0  0  0  0  1  0  0  0  0  0  0
  186.9320  177.7960  145.4290 C   0  0  2  0  0  0  0  0  0  0  0  0
  186.5830  176.4600  145.3910 F   0  0  0  0  0  0  0  0  0  0  0  0
  185.4310  178.7950  143.6770 O   0  0  0  0  0  0  0  0  0  0  0  0
  184.8880  178.9930  145.8930 O   0  0  0  0  0  1  0  0  0  0  0  0
  185.7080  178.5860  145.0240 C   0  0  0  0  0  0  0  0  0  0  0  0
  186.6180  177.6190  138.0810 C   0  0  0  0  0  2  0  0  0  0  0  0
  185.2600  177.0900  137.9360 N   0  0  0  0  0  0  0  0  0  0  0  0
  184.1450  177.9640  138.0850 C   0  0  0  0  0  0  0  0  0  0  0  0
  183.6640  176.6460  136.2330 C   0  0  1  0  0  3  0  0  0  0  0  0
  184.9110  176.0900  136.9250 C   0  0  2  0  0  3  0  0  0  0  0  0
  183.2230  177.7270  137.1660 C   0  0  0  0  0  0  0  0  0  0  0  0
  184.3490  180.2870  138.9510 O   0  0  0  0  0  0  0  0  0  0  0  0
  183.6550  178.6010  140.3220 O   0  0  0  0  0  1  0  0  0  0  0  0
  184.0210  178.9570  139.1720 C   0  0  0  0  0  0  0  0  0  0  0  0
  184.0380  177.2460  134.8860 C   0  0  0  0  0  2  0  0  0  0  0  0
  183.2170  178.3340  134.5950 O   0  0  0  0  0  1  0  0  0  0  0  0
  181.9960  178.3920  137.0990 O   0  0  0  0  0  0  0  0  0  0  0  0
  179.6350  178.0600  137.4310 C   0  0  0  0  0  2  0  0  0  0  0  0
  179.2140  179.4130  137.9670 C   0  0  0  0  0  2  0  0  0  0  0  0
  180.9930  178.2180  138.0920 C   0  0  0  0  0  3  0  0  0  0  0  0
  180.5710  179.5730  138.6260 C   0  0  0  0  0  2  0  0  0  0  0  0
  184.4910  174.7950  137.6130 C   0  0  0  0  0  2  0  0  0  0  0  0
  181.8330  172.2320  134.6340 C   0  0  0  0  0  3  0  0  0  0  0  0
  182.0020  171.4390  136.8440 N   0  0  0  0  0  0  0  0  0  0  0  0
  184.0550  173.3960  134.5990 C   0  0  0  0  0  3  0  0  0  0  0  0
  184.2630  172.3190  137.3640 C   0  0  0  0  0  2  0  0  0  0  0  0
  185.0490  173.5730  136.9110 C   0  0  1  0  0  3  0  0  0  0  0  0
  182.9600  172.6310  135.1910 C   0  0  0  0  0  0  0  0  0  0  0  0
  183.0330  172.1400  136.5280 C   0  0  0  0  0  0  0  0  0  0  0  0
  181.0980  171.4440  135.6890 C   0  0  0  0  0  2  0  0  0  0  0  0
  185.0590  173.7930  135.4010 C   0  0  0  0  0  3  0  0  0  0  0  0
  1  5  1  6  0  0  0
  1  4  1  0  0  0  0
  1 35  1  0  0  0  0
  2  4  1  0  0  0  0
  3  6  1  1  0  0  0
  3  2  1  0  0  0  0
  3  1  1  0  0  0  0
  6  7  1  6  0  0  0
  6  9  1  0  0  0  0
  9  8  1  1  0  0  0
 11 12  1  0  0  0  0
 11  9  1  0  0  0  0
 11 10  1  1  0  0  0
 12 13  1  0  0  0  0
 13 15  1  0  0  0  0
 14 12  2  0  0  0  0
 15 16  1  0  0  0  0
 16 17  1  0  0  0  0
 17 18  1  1  0  0  0
 19 27  1  1  0  0  0
 19 25  1  0  0  0  0
 20 19  1  0  0  0  0
 21 17  1  6  0  0  0
 21 24  1  0  0  0  0
 21 20  1  0  0  0  0
 23 22  2  0  0  0  0
 23 19  1  0  0  0  0
 24 23  1  0  0  0  0
 25 26  1  0  0  0  0
 28 27  1  0  0  0  0
 28 30  1  0  0  0  0
 30 29  1  1  0  0  0
 31 30  1  0  0  0  0
 32 34  2  0  0  0  0
 34 30  1  0  0  0  0
 34 33  1  0  0  0  0
 36 35  1  0  0  0  0
 36 37  1  0  0  0  0
 37 43  1  0  0  0  0
 38 44  1  6  0  0  0
 38 39  1  0  0  0  0
 38 40  1  0  0  0  0
 39 51  1  1  0  0  0
 39 36  1  0  0  0  0
 40 37  2  0  0  0  0
 41 43  2  0  0  0  0
 43 42  1  0  0  0  0
 45 44  1  0  0  0  0
 46 40  1  0  0  0  0
 46 49  1  0  0  0  0
 47 48  1  0  0  0  0
 47 49  1  0  0  0  0
 48 50  1  0  0  0  0
 49 50  1  0  0  0  0
 52 57  2  0  0  0  0
 52 59  1  0  0  0  0
 54 57  1  0  0  0  0
 54 60  2  0  0  0  0
 56 55  1  0  0  0  0
 56 51  1  1  0  0  0
 57 58  1  0  0  0  0
 58 53  2  0  0  0  0
 58 55  1  0  0  0  0
 59 53  1  0  0  0  0
 60 56  1  0  0  0  0
M  END
>  <MODEL>
4

>  <REMARK>
 VINA RESULT:      -5.4      1.721      2.691
  Name = 
  21 active torsions:
  status: ('A' for Active; 'I' for Inactive)
    1  A    between atoms: N_1  and  C_47
    2  A    between atoms: C_3  and  C_28
    3  A    between atoms: C_3  and  C_38
    4  A    between atoms: C_4  and  C_42
    5  A    between atoms: C_5  and  C_18
    6  A    between atoms: C_7  and  C_32
    7  A    between atoms: O_10  and  C_30
    8  A    between atoms: O_10  and  C_48
    9  A    between atoms: C_12  and  C_47
   10  A    between atoms: C_14  and  C_20
   11  A    between atoms: C_14  and  C_28
   12  A    between atoms: C_18  and  C_22
   13  A    between atoms: N_21  and  C_52
   14  A    between atoms: C_22  and  O_44
   15  A    between atoms: C_23  and  C_26
   16  A    between atoms: C_23  and  C_52
   17  A    between atoms: C_26  and  C_27
   18  A    between atoms: C_35  and  C_59
   19  A    between atoms: C_43  and  O_44
   20  A    between atoms: C_43  and  C_60
   21  A    between atoms: C_46  and  C_59
                            x       y       z     vdW  Elec       q    Type
                         _______ _______ _______ _____ _____    ______ ____

>  <TORSDO>
F 21

$$$$
=
 OpenBabel11062414163D

 60 65  0  0  1  0  0  0  0  0999 V2000
  189.5820  177.6130  139.5430 C   0  0  1  0  0  0  0  0  0  0  0  0
  188.1140  177.9180  141.0240 O   0  0  0  0  0  0  0  0  0  0  0  0
  189.5110  178.0740  140.9910 C   0  0  1  0  0  3  0  0  0  0  0  0
  188.0970  177.4810  139.6860 C   0  0  0  0  0  2  0  0  0  0  0  0
  189.8880  178.6440  138.6540 O   0  0  0  0  0  1  0  0  0  0  0  0
  190.1870  177.1520  142.0240 C   0  0  1  0  0  3  0  0  0  0  0  0
  191.6880  177.1540  141.8040 C   0  0  0  0  0  1  0  0  0  0  0  0
  189.7370  178.9410  143.6320 O   0  0  0  0  0  1  0  0  0  0  0  0
  189.9480  177.5660  143.4800 C   0  0  1  0  0  3  0  0  0  0  0  0
  188.1360  175.9770  143.3620 O   0  0  0  0  0  1  0  0  0  0  0  0
  188.9180  176.7240  144.2430 C   0  0  2  0  0  3  0  0  0  0  0  0
  188.1040  177.4720  145.2740 C   0  0  0  0  0  0  0  0  0  0  0  0
  186.6700  177.4920  145.2620 N   0  0  0  0  0  2  0  0  0  0  0  0
  188.7030  177.8390  146.3560 N   0  0  0  0  0  2  0  0  0  0  0  0
  185.8410  177.4190  144.0690 C   0  0  0  0  0  2  0  0  0  0  0  0
  185.8610  178.7620  143.3690 C   0  0  0  0  0  2  0  0  0  0  0  0
  184.4710  179.3750  143.3040 C   0  0  2  0  0  3  0  0  0  0  0  0
  184.0400  179.6690  144.5970 O   0  0  0  0  0  1  0  0  0  0  0  0
  181.7680  178.6010  140.5810 C   0  0  2  0  0  0  0  0  0  0  0  0
  183.5880  178.5870  140.7880 S   0  0  0  0  0  0  0  0  0  0  0  0
  183.4790  178.4440  142.6100 C   0  0  2  0  0  3  0  0  0  0  0  0
  179.9580  178.8770  142.1520 O   0  0  0  0  0  0  0  0  0  0  0  0
  181.1950  178.7420  141.9450 C   0  0  0  0  0  0  0  0  0  0  0  0
  182.1190  178.7240  143.0150 N   0  0  0  0  0  2  0  0  0  0  0  0
  181.3020  177.2810  139.9740 C   0  0  0  0  0  2  0  0  0  0  0  0
  182.3490  176.3570  139.9140 O   0  0  0  0  0  1  0  0  0  0  0  0
  181.3470  179.7700  139.6910 C   0  0  0  0  0  2  0  0  0  0  0  0
  181.1670  179.3460  138.3550 O   0  0  0  0  0  0  0  0  0  0  0  0
  180.4170  181.6590  138.3100 C   0  0  0  0  0  1  0  0  0  0  0  0
  180.3600  180.2780  137.6550 C   0  0  2  0  0  0  0  0  0  0  0  0
  179.0510  179.8430  137.7420 F   0  0  0  0  0  0  0  0  0  0  0  0
  181.0520  179.1810  135.5020 O   0  0  0  0  0  0  0  0  0  0  0  0
  180.6150  181.4280  135.5480 O   0  0  0  0  0  1  0  0  0  0  0  0
  180.7080  180.3430  136.1850 C   0  0  0  0  0  0  0  0  0  0  0  0
  190.2250  176.2690  139.1810 C   0  0  0  0  0  2  0  0  0  0  0  0
  190.7550  176.2240  137.8160 N   0  0  0  0  0  0  0  0  0  0  0  0
  192.0900  175.7770  137.5940 C   0  0  0  0  0  0  0  0  0  0  0  0
  190.8080  174.7610  135.9440 C   0  0  1  0  0  3  0  0  0  0  0  0
  189.9460  175.7950  136.6740 C   0  0  2  0  0  3  0  0  0  0  0  0
  192.1600  174.9790  136.5410 C   0  0  0  0  0  0  0  0  0  0  0  0
  193.1810  177.3830  139.1490 O   0  0  0  0  0  1  0  0  0  0  0  0
  194.3150  175.5520  138.3990 O   0  0  0  0  0  0  0  0  0  0  0  0
  193.2450  176.2130  138.4050 C   0  0  0  0  0  0  0  0  0  0  0  0
  190.3210  173.3560  136.2640 C   0  0  0  0  0  2  0  0  0  0  0  0
  191.2350  172.4100  135.8030 O   0  0  0  0  0  1  0  0  0  0  0  0
  193.3500  174.4340  136.0510 O   0  0  0  0  0  0  0  0  0  0  0  0
  195.4890  174.8170  135.0170 C   0  0  0  0  0  2  0  0  0  0  0  0
  195.6050  176.3240  135.1160 C   0  0  0  0  0  2  0  0  0  0  0  0
  193.9820  174.9400  134.8820 C   0  0  0  0  0  3  0  0  0  0  0  0
  194.1000  176.4480  134.9840 C   0  0  0  0  0  2  0  0  0  0  0  0
  189.7570  176.9660  135.7150 C   0  0  0  0  0  2  0  0  0  0  0  0
  185.2720  177.4650  137.1810 C   0  0  0  0  0  3  0  0  0  0  0  0
  186.1310  175.2740  137.1460 N   0  0  0  0  0  0  0  0  0  0  0  0
  186.7280  178.3510  135.3400 C   0  0  0  0  0  3  0  0  0  0  0  0
  187.7410  175.5550  135.2780 C   0  0  0  0  0  2  0  0  0  0  0  0
  188.5900  176.7460  134.7730 C   0  0  1  0  0  3  0  0  0  0  0  0
  186.2320  177.3530  136.2840 C   0  0  0  0  0  0  0  0  0  0  0  0
  186.7350  176.0180  136.2880 C   0  0  0  0  0  0  0  0  0  0  0  0
  185.1530  176.1150  137.8430 C   0  0  0  0  0  2  0  0  0  0  0  0
  187.8050  178.0430  134.5970 C   0  0  0  0  0  3  0  0  0  0  0  0
  1  5  1  6  0  0  0
  1  4  1  0  0  0  0
  1  3  1  0  0  0  0
  3  2  1  0  0  0  0
  3  6  1  1  0  0  0
  4  2  1  0  0  0  0
  6  7  1  6  0  0  0
  6  9  1  0  0  0  0
  9  8  1  6  0  0  0
  9 11  1  0  0  0  0
 11 10  1  6  0  0  0
 11 12  1  0  0  0  0
 12 14  2  0  0  0  0
 13 12  1  0  0  0  0
 15 13  1  0  0  0  0
 16 15  1  0  0  0  0
 17 16  1  0  0  0  0
 17 18  1  1  0  0  0
 19 27  1  6  0  0  0
 19 20  1  0  0  0  0
 19 23  1  0  0  0  0
 20 21  1  0  0  0  0
 21 24  1  0  0  0  0
 21 17  1  1  0  0  0
 23 22  2  0  0  0  0
 23 24  1  0  0  0  0
 25 19  1  0  0  0  0
 26 25  1  0  0  0  0
 28 27  1  0  0  0  0
 30 31  1  0  0  0  0
 30 29  1  1  0  0  0
 30 28  1  0  0  0  0
 32 34  2  0  0  0  0
 33 34  1  0  0  0  0
 34 30  1  0  0  0  0
 35  1  1  0  0  0  0
 36 35  1  0  0  0  0
 37 36  1  0  0  0  0
 37 43  1  0  0  0  0
 38 44  1  1  0  0  0
 38 40  1  0  0  0  0
 38 39  1  0  0  0  0
 39 51  1  6  0  0  0
 39 36  1  0  0  0  0
 40 37  2  0  0  0  0
 42 43  2  0  0  0  0
 43 41  1  0  0  0  0
 45 44  1  0  0  0  0
 46 40  1  0  0  0  0
 47 48  1  0  0  0  0
 49 50  1  0  0  0  0
 49 47  1  0  0  0  0
 49 46  1  0  0  0  0
 50 48  1  0  0  0  0
 52 59  1  0  0  0  0
 53 59  1  0  0  0  0
 54 57  1  0  0  0  0
 55 58  1  0  0  0  0
 56 55  1  0  0  0  0
 56 51  1  1  0  0  0
 57 58  1  0  0  0  0
 57 52  2  0  0  0  0
 58 53  2  0  0  0  0
 60 56  1  0  0  0  0
 60 54  2  0  0  0  0
M  END
>  <MODEL>
5

>  <REMARK>
 VINA RESULT:      -5.2      3.568      9.555
  Name = 
  21 active torsions:
  status: ('A' for Active; 'I' for Inactive)
    1  A    between atoms: N_1  and  C_47
    2  A    between atoms: C_3  and  C_28
    3  A    between atoms: C_3  and  C_38
    4  A    between atoms: C_4  and  C_42
    5  A    between atoms: C_5  and  C_18
    6  A    between atoms: C_7  and  C_32
    7  A    between atoms: O_10  and  C_30
    8  A    between atoms: O_10  and  C_48
    9  A    between atoms: C_12  and  C_47
   10  A    between atoms: C_14  and  C_20
   11  A    between atoms: C_14  and  C_28
   12  A    between atoms: C_18  and  C_22
   13  A    between atoms: N_21  and  C_52
   14  A    between atoms: C_22  and  O_44
   15  A    between atoms: C_23  and  C_26
   16  A    between atoms: C_23  and  C_52
   17  A    between atoms: C_26  and  C_27
   18  A    between atoms: C_35  and  C_59
   19  A    between atoms: C_43  and  O_44
   20  A    between atoms: C_43  and  C_60
   21  A    between atoms: C_46  and  C_59
                            x       y       z     vdW  Elec       q    Type
                         _______ _______ _______ _____ _____    ______ ____

>  <TORSDO>
F 21

$$$$
=
 OpenBabel11062414163D

 60 65  0  0  1  0  0  0  0  0999 V2000
  184.9460  175.6260  136.7400 C   0  0  1  0  0  0  0  0  0  0  0  0
  186.2570  175.0310  135.2000 O   0  0  0  0  0  0  0  0  0  0  0  0
  186.4450  175.5020  136.5110 C   0  0  1  0  0  3  0  0  0  0  0  0
  184.8580  175.1180  135.3330 C   0  0  0  0  0  2  0  0  0  0  0  0
  184.4470  174.6710  137.6250 O   0  0  0  0  0  1  0  0  0  0  0  0
  187.2350  176.8250  136.5070 C   0  0  1  0  0  3  0  0  0  0  0  0
  186.2840  177.9880  136.7180 C   0  0  0  0  0  1  0  0  0  0  0  0
  188.5190  175.7020  138.2620 O   0  0  0  0  0  1  0  0  0  0  0  0
  188.3050  176.9170  137.6010 C   0  0  1  0  0  3  0  0  0  0  0  0
  189.4350  178.3530  136.0250 O   0  0  0  0  0  1  0  0  0  0  0  0
  189.6120  177.6020  137.1880 C   0  0  2  0  0  3  0  0  0  0  0  0
  190.8270  176.7050  137.1370 C   0  0  0  0  0  0  0  0  0  0  0  0
  191.6160  176.4040  138.2960 N   0  0  0  0  0  2  0  0  0  0  0  0
  190.9730  175.9540  136.0980 N   0  0  0  0  0  2  0  0  0  0  0  0
  191.8210  177.2990  139.4260 C   0  0  0  0  0  2  0  0  0  0  0  0
  191.1470  176.7140  140.6490 C   0  0  0  0  0  2  0  0  0  0  0  0
  191.2460  177.6540  141.8410 C   0  0  2  0  0  3  0  0  0  0  0  0
  192.0950  177.0930  142.7960 O   0  0  0  0  0  1  0  0  0  0  0  0
  188.6500  177.4870  144.7650 C   0  0  2  0  0  0  0  0  0  0  0  0
  190.0170  178.5520  144.1670 S   0  0  0  0  0  0  0  0  0  0  0  0
  189.8740  177.9370  142.4480 C   0  0  2  0  0  3  0  0  0  0  0  0
  187.4970  175.6160  143.7720 O   0  0  0  0  0  0  0  0  0  0  0  0
  188.3370  176.5500  143.6550 C   0  0  0  0  0  0  0  0  0  0  0  0
  189.0410  176.7550  142.4470 N   0  0  0  0  0  2  0  0  0  0  0  0
  187.4210  178.3390  145.0670 C   0  0  0  0  0  2  0  0  0  0  0  0
  186.6020  177.7230  146.0170 O   0  0  0  0  0  1  0  0  0  0  0  0
  189.0850  176.7250  146.0160 C   0  0  0  0  0  2  0  0  0  0  0  0
  190.2780  177.2670  146.5470 O   0  0  0  0  0  0  0  0  0  0  0  0
  191.8370  175.4810  146.0000 C   0  0  0  0  0  1  0  0  0  0  0  0
  191.0780  176.2320  147.0960 C   0  0  2  0  0  0  0  0  0  0  0  0
  190.2270  175.3230  147.6940 F   0  0  0  0  0  0  0  0  0  0  0  0
  193.1340  176.0030  148.5230 O   0  0  0  0  0  0  0  0  0  0  0  0
  191.8250  177.8740  148.7000 O   0  0  0  0  0  1  0  0  0  0  0  0
  192.0100  176.7430  148.1710 C   0  0  0  0  0  0  0  0  0  0  0  0
  184.2860  177.0030  136.8730 C   0  0  0  0  0  2  0  0  0  0  0  0
  182.9510  176.9550  137.4750 N   0  0  0  0  0  0  0  0  0  0  0  0
  182.4930  178.0540  138.2580 C   0  0  0  0  0  0  0  0  0  0  0  0
  180.6960  177.4500  136.9150 C   0  0  1  0  0  3  0  0  0  0  0  0
  181.7940  176.3930  136.7750 C   0  0  2  0  0  3  0  0  0  0  0  0
  181.2290  178.3410  137.9890 C   0  0  0  0  0  0  0  0  0  0  0  0
  183.7460  178.0380  140.4060 O   0  0  0  0  0  1  0  0  0  0  0  0
  183.5990  179.9490  139.1690 O   0  0  0  0  0  0  0  0  0  0  0  0
  183.3150  178.7300  139.2820 C   0  0  0  0  0  0  0  0  0  0  0  0
  180.5560  178.2320  135.6160 C   0  0  0  0  0  2  0  0  0  0  0  0
  181.4920  177.7900  134.6830 O   0  0  0  0  0  1  0  0  0  0  0  0
  180.4970  179.3340  138.6440 O   0  0  0  0  0  0  0  0  0  0  0  0
  181.1720  181.2450  137.3450 C   0  0  0  0  0  2  0  0  0  0  0  0
  180.9630  182.3700  138.3360 C   0  0  0  0  0  2  0  0  0  0  0  0
  180.0120  180.4830  137.9610 C   0  0  0  0  0  3  0  0  0  0  0  0
  179.8050  181.6100  138.9540 C   0  0  0  0  0  2  0  0  0  0  0  0
  181.3060  175.1510  137.5130 C   0  0  0  0  0  2  0  0  0  0  0  0
  182.1700  170.5620  136.6760 C   0  0  0  0  0  3  0  0  0  0  0  0
  182.8480  172.0820  135.0120 N   0  0  0  0  0  0  0  0  0  0  0  0
  180.2840  171.9600  137.5610 C   0  0  0  0  0  3  0  0  0  0  0  0
  181.1250  173.8250  135.4030 C   0  0  0  0  0  2  0  0  0  0  0  0
  180.3710  174.3150  136.6620 C   0  0  1  0  0  3  0  0  0  0  0  0
  181.4310  171.6540  136.7100 C   0  0  0  0  0  0  0  0  0  0  0  0
  181.8660  172.5560  135.6950 C   0  0  0  0  0  0  0  0  0  0  0  0
  183.1820  170.7710  135.5780 C   0  0  0  0  0  3  0  0  0  0  0  0
  179.7580  173.1960  137.4980 C   0  0  0  0  0  2  0  0  0  0  0  0
  1 35  1  0  0  0  0
  1  5  1  1  0  0  0
  2  4  1  0  0  0  0
  2  3  1  0  0  0  0
  3  6  1  6  0  0  0
  3  1  1  0  0  0  0
  4  1  1  0  0  0  0
  6  7  1  1  0  0  0
  6  9  1  0  0  0  0
  9  8  1  6  0  0  0
 11 10  1  6  0  0  0
 11  9  1  0  0  0  0
 12 11  1  0  0  0  0
 12 13  1  0  0  0  0
 13 15  1  0  0  0  0
 14 12  2  0  0  0  0
 15 16  1  0  0  0  0
 16 17  1  0  0  0  0
 17 18  1  1  0  0  0
 19 25  1  1  0  0  0
 19 27  1  0  0  0  0
 20 19  1  0  0  0  0
 21 17  1  1  0  0  0
 21 20  1  0  0  0  0
 23 22  2  0  0  0  0
 23 19  1  0  0  0  0
 24 21  1  0  0  0  0
 24 23  1  0  0  0  0
 25 26  1  0  0  0  0
 27 28  1  0  0  0  0
 28 30  1  0  0  0  0
 30 29  1  6  0  0  0
 30 31  1  0  0  0  0
 30 34  1  0  0  0  0
 34 32  2  0  0  0  0
 34 33  1  0  0  0  0
 35 36  1  0  0  0  0
 36 37  1  0  0  0  0
 37 43  1  0  0  0  0
 38 44  1  6  0  0  0
 38 40  1  0  0  0  0
 39 38  1  0  0  0  0
 39 36  1  0  0  0  0
 39 51  1  1  0  0  0
 40 37  2  0  0  0  0
 40 46  1  0  0  0  0
 42 43  2  0  0  0  0
 43 41  1  0  0  0  0
 45 44  1  0  0  0  0
 47 49  1  0  0  0  0
 47 48  1  0  0  0  0
 48 50  1  0  0  0  0
 49 46  1  0  0  0  0
 49 50  1  0  0  0  0
 52 57  1  0  0  0  0
 53 59  1  0  0  0  0
 53 58  2  0  0  0  0
 55 58  1  0  0  0  0
 55 56  1  0  0  0  0
 56 60  1  0  0  0  0
 56 51  1  1  0  0  0
 57 54  2  0  0  0  0
 58 57  1  0  0  0  0
 59 52  2  0  0  0  0
 60 54  1  0  0  0  0
M  END
>  <MODEL>
6

>  <REMARK>
 VINA RESULT:      -4.1      1.708      3.016
  Name = 
  21 active torsions:
  status: ('A' for Active; 'I' for Inactive)
    1  A    between atoms: N_1  and  C_47
    2  A    between atoms: C_3  and  C_28
    3  A    between atoms: C_3  and  C_38
    4  A    between atoms: C_4  and  C_42
    5  A    between atoms: C_5  and  C_18
    6  A    between atoms: C_7  and  C_32
    7  A    between atoms: O_10  and  C_30
    8  A    between atoms: O_10  and  C_48
    9  A    between atoms: C_12  and  C_47
   10  A    between atoms: C_14  and  C_20
   11  A    between atoms: C_14  and  C_28
   12  A    between atoms: C_18  and  C_22
   13  A    between atoms: N_21  and  C_52
   14  A    between atoms: C_22  and  O_44
   15  A    between atoms: C_23  and  C_26
   16  A    between atoms: C_23  and  C_52
   17  A    between atoms: C_26  and  C_27
   18  A    between atoms: C_35  and  C_59
   19  A    between atoms: C_43  and  O_44
   20  A    between atoms: C_43  and  C_60
   21  A    between atoms: C_46  and  C_59
                            x       y       z     vdW  Elec       q    Type
                         _______ _______ _______ _____ _____    ______ ____

>  <TORSDO>
F 21

$$$$
=
 OpenBabel11062414163D

 60 65  0  0  1  0  0  0  0  0999 V2000
  190.6010  177.1580  141.5030 C   0  0  1  0  0  0  0  0  0  0  0  0
  192.0610  177.5390  142.9740 O   0  0  0  0  0  0  0  0  0  0  0  0
  190.6970  177.2020  143.0200 C   0  0  1  0  0  3  0  0  0  0  0  0
  192.0530  177.5200  141.5660 C   0  0  0  0  0  2  0  0  0  0  0  0
  190.4510  175.8660  141.0010 O   0  0  0  0  0  1  0  0  0  0  0  0
  189.8840  178.3120  143.7130 C   0  0  1  0  0  3  0  0  0  0  0  0
  189.3230  179.2600  142.6700 C   0  0  0  0  0  1  0  0  0  0  0  0
  188.4910  176.4190  144.3960 O   0  0  0  0  0  1  0  0  0  0  0  0
  188.6960  177.7960  144.5340 C   0  0  1  0  0  3  0  0  0  0  0  0
  189.8410  177.9160  146.6550 O   0  0  0  0  0  1  0  0  0  0  0  0
  188.6580  178.2540  145.9970 C   0  0  2  0  0  3  0  0  0  0  0  0
  187.4170  177.8670  146.7660 C   0  0  0  0  0  0  0  0  0  0  0  0
  186.0990  177.9680  146.2100 N   0  0  0  0  0  2  0  0  0  0  0  0
  187.5700  177.1460  147.8240 N   0  0  0  0  0  2  0  0  0  0  0  0
  185.6750  178.9600  145.2320 C   0  0  0  0  0  2  0  0  0  0  0  0
  184.6250  178.3470  144.3290 C   0  0  0  0  0  2  0  0  0  0  0  0
  183.2690  179.0040  144.5290 C   0  0  2  0  0  3  0  0  0  0  0  0
  182.3850  178.0720  145.0730 O   0  0  0  0  0  1  0  0  0  0  0  0
  180.9480  178.7990  141.3840 C   0  0  2  0  0  0  0  0  0  0  0  0
  180.8970  179.3680  143.1250 S   0  0  0  0  0  0  0  0  0  0  0  0
  182.7160  179.5600  143.2180 C   0  0  2  0  0  3  0  0  0  0  0  0
  182.7590  178.0700  139.9670 O   0  0  0  0  0  0  0  0  0  0  0  0
  182.3790  178.5590  141.0670 C   0  0  0  0  0  0  0  0  0  0  0  0
  183.3090  178.9050  142.0730 N   0  0  0  0  0  2  0  0  0  0  0  0
  180.4040  179.8880  140.4640 C   0  0  0  0  0  2  0  0  0  0  0  0
  179.6920  180.8490  141.1870 O   0  0  0  0  0  1  0  0  0  0  0  0
  180.1320  177.5170  141.2250 C   0  0  0  0  0  2  0  0  0  0  0  0
  180.0800  177.1180  139.8700 O   0  0  0  0  0  0  0  0  0  0  0  0
  179.2970  175.1020  140.9830 C   0  0  0  0  0  1  0  0  0  0  0  0
  180.0290  175.7030  139.7820 C   0  0  2  0  0  0  0  0  0  0  0  0
  181.3290  175.2380  139.8260 F   0  0  0  0  0  0  0  0  0  0  0  0
  178.9910  173.9220  138.3440 O   0  0  0  0  0  1  0  0  0  0  0  0
  179.2610  176.0420  137.5190 O   0  0  0  0  0  0  0  0  0  0  0  0
  179.4340  175.2350  138.4730 C   0  0  0  0  0  0  0  0  0  0  0  0
  189.8000  178.2180  140.7380 C   0  0  0  0  0  2  0  0  0  0  0  0
  188.9100  177.6570  139.7200 N   0  0  0  0  0  0  0  0  0  0  0  0
  187.5720  178.1360  139.6120 C   0  0  0  0  0  0  0  0  0  0  0  0
  188.3550  177.9720  137.4310 C   0  0  1  0  0  3  0  0  0  0  0  0
  189.3730  177.3230  138.3710 C   0  0  2  0  0  3  0  0  0  0  0  0
  187.2210  178.2990  138.3470 C   0  0  0  0  0  0  0  0  0  0  0  0
  186.6090  177.4080  141.7870 O   0  0  0  0  0  1  0  0  0  0  0  0
  185.9550  179.3750  140.8350 O   0  0  0  0  0  0  0  0  0  0  0  0
  186.6840  178.3530  140.7720 C   0  0  0  0  0  0  0  0  0  0  0  0
  188.9310  179.2520  136.8420 C   0  0  0  0  0  2  0  0  0  0  0  0
  189.1020  180.2090  137.8410 O   0  0  0  0  0  1  0  0  0  0  0  0
  185.9490  178.7040  137.9340 O   0  0  0  0  0  0  0  0  0  0  0  0
  185.3350  176.3880  137.7070 C   0  0  0  0  0  2  0  0  0  0  0  0
  185.8650  176.0710  136.3240 C   0  0  0  0  0  2  0  0  0  0  0  0
  185.0550  177.8160  137.2750 C   0  0  0  0  0  3  0  0  0  0  0  0
  185.5890  177.4970  135.8920 C   0  0  0  0  0  2  0  0  0  0  0  0
  189.2720  175.8160  138.1570 C   0  0  0  0  0  2  0  0  0  0  0  0
  193.5230  173.9170  137.2490 C   0  0  0  0  0  3  0  0  0  0  0  0
  193.3000  176.2290  136.8700 N   0  0  0  0  0  0  0  0  0  0  0  0
  191.1150  173.3470  136.8390 C   0  0  0  0  0  3  0  0  0  0  0  0
  190.8850  176.2630  136.3010 C   0  0  0  0  0  2  0  0  0  0  0  0
  189.6720  175.4140  136.7510 C   0  0  1  0  0  3  0  0  0  0  0  0
  192.2700  174.2290  136.9810 C   0  0  0  0  0  0  0  0  0  0  0  0
  192.1650  175.6340  136.7600 C   0  0  0  0  0  0  0  0  0  0  0  0
  194.2940  175.2130  137.2300 C   0  0  0  0  0  2  0  0  0  0  0  0
  189.9030  173.9070  136.6810 C   0  0  0  0  0  3  0  0  0  0  0  0
  1  5  1  6  0  0  0
  1  4  1  0  0  0  0
  1  3  1  0  0  0  0
  2  3  1  0  0  0  0
  3  6  1  6  0  0  0
  4  2  1  0  0  0  0
  6  7  1  6  0  0  0
  6  9  1  0  0  0  0
  9  8  1  1  0  0  0
  9 11  1  0  0  0  0
 11 10  1  1  0  0  0
 11 12  1  0  0  0  0
 12 14  2  0  0  0  0
 13 12  1  0  0  0  0
 15 13  1  0  0  0  0
 16 17  1  0  0  0  0
 16 15  1  0  0  0  0
 17 18  1  6  0  0  0
 19 25  1  6  0  0  0
 19 20  1  0  0  0  0
 20 21  1  0  0  0  0
 21 17  1  1  0  0  0
 22 23  2  0  0  0  0
 23 19  1  0  0  0  0
 23 24  1  0  0  0  0
 24 21  1  0  0  0  0
 25 26  1  0  0  0  0
 27 19  1  0  0  0  0
 28 27  1  0  0  0  0
 30 31  1  0  0  0  0
 30 28  1  0  0  0  0
 30 29  1  1  0  0  0
 32 34  1  0  0  0  0
 33 34  2  0  0  0  0
 34 30  1  0  0  0  0
 35  1  1  0  0  0  0
 36 35  1  0  0  0  0
 37 36  1  0  0  0  0
 37 43  1  0  0  0  0
 38 44  1  1  0  0  0
 38 40  1  0  0  0  0
 38 39  1  0  0  0  0
 39 51  1  1  0  0  0
 39 36  1  0  0  0  0
 40 37  2  0  0  0  0
 43 42  2  0  0  0  0
 43 41  1  0  0  0  0
 44 45  1  0  0  0  0
 46 40  1  0  0  0  0
 48 47  1  0  0  0  0
 49 47  1  0  0  0  0
 49 46  1  0  0  0  0
 50 48  1  0  0  0  0
 50 49  1  0  0  0  0
 53 59  1  0  0  0  0
 54 57  1  0  0  0  0
 55 56  1  0  0  0  0
 55 58  1  0  0  0  0
 56 51  1  1  0  0  0
 57 52  2  0  0  0  0
 58 53  2  0  0  0  0
 58 57  1  0  0  0  0
 59 52  1  0  0  0  0
 60 56  1  0  0  0  0
 60 54  2  0  0  0  0
M  END
>  <MODEL>
7

>  <REMARK>
 VINA RESULT:      -4.0      3.516      9.066
  Name = 
  21 active torsions:
  status: ('A' for Active; 'I' for Inactive)
    1  A    between atoms: N_1  and  C_47
    2  A    between atoms: C_3  and  C_28
    3  A    between atoms: C_3  and  C_38
    4  A    between atoms: C_4  and  C_42
    5  A    between atoms: C_5  and  C_18
    6  A    between atoms: C_7  and  C_32
    7  A    between atoms: O_10  and  C_30
    8  A    between atoms: O_10  and  C_48
    9  A    between atoms: C_12  and  C_47
   10  A    between atoms: C_14  and  C_20
   11  A    between atoms: C_14  and  C_28
   12  A    between atoms: C_18  and  C_22
   13  A    between atoms: N_21  and  C_52
   14  A    between atoms: C_22  and  O_44
   15  A    between atoms: C_23  and  C_26
   16  A    between atoms: C_23  and  C_52
   17  A    between atoms: C_26  and  C_27
   18  A    between atoms: C_35  and  C_59
   19  A    between atoms: C_43  and  O_44
   20  A    between atoms: C_43  and  C_60
   21  A    between atoms: C_46  and  C_59
                            x       y       z     vdW  Elec       q    Type
                         _______ _______ _______ _____ _____    ______ ____

>  <TORSDO>
F 21

$$$$
=
 OpenBabel11062414163D

 60 65  0  0  1  0  0  0  0  0999 V2000
  185.1490  174.9470  136.4570 C   0  0  1  0  0  0  0  0  0  0  0  0
  186.0590  173.9190  134.8580 O   0  0  0  0  0  0  0  0  0  0  0  0
  186.5500  174.5610  136.0090 C   0  0  1  0  0  3  0  0  0  0  0  0
  184.7320  174.2390  135.2050 C   0  0  0  0  0  2  0  0  0  0  0  0
  184.7160  174.2350  137.5760 O   0  0  0  0  0  1  0  0  0  0  0  0
  187.4780  175.7300  135.6260 C   0  0  1  0  0  3  0  0  0  0  0  0
  186.7250  177.0410  135.7480 C   0  0  0  0  0  1  0  0  0  0  0  0
  189.1230  174.6280  137.0640 O   0  0  0  0  0  1  0  0  0  0  0  0
  188.7280  175.8480  136.5070 C   0  0  1  0  0  3  0  0  0  0  0  0
  189.5400  177.1630  134.6530 O   0  0  0  0  0  1  0  0  0  0  0  0
  189.8990  176.6210  135.8870 C   0  0  2  0  0  3  0  0  0  0  0  0
  191.2170  175.8830  135.8530 C   0  0  0  0  0  0  0  0  0  0  0  0
  192.0420  175.7170  137.0150 N   0  0  0  0  0  2  0  0  0  0  0  0
  191.4530  175.1270  134.8350 N   0  0  0  0  0  2  0  0  0  0  0  0
  192.1360  176.6620  138.1170 C   0  0  0  0  0  2  0  0  0  0  0  0
  191.0760  176.3300  139.1470 C   0  0  0  0  0  2  0  0  0  0  0  0
  190.7970  177.5140  140.0590 C   0  0  2  0  0  3  0  0  0  0  0  0
  191.8270  177.6250  140.9930 O   0  0  0  0  0  1  0  0  0  0  0  0
  188.5630  177.4290  143.2710 C   0  0  2  0  0  0  0  0  0  0  0  0
  189.2460  178.6370  142.0740 S   0  0  0  0  0  0  0  0  0  0  0  0
  189.4500  177.3730  140.7660 C   0  0  2  0  0  3  0  0  0  0  0  0
  188.4870  175.0190  143.2800 O   0  0  0  0  0  0  0  0  0  0  0  0
  188.7660  176.0860  142.6690 C   0  0  0  0  0  0  0  0  0  0  0  0
  189.3010  176.0630  141.3610 N   0  0  0  0  0  2  0  0  0  0  0  0
  187.0690  177.6740  143.4630 C   0  0  0  0  0  2  0  0  0  0  0  0
  186.5560  178.4810  142.4440 O   0  0  0  0  0  1  0  0  0  0  0  0
  189.2930  177.5430  144.6090 C   0  0  0  0  0  2  0  0  0  0  0  0
  188.6170  176.8150  145.6150 O   0  0  0  0  0  0  0  0  0  0  0  0
  190.3000  178.1310  146.7780 C   0  0  0  0  0  1  0  0  0  0  0  0
  189.0900  177.2020  146.8940 C   0  0  2  0  0  0  0  0  0  0  0  0
  189.5190  176.0590  147.5420 F   0  0  0  0  0  0  0  0  0  0  0  0
  186.7480  178.0660  147.1910 O   0  0  0  0  0  0  0  0  0  0  0  0
  188.1820  178.0190  148.9760 O   0  0  0  0  0  1  0  0  0  0  0  0
  187.9990  177.8110  147.7450 C   0  0  0  0  0  0  0  0  0  0  0  0
  184.6970  176.4120  136.4410 C   0  0  0  0  0  2  0  0  0  0  0  0
  183.5100  176.6670  137.2590 N   0  0  0  0  0  0  0  0  0  0  0  0
  183.4430  177.8470  138.0540 C   0  0  0  0  0  0  0  0  0  0  0  0
  181.3530  177.6430  137.0620 C   0  0  1  0  0  3  0  0  0  0  0  0
  182.1550  176.3680  136.7910 C   0  0  2  0  0  3  0  0  0  0  0  0
  182.2450  178.4050  137.9870 C   0  0  0  0  0  0  0  0  0  0  0  0
  185.2900  179.4500  138.5090 O   0  0  0  0  0  0  0  0  0  0  0  0
  184.8820  177.7230  139.9420 O   0  0  0  0  0  1  0  0  0  0  0  0
  184.5580  178.3350  138.8920 C   0  0  0  0  0  0  0  0  0  0  0  0
  181.1610  178.4240  135.7690 C   0  0  0  0  0  2  0  0  0  0  0  0
  180.6040  179.6730  136.0370 O   0  0  0  0  0  1  0  0  0  0  0  0
  181.8700  179.5420  138.7070 O   0  0  0  0  0  0  0  0  0  0  0  0
  180.9680  178.0110  140.3310 C   0  0  0  0  0  2  0  0  0  0  0  0
  179.4930  178.3540  140.2800 C   0  0  0  0  0  2  0  0  0  0  0  0
  181.3160  179.4550  140.0140 C   0  0  0  0  0  3  0  0  0  0  0  0
  179.8400  179.7950  139.9610 C   0  0  0  0  0  2  0  0  0  0  0  0
  181.5460  175.2730  137.6600 C   0  0  0  0  0  2  0  0  0  0  0  0
  181.1270  170.7550  136.2730 C   0  0  0  0  0  3  0  0  0  0  0  0
  181.6100  172.3320  134.5940 N   0  0  0  0  0  0  0  0  0  0  0  0
  179.9200  172.3450  137.7920 C   0  0  0  0  0  3  0  0  0  0  0  0
  180.4880  174.2940  135.6180 C   0  0  0  0  0  2  0  0  0  0  0  0
  180.2500  174.7430  137.0800 C   0  0  1  0  0  3  0  0  0  0  0  0
  180.6810  171.9490  136.6100 C   0  0  0  0  0  0  0  0  0  0  0  0
  180.9900  172.8830  135.5770 C   0  0  0  0  0  0  0  0  0  0  0  0
  181.8030  170.9190  134.9350 C   0  0  0  0  0  3  0  0  0  0  0  0
  179.6760  173.6540  137.9820 C   0  0  0  0  0  2  0  0  0  0  0  0
  1  5  1  1  0  0  0
  2  4  1  0  0  0  0
  2  3  1  0  0  0  0
  3  6  1  6  0  0  0
  3  1  1  0  0  0  0
  4  1  1  0  0  0  0
  6  7  1  1  0  0  0
  6  9  1  0  0  0  0
  9  8  1  6  0  0  0
 11 10  1  6  0  0  0
 11  9  1  0  0  0  0
 12 11  1  0  0  0  0
 12 13  1  0  0  0  0
 13 15  1  0  0  0  0
 14 12  2  0  0  0  0
 15 16  1  0  0  0  0
 16 17  1  0  0  0  0
 17 18  1  1  0  0  0
 19 25  1  1  0  0  0
 19 27  1  0  0  0  0
 20 19  1  0  0  0  0
 21 17  1  1  0  0  0
 21 24  1  0  0  0  0
 21 20  1  0  0  0  0
 23 19  1  0  0  0  0
 23 22  2  0  0  0  0
 24 23  1  0  0  0  0
 26 25  1  0  0  0  0
 27 28  1  0  0  0  0
 28 30  1  0  0  0  0
 30 29  1  6  0  0  0
 30 31  1  0  0  0  0
 30 34  1  0  0  0  0
 32 34  2  0  0  0  0
 34 33  1  0  0  0  0
 35  1  1  0  0  0  0
 35 36  1  0  0  0  0
 36 37  1  0  0  0  0
 37 43  1  0  0  0  0
 38 44  1  6  0  0  0
 38 40  1  0  0  0  0
 39 38  1  0  0  0  0
 39 36  1  0  0  0  0
 39 51  1  1  0  0  0
 40 37  2  0  0  0  0
 40 46  1  0  0  0  0
 41 43  2  0  0  0  0
 43 42  1  0  0  0  0
 44 45  1  0  0  0  0
 46 49  1  0  0  0  0
 48 47  1  0  0  0  0
 49 47  1  0  0  0  0
 50 49  1  0  0  0  0
 50 48  1  0  0  0  0
 52 57  1  0  0  0  0
 53 59  1  0  0  0  0
 53 58  2  0  0  0  0
 54 60  1  0  0  0  0
 55 56  1  0  0  0  0
 56 51  1  1  0  0  0
 56 60  1  0  0  0  0
 57 54  2  0  0  0  0
 58 55  1  0  0  0  0
 58 57  1  0  0  0  0
 59 52  2  0  0  0  0
M  END
>  <MODEL>
8

>  <REMARK>
 VINA RESULT:      -3.9      1.636      2.291
  Name = 
  21 active torsions:
  status: ('A' for Active; 'I' for Inactive)
    1  A    between atoms: N_1  and  C_47
    2  A    between atoms: C_3  and  C_28
    3  A    between atoms: C_3  and  C_38
    4  A    between atoms: C_4  and  C_42
    5  A    between atoms: C_5  and  C_18
    6  A    between atoms: C_7  and  C_32
    7  A    between atoms: O_10  and  C_30
    8  A    between atoms: O_10  and  C_48
    9  A    between atoms: C_12  and  C_47
   10  A    between atoms: C_14  and  C_20
   11  A    between atoms: C_14  and  C_28
   12  A    between atoms: C_18  and  C_22
   13  A    between atoms: N_21  and  C_52
   14  A    between atoms: C_22  and  O_44
   15  A    between atoms: C_23  and  C_26
   16  A    between atoms: C_23  and  C_52
   17  A    between atoms: C_26  and  C_27
   18  A    between atoms: C_35  and  C_59
   19  A    between atoms: C_43  and  O_44
   20  A    between atoms: C_43  and  C_60
   21  A    between atoms: C_46  and  C_59
                            x       y       z     vdW  Elec       q    Type
                         _______ _______ _______ _____ _____    ______ ____

>  <TORSDO>
F 21

$$$$
=
 OpenBabel11062414163D

 60 65  0  0  1  0  0  0  0  0999 V2000
  191.3690  177.1730  140.8420 C   0  0  1  0  0  0  0  0  0  0  0  0
  191.5940  177.2990  138.7510 O   0  0  0  0  0  0  0  0  0  0  0  0
  190.6390  177.7890  139.6590 C   0  0  1  0  0  3  0  0  0  0  0  0
  192.3260  176.6990  139.7930 C   0  0  0  0  0  2  0  0  0  0  0  0
  191.9850  178.1200  141.6590 O   0  0  0  0  0  1  0  0  0  0  0  0
  189.2460  177.2070  139.3510 C   0  0  1  0  0  3  0  0  0  0  0  0
  188.1840  178.2560  139.6200 C   0  0  0  0  0  1  0  0  0  0  0  0
  188.0160  175.8420  137.7350 O   0  0  0  0  0  1  0  0  0  0  0  0
  189.0670  176.7500  137.8990 C   0  0  1  0  0  3  0  0  0  0  0  0
  188.2750  178.9500  137.2970 O   0  0  0  0  0  1  0  0  0  0  0  0
  189.0440  177.8730  136.8540 C   0  0  2  0  0  3  0  0  0  0  0  0
  188.7090  177.4420  135.4450 C   0  0  0  0  0  0  0  0  0  0  0  0
  187.4500  177.7380  134.8240 N   0  0  0  0  0  2  0  0  0  0  0  0
  189.6830  177.0720  134.6850 N   0  0  0  0  0  2  0  0  0  0  0  0
  186.1790  177.8610  135.5230 C   0  0  0  0  0  2  0  0  0  0  0  0
  185.6900  176.4800  135.9070 C   0  0  0  0  0  2  0  0  0  0  0  0
  184.3280  176.1840  135.3000 C   0  0  2  0  0  3  0  0  0  0  0  0
  183.6860  177.3880  135.0080 O   0  0  0  0  0  1  0  0  0  0  0  0
  181.2020  175.6350  137.5900 C   0  0  2  0  0  0  0  0  0  0  0  0
  181.6900  175.4870  135.8300 S   0  0  0  0  0  0  0  0  0  0  0  0
  183.4690  175.3340  136.2340 C   0  0  2  0  0  3  0  0  0  0  0  0
  182.4770  176.0270  139.5990 O   0  0  0  0  0  0  0  0  0  0  0  0
  182.4630  175.8050  138.3580 C   0  0  0  0  0  0  0  0  0  0  0  0
  183.6630  175.7090  137.6170 N   0  0  0  0  0  2  0  0  0  0  0  0
  180.5030  174.3580  138.0460 C   0  0  0  0  0  2  0  0  0  0  0  0
  179.2890  174.6460  138.6750 O   0  0  0  0  0  1  0  0  0  0  0  0
  180.2810  176.8400  137.7820 C   0  0  0  0  0  2  0  0  0  0  0  0
  180.8640  177.7840  138.6580 O   0  0  0  0  0  0  0  0  0  0  0  0
  179.8940  179.2260  136.9560 C   0  0  0  0  0  1  0  0  0  0  0  0
  180.9910  179.0370  138.0050 C   0  0  2  0  0  0  0  0  0  0  0  0
  182.1970  179.0330  137.3310 F   0  0  0  0  0  0  0  0  0  0  0  0
  180.6010  180.0000  140.2940 O   0  0  0  0  0  1  0  0  0  0  0  0
  181.5280  181.3000  138.6510 O   0  0  0  0  0  0  0  0  0  0  0  0
  181.0320  180.1880  138.9840 C   0  0  0  0  0  0  0  0  0  0  0  0
  190.7600  175.9930  141.6090 C   0  0  0  0  0  2  0  0  0  0  0  0
  190.2010  176.3670  142.9100 N   0  0  0  0  0  0  0  0  0  0  0  0
  190.9350  176.0850  144.0980 C   0  0  0  0  0  0  0  0  0  0  0  0
  190.1110  178.2400  144.3690 C   0  0  1  0  0  3  0  0  0  0  0  0
  189.4760  177.6210  143.1210 C   0  0  2  0  0  3  0  0  0  0  0  0
  190.8850  177.1000  144.9460 C   0  0  0  0  0  0  0  0  0  0  0  0
  191.2890  173.6730  143.6070 O   0  0  0  0  0  0  0  0  0  0  0  0
  192.4340  174.6860  145.3000 O   0  0  0  0  0  1  0  0  0  0  0  0
  191.6030  174.7940  144.3620 C   0  0  0  0  0  0  0  0  0  0  0  0
  191.0610  179.3600  143.9690 C   0  0  0  0  0  2  0  0  0  0  0  0
  191.1550  180.3030  144.9920 O   0  0  0  0  0  1  0  0  0  0  0  0
  191.4650  177.0870  146.2170 O   0  0  0  0  0  0  0  0  0  0  0  0
  189.3060  176.3990  147.0300 C   0  0  0  0  0  2  0  0  0  0  0  0
  188.7030  177.7260  147.4420 C   0  0  0  0  0  2  0  0  0  0  0  0
  190.6880  176.9110  147.3950 C   0  0  0  0  0  3  0  0  0  0  0  0
  190.0830  178.2390  147.8040 C   0  0  0  0  0  2  0  0  0  0  0  0
  188.0230  177.3170  143.4720 C   0  0  0  0  0  2  0  0  0  0  0  0
  183.5760  178.2710  142.1220 C   0  0  0  0  0  3  0  0  0  0  0  0
  185.2930  179.3790  140.9530 N   0  0  0  0  0  0  0  0  0  0  0  0
  184.8430  178.0110  144.2710 C   0  0  0  0  0  3  0  0  0  0  0  0
  186.9640  179.4730  142.7850 C   0  0  0  0  0  2  0  0  0  0  0  0
  187.2920  178.5440  143.9780 C   0  0  1  0  0  3  0  0  0  0  0  0
  184.6510  178.3970  142.8760 C   0  0  0  0  0  0  0  0  0  0  0  0
  185.6740  179.0670  142.1420 C   0  0  0  0  0  0  0  0  0  0  0  0
  183.9250  178.8780  140.7860 C   0  0  0  0  0  3  0  0  0  0  0  0
  186.0740  178.1290  144.7990 C   0  0  0  0  0  2  0  0  0  0  0  0
  1 35  1  0  0  0  0
  1  5  1  1  0  0  0
  2  3  1  0  0  0  0
  2  4  1  0  0  0  0
  3  6  1  6  0  0  0
  3  1  1  0  0  0  0
  4  1  1  0  0  0  0
  6  7  1  6  0  0  0
  9  8  1  1  0  0  0
  9  6  1  0  0  0  0
 11 10  1  1  0  0  0
 11  9  1  0  0  0  0
 12 11  1  0  0  0  0
 13 12  1  0  0  0  0
 13 15  1  0  0  0  0
 14 12  2  0  0  0  0
 15 16  1  0  0  0  0
 17 18  1  1  0  0  0
 17 16  1  0  0  0  0
 19 27  1  1  0  0  0
 19 25  1  0  0  0  0
 19 23  1  0  0  0  0
 20 21  1  0  0  0  0
 20 19  1  0  0  0  0
 21 17  1  6  0  0  0
 21 24  1  0  0  0  0
 23 22  2  0  0  0  0
 24 23  1  0  0  0  0
 25 26  1  0  0  0  0
 27 28  1  0  0  0  0
 30 29  1  6  0  0  0
 30 28  1  0  0  0  0
 30 34  1  0  0  0  0
 31 30  1  0  0  0  0
 33 34  2  0  0  0  0
 34 32  1  0  0  0  0
 35 36  1  0  0  0  0
 36 39  1  0  0  0  0
 36 37  1  0  0  0  0
 37 43  1  0  0  0  0
 37 40  2  0  0  0  0
 38 44  1  6  0  0  0
 38 40  1  0  0  0  0
 39 51  1  1  0  0  0
 39 38  1  0  0  0  0
 40 46  1  0  0  0  0
 41 43  2  0  0  0  0
 43 42  1  0  0  0  0
 44 45  1  0  0  0  0
 46 49  1  0  0  0  0
 47 49  1  0  0  0  0
 47 48  1  0  0  0  0
 48 50  1  0  0  0  0
 49 50  1  0  0  0  0
 52 57  1  0  0  0  0
 53 58  2  0  0  0  0
 54 60  1  0  0  0  0
 55 56  1  0  0  0  0
 56 51  1  6  0  0  0
 56 60  1  0  0  0  0
 57 54  2  0  0  0  0
 58 55  1  0  0  0  0
 58 57  1  0  0  0  0
 59 53  1  0  0  0  0
 59 52  2  0  0  0  0
M  END
>  <MODEL>
9

>  <REMARK>
 VINA RESULT:      -3.9      3.219      9.733
  Name = 
  21 active torsions:
  status: ('A' for Active; 'I' for Inactive)
    1  A    between atoms: N_1  and  C_47
    2  A    between atoms: C_3  and  C_28
    3  A    between atoms: C_3  and  C_38
    4  A    between atoms: C_4  and  C_42
    5  A    between atoms: C_5  and  C_18
    6  A    between atoms: C_7  and  C_32
    7  A    between atoms: O_10  and  C_30
    8  A    between atoms: O_10  and  C_48
    9  A    between atoms: C_12  and  C_47
   10  A    between atoms: C_14  and  C_20
   11  A    between atoms: C_14  and  C_28
   12  A    between atoms: C_18  and  C_22
   13  A    between atoms: N_21  and  C_52
   14  A    between atoms: C_22  and  O_44
   15  A    between atoms: C_23  and  C_26
   16  A    between atoms: C_23  and  C_52
   17  A    between atoms: C_26  and  C_27
   18  A    between atoms: C_35  and  C_59
   19  A    between atoms: C_43  and  O_44
   20  A    between atoms: C_43  and  C_60
   21  A    between atoms: C_46  and  C_59
                            x       y       z     vdW  Elec       q    Type
                         _______ _______ _______ _____ _____    ______ ____

>  <TORSDO>
F 21

$$$$
