=
 OpenBabel11062416473D

 28 33  0  0  1  0  0  0  0  0999 V2000
  186.9830  178.2490  141.4500 C   0  0  0  0  0  0  0  0  0  0  0  0
  185.8270  178.3990  142.2550 C   0  0  0  0  0  0  0  0  0  0  0  0
  184.5860  179.0720  140.2880 C   0  0  0  0  0  3  0  0  0  0  0  0
  185.6960  178.8930  139.5270 N   0  0  0  0  0  0  0  0  0  0  0  0
  184.6340  178.8280  141.6600 C   0  0  0  0  0  3  0  0  0  0  0  0
  186.8750  178.4940  140.0730 C   0  0  0  0  0  3  0  0  0  0  0  0
  191.6200  175.6630  144.2950 C   0  0  0  0  0  2  0  0  0  0  0  0
  190.2900  176.7480  142.3840 C   0  0  1  0  0  0  0  0  0  0  0  0
  188.9700  176.8060  141.7010 C   0  0  0  0  0  3  0  0  0  0  0  0
  189.0920  178.8210  142.9020 C   0  0  0  0  0  2  0  0  0  0  0  0
  188.3090  177.9140  142.0110 C   0  0  0  0  0  0  0  0  0  0  0  0
  190.3660  178.0430  143.1820 C   0  0  2  0  0  0  0  0  0  0  0  0
  190.7110  175.4500  143.0910 C   0  0  0  0  0  2  0  0  0  0  0  0
  190.9870  176.6830  145.2330 C   0  0  2  0  0  3  0  0  0  0  0  0
  191.3240  177.8040  142.0200 C   0  0  0  0  0  2  0  0  0  0  0  0
  191.0060  178.0550  144.5710 C   0  0  0  0  0  2  0  0  0  0  0  0
  190.7150  177.0980  147.6880 C   0  0  0  0  0  1  0  0  0  0  0  0
  191.6980  176.7410  146.5850 C   0  0  1  0  0  3  0  0  0  0  0  0
  192.7770  175.6660  148.1950 C   0  0  0  0  0  1  0  0  0  0  0  0
  192.3290  175.5290  146.8800 O   0  0  0  0  0  0  0  0  0  0  0  0
  186.0690  179.0240  147.1880 C   0  0  0  0  0  3  0  0  0  0  0  0
  185.6980  178.3090  145.9360 C   0  0  0  0  0  0  0  0  0  0  0  0
  185.8270  178.0640  143.6500 N   0  0  0  0  0  0  0  0  0  0  0  0
  187.5860  177.4020  146.6890 N   0  0  0  0  0  0  0  0  0  0  0  0
  187.2880  178.3570  147.6770 N   0  0  0  0  0  0  0  0  0  0  0  0
  186.7890  177.1520  144.2580 C   0  0  0  0  0  2  0  0  0  0  0  0
  186.5810  177.3910  145.7040 C   0  0  0  0  0  0  0  0  0  0  0  0
  185.1940  178.8980  144.6700 C   0  0  0  0  0  3  0  0  0  0  0  0
  1 11  1  0  0  0  0
  1  2  1  0  0  0  0
  2 23  1  0  0  0  0
  3  5  1  0  0  0  0
  4  6  1  0  0  0  0
  4  3  2  0  0  0  0
  5  2  2  0  0  0  0
  6  1  2  0  0  0  0
  7 14  1  0  0  0  0
  8  9  1  6  0  0  0
  8 13  1  0  0  0  0
  8 12  1  0  0  0  0
  9 11  2  0  0  0  0
 10 12  1  0  0  0  0
 11 10  1  0  0  0  0
 12 15  1  6  0  0  0
 12 16  1  0  0  0  0
 13  7  1  0  0  0  0
 14 18  1  1  0  0  0
 15  8  1  0  0  0  0
 16 14  1  0  0  0  0
 18 20  1  0  0  0  0
 18 17  1  1  0  0  0
 20 19  1  0  0  0  0
 21 25  2  0  0  0  0
 22 21  1  0  0  0  0
 23 26  1  0  0  0  0
 23 28  1  0  0  0  0
 24 25  1  0  0  0  0
 26 27  1  0  0  0  0
 27 22  1  0  0  0  0
 27 24  2  0  0  0  0
 28 22  2  0  0  0  0
M  END
>  <MODEL>
1

>  <REMARK>
 VINA RESULT:      -8.9      0.000      0.000
  Name = 
  4 active torsions:
  status: ('A' for Active; 'I' for Inactive)
    1  A    between atoms: C_4  and  C_16
    2  A    between atoms: C_5  and  C_19
    3  A    between atoms: C_5  and  O_26
    4  A    between atoms: N_6  and  C_13
                            x       y       z     vdW  Elec       q    Type
                         _______ _______ _______ _____ _____    ______ ____

>  <TORSDO>
F 4

$$$$
=
 OpenBabel11062416473D

 28 33  0  0  1  0  0  0  0  0999 V2000
  184.6630  178.4420  143.3940 C   0  0  0  0  0  0  0  0  0  0  0  0
  185.9160  178.0990  143.9580 C   0  0  0  0  0  0  0  0  0  0  0  0
  185.0700  178.7280  146.1370 C   0  0  0  0  0  3  0  0  0  0  0  0
  183.8650  179.0240  145.5840 N   0  0  0  0  0  0  0  0  0  0  0  0
  186.1110  178.2610  145.3360 C   0  0  0  0  0  3  0  0  0  0  0  0
  183.6460  178.8940  144.2490 C   0  0  0  0  0  3  0  0  0  0  0  0
  183.8680  176.8070  137.6520 C   0  0  0  0  0  2  0  0  0  0  0  0
  183.3690  177.9150  139.9140 C   0  0  1  0  0  0  0  0  0  0  0  0
  183.4060  177.7370  141.3900 C   0  0  0  0  0  3  0  0  0  0  0  0
  185.1780  179.2120  140.9390 C   0  0  0  0  0  2  0  0  0  0  0  0
  184.4070  178.4130  141.9380 C   0  0  0  0  0  0  0  0  0  0  0  0
  184.5290  178.8550  139.6120 C   0  0  2  0  0  0  0  0  0  0  0  0
  183.1990  176.6820  139.0150 C   0  0  0  0  0  2  0  0  0  0  0  0
  185.3220  177.2230  137.8380 C   0  0  2  0  0  3  0  0  0  0  0  0
  183.0940  179.3130  139.3760 C   0  0  0  0  0  2  0  0  0  0  0  0
  185.3730  178.6560  138.3530 C   0  0  0  0  0  2  0  0  0  0  0  0
  187.0950  178.2620  136.4060 C   0  0  0  0  0  1  0  0  0  0  0  0
  186.1260  177.1000  136.5430 C   0  0  1  0  0  3  0  0  0  0  0  0
  187.9000  176.0540  137.3630 C   0  0  0  0  0  1  0  0  0  0  0  0
  186.8220  175.8880  136.4910 O   0  0  0  0  0  0  0  0  0  0  0  0
  190.2090  175.8170  142.8900 C   0  0  0  0  0  3  0  0  0  0  0  0
  188.8220  176.2810  142.6100 C   0  0  0  0  0  0  0  0  0  0  0  0
  186.9710  177.5290  143.1700 N   0  0  0  0  0  0  0  0  0  0  0  0
  190.2180  177.7540  141.6940 N   0  0  0  0  0  0  0  0  0  0  0  0
  191.0930  176.7880  142.2220 N   0  0  0  0  0  0  0  0  0  0  0  0
  187.7570  178.2930  142.2070 C   0  0  0  0  0  2  0  0  0  0  0  0
  188.8810  177.3740  141.9180 C   0  0  0  0  0  0  0  0  0  0  0  0
  187.6660  176.2980  143.5390 C   0  0  0  0  0  3  0  0  0  0  0  0
  1  2  2  0  0  0  0
  1  6  1  0  0  0  0
  2  5  1  0  0  0  0
  4  3  1  0  0  0  0
  5  3  2  0  0  0  0
  6  4  2  0  0  0  0
  7 14  1  0  0  0  0
  7 13  1  0  0  0  0
  8 13  1  6  0  0  0
  8  9  1  0  0  0  0
  9 11  2  0  0  0  0
 10 11  1  0  0  0  0
 11  1  1  0  0  0  0
 12 16  1  6  0  0  0
 12  8  1  0  0  0  0
 12 10  1  0  0  0  0
 14 18  1  6  0  0  0
 14 16  1  0  0  0  0
 15 12  1  0  0  0  0
 15  8  1  0  0  0  0
 18 17  1  1  0  0  0
 20 18  1  0  0  0  0
 20 19  1  0  0  0  0
 22 21  1  0  0  0  0
 22 28  2  0  0  0  0
 23 28  1  0  0  0  0
 23  2  1  0  0  0  0
 24 27  2  0  0  0  0
 24 25  1  0  0  0  0
 25 21  2  0  0  0  0
 26 23  1  0  0  0  0
 27 26  1  0  0  0  0
 27 22  1  0  0  0  0
M  END
>  <MODEL>
2

>  <REMARK>
 VINA RESULT:      -8.7      3.342      7.222
  Name = 
  4 active torsions:
  status: ('A' for Active; 'I' for Inactive)
    1  A    between atoms: C_4  and  C_16
    2  A    between atoms: C_5  and  C_19
    3  A    between atoms: C_5  and  O_26
    4  A    between atoms: N_6  and  C_13
                            x       y       z     vdW  Elec       q    Type
                         _______ _______ _______ _____ _____    ______ ____

>  <TORSDO>
F 4

$$$$
=
 OpenBabel11062416473D

 28 33  0  0  1  0  0  0  0  0999 V2000
  187.2750  178.4380  140.9160 C   0  0  0  0  0  0  0  0  0  0  0  0
  187.0150  178.2520  139.5370 C   0  0  0  0  0  0  0  0  0  0  0  0
  184.7910  179.1470  139.8700 C   0  0  0  0  0  3  0  0  0  0  0  0
  185.0680  179.3460  141.1840 N   0  0  0  0  0  0  0  0  0  0  0  0
  185.7570  178.5990  139.0280 C   0  0  0  0  0  3  0  0  0  0  0  0
  186.2720  179.0060  141.7160 C   0  0  0  0  0  3  0  0  0  0  0  0
  191.4520  175.5780  144.1800 C   0  0  0  0  0  2  0  0  0  0  0  0
  190.3300  176.6270  142.1220 C   0  0  1  0  0  0  0  0  0  0  0  0
  189.0490  176.7850  141.3840 C   0  0  0  0  0  3  0  0  0  0  0  0
  189.4010  178.8780  142.3910 C   0  0  0  0  0  2  0  0  0  0  0  0
  188.5300  177.9940  141.5590 C   0  0  0  0  0  0  0  0  0  0  0  0
  190.5540  177.9750  142.7940 C   0  0  2  0  0  0  0  0  0  0  0  0
  190.5570  175.3640  142.9660 C   0  0  0  0  0  2  0  0  0  0  0  0
  190.9340  176.7600  144.9890 C   0  0  2  0  0  3  0  0  0  0  0  0
  191.5030  177.5000  141.7000 C   0  0  0  0  0  2  0  0  0  0  0  0
  191.1510  178.0440  144.2010 C   0  0  0  0  0  2  0  0  0  0  0  0
  190.5670  176.9910  147.4560 C   0  0  0  0  0  1  0  0  0  0  0  0
  191.6090  176.8610  146.3580 C   0  0  1  0  0  3  0  0  0  0  0  0
  192.4530  175.6270  147.9940 C   0  0  0  0  0  1  0  0  0  0  0  0
  192.4280  175.7550  146.6040 O   0  0  0  0  0  0  0  0  0  0  0  0
  190.1270  175.0850  137.2860 C   0  0  0  0  0  3  0  0  0  0  0  0
  189.3160  176.3280  137.3970 C   0  0  0  0  0  0  0  0  0  0  0  0
  188.0230  177.7790  138.6320 N   0  0  0  0  0  0  0  0  0  0  0  0
  191.4060  176.8430  137.9610 N   0  0  0  0  0  0  0  0  0  0  0  0
  191.5070  175.4840  137.6150 N   0  0  0  0  0  0  0  0  0  0  0  0
  189.3870  178.2970  138.6060 C   0  0  0  0  0  2  0  0  0  0  0  0
  190.0880  177.2980  137.7690 C   0  0  0  0  0  0  0  0  0  0  0  0
  187.9570  176.4760  137.9740 C   0  0  0  0  0  3  0  0  0  0  0  0
  1 11  1  0  0  0  0
  1  6  1  0  0  0  0
  2  1  2  0  0  0  0
  3  4  1  0  0  0  0
  4  6  2  0  0  0  0
  5  2  1  0  0  0  0
  5  3  2  0  0  0  0
  7 14  1  0  0  0  0
  8  9  1  6  0  0  0
  8 12  1  0  0  0  0
  8 13  1  0  0  0  0
  9 11  2  0  0  0  0
 10 12  1  0  0  0  0
 11 10  1  0  0  0  0
 12 15  1  6  0  0  0
 12 16  1  0  0  0  0
 13  7  1  0  0  0  0
 14 18  1  1  0  0  0
 15  8  1  0  0  0  0
 16 14  1  0  0  0  0
 18 20  1  0  0  0  0
 18 17  1  1  0  0  0
 20 19  1  0  0  0  0
 21 22  1  0  0  0  0
 21 25  2  0  0  0  0
 22 27  1  0  0  0  0
 22 28  2  0  0  0  0
 23  2  1  0  0  0  0
 25 24  1  0  0  0  0
 26 23  1  0  0  0  0
 27 24  2  0  0  0  0
 27 26  1  0  0  0  0
 28 23  1  0  0  0  0
M  END
>  <MODEL>
3

>  <REMARK>
 VINA RESULT:      -7.9      2.594      4.886
  Name = 
  4 active torsions:
  status: ('A' for Active; 'I' for Inactive)
    1  A    between atoms: C_4  and  C_16
    2  A    between atoms: C_5  and  C_19
    3  A    between atoms: C_5  and  O_26
    4  A    between atoms: N_6  and  C_13
                            x       y       z     vdW  Elec       q    Type
                         _______ _______ _______ _____ _____    ______ ____

>  <TORSDO>
F 4

$$$$
=
 OpenBabel11062416473D

 28 33  0  0  1  0  0  0  0  0999 V2000
  188.0530  178.1510  140.7140 C   0  0  0  0  0  0  0  0  0  0  0  0
  186.6690  178.2890  140.9780 C   0  0  0  0  0  0  0  0  0  0  0  0
  186.2860  178.6210  138.6110 C   0  0  0  0  0  3  0  0  0  0  0  0
  187.6130  178.4560  138.3730 N   0  0  0  0  0  0  0  0  0  0  0  0
  185.7940  178.5390  139.9130 C   0  0  0  0  0  3  0  0  0  0  0  0
  188.4920  178.2280  139.3840 C   0  0  0  0  0  3  0  0  0  0  0  0
  191.5520  176.1200  145.1770 C   0  0  0  0  0  2  0  0  0  0  0  0
  190.9220  177.2080  142.9370 C   0  0  1  0  0  0  0  0  0  0  0  0
  190.0420  177.1100  141.7430 C   0  0  0  0  0  3  0  0  0  0  0  0
  189.1450  178.8930  142.9820 C   0  0  0  0  0  2  0  0  0  0  0  0
  189.0600  178.0010  141.7870 C   0  0  0  0  0  0  0  0  0  0  0  0
  190.3340  178.3490  143.7560 C   0  0  2  0  0  0  0  0  0  0  0  0
  191.3160  175.9250  143.6850 C   0  0  0  0  0  2  0  0  0  0  0  0
  190.3530  176.8320  145.7900 C   0  0  2  0  0  3  0  0  0  0  0  0
  191.7160  178.4930  143.1300 C   0  0  0  0  0  2  0  0  0  0  0  0
  190.3070  178.2680  145.2830 C   0  0  0  0  0  2  0  0  0  0  0  0
  191.7800  176.4340  147.8100 C   0  0  0  0  0  1  0  0  0  0  0  0
  190.3930  176.8150  147.3190 C   0  0  1  0  0  3  0  0  0  0  0  0
  188.8290  177.8070  148.5370 C   0  0  0  0  0  1  0  0  0  0  0  0
  190.0200  178.0530  147.8510 O   0  0  0  0  0  0  0  0  0  0  0  0
  185.2010  179.4480  145.5910 C   0  0  0  0  0  3  0  0  0  0  0  0
  185.2190  178.6300  144.3470 C   0  0  0  0  0  0  0  0  0  0  0  0
  186.1270  178.1170  142.2950 N   0  0  0  0  0  0  0  0  0  0  0  0
  186.5850  177.6540  145.8090 N   0  0  0  0  0  0  0  0  0  0  0  0
  186.0720  178.7380  146.5440 N   0  0  0  0  0  0  0  0  0  0  0  0
  186.6880  177.1990  143.2810 C   0  0  0  0  0  2  0  0  0  0  0  0
  186.0070  177.6180  144.5260 C   0  0  0  0  0  0  0  0  0  0  0  0
  185.2780  179.1130  142.9450 C   0  0  0  0  0  3  0  0  0  0  0  0
  1  2  1  0  0  0  0
  1 11  1  0  0  0  0
  2 23  1  0  0  0  0
  3  5  1  0  0  0  0
  4  3  2  0  0  0  0
  4  6  1  0  0  0  0
  5  2  2  0  0  0  0
  6  1  2  0  0  0  0
  7 14  1  0  0  0  0
  8  9  1  6  0  0  0
  8 15  1  0  0  0  0
  8 13  1  0  0  0  0
  8 12  1  0  0  0  0
  9 11  2  0  0  0  0
 11 10  1  0  0  0  0
 12 10  1  6  0  0  0
 12 16  1  0  0  0  0
 13  7  1  0  0  0  0
 14 18  1  1  0  0  0
 15 12  1  0  0  0  0
 16 14  1  0  0  0  0
 18 17  1  6  0  0  0
 18 20  1  0  0  0  0
 20 19  1  0  0  0  0
 21 25  2  0  0  0  0
 22 27  1  0  0  0  0
 22 21  1  0  0  0  0
 23 28  1  0  0  0  0
 23 26  1  0  0  0  0
 24 25  1  0  0  0  0
 26 27  1  0  0  0  0
 27 24  2  0  0  0  0
 28 22  2  0  0  0  0
M  END
>  <MODEL>
4

>  <REMARK>
 VINA RESULT:      -7.9      1.362      1.764
  Name = 
  4 active torsions:
  status: ('A' for Active; 'I' for Inactive)
    1  A    between atoms: C_4  and  C_16
    2  A    between atoms: C_5  and  C_19
    3  A    between atoms: C_5  and  O_26
    4  A    between atoms: N_6  and  C_13
                            x       y       z     vdW  Elec       q    Type
                         _______ _______ _______ _____ _____    ______ ____

>  <TORSDO>
F 4

$$$$
=
 OpenBabel11062416473D

 28 33  0  0  1  0  0  0  0  0999 V2000
  186.2910  178.1210  144.8250 C   0  0  0  0  0  0  0  0  0  0  0  0
  185.2500  178.6320  144.0120 C   0  0  0  0  0  0  0  0  0  0  0  0
  183.8140  178.7150  145.9590 C   0  0  0  0  0  3  0  0  0  0  0  0
  184.8330  178.2520  146.7290 N   0  0  0  0  0  0  0  0  0  0  0  0
  184.0070  178.9130  144.5930 C   0  0  0  0  0  3  0  0  0  0  0  0
  186.0480  177.9550  146.1970 C   0  0  0  0  0  3  0  0  0  0  0  0
  191.6910  177.8490  142.1710 C   0  0  0  0  0  2  0  0  0  0  0  0
  189.9000  177.5470  143.9880 C   0  0  1  0  0  0  0  0  0  0  0  0
  188.7550  178.1890  144.6840 C   0  0  0  0  0  3  0  0  0  0  0  0
  187.7590  176.5850  143.2870 C   0  0  0  0  0  2  0  0  0  0  0  0
  187.5950  177.6900  144.2780 C   0  0  0  0  0  0  0  0  0  0  0  0
  189.2610  176.5190  143.0640 C   0  0  2  0  0  0  0  0  0  0  0  0
  191.0150  178.4310  143.4060 C   0  0  0  0  0  2  0  0  0  0  0  0
  190.6310  177.4630  141.1480 C   0  0  2  0  0  3  0  0  0  0  0  0
  190.1340  176.0610  144.2270 C   0  0  0  0  0  2  0  0  0  0  0  0
  189.8390  176.2720  141.6690 C   0  0  0  0  0  2  0  0  0  0  0  0
  192.7570  177.1690  139.8570 C   0  0  0  0  0  1  0  0  0  0  0  0
  191.2400  177.1350  139.7840 C   0  0  1  0  0  3  0  0  0  0  0  0
  190.2660  176.1350  138.0620 C   0  0  0  0  0  1  0  0  0  0  0  0
  190.8110  175.8860  139.3230 O   0  0  0  0  0  0  0  0  0  0  0  0
  184.9460  178.1780  139.0640 C   0  0  0  0  0  3  0  0  0  0  0  0
  185.1600  178.9150  140.3400 C   0  0  0  0  0  0  0  0  0  0  0  0
  185.4520  178.9330  142.6240 N   0  0  0  0  0  0  0  0  0  0  0  0
  187.1640  178.3710  139.5380 N   0  0  0  0  0  0  0  0  0  0  0  0
  186.2940  177.8870  138.5450 N   0  0  0  0  0  0  0  0  0  0  0  0
  186.7680  179.0000  141.9990 C   0  0  0  0  0  2  0  0  0  0  0  0
  186.4330  179.0090  140.5570 C   0  0  0  0  0  0  0  0  0  0  0  0
  184.4110  178.7630  141.6120 C   0  0  0  0  0  3  0  0  0  0  0  0
  1  6  1  0  0  0  0
  2  5  1  0  0  0  0
  2  1  2  0  0  0  0
  3  4  1  0  0  0  0
  5  3  2  0  0  0  0
  6  4  2  0  0  0  0
  7 13  1  0  0  0  0
  8 13  1  6  0  0  0
  8 15  1  0  0  0  0
  8  9  1  0  0  0  0
 10 11  1  0  0  0  0
 11  9  2  0  0  0  0
 11  1  1  0  0  0  0
 12 16  1  6  0  0  0
 12 10  1  0  0  0  0
 12  8  1  0  0  0  0
 12 15  1  0  0  0  0
 14 18  1  6  0  0  0
 14 16  1  0  0  0  0
 14  7  1  0  0  0  0
 18 17  1  1  0  0  0
 19 20  1  0  0  0  0
 20 18  1  0  0  0  0
 21 22  1  0  0  0  0
 22 27  1  0  0  0  0
 22 28  2  0  0  0  0
 23  2  1  0  0  0  0
 24 27  2  0  0  0  0
 25 21  2  0  0  0  0
 25 24  1  0  0  0  0
 26 23  1  0  0  0  0
 27 26  1  0  0  0  0
 28 23  1  0  0  0  0
M  END
>  <MODEL>
5

>  <REMARK>
 VINA RESULT:      -7.8      2.312      5.360
  Name = 
  4 active torsions:
  status: ('A' for Active; 'I' for Inactive)
    1  A    between atoms: C_4  and  C_16
    2  A    between atoms: C_5  and  C_19
    3  A    between atoms: C_5  and  O_26
    4  A    between atoms: N_6  and  C_13
                            x       y       z     vdW  Elec       q    Type
                         _______ _______ _______ _____ _____    ______ ____

>  <TORSDO>
F 4

$$$$
=
 OpenBabel11062416473D

 28 33  0  0  1  0  0  0  0  0999 V2000
  187.0640  177.8350  145.1260 C   0  0  0  0  0  0  0  0  0  0  0  0
  185.8500  178.4150  144.6860 C   0  0  0  0  0  0  0  0  0  0  0  0
  185.0450  178.3810  146.9690 C   0  0  0  0  0  3  0  0  0  0  0  0
  186.2270  177.8520  147.3770 N   0  0  0  0  0  0  0  0  0  0  0  0
  184.8380  178.6710  145.6210 C   0  0  0  0  0  3  0  0  0  0  0  0
  187.2240  177.5760  146.4960 C   0  0  0  0  0  3  0  0  0  0  0  0
  191.5930  177.6950  141.1590 C   0  0  0  0  0  2  0  0  0  0  0  0
  190.2720  177.1780  143.2990 C   0  0  1  0  0  0  0  0  0  0  0  0
  189.4110  177.7550  144.3660 C   0  0  0  0  0  3  0  0  0  0  0  0
  187.9280  176.5210  143.0260 C   0  0  0  0  0  2  0  0  0  0  0  0
  188.1370  177.4260  144.1960 C   0  0  0  0  0  0  0  0  0  0  0  0
  189.3130  176.3940  142.4140 C   0  0  2  0  0  0  0  0  0  0  0  0
  191.3080  178.0760  142.6060 C   0  0  0  0  0  2  0  0  0  0  0  0
  190.2800  177.5880  140.3950 C   0  0  2  0  0  3  0  0  0  0  0  0
  190.3810  175.6620  143.2180 C   0  0  0  0  0  2  0  0  0  0  0  0
  189.5040  176.3780  140.8970 C   0  0  0  0  0  2  0  0  0  0  0  0
  191.3460  176.2680  138.5530 C   0  0  0  0  0  1  0  0  0  0  0  0
  190.4990  177.4840  138.8850 C   0  0  1  0  0  3  0  0  0  0  0  0
  189.2070  178.6220  137.4880 C   0  0  0  0  0  1  0  0  0  0  0  0
  189.2830  177.4220  138.1980 O   0  0  0  0  0  0  0  0  0  0  0  0
  184.3220  178.1780  139.9540 C   0  0  0  0  0  3  0  0  0  0  0  0
  184.7780  178.8700  141.1910 C   0  0  0  0  0  0  0  0  0  0  0  0
  185.6490  178.8090  143.3210 N   0  0  0  0  0  0  0  0  0  0  0  0
  186.5520  178.6280  139.8680 N   0  0  0  0  0  0  0  0  0  0  0  0
  185.5120  178.0880  139.0900 N   0  0  0  0  0  0  0  0  0  0  0  0
  186.7420  179.0760  142.3930 C   0  0  0  0  0  2  0  0  0  0  0  0
  186.0450  179.1150  141.0870 C   0  0  0  0  0  0  0  0  0  0  0  0
  184.4060  178.5600  142.5940 C   0  0  0  0  0  3  0  0  0  0  0  0
  1  6  1  0  0  0  0
  2  1  2  0  0  0  0
  2  5  1  0  0  0  0
  3  4  1  0  0  0  0
  5  3  2  0  0  0  0
  6  4  2  0  0  0  0
  7 13  1  0  0  0  0
  8 13  1  6  0  0  0
  8  9  1  0  0  0  0
 10 11  1  0  0  0  0
 11  9  2  0  0  0  0
 11  1  1  0  0  0  0
 12 16  1  6  0  0  0
 12 10  1  0  0  0  0
 12 15  1  0  0  0  0
 12  8  1  0  0  0  0
 14 18  1  6  0  0  0
 14 16  1  0  0  0  0
 14  7  1  0  0  0  0
 15  8  1  0  0  0  0
 18 17  1  1  0  0  0
 19 20  1  0  0  0  0
 20 18  1  0  0  0  0
 21 22  1  0  0  0  0
 22 28  2  0  0  0  0
 23  2  1  0  0  0  0
 24 27  2  0  0  0  0
 25 24  1  0  0  0  0
 25 21  2  0  0  0  0
 26 23  1  0  0  0  0
 27 22  1  0  0  0  0
 27 26  1  0  0  0  0
 28 23  1  0  0  0  0
M  END
>  <MODEL>
6

>  <REMARK>
 VINA RESULT:      -7.7      2.531      5.658
  Name = 
  4 active torsions:
  status: ('A' for Active; 'I' for Inactive)
    1  A    between atoms: C_4  and  C_16
    2  A    between atoms: C_5  and  C_19
    3  A    between atoms: C_5  and  O_26
    4  A    between atoms: N_6  and  C_13
                            x       y       z     vdW  Elec       q    Type
                         _______ _______ _______ _____ _____    ______ ____

>  <TORSDO>
F 4

$$$$
=
 OpenBabel11062416473D

 28 33  0  0  1  0  0  0  0  0999 V2000
  187.7510  177.9910  145.7910 C   0  0  0  0  0  0  0  0  0  0  0  0
  186.3970  178.1090  145.3920 C   0  0  0  0  0  0  0  0  0  0  0  0
  185.8050  178.6390  147.6790 C   0  0  0  0  0  3  0  0  0  0  0  0
  187.1120  178.5510  148.0370 N   0  0  0  0  0  0  0  0  0  0  0  0
  185.4280  178.4210  146.3550 C   0  0  0  0  0  3  0  0  0  0  0  0
  188.0770  178.2340  147.1340 C   0  0  0  0  0  3  0  0  0  0  0  0
  191.9580  177.6500  141.4940 C   0  0  0  0  0  2  0  0  0  0  0  0
  190.9000  177.4570  143.8260 C   0  0  1  0  0  0  0  0  0  0  0  0
  190.0170  178.1240  144.8190 C   0  0  0  0  0  3  0  0  0  0  0  0
  188.7100  176.3680  143.9660 C   0  0  0  0  0  2  0  0  0  0  0  0
  188.8200  177.5530  144.8680 C   0  0  0  0  0  0  0  0  0  0  0  0
  190.0520  176.3300  143.2530 C   0  0  2  0  0  0  0  0  0  0  0  0
  191.7000  178.3200  142.8380 C   0  0  0  0  0  2  0  0  0  0  0  0
  190.6430  177.1380  140.9220 C   0  0  2  0  0  3  0  0  0  0  0  0
  191.2900  176.0080  144.0830 C   0  0  0  0  0  2  0  0  0  0  0  0
  190.1440  175.9750  141.7690 C   0  0  0  0  0  2  0  0  0  0  0  0
  189.8600  177.5310  138.5750 C   0  0  0  0  0  1  0  0  0  0  0  0
  190.7790  176.7070  139.4610 C   0  0  1  0  0  3  0  0  0  0  0  0
  192.0890  176.3160  137.7170 C   0  0  0  0  0  1  0  0  0  0  0  0
  192.1000  176.8220  139.0180 O   0  0  0  0  0  0  0  0  0  0  0  0
  186.1600  179.0560  140.5110 C   0  0  0  0  0  3  0  0  0  0  0  0
  186.0130  178.2140  141.7300 C   0  0  0  0  0  0  0  0  0  0  0  0
  185.9970  177.9820  144.0200 N   0  0  0  0  0  0  0  0  0  0  0  0
  184.0070  179.0520  141.2510 N   0  0  0  0  0  0  0  0  0  0  0  0
  184.8040  179.5430  140.2020 N   0  0  0  0  0  0  0  0  0  0  0  0
  184.6170  178.1230  143.5700 C   0  0  0  0  0  2  0  0  0  0  0  0
  184.7730  178.2330  142.1020 C   0  0  0  0  0  0  0  0  0  0  0  0
  186.9220  178.1470  142.9010 C   0  0  0  0  0  3  0  0  0  0  0  0
  1  6  1  0  0  0  0
  2  1  2  0  0  0  0
  2  5  1  0  0  0  0
  3  4  1  0  0  0  0
  5  3  2  0  0  0  0
  6  4  2  0  0  0  0
  7 13  1  0  0  0  0
  8 13  1  6  0  0  0
  8 15  1  0  0  0  0
  8  9  1  0  0  0  0
  9 11  2  0  0  0  0
 10 11  1  0  0  0  0
 11  1  1  0  0  0  0
 12 16  1  6  0  0  0
 12  8  1  0  0  0  0
 12 10  1  0  0  0  0
 12 15  1  0  0  0  0
 14 18  1  6  0  0  0
 14  7  1  0  0  0  0
 14 16  1  0  0  0  0
 18 17  1  6  0  0  0
 19 20  1  0  0  0  0
 20 18  1  0  0  0  0
 21 22  1  0  0  0  0
 22 27  1  0  0  0  0
 22 28  2  0  0  0  0
 23  2  1  0  0  0  0
 24 27  2  0  0  0  0
 25 21  2  0  0  0  0
 25 24  1  0  0  0  0
 26 23  1  0  0  0  0
 27 26  1  0  0  0  0
 28 23  1  0  0  0  0
M  END
>  <MODEL>
7

>  <REMARK>
 VINA RESULT:      -7.5      2.256      5.478
  Name = 
  4 active torsions:
  status: ('A' for Active; 'I' for Inactive)
    1  A    between atoms: C_4  and  C_16
    2  A    between atoms: C_5  and  C_19
    3  A    between atoms: C_5  and  O_26
    4  A    between atoms: N_6  and  C_13
                            x       y       z     vdW  Elec       q    Type
                         _______ _______ _______ _____ _____    ______ ____

>  <TORSDO>
F 4

$$$$
=
 OpenBabel11062416473D

 28 33  0  0  1  0  0  0  0  0999 V2000
  187.3710  177.7030  145.9650 C   0  0  0  0  0  0  0  0  0  0  0  0
  188.6760  177.4880  145.4580 C   0  0  0  0  0  0  0  0  0  0  0  0
  189.3780  176.7750  147.6620 C   0  0  0  0  0  3  0  0  0  0  0  0
  188.1150  176.9580  148.1240 N   0  0  0  0  0  0  0  0  0  0  0  0
  189.6780  177.0350  146.3250 C   0  0  0  0  0  3  0  0  0  0  0  0
  187.1210  177.4110  147.3140 C   0  0  0  0  0  3  0  0  0  0  0  0
  182.2270  178.7630  143.0170 C   0  0  0  0  0  2  0  0  0  0  0  0
  184.2030  179.1760  144.6050 C   0  0  1  0  0  0  0  0  0  0  0  0
  185.0810  178.5650  145.6370 C   0  0  0  0  0  3  0  0  0  0  0  0
  186.4450  178.7190  143.7300 C   0  0  0  0  0  2  0  0  0  0  0  0
  186.2840  178.2870  145.1510 C   0  0  0  0  0  0  0  0  0  0  0  0
  185.0740  179.2600  143.3590 C   0  0  2  0  0  0  0  0  0  0  0  0
  182.7680  178.6520  144.4360 C   0  0  0  0  0  2  0  0  0  0  0  0
  183.2180  178.1340  142.0460 C   0  0  2  0  0  3  0  0  0  0  0  0
  184.6020  180.5360  144.0480 C   0  0  0  0  0  2  0  0  0  0  0  0
  184.4720  178.9950  141.9780 C   0  0  0  0  0  2  0  0  0  0  0  0
  183.0740  179.0850  139.7330 C   0  0  0  0  0  1  0  0  0  0  0  0
  182.6230  177.9590  140.6480 C   0  0  1  0  0  3  0  0  0  0  0  0
  181.8300  176.2860  139.4300 C   0  0  0  0  0  1  0  0  0  0  0  0
  182.9760  176.7240  140.0960 O   0  0  0  0  0  0  0  0  0  0  0  0
  190.0420  176.3050  140.8190 C   0  0  0  0  0  3  0  0  0  0  0  0
  189.3850  177.1440  141.8590 C   0  0  0  0  0  0  0  0  0  0  0  0
  188.9860  177.6580  144.0670 N   0  0  0  0  0  0  0  0  0  0  0  0
  191.3800  178.0390  141.4410 N   0  0  0  0  0  0  0  0  0  0  0  0
  191.3290  176.9630  140.5370 N   0  0  0  0  0  0  0  0  0  0  0  0
  190.0470  178.5350  143.5830 C   0  0  0  0  0  2  0  0  0  0  0  0
  190.1770  178.1210  142.1680 C   0  0  0  0  0  0  0  0  0  0  0  0
  188.6160  176.6850  143.0420 C   0  0  0  0  0  3  0  0  0  0  0  0
  1  6  1  0  0  0  0
  2  1  2  0  0  0  0
  2  5  1  0  0  0  0
  3  4  1  0  0  0  0
  5  3  2  0  0  0  0
  6  4  2  0  0  0  0
  7 13  1  0  0  0  0
  8 15  1  1  0  0  0
  8  9  1  0  0  0  0
 10 11  1  0  0  0  0
 11  9  2  0  0  0  0
 11  1  1  0  0  0  0
 12 16  1  6  0  0  0
 12 10  1  0  0  0  0
 12 15  1  0  0  0  0
 12  8  1  0  0  0  0
 13  8  1  0  0  0  0
 14 18  1  6  0  0  0
 14  7  1  0  0  0  0
 16 14  1  0  0  0  0
 18 17  1  6  0  0  0
 19 20  1  0  0  0  0
 20 18  1  0  0  0  0
 21 22  1  0  0  0  0
 22 27  1  0  0  0  0
 22 28  2  0  0  0  0
 23  2  1  0  0  0  0
 24 27  2  0  0  0  0
 25 21  2  0  0  0  0
 25 24  1  0  0  0  0
 26 23  1  0  0  0  0
 27 26  1  0  0  0  0
 28 23  1  0  0  0  0
M  END
>  <MODEL>
8

>  <REMARK>
 VINA RESULT:      -7.5      3.208      7.676
  Name = 
  4 active torsions:
  status: ('A' for Active; 'I' for Inactive)
    1  A    between atoms: C_4  and  C_16
    2  A    between atoms: C_5  and  C_19
    3  A    between atoms: C_5  and  O_26
    4  A    between atoms: N_6  and  C_13
                            x       y       z     vdW  Elec       q    Type
                         _______ _______ _______ _____ _____    ______ ____

>  <TORSDO>
F 4

$$$$
=
 OpenBabel11062416473D

 28 33  0  0  1  0  0  0  0  0999 V2000
  188.5330  177.6290  139.8870 C   0  0  0  0  0  0  0  0  0  0  0  0
  188.9060  176.9800  138.6850 C   0  0  0  0  0  0  0  0  0  0  0  0
  186.7810  177.6220  137.7190 C   0  0  0  0  0  3  0  0  0  0  0  0
  186.4530  178.2640  138.8690 N   0  0  0  0  0  0  0  0  0  0  0  0
  188.0100  176.9730  137.6080 C   0  0  0  0  0  3  0  0  0  0  0  0
  187.2910  178.2790  139.9390 C   0  0  0  0  0  3  0  0  0  0  0  0
  191.3080  176.0490  144.9950 C   0  0  0  0  0  2  0  0  0  0  0  0
  191.0290  176.9210  142.5950 C   0  0  1  0  0  0  0  0  0  0  0  0
  190.3390  176.7050  141.2960 C   0  0  0  0  0  3  0  0  0  0  0  0
  189.2730  178.5860  142.2150 C   0  0  0  0  0  2  0  0  0  0  0  0
  189.3650  177.5880  141.1090 C   0  0  0  0  0  0  0  0  0  0  0  0
  190.3290  178.1270  143.2070 C   0  0  2  0  0  0  0  0  0  0  0  0
  191.2990  175.7150  143.5080 C   0  0  0  0  0  2  0  0  0  0  0  0
  190.0340  176.8030  145.3520 C   0  0  2  0  0  3  0  0  0  0  0  0
  191.7910  178.2250  142.7860 C   0  0  0  0  0  2  0  0  0  0  0  0
  190.0710  178.1860  144.7130 C   0  0  0  0  0  2  0  0  0  0  0  0
  191.1690  176.7530  147.5840 C   0  0  0  0  0  1  0  0  0  0  0  0
  189.8420  176.9270  146.8640 C   0  0  1  0  0  3  0  0  0  0  0  0
  188.4400  177.8780  148.2930 C   0  0  0  0  0  1  0  0  0  0  0  0
  189.2700  178.1560  147.2050 O   0  0  0  0  0  0  0  0  0  0  0  0
  193.5650  176.3760  137.0380 C   0  0  0  0  0  3  0  0  0  0  0  0
  192.4290  176.1670  137.9770 C   0  0  0  0  0  0  0  0  0  0  0  0
  190.2010  176.3860  138.5140 N   0  0  0  0  0  0  0  0  0  0  0  0
  192.4910  174.4170  136.6040 N   0  0  0  0  0  0  0  0  0  0  0  0
  193.6000  175.1740  136.1870 N   0  0  0  0  0  0  0  0  0  0  0  0
  190.4060  175.0490  137.9700 C   0  0  0  0  0  2  0  0  0  0  0  0
  191.8610  175.0370  137.6990 C   0  0  0  0  0  0  0  0  0  0  0  0
  191.4330  177.1680  138.4330 C   0  0  0  0  0  3  0  0  0  0  0  0
  1  6  1  0  0  0  0
  1 11  1  0  0  0  0
  2  1  2  0  0  0  0
  3  4  1  0  0  0  0
  4  6  2  0  0  0  0
  5  3  2  0  0  0  0
  5  2  1  0  0  0  0
  7 14  1  0  0  0  0
  8  9  1  6  0  0  0
  8 15  1  0  0  0  0
  8 12  1  0  0  0  0
  8 13  1  0  0  0  0
 11  9  2  0  0  0  0
 11 10  1  0  0  0  0
 12 10  1  6  0  0  0
 12 16  1  0  0  0  0
 13  7  1  0  0  0  0
 14 18  1  1  0  0  0
 15 12  1  0  0  0  0
 16 14  1  0  0  0  0
 18 20  1  0  0  0  0
 18 17  1  1  0  0  0
 20 19  1  0  0  0  0
 21 22  1  0  0  0  0
 22 28  2  0  0  0  0
 23  2  1  0  0  0  0
 24 27  2  0  0  0  0
 25 24  1  0  0  0  0
 25 21  2  0  0  0  0
 26 23  1  0  0  0  0
 27 26  1  0  0  0  0
 27 22  1  0  0  0  0
 28 23  1  0  0  0  0
M  END
>  <MODEL>
9

>  <REMARK>
 VINA RESULT:      -7.4      3.597      6.003
  Name = 
  4 active torsions:
  status: ('A' for Active; 'I' for Inactive)
    1  A    between atoms: C_4  and  C_16
    2  A    between atoms: C_5  and  C_19
    3  A    between atoms: C_5  and  O_26
    4  A    between atoms: N_6  and  C_13
                            x       y       z     vdW  Elec       q    Type
                         _______ _______ _______ _____ _____    ______ ____

>  <TORSDO>
F 4

$$$$
