=
 OpenBabel11062417473D

 64 68  0  0  1  0  0  0  0  0999 V2000
  188.1820  175.5170  136.3680 C   0  0  2  0  0  3  0  0  0  0  0  0
  181.0920  176.8430  137.6690 C   0  0  2  0  0  3  0  0  0  0  0  0
  181.7240  174.4820  137.5930 O   0  0  0  0  0  0  0  0  0  0  0  0
  182.3550  171.1020  135.2210 O   0  0  0  0  0  0  0  0  0  0  0  0
  185.8040  171.3170  135.3090 O   0  0  0  0  0  1  0  0  0  0  0  0
  183.5700  171.9930  137.0510 C   0  0  0  0  0  2  0  0  0  0  0  0
  184.8220  172.8550  136.8950 C   0  0  2  0  0  3  0  0  0  0  0  0
  184.5640  174.3330  137.1820 C   0  0  1  0  0  3  0  0  0  0  0  0
  187.0960  178.3770  138.2700 O   0  0  0  0  0  0  0  0  0  0  0  0
  181.3010  175.5870  135.4960 C   0  0  0  0  0  2  0  0  0  0  0  0
  181.9820  173.3280  135.5850 O   0  0  0  0  0  0  0  0  0  0  0  0
  185.9150  175.0550  137.2960 C   0  0  2  0  0  3  0  0  0  0  0  0
  185.7310  176.5090  137.7290 C   0  0  0  0  0  2  0  0  0  0  0  0
  181.9320  175.7100  138.2680 C   0  0  0  0  0  2  0  0  0  0  0  0
  181.3330  176.9530  136.1620 C   0  0  0  0  0  2  0  0  0  0  0  0
  187.7750  172.7350  136.6390 O   0  0  0  0  0  1  0  0  0  0  0  0
  187.0060  177.2820  137.6570 C   0  0  0  0  0  0  0  0  0  0  0  0
  186.2420  175.5560  134.9520 O   0  0  0  0  0  1  0  0  0  0  0  0
  186.9680  173.3860  135.6950 C   0  0  2  0  0  3  0  0  0  0  0  0
  182.1730  174.5780  136.2480 C   0  0  2  0  0  0  0  0  0  0  0  0
  186.8120  174.8890  136.0430 C   0  0  1  0  0  0  0  0  0  0  0  0
  182.6100  172.1230  135.9110 C   0  0  0  0  0  0  0  0  0  0  0  0
  185.6110  172.6730  135.5880 C   0  0  1  0  0  3  0  0  0  0  0  0
  188.0630  176.8580  136.8490 O   0  0  0  0  0  0  0  0  0  0  0  0
  183.6540  174.9920  136.1330 C   0  0  0  0  0  2  0  0  0  0  0  0
  189.2970  176.6970  134.5940 O   0  0  0  0  0  1  0  0  0  0  0  0
  189.1880  175.4480  135.2050 C   0  0  1  0  0  3  0  0  0  0  0  0
  190.0200  172.1090  134.6050 O   0  0  0  0  0  0  0  0  0  0  0  0
  192.5460  172.8930  135.1730 O   0  0  0  0  0  0  0  0  0  0  0  0
  191.1110  173.3380  135.0050 P   0  0  0  0  0  0  0  0  0  0  0  0
  190.5860  174.9500  135.6220 C   0  0  2  0  0  3  0  0  0  0  0  0
  190.5920  173.9850  136.5520 O   0  0  0  0  0  0  0  0  0  0  0  0
  191.7150  175.9510  135.8060 C   0  0  0  0  0  2  0  0  0  0  0  0
  191.6770  176.5090  137.1470 N   0  0  0  0  0  2  0  0  0  0  0  0
  193.5160  175.2740  137.8810 O   0  0  0  0  0  0  0  0  0  0  0  0
  192.6350  176.1380  138.1400 C   0  0  0  0  0  0  0  0  0  0  0  0
  192.5800  176.7410  139.5080 C   0  0  1  0  0  3  0  0  0  0  0  0
  193.6770  177.6720  139.7200 N   0  0  0  0  0  1  0  0  0  0  0  0
  191.2300  177.3930  139.8100 C   0  0  0  0  0  2  0  0  0  0  0  0
  189.4100  177.6160  141.3530 O   0  0  0  0  0  1  0  0  0  0  0  0
  190.6520  177.0020  141.1650 C   0  0  0  0  0  2  0  0  0  0  0  0
  181.4070  178.1680  138.3760 C   0  0  2  0  0  3  0  0  0  0  0  0
  182.0030  177.9300  139.6240 O   0  0  0  0  0  0  0  0  0  0  0  0
  183.6170  178.8240  137.5160 O   0  0  0  0  0  0  0  0  0  0  0  0
  184.6350  180.2390  138.9990 O   0  0  0  0  0  1  0  0  0  0  0  0
  183.7360  179.3820  138.7840 C   0  0  0  0  0  0  0  0  0  0  0  0
  182.8550  178.9660  139.8390 N   0  0  0  0  0  0  0  0  0  0  0  0
  183.0680  179.4200  141.2130 C   0  0  0  0  0  2  0  0  0  0  0  0
  182.1890  178.7950  144.1980 C   0  0  2  0  0  3  0  0  0  0  0  0
  185.0720  180.2930  145.5050 O   0  0  0  0  0  0  0  0  0  0  0  0
  183.6650  178.3290  142.1020 C   0  0  1  0  0  3  0  0  0  0  0  0
  186.0680  177.9060  141.7380 C   0  0  0  0  0  1  0  0  0  0  0  0
  185.2970  178.3540  144.1030 C   0  0  2  0  0  3  0  0  0  0  0  0
  183.1560  179.0790  145.2090 O   0  0  0  0  0  0  0  0  0  0  0  0
  185.0780  178.6610  142.6140 C   0  0  2  0  0  3  0  0  0  0  0  0
  182.6590  177.7900  143.1340 C   0  0  0  0  0  2  0  0  0  0  0  0
  184.5090  179.3040  144.9620 C   0  0  0  0  0  0  0  0  0  0  0  0
  181.7110  179.9790  143.6330 O   0  0  0  0  0  1  0  0  0  0  0  0
  186.7780  178.3660  144.4910 C   0  0  0  0  0  2  0  0  0  0  0  0
  187.0830  177.2140  145.4350 C   0  0  0  0  0  1  0  0  0  0  0  0
  180.1890  179.1060  138.5020 C   0  0  0  0  0  2  0  0  0  0  0  0
  179.2460  178.7580  140.6750 O   0  0  0  0  0  1  0  0  0  0  0  0
  179.2780  180.9880  139.8690 C   0  0  0  0  0  1  0  0  0  0  0  0
  179.9960  179.6540  139.9140 C   0  0  2  0  0  3  0  0  0  0  0  0
  1 27  1  6  0  0  0
  1 24  1  0  0  0  0
  2 14  1  0  0  0  0
  2 42  1  1  0  0  0
  3 14  1  0  0  0  0
  4 22  2  0  0  0  0
  7  6  1  6  0  0  0
  7  8  1  0  0  0  0
  8 25  1  6  0  0  0
  8 12  1  0  0  0  0
 10 15  1  0  0  0  0
 11 22  1  0  0  0  0
 11 20  1  0  0  0  0
 12 13  1  6  0  0  0
 15  2  1  0  0  0  0
 17 13  1  0  0  0  0
 17  9  2  0  0  0  0
 19 21  1  0  0  0  0
 19 16  1  1  0  0  0
 20 10  1  6  0  0  0
 20  3  1  0  0  0  0
 21 18  1  6  0  0  0
 21  1  1  0  0  0  0
 21 12  1  0  0  0  0
 22  6  1  0  0  0  0
 23  5  1  1  0  0  0
 23 19  1  0  0  0  0
 23  7  1  0  0  0  0
 24 17  1  0  0  0  0
 25 20  1  0  0  0  0
 27 26  1  1  0  0  0
 27 31  1  0  0  0  0
 28 30  2  0  0  0  0
 30 29  2  0  0  0  0
 30 32  1  0  0  0  0
 31 33  1  1  0  0  0
 31 32  1  0  0  0  0
 33 34  1  0  0  0  0
 34 36  1  0  0  0  0
 35 36  2  0  0  0  0
 36 37  1  0  0  0  0
 37 38  1  6  0  0  0
 37 39  1  0  0  0  0
 39 41  1  0  0  0  0
 41 40  1  0  0  0  0
 42 61  1  1  0  0  0
 42 43  1  0  0  0  0
 43 47  1  0  0  0  0
 44 46  2  0  0  0  0
 46 45  1  0  0  0  0
 46 47  1  0  0  0  0
 47 48  1  0  0  0  0
 49 58  1  6  0  0  0
 49 54  1  0  0  0  0
 51 48  1  1  0  0  0
 51 55  1  0  0  0  0
 51 56  1  0  0  0  0
 53 59  1  1  0  0  0
 53 57  1  0  0  0  0
 55 52  1  6  0  0  0
 55 53  1  0  0  0  0
 56 49  1  0  0  0  0
 57 54  1  0  0  0  0
 57 50  2  0  0  0  0
 59 60  1  0  0  0  0
 61 64  1  0  0  0  0
 64 63  1  6  0  0  0
 64 62  1  0  0  0  0
M  END
>  <MODEL>
1

>  <REMARK>
 VINA RESULT:      -5.6      0.000      0.000
  Name = 
  15 active torsions:
  status: ('A' for Active; 'I' for Inactive)
    1  A    between atoms: O_1  and  C_20
    2  A    between atoms: O_1  and  N_60
    3  A    between atoms: C_2  and  C_35
    4  A    between atoms: C_3  and  C_20
    5  A    between atoms: C_4  and  C_20
    6  A    between atoms: C_4  and  C_50
    7  A    between atoms: C_5  and  N_12
    8  A    between atoms: C_5  and  C_37
    9  A    between atoms: C_14  and  C_27
   10  A    between atoms: C_14  and  C_52
   11  A    between atoms: C_27  and  C_53
   12  A    between atoms: C_34  and  C_39
   13  A    between atoms: C_34  and  N_60
   14  A    between atoms: C_35  and  C_37
   15  A    between atoms: C_44  and  C_51
                            x       y       z     vdW  Elec       q    Type
                         _______ _______ _______ _____ _____    ______ ____

>  <TORSDO>
F 15

$$$$
=
 OpenBabel11062417473D

 64 68  0  0  1  0  0  0  0  0999 V2000
  188.3800  175.0330  136.3910 C   0  0  2  0  0  3  0  0  0  0  0  0
  181.3940  176.6360  137.9180 C   0  0  2  0  0  3  0  0  0  0  0  0
  181.9200  174.2530  137.7840 O   0  0  0  0  0  0  0  0  0  0  0  0
  182.3370  170.8930  135.3370 O   0  0  0  0  0  0  0  0  0  0  0  0
  185.7930  170.9580  135.3300 O   0  0  0  0  0  1  0  0  0  0  0  0
  183.6400  171.6980  137.1460 C   0  0  0  0  0  2  0  0  0  0  0  0
  184.9240  172.5070  136.9700 C   0  0  2  0  0  3  0  0  0  0  0  0
  184.7380  173.9900  137.2890 C   0  0  1  0  0  3  0  0  0  0  0  0
  187.4730  177.9010  138.3730 O   0  0  0  0  0  0  0  0  0  0  0  0
  181.4860  175.4130  135.7190 C   0  0  0  0  0  2  0  0  0  0  0  0
  182.0710  173.1260  135.7500 O   0  0  0  0  0  0  0  0  0  0  0  0
  186.1210  174.6510  137.3760 C   0  0  2  0  0  3  0  0  0  0  0  0
  186.0130  176.1030  137.8390 C   0  0  0  0  0  2  0  0  0  0  0  0
  182.2000  175.4580  138.4740 C   0  0  0  0  0  2  0  0  0  0  0  0
  181.5960  176.7640  136.4080 C   0  0  0  0  0  2  0  0  0  0  0  0
  187.8600  172.2660  136.6260 O   0  0  0  0  0  1  0  0  0  0  0  0
  187.3180  176.8230  137.7440 C   0  0  0  0  0  0  0  0  0  0  0  0
  186.4040  175.1810  135.0330 O   0  0  0  0  0  1  0  0  0  0  0  0
  187.0570  172.9680  135.7170 C   0  0  2  0  0  3  0  0  0  0  0  0
  182.3350  174.3530  136.4280 C   0  0  2  0  0  0  0  0  0  0  0  0
  186.9750  174.4690  136.0960 C   0  0  1  0  0  0  0  0  0  0  0  0
  182.6550  171.8890  136.0370 C   0  0  0  0  0  0  0  0  0  0  0  0
  185.6670  172.3160  135.6380 C   0  0  1  0  0  3  0  0  0  0  0  0
  188.3330  176.3690  136.8990 O   0  0  0  0  0  0  0  0  0  0  0  0
  183.8290  174.7070  136.2780 C   0  0  0  0  0  2  0  0  0  0  0  0
  189.4790  176.1920  134.5940 O   0  0  0  0  0  1  0  0  0  0  0  0
  189.3490  174.9420  135.2000 C   0  0  1  0  0  3  0  0  0  0  0  0
  190.0430  171.5730  134.5940 O   0  0  0  0  0  0  0  0  0  0  0  0
  192.6140  172.2700  135.0690 O   0  0  0  0  0  0  0  0  0  0  0  0
  191.1890  172.7650  134.9490 P   0  0  0  0  0  0  0  0  0  0  0  0
  190.7430  174.3980  135.5720 C   0  0  2  0  0  3  0  0  0  0  0  0
  190.7460  173.4380  136.5080 O   0  0  0  0  0  0  0  0  0  0  0  0
  191.9110  175.3600  135.7100 C   0  0  0  0  0  2  0  0  0  0  0  0
  193.0020  174.7240  136.4280 N   0  0  0  0  0  2  0  0  0  0  0  0
  193.6780  176.7010  137.4670 O   0  0  0  0  0  0  0  0  0  0  0  0
  193.8420  175.4590  137.3190 C   0  0  0  0  0  0  0  0  0  0  0  0
  194.9480  174.7740  138.0560 C   0  0  1  0  0  3  0  0  0  0  0  0
  195.2020  175.4090  139.3400 N   0  0  0  0  0  1  0  0  0  0  0  0
  194.7070  173.2730  138.2160 C   0  0  0  0  0  2  0  0  0  0  0  0
  195.9780  172.5560  136.3150 O   0  0  0  0  0  1  0  0  0  0  0  0
  195.8540  172.4100  137.6990 C   0  0  0  0  0  2  0  0  0  0  0  0
  181.7850  177.9340  138.6390 C   0  0  2  0  0  3  0  0  0  0  0  0
  182.6540  177.6600  139.7060 O   0  0  0  0  0  0  0  0  0  0  0  0
  184.1050  178.6120  137.5070 O   0  0  0  0  0  0  0  0  0  0  0  0
  185.0650  180.1480  138.9030 O   0  0  0  0  0  1  0  0  0  0  0  0
  184.2300  179.2170  138.7520 C   0  0  0  0  0  0  0  0  0  0  0  0
  183.4280  178.7670  139.8550 N   0  0  0  0  0  0  0  0  0  0  0  0
  183.6600  179.2800  141.2050 C   0  0  0  0  0  2  0  0  0  0  0  0
  182.4200  178.7880  144.0850 C   0  0  2  0  0  3  0  0  0  0  0  0
  185.2200  180.1640  145.6760 O   0  0  0  0  0  0  0  0  0  0  0  0
  184.0910  178.1840  142.1800 C   0  0  1  0  0  3  0  0  0  0  0  0
  186.4910  177.6210  142.0990 C   0  0  0  0  0  1  0  0  0  0  0  0
  185.4890  178.1760  144.3510 C   0  0  2  0  0  3  0  0  0  0  0  0
  183.2830  179.0480  145.1920 O   0  0  0  0  0  0  0  0  0  0  0  0
  185.4540  178.4520  142.8400 C   0  0  2  0  0  3  0  0  0  0  0  0
  182.9460  177.7290  143.1030 C   0  0  0  0  0  2  0  0  0  0  0  0
  184.6650  179.1920  145.0940 C   0  0  0  0  0  0  0  0  0  0  0  0
  182.0760  179.9790  143.4430 O   0  0  0  0  0  1  0  0  0  0  0  0
  186.9150  178.1190  144.9040 C   0  0  0  0  0  2  0  0  0  0  0  0
  186.9000  177.6410  146.3470 C   0  0  0  0  0  1  0  0  0  0  0  0
  180.5760  178.7750  139.0970 C   0  0  0  0  0  2  0  0  0  0  0  0
  181.1180  180.0050  137.1150 O   0  0  0  0  0  1  0  0  0  0  0  0
  180.9820  181.2390  139.1350 C   0  0  0  0  0  1  0  0  0  0  0  0
  180.4290  180.0850  138.3250 C   0  0  2  0  0  3  0  0  0  0  0  0
  1 27  1  6  0  0  0
  1 24  1  0  0  0  0
  2 14  1  0  0  0  0
  2 42  1  1  0  0  0
  3 14  1  0  0  0  0
  4 22  2  0  0  0  0
  7  6  1  6  0  0  0
  7  8  1  0  0  0  0
  8 25  1  6  0  0  0
  8 12  1  0  0  0  0
 10 15  1  0  0  0  0
 11 22  1  0  0  0  0
 11 20  1  0  0  0  0
 12 13  1  6  0  0  0
 15  2  1  0  0  0  0
 17 13  1  0  0  0  0
 17  9  2  0  0  0  0
 19 21  1  0  0  0  0
 19 16  1  1  0  0  0
 20 10  1  6  0  0  0
 20  3  1  0  0  0  0
 21 18  1  6  0  0  0
 21  1  1  0  0  0  0
 21 12  1  0  0  0  0
 22  6  1  0  0  0  0
 23  5  1  1  0  0  0
 23 19  1  0  0  0  0
 23  7  1  0  0  0  0
 24 17  1  0  0  0  0
 25 20  1  0  0  0  0
 27 26  1  1  0  0  0
 27 31  1  0  0  0  0
 28 30  2  0  0  0  0
 30 29  2  0  0  0  0
 30 32  1  0  0  0  0
 31 33  1  1  0  0  0
 31 32  1  0  0  0  0
 33 34  1  0  0  0  0
 34 36  1  0  0  0  0
 36 35  2  0  0  0  0
 36 37  1  0  0  0  0
 37 39  1  0  0  0  0
 37 38  1  1  0  0  0
 40 41  1  0  0  0  0
 41 39  1  0  0  0  0
 42 61  1  1  0  0  0
 42 43  1  0  0  0  0
 43 47  1  0  0  0  0
 44 46  2  0  0  0  0
 46 45  1  0  0  0  0
 46 47  1  0  0  0  0
 47 48  1  0  0  0  0
 49 58  1  6  0  0  0
 49 54  1  0  0  0  0
 51 48  1  1  0  0  0
 51 55  1  0  0  0  0
 51 56  1  0  0  0  0
 53 59  1  1  0  0  0
 53 57  1  0  0  0  0
 55 52  1  6  0  0  0
 55 53  1  0  0  0  0
 56 49  1  0  0  0  0
 57 54  1  0  0  0  0
 57 50  2  0  0  0  0
 59 60  1  0  0  0  0
 62 64  1  0  0  0  0
 64 61  1  0  0  0  0
 64 63  1  1  0  0  0
M  END
>  <MODEL>
2

>  <REMARK>
 VINA RESULT:      -5.4      1.285      1.985
  Name = 
  15 active torsions:
  status: ('A' for Active; 'I' for Inactive)
    1  A    between atoms: O_1  and  C_20
    2  A    between atoms: O_1  and  N_60
    3  A    between atoms: C_2  and  C_35
    4  A    between atoms: C_3  and  C_20
    5  A    between atoms: C_4  and  C_20
    6  A    between atoms: C_4  and  C_50
    7  A    between atoms: C_5  and  N_12
    8  A    between atoms: C_5  and  C_37
    9  A    between atoms: C_14  and  C_27
   10  A    between atoms: C_14  and  C_52
   11  A    between atoms: C_27  and  C_53
   12  A    between atoms: C_34  and  C_39
   13  A    between atoms: C_34  and  N_60
   14  A    between atoms: C_35  and  C_37
   15  A    between atoms: C_44  and  C_51
                            x       y       z     vdW  Elec       q    Type
                         _______ _______ _______ _____ _____    ______ ____

>  <TORSDO>
F 15

$$$$
=
 OpenBabel11062417473D

 64 68  0  0  1  0  0  0  0  0999 V2000
  185.4140  179.0400  143.3210 C   0  0  2  0  0  3  0  0  0  0  0  0
  184.2870  175.9260  136.7840 C   0  0  2  0  0  3  0  0  0  0  0  0
  182.5350  177.4570  137.5350 O   0  0  0  0  0  0  0  0  0  0  0  0
  179.0260  177.9470  139.7480 O   0  0  0  0  0  0  0  0  0  0  0  0
  180.5770  179.4950  142.4230 O   0  0  0  0  0  1  0  0  0  0  0  0
  180.9630  179.2990  139.5430 C   0  0  0  0  0  2  0  0  0  0  0  0
  182.1040  179.3020  140.5590 C   0  0  2  0  0  3  0  0  0  0  0  0
  183.3490  178.5730  140.0540 C   0  0  1  0  0  3  0  0  0  0  0  0
  188.1280  178.2970  141.0720 O   0  0  0  0  0  0  0  0  0  0  0  0
  182.4620  175.1960  138.3590 C   0  0  0  0  0  2  0  0  0  0  0  0
  180.8800  176.8100  139.0420 O   0  0  0  0  0  0  0  0  0  0  0  0
  184.5180  178.8850  141.0000 C   0  0  2  0  0  3  0  0  0  0  0  0
  185.8290  178.3070  140.4690 C   0  0  0  0  0  2  0  0  0  0  0  0
  183.9060  177.3530  137.1900 C   0  0  0  0  0  2  0  0  0  0  0  0
  183.8760  174.9280  137.8680 C   0  0  0  0  0  2  0  0  0  0  0  0
  183.0470  180.5610  143.0740 O   0  0  0  0  0  1  0  0  0  0  0  0
  186.9390  178.4270  141.4610 C   0  0  0  0  0  0  0  0  0  0  0  0
  184.1350  177.1310  142.6210 O   0  0  0  0  0  1  0  0  0  0  0  0
  182.9030  179.1730  142.9410 C   0  0  2  0  0  3  0  0  0  0  0  0
  182.2570  176.6770  138.6900 C   0  0  2  0  0  0  0  0  0  0  0  0
  184.2320  178.5210  142.4790 C   0  0  1  0  0  0  0  0  0  0  0  0
  180.2480  177.9880  139.4510 C   0  0  0  0  0  0  0  0  0  0  0  0
  181.7420  178.8570  141.9850 C   0  0  1  0  0  3  0  0  0  0  0  0
  186.6760  178.5870  142.8230 O   0  0  0  0  0  0  0  0  0  0  0  0
  183.1310  177.0590  139.9020 C   0  0  0  0  0  2  0  0  0  0  0  0
  184.1870  177.9100  145.0520 O   0  0  0  0  0  1  0  0  0  0  0  0
  185.2870  178.7370  144.8240 C   0  0  1  0  0  3  0  0  0  0  0  0
  186.1780  179.6140  148.0850 O   0  0  0  0  0  0  0  0  0  0  0  0
  187.8770  177.5140  147.9240 O   0  0  0  0  0  0  0  0  0  0  0  0
  186.7990  178.3030  147.2150 P   0  0  0  0  0  0  0  0  0  0  0  0
  186.5490  178.1010  145.4390 C   0  0  2  0  0  3  0  0  0  0  0  0
  187.5230  178.9660  145.7590 O   0  0  0  0  0  0  0  0  0  0  0  0
  187.0840  176.7960  144.8740 C   0  0  0  0  0  2  0  0  0  0  0  0
  188.5360  176.8300  144.8190 N   0  0  0  0  0  2  0  0  0  0  0  0
  188.6440  175.6460  142.8110 O   0  0  0  0  0  0  0  0  0  0  0  0
  189.2580  176.2470  143.7340 C   0  0  0  0  0  0  0  0  0  0  0  0
  190.7520  176.3110  143.6980 C   0  0  1  0  0  3  0  0  0  0  0  0
  191.2350  176.6620  142.3710 N   0  0  0  0  0  1  0  0  0  0  0  0
  191.3270  177.2450  144.7630 C   0  0  0  0  0  2  0  0  0  0  0  0
  190.5720  179.2950  143.7780 O   0  0  0  0  0  1  0  0  0  0  0  0
  191.7100  178.6210  144.2280 C   0  0  0  0  0  2  0  0  0  0  0  0
  185.7920  175.8410  136.4970 C   0  0  2  0  0  3  0  0  0  0  0  0
  186.2890  177.0910  136.0990 O   0  0  0  0  0  0  0  0  0  0  0  0
  186.8820  179.7480  136.7610 O   0  0  0  0  0  0  0  0  0  0  0  0
  188.7630  178.9840  137.8150 O   0  0  0  0  0  1  0  0  0  0  0  0
  187.7020  178.7120  137.1920 C   0  0  0  0  0  0  0  0  0  0  0  0
  187.3500  177.3490  136.9080 N   0  0  0  0  0  0  0  0  0  0  0  0
  188.2770  176.2590  137.2100 C   0  0  0  0  0  2  0  0  0  0  0  0
  189.9620  175.6330  134.5940 C   0  0  2  0  0  3  0  0  0  0  0  0
  191.7580  173.0880  136.1950 O   0  0  0  0  0  0  0  0  0  0  0  0
  189.7370  176.6530  136.9800 C   0  0  1  0  0  3  0  0  0  0  0  0
  191.1390  176.6340  139.0100 C   0  0  0  0  0  1  0  0  0  0  0  0
  191.9620  175.3440  136.9980 C   0  0  2  0  0  3  0  0  0  0  0  0
  191.0360  174.7050  134.7470 O   0  0  0  0  0  0  0  0  0  0  0  0
  190.7340  175.8120  137.7950 C   0  0  2  0  0  3  0  0  0  0  0  0
  190.0620  176.8760  135.4930 C   0  0  0  0  0  2  0  0  0  0  0  0
  191.5700  174.3150  135.9740 C   0  0  0  0  0  0  0  0  0  0  0  0
  188.7330  174.9830  134.7260 O   0  0  0  0  0  1  0  0  0  0  0  0
  193.0800  174.8180  137.9020 C   0  0  0  0  0  2  0  0  0  0  0  0
  194.4380  175.1220  137.2890 C   0  0  0  0  0  1  0  0  0  0  0  0
  186.1660  174.7370  135.4850 C   0  0  0  0  0  2  0  0  0  0  0  0
  187.2470  172.9100  136.5930 O   0  0  0  0  0  1  0  0  0  0  0  0
  185.6050  172.3570  134.9730 C   0  0  0  0  0  1  0  0  0  0  0  0
  186.0290  173.3270  136.0570 C   0  0  2  0  0  3  0  0  0  0  0  0
  1 27  1  1  0  0  0
  2 42  1  1  0  0  0
  2 14  1  0  0  0  0
  2 15  1  0  0  0  0
  3 20  1  0  0  0  0
  7  6  1  6  0  0  0
  7 23  1  0  0  0  0
  8 25  1  1  0  0  0
  8  7  1  0  0  0  0
  8 12  1  0  0  0  0
  9 17  2  0  0  0  0
 11 22  1  0  0  0  0
 12 13  1  6  0  0  0
 12 21  1  0  0  0  0
 13 17  1  0  0  0  0
 14  3  1  0  0  0  0
 15 10  1  0  0  0  0
 17 24  1  0  0  0  0
 19 16  1  6  0  0  0
 20 10  1  6  0  0  0
 20 11  1  0  0  0  0
 20 25  1  0  0  0  0
 21 18  1  1  0  0  0
 21 19  1  0  0  0  0
 21  1  1  0  0  0  0
 22  6  1  0  0  0  0
 22  4  2  0  0  0  0
 23  5  1  1  0  0  0
 23 19  1  0  0  0  0
 24  1  1  0  0  0  0
 27 26  1  6  0  0  0
 27 31  1  0  0  0  0
 30 29  2  0  0  0  0
 30 28  2  0  0  0  0
 31 33  1  6  0  0  0
 31 32  1  0  0  0  0
 32 30  1  0  0  0  0
 34 33  1  0  0  0  0
 35 36  2  0  0  0  0
 36 34  1  0  0  0  0
 37 38  1  6  0  0  0
 37 36  1  0  0  0  0
 37 39  1  0  0  0  0
 40 41  1  0  0  0  0
 41 39  1  0  0  0  0
 42 61  1  6  0  0  0
 43 42  1  0  0  0  0
 43 47  1  0  0  0  0
 44 46  2  0  0  0  0
 46 45  1  0  0  0  0
 47 46  1  0  0  0  0
 47 48  1  0  0  0  0
 49 58  1  1  0  0  0
 49 54  1  0  0  0  0
 49 56  1  0  0  0  0
 51 48  1  6  0  0  0
 51 55  1  0  0  0  0
 53 55  1  0  0  0  0
 53 59  1  1  0  0  0
 54 57  1  0  0  0  0
 55 52  1  1  0  0  0
 56 51  1  0  0  0  0
 57 50  2  0  0  0  0
 57 53  1  0  0  0  0
 60 59  1  0  0  0  0
 61 64  1  0  0  0  0
 64 63  1  6  0  0  0
 64 62  1  0  0  0  0
M  END
>  <MODEL>
3

>  <REMARK>
 VINA RESULT:      -4.2      2.798      8.578
  Name = 
  15 active torsions:
  status: ('A' for Active; 'I' for Inactive)
    1  A    between atoms: O_1  and  C_20
    2  A    between atoms: O_1  and  N_60
    3  A    between atoms: C_2  and  C_35
    4  A    between atoms: C_3  and  C_20
    5  A    between atoms: C_4  and  C_20
    6  A    between atoms: C_4  and  C_50
    7  A    between atoms: C_5  and  N_12
    8  A    between atoms: C_5  and  C_37
    9  A    between atoms: C_14  and  C_27
   10  A    between atoms: C_14  and  C_52
   11  A    between atoms: C_27  and  C_53
   12  A    between atoms: C_34  and  C_39
   13  A    between atoms: C_34  and  N_60
   14  A    between atoms: C_35  and  C_37
   15  A    between atoms: C_44  and  C_51
                            x       y       z     vdW  Elec       q    Type
                         _______ _______ _______ _____ _____    ______ ____

>  <TORSDO>
F 15

$$$$
=
 OpenBabel11062417473D

 64 68  0  0  1  0  0  0  0  0999 V2000
  189.8710  177.1700  143.8700 C   0  0  2  0  0  3  0  0  0  0  0  0
  186.8880  177.6820  137.1960 C   0  0  2  0  0  3  0  0  0  0  0  0
  189.0630  176.5710  137.2930 O   0  0  0  0  0  0  0  0  0  0  0  0
  193.2180  177.0010  137.2720 O   0  0  0  0  0  0  0  0  0  0  0  0
  193.5840  176.5150  140.6760 O   0  0  0  0  0  1  0  0  0  0  0  0
  191.7810  175.6300  138.5660 C   0  0  0  0  0  2  0  0  0  0  0  0
  191.3300  175.9780  139.9840 C   0  0  2  0  0  3  0  0  0  0  0  0
  189.8770  176.4440  140.0460 C   0  0  1  0  0  3  0  0  0  0  0  0
  186.3110  176.9790  143.3560 O   0  0  0  0  0  0  0  0  0  0  0  0
  189.0470  178.9780  137.2240 C   0  0  0  0  0  2  0  0  0  0  0  0
  191.0640  177.7610  137.3840 O   0  0  0  0  0  0  0  0  0  0  0  0
  189.4330  176.4780  141.5160 C   0  0  2  0  0  3  0  0  0  0  0  0
  187.9430  176.7940  141.6380 C   0  0  0  0  0  2  0  0  0  0  0  0
  187.7180  176.5130  137.7350 C   0  0  0  0  0  2  0  0  0  0  0  0
  187.5580  179.0170  137.5260 C   0  0  0  0  0  2  0  0  0  0  0  0
  192.0640  175.7130  142.8460 O   0  0  0  0  0  1  0  0  0  0  0  0
  187.5320  177.0250  143.0540 C   0  0  0  0  0  0  0  0  0  0  0  0
  190.1850  178.7130  142.0570 O   0  0  0  0  0  1  0  0  0  0  0  0
  191.8190  176.9580  142.2490 C   0  0  2  0  0  3  0  0  0  0  0  0
  189.7040  177.7270  137.8160 C   0  0  2  0  0  0  0  0  0  0  0  0
  190.3320  177.3670  142.4130 C   0  0  1  0  0  0  0  0  0  0  0  0
  192.0530  176.8290  137.7140 C   0  0  0  0  0  0  0  0  0  0  0  0
  192.2500  176.9230  140.7740 C   0  0  1  0  0  3  0  0  0  0  0  0
  188.4660  177.3820  144.0290 O   0  0  0  0  0  0  0  0  0  0  0  0
  189.6570  177.8000  139.3550 C   0  0  0  0  0  2  0  0  0  0  0  0
  190.2500  179.3400  144.8350 O   0  0  0  0  0  1  0  0  0  0  0  0
  190.6620  178.0080  144.8900 C   0  0  1  0  0  3  0  0  0  0  0  0
  192.5610  175.2270  145.8190 O   0  0  0  0  0  0  0  0  0  0  0  0
  191.8790  175.9130  148.3460 O   0  0  0  0  0  0  0  0  0  0  0  0
  191.7770  176.2830  146.8830 P   0  0  0  0  0  0  0  0  0  0  0  0
  190.5520  177.4910  146.3390 C   0  0  2  0  0  3  0  0  0  0  0  0
  190.0730  176.2450  146.4620 O   0  0  0  0  0  0  0  0  0  0  0  0
  190.0580  178.4230  147.4330 C   0  0  0  0  0  2  0  0  0  0  0  0
  188.6790  178.8030  147.1830 N   0  0  0  0  0  2  0  0  0  0  0  0
  187.8270  177.3910  148.8340 O   0  0  0  0  0  0  0  0  0  0  0  0
  187.6020  178.2570  147.9460 C   0  0  0  0  0  0  0  0  0  0  0  0
  186.1920  178.6790  147.6760 C   0  0  1  0  0  3  0  0  0  0  0  0
  186.0550  180.1270  147.7210 N   0  0  0  0  0  1  0  0  0  0  0  0
  185.6480  178.1100  146.3660 C   0  0  0  0  0  2  0  0  0  0  0  0
  184.5700  179.3610  144.6290 O   0  0  0  0  0  1  0  0  0  0  0  0
  184.3690  178.7890  145.8880 C   0  0  0  0  0  2  0  0  0  0  0  0
  185.4620  177.6250  137.7630 C   0  0  2  0  0  3  0  0  0  0  0  0
  184.6020  176.9750  136.8650 O   0  0  0  0  0  0  0  0  0  0  0  0
  185.7010  174.5000  136.1510 O   0  0  0  0  0  0  0  0  0  0  0  0
  184.1920  173.5110  137.5580 O   0  0  0  0  0  1  0  0  0  0  0  0
  184.6790  174.5750  137.0890 C   0  0  0  0  0  0  0  0  0  0  0  0
  184.1720  175.8540  137.5010 N   0  0  0  0  0  0  0  0  0  0  0  0
  182.9930  175.9500  138.3610 C   0  0  0  0  0  2  0  0  0  0  0  0
  180.0830  176.2360  139.5950 C   0  0  2  0  0  3  0  0  0  0  0  0
  178.9860  173.2960  138.0400 O   0  0  0  0  0  0  0  0  0  0  0  0
  181.7460  176.3940  137.5960 C   0  0  1  0  0  3  0  0  0  0  0  0
  181.6830  175.6900  135.2330 C   0  0  0  0  0  1  0  0  0  0  0  0
  179.6790  175.1500  136.6760 C   0  0  2  0  0  3  0  0  0  0  0  0
  179.1070  175.3080  139.1210 O   0  0  0  0  0  0  0  0  0  0  0  0
  181.2050  175.3250  136.6310 C   0  0  2  0  0  3  0  0  0  0  0  0
  180.7210  177.1040  138.4980 C   0  0  0  0  0  2  0  0  0  0  0  0
  179.2550  174.5270  137.9770 C   0  0  0  0  0  0  0  0  0  0  0  0
  181.0390  175.5830  140.3750 O   0  0  0  0  0  1  0  0  0  0  0  0
  179.1470  174.3480  135.4860 C   0  0  0  0  0  2  0  0  0  0  0  0
  180.0280  173.1350  135.2350 C   0  0  0  0  0  1  0  0  0  0  0  0
  184.9080  179.0040  138.1790 C   0  0  0  0  0  2  0  0  0  0  0  0
  183.4430  180.1210  139.7090 O   0  0  0  0  0  1  0  0  0  0  0  0
  185.3140  179.0030  140.6430 C   0  0  0  0  0  1  0  0  0  0  0  0
  184.2550  178.9970  139.5600 C   0  0  2  0  0  3  0  0  0  0  0  0
  1 24  1  0  0  0  0
  1 27  1  1  0  0  0
  2 15  1  0  0  0  0
  2 14  1  0  0  0  0
  2 42  1  1  0  0  0
  3 14  1  0  0  0  0
  3 20  1  0  0  0  0
  4 22  2  0  0  0  0
  7  6  1  6  0  0  0
  7  8  1  0  0  0  0
  7 23  1  0  0  0  0
  8 25  1  1  0  0  0
  8 12  1  0  0  0  0
 10 15  1  0  0  0  0
 11 22  1  0  0  0  0
 11 20  1  0  0  0  0
 12 13  1  6  0  0  0
 12 21  1  0  0  0  0
 13 17  1  0  0  0  0
 17  9  2  0  0  0  0
 17 24  1  0  0  0  0
 19 21  1  0  0  0  0
 19 16  1  6  0  0  0
 20 10  1  6  0  0  0
 20 25  1  0  0  0  0
 21 18  1  6  0  0  0
 21  1  1  0  0  0  0
 22  6  1  0  0  0  0
 23  5  1  1  0  0  0
 23 19  1  0  0  0  0
 27 26  1  1  0  0  0
 27 31  1  0  0  0  0
 28 30  2  0  0  0  0
 30 29  2  0  0  0  0
 31 32  1  0  0  0  0
 31 33  1  1  0  0  0
 32 30  1  0  0  0  0
 34 33  1  0  0  0  0
 34 36  1  0  0  0  0
 36 35  2  0  0  0  0
 37 38  1  6  0  0  0
 37 36  1  0  0  0  0
 39 37  1  0  0  0  0
 40 41  1  0  0  0  0
 41 39  1  0  0  0  0
 42 61  1  6  0  0  0
 43 47  1  0  0  0  0
 43 42  1  0  0  0  0
 44 46  2  0  0  0  0
 46 47  1  0  0  0  0
 46 45  1  0  0  0  0
 47 48  1  0  0  0  0
 49 58  1  6  0  0  0
 51 48  1  1  0  0  0
 51 56  1  0  0  0  0
 53 59  1  6  0  0  0
 53 57  1  0  0  0  0
 54 49  1  0  0  0  0
 55 52  1  6  0  0  0
 55 53  1  0  0  0  0
 55 51  1  0  0  0  0
 56 49  1  0  0  0  0
 57 50  2  0  0  0  0
 57 54  1  0  0  0  0
 60 59  1  0  0  0  0
 61 64  1  0  0  0  0
 64 62  1  0  0  0  0
 64 63  1  1  0  0  0
M  END
>  <MODEL>
4

>  <REMARK>
 VINA RESULT:      -3.3      3.426      8.627
  Name = 
  15 active torsions:
  status: ('A' for Active; 'I' for Inactive)
    1  A    between atoms: O_1  and  C_20
    2  A    between atoms: O_1  and  N_60
    3  A    between atoms: C_2  and  C_35
    4  A    between atoms: C_3  and  C_20
    5  A    between atoms: C_4  and  C_20
    6  A    between atoms: C_4  and  C_50
    7  A    between atoms: C_5  and  N_12
    8  A    between atoms: C_5  and  C_37
    9  A    between atoms: C_14  and  C_27
   10  A    between atoms: C_14  and  C_52
   11  A    between atoms: C_27  and  C_53
   12  A    between atoms: C_34  and  C_39
   13  A    between atoms: C_34  and  N_60
   14  A    between atoms: C_35  and  C_37
   15  A    between atoms: C_44  and  C_51
                            x       y       z     vdW  Elec       q    Type
                         _______ _______ _______ _____ _____    ______ ____

>  <TORSDO>
F 15

$$$$
=
 OpenBabel11062417473D

 64 68  0  0  1  0  0  0  0  0999 V2000
  184.1410  178.2510  137.6870 C   0  0  2  0  0  3  0  0  0  0  0  0
  189.0190  173.1120  135.8150 C   0  0  2  0  0  3  0  0  0  0  0  0
  186.7250  172.7030  135.0770 O   0  0  0  0  0  0  0  0  0  0  0  0
  182.9700  171.1360  136.0220 O   0  0  0  0  0  0  0  0  0  0  0  0
  181.5060  174.2120  136.6130 O   0  0  0  0  0  1  0  0  0  0  0  0
  183.6130  173.1320  134.9170 C   0  0  0  0  0  2  0  0  0  0  0  0
  183.6850  174.4950  135.6050 C   0  0  2  0  0  3  0  0  0  0  0  0
  185.1190  174.9480  135.8740 C   0  0  1  0  0  3  0  0  0  0  0  0
  187.5570  179.0680  136.8880 O   0  0  0  0  0  0  0  0  0  0  0  0
  187.2930  172.0820  137.3330 C   0  0  0  0  0  2  0  0  0  0  0  0
  185.1040  171.8100  136.4920 O   0  0  0  0  0  0  0  0  0  0  0  0
  185.0980  176.4280  136.2810 C   0  0  2  0  0  3  0  0  0  0  0  0
  186.5150  176.9840  136.4210 C   0  0  0  0  0  2  0  0  0  0  0  0
  187.8280  173.5860  134.9760 C   0  0  0  0  0  2  0  0  0  0  0  0
  188.5940  172.8660  137.2640 C   0  0  0  0  0  2  0  0  0  0  0  0
  182.0890  176.8990  136.2940 O   0  0  0  0  0  1  0  0  0  0  0  0
  186.5240  178.3590  137.0030 C   0  0  0  0  0  0  0  0  0  0  0  0
  184.7340  176.1340  138.6550 O   0  0  0  0  0  1  0  0  0  0  0  0
  182.7710  176.1510  137.2640 C   0  0  2  0  0  3  0  0  0  0  0  0
  186.2300  172.6830  136.4080 C   0  0  2  0  0  0  0  0  0  0  0  0
  184.1920  176.7210  137.5040 C   0  0  1  0  0  0  0  0  0  0  0  0
  183.8810  171.9830  135.8360 C   0  0  0  0  0  0  0  0  0  0  0  0
  182.8040  174.6700  136.8530 C   0  0  1  0  0  3  0  0  0  0  0  0
  185.4450  178.8340  137.7510 O   0  0  0  0  0  0  0  0  0  0  0  0
  185.8290  174.0800  136.9260 C   0  0  0  0  0  2  0  0  0  0  0  0
  183.8820  179.8040  139.5050 O   0  0  0  0  0  1  0  0  0  0  0  0
  183.2880  178.7050  138.8840 C   0  0  1  0  0  3  0  0  0  0  0  0
  180.8410  178.4690  141.3660 O   0  0  0  0  0  0  0  0  0  0  0  0
  179.2770  179.8020  139.6060 O   0  0  0  0  0  0  0  0  0  0  0  0
  180.6560  179.2400  139.8720 P   0  0  0  0  0  0  0  0  0  0  0  0
  181.8290  179.0430  138.5160 C   0  0  2  0  0  3  0  0  0  0  0  0
  180.9620  178.0280  138.6400 O   0  0  0  0  0  0  0  0  0  0  0  0
  181.5440  179.9160  137.3050 C   0  0  0  0  0  2  0  0  0  0  0  0
  181.0440  181.2130  137.7280 N   0  0  0  0  0  2  0  0  0  0  0  0
  179.9850  181.6420  135.6940 O   0  0  0  0  0  0  0  0  0  0  0  0
  180.2420  182.0230  136.8680 C   0  0  0  0  0  0  0  0  0  0  0  0
  179.7280  183.3470  137.3370 C   0  0  1  0  0  3  0  0  0  0  0  0
  179.1460  183.2490  138.6660 N   0  0  0  0  0  1  0  0  0  0  0  0
  180.7900  184.4460  137.2750 C   0  0  0  0  0  2  0  0  0  0  0  0
  179.8360  184.8840  135.1210 O   0  0  0  0  0  1  0  0  0  0  0  0
  181.0060  185.0100  135.8750 C   0  0  0  0  0  2  0  0  0  0  0  0
  190.1610  174.1360  135.7410 C   0  0  2  0  0  3  0  0  0  0  0  0
  191.0640  173.7930  134.7240 O   0  0  0  0  0  0  0  0  0  0  0  0
  190.4870  176.5320  134.5940 O   0  0  0  0  0  0  0  0  0  0  0  0
  192.7410  176.9270  134.5980 O   0  0  0  0  0  1  0  0  0  0  0  0
  191.8030  176.0890  134.6700 C   0  0  0  0  0  0  0  0  0  0  0  0
  192.0830  174.6870  134.8090 N   0  0  0  0  0  0  0  0  0  0  0  0
  193.4560  174.1890  134.7290 C   0  0  0  0  0  2  0  0  0  0  0  0
  195.8500  174.7410  136.7380 C   0  0  2  0  0  3  0  0  0  0  0  0
  197.8090  172.2100  135.3160 O   0  0  0  0  0  0  0  0  0  0  0  0
  193.8300  173.3110  135.9240 C   0  0  1  0  0  3  0  0  0  0  0  0
  193.4400  170.8980  135.5910 C   0  0  0  0  0  1  0  0  0  0  0  0
  195.7310  171.6230  136.3740 C   0  0  2  0  0  3  0  0  0  0  0  0
  196.9330  173.8110  136.6950 O   0  0  0  0  0  0  0  0  0  0  0  0
  194.5030  171.9860  135.5260 C   0  0  2  0  0  3  0  0  0  0  0  0
  194.4850  174.1120  137.0640 C   0  0  0  0  0  2  0  0  0  0  0  0
  196.8710  172.5600  136.0830 C   0  0  0  0  0  0  0  0  0  0  0  0
  195.8150  175.5050  135.5710 O   0  0  0  0  0  1  0  0  0  0  0  0
  196.1610  170.1660  136.1880 C   0  0  0  0  0  2  0  0  0  0  0  0
  196.7660  169.6290  137.4750 C   0  0  0  0  0  1  0  0  0  0  0  0
  190.8820  174.3540  137.0880 C   0  0  0  0  0  2  0  0  0  0  0  0
  190.8460  175.6450  139.1040 O   0  0  0  0  0  1  0  0  0  0  0  0
  189.0590  175.9880  137.5840 C   0  0  0  0  0  1  0  0  0  0  0  0
  190.5350  175.6880  137.7450 C   0  0  2  0  0  3  0  0  0  0  0  0
  1 24  1  0  0  0  0
  1 27  1  1  0  0  0
  2 42  1  1  0  0  0
  2 15  1  0  0  0  0
  3 20  1  0  0  0  0
  6 22  1  0  0  0  0
  7  6  1  1  0  0  0
  7  8  1  0  0  0  0
  7 23  1  0  0  0  0
  8 12  1  0  0  0  0
  8 25  1  1  0  0  0
  9 17  2  0  0  0  0
 12 13  1  1  0  0  0
 12 21  1  0  0  0  0
 13 17  1  0  0  0  0
 14  3  1  0  0  0  0
 14  2  1  0  0  0  0
 15 10  1  0  0  0  0
 17 24  1  0  0  0  0
 19 16  1  6  0  0  0
 19 21  1  0  0  0  0
 20 11  1  0  0  0  0
 20 25  1  1  0  0  0
 20 10  1  0  0  0  0
 21  1  1  0  0  0  0
 21 18  1  1  0  0  0
 22  4  2  0  0  0  0
 22 11  1  0  0  0  0
 23  5  1  6  0  0  0
 23 19  1  0  0  0  0
 27 26  1  6  0  0  0
 29 30  2  0  0  0  0
 30 28  2  0  0  0  0
 31 33  1  6  0  0  0
 31 32  1  0  0  0  0
 31 27  1  0  0  0  0
 32 30  1  0  0  0  0
 33 34  1  0  0  0  0
 35 36  2  0  0  0  0
 36 37  1  0  0  0  0
 36 34  1  0  0  0  0
 37 38  1  1  0  0  0
 39 37  1  0  0  0  0
 40 41  1  0  0  0  0
 41 39  1  0  0  0  0
 42 61  1  1  0  0  0
 43 47  1  0  0  0  0
 43 42  1  0  0  0  0
 44 46  2  0  0  0  0
 45 46  1  0  0  0  0
 46 47  1  0  0  0  0
 48 47  1  0  0  0  0
 49 58  1  6  0  0  0
 49 56  1  0  0  0  0
 50 57  2  0  0  0  0
 51 48  1  6  0  0  0
 51 56  1  0  0  0  0
 53 59  1  6  0  0  0
 54 49  1  0  0  0  0
 55 52  1  1  0  0  0
 55 51  1  0  0  0  0
 55 53  1  0  0  0  0
 57 53  1  0  0  0  0
 57 54  1  0  0  0  0
 59 60  1  0  0  0  0
 61 64  1  0  0  0  0
 64 63  1  1  0  0  0
 64 62  1  0  0  0  0
M  END
>  <MODEL>
5

>  <REMARK>
 VINA RESULT:      -3.2      3.596     10.622
  Name = 
  15 active torsions:
  status: ('A' for Active; 'I' for Inactive)
    1  A    between atoms: O_1  and  C_20
    2  A    between atoms: O_1  and  N_60
    3  A    between atoms: C_2  and  C_35
    4  A    between atoms: C_3  and  C_20
    5  A    between atoms: C_4  and  C_20
    6  A    between atoms: C_4  and  C_50
    7  A    between atoms: C_5  and  N_12
    8  A    between atoms: C_5  and  C_37
    9  A    between atoms: C_14  and  C_27
   10  A    between atoms: C_14  and  C_52
   11  A    between atoms: C_27  and  C_53
   12  A    between atoms: C_34  and  C_39
   13  A    between atoms: C_34  and  N_60
   14  A    between atoms: C_35  and  C_37
   15  A    between atoms: C_44  and  C_51
                            x       y       z     vdW  Elec       q    Type
                         _______ _______ _______ _____ _____    ______ ____

>  <TORSDO>
F 15

$$$$
=
 OpenBabel11062417473D

 64 68  0  0  1  0  0  0  0  0999 V2000
  189.7020  177.3320  143.6570 C   0  0  2  0  0  3  0  0  0  0  0  0
  186.4660  178.1580  137.1340 C   0  0  2  0  0  3  0  0  0  0  0  0
  188.5210  176.8330  137.1280 O   0  0  0  0  0  0  0  0  0  0  0  0
  192.6920  176.8440  136.9050 O   0  0  0  0  0  0  0  0  0  0  0  0
  193.1710  176.3150  140.2880 O   0  0  0  0  0  1  0  0  0  0  0  0
  191.1890  175.6210  138.2700 C   0  0  0  0  0  2  0  0  0  0  0  0
  190.8450  176.0090  139.7080 C   0  0  2  0  0  3  0  0  0  0  0  0
  189.4500  176.6180  139.8380 C   0  0  1  0  0  3  0  0  0  0  0  0
  186.1210  177.5000  143.3150 O   0  0  0  0  0  0  0  0  0  0  0  0
  188.7440  179.2290  137.0550 C   0  0  0  0  0  2  0  0  0  0  0  0
  190.6340  177.8160  137.1190 O   0  0  0  0  0  0  0  0  0  0  0  0
  189.0840  176.6930  141.3280 C   0  0  2  0  0  3  0  0  0  0  0  0
  187.6410  177.1570  141.5210 C   0  0  0  0  0  2  0  0  0  0  0  0
  187.2000  176.9090  137.6350 C   0  0  0  0  0  2  0  0  0  0  0  0
  187.2820  179.4180  137.4280 C   0  0  0  0  0  2  0  0  0  0  0  0
  191.6860  175.6650  142.5310 O   0  0  0  0  0  1  0  0  0  0  0  0
  187.3240  177.4250  142.9550 C   0  0  0  0  0  0  0  0  0  0  0  0
  190.0810  178.8400  141.8270 O   0  0  0  0  0  1  0  0  0  0  0  0
  191.5380  176.9290  141.9440 C   0  0  2  0  0  3  0  0  0  0  0  0
  189.3000  177.9170  137.6160 C   0  0  2  0  0  0  0  0  0  0  0  0
  190.1100  177.4850  142.1780 C   0  0  1  0  0  0  0  0  0  0  0  0
  191.5380  176.7880  137.4030 C   0  0  0  0  0  0  0  0  0  0  0  0
  191.8910  176.8550  140.4500 C   0  0  1  0  0  3  0  0  0  0  0  0
  188.3350  177.6840  143.8830 O   0  0  0  0  0  0  0  0  0  0  0  0
  189.3350  177.9910  139.1560 C   0  0  0  0  0  2  0  0  0  0  0  0
  190.3500  179.4510  144.5900 O   0  0  0  0  0  1  0  0  0  0  0  0
  190.6220  178.0830  144.6350 C   0  0  1  0  0  3  0  0  0  0  0  0
  192.4390  175.2440  145.5510 O   0  0  0  0  0  0  0  0  0  0  0  0
  191.8330  175.9750  148.0850 O   0  0  0  0  0  0  0  0  0  0  0  0
  191.7150  176.3360  146.6210 P   0  0  0  0  0  0  0  0  0  0  0  0
  190.5230  177.5830  146.0910 C   0  0  2  0  0  3  0  0  0  0  0  0
  190.0030  176.3560  146.2350 O   0  0  0  0  0  0  0  0  0  0  0  0
  190.0860  178.5410  147.1860 C   0  0  0  0  0  2  0  0  0  0  0  0
  188.6780  178.8650  147.0360 N   0  0  0  0  0  2  0  0  0  0  0  0
  188.0160  177.5070  148.8140 O   0  0  0  0  0  0  0  0  0  0  0  0
  187.6870  178.3230  147.9110 C   0  0  0  0  0  0  0  0  0  0  0  0
  186.2460  178.6870  147.7410 C   0  0  1  0  0  3  0  0  0  0  0  0
  186.0590  180.1300  147.7570 N   0  0  0  0  0  1  0  0  0  0  0  0
  185.6230  178.0590  146.4940 C   0  0  0  0  0  2  0  0  0  0  0  0
  183.5960  179.1280  145.7930 O   0  0  0  0  0  1  0  0  0  0  0  0
  184.9730  179.0720  145.5590 C   0  0  0  0  0  2  0  0  0  0  0  0
  185.0710  178.2430  137.7690 C   0  0  2  0  0  3  0  0  0  0  0  0
  184.9700  179.3820  138.5810 O   0  0  0  0  0  0  0  0  0  0  0  0
  184.8230  179.3320  141.3780 O   0  0  0  0  0  1  0  0  0  0  0  0
  182.5690  178.9990  141.1770 O   0  0  0  0  0  0  0  0  0  0  0  0
  183.6730  179.2120  140.6080 C   0  0  0  0  0  0  0  0  0  0  0  0
  183.7510  179.3120  139.1770 N   0  0  0  0  0  0  0  0  0  0  0  0
  182.5820  179.0300  138.3440 C   0  0  0  0  0  2  0  0  0  0  0  0
  179.7200  178.9230  136.9780 C   0  0  2  0  0  3  0  0  0  0  0  0
  180.6080  181.3470  134.6110 O   0  0  0  0  0  0  0  0  0  0  0  0
  181.4900  180.0900  138.4910 C   0  0  1  0  0  3  0  0  0  0  0  0
  182.3230  182.4010  138.7130 C   0  0  0  0  0  1  0  0  0  0  0  0
  180.5820  181.9430  136.9390 C   0  0  2  0  0  3  0  0  0  0  0  0
  179.4670  179.9040  135.9720 O   0  0  0  0  0  0  0  0  0  0  0  0
  181.7850  181.3850  137.7150 C   0  0  2  0  0  3  0  0  0  0  0  0
  180.0740  179.5030  138.3570 C   0  0  0  0  0  2  0  0  0  0  0  0
  180.2390  181.0490  135.7790 C   0  0  0  0  0  0  0  0  0  0  0  0
  180.6670  178.0000  136.5330 O   0  0  0  0  0  1  0  0  0  0  0  0
  180.8030  183.3830  136.4720 C   0  0  0  0  0  2  0  0  0  0  0  0
  180.2940  184.3600  137.5200 C   0  0  0  0  0  1  0  0  0  0  0  0
  184.6610  176.9660  138.5320 C   0  0  0  0  0  2  0  0  0  0  0  0
  183.9390  176.3790  136.3260 O   0  0  0  0  0  1  0  0  0  0  0  0
  182.7070  175.4620  138.1330 C   0  0  0  0  0  1  0  0  0  0  0  0
  184.0690  175.8890  137.6250 C   0  0  2  0  0  3  0  0  0  0  0  0
  1 24  1  0  0  0  0
  1 27  1  1  0  0  0
  2 15  1  0  0  0  0
  2 14  1  0  0  0  0
  2 42  1  1  0  0  0
  3 20  1  0  0  0  0
  3 14  1  0  0  0  0
  4 22  2  0  0  0  0
  7  6  1  6  0  0  0
  7  8  1  0  0  0  0
  7 23  1  0  0  0  0
  8 25  1  1  0  0  0
  8 12  1  0  0  0  0
 10 15  1  0  0  0  0
 11 22  1  0  0  0  0
 11 20  1  0  0  0  0
 12 13  1  6  0  0  0
 12 21  1  0  0  0  0
 13 17  1  0  0  0  0
 17  9  2  0  0  0  0
 17 24  1  0  0  0  0
 19 21  1  0  0  0  0
 19 16  1  6  0  0  0
 20 10  1  6  0  0  0
 20 25  1  0  0  0  0
 21 18  1  6  0  0  0
 21  1  1  0  0  0  0
 22  6  1  0  0  0  0
 23  5  1  1  0  0  0
 23 19  1  0  0  0  0
 27 26  1  1  0  0  0
 27 31  1  0  0  0  0
 28 30  2  0  0  0  0
 30 29  2  0  0  0  0
 31 32  1  0  0  0  0
 31 33  1  1  0  0  0
 32 30  1  0  0  0  0
 34 33  1  0  0  0  0
 34 36  1  0  0  0  0
 36 35  2  0  0  0  0
 37 38  1  6  0  0  0
 37 36  1  0  0  0  0
 39 37  1  0  0  0  0
 41 40  1  0  0  0  0
 41 39  1  0  0  0  0
 42 61  1  1  0  0  0
 42 43  1  0  0  0  0
 43 47  1  0  0  0  0
 46 45  2  0  0  0  0
 46 44  1  0  0  0  0
 47 46  1  0  0  0  0
 48 47  1  0  0  0  0
 49 58  1  6  0  0  0
 49 56  1  0  0  0  0
 50 57  2  0  0  0  0
 51 48  1  6  0  0  0
 53 59  1  6  0  0  0
 53 55  1  0  0  0  0
 54 49  1  0  0  0  0
 55 51  1  0  0  0  0
 55 52  1  1  0  0  0
 56 51  1  0  0  0  0
 57 54  1  0  0  0  0
 57 53  1  0  0  0  0
 59 60  1  0  0  0  0
 62 64  1  0  0  0  0
 64 63  1  1  0  0  0
 64 61  1  0  0  0  0
M  END
>  <MODEL>
6

>  <REMARK>
 VINA RESULT:      -3.2      3.515      8.413
  Name = 
  15 active torsions:
  status: ('A' for Active; 'I' for Inactive)
    1  A    between atoms: O_1  and  C_20
    2  A    between atoms: O_1  and  N_60
    3  A    between atoms: C_2  and  C_35
    4  A    between atoms: C_3  and  C_20
    5  A    between atoms: C_4  and  C_20
    6  A    between atoms: C_4  and  C_50
    7  A    between atoms: C_5  and  N_12
    8  A    between atoms: C_5  and  C_37
    9  A    between atoms: C_14  and  C_27
   10  A    between atoms: C_14  and  C_52
   11  A    between atoms: C_27  and  C_53
   12  A    between atoms: C_34  and  C_39
   13  A    between atoms: C_34  and  N_60
   14  A    between atoms: C_35  and  C_37
   15  A    between atoms: C_44  and  C_51
                            x       y       z     vdW  Elec       q    Type
                         _______ _______ _______ _____ _____    ______ ____

>  <TORSDO>
F 15

$$$$
=
 OpenBabel11062417473D

 64 68  0  0  1  0  0  0  0  0999 V2000
  183.4620  175.9910  136.8710 C   0  0  2  0  0  3  0  0  0  0  0  0
  188.0320  178.1440  142.1800 C   0  0  2  0  0  3  0  0  0  0  0  0
  188.5770  178.9450  139.9350 O   0  0  0  0  0  0  0  0  0  0  0  0
  190.5120  178.1710  136.3160 O   0  0  0  0  0  0  0  0  0  0  0  0
  187.6190  177.3880  134.5940 O   0  0  0  0  0  1  0  0  0  0  0  0
  188.3960  179.1220  136.8000 C   0  0  0  0  0  2  0  0  0  0  0  0
  187.0850  178.3390  136.7510 C   0  0  2  0  0  3  0  0  0  0  0  0
  186.5350  178.0170  138.1390 C   0  0  1  0  0  3  0  0  0  0  0  0
  182.3100  176.6770  140.2140 O   0  0  0  0  0  0  0  0  0  0  0  0
  189.3070  176.7300  140.5320 C   0  0  0  0  0  2  0  0  0  0  0  0
  189.7000  177.6220  138.3810 O   0  0  0  0  0  0  0  0  0  0  0  0
  185.0940  177.5070  137.9910 C   0  0  2  0  0  3  0  0  0  0  0  0
  184.4340  177.3060  139.3550 C   0  0  0  0  0  2  0  0  0  0  0  0
  187.6000  178.9670  140.9620 C   0  0  0  0  0  2  0  0  0  0  0  0
  188.4160  176.7240  141.7630 C   0  0  0  0  0  2  0  0  0  0  0  0
  184.8770  177.5070  134.9530 O   0  0  0  0  0  1  0  0  0  0  0  0
  183.1090  176.6280  139.2430 C   0  0  0  0  0  0  0  0  0  0  0  0
  185.5870  175.1660  137.6300 O   0  0  0  0  0  1  0  0  0  0  0  0
  185.6330  176.5820  135.6860 C   0  0  2  0  0  3  0  0  0  0  0  0
  188.7320  177.6260  139.4310 C   0  0  2  0  0  0  0  0  0  0  0  0
  184.9660  176.2800  137.0520 C   0  0  1  0  0  0  0  0  0  0  0  0
  189.5820  178.2820  137.1550 C   0  0  0  0  0  0  0  0  0  0  0  0
  187.0730  177.0960  135.8470 C   0  0  1  0  0  3  0  0  0  0  0  0
  182.7790  175.8660  138.1210 O   0  0  0  0  0  0  0  0  0  0  0  0
  187.4140  177.0180  138.9100 C   0  0  0  0  0  2  0  0  0  0  0  0
  183.6190  173.6080  136.5840 O   0  0  0  0  0  1  0  0  0  0  0  0
  183.1680  174.7780  135.9710 C   0  0  1  0  0  3  0  0  0  0  0  0
  181.2240  172.4900  137.7570 O   0  0  0  0  0  0  0  0  0  0  0  0
  179.1260  173.7150  136.5650 O   0  0  0  0  0  0  0  0  0  0  0  0
  180.6290  173.7020  136.7390 P   0  0  0  0  0  0  0  0  0  0  0  0
  181.6790  174.6270  135.5990 C   0  0  2  0  0  3  0  0  0  0  0  0
  181.3250  173.4130  135.1540 O   0  0  0  0  0  0  0  0  0  0  0  0
  180.9710  175.7530  134.8640 C   0  0  0  0  0  2  0  0  0  0  0  0
  181.0510  176.9820  135.6330 N   0  0  0  0  0  2  0  0  0  0  0  0
  178.9320  176.7170  136.5730 O   0  0  0  0  0  0  0  0  0  0  0  0
  179.9910  177.3970  136.4960 C   0  0  0  0  0  0  0  0  0  0  0  0
  180.1080  178.6610  137.2870 C   0  0  1  0  0  3  0  0  0  0  0  0
  179.4390  178.5440  138.5740 N   0  0  0  0  0  1  0  0  0  0  0  0
  181.5580  179.1180  137.4540 C   0  0  0  0  0  2  0  0  0  0  0  0
  182.2700  180.9490  138.8260 O   0  0  0  0  0  1  0  0  0  0  0  0
  181.7110  180.6300  137.5860 C   0  0  0  0  0  2  0  0  0  0  0  0
  186.9150  178.1280  143.2320 C   0  0  2  0  0  3  0  0  0  0  0  0
  187.2060  177.2020  144.2450 O   0  0  0  0  0  0  0  0  0  0  0  0
  185.7120  177.0050  146.6060 O   0  0  0  0  0  0  0  0  0  0  0  0
  187.0190  178.6670  147.4800 O   0  0  0  0  0  1  0  0  0  0  0  0
  186.7790  177.8910  146.5160 C   0  0  0  0  0  0  0  0  0  0  0  0
  187.5820  177.9320  145.3270 N   0  0  0  0  0  0  0  0  0  0  0  0
  188.6040  178.9640  145.1500 C   0  0  0  0  0  2  0  0  0  0  0  0
  191.4320  178.9130  143.7100 C   0  0  2  0  0  3  0  0  0  0  0  0
  191.4570  175.4130  143.5830 O   0  0  0  0  0  0  0  0  0  0  0  0
  189.9300  178.5920  145.8140 C   0  0  1  0  0  3  0  0  0  0  0  0
  189.7550  176.8660  147.5670 C   0  0  0  0  0  1  0  0  0  0  0  0
  191.4470  176.5050  145.7250 C   0  0  2  0  0  3  0  0  0  0  0  0
  192.0320  177.6280  143.5500 O   0  0  0  0  0  0  0  0  0  0  0  0
  190.0750  177.0870  146.0950 C   0  0  2  0  0  3  0  0  0  0  0  0
  191.1340  179.3000  145.1680 C   0  0  0  0  0  2  0  0  0  0  0  0
  191.6270  176.4810  144.2320 C   0  0  0  0  0  0  0  0  0  0  0  0
  190.3070  179.0330  142.8910 O   0  0  0  0  0  1  0  0  0  0  0  0
  191.6750  175.1150  146.3250 C   0  0  0  0  0  2  0  0  0  0  0  0
  192.2470  175.2360  147.7280 C   0  0  0  0  0  1  0  0  0  0  0  0
  185.5110  177.8920  142.6380 C   0  0  0  0  0  2  0  0  0  0  0  0
  184.7950  179.7220  144.0070 O   0  0  0  0  0  1  0  0  0  0  0  0
  183.1400  178.6790  142.6660 C   0  0  0  0  0  1  0  0  0  0  0  0
  184.5900  179.1040  142.7740 C   0  0  2  0  0  3  0  0  0  0  0  0
  1 27  1  1  0  0  0
  1 21  1  0  0  0  0
  1 24  1  0  0  0  0
  2 42  1  1  0  0  0
  3 14  1  0  0  0  0
  4 22  2  0  0  0  0
  6 22  1  0  0  0  0
  7  6  1  1  0  0  0
  7  8  1  0  0  0  0
  8 25  1  6  0  0  0
 10 15  1  0  0  0  0
 11 20  1  0  0  0  0
 12  8  1  0  0  0  0
 12 13  1  1  0  0  0
 14  2  1  0  0  0  0
 15  2  1  0  0  0  0
 17 13  1  0  0  0  0
 17  9  2  0  0  0  0
 19 16  1  1  0  0  0
 19 23  1  0  0  0  0
 19 21  1  0  0  0  0
 20 25  1  6  0  0  0
 20  3  1  0  0  0  0
 20 10  1  0  0  0  0
 21 18  1  1  0  0  0
 21 12  1  0  0  0  0
 22 11  1  0  0  0  0
 23  5  1  6  0  0  0
 23  7  1  0  0  0  0
 24 17  1  0  0  0  0
 27 26  1  1  0  0  0
 29 30  2  0  0  0  0
 30 28  2  0  0  0  0
 31 33  1  6  0  0  0
 31 27  1  0  0  0  0
 32 31  1  0  0  0  0
 32 30  1  0  0  0  0
 33 34  1  0  0  0  0
 34 36  1  0  0  0  0
 36 35  2  0  0  0  0
 36 37  1  0  0  0  0
 37 39  1  0  0  0  0
 37 38  1  1  0  0  0
 39 41  1  0  0  0  0
 41 40  1  0  0  0  0
 42 61  1  6  0  0  0
 42 43  1  0  0  0  0
 43 47  1  0  0  0  0
 46 44  2  0  0  0  0
 46 45  1  0  0  0  0
 47 46  1  0  0  0  0
 48 47  1  0  0  0  0
 49 58  1  6  0  0  0
 49 56  1  0  0  0  0
 50 57  2  0  0  0  0
 51 48  1  6  0  0  0
 51 55  1  0  0  0  0
 53 55  1  0  0  0  0
 53 59  1  6  0  0  0
 54 49  1  0  0  0  0
 54 57  1  0  0  0  0
 55 52  1  1  0  0  0
 56 51  1  0  0  0  0
 57 53  1  0  0  0  0
 59 60  1  0  0  0  0
 61 64  1  0  0  0  0
 64 63  1  1  0  0  0
 64 62  1  0  0  0  0
M  END
>  <MODEL>
7

>  <REMARK>
 VINA RESULT:      -2.9      3.253      8.198
  Name = 
  15 active torsions:
  status: ('A' for Active; 'I' for Inactive)
    1  A    between atoms: O_1  and  C_20
    2  A    between atoms: O_1  and  N_60
    3  A    between atoms: C_2  and  C_35
    4  A    between atoms: C_3  and  C_20
    5  A    between atoms: C_4  and  C_20
    6  A    between atoms: C_4  and  C_50
    7  A    between atoms: C_5  and  N_12
    8  A    between atoms: C_5  and  C_37
    9  A    between atoms: C_14  and  C_27
   10  A    between atoms: C_14  and  C_52
   11  A    between atoms: C_27  and  C_53
   12  A    between atoms: C_34  and  C_39
   13  A    between atoms: C_34  and  N_60
   14  A    between atoms: C_35  and  C_37
   15  A    between atoms: C_44  and  C_51
                            x       y       z     vdW  Elec       q    Type
                         _______ _______ _______ _____ _____    ______ ____

>  <TORSDO>
F 15

$$$$
=
 OpenBabel11062417473D

 64 68  0  0  1  0  0  0  0  0999 V2000
  189.8310  176.9870  143.7600 C   0  0  2  0  0  3  0  0  0  0  0  0
  186.4420  177.8800  137.3240 C   0  0  2  0  0  3  0  0  0  0  0  0
  188.5800  176.6980  137.2310 O   0  0  0  0  0  0  0  0  0  0  0  0
  192.7370  176.9990  136.9540 O   0  0  0  0  0  0  0  0  0  0  0  0
  193.3050  176.3550  140.3020 O   0  0  0  0  0  1  0  0  0  0  0  0
  191.3410  175.6190  138.2820 C   0  0  0  0  0  2  0  0  0  0  0  0
  190.9950  175.9190  139.7400 C   0  0  2  0  0  3  0  0  0  0  0  0
  189.5650  176.4270  139.9160 C   0  0  1  0  0  3  0  0  0  0  0  0
  186.2410  176.9290  143.4740 O   0  0  0  0  0  0  0  0  0  0  0  0
  188.6410  179.1050  137.2630 C   0  0  0  0  0  2  0  0  0  0  0  0
  190.6220  177.8200  137.2390 O   0  0  0  0  0  0  0  0  0  0  0  0
  189.2190  176.4110  141.4130 C   0  0  2  0  0  3  0  0  0  0  0  0
  187.7510  176.7680  141.6460 C   0  0  0  0  0  2  0  0  0  0  0  0
  187.2650  176.6630  137.7580 C   0  0  0  0  0  2  0  0  0  0  0  0
  187.1770  179.1780  137.6630 C   0  0  0  0  0  2  0  0  0  0  0  0
  191.9030  175.5080  142.5340 O   0  0  0  0  0  1  0  0  0  0  0  0
  187.4400  176.9510  143.0950 C   0  0  0  0  0  0  0  0  0  0  0  0
  190.0790  178.5970  141.9940 O   0  0  0  0  0  1  0  0  0  0  0  0
  191.6620  176.7850  142.0060 C   0  0  2  0  0  3  0  0  0  0  0  0
  189.2920  177.8100  137.7570 C   0  0  2  0  0  0  0  0  0  0  0  0
  190.2040  177.2320  142.2840 C   0  0  1  0  0  0  0  0  0  0  0  0
  191.5970  176.8440  137.4640 C   0  0  0  0  0  0  0  0  0  0  0  0
  191.9950  176.8000  140.5060 C   0  0  1  0  0  3  0  0  0  0  0  0
  188.4480  177.2360  144.0190 O   0  0  0  0  0  0  0  0  0  0  0  0
  189.3470  177.8180  139.2980 C   0  0  0  0  0  2  0  0  0  0  0  0
  190.3680  179.1060  144.7610 O   0  0  0  0  0  1  0  0  0  0  0  0
  190.7140  177.7550  144.7590 C   0  0  1  0  0  3  0  0  0  0  0  0
  192.7920  175.0780  145.6070 O   0  0  0  0  0  0  0  0  0  0  0  0
  192.0970  175.6660  148.1560 O   0  0  0  0  0  0  0  0  0  0  0  0
  191.9560  176.0600  146.7020 P   0  0  0  0  0  0  0  0  0  0  0  0
  190.6530  177.2010  146.1960 C   0  0  2  0  0  3  0  0  0  0  0  0
  190.2530  175.9260  146.2970 O   0  0  0  0  0  0  0  0  0  0  0  0
  190.1150  178.0770  147.3150 C   0  0  0  0  0  2  0  0  0  0  0  0
  188.7290  178.4280  147.0560 N   0  0  0  0  0  2  0  0  0  0  0  0
  188.0010  177.7640  149.1700 O   0  0  0  0  0  0  0  0  0  0  0  0
  187.7160  178.2640  148.0490 C   0  0  0  0  0  0  0  0  0  0  0  0
  186.3000  178.6490  147.7570 C   0  0  1  0  0  3  0  0  0  0  0  0
  186.1110  180.0880  147.8570 N   0  0  0  0  0  1  0  0  0  0  0  0
  185.8120  178.1170  146.4090 C   0  0  0  0  0  2  0  0  0  0  0  0
  184.5200  179.4980  144.9370 O   0  0  0  0  0  1  0  0  0  0  0  0
  184.4260  178.6200  146.0200 C   0  0  0  0  0  2  0  0  0  0  0  0
  185.0540  177.8440  137.9800 C   0  0  2  0  0  3  0  0  0  0  0  0
  184.0480  177.9360  137.0080 O   0  0  0  0  0  0  0  0  0  0  0  0
  181.6350  178.8540  138.0960 O   0  0  0  0  0  0  0  0  0  0  0  0
  181.0580  176.6690  138.4590 O   0  0  0  0  0  1  0  0  0  0  0  0
  181.8890  177.4910  137.9880 C   0  0  0  0  0  0  0  0  0  0  0  0
  183.0980  177.0320  137.3630 N   0  0  0  0  0  0  0  0  0  0  0  0
  183.4570  175.6140  137.3830 C   0  0  0  0  0  2  0  0  0  0  0  0
  181.5980  173.3270  136.2070 C   0  0  2  0  0  3  0  0  0  0  0  0
  184.1210  170.9200  136.5320 O   0  0  0  0  0  0  0  0  0  0  0  0
  183.5660  175.0180  135.9790 C   0  0  1  0  0  3  0  0  0  0  0  0
  185.8640  174.8910  135.0910 C   0  0  0  0  0  1  0  0  0  0  0  0
  184.4690  172.7830  135.0540 C   0  0  2  0  0  3  0  0  0  0  0  0
  182.2300  172.0710  135.9570 O   0  0  0  0  0  0  0  0  0  0  0  0
  184.7790  174.0900  135.7990 C   0  0  2  0  0  3  0  0  0  0  0  0
  182.2150  174.5120  135.4450 C   0  0  0  0  0  2  0  0  0  0  0  0
  183.6100  171.8830  135.8990 C   0  0  0  0  0  0  0  0  0  0  0  0
  181.5140  173.5660  137.5790 O   0  0  0  0  0  1  0  0  0  0  0  0
  185.7350  172.0570  134.5940 C   0  0  0  0  0  2  0  0  0  0  0  0
  186.3020  171.2210  135.7290 C   0  0  0  0  0  1  0  0  0  0  0  0
  184.8680  178.9010  139.0890 C   0  0  0  0  0  2  0  0  0  0  0  0
  183.4820  177.9450  140.7910 O   0  0  0  0  0  1  0  0  0  0  0  0
  185.2940  179.2910  141.5190 C   0  0  0  0  0  1  0  0  0  0  0  0
  184.7980  178.2960  140.4890 C   0  0  2  0  0  3  0  0  0  0  0  0
  1 24  1  0  0  0  0
  1 27  1  1  0  0  0
  2 15  1  0  0  0  0
  2 14  1  0  0  0  0
  2 42  1  1  0  0  0
  3 20  1  0  0  0  0
  3 14  1  0  0  0  0
  4 22  2  0  0  0  0
  7  6  1  6  0  0  0
  7  8  1  0  0  0  0
  7 23  1  0  0  0  0
  8 25  1  1  0  0  0
  8 12  1  0  0  0  0
 10 15  1  0  0  0  0
 11 22  1  0  0  0  0
 11 20  1  0  0  0  0
 12 13  1  6  0  0  0
 12 21  1  0  0  0  0
 13 17  1  0  0  0  0
 17  9  2  0  0  0  0
 17 24  1  0  0  0  0
 19 21  1  0  0  0  0
 19 16  1  6  0  0  0
 20 10  1  6  0  0  0
 20 25  1  0  0  0  0
 21 18  1  6  0  0  0
 21  1  1  0  0  0  0
 22  6  1  0  0  0  0
 23  5  1  1  0  0  0
 23 19  1  0  0  0  0
 27 26  1  1  0  0  0
 27 31  1  0  0  0  0
 28 30  2  0  0  0  0
 30 29  2  0  0  0  0
 31 32  1  0  0  0  0
 31 33  1  1  0  0  0
 32 30  1  0  0  0  0
 34 33  1  0  0  0  0
 34 36  1  0  0  0  0
 36 35  2  0  0  0  0
 37 38  1  6  0  0  0
 37 36  1  0  0  0  0
 39 37  1  0  0  0  0
 40 41  1  0  0  0  0
 41 39  1  0  0  0  0
 42 61  1  1  0  0  0
 43 47  1  0  0  0  0
 43 42  1  0  0  0  0
 46 44  2  0  0  0  0
 46 45  1  0  0  0  0
 47 48  1  0  0  0  0
 47 46  1  0  0  0  0
 49 58  1  1  0  0  0
 51 48  1  1  0  0  0
 53 59  1  1  0  0  0
 53 55  1  0  0  0  0
 53 57  1  0  0  0  0
 54 49  1  0  0  0  0
 55 52  1  6  0  0  0
 55 51  1  0  0  0  0
 56 51  1  0  0  0  0
 56 49  1  0  0  0  0
 57 54  1  0  0  0  0
 57 50  2  0  0  0  0
 59 60  1  0  0  0  0
 61 64  1  0  0  0  0
 64 62  1  0  0  0  0
 64 63  1  1  0  0  0
M  END
>  <MODEL>
8

>  <REMARK>
 VINA RESULT:      -2.7      3.284      8.673
  Name = 
  15 active torsions:
  status: ('A' for Active; 'I' for Inactive)
    1  A    between atoms: O_1  and  C_20
    2  A    between atoms: O_1  and  N_60
    3  A    between atoms: C_2  and  C_35
    4  A    between atoms: C_3  and  C_20
    5  A    between atoms: C_4  and  C_20
    6  A    between atoms: C_4  and  C_50
    7  A    between atoms: C_5  and  N_12
    8  A    between atoms: C_5  and  C_37
    9  A    between atoms: C_14  and  C_27
   10  A    between atoms: C_14  and  C_52
   11  A    between atoms: C_27  and  C_53
   12  A    between atoms: C_34  and  C_39
   13  A    between atoms: C_34  and  N_60
   14  A    between atoms: C_35  and  C_37
   15  A    between atoms: C_44  and  C_51
                            x       y       z     vdW  Elec       q    Type
                         _______ _______ _______ _____ _____    ______ ____

>  <TORSDO>
F 15

$$$$
