=
 OpenBabel11062412023D

 48 50  0  0  1  0  0  0  0  0999 V2000
  185.4110  178.4220  142.5280 C   0  0  0  0  0  0  0  0  0  0  0  0
  186.0290  177.9330  143.8000 C   0  0  0  0  0  1  0  0  0  0  0  0
  186.1880  178.7390  141.4820 C   0  0  0  0  0  3  0  0  0  0  0  0
  183.5740  178.8290  144.7660 O   0  0  0  0  0  0  0  0  0  0  0  0
  183.9360  178.5460  142.4230 C   0  0  0  0  0  0  0  0  0  0  0  0
  181.6490  179.2400  143.4280 C   0  0  0  0  0  2  0  0  0  0  0  0
  181.8750  178.4280  141.0800 C   0  0  0  0  0  0  0  0  0  0  0  0
  181.0940  178.8170  142.0970 C   0  0  0  0  0  3  0  0  0  0  0  0
  183.3350  178.3360  141.2440 C   0  0  0  0  0  3  0  0  0  0  0  0
  183.0950  178.8690  143.6020 C   0  0  0  0  0  0  0  0  0  0  0  0
  181.2820  178.0660  139.7410 C   0  0  2  0  0  3  0  0  0  0  0  0
  182.9460  176.8320  138.2840 C   0  0  0  0  0  2  0  0  0  0  0  0
  181.1770  174.5900  137.9670 C   0  0  0  0  0  3  0  0  0  0  0  0
  180.6670  175.9070  138.4980 C   0  0  0  0  0  2  0  0  0  0  0  0
  183.5220  175.4560  137.9430 C   0  0  1  0  0  3  0  0  0  0  0  0
  181.7630  176.6820  139.2420 C   0  0  2  0  0  3  0  0  0  0  0  0
  182.4720  174.4010  137.6700 C   0  0  0  0  0  3  0  0  0  0  0  0
  184.4760  175.5370  136.8830 O   0  0  0  0  0  0  0  0  0  0  0  0
  186.0920  173.9680  137.4400 O   0  0  0  0  0  0  0  0  0  0  0  0
  185.4660  174.0460  135.1490 C   0  0  0  0  0  1  0  0  0  0  0  0
  185.3740  174.5130  136.5570 C   0  0  0  0  0  0  0  0  0  0  0  0
  181.5340  179.1810  138.7070 C   0  0  1  0  0  3  0  0  0  0  0  0
  180.7400  178.9970  137.5720 O   0  0  0  0  0  1  0  0  0  0  0  0
  181.5780  181.5450  138.6920 O   0  0  0  0  0  0  0  0  0  0  0  0
  181.2380  180.5340  139.2850 C   0  0  0  0  0  3  0  0  0  0  0  0
  187.6790  178.6570  141.5010 C   0  0  0  0  0  2  0  0  0  0  0  0
  187.1180  178.3870  139.1940 O   0  0  0  0  0  1  0  0  0  0  0  0
  188.1970  178.4520  140.0830 C   0  0  2  0  0  3  0  0  0  0  0  0
  189.0610  177.1910  139.9570 C   0  0  1  0  0  3  0  0  0  0  0  0
  190.7230  176.0290  138.4040 C   0  0  0  0  0  2  0  0  0  0  0  0
  189.8170  178.2740  137.8060 C   0  0  0  0  0  3  0  0  0  0  0  0
  189.0990  177.7790  136.7890 C   0  0  0  0  0  3  0  0  0  0  0  0
  189.8650  175.4370  137.2630 C   0  0  1  0  0  3  0  0  0  0  0  0
  190.2230  177.3800  138.9570 C   0  0  1  0  0  3  0  0  0  0  0  0
  189.3870  174.1910  137.6280 F   0  0  0  0  0  0  0  0  0  0  0  0
  188.6960  176.3320  136.8140 C   0  0  2  0  0  3  0  0  0  0  0  0
  188.2480  175.9520  135.5600 F   0  0  0  0  0  0  0  0  0  0  0  0
  189.5630  176.7820  141.2690 N   0  0  0  0  0  2  0  0  0  0  0  0
  190.9540  177.2030  141.3350 C   0  0  0  0  0  2  0  0  0  0  0  0
  191.2240  177.8870  142.6610 C   0  0  0  0  0  2  0  0  0  0  0  0
  191.5200  176.8450  143.7290 C   0  0  0  0  0  2  0  0  0  0  0  0
  190.4930  176.8800  144.7620 N   0  0  0  0  0  2  0  0  0  0  0  0
  192.0000  176.8500  146.5520 O   0  0  0  0  0  0  0  0  0  0  0  0
  190.8040  176.8680  146.1590 C   0  0  0  0  0  0  0  0  0  0  0  0
  189.7060  176.8980  147.1610 C   0  0  0  0  0  2  0  0  0  0  0  0
  188.4610  177.5170  146.5490 C   0  0  0  0  0  2  0  0  0  0  0  0
  188.1680  178.1720  148.8780 N   0  0  0  0  0  1  0  0  0  0  0  0
  187.4750  177.9160  147.6330 C   0  0  0  0  0  2  0  0  0  0  0  0
  1  2  1  0  0  0  0
  3 26  1  0  0  0  0
  3  1  2  0  0  0  0
  5  1  1  0  0  0  0
  5 10  1  0  0  0  0
  6 10  1  0  0  0  0
  7  9  1  0  0  0  0
  7  8  2  0  0  0  0
  8  6  1  0  0  0  0
  9  5  2  0  0  0  0
 10  4  2  0  0  0  0
 11 22  1  6  0  0  0
 11  7  1  0  0  0  0
 12 16  1  0  0  0  0
 13 14  1  0  0  0  0
 14 16  1  0  0  0  0
 15 18  1  6  0  0  0
 15 12  1  0  0  0  0
 16 11  1  6  0  0  0
 17 15  1  0  0  0  0
 17 13  2  0  0  0  0
 20 21  1  0  0  0  0
 21 18  1  0  0  0  0
 21 19  2  0  0  0  0
 22 23  1  6  0  0  0
 22 25  1  0  0  0  0
 24 25  2  0  0  0  0
 28 27  1  6  0  0  0
 28 26  1  0  0  0  0
 29 28  1  0  0  0  0
 29 38  1  1  0  0  0
 30 34  1  0  0  0  0
 31 34  1  0  0  0  0
 32 36  1  0  0  0  0
 32 31  2  0  0  0  0
 33 35  1  1  0  0  0
 33 30  1  0  0  0  0
 34 29  1  1  0  0  0
 36 37  1  6  0  0  0
 36 33  1  0  0  0  0
 38 39  1  0  0  0  0
 39 40  1  0  0  0  0
 40 41  1  0  0  0  0
 41 42  1  0  0  0  0
 42 44  1  0  0  0  0
 44 43  2  0  0  0  0
 44 45  1  0  0  0  0
 46 45  1  0  0  0  0
 46 48  1  0  0  0  0
 48 47  1  0  0  0  0
M  END
>  <MODEL>
1

>  <REMARK>
 VINA RESULT:      -7.5      0.000      0.000
  Name = 
  19 active torsions:
  status: ('A' for Active; 'I' for Inactive)
    1  A    between atoms: C_3  and  C_12
    2  A    between atoms: C_5  and  C_29
    3  A    between atoms: C_5  and  C_33
    4  A    between atoms: C_5  and  C_34
    5  A    between atoms: N_6  and  C_7
    6  A    between atoms: N_6  and  C_9
    7  A    between atoms: C_7  and  C_40
    8  A    between atoms: C_9  and  C_22
    9  A    between atoms: C_9  and  C_27
   10  A    between atoms: C_13  and  C_32
   11  A    between atoms: C_13  and  C_47
   12  A    between atoms: N_16  and  C_23
   13  A    between atoms: O_19  and  C_28
   14  A    between atoms: O_19  and  C_31
   15  A    between atoms: C_23  and  C_40
   16  A    between atoms: C_27  and  C_44
   17  A    between atoms: C_34  and  C_35
   18  A    between atoms: C_39  and  C_47
   19  A    between atoms: C_41  and  C_44
                            x       y       z     vdW  Elec       q    Type
                         _______ _______ _______ _____ _____    ______ ____

>  <TORSDO>
F 19

$$$$
=
 OpenBabel11062412023D

 48 50  0  0  1  0  0  0  0  0999 V2000
  186.2730  178.2080  142.7590 C   0  0  0  0  0  0  0  0  0  0  0  0
  187.0400  177.2100  143.5690 C   0  0  0  0  0  1  0  0  0  0  0  0
  186.8800  178.8790  141.7690 C   0  0  0  0  0  3  0  0  0  0  0  0
  185.1150  178.6300  145.4090 O   0  0  0  0  0  0  0  0  0  0  0  0
  184.8360  178.4450  143.0450 C   0  0  0  0  0  0  0  0  0  0  0  0
  182.9520  179.2520  144.6330 C   0  0  0  0  0  2  0  0  0  0  0  0
  182.4970  178.5490  142.2820 C   0  0  0  0  0  0  0  0  0  0  0  0
  182.0390  178.9400  143.4800 C   0  0  0  0  0  3  0  0  0  0  0  0
  183.9370  178.3410  142.0570 C   0  0  0  0  0  3  0  0  0  0  0  0
  184.3570  178.7660  144.4120 C   0  0  0  0  0  0  0  0  0  0  0  0
  181.5510  178.3020  141.1340 C   0  0  2  0  0  3  0  0  0  0  0  0
  182.7670  176.7030  139.5910 C   0  0  0  0  0  2  0  0  0  0  0  0
  184.2710  178.8350  138.3860 C   0  0  0  0  0  3  0  0  0  0  0  0
  183.5290  179.0500  139.6810 C   0  0  0  0  0  2  0  0  0  0  0  0
  183.3380  176.5240  138.1820 C   0  0  1  0  0  3  0  0  0  0  0  0
  182.2940  178.1440  139.7860 C   0  0  2  0  0  3  0  0  0  0  0  0
  184.2210  177.6660  137.7280 C   0  0  0  0  0  3  0  0  0  0  0  0
  183.9920  175.2630  138.0410 O   0  0  0  0  0  0  0  0  0  0  0  0
  182.6500  174.4560  136.3270 O   0  0  0  0  0  0  0  0  0  0  0  0
  184.1850  172.9030  137.2630 C   0  0  0  0  0  1  0  0  0  0  0  0
  183.5550  174.2460  137.1810 C   0  0  0  0  0  0  0  0  0  0  0  0
  180.4590  179.3890  141.0760 C   0  0  1  0  0  3  0  0  0  0  0  0
  180.4480  180.0180  139.8280 O   0  0  0  0  0  1  0  0  0  0  0  0
  178.9720  177.8330  142.0570 O   0  0  0  0  0  0  0  0  0  0  0  0
  179.1000  178.8060  141.3310 C   0  0  0  0  0  3  0  0  0  0  0  0
  188.3220  178.7140  141.4180 C   0  0  0  0  0  2  0  0  0  0  0  0
  187.2770  177.5940  139.5830 O   0  0  0  0  0  1  0  0  0  0  0  0
  188.4450  178.2620  139.9680 C   0  0  2  0  0  3  0  0  0  0  0  0
  189.6650  177.3610  139.7430 C   0  0  1  0  0  3  0  0  0  0  0  0
  191.3630  176.5790  138.0010 C   0  0  0  0  0  2  0  0  0  0  0  0
  189.4570  178.0360  137.3190 C   0  0  0  0  0  3  0  0  0  0  0  0
  188.8670  177.0450  136.6370 C   0  0  0  0  0  3  0  0  0  0  0  0
  190.6710  175.4150  137.2560 C   0  0  1  0  0  3  0  0  0  0  0  0
  190.4190  177.7170  138.4420 C   0  0  1  0  0  3  0  0  0  0  0  0
  190.8760  174.2290  137.9370 F   0  0  0  0  0  0  0  0  0  0  0  0
  189.1660  175.6210  137.0090 C   0  0  2  0  0  3  0  0  0  0  0  0
  188.7180  174.7750  136.0080 F   0  0  0  0  0  0  0  0  0  0  0  0
  190.5620  177.4170  140.8970 N   0  0  0  0  0  2  0  0  0  0  0  0
  190.2230  176.2840  141.7460 C   0  0  0  0  0  2  0  0  0  0  0  0
  191.1610  176.2330  142.9370 C   0  0  0  0  0  2  0  0  0  0  0  0
  191.1040  177.5490  143.6970 C   0  0  0  0  0  2  0  0  0  0  0  0
  190.2550  177.4140  144.8730 N   0  0  0  0  0  2  0  0  0  0  0  0
  191.9870  176.7650  146.3050 O   0  0  0  0  0  0  0  0  0  0  0  0
  190.7610  177.0050  146.1470 C   0  0  0  0  0  0  0  0  0  0  0  0
  189.8370  176.8810  147.3060 C   0  0  0  0  0  2  0  0  0  0  0  0
  188.4070  177.1290  146.8580 C   0  0  0  0  0  2  0  0  0  0  0  0
  188.3740  178.2050  149.0440 N   0  0  0  0  0  1  0  0  0  0  0  0
  187.7450  178.1710  147.7410 C   0  0  0  0  0  2  0  0  0  0  0  0
  1  5  1  0  0  0  0
  1  2  1  0  0  0  0
  3  1  2  0  0  0  0
  5 10  1  0  0  0  0
  7  8  2  0  0  0  0
  8  6  1  0  0  0  0
  9  7  1  0  0  0  0
  9  5  2  0  0  0  0
 10  6  1  0  0  0  0
 10  4  2  0  0  0  0
 11 22  1  6  0  0  0
 11  7  1  0  0  0  0
 12 16  1  0  0  0  0
 13 14  1  0  0  0  0
 14 16  1  0  0  0  0
 15 18  1  1  0  0  0
 15 12  1  0  0  0  0
 16 11  1  1  0  0  0
 17 15  1  0  0  0  0
 17 13  2  0  0  0  0
 19 21  2  0  0  0  0
 21 20  1  0  0  0  0
 21 18  1  0  0  0  0
 22 23  1  6  0  0  0
 22 25  1  0  0  0  0
 25 24  2  0  0  0  0
 26  3  1  0  0  0  0
 28 27  1  1  0  0  0
 28 26  1  0  0  0  0
 29 28  1  0  0  0  0
 29 38  1  1  0  0  0
 30 34  1  0  0  0  0
 31 34  1  0  0  0  0
 32 36  1  0  0  0  0
 32 31  2  0  0  0  0
 33 35  1  1  0  0  0
 33 30  1  0  0  0  0
 34 29  1  1  0  0  0
 36 37  1  6  0  0  0
 36 33  1  0  0  0  0
 38 39  1  0  0  0  0
 39 40  1  0  0  0  0
 40 41  1  0  0  0  0
 41 42  1  0  0  0  0
 42 44  1  0  0  0  0
 44 43  2  0  0  0  0
 44 45  1  0  0  0  0
 46 45  1  0  0  0  0
 46 48  1  0  0  0  0
 48 47  1  0  0  0  0
M  END
>  <MODEL>
2

>  <REMARK>
 VINA RESULT:      -7.5      1.366      1.973
  Name = 
  19 active torsions:
  status: ('A' for Active; 'I' for Inactive)
    1  A    between atoms: C_3  and  C_12
    2  A    between atoms: C_5  and  C_29
    3  A    between atoms: C_5  and  C_33
    4  A    between atoms: C_5  and  C_34
    5  A    between atoms: N_6  and  C_7
    6  A    between atoms: N_6  and  C_9
    7  A    between atoms: C_7  and  C_40
    8  A    between atoms: C_9  and  C_22
    9  A    between atoms: C_9  and  C_27
   10  A    between atoms: C_13  and  C_32
   11  A    between atoms: C_13  and  C_47
   12  A    between atoms: N_16  and  C_23
   13  A    between atoms: O_19  and  C_28
   14  A    between atoms: O_19  and  C_31
   15  A    between atoms: C_23  and  C_40
   16  A    between atoms: C_27  and  C_44
   17  A    between atoms: C_34  and  C_35
   18  A    between atoms: C_39  and  C_47
   19  A    between atoms: C_41  and  C_44
                            x       y       z     vdW  Elec       q    Type
                         _______ _______ _______ _____ _____    ______ ____

>  <TORSDO>
F 19

$$$$
=
 OpenBabel11062412023D

 48 50  0  0  1  0  0  0  0  0999 V2000
  186.9900  177.5290  142.9050 C   0  0  0  0  0  0  0  0  0  0  0  0
  187.7200  176.3940  143.5530 C   0  0  0  0  0  1  0  0  0  0  0  0
  187.4550  178.0640  141.7670 C   0  0  0  0  0  3  0  0  0  0  0  0
  186.6610  178.2850  145.7090 O   0  0  0  0  0  0  0  0  0  0  0  0
  185.7440  178.0530  143.5170 C   0  0  0  0  0  0  0  0  0  0  0  0
  184.5150  179.2790  145.4430 C   0  0  0  0  0  2  0  0  0  0  0  0
  183.3420  178.5740  143.3560 C   0  0  0  0  0  0  0  0  0  0  0  0
  183.2920  179.1000  144.5880 C   0  0  0  0  0  3  0  0  0  0  0  0
  184.6130  178.0820  142.7990 C   0  0  0  0  0  3  0  0  0  0  0  0
  185.7050  178.5210  144.9250 C   0  0  0  0  0  0  0  0  0  0  0  0
  182.1000  178.4650  142.5090 C   0  0  2  0  0  3  0  0  0  0  0  0
  181.9840  177.5680  140.1430 C   0  0  0  0  0  2  0  0  0  0  0  0
  184.1230  179.2780  139.2700 C   0  0  0  0  0  3  0  0  0  0  0  0
  183.8630  179.0560  140.7390 C   0  0  0  0  0  2  0  0  0  0  0  0
  182.0990  177.9400  138.6630 C   0  0  1  0  0  3  0  0  0  0  0  0
  182.3820  178.7590  141.0150 C   0  0  2  0  0  3  0  0  0  0  0  0
  183.3450  178.7290  138.3230 C   0  0  0  0  0  3  0  0  0  0  0  0
  181.9560  176.7940  137.8240 O   0  0  0  0  0  0  0  0  0  0  0  0
  182.8620  176.1360  135.7910 O   0  0  0  0  0  0  0  0  0  0  0  0
  181.0740  177.6960  135.6740 C   0  0  0  0  0  1  0  0  0  0  0  0
  182.0230  176.8330  136.4250 C   0  0  0  0  0  0  0  0  0  0  0  0
  180.9680  179.3460  143.0730 C   0  0  1  0  0  3  0  0  0  0  0  0
  180.5950  180.3300  142.1540 O   0  0  0  0  0  1  0  0  0  0  0  0
  179.8390  177.6150  144.2230 O   0  0  0  0  0  0  0  0  0  0  0  0
  179.7590  178.5240  143.4120 C   0  0  0  0  0  3  0  0  0  0  0  0
  188.7050  177.6090  141.0870 C   0  0  0  0  0  2  0  0  0  0  0  0
  187.5300  178.8040  139.3820 O   0  0  0  0  0  1  0  0  0  0  0  0
  188.6660  178.0200  139.6200 C   0  0  2  0  0  3  0  0  0  0  0  0
  188.6780  176.8100  138.6780 C   0  0  1  0  0  3  0  0  0  0  0  0
  188.7640  176.2920  136.1780 C   0  0  0  0  0  2  0  0  0  0  0  0
  186.6140  176.9830  137.2360 C   0  0  0  0  0  3  0  0  0  0  0  0
  186.0800  175.7630  137.0860 C   0  0  0  0  0  3  0  0  0  0  0  0
  188.1770  174.8680  136.0400 C   0  0  1  0  0  3  0  0  0  0  0  0
  188.1160  177.1550  137.2810 C   0  0  1  0  0  3  0  0  0  0  0  0
  189.1710  173.9260  136.2340 F   0  0  0  0  0  0  0  0  0  0  0  0
  186.9900  174.5750  136.9750 C   0  0  2  0  0  3  0  0  0  0  0  0
  186.2740  173.4800  136.5200 F   0  0  0  0  0  0  0  0  0  0  0  0
  190.0290  176.2570  138.5750 N   0  0  0  0  0  2  0  0  0  0  0  0
  190.9520  177.3550  138.8200 C   0  0  0  0  0  2  0  0  0  0  0  0
  192.1450  176.8590  139.6140 C   0  0  0  0  0  2  0  0  0  0  0  0
  192.3220  177.7080  140.8630 C   0  0  0  0  0  2  0  0  0  0  0  0
  191.9800  176.9350  142.0490 N   0  0  0  0  0  2  0  0  0  0  0  0
  191.5470  178.7990  143.3950 O   0  0  0  0  0  0  0  0  0  0  0  0
  191.6120  177.5460  143.2900 C   0  0  0  0  0  0  0  0  0  0  0  0
  191.2820  176.6960  144.4640 C   0  0  0  0  0  2  0  0  0  0  0  0
  190.5270  177.5110  145.5000 C   0  0  0  0  0  2  0  0  0  0  0  0
  191.9260  176.6820  147.3150 N   0  0  0  0  0  1  0  0  0  0  0  0
  190.5610  176.8210  146.8510 C   0  0  0  0  0  2  0  0  0  0  0  0
  1  5  1  0  0  0  0
  1  2  1  0  0  0  0
  3  1  2  0  0  0  0
  5 10  1  0  0  0  0
  7  8  2  0  0  0  0
  8  6  1  0  0  0  0
  9  7  1  0  0  0  0
  9  5  2  0  0  0  0
 10  6  1  0  0  0  0
 10  4  2  0  0  0  0
 11 22  1  1  0  0  0
 11  7  1  0  0  0  0
 12 16  1  0  0  0  0
 13 14  1  0  0  0  0
 14 16  1  0  0  0  0
 15 18  1  6  0  0  0
 15 12  1  0  0  0  0
 16 11  1  1  0  0  0
 17 15  1  0  0  0  0
 17 13  2  0  0  0  0
 19 21  2  0  0  0  0
 20 21  1  0  0  0  0
 21 18  1  0  0  0  0
 22 23  1  6  0  0  0
 22 25  1  0  0  0  0
 25 24  2  0  0  0  0
 26  3  1  0  0  0  0
 28 27  1  1  0  0  0
 28 26  1  0  0  0  0
 29 38  1  6  0  0  0
 29 28  1  0  0  0  0
 30 34  1  0  0  0  0
 31 34  1  0  0  0  0
 32 31  2  0  0  0  0
 33 30  1  0  0  0  0
 33 35  1  1  0  0  0
 33 36  1  0  0  0  0
 34 29  1  1  0  0  0
 36 37  1  6  0  0  0
 36 32  1  0  0  0  0
 38 39  1  0  0  0  0
 39 40  1  0  0  0  0
 40 41  1  0  0  0  0
 41 42  1  0  0  0  0
 42 44  1  0  0  0  0
 44 43  2  0  0  0  0
 44 45  1  0  0  0  0
 45 46  1  0  0  0  0
 46 48  1  0  0  0  0
 48 47  1  0  0  0  0
M  END
>  <MODEL>
3

>  <REMARK>
 VINA RESULT:      -7.4      2.047      3.390
  Name = 
  19 active torsions:
  status: ('A' for Active; 'I' for Inactive)
    1  A    between atoms: C_3  and  C_12
    2  A    between atoms: C_5  and  C_29
    3  A    between atoms: C_5  and  C_33
    4  A    between atoms: C_5  and  C_34
    5  A    between atoms: N_6  and  C_7
    6  A    between atoms: N_6  and  C_9
    7  A    between atoms: C_7  and  C_40
    8  A    between atoms: C_9  and  C_22
    9  A    between atoms: C_9  and  C_27
   10  A    between atoms: C_13  and  C_32
   11  A    between atoms: C_13  and  C_47
   12  A    between atoms: N_16  and  C_23
   13  A    between atoms: O_19  and  C_28
   14  A    between atoms: O_19  and  C_31
   15  A    between atoms: C_23  and  C_40
   16  A    between atoms: C_27  and  C_44
   17  A    between atoms: C_34  and  C_35
   18  A    between atoms: C_39  and  C_47
   19  A    between atoms: C_41  and  C_44
                            x       y       z     vdW  Elec       q    Type
                         _______ _______ _______ _____ _____    ______ ____

>  <TORSDO>
F 19

$$$$
=
 OpenBabel11062412023D

 48 50  0  0  1  0  0  0  0  0999 V2000
  187.5290  177.3790  142.8570 C   0  0  0  0  0  0  0  0  0  0  0  0
  188.2580  176.2690  143.5490 C   0  0  0  0  0  1  0  0  0  0  0  0
  187.9920  177.8640  141.6950 C   0  0  0  0  0  3  0  0  0  0  0  0
  187.2260  178.2780  145.6220 O   0  0  0  0  0  0  0  0  0  0  0  0
  186.2890  177.9330  143.4530 C   0  0  0  0  0  0  0  0  0  0  0  0
  185.0760  179.2570  145.3240 C   0  0  0  0  0  2  0  0  0  0  0  0
  183.8850  178.4460  143.2860 C   0  0  0  0  0  0  0  0  0  0  0  0
  183.8450  179.0340  144.4900 C   0  0  0  0  0  3  0  0  0  0  0  0
  185.1520  177.9260  142.7440 C   0  0  0  0  0  3  0  0  0  0  0  0
  186.2620  178.4730  144.8350 C   0  0  0  0  0  0  0  0  0  0  0  0
  182.6360  178.2930  142.4560 C   0  0  2  0  0  3  0  0  0  0  0  0
  183.0090  177.0710  140.2690 C   0  0  0  0  0  2  0  0  0  0  0  0
  184.5120  179.2620  139.1730 C   0  0  0  0  0  3  0  0  0  0  0  0
  184.2290  179.1830  140.6520 C   0  0  0  0  0  2  0  0  0  0  0  0
  183.1060  177.2370  138.7510 C   0  0  1  0  0  3  0  0  0  0  0  0
  182.9170  178.4410  140.9410 C   0  0  2  0  0  3  0  0  0  0  0  0
  184.0380  178.3460  138.3120 C   0  0  0  0  0  3  0  0  0  0  0  0
  183.4200  176.0010  138.1100 O   0  0  0  0  0  0  0  0  0  0  0  0
  181.2780  175.5400  137.3460 O   0  0  0  0  0  0  0  0  0  0  0  0
  182.8710  173.7970  137.0820 C   0  0  0  0  0  1  0  0  0  0  0  0
  182.4670  175.1580  137.5230 C   0  0  0  0  0  0  0  0  0  0  0  0
  181.5310  179.2520  142.9420 C   0  0  1  0  0  3  0  0  0  0  0  0
  181.0090  179.9920  141.8770 O   0  0  0  0  0  1  0  0  0  0  0  0
  179.3990  178.2290  142.9690 O   0  0  0  0  0  0  0  0  0  0  0  0
  180.4100  178.5000  143.5970 C   0  0  0  0  0  3  0  0  0  0  0  0
  189.2370  177.3760  141.0290 C   0  0  0  0  0  2  0  0  0  0  0  0
  188.3330  178.9510  139.4750 O   0  0  0  0  0  1  0  0  0  0  0  0
  189.4140  178.0910  139.6950 C   0  0  2  0  0  3  0  0  0  0  0  0
  189.5540  177.1090  138.5250 C   0  0  1  0  0  3  0  0  0  0  0  0
  189.1380  177.1820  136.0060 C   0  0  0  0  0  2  0  0  0  0  0  0
  187.3030  176.5070  137.5540 C   0  0  0  0  0  3  0  0  0  0  0  0
  187.3340  175.2360  137.1320 C   0  0  0  0  0  3  0  0  0  0  0  0
  189.2150  175.7090  135.5410 C   0  0  1  0  0  3  0  0  0  0  0  0
  188.5250  177.3860  137.4070 C   0  0  1  0  0  3  0  0  0  0  0  0
  190.5290  175.3640  135.2790 F   0  0  0  0  0  0  0  0  0  0  0  0
  188.5960  174.6980  136.5220 C   0  0  2  0  0  3  0  0  0  0  0  0
  188.3290  173.5010  135.8780 F   0  0  0  0  0  0  0  0  0  0  0  0
  190.9190  177.1340  137.9970 N   0  0  0  0  0  2  0  0  0  0  0  0
  191.6360  176.0440  138.6390 C   0  0  0  0  0  2  0  0  0  0  0  0
  193.1160  176.1430  138.3230 C   0  0  0  0  0  2  0  0  0  0  0  0
  193.5370  174.9750  137.4460 C   0  0  0  0  0  2  0  0  0  0  0  0
  194.9890  174.8690  137.4100 N   0  0  0  0  0  2  0  0  0  0  0  0
  195.0920  172.9640  138.7630 O   0  0  0  0  0  0  0  0  0  0  0  0
  195.7060  173.8430  138.1020 C   0  0  0  0  0  0  0  0  0  0  0  0
  197.1910  173.7990  138.0290 C   0  0  0  0  0  2  0  0  0  0  0  0
  197.7750  175.0990  138.5520 C   0  0  0  0  0  2  0  0  0  0  0  0
  196.7610  175.8940  140.6200 N   0  0  0  0  0  1  0  0  0  0  0  0
  197.8300  175.0880  140.0680 C   0  0  0  0  0  2  0  0  0  0  0  0
  1  5  1  0  0  0  0
  1  2  1  0  0  0  0
  3  1  2  0  0  0  0
  5 10  1  0  0  0  0
  7  8  2  0  0  0  0
  8  6  1  0  0  0  0
  9  7  1  0  0  0  0
  9  5  2  0  0  0  0
 10  6  1  0  0  0  0
 10  4  2  0  0  0  0
 11 22  1  1  0  0  0
 11  7  1  0  0  0  0
 12 16  1  0  0  0  0
 13 14  1  0  0  0  0
 14 16  1  0  0  0  0
 15 18  1  6  0  0  0
 15 12  1  0  0  0  0
 16 11  1  1  0  0  0
 17 15  1  0  0  0  0
 17 13  2  0  0  0  0
 19 21  2  0  0  0  0
 20 21  1  0  0  0  0
 21 18  1  0  0  0  0
 22 23  1  6  0  0  0
 22 25  1  0  0  0  0
 24 25  2  0  0  0  0
 26  3  1  0  0  0  0
 28 27  1  6  0  0  0
 28 26  1  0  0  0  0
 29 38  1  6  0  0  0
 29 28  1  0  0  0  0
 30 34  1  0  0  0  0
 32 31  2  0  0  0  0
 33 35  1  1  0  0  0
 33 30  1  0  0  0  0
 33 36  1  0  0  0  0
 34 31  1  0  0  0  0
 34 29  1  1  0  0  0
 36 37  1  6  0  0  0
 36 32  1  0  0  0  0
 38 39  1  0  0  0  0
 40 39  1  0  0  0  0
 41 40  1  0  0  0  0
 42 41  1  0  0  0  0
 42 44  1  0  0  0  0
 44 43  2  0  0  0  0
 45 44  1  0  0  0  0
 45 46  1  0  0  0  0
 46 48  1  0  0  0  0
 48 47  1  0  0  0  0
M  END
>  <MODEL>
4

>  <REMARK>
 VINA RESULT:      -7.2      3.309      5.380
  Name = 
  19 active torsions:
  status: ('A' for Active; 'I' for Inactive)
    1  A    between atoms: C_3  and  C_12
    2  A    between atoms: C_5  and  C_29
    3  A    between atoms: C_5  and  C_33
    4  A    between atoms: C_5  and  C_34
    5  A    between atoms: N_6  and  C_7
    6  A    between atoms: N_6  and  C_9
    7  A    between atoms: C_7  and  C_40
    8  A    between atoms: C_9  and  C_22
    9  A    between atoms: C_9  and  C_27
   10  A    between atoms: C_13  and  C_32
   11  A    between atoms: C_13  and  C_47
   12  A    between atoms: N_16  and  C_23
   13  A    between atoms: O_19  and  C_28
   14  A    between atoms: O_19  and  C_31
   15  A    between atoms: C_23  and  C_40
   16  A    between atoms: C_27  and  C_44
   17  A    between atoms: C_34  and  C_35
   18  A    between atoms: C_39  and  C_47
   19  A    between atoms: C_41  and  C_44
                            x       y       z     vdW  Elec       q    Type
                         _______ _______ _______ _____ _____    ______ ____

>  <TORSDO>
F 19

$$$$
=
 OpenBabel11062412023D

 48 50  0  0  1  0  0  0  0  0999 V2000
  186.5530  178.0850  142.7160 C   0  0  0  0  0  0  0  0  0  0  0  0
  187.3050  176.9600  143.3550 C   0  0  0  0  0  1  0  0  0  0  0  0
  187.1300  178.8160  141.7510 C   0  0  0  0  0  3  0  0  0  0  0  0
  185.7120  178.7000  145.4480 O   0  0  0  0  0  0  0  0  0  0  0  0
  185.1640  178.3840  143.1450 C   0  0  0  0  0  0  0  0  0  0  0  0
  183.4920  179.3420  144.8800 C   0  0  0  0  0  2  0  0  0  0  0  0
  182.7570  178.5160  142.6420 C   0  0  0  0  0  0  0  0  0  0  0  0
  182.4470  178.9920  143.8570 C   0  0  0  0  0  3  0  0  0  0  0  0
  184.1570  178.2510  142.2720 C   0  0  0  0  0  3  0  0  0  0  0  0
  184.8510  178.8000  144.5350 C   0  0  0  0  0  0  0  0  0  0  0  0
  181.6820  178.2320  141.6240 C   0  0  2  0  0  3  0  0  0  0  0  0
  180.9280  180.1920  140.2080 C   0  0  0  0  0  2  0  0  0  0  0  0
  181.8520  178.9450  137.7900 C   0  0  0  0  0  3  0  0  0  0  0  0
  181.6950  178.1460  139.0590 C   0  0  0  0  0  2  0  0  0  0  0  0
  181.2750  181.0580  138.9950 C   0  0  1  0  0  3  0  0  0  0  0  0
  181.9000  179.0160  140.3070 C   0  0  2  0  0  3  0  0  0  0  0  0
  181.6140  180.2650  137.7510 C   0  0  0  0  0  3  0  0  0  0  0  0
  180.2600  182.0300  138.7400 O   0  0  0  0  0  0  0  0  0  0  0  0
  180.7850  183.5570  137.0740 O   0  0  0  0  0  0  0  0  0  0  0  0
  178.9310  182.1380  136.6350 C   0  0  0  0  0  1  0  0  0  0  0  0
  180.0430  182.6270  137.4910 C   0  0  0  0  0  0  0  0  0  0  0  0
  180.2800  178.4710  142.2210 C   0  0  1  0  0  3  0  0  0  0  0  0
  179.3610  177.5440  141.7230 O   0  0  0  0  0  1  0  0  0  0  0  0
  179.3740  177.8470  144.3140 O   0  0  0  0  0  0  0  0  0  0  0  0
  180.3030  178.3660  143.7170 C   0  0  0  0  0  3  0  0  0  0  0  0
  188.5250  178.5950  141.2640 C   0  0  0  0  0  2  0  0  0  0  0  0
  187.1810  178.3020  139.3090 O   0  0  0  0  0  1  0  0  0  0  0  0
  188.5050  178.3280  139.7640 C   0  0  2  0  0  3  0  0  0  0  0  0
  189.2140  177.0190  139.3980 C   0  0  1  0  0  3  0  0  0  0  0  0
  190.4220  175.8050  137.5020 C   0  0  0  0  0  2  0  0  0  0  0  0
  189.4650  178.0770  137.1200 C   0  0  0  0  0  3  0  0  0  0  0  0
  188.5100  177.6020  136.3090 C   0  0  0  0  0  3  0  0  0  0  0  0
  189.2980  175.2390  136.6040 C   0  0  1  0  0  3  0  0  0  0  0  0
  190.1080  177.1710  138.1470 C   0  0  1  0  0  3  0  0  0  0  0  0
  188.8850  174.0080  137.0820 F   0  0  0  0  0  0  0  0  0  0  0  0
  188.0830  176.1690  136.4410 C   0  0  2  0  0  3  0  0  0  0  0  0
  187.3370  175.8020  135.3330 F   0  0  0  0  0  0  0  0  0  0  0  0
  189.9890  176.5220  140.5360 N   0  0  0  0  0  2  0  0  0  0  0  0
  191.2330  177.2760  140.5570 C   0  0  0  0  0  2  0  0  0  0  0  0
  191.6720  177.5080  141.9900 C   0  0  0  0  0  2  0  0  0  0  0  0
  191.1660  176.3780  142.8740 C   0  0  0  0  0  2  0  0  0  0  0  0
  190.6740  176.9110  144.1370 N   0  0  0  0  0  2  0  0  0  0  0  0
  192.0650  175.5900  145.4760 O   0  0  0  0  0  0  0  0  0  0  0  0
  191.1600  176.4620  145.4060 C   0  0  0  0  0  0  0  0  0  0  0  0
  190.6070  177.0440  146.6580 C   0  0  0  0  0  2  0  0  0  0  0  0
  189.1310  177.3550  146.4780 C   0  0  0  0  0  2  0  0  0  0  0  0
  188.2650  178.4070  148.4980 N   0  0  0  0  0  1  0  0  0  0  0  0
  188.3810  177.1540  147.7820 C   0  0  0  0  0  2  0  0  0  0  0  0
  1  5  1  0  0  0  0
  1  2  1  0  0  0  0
  3  1  2  0  0  0  0
  5 10  1  0  0  0  0
  7  8  2  0  0  0  0
  8  6  1  0  0  0  0
  9  7  1  0  0  0  0
  9  5  2  0  0  0  0
 10  6  1  0  0  0  0
 10  4  2  0  0  0  0
 11 22  1  1  0  0  0
 11  7  1  0  0  0  0
 12 16  1  0  0  0  0
 13 14  1  0  0  0  0
 14 16  1  0  0  0  0
 15 18  1  6  0  0  0
 15 12  1  0  0  0  0
 16 11  1  1  0  0  0
 17 13  2  0  0  0  0
 17 15  1  0  0  0  0
 19 21  2  0  0  0  0
 20 21  1  0  0  0  0
 21 18  1  0  0  0  0
 22 23  1  6  0  0  0
 22 25  1  0  0  0  0
 25 24  2  0  0  0  0
 26  3  1  0  0  0  0
 28 27  1  1  0  0  0
 28 26  1  0  0  0  0
 29 28  1  0  0  0  0
 29 38  1  1  0  0  0
 30 34  1  0  0  0  0
 31 34  1  0  0  0  0
 32 36  1  0  0  0  0
 32 31  2  0  0  0  0
 33 35  1  1  0  0  0
 33 30  1  0  0  0  0
 34 29  1  1  0  0  0
 36 37  1  6  0  0  0
 36 33  1  0  0  0  0
 38 39  1  0  0  0  0
 39 40  1  0  0  0  0
 40 41  1  0  0  0  0
 41 42  1  0  0  0  0
 42 44  1  0  0  0  0
 44 43  2  0  0  0  0
 44 45  1  0  0  0  0
 46 45  1  0  0  0  0
 46 48  1  0  0  0  0
 48 47  1  0  0  0  0
M  END
>  <MODEL>
5

>  <REMARK>
 VINA RESULT:      -7.1      1.857      3.757
  Name = 
  19 active torsions:
  status: ('A' for Active; 'I' for Inactive)
    1  A    between atoms: C_3  and  C_12
    2  A    between atoms: C_5  and  C_29
    3  A    between atoms: C_5  and  C_33
    4  A    between atoms: C_5  and  C_34
    5  A    between atoms: N_6  and  C_7
    6  A    between atoms: N_6  and  C_9
    7  A    between atoms: C_7  and  C_40
    8  A    between atoms: C_9  and  C_22
    9  A    between atoms: C_9  and  C_27
   10  A    between atoms: C_13  and  C_32
   11  A    between atoms: C_13  and  C_47
   12  A    between atoms: N_16  and  C_23
   13  A    between atoms: O_19  and  C_28
   14  A    between atoms: O_19  and  C_31
   15  A    between atoms: C_23  and  C_40
   16  A    between atoms: C_27  and  C_44
   17  A    between atoms: C_34  and  C_35
   18  A    between atoms: C_39  and  C_47
   19  A    between atoms: C_41  and  C_44
                            x       y       z     vdW  Elec       q    Type
                         _______ _______ _______ _____ _____    ______ ____

>  <TORSDO>
F 19

$$$$
=
 OpenBabel11062412023D

 48 50  0  0  1  0  0  0  0  0999 V2000
  186.1860  175.3560  136.1990 C   0  0  0  0  0  0  0  0  0  0  0  0
  186.6160  174.1500  135.4230 C   0  0  0  0  0  1  0  0  0  0  0  0
  184.8970  175.5150  136.5330 C   0  0  0  0  0  3  0  0  0  0  0  0
  186.6130  177.9440  134.9090 O   0  0  0  0  0  0  0  0  0  0  0  0
  187.1910  176.3690  136.6080 C   0  0  0  0  0  0  0  0  0  0  0  0
  188.1000  178.7960  136.5620 C   0  0  0  0  0  2  0  0  0  0  0  0
  189.1150  177.0260  137.9970 C   0  0  0  0  0  0  0  0  0  0  0  0
  189.1400  178.2760  137.5140 C   0  0  0  0  0  3  0  0  0  0  0  0
  188.0840  176.0700  137.5610 C   0  0  0  0  0  3  0  0  0  0  0  0
  187.2560  177.7050  135.9660 C   0  0  0  0  0  0  0  0  0  0  0  0
  190.1450  176.5600  138.9960 C   0  0  2  0  0  3  0  0  0  0  0  0
  190.4620  176.4420  141.5060 C   0  0  0  0  0  2  0  0  0  0  0  0
  188.5700  178.5580  141.9570 C   0  0  0  0  0  3  0  0  0  0  0  0
  188.6440  177.8600  140.6220 C   0  0  0  0  0  2  0  0  0  0  0  0
  190.5440  177.2700  142.7910 C   0  0  1  0  0  3  0  0  0  0  0  0
  190.0570  177.3360  140.3330 C   0  0  2  0  0  3  0  0  0  0  0  0
  189.4070  178.2540  142.9620 C   0  0  0  0  0  3  0  0  0  0  0  0
  190.6970  176.4350  143.9400 O   0  0  0  0  0  0  0  0  0  0  0  0
  191.7580  177.1230  145.8850 O   0  0  0  0  0  0  0  0  0  0  0  0
  189.3830  177.1820  145.9220 C   0  0  0  0  0  1  0  0  0  0  0  0
  190.6840  176.9080  145.2580 C   0  0  0  0  0  0  0  0  0  0  0  0
  191.5610  176.6030  138.3870 C   0  0  1  0  0  3  0  0  0  0  0  0
  192.4720  177.1690  139.2830 O   0  0  0  0  0  1  0  0  0  0  0  0
  192.4040  174.9790  136.8880 O   0  0  0  0  0  0  0  0  0  0  0  0
  192.0370  175.2270  138.0260 C   0  0  0  0  0  3  0  0  0  0  0  0
  183.8170  174.5550  136.1550 C   0  0  0  0  0  2  0  0  0  0  0  0
  181.7570  173.6210  136.9270 O   0  0  0  0  0  1  0  0  0  0  0  0
  182.6740  174.6530  137.1580 C   0  0  2  0  0  3  0  0  0  0  0  0
  181.9650  176.0110  137.0990 C   0  0  1  0  0  3  0  0  0  0  0  0
  179.6550  176.8440  136.3940 C   0  0  0  0  0  2  0  0  0  0  0  0
  181.4980  176.7120  134.7190 C   0  0  0  0  0  3  0  0  0  0  0  0
  181.5910  178.0460  134.6290 C   0  0  0  0  0  3  0  0  0  0  0  0
  179.7820  178.3840  136.3330 C   0  0  1  0  0  3  0  0  0  0  0  0
  180.9200  176.0730  135.9630 C   0  0  1  0  0  3  0  0  0  0  0  0
  179.5570  178.9260  137.5860 F   0  0  0  0  0  0  0  0  0  0  0  0
  181.1240  178.8910  135.7780 C   0  0  2  0  0  3  0  0  0  0  0  0
  181.0120  180.2110  135.3710 F   0  0  0  0  0  0  0  0  0  0  0  0
  181.3520  176.3240  138.3900 N   0  0  0  0  0  2  0  0  0  0  0  0
  182.4210  176.7920  139.2590 C   0  0  0  0  0  2  0  0  0  0  0  0
  182.9680  178.1090  138.7410 C   0  0  0  0  0  2  0  0  0  0  0  0
  184.1550  178.5420  139.5870 C   0  0  0  0  0  2  0  0  0  0  0  0
  183.8940  178.2760  140.9950 N   0  0  0  0  0  2  0  0  0  0  0  0
  185.5280  179.7500  141.7910 O   0  0  0  0  0  0  0  0  0  0  0  0
  184.6270  178.9080  142.0490 C   0  0  0  0  0  0  0  0  0  0  0  0
  184.3130  178.5840  143.4660 C   0  0  0  0  0  2  0  0  0  0  0  0
  185.5590  178.0790  144.1720 C   0  0  0  0  0  2  0  0  0  0  0  0
  184.3240  178.8990  146.1060 N   0  0  0  0  0  1  0  0  0  0  0  0
  185.6480  178.6530  145.5740 C   0  0  0  0  0  2  0  0  0  0  0  0
  1  3  2  0  0  0  0
  1  5  1  0  0  0  0
  2  1  1  0  0  0  0
  4 10  2  0  0  0  0
  5  9  2  0  0  0  0
  6  8  1  0  0  0  0
  7 11  1  0  0  0  0
  8  7  2  0  0  0  0
  9  7  1  0  0  0  0
 10  6  1  0  0  0  0
 10  5  1  0  0  0  0
 11 22  1  6  0  0  0
 12 15  1  0  0  0  0
 13 17  2  0  0  0  0
 14 13  1  0  0  0  0
 15 17  1  0  0  0  0
 15 18  1  1  0  0  0
 16 11  1  6  0  0  0
 16 14  1  0  0  0  0
 16 12  1  0  0  0  0
 18 21  1  0  0  0  0
 21 19  2  0  0  0  0
 21 20  1  0  0  0  0
 22 23  1  1  0  0  0
 24 25  2  0  0  0  0
 25 22  1  0  0  0  0
 26  3  1  0  0  0  0
 26 28  1  0  0  0  0
 28 27  1  6  0  0  0
 29 28  1  0  0  0  0
 29 38  1  1  0  0  0
 31 34  1  0  0  0  0
 32 31  2  0  0  0  0
 32 36  1  0  0  0  0
 33 30  1  0  0  0  0
 33 35  1  1  0  0  0
 34 30  1  0  0  0  0
 34 29  1  1  0  0  0
 36 37  1  6  0  0  0
 36 33  1  0  0  0  0
 38 39  1  0  0  0  0
 40 39  1  0  0  0  0
 40 41  1  0  0  0  0
 41 42  1  0  0  0  0
 42 44  1  0  0  0  0
 43 44  2  0  0  0  0
 44 45  1  0  0  0  0
 45 46  1  0  0  0  0
 46 48  1  0  0  0  0
 48 47  1  0  0  0  0
M  END
>  <MODEL>
6

>  <REMARK>
 VINA RESULT:      -7.0      3.293      8.898
  Name = 
  19 active torsions:
  status: ('A' for Active; 'I' for Inactive)
    1  A    between atoms: C_3  and  C_12
    2  A    between atoms: C_5  and  C_29
    3  A    between atoms: C_5  and  C_33
    4  A    between atoms: C_5  and  C_34
    5  A    between atoms: N_6  and  C_7
    6  A    between atoms: N_6  and  C_9
    7  A    between atoms: C_7  and  C_40
    8  A    between atoms: C_9  and  C_22
    9  A    between atoms: C_9  and  C_27
   10  A    between atoms: C_13  and  C_32
   11  A    between atoms: C_13  and  C_47
   12  A    between atoms: N_16  and  C_23
   13  A    between atoms: O_19  and  C_28
   14  A    between atoms: O_19  and  C_31
   15  A    between atoms: C_23  and  C_40
   16  A    between atoms: C_27  and  C_44
   17  A    between atoms: C_34  and  C_35
   18  A    between atoms: C_39  and  C_47
   19  A    between atoms: C_41  and  C_44
                            x       y       z     vdW  Elec       q    Type
                         _______ _______ _______ _____ _____    ______ ____

>  <TORSDO>
F 19

$$$$
=
 OpenBabel11062412023D

 48 50  0  0  1  0  0  0  0  0999 V2000
  184.2830  178.3550  141.2990 C   0  0  0  0  0  0  0  0  0  0  0  0
  184.9390  179.3070  140.3480 C   0  0  0  0  0  1  0  0  0  0  0  0
  183.3510  177.4980  140.8560 C   0  0  0  0  0  3  0  0  0  0  0  0
  182.8780  179.7530  143.4470 O   0  0  0  0  0  0  0  0  0  0  0  0
  184.6740  178.3520  142.7300 C   0  0  0  0  0  0  0  0  0  0  0  0
  184.1100  178.7630  145.2270 C   0  0  0  0  0  2  0  0  0  0  0  0
  186.2790  177.7630  144.5030 C   0  0  0  0  0  0  0  0  0  0  0  0
  185.4980  178.2430  145.4810 C   0  0  0  0  0  3  0  0  0  0  0  0
  185.8290  177.7830  143.1010 C   0  0  0  0  0  3  0  0  0  0  0  0
  183.8320  178.9960  143.7690 C   0  0  0  0  0  0  0  0  0  0  0  0
  187.6430  177.1980  144.8080 C   0  0  2  0  0  3  0  0  0  0  0  0
  189.5820  177.1270  146.4370 C   0  0  0  0  0  2  0  0  0  0  0  0
  187.9830  178.2160  148.5620 C   0  0  0  0  0  3  0  0  0  0  0  0
  187.3380  177.6700  147.3130 C   0  0  0  0  0  2  0  0  0  0  0  0
  190.2620  177.8580  147.5960 C   0  0  1  0  0  3  0  0  0  0  0  0
  188.2580  177.8080  146.0910 C   0  0  2  0  0  3  0  0  0  0  0  0
  189.3170  178.2570  148.7090 C   0  0  0  0  0  3  0  0  0  0  0  0
  191.3800  177.1230  148.0930 O   0  0  0  0  0  0  0  0  0  0  0  0
  192.7350  175.2460  147.9400 O   0  0  0  0  0  0  0  0  0  0  0  0
  191.9620  176.1390  145.8780 C   0  0  0  0  0  1  0  0  0  0  0  0
  192.0590  176.1400  147.3610 C   0  0  0  0  0  0  0  0  0  0  0  0
  188.5800  177.3320  143.5910 C   0  0  1  0  0  3  0  0  0  0  0  0
  189.6250  178.2200  143.8610 O   0  0  0  0  0  1  0  0  0  0  0  0
  190.2140  175.9480  142.5850 O   0  0  0  0  0  0  0  0  0  0  0  0
  189.1660  176.0040  143.2100 C   0  0  0  0  0  3  0  0  0  0  0  0
  182.8870  177.4380  139.4370 C   0  0  0  0  0  2  0  0  0  0  0  0
  181.0080  176.0510  139.9460 O   0  0  0  0  0  1  0  0  0  0  0  0
  181.3710  177.2890  139.4030 C   0  0  2  0  0  3  0  0  0  0  0  0
  180.8070  177.4280  137.9840 C   0  0  1  0  0  3  0  0  0  0  0  0
  179.5330  179.2500  139.2440 C   0  0  0  0  0  2  0  0  0  0  0  0
  180.1360  179.5790  136.8460 C   0  0  0  0  0  3  0  0  0  0  0  0
  181.0330  180.5300  137.1410 C   0  0  0  0  0  3  0  0  0  0  0  0
  180.5970  180.3130  139.6020 C   0  0  1  0  0  3  0  0  0  0  0  0
  179.7490  178.5510  137.8860 C   0  0  1  0  0  3  0  0  0  0  0  0
  181.2200  179.9760  140.7900 F   0  0  0  0  0  0  0  0  0  0  0  0
  181.6530  180.5520  138.5090 C   0  0  2  0  0  3  0  0  0  0  0  0
  182.2930  181.7630  138.7100 F   0  0  0  0  0  0  0  0  0  0  0  0
  181.8880  177.6450  137.0220 N   0  0  0  0  0  2  0  0  0  0  0  0
  181.8990  176.4900  136.1370 C   0  0  0  0  0  2  0  0  0  0  0  0
  183.3280  176.1240  135.7840 C   0  0  0  0  0  2  0  0  0  0  0  0
  184.2380  177.3210  136.0090 C   0  0  0  0  0  2  0  0  0  0  0  0
  185.5840  176.8740  136.3420 N   0  0  0  0  0  2  0  0  0  0  0  0
  186.3230  178.9680  137.0760 O   0  0  0  0  0  0  0  0  0  0  0  0
  186.5840  177.7550  136.8630 C   0  0  0  0  0  0  0  0  0  0  0  0
  187.9400  177.2330  137.1750 C   0  0  0  0  0  2  0  0  0  0  0  0
  188.1180  177.1160  138.6790 C   0  0  0  0  0  2  0  0  0  0  0  0
  188.7180  178.6350  140.4880 N   0  0  0  0  0  1  0  0  0  0  0  0
  189.1100  178.1500  139.1810 C   0  0  0  0  0  2  0  0  0  0  0  0
  1  5  1  0  0  0  0
  2  1  1  0  0  0  0
  3  1  2  0  0  0  0
  4 10  2  0  0  0  0
  5  9  2  0  0  0  0
  5 10  1  0  0  0  0
  6  8  1  0  0  0  0
  7 11  1  0  0  0  0
  7  8  2  0  0  0  0
  9  7  1  0  0  0  0
 10  6  1  0  0  0  0
 11 22  1  6  0  0  0
 12 15  1  0  0  0  0
 13 17  2  0  0  0  0
 14 13  1  0  0  0  0
 15 18  1  1  0  0  0
 15 17  1  0  0  0  0
 16 11  1  6  0  0  0
 16 12  1  0  0  0  0
 16 14  1  0  0  0  0
 20 21  1  0  0  0  0
 21 19  2  0  0  0  0
 21 18  1  0  0  0  0
 22 23  1  1  0  0  0
 24 25  2  0  0  0  0
 25 22  1  0  0  0  0
 26  3  1  0  0  0  0
 28 26  1  0  0  0  0
 28 27  1  6  0  0  0
 29 38  1  6  0  0  0
 29 28  1  0  0  0  0
 30 33  1  0  0  0  0
 31 32  2  0  0  0  0
 31 34  1  0  0  0  0
 32 36  1  0  0  0  0
 33 35  1  1  0  0  0
 34 29  1  1  0  0  0
 34 30  1  0  0  0  0
 36 37  1  1  0  0  0
 36 33  1  0  0  0  0
 39 38  1  0  0  0  0
 40 41  1  0  0  0  0
 40 39  1  0  0  0  0
 41 42  1  0  0  0  0
 42 44  1  0  0  0  0
 44 43  2  0  0  0  0
 44 45  1  0  0  0  0
 45 46  1  0  0  0  0
 46 48  1  0  0  0  0
 48 47  1  0  0  0  0
M  END
>  <MODEL>
7

>  <REMARK>
 VINA RESULT:      -7.0      3.246      9.259
  Name = 
  19 active torsions:
  status: ('A' for Active; 'I' for Inactive)
    1  A    between atoms: C_3  and  C_12
    2  A    between atoms: C_5  and  C_29
    3  A    between atoms: C_5  and  C_33
    4  A    between atoms: C_5  and  C_34
    5  A    between atoms: N_6  and  C_7
    6  A    between atoms: N_6  and  C_9
    7  A    between atoms: C_7  and  C_40
    8  A    between atoms: C_9  and  C_22
    9  A    between atoms: C_9  and  C_27
   10  A    between atoms: C_13  and  C_32
   11  A    between atoms: C_13  and  C_47
   12  A    between atoms: N_16  and  C_23
   13  A    between atoms: O_19  and  C_28
   14  A    between atoms: O_19  and  C_31
   15  A    between atoms: C_23  and  C_40
   16  A    between atoms: C_27  and  C_44
   17  A    between atoms: C_34  and  C_35
   18  A    between atoms: C_39  and  C_47
   19  A    between atoms: C_41  and  C_44
                            x       y       z     vdW  Elec       q    Type
                         _______ _______ _______ _____ _____    ______ ____

>  <TORSDO>
F 19

$$$$
=
 OpenBabel11062412023D

 48 50  0  0  1  0  0  0  0  0999 V2000
  183.5100  178.5940  141.4970 C   0  0  0  0  0  0  0  0  0  0  0  0
  182.0230  178.7660  141.4950 C   0  0  0  0  0  1  0  0  0  0  0  0
  184.1780  178.5030  140.3370 C   0  0  0  0  0  3  0  0  0  0  0  0
  182.6260  179.7840  144.0170 O   0  0  0  0  0  0  0  0  0  0  0  0
  184.2460  178.5350  142.7840 C   0  0  0  0  0  0  0  0  0  0  0  0
  184.3060  178.7720  145.3660 C   0  0  0  0  0  2  0  0  0  0  0  0
  186.2670  177.9450  144.0620 C   0  0  0  0  0  0  0  0  0  0  0  0
  185.7340  178.3220  145.2330 C   0  0  0  0  0  3  0  0  0  0  0  0
  185.4800  178.0150  142.8200 C   0  0  0  0  0  3  0  0  0  0  0  0
  183.6630  179.0680  144.0400 C   0  0  0  0  0  0  0  0  0  0  0  0
  187.6870  177.4460  143.9820 C   0  0  2  0  0  3  0  0  0  0  0  0
  189.9050  177.1800  145.1770 C   0  0  0  0  0  2  0  0  0  0  0  0
  188.6690  177.4160  147.7600 C   0  0  0  0  0  3  0  0  0  0  0  0
  187.8390  177.1590  146.5280 C   0  0  0  0  0  2  0  0  0  0  0  0
  190.7380  177.6430  146.3740 C   0  0  1  0  0  3  0  0  0  0  0  0
  188.4900  177.7510  145.2700 C   0  0  2  0  0  3  0  0  0  0  0  0
  189.9990  177.5900  147.6940 C   0  0  0  0  0  3  0  0  0  0  0  0
  191.9860  176.9520  146.4400 O   0  0  0  0  0  0  0  0  0  0  0  0
  192.0930  175.0960  147.8290 O   0  0  0  0  0  0  0  0  0  0  0  0
  192.2340  174.6580  145.4980 C   0  0  0  0  0  1  0  0  0  0  0  0
  192.1080  175.5740  146.6610 C   0  0  0  0  0  0  0  0  0  0  0  0
  188.3890  177.9790  142.7170 C   0  0  1  0  0  3  0  0  0  0  0  0
  189.4930  178.7660  143.0530 O   0  0  0  0  0  1  0  0  0  0  0  0
  189.9390  176.3310  142.0280 O   0  0  0  0  0  0  0  0  0  0  0  0
  188.8520  176.8540  141.8390 C   0  0  0  0  0  3  0  0  0  0  0  0
  183.5200  178.5400  138.9970 C   0  0  0  0  0  2  0  0  0  0  0  0
  183.2420  176.2360  139.5680 O   0  0  0  0  0  1  0  0  0  0  0  0
  183.3260  177.1180  138.4850 C   0  0  2  0  0  3  0  0  0  0  0  0
  184.4500  176.6840  137.5370 C   0  0  1  0  0  3  0  0  0  0  0  0
  185.0090  175.1800  135.5480 C   0  0  0  0  0  2  0  0  0  0  0  0
  182.7570  175.0560  136.6120 C   0  0  0  0  0  3  0  0  0  0  0  0
  182.9980  173.8390  137.1170 C   0  0  0  0  0  3  0  0  0  0  0  0
  185.3170  173.7960  136.1630 C   0  0  1  0  0  3  0  0  0  0  0  0
  183.9060  175.9790  136.2740 C   0  0  1  0  0  3  0  0  0  0  0  0
  186.6460  173.7310  136.5410 F   0  0  0  0  0  0  0  0  0  0  0  0
  184.4180  173.4110  137.3510 C   0  0  2  0  0  3  0  0  0  0  0  0
  184.4620  172.0440  137.5700 F   0  0  0  0  0  0  0  0  0  0  0  0
  185.2850  177.8300  137.1760 N   0  0  0  0  0  2  0  0  0  0  0  0
  186.6580  177.4610  137.4850 C   0  0  0  0  0  2  0  0  0  0  0  0
  187.6080  178.5220  136.9630 C   0  0  0  0  0  2  0  0  0  0  0  0
  188.7550  177.8640  136.2120 C   0  0  0  0  0  2  0  0  0  0  0  0
  189.8020  177.4660  137.1420 N   0  0  0  0  0  2  0  0  0  0  0  0
  189.5710  175.1720  136.7440 O   0  0  0  0  0  0  0  0  0  0  0  0
  190.1530  176.0970  137.3700 C   0  0  0  0  0  0  0  0  0  0  0  0
  191.2290  175.7600  138.3390 C   0  0  0  0  0  2  0  0  0  0  0  0
  192.2670  174.8720  137.6750 C   0  0  0  0  0  2  0  0  0  0  0  0
  193.5840  176.7490  138.5010 N   0  0  0  0  0  1  0  0  0  0  0  0
  193.6470  175.4960  137.7770 C   0  0  0  0  0  2  0  0  0  0  0  0
  1  5  1  0  0  0  0
  2  1  1  0  0  0  0
  3  1  2  0  0  0  0
  4 10  2  0  0  0  0
  5  9  2  0  0  0  0
  5 10  1  0  0  0  0
  7  8  2  0  0  0  0
  8  6  1  0  0  0  0
  9  7  1  0  0  0  0
 10  6  1  0  0  0  0
 11 22  1  6  0  0  0
 11  7  1  0  0  0  0
 12 16  1  0  0  0  0
 12 15  1  0  0  0  0
 14 13  1  0  0  0  0
 15 18  1  1  0  0  0
 15 17  1  0  0  0  0
 16 11  1  6  0  0  0
 16 14  1  0  0  0  0
 17 13  2  0  0  0  0
 18 21  1  0  0  0  0
 20 21  1  0  0  0  0
 21 19  2  0  0  0  0
 22 23  1  1  0  0  0
 25 24  2  0  0  0  0
 25 22  1  0  0  0  0
 26  3  1  0  0  0  0
 28 26  1  0  0  0  0
 28 27  1  1  0  0  0
 29 38  1  6  0  0  0
 29 28  1  0  0  0  0
 30 33  1  0  0  0  0
 30 34  1  0  0  0  0
 31 32  2  0  0  0  0
 32 36  1  0  0  0  0
 33 35  1  1  0  0  0
 33 36  1  0  0  0  0
 34 31  1  0  0  0  0
 34 29  1  1  0  0  0
 36 37  1  6  0  0  0
 38 39  1  0  0  0  0
 40 39  1  0  0  0  0
 41 40  1  0  0  0  0
 41 42  1  0  0  0  0
 42 44  1  0  0  0  0
 43 44  2  0  0  0  0
 44 45  1  0  0  0  0
 46 48  1  0  0  0  0
 46 45  1  0  0  0  0
 48 47  1  0  0  0  0
M  END
>  <MODEL>
8

>  <REMARK>
 VINA RESULT:      -7.0      2.926      8.116
  Name = 
  19 active torsions:
  status: ('A' for Active; 'I' for Inactive)
    1  A    between atoms: C_3  and  C_12
    2  A    between atoms: C_5  and  C_29
    3  A    between atoms: C_5  and  C_33
    4  A    between atoms: C_5  and  C_34
    5  A    between atoms: N_6  and  C_7
    6  A    between atoms: N_6  and  C_9
    7  A    between atoms: C_7  and  C_40
    8  A    between atoms: C_9  and  C_22
    9  A    between atoms: C_9  and  C_27
   10  A    between atoms: C_13  and  C_32
   11  A    between atoms: C_13  and  C_47
   12  A    between atoms: N_16  and  C_23
   13  A    between atoms: O_19  and  C_28
   14  A    between atoms: O_19  and  C_31
   15  A    between atoms: C_23  and  C_40
   16  A    between atoms: C_27  and  C_44
   17  A    between atoms: C_34  and  C_35
   18  A    between atoms: C_39  and  C_47
   19  A    between atoms: C_41  and  C_44
                            x       y       z     vdW  Elec       q    Type
                         _______ _______ _______ _____ _____    ______ ____

>  <TORSDO>
F 19

$$$$
=
 OpenBabel11062412023D

 48 50  0  0  1  0  0  0  0  0999 V2000
  185.0390  178.6370  141.8160 C   0  0  0  0  0  0  0  0  0  0  0  0
  185.5350  179.0020  140.4520 C   0  0  0  0  0  1  0  0  0  0  0  0
  185.9120  178.3330  142.7890 C   0  0  0  0  0  3  0  0  0  0  0  0
  183.8120  178.7790  144.4660 O   0  0  0  0  0  0  0  0  0  0  0  0
  183.5820  178.6220  142.0950 C   0  0  0  0  0  0  0  0  0  0  0  0
  181.5800  179.0530  143.6860 C   0  0  0  0  0  2  0  0  0  0  0  0
  181.2620  178.3560  141.3110 C   0  0  0  0  0  0  0  0  0  0  0  0
  180.7390  178.6290  142.5140 C   0  0  0  0  0  3  0  0  0  0  0  0
  182.7180  178.4000  141.0950 C   0  0  0  0  0  3  0  0  0  0  0  0
  183.0480  178.8170  143.4660 C   0  0  0  0  0  0  0  0  0  0  0  0
  180.3770  177.9900  140.1460 C   0  0  2  0  0  3  0  0  0  0  0  0
  181.6090  176.5420  138.4720 C   0  0  0  0  0  2  0  0  0  0  0  0
  179.6300  174.4660  138.6420 C   0  0  0  0  0  3  0  0  0  0  0  0
  179.3480  175.8460  139.1790 C   0  0  0  0  0  2  0  0  0  0  0  0
  181.9880  175.1040  138.1100 C   0  0  1  0  0  3  0  0  0  0  0  0
  180.6320  176.5460  139.6480 C   0  0  2  0  0  3  0  0  0  0  0  0
  180.8200  174.1430  138.1100 C   0  0  0  0  0  3  0  0  0  0  0  0
  182.7160  175.0500  136.8830 O   0  0  0  0  0  0  0  0  0  0  0  0
  184.6250  173.8840  137.5010 O   0  0  0  0  0  0  0  0  0  0  0  0
  183.8150  173.4610  135.3080 C   0  0  0  0  0  1  0  0  0  0  0  0
  183.7530  174.1440  136.6270 C   0  0  0  0  0  0  0  0  0  0  0  0
  180.4990  179.0290  139.0130 C   0  0  1  0  0  3  0  0  0  0  0  0
  179.4820  178.8580  138.0700 O   0  0  0  0  0  1  0  0  0  0  0  0
  180.7320  181.3760  138.8470 O   0  0  0  0  0  0  0  0  0  0  0  0
  180.4240  180.4280  139.5510 C   0  0  0  0  0  3  0  0  0  0  0  0
  187.3930  178.3110  142.5970 C   0  0  0  0  0  2  0  0  0  0  0  0
  187.1660  176.1420  143.5740 O   0  0  0  0  0  1  0  0  0  0  0  0
  188.0090  177.2570  143.5090 C   0  0  2  0  0  3  0  0  0  0  0  0
  188.2810  177.7960  144.9180 C   0  0  1  0  0  3  0  0  0  0  0  0
  188.2880  177.0640  147.3660 C   0  0  0  0  0  2  0  0  0  0  0  0
  186.1250  177.4060  146.1720 C   0  0  0  0  0  3  0  0  0  0  0  0
  185.8320  178.4980  146.8920 C   0  0  0  0  0  3  0  0  0  0  0  0
  187.9840  178.3470  148.1730 C   0  0  1  0  0  3  0  0  0  0  0  0
  187.5630  176.9670  146.0070 C   0  0  1  0  0  3  0  0  0  0  0  0
  189.1560  179.0430  148.4130 F   0  0  0  0  0  0  0  0  0  0  0  0
  186.9490  179.2800  147.5200 C   0  0  2  0  0  3  0  0  0  0  0  0
  186.4310  180.1600  148.4570 F   0  0  0  0  0  0  0  0  0  0  0  0
  189.7200  177.8580  145.1730 N   0  0  0  0  0  2  0  0  0  0  0  0
  190.3470  178.2950  143.9350 C   0  0  0  0  0  2  0  0  0  0  0  0
  191.3770  177.2750  143.4890 C   0  0  0  0  0  2  0  0  0  0  0  0
  191.7240  177.4970  142.0250 C   0  0  0  0  0  2  0  0  0  0  0  0
  190.5120  177.7230  141.2500 N   0  0  0  0  0  2  0  0  0  0  0  0
  190.9260  176.0070  139.7140 O   0  0  0  0  0  0  0  0  0  0  0  0
  190.1780  176.9470  140.0950 C   0  0  0  0  0  0  0  0  0  0  0  0
  188.9270  177.2360  139.3450 C   0  0  0  0  0  2  0  0  0  0  0  0
  189.0540  178.5630  138.6170 C   0  0  0  0  0  2  0  0  0  0  0  0
  187.5660  179.3820  136.8690 N   0  0  0  0  0  1  0  0  0  0  0  0
  188.6080  178.4240  137.1730 C   0  0  0  0  0  2  0  0  0  0  0  0
  1  5  1  0  0  0  0
  1  3  2  0  0  0  0
  2  1  1  0  0  0  0
  5 10  1  0  0  0  0
  7  8  2  0  0  0  0
  8  6  1  0  0  0  0
  9  7  1  0  0  0  0
  9  5  2  0  0  0  0
 10  6  1  0  0  0  0
 10  4  2  0  0  0  0
 11 22  1  6  0  0  0
 11  7  1  0  0  0  0
 12 16  1  0  0  0  0
 13 14  1  0  0  0  0
 14 16  1  0  0  0  0
 15 18  1  6  0  0  0
 15 17  1  0  0  0  0
 15 12  1  0  0  0  0
 16 11  1  6  0  0  0
 17 13  2  0  0  0  0
 20 21  1  0  0  0  0
 21 18  1  0  0  0  0
 21 19  2  0  0  0  0
 22 23  1  6  0  0  0
 22 25  1  0  0  0  0
 24 25  2  0  0  0  0
 26  3  1  0  0  0  0
 26 28  1  0  0  0  0
 28 27  1  1  0  0  0
 28 29  1  0  0  0  0
 29 38  1  1  0  0  0
 30 33  1  0  0  0  0
 31 32  2  0  0  0  0
 32 36  1  0  0  0  0
 33 35  1  6  0  0  0
 34 29  1  6  0  0  0
 34 31  1  0  0  0  0
 34 30  1  0  0  0  0
 36 33  1  0  0  0  0
 36 37  1  1  0  0  0
 39 38  1  0  0  0  0
 40 39  1  0  0  0  0
 41 40  1  0  0  0  0
 42 41  1  0  0  0  0
 43 44  2  0  0  0  0
 44 42  1  0  0  0  0
 45 44  1  0  0  0  0
 46 45  1  0  0  0  0
 47 48  1  0  0  0  0
 48 46  1  0  0  0  0
M  END
>  <MODEL>
9

>  <REMARK>
 VINA RESULT:      -6.9      3.080      5.682
  Name = 
  19 active torsions:
  status: ('A' for Active; 'I' for Inactive)
    1  A    between atoms: C_3  and  C_12
    2  A    between atoms: C_5  and  C_29
    3  A    between atoms: C_5  and  C_33
    4  A    between atoms: C_5  and  C_34
    5  A    between atoms: N_6  and  C_7
    6  A    between atoms: N_6  and  C_9
    7  A    between atoms: C_7  and  C_40
    8  A    between atoms: C_9  and  C_22
    9  A    between atoms: C_9  and  C_27
   10  A    between atoms: C_13  and  C_32
   11  A    between atoms: C_13  and  C_47
   12  A    between atoms: N_16  and  C_23
   13  A    between atoms: O_19  and  C_28
   14  A    between atoms: O_19  and  C_31
   15  A    between atoms: C_23  and  C_40
   16  A    between atoms: C_27  and  C_44
   17  A    between atoms: C_34  and  C_35
   18  A    between atoms: C_39  and  C_47
   19  A    between atoms: C_41  and  C_44
                            x       y       z     vdW  Elec       q    Type
                         _______ _______ _______ _____ _____    ______ ____

>  <TORSDO>
F 19

$$$$
