=
 OpenBabel11062416193D

 29 33  0  0  1  0  0  0  0  0999 V2000
  193.1200  176.0570  134.5940 C   0  0  0  0  0  2  0  0  0  0  0  0
  189.8250  176.9380  139.7310 C   0  0  0  0  0  0  0  0  0  0  0  0
  194.3460  175.9370  135.8360 S   0  0  0  0  0  0  0  0  0  0  0  0
  194.9140  177.2830  136.1860 O   0  0  0  0  0  0  0  0  0  0  0  0
  195.4340  174.9750  135.4470 O   0  0  0  0  0  0  0  0  0  0  0  0
  191.8120  175.9880  135.3630 C   0  0  0  0  0  2  0  0  0  0  0  0
  191.1720  177.0280  139.5980 C   0  0  0  0  0  0  0  0  0  0  0  0
  191.9380  177.5800  140.5730 F   0  0  0  0  0  0  0  0  0  0  0  0
  188.9580  176.3390  138.6190 C   0  0  0  0  0  2  0  0  0  0  0  0
  191.8130  176.7120  138.2820 C   0  0  1  0  0  3  0  0  0  0  0  0
  191.9520  175.1070  136.5420 N   0  0  2  0  0  0  0  0  0  0  0  0
  193.2290  176.2050  138.3230 C   0  0  0  0  0  2  0  0  0  0  0  0
  191.1010  175.5730  137.6340 C   0  0  2  0  0  3  0  0  0  0  0  0
  189.6830  176.0080  137.3010 C   0  0  0  0  0  2  0  0  0  0  0  0
  193.3080  175.2730  137.1050 C   0  0  2  0  0  3  0  0  0  0  0  0
  187.7680  178.5420  142.3640 N   0  0  1  0  0  0  0  0  0  0  0  0
  188.9130  178.1710  143.1130 N   0  0  0  0  0  2  0  0  0  0  0  0
  189.1730  177.3410  140.9520 N   0  0  0  0  0  0  0  0  0  0  0  0
  189.8480  177.5020  142.2160 C   0  0  2  0  0  3  0  0  0  0  0  0
  187.8710  177.9500  141.0320 C   0  0  0  0  0  2  0  0  0  0  0  0
  183.7930  179.0390  145.9360 O   0  0  0  0  0  0  0  0  0  0  0  0
  186.7700  177.7060  144.5010 C   0  0  0  0  0  3  0  0  0  0  0  0
  186.5640  178.0260  143.0280 C   0  0  1  0  0  3  0  0  0  0  0  0
  184.4870  179.2420  143.6840 C   0  0  0  0  0  3  0  0  0  0  0  0
  184.6630  178.7770  145.0650 C   0  0  0  0  0  0  0  0  0  0  0  0
  185.8740  178.0350  145.4330 C   0  0  0  0  0  3  0  0  0  0  0  0
  185.3770  178.9180  142.7440 C   0  0  0  0  0  3  0  0  0  0  0  0
  190.4700  175.1550  143.2120 N   0  0  0  0  0  0  0  0  0  0  0  0
  190.1970  176.1900  142.7730 C   0  0  0  0  0  0  0  0  0  0  0  0
  1  6  1  0  0  0  0
  1  3  1  0  0  0  0
  2 18  1  0  0  0  0
  3  4  2  0  0  0  0
  3 15  1  0  0  0  0
  5  3  2  0  0  0  0
  7  2  2  0  0  0  0
  7  8  1  0  0  0  0
  9  2  1  0  0  0  0
 10 12  1  1  0  0  0
 10  7  1  0  0  0  0
 11  6  1  6  0  0  0
 11 15  1  0  0  0  0
 11 13  1  0  0  0  0
 13 14  1  6  0  0  0
 13 10  1  0  0  0  0
 14  9  1  0  0  0  0
 15 12  1  1  0  0  0
 16 20  1  6  0  0  0
 16 23  1  0  0  0  0
 16 17  1  0  0  0  0
 18 20  1  0  0  0  0
 18 19  1  0  0  0  0
 19 29  1  1  0  0  0
 19 17  1  0  0  0  0
 22 26  2  0  0  0  0
 23 27  1  1  0  0  0
 23 22  1  0  0  0  0
 24 25  1  0  0  0  0
 25 26  1  0  0  0  0
 25 21  2  0  0  0  0
 27 24  2  0  0  0  0
 29 28  3  0  0  0  0
M  END
>  <MODEL>
1

>  <REMARK>
 VINA RESULT:      -8.3      0.000      0.000
  Name = 
  3 active torsions:
  status: ('A' for Active; 'I' for Inactive)
    1  A    between atoms: N_1  and  C_12
    2  A    between atoms: C_4  and  N_10
    3  A    between atoms: C_18  and  C_29
                            x       y       z     vdW  Elec       q    Type
                         _______ _______ _______ _____ _____    ______ ____

>  <TORSDO>
F 3

$$$$
=
 OpenBabel11062416193D

 29 33  0  0  1  0  0  0  0  0999 V2000
  180.6240  177.9640  138.8050 C   0  0  0  0  0  2  0  0  0  0  0  0
  186.1140  178.2390  141.6000 C   0  0  0  0  0  0  0  0  0  0  0  0
  180.1750  178.3730  140.4470 S   0  0  0  0  0  0  0  0  0  0  0  0
  180.0060  177.1460  141.2970 O   0  0  0  0  0  0  0  0  0  0  0  0
  178.9420  179.2320  140.4840 O   0  0  0  0  0  0  0  0  0  0  0  0
  182.1250  178.1940  138.7690 C   0  0  0  0  0  2  0  0  0  0  0  0
  184.8980  178.1340  142.1940 C   0  0  0  0  0  0  0  0  0  0  0  0
  184.7850  177.8230  143.5100 F   0  0  0  0  0  0  0  0  0  0  0  0
  186.2400  178.5630  140.1090 C   0  0  0  0  0  2  0  0  0  0  0  0
  183.6570  178.1490  141.3560 C   0  0  1  0  0  3  0  0  0  0  0  0
  182.4970  179.3190  139.6520 N   0  0  2  0  0  0  0  0  0  0  0  0
  182.4050  178.6650  142.0120 C   0  0  0  0  0  2  0  0  0  0  0  0
  183.8240  179.1060  140.2240 C   0  0  2  0  0  3  0  0  0  0  0  0
  184.9240  178.5940  139.3100 C   0  0  0  0  0  2  0  0  0  0  0  0
  181.6290  179.2980  140.8470 C   0  0  2  0  0  3  0  0  0  0  0  0
  188.7460  178.2300  144.2100 N   0  0  1  0  0  0  0  0  0  0  0  0
  189.5230  178.4880  143.0530 N   0  0  0  0  0  2  0  0  0  0  0  0
  187.3260  178.1170  142.3710 N   0  0  0  0  0  0  0  0  0  0  0  0
  188.6290  178.5180  141.9000 C   0  0  2  0  0  3  0  0  0  0  0  0
  187.3840  177.9040  143.7930 C   0  0  0  0  0  2  0  0  0  0  0  0
  192.2720  176.1480  147.6790 O   0  0  0  0  0  0  0  0  0  0  0  0
  190.7390  176.7500  144.5180 C   0  0  0  0  0  3  0  0  0  0  0  0
  189.3150  177.0860  144.9340 C   0  0  1  0  0  3  0  0  0  0  0  0
  190.0780  176.9480  147.3050 C   0  0  0  0  0  3  0  0  0  0  0  0
  191.3930  176.4850  146.8440 C   0  0  0  0  0  0  0  0  0  0  0  0
  191.6880  176.4490  145.4080 C   0  0  0  0  0  3  0  0  0  0  0  0
  189.1230  177.2510  146.4240 C   0  0  0  0  0  3  0  0  0  0  0  0
  189.4990  176.8250  140.0930 N   0  0  0  0  0  0  0  0  0  0  0  0
  189.1150  177.5720  140.8890 C   0  0  0  0  0  0  0  0  0  0  0  0
  1  3  1  0  0  0  0
  2  7  2  0  0  0  0
  2 18  1  0  0  0  0
  3  5  2  0  0  0  0
  3 15  1  0  0  0  0
  3  4  2  0  0  0  0
  6  1  1  0  0  0  0
  7  8  1  0  0  0  0
  9  2  1  0  0  0  0
 10 12  1  1  0  0  0
 10  7  1  0  0  0  0
 11  6  1  6  0  0  0
 11 13  1  0  0  0  0
 11 15  1  0  0  0  0
 13 14  1  6  0  0  0
 13 10  1  0  0  0  0
 14  9  1  0  0  0  0
 15 12  1  1  0  0  0
 16 20  1  6  0  0  0
 16 23  1  0  0  0  0
 17 16  1  0  0  0  0
 18 20  1  0  0  0  0
 19 29  1  6  0  0  0
 19 18  1  0  0  0  0
 19 17  1  0  0  0  0
 22 26  2  0  0  0  0
 23 22  1  1  0  0  0
 23 27  1  0  0  0  0
 25 24  1  0  0  0  0
 25 21  2  0  0  0  0
 26 25  1  0  0  0  0
 27 24  2  0  0  0  0
 28 29  3  0  0  0  0
M  END
>  <MODEL>
2

>  <REMARK>
 VINA RESULT:      -7.9      5.625      8.606
  Name = 
  3 active torsions:
  status: ('A' for Active; 'I' for Inactive)
    1  A    between atoms: N_1  and  C_12
    2  A    between atoms: C_4  and  N_10
    3  A    between atoms: C_18  and  C_29
                            x       y       z     vdW  Elec       q    Type
                         _______ _______ _______ _____ _____    ______ ____

>  <TORSDO>
F 3

$$$$
=
 OpenBabel11062416193D

 29 33  0  0  1  0  0  0  0  0999 V2000
  189.6300  176.4410  147.3230 C   0  0  0  0  0  2  0  0  0  0  0  0
  189.5690  177.2790  141.2140 C   0  0  0  0  0  0  0  0  0  0  0  0
  191.3260  176.6970  146.9750 S   0  0  0  0  0  0  0  0  0  0  0  0
  192.0160  175.4130  146.6110 O   0  0  0  0  0  0  0  0  0  0  0  0
  192.0260  177.3820  148.1150 O   0  0  0  0  0  0  0  0  0  0  0  0
  188.9270  176.8670  146.0460 C   0  0  0  0  0  2  0  0  0  0  0  0
  190.6430  176.9830  141.9880 C   0  0  0  0  0  0  0  0  0  0  0  0
  191.8180  176.5880  141.4360 F   0  0  0  0  0  0  0  0  0  0  0  0
  188.2350  177.6990  141.8390 C   0  0  0  0  0  2  0  0  0  0  0  0
  190.4850  176.8810  143.4740 C   0  0  1  0  0  3  0  0  0  0  0  0
  189.6550  177.9810  145.4030 N   0  0  2  0  0  0  0  0  0  0  0  0
  191.6990  177.1910  144.3070 C   0  0  0  0  0  2  0  0  0  0  0  0
  189.5190  177.9130  143.9500 C   0  0  2  0  0  3  0  0  0  0  0  0
  188.1470  177.6010  143.3740 C   0  0  0  0  0  2  0  0  0  0  0  0
  191.1050  177.7800  145.5950 C   0  0  2  0  0  3  0  0  0  0  0  0
  190.6130  176.9780  137.6710 N   0  0  1  0  0  0  0  0  0  0  0  0
  189.7310  178.0840  137.5920 N   0  0  0  0  0  2  0  0  0  0  0  0
  189.6700  177.2750  139.7760 N   0  0  0  0  0  0  0  0  0  0  0  0
  189.2060  178.3450  138.9280 C   0  0  2  0  0  3  0  0  0  0  0  0
  190.5170  176.4000  139.0090 C   0  0  0  0  0  2  0  0  0  0  0  0
  187.1820  173.2710  135.8560 O   0  0  0  0  0  0  0  0  0  0  0  0
  190.2130  174.5480  137.2270 C   0  0  0  0  0  3  0  0  0  0  0  0
  190.2160  175.9680  136.6810 C   0  0  1  0  0  3  0  0  0  0  0  0
  187.9580  175.5010  135.7290 C   0  0  0  0  0  3  0  0  0  0  0  0
  188.0790  174.1010  136.1540 C   0  0  0  0  0  0  0  0  0  0  0  0
  189.2330  173.6840  136.9580 C   0  0  0  0  0  3  0  0  0  0  0  0
  188.9330  176.3730  135.9930 C   0  0  0  0  0  3  0  0  0  0  0  0
  186.5830  178.3560  138.8370 N   0  0  0  0  0  0  0  0  0  0  0  0
  187.7390  178.3500  138.8780 C   0  0  0  0  0  0  0  0  0  0  0  0
  2  9  1  0  0  0  0
  2  7  2  0  0  0  0
  3  1  1  0  0  0  0
  3  5  2  0  0  0  0
  4  3  2  0  0  0  0
  6  1  1  0  0  0  0
  7 10  1  0  0  0  0
  8  7  1  0  0  0  0
  9 14  1  0  0  0  0
 10 13  1  0  0  0  0
 10 12  1  1  0  0  0
 11 15  1  0  0  0  0
 11  6  1  1  0  0  0
 13 14  1  1  0  0  0
 13 11  1  0  0  0  0
 15 12  1  6  0  0  0
 15  3  1  0  0  0  0
 16 20  1  1  0  0  0
 17 16  1  0  0  0  0
 17 19  1  0  0  0  0
 18  2  1  0  0  0  0
 19 29  1  6  0  0  0
 19 18  1  0  0  0  0
 20 18  1  0  0  0  0
 21 25  2  0  0  0  0
 23 27  1  1  0  0  0
 23 22  1  0  0  0  0
 23 16  1  0  0  0  0
 24 27  2  0  0  0  0
 24 25  1  0  0  0  0
 25 26  1  0  0  0  0
 26 22  2  0  0  0  0
 28 29  3  0  0  0  0
M  END
>  <MODEL>
3

>  <REMARK>
 VINA RESULT:      -7.7      4.165      8.083
  Name = 
  3 active torsions:
  status: ('A' for Active; 'I' for Inactive)
    1  A    between atoms: N_1  and  C_12
    2  A    between atoms: C_4  and  N_10
    3  A    between atoms: C_18  and  C_29
                            x       y       z     vdW  Elec       q    Type
                         _______ _______ _______ _____ _____    ______ ____

>  <TORSDO>
F 3

$$$$
=
 OpenBabel11062416193D

 29 33  0  0  1  0  0  0  0  0999 V2000
  179.2790  180.6630  141.2140 C   0  0  0  0  0  2  0  0  0  0  0  0
  184.3720  178.4060  143.8590 C   0  0  0  0  0  0  0  0  0  0  0  0
  180.0180  179.7890  139.8910 S   0  0  0  0  0  0  0  0  0  0  0  0
  181.0030  180.6430  139.1430 O   0  0  0  0  0  0  0  0  0  0  0  0
  178.9840  179.2170  138.9620 O   0  0  0  0  0  0  0  0  0  0  0  0
  180.0440  180.1890  142.4380 C   0  0  0  0  0  2  0  0  0  0  0  0
  184.1210  178.5170  142.5300 C   0  0  0  0  0  0  0  0  0  0  0  0
  185.1080  178.3550  141.6140 F   0  0  0  0  0  0  0  0  0  0  0  0
  183.2620  178.6160  144.8940 C   0  0  0  0  0  2  0  0  0  0  0  0
  182.7930  179.0290  142.0640 C   0  0  1  0  0  3  0  0  0  0  0  0
  180.4450  178.7760  142.2800 N   0  0  2  0  0  0  0  0  0  0  0  0
  182.3200  178.5550  140.7160 C   0  0  0  0  0  2  0  0  0  0  0  0
  181.7130  178.5230  142.9600 C   0  0  2  0  0  3  0  0  0  0  0  0
  181.9120  179.1140  144.3460 C   0  0  0  0  0  2  0  0  0  0  0  0
  180.7910  178.5320  140.8640 C   0  0  2  0  0  3  0  0  0  0  0  0
  187.7310  176.9310  144.3850 N   0  0  1  0  0  0  0  0  0  0  0  0
  187.3090  177.1100  145.7260 N   0  0  0  0  0  2  0  0  0  0  0  0
  185.6770  178.0210  144.3360 N   0  0  0  0  0  0  0  0  0  0  0  0
  185.9760  177.7040  145.7100 C   0  0  2  0  0  3  0  0  0  0  0  0
  186.7640  177.5790  143.5020 C   0  0  0  0  0  2  0  0  0  0  0  0
  192.4940  177.2240  141.9290 O   0  0  0  0  0  0  0  0  0  0  0  0
  190.2090  176.6630  144.6050 C   0  0  0  0  0  3  0  0  0  0  0  0
  189.0460  177.5570  144.2010 C   0  0  1  0  0  3  0  0  0  0  0  0
  190.2780  178.0350  142.0850 C   0  0  0  0  0  3  0  0  0  0  0  0
  191.4280  177.2790  142.5950 C   0  0  0  0  0  0  0  0  0  0  0  0
  191.3160  176.5590  143.8690 C   0  0  0  0  0  3  0  0  0  0  0  0
  189.1650  178.1460  142.8140 C   0  0  0  0  0  3  0  0  0  0  0  0
  185.9890  179.8900  147.1620 N   0  0  0  0  0  0  0  0  0  0  0  0
  185.9840  178.9270  146.5210 C   0  0  0  0  0  0  0  0  0  0  0  0
  1  6  1  0  0  0  0
  2 18  1  0  0  0  0
  2  9  1  0  0  0  0
  3 15  1  0  0  0  0
  3  1  1  0  0  0  0
  4  3  2  0  0  0  0
  5  3  2  0  0  0  0
  7  2  2  0  0  0  0
  8  7  1  0  0  0  0
 10 12  1  6  0  0  0
 10  7  1  0  0  0  0
 10 13  1  0  0  0  0
 11  6  1  6  0  0  0
 11 13  1  0  0  0  0
 13 14  1  1  0  0  0
 14  9  1  0  0  0  0
 15 12  1  1  0  0  0
 15 11  1  0  0  0  0
 16 20  1  6  0  0  0
 16 17  1  0  0  0  0
 18 19  1  0  0  0  0
 19 17  1  0  0  0  0
 19 29  1  1  0  0  0
 20 18  1  0  0  0  0
 21 25  2  0  0  0  0
 23 27  1  6  0  0  0
 23 16  1  0  0  0  0
 23 22  1  0  0  0  0
 24 25  1  0  0  0  0
 24 27  2  0  0  0  0
 25 26  1  0  0  0  0
 26 22  2  0  0  0  0
 29 28  3  0  0  0  0
M  END
>  <MODEL>
4

>  <REMARK>
 VINA RESULT:      -7.3      5.427      9.676
  Name = 
  3 active torsions:
  status: ('A' for Active; 'I' for Inactive)
    1  A    between atoms: N_1  and  C_12
    2  A    between atoms: C_4  and  N_10
    3  A    between atoms: C_18  and  C_29
                            x       y       z     vdW  Elec       q    Type
                         _______ _______ _______ _____ _____    ______ ____

>  <TORSDO>
F 3

$$$$
=
 OpenBabel11062416193D

 29 33  0  0  1  0  0  0  0  0999 V2000
  195.2300  174.3550  134.5940 C   0  0  0  0  0  2  0  0  0  0  0  0
  190.8950  176.0620  138.6330 C   0  0  0  0  0  0  0  0  0  0  0  0
  196.1790  174.6810  136.0270 S   0  0  0  0  0  0  0  0  0  0  0  0
  196.5730  176.1290  136.1130 O   0  0  0  0  0  0  0  0  0  0  0  0
  197.3840  173.7870  136.1070 O   0  0  0  0  0  0  0  0  0  0  0  0
  193.7990  174.3230  135.1020 C   0  0  0  0  0  2  0  0  0  0  0  0
  192.2320  176.2730  138.7310 C   0  0  0  0  0  0  0  0  0  0  0  0
  192.7430  177.1290  139.6510 F   0  0  0  0  0  0  0  0  0  0  0  0
  190.3180  175.1170  137.5760 C   0  0  0  0  0  2  0  0  0  0  0  0
  193.1500  175.7250  137.6820 C   0  0  1  0  0  3  0  0  0  0  0  0
  193.7510  173.7750  136.4730 N   0  0  2  0  0  0  0  0  0  0  0  0
  194.5580  175.4100  138.1110 C   0  0  0  0  0  2  0  0  0  0  0  0
  192.6640  174.3890  137.2330 C   0  0  2  0  0  3  0  0  0  0  0  0
  191.3200  174.5630  136.5450 C   0  0  0  0  0  2  0  0  0  0  0  0
  194.9470  174.2280  137.2120 C   0  0  2  0  0  3  0  0  0  0  0  0
  188.6790  176.9120  141.4800 N   0  0  1  0  0  0  0  0  0  0  0  0
  188.0030  177.5600  140.4170 N   0  0  0  0  0  2  0  0  0  0  0  0
  189.9810  176.6700  139.5680 N   0  0  0  0  0  0  0  0  0  0  0  0
  188.7580  177.3340  139.1900 C   0  0  2  0  0  3  0  0  0  0  0  0
  189.9660  176.4280  140.9860 C   0  0  0  0  0  2  0  0  0  0  0  0
  189.8510  178.0200  146.5990 O   0  0  0  0  0  0  0  0  0  0  0  0
  187.8500  177.8260  143.6560 C   0  0  0  0  0  3  0  0  0  0  0  0
  188.9110  177.8710  142.5670 C   0  0  1  0  0  3  0  0  0  0  0  0
  190.6290  177.8140  144.3750 C   0  0  0  0  0  3  0  0  0  0  0  0
  189.5630  177.9200  145.3790 C   0  0  0  0  0  0  0  0  0  0  0  0
  188.1590  177.8730  144.9540 C   0  0  0  0  0  3  0  0  0  0  0  0
  190.3310  177.7670  143.0760 C   0  0  0  0  0  3  0  0  0  0  0  0
  189.2920  179.6450  138.0650 N   0  0  0  0  0  0  0  0  0  0  0  0
  189.0580  178.6260  138.5620 C   0  0  0  0  0  0  0  0  0  0  0  0
  1  6  1  0  0  0  0
  1  3  1  0  0  0  0
  2  7  2  0  0  0  0
  2 18  1  0  0  0  0
  3  5  2  0  0  0  0
  3  4  2  0  0  0  0
  3 15  1  0  0  0  0
  7  8  1  0  0  0  0
  9  2  1  0  0  0  0
 10 12  1  1  0  0  0
 10  7  1  0  0  0  0
 11  6  1  6  0  0  0
 11 15  1  0  0  0  0
 11 13  1  0  0  0  0
 13 14  1  6  0  0  0
 13 10  1  0  0  0  0
 14  9  1  0  0  0  0
 15 12  1  6  0  0  0
 16 20  1  6  0  0  0
 16 23  1  0  0  0  0
 17 16  1  0  0  0  0
 18 20  1  0  0  0  0
 19 29  1  1  0  0  0
 19 18  1  0  0  0  0
 19 17  1  0  0  0  0
 22 26  2  0  0  0  0
 23 27  1  1  0  0  0
 23 22  1  0  0  0  0
 24 25  1  0  0  0  0
 25 21  2  0  0  0  0
 26 25  1  0  0  0  0
 27 24  2  0  0  0  0
 28 29  3  0  0  0  0
M  END
>  <MODEL>
5

>  <REMARK>
 VINA RESULT:      -7.3      2.219      3.282
  Name = 
  3 active torsions:
  status: ('A' for Active; 'I' for Inactive)
    1  A    between atoms: N_1  and  C_12
    2  A    between atoms: C_4  and  N_10
    3  A    between atoms: C_18  and  C_29
                            x       y       z     vdW  Elec       q    Type
                         _______ _______ _______ _____ _____    ______ ____

>  <TORSDO>
F 3

$$$$
=
 OpenBabel11062416193D

 29 33  0  0  1  0  0  0  0  0999 V2000
  181.7010  178.6330  137.2210 C   0  0  0  0  0  2  0  0  0  0  0  0
  185.4440  178.2200  142.1040 C   0  0  0  0  0  0  0  0  0  0  0  0
  180.6200  179.0230  138.5400 S   0  0  0  0  0  0  0  0  0  0  0  0
  180.0040  177.7890  139.1350 O   0  0  0  0  0  0  0  0  0  0  0  0
  179.5640  180.0050  138.1160 O   0  0  0  0  0  0  0  0  0  0  0  0
  183.0830  178.7040  137.8470 C   0  0  0  0  0  2  0  0  0  0  0  0
  184.0870  178.2200  142.1110 C   0  0  0  0  0  0  0  0  0  0  0  0
  183.3910  177.8730  143.2230 F   0  0  0  0  0  0  0  0  0  0  0  0
  186.2280  178.5860  140.8410 C   0  0  0  0  0  2  0  0  0  0  0  0
  183.3360  178.3980  140.8280 C   0  0  1  0  0  3  0  0  0  0  0  0
  183.1230  179.7490  138.8910 N   0  0  2  0  0  0  0  0  0  0  0  0
  181.9680  179.0180  140.9250 C   0  0  0  0  0  2  0  0  0  0  0  0
  184.0500  179.3750  139.9560 C   0  0  2  0  0  3  0  0  0  0  0  0
  185.3940  178.7860  139.5620 C   0  0  0  0  0  2  0  0  0  0  0  0
  181.8250  179.7730  139.5950 C   0  0  2  0  0  3  0  0  0  0  0  0
  187.7240  176.9020  144.7120 N   0  0  1  0  0  0  0  0  0  0  0  0
  186.6240  177.3120  145.5060 N   0  0  0  0  0  2  0  0  0  0  0  0
  186.1900  177.9410  143.3060 N   0  0  0  0  0  0  0  0  0  0  0  0
  185.6090  177.8780  144.6240 C   0  0  2  0  0  3  0  0  0  0  0  0
  187.5110  177.3710  143.3450 C   0  0  0  0  0  2  0  0  0  0  0  0
  192.4300  176.4940  147.2590 O   0  0  0  0  0  0  0  0  0  0  0  0
  189.0420  177.4790  146.7590 C   0  0  0  0  0  3  0  0  0  0  0  0
  188.9560  177.5010  145.2400 C   0  0  1  0  0  3  0  0  0  0  0  0
  191.2840  176.6070  145.1930 C   0  0  0  0  0  3  0  0  0  0  0  0
  191.3570  176.7480  146.6530 C   0  0  0  0  0  0  0  0  0  0  0  0
  190.1640  177.1530  147.4040 C   0  0  0  0  0  3  0  0  0  0  0  0
  190.1680  176.9310  144.5390 C   0  0  0  0  0  3  0  0  0  0  0  0
  184.9880  180.2880  145.4560 N   0  0  0  0  0  0  0  0  0  0  0  0
  185.2630  179.2260  145.0890 C   0  0  0  0  0  0  0  0  0  0  0  0
  1  6  1  0  0  0  0
  1  3  1  0  0  0  0
  2  7  2  0  0  0  0
  2 18  1  0  0  0  0
  3  4  2  0  0  0  0
  3 15  1  0  0  0  0
  5  3  2  0  0  0  0
  7  8  1  0  0  0  0
  9  2  1  0  0  0  0
 10 12  1  1  0  0  0
 10  7  1  0  0  0  0
 11  6  1  6  0  0  0
 11 15  1  0  0  0  0
 11 13  1  0  0  0  0
 13 14  1  6  0  0  0
 13 10  1  0  0  0  0
 14  9  1  0  0  0  0
 15 12  1  1  0  0  0
 16 20  1  6  0  0  0
 16 23  1  0  0  0  0
 16 17  1  0  0  0  0
 18 20  1  0  0  0  0
 18 19  1  0  0  0  0
 19 29  1  1  0  0  0
 19 17  1  0  0  0  0
 22 26  2  0  0  0  0
 23 27  1  6  0  0  0
 23 22  1  0  0  0  0
 24 25  1  0  0  0  0
 25 21  2  0  0  0  0
 25 26  1  0  0  0  0
 27 24  2  0  0  0  0
 29 28  3  0  0  0  0
M  END
>  <MODEL>
6

>  <REMARK>
 VINA RESULT:      -7.2      6.492      8.615
  Name = 
  3 active torsions:
  status: ('A' for Active; 'I' for Inactive)
    1  A    between atoms: N_1  and  C_12
    2  A    between atoms: C_4  and  N_10
    3  A    between atoms: C_18  and  C_29
                            x       y       z     vdW  Elec       q    Type
                         _______ _______ _______ _____ _____    ______ ____

>  <TORSDO>
F 3

$$$$
=
 OpenBabel11062416193D

 29 33  0  0  1  0  0  0  0  0999 V2000
  178.9760  178.1230  137.2250 C   0  0  0  0  0  2  0  0  0  0  0  0
  182.5390  178.7330  142.2200 C   0  0  0  0  0  0  0  0  0  0  0  0
  179.9210  176.6510  137.1780 S   0  0  0  0  0  0  0  0  0  0  0  0
  181.2200  176.8500  136.4490 O   0  0  0  0  0  0  0  0  0  0  0  0
  179.1390  175.5120  136.5880 O   0  0  0  0  0  0  0  0  0  0  0  0
  179.2340  178.6790  138.6140 C   0  0  0  0  0  2  0  0  0  0  0  0
  182.7310  177.8860  141.1780 C   0  0  0  0  0  0  0  0  0  0  0  0
  183.9080  177.2320  141.0120 F   0  0  0  0  0  0  0  0  0  0  0  0
  181.2200  179.4920  142.3910 C   0  0  0  0  0  2  0  0  0  0  0  0
  181.7200  177.8240  140.0740 C   0  0  1  0  0  3  0  0  0  0  0  0
  179.4130  177.5790  139.5850 N   0  0  2  0  0  0  0  0  0  0  0  0
  181.6080  176.5200  139.3320 C   0  0  0  0  0  2  0  0  0  0  0  0
  180.3470  177.9710  140.6380 C   0  0  2  0  0  3  0  0  0  0  0  0
  180.2110  179.3620  141.2350 C   0  0  0  0  0  2  0  0  0  0  0  0
  180.1280  176.4690  138.9240 C   0  0  2  0  0  3  0  0  0  0  0  0
  184.4640  179.1100  145.3650 N   0  0  1  0  0  0  0  0  0  0  0  0
  185.2610  179.8730  144.4750 N   0  0  0  0  0  2  0  0  0  0  0  0
  183.5470  178.8930  143.2380 N   0  0  0  0  0  0  0  0  0  0  0  0
  184.6430  179.8260  143.1540 C   0  0  2  0  0  3  0  0  0  0  0  0
  183.4390  178.4140  144.5910 C   0  0  0  0  0  2  0  0  0  0  0  0
  189.2250  177.4810  147.2290 O   0  0  0  0  0  0  0  0  0  0  0  0
  186.3380  177.4690  145.1400 C   0  0  0  0  0  3  0  0  0  0  0  0
  185.3070  178.1210  146.0480 C   0  0  1  0  0  3  0  0  0  0  0  0
  187.1390  178.4890  147.7010 C   0  0  0  0  0  3  0  0  0  0  0  0
  188.0520  177.7210  146.8450 C   0  0  0  0  0  0  0  0  0  0  0  0
  187.6000  177.2660  145.5260 C   0  0  0  0  0  3  0  0  0  0  0  0
  185.8760  178.6970  147.3240 C   0  0  0  0  0  3  0  0  0  0  0  0
  186.4120  178.9930  141.4040 N   0  0  0  0  0  0  0  0  0  0  0  0
  185.6310  179.3590  142.1750 C   0  0  0  0  0  0  0  0  0  0  0  0
  1  6  1  0  0  0  0
  2  9  1  0  0  0  0
  2 18  1  0  0  0  0
  3  1  1  0  0  0  0
  3 15  1  0  0  0  0
  4  3  2  0  0  0  0
  5  3  2  0  0  0  0
  7  2  2  0  0  0  0
  8  7  1  0  0  0  0
 10 12  1  1  0  0  0
 10 13  1  0  0  0  0
 10  7  1  0  0  0  0
 11  6  1  6  0  0  0
 11 13  1  0  0  0  0
 13 14  1  6  0  0  0
 14  9  1  0  0  0  0
 15 12  1  6  0  0  0
 15 11  1  0  0  0  0
 16 20  1  6  0  0  0
 16 23  1  0  0  0  0
 17 16  1  0  0  0  0
 18 20  1  0  0  0  0
 19 29  1  6  0  0  0
 19 18  1  0  0  0  0
 19 17  1  0  0  0  0
 22 26  2  0  0  0  0
 23 22  1  6  0  0  0
 23 27  1  0  0  0  0
 25 21  2  0  0  0  0
 25 24  1  0  0  0  0
 26 25  1  0  0  0  0
 27 24  2  0  0  0  0
 28 29  3  0  0  0  0
M  END
>  <MODEL>
7

>  <REMARK>
 VINA RESULT:      -7.0      7.210      9.280
  Name = 
  3 active torsions:
  status: ('A' for Active; 'I' for Inactive)
    1  A    between atoms: N_1  and  C_12
    2  A    between atoms: C_4  and  N_10
    3  A    between atoms: C_18  and  C_29
                            x       y       z     vdW  Elec       q    Type
                         _______ _______ _______ _____ _____    ______ ____

>  <TORSDO>
F 3

$$$$
=
 OpenBabel11062416193D

 29 33  0  0  1  0  0  0  0  0999 V2000
  186.0480  178.8590  146.1620 C   0  0  0  0  0  2  0  0  0  0  0  0
  189.0560  177.2110  141.0370 C   0  0  0  0  0  0  0  0  0  0  0  0
  184.8450  179.1510  144.9250 S   0  0  0  0  0  0  0  0  0  0  0  0
  184.9740  180.5300  144.3410 O   0  0  0  0  0  0  0  0  0  0  0  0
  183.4540  178.9110  145.4410 O   0  0  0  0  0  0  0  0  0  0  0  0
  187.1140  178.0460  145.4490 C   0  0  0  0  0  2  0  0  0  0  0  0
  187.9280  177.9610  141.1180 C   0  0  0  0  0  0  0  0  0  0  0  0
  187.4660  178.6520  140.0450 F   0  0  0  0  0  0  0  0  0  0  0  0
  189.5910  176.4530  142.2550 C   0  0  0  0  0  2  0  0  0  0  0  0
  187.2920  178.2070  142.4510 C   0  0  1  0  0  3  0  0  0  0  0  0
  186.5000  177.1690  144.4300 N   0  0  2  0  0  0  0  0  0  0  0  0
  185.8070  178.4480  142.4580 C   0  0  0  0  0  2  0  0  0  0  0  0
  187.4050  176.9850  143.2980 C   0  0  2  0  0  3  0  0  0  0  0  0
  188.8740  176.7270  143.5900 C   0  0  0  0  0  2  0  0  0  0  0  0
  185.3610  177.8770  143.8130 C   0  0  2  0  0  3  0  0  0  0  0  0
  191.5210  176.9970  138.2780 N   0  0  1  0  0  0  0  0  0  0  0  0
  190.3730  177.4340  137.5720 N   0  0  0  0  0  2  0  0  0  0  0  0
  189.7490  177.0500  139.7830 N   0  0  0  0  0  0  0  0  0  0  0  0
  189.2750  177.5670  138.5230 C   0  0  2  0  0  3  0  0  0  0  0  0
  191.1280  176.6620  139.6440 C   0  0  0  0  0  2  0  0  0  0  0  0
  194.8920  174.6470  134.8250 O   0  0  0  0  0  0  0  0  0  0  0  0
  191.7580  175.7200  136.1390 C   0  0  0  0  0  3  0  0  0  0  0  0
  192.0660  175.7980  137.6260 C   0  0  1  0  0  3  0  0  0  0  0  0
  194.4350  175.2540  137.0640 C   0  0  0  0  0  3  0  0  0  0  0  0
  194.0450  175.0490  135.6640 C   0  0  0  0  0  0  0  0  0  0  0  0
  192.6730  175.3490  135.2410 C   0  0  0  0  0  3  0  0  0  0  0  0
  193.5280  175.6250  137.9700 C   0  0  0  0  0  3  0  0  0  0  0  0
  187.2280  176.1590  137.6780 N   0  0  0  0  0  0  0  0  0  0  0  0
  188.1300  176.7790  138.0520 C   0  0  0  0  0  0  0  0  0  0  0  0
  2  7  2  0  0  0  0
  2  9  1  0  0  0  0
  3  5  2  0  0  0  0
  3  1  1  0  0  0  0
  4  3  2  0  0  0  0
  6  1  1  0  0  0  0
  7 10  1  0  0  0  0
  8  7  1  0  0  0  0
  9 14  1  0  0  0  0
 10 12  1  6  0  0  0
 10 13  1  0  0  0  0
 11  6  1  1  0  0  0
 13 14  1  1  0  0  0
 13 11  1  0  0  0  0
 15 12  1  6  0  0  0
 15 11  1  0  0  0  0
 15  3  1  0  0  0  0
 16 20  1  1  0  0  0
 17 16  1  0  0  0  0
 17 19  1  0  0  0  0
 18  2  1  0  0  0  0
 19 29  1  6  0  0  0
 19 18  1  0  0  0  0
 20 18  1  0  0  0  0
 21 25  2  0  0  0  0
 23 22  1  6  0  0  0
 23 27  1  0  0  0  0
 23 16  1  0  0  0  0
 24 27  2  0  0  0  0
 25 24  1  0  0  0  0
 26 25  1  0  0  0  0
 26 22  2  0  0  0  0
 28 29  3  0  0  0  0
M  END
>  <MODEL>
8

>  <REMARK>
 VINA RESULT:      -7.0      3.100      9.481
  Name = 
  3 active torsions:
  status: ('A' for Active; 'I' for Inactive)
    1  A    between atoms: N_1  and  C_12
    2  A    between atoms: C_4  and  N_10
    3  A    between atoms: C_18  and  C_29
                            x       y       z     vdW  Elec       q    Type
                         _______ _______ _______ _____ _____    ______ ____

>  <TORSDO>
F 3

$$$$
=
 OpenBabel11062416193D

 29 33  0  0  1  0  0  0  0  0999 V2000
  187.1420  178.1670  147.0440 C   0  0  0  0  0  2  0  0  0  0  0  0
  188.8380  177.4030  141.1650 C   0  0  0  0  0  0  0  0  0  0  0  0
  185.6820  178.6090  146.1850 S   0  0  0  0  0  0  0  0  0  0  0  0
  185.6810  180.0630  145.8070 O   0  0  0  0  0  0  0  0  0  0  0  0
  184.4510  178.2530  146.9700 O   0  0  0  0  0  0  0  0  0  0  0  0
  188.0020  177.5030  145.9840 C   0  0  0  0  0  2  0  0  0  0  0  0
  187.7670  178.0990  141.6230 C   0  0  0  0  0  0  0  0  0  0  0  0
  187.0700  178.9310  140.8090 F   0  0  0  0  0  0  0  0  0  0  0  0
  189.6410  176.4850  142.0920 C   0  0  0  0  0  2  0  0  0  0  0  0
  187.4670  178.1220  143.0900 C   0  0  1  0  0  3  0  0  0  0  0  0
  187.1580  176.7730  145.0160 N   0  0  2  0  0  0  0  0  0  0  0  0
  186.0270  178.3160  143.4830 C   0  0  0  0  0  2  0  0  0  0  0  0
  187.7680  176.7890  143.6880 C   0  0  2  0  0  3  0  0  0  0  0  0
  189.2620  176.5330  143.5840 C   0  0  0  0  0  2  0  0  0  0  0  0
  185.9100  177.5340  144.8000 C   0  0  2  0  0  3  0  0  0  0  0  0
  190.5930  177.5030  137.9020 N   0  0  1  0  0  0  0  0  0  0  0  0
  189.4420  178.2750  137.6060 N   0  0  0  0  0  2  0  0  0  0  0  0
  189.2130  177.4540  139.7740 N   0  0  0  0  0  0  0  0  0  0  0  0
  188.6120  178.3350  138.8040 C   0  0  2  0  0  3  0  0  0  0  0  0
  190.4240  176.9030  139.2240 C   0  0  0  0  0  2  0  0  0  0  0  0
  188.5860  173.3650  135.1340 O   0  0  0  0  0  0  0  0  0  0  0  0
  190.6690  175.0350  137.4950 C   0  0  0  0  0  3  0  0  0  0  0  0
  190.7330  176.4350  136.9040 C   0  0  1  0  0  3  0  0  0  0  0  0
  189.1010  175.6730  135.1780 C   0  0  0  0  0  3  0  0  0  0  0  0
  189.1950  174.3070  135.7050 C   0  0  0  0  0  0  0  0  0  0  0  0
  189.9750  174.0500  136.9210 C   0  0  0  0  0  3  0  0  0  0  0  0
  189.7910  176.6650  135.7440 C   0  0  0  0  0  3  0  0  0  0  0  0
  186.1890  177.5170  138.2150 N   0  0  0  0  0  0  0  0  0  0  0  0
  187.2570  177.8780  138.4760 C   0  0  0  0  0  0  0  0  0  0  0  0
  2  7  2  0  0  0  0
  2  9  1  0  0  0  0
  3  5  2  0  0  0  0
  3  1  1  0  0  0  0
  4  3  2  0  0  0  0
  6  1  1  0  0  0  0
  7 10  1  0  0  0  0
  8  7  1  0  0  0  0
  9 14  1  0  0  0  0
 10 12  1  6  0  0  0
 10 13  1  0  0  0  0
 11  6  1  1  0  0  0
 13 14  1  1  0  0  0
 13 11  1  0  0  0  0
 15 12  1  6  0  0  0
 15 11  1  0  0  0  0
 15  3  1  0  0  0  0
 16 20  1  1  0  0  0
 17 16  1  0  0  0  0
 17 19  1  0  0  0  0
 18  2  1  0  0  0  0
 19 29  1  6  0  0  0
 19 18  1  0  0  0  0
 20 18  1  0  0  0  0
 21 25  2  0  0  0  0
 23 27  1  6  0  0  0
 23 22  1  0  0  0  0
 23 16  1  0  0  0  0
 24 25  1  0  0  0  0
 24 27  2  0  0  0  0
 25 26  1  0  0  0  0
 26 22  2  0  0  0  0
 28 29  3  0  0  0  0
M  END
>  <MODEL>
9

>  <REMARK>
 VINA RESULT:      -6.9      3.810      8.970
  Name = 
  3 active torsions:
  status: ('A' for Active; 'I' for Inactive)
    1  A    between atoms: N_1  and  C_12
    2  A    between atoms: C_4  and  N_10
    3  A    between atoms: C_18  and  C_29
                            x       y       z     vdW  Elec       q    Type
                         _______ _______ _______ _____ _____    ______ ____

>  <TORSDO>
F 3

$$$$
