=
 OpenBabel11062415003D

 31 34  0  0  1  0  0  0  0  0999 V2000
  189.8440  176.2950  138.2970 C   0  0  0  0  0  0  0  0  0  0  0  0
  187.9310  175.9810  136.3000 C   0  0  0  0  0  3  0  0  0  0  0  0
  188.6140  177.0110  138.4020 C   0  0  0  0  0  0  0  0  0  0  0  0
  185.9590  178.6280  139.0620 C   0  0  0  0  0  3  0  0  0  0  0  0
  186.0840  178.7550  137.6520 N   0  0  0  0  0  0  0  0  0  0  0  0
  187.7450  176.9570  137.2780 C   0  0  0  0  0  0  0  0  0  0  0  0
  188.8700  177.4260  140.8350 N   0  0  0  0  0  0  0  0  0  0  0  0
  191.1920  177.2130  140.2180 C   0  0  0  0  0  0  0  0  0  0  0  0
  186.9300  178.2400  139.8770 C   0  0  0  0  0  3  0  0  0  0  0  0
  192.4290  177.5550  140.6560 F   0  0  0  0  0  0  0  0  0  0  0  0
  190.0890  177.1520  141.1810 C   0  0  0  0  0  0  0  0  0  0  0  0
  189.0060  175.0990  136.3500 C   0  0  0  0  0  0  0  0  0  0  0  0
  191.0780  176.7490  138.9790 C   0  0  0  0  0  3  0  0  0  0  0  0
  189.9940  175.2900  137.3170 C   0  0  0  0  0  0  0  0  0  0  0  0
  191.2320  174.4460  137.2630 C   0  0  0  0  0  1  0  0  0  0  0  0
  186.8270  178.0360  136.8740 C   0  0  0  0  0  3  0  0  0  0  0  0
  188.3700  177.9650  139.5710 C   0  0  2  0  0  3  0  0  0  0  0  0
  190.4020  175.4500  142.7850 O   0  0  0  0  0  0  0  0  0  0  0  0
  190.5550  177.6190  143.6580 N   0  0  0  0  0  0  0  0  0  0  0  0
  190.3640  176.6910  142.5640 C   0  0  0  0  0  0  0  0  0  0  0  0
  190.9310  179.0030  143.3990 C   0  0  0  0  0  1  0  0  0  0  0  0
  188.1490  177.6030  145.1500 F   0  0  0  0  0  0  0  0  0  0  0  0
  191.6810  176.7530  145.6750 C   0  0  0  0  0  3  0  0  0  0  0  0
  189.3010  177.2080  145.7500 C   0  0  0  0  0  0  0  0  0  0  0  0
  190.5110  177.1820  145.0290 C   0  0  0  0  0  0  0  0  0  0  0  0
  188.1080  176.8200  147.7850 F   0  0  0  0  0  0  0  0  0  0  0  0
  189.2720  176.8020  147.0900 C   0  0  0  0  0  0  0  0  0  0  0  0
  190.4440  176.3740  147.7190 C   0  0  0  0  0  3  0  0  0  0  0  0
  191.6480  176.3490  147.0110 C   0  0  0  0  0  3  0  0  0  0  0  0
  188.4030  172.9150  135.4900 N   0  0  0  0  0  1  0  0  0  0  0  0
  189.1370  174.0790  135.4030 O   0  0  0  0  0  0  0  0  0  0  0  0
  1  3  1  0  0  0  0
  1 13  1  0  0  0  0
  2 12  2  0  0  0  0
  2  6  1  0  0  0  0
  3 17  1  0  0  0  0
  4  9  2  0  0  0  0
  5  4  1  0  0  0  0
  6  3  2  0  0  0  0
  7 11  2  0  0  0  0
  8 10  1  0  0  0  0
  8 11  1  0  0  0  0
 11 20  1  0  0  0  0
 12 14  1  0  0  0  0
 13  8  2  0  0  0  0
 14  1  2  0  0  0  0
 15 14  1  0  0  0  0
 16  6  1  0  0  0  0
 16  5  2  0  0  0  0
 17  9  1  1  0  0  0
 17  7  1  0  0  0  0
 19 25  1  0  0  0  0
 20 18  2  0  0  0  0
 20 19  1  0  0  0  0
 21 19  1  0  0  0  0
 22 24  1  0  0  0  0
 23 29  1  0  0  0  0
 24 27  2  0  0  0  0
 25 23  2  0  0  0  0
 25 24  1  0  0  0  0
 27 28  1  0  0  0  0
 27 26  1  0  0  0  0
 29 28  2  0  0  0  0
 31 30  1  0  0  0  0
 31 12  1  0  0  0  0
M  END
>  <MODEL>
1

>  <REMARK>
 VINA RESULT:      -9.0      0.000      0.000
  Name = 
  3 active torsions:
  status: ('A' for Active; 'I' for Inactive)
    1  A    between atoms: C_9  and  N_11
    2  A    between atoms: O_14  and  C_25
    3  A    between atoms: C_21  and  C_24
                            x       y       z     vdW  Elec       q    Type
                         _______ _______ _______ _____ _____    ______ ____

>  <TORSDO>
F 3

$$$$
=
 OpenBabel11062415003D

 31 34  0  0  1  0  0  0  0  0999 V2000
  190.5080  176.1620  138.1710 C   0  0  0  0  0  0  0  0  0  0  0  0
  189.0980  175.6210  135.8320 C   0  0  0  0  0  3  0  0  0  0  0  0
  189.2520  176.8050  137.9580 C   0  0  0  0  0  0  0  0  0  0  0  0
  186.4420  178.2900  137.9180 C   0  0  0  0  0  3  0  0  0  0  0  0
  186.8680  178.3470  136.5630 N   0  0  0  0  0  0  0  0  0  0  0  0
  188.6550  176.6360  136.6790 C   0  0  0  0  0  0  0  0  0  0  0  0
  188.9460  177.3690  140.3550 N   0  0  0  0  0  0  0  0  0  0  0  0
  191.3550  177.2660  140.2710 C   0  0  0  0  0  0  0  0  0  0  0  0
  187.2270  178.0080  138.9480 C   0  0  0  0  0  3  0  0  0  0  0  0
  192.4480  177.7080  140.9420 F   0  0  0  0  0  0  0  0  0  0  0  0
  190.0720  177.1910  140.9740 C   0  0  0  0  0  0  0  0  0  0  0  0
  190.1760  174.8110  136.1730 C   0  0  0  0  0  0  0  0  0  0  0  0
  191.5380  176.7280  139.0710 C   0  0  0  0  0  3  0  0  0  0  0  0
  190.9180  175.1150  137.3160 C   0  0  0  0  0  0  0  0  0  0  0  0
  192.1760  174.3480  137.5890 C   0  0  0  0  0  1  0  0  0  0  0  0
  187.7970  177.6330  136.0140 C   0  0  0  0  0  3  0  0  0  0  0  0
  188.7110  177.8060  138.9790 C   0  0  2  0  0  3  0  0  0  0  0  0
  189.9600  175.6050  142.7190 O   0  0  0  0  0  0  0  0  0  0  0  0
  190.1200  177.8230  143.4590 N   0  0  0  0  0  0  0  0  0  0  0  0
  190.0570  176.8250  142.4120 C   0  0  0  0  0  0  0  0  0  0  0  0
  190.6410  179.1550  143.1810 C   0  0  0  0  0  1  0  0  0  0  0  0
  192.0640  176.8460  145.2690 F   0  0  0  0  0  0  0  0  0  0  0  0
  188.4850  177.6580  145.2980 C   0  0  0  0  0  3  0  0  0  0  0  0
  190.7830  176.9950  145.6930 C   0  0  0  0  0  0  0  0  0  0  0  0
  189.7970  177.5000  144.8240 C   0  0  0  0  0  0  0  0  0  0  0  0
  191.4030  176.1840  147.8540 F   0  0  0  0  0  0  0  0  0  0  0  0
  190.4540  176.6640  147.0130 C   0  0  0  0  0  0  0  0  0  0  0  0
  189.1450  176.8290  147.4720 C   0  0  0  0  0  3  0  0  0  0  0  0
  188.1610  177.3260  146.6160 C   0  0  0  0  0  3  0  0  0  0  0  0
  189.8030  172.6020  135.2480 N   0  0  0  0  0  1  0  0  0  0  0  0
  190.5620  173.7490  135.3490 O   0  0  0  0  0  0  0  0  0  0  0  0
  1 13  1  0  0  0  0
  2 12  2  0  0  0  0
  2  6  1  0  0  0  0
  3  1  1  0  0  0  0
  3 17  1  0  0  0  0
  4  9  2  0  0  0  0
  5  4  1  0  0  0  0
  6  3  2  0  0  0  0
  7 11  2  0  0  0  0
  8 10  1  0  0  0  0
  8 11  1  0  0  0  0
 11 20  1  0  0  0  0
 12 14  1  0  0  0  0
 13  8  2  0  0  0  0
 14 15  1  0  0  0  0
 14  1  2  0  0  0  0
 16  5  2  0  0  0  0
 16  6  1  0  0  0  0
 17  9  1  6  0  0  0
 17  7  1  0  0  0  0
 19 25  1  0  0  0  0
 20 18  2  0  0  0  0
 20 19  1  0  0  0  0
 21 19  1  0  0  0  0
 22 24  1  0  0  0  0
 23 29  1  0  0  0  0
 24 27  2  0  0  0  0
 25 23  2  0  0  0  0
 25 24  1  0  0  0  0
 27 28  1  0  0  0  0
 27 26  1  0  0  0  0
 29 28  2  0  0  0  0
 30 31  1  0  0  0  0
 31 12  1  0  0  0  0
M  END
>  <MODEL>
2

>  <REMARK>
 VINA RESULT:      -8.8      1.270      1.587
  Name = 
  3 active torsions:
  status: ('A' for Active; 'I' for Inactive)
    1  A    between atoms: C_9  and  N_11
    2  A    between atoms: O_14  and  C_25
    3  A    between atoms: C_21  and  C_24
                            x       y       z     vdW  Elec       q    Type
                         _______ _______ _______ _____ _____    ______ ____

>  <TORSDO>
F 3

$$$$
=
 OpenBabel11062415003D

 31 34  0  0  1  0  0  0  0  0999 V2000
  187.9710  177.9840  142.2450 C   0  0  0  0  0  0  0  0  0  0  0  0
  187.6050  177.5490  144.9700 C   0  0  0  0  0  3  0  0  0  0  0  0
  189.0420  177.4240  143.0040 C   0  0  0  0  0  0  0  0  0  0  0  0
  191.5760  176.0220  144.3140 C   0  0  0  0  0  3  0  0  0  0  0  0
  191.1270  176.9130  145.3270 N   0  0  0  0  0  0  0  0  0  0  0  0
  188.8730  177.3840  144.4150 C   0  0  0  0  0  0  0  0  0  0  0  0
  190.2100  176.5260  141.0070 N   0  0  0  0  0  0  0  0  0  0  0  0
  189.0220  178.3610  139.9860 C   0  0  0  0  0  0  0  0  0  0  0  0
  191.2140  176.0790  143.0400 C   0  0  0  0  0  3  0  0  0  0  0  0
  189.0660  179.1590  138.8900 F   0  0  0  0  0  0  0  0  0  0  0  0
  189.6910  177.0580  139.9440 C   0  0  0  0  0  0  0  0  0  0  0  0
  186.4990  177.8380  144.1780 C   0  0  0  0  0  0  0  0  0  0  0  0
  188.2030  178.7050  140.9730 C   0  0  0  0  0  3  0  0  0  0  0  0
  186.6890  178.1100  142.8220 C   0  0  0  0  0  0  0  0  0  0  0  0
  185.5230  178.5860  142.0090 C   0  0  0  0  0  1  0  0  0  0  0  0
  189.9690  177.4860  145.3950 C   0  0  0  0  0  3  0  0  0  0  0  0
  190.3810  177.1070  142.3380 C   0  0  2  0  0  3  0  0  0  0  0  0
  188.6110  175.8640  138.2190 O   0  0  0  0  0  0  0  0  0  0  0  0
  190.9360  176.0140  137.9600 N   0  0  0  0  0  0  0  0  0  0  0  0
  189.7070  176.2970  138.6710 C   0  0  0  0  0  0  0  0  0  0  0  0
  192.1290  176.8170  138.1970 C   0  0  0  0  0  1  0  0  0  0  0  0
  192.7960  173.8810  138.0000 F   0  0  0  0  0  0  0  0  0  0  0  0
  190.1070  175.1040  135.8230 C   0  0  0  0  0  3  0  0  0  0  0  0
  191.9410  173.9920  136.9520 C   0  0  0  0  0  0  0  0  0  0  0  0
  190.9880  175.0280  136.9130 C   0  0  0  0  0  0  0  0  0  0  0  0
  192.9110  172.0480  135.9550 F   0  0  0  0  0  0  0  0  0  0  0  0
  191.9990  173.0500  135.9170 C   0  0  0  0  0  0  0  0  0  0  0  0
  191.1130  173.1370  134.8400 C   0  0  0  0  0  3  0  0  0  0  0  0
  190.1680  174.1630  134.7920 C   0  0  0  0  0  3  0  0  0  0  0  0
  184.8930  178.9280  145.6290 N   0  0  0  0  0  1  0  0  0  0  0  0
  185.2210  177.9270  144.7400 O   0  0  0  0  0  0  0  0  0  0  0  0
  1 14  2  0  0  0  0
  1  3  1  0  0  0  0
  3  6  2  0  0  0  0
  4  5  1  0  0  0  0
  5 16  2  0  0  0  0
  6  2  1  0  0  0  0
  6 16  1  0  0  0  0
  7 17  1  0  0  0  0
  8 13  2  0  0  0  0
  9  4  2  0  0  0  0
 10  8  1  0  0  0  0
 11  8  1  0  0  0  0
 11  7  2  0  0  0  0
 12 31  1  0  0  0  0
 12  2  2  0  0  0  0
 13  1  1  0  0  0  0
 14 12  1  0  0  0  0
 15 14  1  0  0  0  0
 17  3  1  0  0  0  0
 17  9  1  1  0  0  0
 18 20  2  0  0  0  0
 19 21  1  0  0  0  0
 19 20  1  0  0  0  0
 20 11  1  0  0  0  0
 23 25  1  0  0  0  0
 24 22  1  0  0  0  0
 25 24  2  0  0  0  0
 25 19  1  0  0  0  0
 27 26  1  0  0  0  0
 27 24  1  0  0  0  0
 28 27  2  0  0  0  0
 29 28  1  0  0  0  0
 29 23  2  0  0  0  0
 31 30  1  0  0  0  0
M  END
>  <MODEL>
3

>  <REMARK>
 VINA RESULT:      -8.0      3.193      8.215
  Name = 
  3 active torsions:
  status: ('A' for Active; 'I' for Inactive)
    1  A    between atoms: C_9  and  N_11
    2  A    between atoms: O_14  and  C_25
    3  A    between atoms: C_21  and  C_24
                            x       y       z     vdW  Elec       q    Type
                         _______ _______ _______ _____ _____    ______ ____

>  <TORSDO>
F 3

$$$$
=
 OpenBabel11062415003D

 31 34  0  0  1  0  0  0  0  0999 V2000
  182.6030  177.5010  140.4990 C   0  0  0  0  0  0  0  0  0  0  0  0
  179.9870  176.5850  140.2360 C   0  0  0  0  0  3  0  0  0  0  0  0
  181.6460  177.8510  141.4970 C   0  0  0  0  0  0  0  0  0  0  0  0
  179.8570  178.6940  143.9850 C   0  0  0  0  0  3  0  0  0  0  0  0
  178.9630  178.7930  142.8840 N   0  0  0  0  0  0  0  0  0  0  0  0
  180.2910  177.5120  141.2320 C   0  0  0  0  0  0  0  0  0  0  0  0
  183.3710  178.4220  143.1870 N   0  0  0  0  0  0  0  0  0  0  0  0
  184.6310  178.8360  141.1720 C   0  0  0  0  0  0  0  0  0  0  0  0
  181.1770  178.6250  143.8860 C   0  0  0  0  0  3  0  0  0  0  0  0
  185.7140  179.5260  140.7350 F   0  0  0  0  0  0  0  0  0  0  0  0
  184.5220  178.5120  142.5970 C   0  0  0  0  0  0  0  0  0  0  0  0
  180.9790  176.0390  139.4260 C   0  0  0  0  0  0  0  0  0  0  0  0
  183.8220  178.3070  140.2620 C   0  0  0  0  0  3  0  0  0  0  0  0
  182.2800  176.5370  139.5190 C   0  0  0  0  0  0  0  0  0  0  0  0
  183.3060  176.0680  138.5330 C   0  0  0  0  0  1  0  0  0  0  0  0
  179.1250  178.2760  141.7090 C   0  0  0  0  0  3  0  0  0  0  0  0
  182.0430  178.7480  142.6700 C   0  0  2  0  0  3  0  0  0  0  0  0
  186.6500  177.5120  142.8040 O   0  0  0  0  0  0  0  0  0  0  0  0
  185.9410  178.6450  144.7290 N   0  0  0  0  0  0  0  0  0  0  0  0
  185.7550  178.2040  143.3630 C   0  0  0  0  0  0  0  0  0  0  0  0
  185.1650  179.7590  145.2590 C   0  0  0  0  0  1  0  0  0  0  0  0
  185.6340  178.3880  147.5310 F   0  0  0  0  0  0  0  0  0  0  0  0
  188.1900  177.6680  144.9970 C   0  0  0  0  0  3  0  0  0  0  0  0
  186.8010  178.0000  146.9560 C   0  0  0  0  0  0  0  0  0  0  0  0
  186.9770  178.0930  145.5620 C   0  0  0  0  0  0  0  0  0  0  0  0
  187.6550  177.3850  149.1020 F   0  0  0  0  0  0  0  0  0  0  0  0
  187.8240  177.4820  147.7610 C   0  0  0  0  0  0  0  0  0  0  0  0
  189.0240  177.0590  147.1840 C   0  0  0  0  0  3  0  0  0  0  0  0
  189.2070  177.1520  145.8030 C   0  0  0  0  0  3  0  0  0  0  0  0
  179.7150  174.0920  138.7300 N   0  0  0  0  0  1  0  0  0  0  0  0
  180.6690  175.0560  138.4810 O   0  0  0  0  0  0  0  0  0  0  0  0
  1  3  1  0  0  0  0
  2  6  1  0  0  0  0
  3 17  1  0  0  0  0
  5  4  1  0  0  0  0
  6  3  2  0  0  0  0
  6 16  1  0  0  0  0
  8 11  1  0  0  0  0
  9  4  2  0  0  0  0
 10  8  1  0  0  0  0
 11  7  2  0  0  0  0
 11 20  1  0  0  0  0
 12 14  1  0  0  0  0
 12  2  2  0  0  0  0
 13  1  1  0  0  0  0
 13  8  2  0  0  0  0
 14  1  2  0  0  0  0
 15 14  1  0  0  0  0
 16  5  2  0  0  0  0
 17  7  1  0  0  0  0
 17  9  1  1  0  0  0
 18 20  2  0  0  0  0
 19 21  1  0  0  0  0
 19 25  1  0  0  0  0
 20 19  1  0  0  0  0
 23 25  2  0  0  0  0
 23 29  1  0  0  0  0
 24 22  1  0  0  0  0
 24 27  2  0  0  0  0
 25 24  1  0  0  0  0
 27 26  1  0  0  0  0
 28 27  1  0  0  0  0
 29 28  2  0  0  0  0
 31 30  1  0  0  0  0
 31 12  1  0  0  0  0
M  END
>  <MODEL>
4

>  <REMARK>
 VINA RESULT:      -7.4      5.070      6.620
  Name = 
  3 active torsions:
  status: ('A' for Active; 'I' for Inactive)
    1  A    between atoms: C_9  and  N_11
    2  A    between atoms: O_14  and  C_25
    3  A    between atoms: C_21  and  C_24
                            x       y       z     vdW  Elec       q    Type
                         _______ _______ _______ _____ _____    ______ ____

>  <TORSDO>
F 3

$$$$
=
 OpenBabel11062415003D

 31 34  0  0  1  0  0  0  0  0999 V2000
  186.8260  178.3950  141.7120 C   0  0  0  0  0  0  0  0  0  0  0  0
  185.4220  178.1900  144.1070 C   0  0  0  0  0  3  0  0  0  0  0  0
  187.5120  177.9400  142.8770 C   0  0  0  0  0  0  0  0  0  0  0  0
  189.3270  176.7460  145.1970 C   0  0  0  0  0  3  0  0  0  0  0  0
  188.5210  177.7070  145.8660 N   0  0  0  0  0  0  0  0  0  0  0  0
  186.8050  178.0200  144.1080 C   0  0  0  0  0  0  0  0  0  0  0  0
  189.3650  176.9090  141.5880 N   0  0  0  0  0  0  0  0  0  0  0  0
  188.6770  178.6060  140.0160 C   0  0  0  0  0  0  0  0  0  0  0  0
  189.4920  176.6770  143.8840 C   0  0  0  0  0  3  0  0  0  0  0  0
  189.1500  179.3050  138.9540 F   0  0  0  0  0  0  0  0  0  0  0  0
  189.3050  177.3280  140.3620 C   0  0  0  0  0  0  0  0  0  0  0  0
  184.7140  178.3710  142.9220 C   0  0  0  0  0  0  0  0  0  0  0  0
  187.5390  179.0080  140.5690 C   0  0  0  0  0  3  0  0  0  0  0  0
  185.4200  178.5290  141.7290 C   0  0  0  0  0  0  0  0  0  0  0  0
  184.6670  178.8910  140.4850 C   0  0  0  0  0  1  0  0  0  0  0  0
  187.4310  178.2450  145.4230 C   0  0  0  0  0  3  0  0  0  0  0  0
  189.0040  177.6110  142.8190 C   0  0  2  0  0  3  0  0  0  0  0  0
  190.9370  175.9020  139.4270 O   0  0  0  0  0  0  0  0  0  0  0  0
  189.0810  176.2580  138.0420 N   0  0  0  0  0  0  0  0  0  0  0  0
  189.8150  176.4570  139.2740 C   0  0  0  0  0  0  0  0  0  0  0  0
  187.6470  176.5180  137.9840 C   0  0  0  0  0  1  0  0  0  0  0  0
  189.0000  173.4750  137.5300 F   0  0  0  0  0  0  0  0  0  0  0  0
  190.3850  176.4910  135.9620 C   0  0  0  0  0  3  0  0  0  0  0  0
  189.6640  174.2860  136.6670 C   0  0  0  0  0  0  0  0  0  0  0  0
  189.7040  175.6780  136.8810 C   0  0  0  0  0  0  0  0  0  0  0  0
  190.2510  172.3910  135.3350 F   0  0  0  0  0  0  0  0  0  0  0  0
  190.2930  173.7290  135.5470 C   0  0  0  0  0  0  0  0  0  0  0  0
  190.9640  174.5510  134.6380 C   0  0  0  0  0  3  0  0  0  0  0  0
  191.0100  175.9310  134.8460 C   0  0  0  0  0  3  0  0  0  0  0  0
  182.6400  179.0110  144.0000 N   0  0  0  0  0  1  0  0  0  0  0  0
  183.3190  178.4660  142.9310 O   0  0  0  0  0  0  0  0  0  0  0  0
  1 14  2  0  0  0  0
  1  3  1  0  0  0  0
  2  6  1  0  0  0  0
  3  6  2  0  0  0  0
  4  5  1  0  0  0  0
  6 16  1  0  0  0  0
  7 17  1  0  0  0  0
  8 11  1  0  0  0  0
  8 13  2  0  0  0  0
  9  4  2  0  0  0  0
 10  8  1  0  0  0  0
 11  7  2  0  0  0  0
 12 31  1  0  0  0  0
 12  2  2  0  0  0  0
 13  1  1  0  0  0  0
 14 12  1  0  0  0  0
 15 14  1  0  0  0  0
 16  5  2  0  0  0  0
 17  3  1  0  0  0  0
 17  9  1  1  0  0  0
 19 20  1  0  0  0  0
 20 18  2  0  0  0  0
 20 11  1  0  0  0  0
 21 19  1  0  0  0  0
 23 25  1  0  0  0  0
 24 25  2  0  0  0  0
 24 22  1  0  0  0  0
 25 19  1  0  0  0  0
 26 27  1  0  0  0  0
 27 24  1  0  0  0  0
 28 29  1  0  0  0  0
 28 27  2  0  0  0  0
 29 23  2  0  0  0  0
 31 30  1  0  0  0  0
M  END
>  <MODEL>
5

>  <REMARK>
 VINA RESULT:      -7.3      3.408      8.001
  Name = 
  3 active torsions:
  status: ('A' for Active; 'I' for Inactive)
    1  A    between atoms: C_9  and  N_11
    2  A    between atoms: O_14  and  C_25
    3  A    between atoms: C_21  and  C_24
                            x       y       z     vdW  Elec       q    Type
                         _______ _______ _______ _____ _____    ______ ____

>  <TORSDO>
F 3

$$$$
=
 OpenBabel11062415003D

 31 34  0  0  1  0  0  0  0  0999 V2000
  191.6390  175.2560  137.6570 C   0  0  0  0  0  0  0  0  0  0  0  0
  191.0940  173.6590  135.4430 C   0  0  0  0  0  3  0  0  0  0  0  0
  190.3470  175.3290  137.0550 C   0  0  0  0  0  0  0  0  0  0  0  0
  187.3320  175.6460  136.0990 C   0  0  0  0  0  3  0  0  0  0  0  0
  188.0540  175.4970  134.8830 N   0  0  0  0  0  0  0  0  0  0  0  0
  190.1720  174.6310  135.8290 C   0  0  0  0  0  0  0  0  0  0  0  0
  189.2890  176.3490  139.0550 N   0  0  0  0  0  0  0  0  0  0  0  0
  191.5610  177.0950  139.3770 C   0  0  0  0  0  0  0  0  0  0  0  0
  187.8760  175.9410  137.2710 C   0  0  0  0  0  3  0  0  0  0  0  0
  192.2670  178.0570  140.0230 F   0  0  0  0  0  0  0  0  0  0  0  0
  190.2210  176.7520  139.8620 C   0  0  0  0  0  0  0  0  0  0  0  0
  192.2380  173.4060  136.1930 C   0  0  0  0  0  0  0  0  0  0  0  0
  192.1920  176.3660  138.4660 C   0  0  0  0  0  3  0  0  0  0  0  0
  192.5410  174.2410  137.2700 C   0  0  0  0  0  0  0  0  0  0  0  0
  193.8560  174.0730  137.9690 C   0  0  0  0  0  1  0  0  0  0  0  0
  189.2590  175.0450  134.7490 C   0  0  0  0  0  3  0  0  0  0  0  0
  189.2950  176.2980  137.5930 C   0  0  2  0  0  3  0  0  0  0  0  0
  190.4710  175.9070  142.0510 O   0  0  0  0  0  0  0  0  0  0  0  0
  189.0840  177.7910  141.9120 N   0  0  0  0  0  0  0  0  0  0  0  0
  189.9480  176.7920  141.3190 C   0  0  0  0  0  0  0  0  0  0  0  0
  188.8080  179.0400  141.2120 C   0  0  0  0  0  1  0  0  0  0  0  0
  190.6950  178.2920  144.1850 F   0  0  0  0  0  0  0  0  0  0  0  0
  187.2530  177.2410  143.4700 C   0  0  0  0  0  3  0  0  0  0  0  0
  189.4130  177.8830  144.3620 C   0  0  0  0  0  0  0  0  0  0  0  0
  188.5780  177.6470  143.2520 C   0  0  0  0  0  0  0  0  0  0  0  0
  189.7170  177.9510  146.7310 F   0  0  0  0  0  0  0  0  0  0  0  0
  188.9180  177.7190  145.6610 C   0  0  0  0  0  0  0  0  0  0  0  0
  187.5950  177.3170  145.8620 C   0  0  0  0  0  3  0  0  0  0  0  0
  186.7630  177.0780  144.7670 C   0  0  0  0  0  3  0  0  0  0  0  0
  193.9340  172.4800  134.7300 N   0  0  0  0  0  1  0  0  0  0  0  0
  193.1150  172.3770  135.8350 O   0  0  0  0  0  0  0  0  0  0  0  0
  1 13  1  0  0  0  0
  2  6  2  0  0  0  0
  2 12  1  0  0  0  0
  3 17  1  0  0  0  0
  3  1  2  0  0  0  0
  4  9  2  0  0  0  0
  5  4  1  0  0  0  0
  6  3  1  0  0  0  0
  7 11  2  0  0  0  0
  8 11  1  0  0  0  0
  8 10  1  0  0  0  0
 11 20  1  0  0  0  0
 12 14  2  0  0  0  0
 13  8  2  0  0  0  0
 14  1  1  0  0  0  0
 14 15  1  0  0  0  0
 16  5  2  0  0  0  0
 16  6  1  0  0  0  0
 17  9  1  1  0  0  0
 17  7  1  0  0  0  0
 19 25  1  0  0  0  0
 20 19  1  0  0  0  0
 20 18  2  0  0  0  0
 21 19  1  0  0  0  0
 22 24  1  0  0  0  0
 23 29  1  0  0  0  0
 24 27  2  0  0  0  0
 25 23  2  0  0  0  0
 25 24  1  0  0  0  0
 27 28  1  0  0  0  0
 27 26  1  0  0  0  0
 29 28  2  0  0  0  0
 30 31  1  0  0  0  0
 31 12  1  0  0  0  0
M  END
>  <MODEL>
6

>  <REMARK>
 VINA RESULT:      -7.3      2.115      3.217
  Name = 
  3 active torsions:
  status: ('A' for Active; 'I' for Inactive)
    1  A    between atoms: C_9  and  N_11
    2  A    between atoms: O_14  and  C_25
    3  A    between atoms: C_21  and  C_24
                            x       y       z     vdW  Elec       q    Type
                         _______ _______ _______ _____ _____    ______ ____

>  <TORSDO>
F 3

$$$$
=
 OpenBabel11062415003D

 31 34  0  0  1  0  0  0  0  0999 V2000
  186.3320  178.4560  144.9380 C   0  0  0  0  0  0  0  0  0  0  0  0
  188.7820  177.2790  145.5390 C   0  0  0  0  0  3  0  0  0  0  0  0
  187.2300  178.1500  143.8730 C   0  0  0  0  0  0  0  0  0  0  0  0
  188.8790  177.4740  141.2410 C   0  0  0  0  0  3  0  0  0  0  0  0
  189.8800  177.8750  142.1670 N   0  0  0  0  0  0  0  0  0  0  0  0
  188.5330  177.7160  144.2390 C   0  0  0  0  0  0  0  0  0  0  0  0
  185.4620  178.2350  142.1340 N   0  0  0  0  0  0  0  0  0  0  0  0
  184.4860  179.7140  143.7730 C   0  0  0  0  0  0  0  0  0  0  0  0
  187.5810  177.7020  141.3820 C   0  0  0  0  0  3  0  0  0  0  0  0
  183.5740  180.7130  143.8720 F   0  0  0  0  0  0  0  0  0  0  0  0
  184.4020  178.7860  142.6410 C   0  0  0  0  0  0  0  0  0  0  0  0
  187.8000  177.3350  146.5240 C   0  0  0  0  0  0  0  0  0  0  0  0
  185.2850  179.4960  144.8090 C   0  0  0  0  0  3  0  0  0  0  0  0
  186.5920  177.9750  146.2390 C   0  0  0  0  0  0  0  0  0  0  0  0
  185.6060  178.1830  147.3480 C   0  0  0  0  0  1  0  0  0  0  0  0
  189.7540  177.9640  143.4520 C   0  0  0  0  0  3  0  0  0  0  0  0
  186.8690  178.5010  142.4290 C   0  0  2  0  0  3  0  0  0  0  0  0
  182.1490  178.1530  142.9400 O   0  0  0  0  0  0  0  0  0  0  0  0
  182.8050  178.2990  140.6950 N   0  0  0  0  0  0  0  0  0  0  0  0
  183.0680  178.4090  142.1140 C   0  0  0  0  0  0  0  0  0  0  0  0
  183.6670  178.9690  139.7290 C   0  0  0  0  0  1  0  0  0  0  0  0
  182.8470  175.6170  139.7910 F   0  0  0  0  0  0  0  0  0  0  0  0
  180.4010  178.3310  140.1420 C   0  0  0  0  0  3  0  0  0  0  0  0
  181.6840  176.3140  139.7350 C   0  0  0  0  0  0  0  0  0  0  0  0
  181.6240  177.6430  140.1980 C   0  0  0  0  0  0  0  0  0  0  0  0
  180.5870  174.4120  138.7930 F   0  0  0  0  0  0  0  0  0  0  0  0
  180.5340  175.6920  139.2330 C   0  0  0  0  0  0  0  0  0  0  0  0
  179.3230  176.3890  139.1860 C   0  0  0  0  0  3  0  0  0  0  0  0
  179.2570  177.7070  139.6400 C   0  0  0  0  0  3  0  0  0  0  0  0
  188.5650  177.6130  148.8060 N   0  0  0  0  0  1  0  0  0  0  0  0
  188.0410  176.8250  147.8030 O   0  0  0  0  0  0  0  0  0  0  0  0
  1 14  1  0  0  0  0
  2 12  1  0  0  0  0
  3  6  1  0  0  0  0
  3  1  2  0  0  0  0
  4  9  2  0  0  0  0
  4  5  1  0  0  0  0
  5 16  2  0  0  0  0
  6  2  2  0  0  0  0
  7 17  1  0  0  0  0
  7 11  2  0  0  0  0
  8 10  1  0  0  0  0
  8 13  2  0  0  0  0
 11  8  1  0  0  0  0
 12 31  1  0  0  0  0
 13  1  1  0  0  0  0
 14 12  2  0  0  0  0
 14 15  1  0  0  0  0
 16  6  1  0  0  0  0
 17  9  1  6  0  0  0
 17  3  1  0  0  0  0
 19 20  1  0  0  0  0
 20 11  1  0  0  0  0
 20 18  2  0  0  0  0
 21 19  1  0  0  0  0
 23 25  1  0  0  0  0
 24 22  1  0  0  0  0
 24 25  2  0  0  0  0
 25 19  1  0  0  0  0
 26 27  1  0  0  0  0
 27 24  1  0  0  0  0
 28 27  2  0  0  0  0
 28 29  1  0  0  0  0
 29 23  2  0  0  0  0
 31 30  1  0  0  0  0
M  END
>  <MODEL>
7

>  <REMARK>
 VINA RESULT:      -7.1      4.864      9.382
  Name = 
  3 active torsions:
  status: ('A' for Active; 'I' for Inactive)
    1  A    between atoms: C_9  and  N_11
    2  A    between atoms: O_14  and  C_25
    3  A    between atoms: C_21  and  C_24
                            x       y       z     vdW  Elec       q    Type
                         _______ _______ _______ _____ _____    ______ ____

>  <TORSDO>
F 3

$$$$
=
 OpenBabel11062415003D

 31 34  0  0  1  0  0  0  0  0999 V2000
  183.1400  177.4340  137.8950 C   0  0  0  0  0  0  0  0  0  0  0  0
  180.6280  177.3330  136.6980 C   0  0  0  0  0  3  0  0  0  0  0  0
  182.3610  178.6280  137.8230 C   0  0  0  0  0  0  0  0  0  0  0  0
  180.8690  181.4290  137.9970 C   0  0  0  0  0  3  0  0  0  0  0  0
  180.4850  180.9260  136.7240 N   0  0  0  0  0  0  0  0  0  0  0  0
  181.1680  178.5680  137.0510 C   0  0  0  0  0  0  0  0  0  0  0  0
  183.6430  179.7710  139.6140 N   0  0  0  0  0  0  0  0  0  0  0  0
  185.3380  178.2530  138.8120 C   0  0  0  0  0  0  0  0  0  0  0  0
  181.8830  180.9720  138.7180 C   0  0  0  0  0  3  0  0  0  0  0  0
  186.6860  178.1000  138.7960 F   0  0  0  0  0  0  0  0  0  0  0  0
  184.7320  179.1040  139.8400 C   0  0  0  0  0  0  0  0  0  0  0  0
  181.2750  176.1410  137.0120 C   0  0  0  0  0  0  0  0  0  0  0  0
  184.6140  177.4650  138.0270 C   0  0  0  0  0  3  0  0  0  0  0  0
  182.5580  176.1920  137.5610 C   0  0  0  0  0  0  0  0  0  0  0  0
  183.3190  174.9130  137.7400 C   0  0  0  0  0  1  0  0  0  0  0  0
  180.5880  179.7030  136.3120 C   0  0  0  0  0  3  0  0  0  0  0  0
  182.9150  179.9480  138.3580 C   0  0  2  0  0  3  0  0  0  0  0  0
  186.4310  179.7530  141.3440 O   0  0  0  0  0  0  0  0  0  0  0  0
  184.7280  178.4780  142.3260 N   0  0  0  0  0  0  0  0  0  0  0  0
  185.3370  179.1420  141.1940 C   0  0  0  0  0  0  0  0  0  0  0  0
  183.3110  178.1350  142.3090 C   0  0  0  0  0  1  0  0  0  0  0  0
  184.0060  179.7340  144.7580 F   0  0  0  0  0  0  0  0  0  0  0  0
  186.5690  177.3960  143.5610 C   0  0  0  0  0  3  0  0  0  0  0  0
  185.0850  178.9110  144.7350 C   0  0  0  0  0  0  0  0  0  0  0  0
  185.4570  178.2530  143.5470 C   0  0  0  0  0  0  0  0  0  0  0  0
  185.4540  179.3290  147.0590 F   0  0  0  0  0  0  0  0  0  0  0  0
  185.8140  178.7020  145.9120 C   0  0  0  0  0  0  0  0  0  0  0  0
  186.9160  177.8430  145.9120 C   0  0  0  0  0  3  0  0  0  0  0  0
  187.2930  177.1910  144.7370 C   0  0  0  0  0  3  0  0  0  0  0  0
  179.7540  174.3350  137.5560 N   0  0  0  0  0  1  0  0  0  0  0  0
  180.6860  174.9080  136.7170 O   0  0  0  0  0  0  0  0  0  0  0  0
  1 13  1  0  0  0  0
  2 12  2  0  0  0  0
  2  6  1  0  0  0  0
  3  1  1  0  0  0  0
  3 17  1  0  0  0  0
  4  9  2  0  0  0  0
  5  4  1  0  0  0  0
  6  3  2  0  0  0  0
  7 11  2  0  0  0  0
  8 11  1  0  0  0  0
 10  8  1  0  0  0  0
 11 20  1  0  0  0  0
 12 14  1  0  0  0  0
 13  8  2  0  0  0  0
 14 15  1  0  0  0  0
 14  1  2  0  0  0  0
 16  5  2  0  0  0  0
 16  6  1  0  0  0  0
 17  9  1  1  0  0  0
 17  7  1  0  0  0  0
 19 25  1  0  0  0  0
 20 18  2  0  0  0  0
 20 19  1  0  0  0  0
 21 19  1  0  0  0  0
 23 29  1  0  0  0  0
 24 22  1  0  0  0  0
 24 27  2  0  0  0  0
 25 23  2  0  0  0  0
 25 24  1  0  0  0  0
 27 28  1  0  0  0  0
 27 26  1  0  0  0  0
 29 28  2  0  0  0  0
 31 12  1  0  0  0  0
 31 30  1  0  0  0  0
M  END
>  <MODEL>
8

>  <REMARK>
 VINA RESULT:      -7.0      4.832      6.318
  Name = 
  3 active torsions:
  status: ('A' for Active; 'I' for Inactive)
    1  A    between atoms: C_9  and  N_11
    2  A    between atoms: O_14  and  C_25
    3  A    between atoms: C_21  and  C_24
                            x       y       z     vdW  Elec       q    Type
                         _______ _______ _______ _____ _____    ______ ____

>  <TORSDO>
F 3

$$$$
=
 OpenBabel11062415003D

 31 34  0  0  1  0  0  0  0  0999 V2000
  187.5200  177.4930  145.1560 C   0  0  0  0  0  0  0  0  0  0  0  0
  185.9650  178.9550  146.9440 C   0  0  0  0  0  3  0  0  0  0  0  0
  186.3460  178.1460  144.6760 C   0  0  0  0  0  0  0  0  0  0  0  0
  183.9180  179.5820  143.2100 C   0  0  0  0  0  3  0  0  0  0  0  0
  183.3710  179.2000  144.4660 N   0  0  0  0  0  0  0  0  0  0  0  0
  185.4930  178.7300  145.6520 C   0  0  0  0  0  0  0  0  0  0  0  0
  187.0730  178.0720  142.3040 N   0  0  0  0  0  0  0  0  0  0  0  0
  188.2830  176.1650  143.1560 C   0  0  0  0  0  0  0  0  0  0  0  0
  185.0430  179.1040  142.6980 C   0  0  0  0  0  3  0  0  0  0  0  0
  188.8680  175.0190  142.7290 F   0  0  0  0  0  0  0  0  0  0  0  0
  188.0770  177.2570  142.2000 C   0  0  0  0  0  0  0  0  0  0  0  0
  187.2360  178.5430  147.3340 C   0  0  0  0  0  0  0  0  0  0  0  0
  188.1100  176.3260  144.4620 C   0  0  0  0  0  3  0  0  0  0  0  0
  187.9930  177.7630  146.4590 C   0  0  0  0  0  0  0  0  0  0  0  0
  189.2860  177.1800  146.9430 C   0  0  0  0  0  1  0  0  0  0  0  0
  184.0300  178.8540  145.5240 C   0  0  0  0  0  3  0  0  0  0  0  0
  185.9280  178.0100  143.2120 C   0  0  2  0  0  3  0  0  0  0  0  0
  188.7110  178.0420  140.0660 O   0  0  0  0  0  0  0  0  0  0  0  0
  190.4580  177.0500  141.2720 N   0  0  0  0  0  0  0  0  0  0  0  0
  189.0840  177.4810  141.1330 C   0  0  0  0  0  0  0  0  0  0  0  0
  191.0240  176.7930  142.5910 C   0  0  0  0  0  1  0  0  0  0  0  0
  189.7100  175.7800  138.8550 F   0  0  0  0  0  0  0  0  0  0  0  0
  192.6250  177.5530  140.2060 C   0  0  0  0  0  3  0  0  0  0  0  0
  190.9480  176.3260  138.9580 C   0  0  0  0  0  0  0  0  0  0  0  0
  191.3430  176.9850  140.1380 C   0  0  0  0  0  0  0  0  0  0  0  0
  191.4450  175.6220  136.7290 F   0  0  0  0  0  0  0  0  0  0  0  0
  191.8250  176.2500  137.8680 C   0  0  0  0  0  0  0  0  0  0  0  0
  193.0960  176.8230  137.9500 C   0  0  0  0  0  3  0  0  0  0  0  0
  193.4960  177.4750  139.1180 C   0  0  0  0  0  3  0  0  0  0  0  0
  187.8190  177.8760  149.5900 N   0  0  0  0  0  1  0  0  0  0  0  0
  187.7230  178.8410  148.6100 O   0  0  0  0  0  0  0  0  0  0  0  0
  1 14  1  0  0  0  0
  2 12  1  0  0  0  0
  3  1  2  0  0  0  0
  3  6  1  0  0  0  0
  4  5  1  0  0  0  0
  5 16  2  0  0  0  0
  6  2  2  0  0  0  0
  7 17  1  0  0  0  0
  8 13  2  0  0  0  0
  9  4  2  0  0  0  0
 10  8  1  0  0  0  0
 11  7  2  0  0  0  0
 11  8  1  0  0  0  0
 12 31  1  0  0  0  0
 13  1  1  0  0  0  0
 14 15  1  0  0  0  0
 14 12  2  0  0  0  0
 16  6  1  0  0  0  0
 17  9  1  6  0  0  0
 17  3  1  0  0  0  0
 18 20  2  0  0  0  0
 19 21  1  0  0  0  0
 20 19  1  0  0  0  0
 20 11  1  0  0  0  0
 22 24  1  0  0  0  0
 24 25  2  0  0  0  0
 25 23  1  0  0  0  0
 25 19  1  0  0  0  0
 26 27  1  0  0  0  0
 27 28  2  0  0  0  0
 27 24  1  0  0  0  0
 28 29  1  0  0  0  0
 29 23  2  0  0  0  0
 31 30  1  0  0  0  0
M  END
>  <MODEL>
9

>  <REMARK>
 VINA RESULT:      -6.7      3.500      7.878
  Name = 
  3 active torsions:
  status: ('A' for Active; 'I' for Inactive)
    1  A    between atoms: C_9  and  N_11
    2  A    between atoms: O_14  and  C_25
    3  A    between atoms: C_21  and  C_24
                            x       y       z     vdW  Elec       q    Type
                         _______ _______ _______ _____ _____    ______ ____

>  <TORSDO>
F 3

$$$$
