=
 OpenBabel11062414363D

 38 43  0  0  1  0  0  0  0  0999 V2000
  184.2130  178.9360  142.0730 C   0  0  0  0  0  0  0  0  0  0  0  0
  185.1850  179.0090  142.9970 N   0  0  0  0  0  2  0  0  0  0  0  0
  183.1480  178.7880  144.0110 C   0  0  0  0  0  3  0  0  0  0  0  0
  182.9830  178.7910  142.6420 C   0  0  0  0  0  0  0  0  0  0  0  0
  182.0130  178.4300  140.3790 C   0  0  1  0  0  3  0  0  0  0  0  0
  184.3670  179.0750  140.6240 C   0  0  0  0  0  0  0  0  0  0  0  0
  180.7610  178.0020  142.3870 O   0  0  0  0  0  1  0  0  0  0  0  0
  183.3180  178.8940  139.8690 N   0  0  0  0  0  0  0  0  0  0  0  0
  181.7230  178.8520  141.8380 C   0  0  1  0  0  3  0  0  0  0  0  0
  184.5250  178.8940  144.1700 C   0  0  0  0  0  0  0  0  0  0  0  0
  180.9420  178.8480  139.4790 N   0  0  0  0  0  0  0  0  0  0  0  0
  179.4100  178.3360  137.7910 O   0  0  0  0  0  0  0  0  0  0  0  0
  180.3220  177.9320  138.5620 C   0  0  0  0  0  0  0  0  0  0  0  0
  180.7280  176.5950  138.5310 O   0  0  0  0  0  0  0  0  0  0  0  0
  180.0270  175.5790  139.2310 C   0  0  0  0  0  1  0  0  0  0  0  0
  180.3920  180.5270  139.5750 S   0  0  0  0  0  0  0  0  0  0  0  0
  181.2130  182.5070  137.9060 C   0  0  0  0  0  2  0  0  0  0  0  0
  181.4380  181.0350  138.1800 C   0  0  0  0  0  3  0  0  0  0  0  0
  180.5580  181.4660  137.0260 C   0  0  0  0  0  2  0  0  0  0  0  0
  185.6130  179.4410  140.0910 O   0  0  0  0  0  0  0  0  0  0  0  0
  187.4610  177.1220  137.8380 C   0  0  0  0  0  3  0  0  0  0  0  0
  188.6990  177.4400  139.8370 C   0  0  0  0  0  3  0  0  0  0  0  0
  186.5840  178.5770  139.5610 C   0  0  0  0  0  0  0  0  0  0  0  0
  188.5530  176.8740  138.6090 N   0  0  0  0  0  0  0  0  0  0  0  0
  186.4590  177.9770  138.2990 C   0  0  0  0  0  3  0  0  0  0  0  0
  187.7160  178.3000  140.3320 C   0  0  0  0  0  3  0  0  0  0  0  0
  185.2090  178.9580  145.4900 C   0  0  0  0  0  2  0  0  0  0  0  0
  185.9460  177.7280  145.7230 N   0  0  0  0  0  2  0  0  0  0  0  0
  187.3390  178.0970  145.9350 C   0  0  1  0  0  3  0  0  0  0  0  0
  187.8710  177.3890  147.1780 C   0  0  0  0  0  2  0  0  0  0  0  0
  187.9450  178.2720  148.2560 O   0  0  0  0  0  1  0  0  0  0  0  0
  187.5860  176.5840  143.9550 C   0  0  0  0  0  1  0  0  0  0  0  0
  188.1810  177.7710  144.6960 C   0  0  2  0  0  3  0  0  0  0  0  0
  189.4900  177.4570  145.0720 O   0  0  0  0  0  0  0  0  0  0  0  0
  190.6750  178.2570  143.1620 C   0  0  2  0  0  3  0  0  0  0  0  0
  191.6710  178.0260  144.2730 C   0  0  1  0  0  3  0  0  0  0  0  0
  190.2720  178.5170  144.6030 C   0  0  2  0  0  3  0  0  0  0  0  0
  191.6060  177.0610  143.1050 C   0  0  0  0  0  2  0  0  0  0  0  0
  1  4  2  0  0  0  0
  1  2  1  0  0  0  0
  2 10  1  0  0  0  0
  3 10  2  0  0  0  0
  4  3  1  0  0  0  0
  5 11  1  6  0  0  0
  5  9  1  0  0  0  0
  6  1  1  0  0  0  0
  8  5  1  0  0  0  0
  8  6  2  0  0  0  0
  9  7  1  1  0  0  0
  9  4  1  0  0  0  0
 10 27  1  0  0  0  0
 11 16  1  0  0  0  0
 12 13  2  0  0  0  0
 13 11  1  0  0  0  0
 14 13  1  0  0  0  0
 14 15  1  0  0  0  0
 17 18  1  0  0  0  0
 18 16  1  0  0  0  0
 19 17  1  0  0  0  0
 19 18  1  0  0  0  0
 20  6  1  0  0  0  0
 21 25  2  0  0  0  0
 21 24  1  0  0  0  0
 22 26  1  0  0  0  0
 23 20  1  0  0  0  0
 23 26  2  0  0  0  0
 24 22  2  0  0  0  0
 25 23  1  0  0  0  0
 27 28  1  0  0  0  0
 28 29  1  0  0  0  0
 29 30  1  1  0  0  0
 30 31  1  0  0  0  0
 33 32  1  1  0  0  0
 33 34  1  0  0  0  0
 33 29  1  0  0  0  0
 35 38  1  1  0  0  0
 35 36  1  0  0  0  0
 35 37  1  0  0  0  0
 36 38  1  1  0  0  0
 36 37  1  0  0  0  0
 37 34  1  1  0  0  0
M  END
>  <MODEL>
1

>  <REMARK>
 VINA RESULT:      -7.0      0.000      0.000
  Name = 
  13 active torsions:
  status: ('A' for Active; 'I' for Inactive)
    1  A    between atoms: O_2  and  C_27
    2  A    between atoms: O_7  and  C_18
    3  A    between atoms: O_7  and  C_20
    4  A    between atoms: C_9  and  N_16
    5  A    between atoms: C_11  and  CA_12
    6  A    between atoms: CA_12  and  N_28
    7  A    between atoms: CA_12  and  C_36
    8  A    between atoms: O_15  and  C_25
    9  A    between atoms: O_15  and  C_36
   10  A    between atoms: N_16  and  S_17
   11  A    between atoms: S_17  and  C_24
   12  A    between atoms: N_28  and  C_31
   13  A    between atoms: C_31  and  C_34
                            x       y       z     vdW  Elec       q    Type
                         _______ _______ _______ _____ _____    ______ ____

>  <TORSDO>
F 13

$$$$
=
 OpenBabel11062414363D

 38 43  0  0  1  0  0  0  0  0999 V2000
  185.6250  178.4830  139.0750 C   0  0  0  0  0  0  0  0  0  0  0  0
  186.9610  178.3540  139.0430 N   0  0  0  0  0  2  0  0  0  0  0  0
  186.0090  177.1410  137.3540 C   0  0  0  0  0  3  0  0  0  0  0  0
  185.0240  177.7830  138.0730 C   0  0  0  0  0  0  0  0  0  0  0  0
  182.8500  178.8260  138.6910 C   0  0  1  0  0  3  0  0  0  0  0  0
  184.8360  179.1990  140.0800 C   0  0  0  0  0  0  0  0  0  0  0  0
  183.1340  177.5770  136.6550 O   0  0  0  0  0  1  0  0  0  0  0  0
  183.5470  179.2890  139.9070 N   0  0  0  0  0  0  0  0  0  0  0  0
  183.5380  177.6310  137.9900 C   0  0  1  0  0  3  0  0  0  0  0  0
  187.1820  177.5530  137.9770 C   0  0  0  0  0  0  0  0  0  0  0  0
  181.4510  178.5360  138.9900 N   0  0  0  0  0  0  0  0  0  0  0  0
  179.1830  178.8150  138.5000 O   0  0  0  0  0  0  0  0  0  0  0  0
  180.3800  179.0770  138.2000 C   0  0  0  0  0  0  0  0  0  0  0  0
  180.6660  179.8880  137.0980 O   0  0  0  0  0  0  0  0  0  0  0  0
  180.5470  181.3020  137.1540 C   0  0  0  0  0  1  0  0  0  0  0  0
  181.1040  177.4550  140.3460 S   0  0  0  0  0  0  0  0  0  0  0  0
  181.2370  178.8640  142.6650 C   0  0  0  0  0  2  0  0  0  0  0  0
  180.4580  178.8110  141.3680 C   0  0  0  0  0  3  0  0  0  0  0  0
  179.8590  178.2400  142.6370 C   0  0  0  0  0  2  0  0  0  0  0  0
  185.4730  179.7220  141.2160 O   0  0  0  0  0  0  0  0  0  0  0  0
  186.3170  177.5430  144.1170 C   0  0  0  0  0  3  0  0  0  0  0  0
  184.6640  179.1190  144.7630 C   0  0  0  0  0  3  0  0  0  0  0  0
  185.5050  179.1470  142.4970 C   0  0  0  0  0  0  0  0  0  0  0  0
  185.4860  178.0760  145.0540 N   0  0  0  0  0  0  0  0  0  0  0  0
  186.3400  178.0690  142.8240 C   0  0  0  0  0  3  0  0  0  0  0  0
  184.6610  179.6710  143.4800 C   0  0  0  0  0  3  0  0  0  0  0  0
  188.5430  177.1030  137.5750 C   0  0  0  0  0  2  0  0  0  0  0  0
  189.5390  177.7230  138.4320 N   0  0  0  0  0  2  0  0  0  0  0  0
  190.1990  176.6510  139.1650 C   0  0  1  0  0  3  0  0  0  0  0  0
  191.3030  176.0470  138.3020 C   0  0  0  0  0  2  0  0  0  0  0  0
  191.0980  174.6780  138.1250 O   0  0  0  0  0  1  0  0  0  0  0  0
  192.2320  177.4600  140.3820 C   0  0  0  0  0  1  0  0  0  0  0  0
  190.7450  177.1640  140.5020 C   0  0  2  0  0  3  0  0  0  0  0  0
  190.5560  176.2040  141.5010 O   0  0  0  0  0  0  0  0  0  0  0  0
  190.1260  177.7800  143.2390 C   0  0  2  0  0  3  0  0  0  0  0  0
  189.8430  176.3960  143.7750 C   0  0  1  0  0  3  0  0  0  0  0  0
  189.5470  176.7180  142.3200 C   0  0  2  0  0  3  0  0  0  0  0  0
  191.0940  177.1340  144.2120 C   0  0  0  0  0  2  0  0  0  0  0  0
  1  6  1  0  0  0  0
  2  1  1  0  0  0  0
  3 10  2  0  0  0  0
  3  4  1  0  0  0  0
  4  1  2  0  0  0  0
  5 11  1  1  0  0  0
  5  8  1  0  0  0  0
  6 20  1  0  0  0  0
  8  6  2  0  0  0  0
  9  7  1  6  0  0  0
  9  4  1  0  0  0  0
  9  5  1  0  0  0  0
 10  2  1  0  0  0  0
 11 16  1  0  0  0  0
 13 12  2  0  0  0  0
 13 11  1  0  0  0  0
 14 15  1  0  0  0  0
 14 13  1  0  0  0  0
 16 18  1  0  0  0  0
 18 19  1  0  0  0  0
 18 17  1  0  0  0  0
 19 17  1  0  0  0  0
 20 23  1  0  0  0  0
 21 24  1  0  0  0  0
 22 24  2  0  0  0  0
 23 25  1  0  0  0  0
 23 26  2  0  0  0  0
 25 21  2  0  0  0  0
 26 22  1  0  0  0  0
 27 10  1  0  0  0  0
 27 28  1  0  0  0  0
 28 29  1  0  0  0  0
 29 30  1  6  0  0  0
 29 33  1  0  0  0  0
 31 30  1  0  0  0  0
 33 32  1  6  0  0  0
 33 34  1  0  0  0  0
 35 36  1  0  0  0  0
 35 38  1  6  0  0  0
 36 38  1  6  0  0  0
 37 34  1  6  0  0  0
 37 35  1  0  0  0  0
 37 36  1  0  0  0  0
M  END
>  <MODEL>
2

>  <REMARK>
 VINA RESULT:      -6.7      2.251      5.328
  Name = 
  13 active torsions:
  status: ('A' for Active; 'I' for Inactive)
    1  A    between atoms: O_2  and  C_27
    2  A    between atoms: O_7  and  C_18
    3  A    between atoms: O_7  and  C_20
    4  A    between atoms: C_9  and  N_16
    5  A    between atoms: C_11  and  CA_12
    6  A    between atoms: CA_12  and  N_28
    7  A    between atoms: CA_12  and  C_36
    8  A    between atoms: O_15  and  C_25
    9  A    between atoms: O_15  and  C_36
   10  A    between atoms: N_16  and  S_17
   11  A    between atoms: S_17  and  C_24
   12  A    between atoms: N_28  and  C_31
   13  A    between atoms: C_31  and  C_34
                            x       y       z     vdW  Elec       q    Type
                         _______ _______ _______ _____ _____    ______ ____

>  <TORSDO>
F 13

$$$$
=
 OpenBabel11062414363D

 38 43  0  0  1  0  0  0  0  0999 V2000
  187.8460  178.2710  140.4020 C   0  0  0  0  0  0  0  0  0  0  0  0
  187.7930  178.4060  139.0670 N   0  0  0  0  0  0  0  0  0  0  0  0
  189.7810  177.4630  139.6860 C   0  0  0  0  0  3  0  0  0  0  0  0
  189.0140  177.6990  140.8070 C   0  0  1  0  0  3  0  0  0  0  0  0
  188.1070  177.5610  143.1210 C   0  0  1  0  0  3  0  0  0  0  0  0
  186.8510  178.7330  141.3700 C   0  0  0  0  0  0  0  0  0  0  0  0
  190.1260  176.4270  142.4710 O   0  0  0  0  0  1  0  0  0  0  0  0
  187.0300  178.4420  142.6290 N   0  0  0  0  0  0  0  0  0  0  0  0
  189.3870  177.5900  142.2520 C   0  0  1  0  0  3  0  0  0  0  0  0
  188.9680  177.8890  138.6420 C   0  0  0  0  0  0  0  0  0  0  0  0
  188.4050  177.8580  144.5180 N   0  0  0  0  0  0  0  0  0  0  0  0
  187.6810  178.1040  146.7270 O   0  0  0  0  0  0  0  0  0  0  0  0
  187.3870  177.8260  145.5320 C   0  0  0  0  0  0  0  0  0  0  0  0
  186.0750  177.4830  145.1930 O   0  0  0  0  0  0  0  0  0  0  0  0
  184.9730  178.3190  145.5130 C   0  0  0  0  0  1  0  0  0  0  0  0
  190.0810  178.2260  144.9450 S   0  0  0  0  0  0  0  0  0  0  0  0
  190.8880  176.8660  147.1550 C   0  0  0  0  0  2  0  0  0  0  0  0
  190.3050  176.6270  145.7790 C   0  0  0  0  0  3  0  0  0  0  0  0
  191.7810  176.3950  146.0280 C   0  0  0  0  0  2  0  0  0  0  0  0
  185.7670  179.5110  140.9340 O   0  0  0  0  0  0  0  0  0  0  0  0
  182.5060  177.7580  140.5300 C   0  0  0  0  0  3  0  0  0  0  0  0
  183.0100  178.9600  138.5480 C   0  0  0  0  0  3  0  0  0  0  0  0
  184.5550  179.0380  140.4050 C   0  0  0  0  0  0  0  0  0  0  0  0
  182.1910  178.1470  139.2660 N   0  0  0  0  0  0  0  0  0  0  0  0
  183.6920  178.1960  141.1210 C   0  0  0  0  0  3  0  0  0  0  0  0
  184.2060  179.4180  139.1060 C   0  0  0  0  0  3  0  0  0  0  0  0
  189.3660  177.8630  137.2090 C   0  0  0  0  0  2  0  0  0  0  0  0
  188.3920  177.1060  136.4410 N   0  0  0  0  0  2  0  0  0  0  0  0
  188.4510  175.7290  136.9150 C   0  0  1  0  0  3  0  0  0  0  0  0
  187.0370  175.2120  137.1580 C   0  0  0  0  0  2  0  0  0  0  0  0
  186.0970  176.2240  136.9490 O   0  0  0  0  0  1  0  0  0  0  0  0
  188.9830  173.3770  136.2420 C   0  0  0  0  0  1  0  0  0  0  0  0
  189.2120  174.8460  135.9200 C   0  0  2  0  0  3  0  0  0  0  0  0
  190.5830  175.1130  135.9880 O   0  0  0  0  0  0  0  0  0  0  0  0
  191.9830  175.1690  137.9190 C   0  0  2  0  0  3  0  0  0  0  0  0
  192.5630  174.1720  136.9440 C   0  0  1  0  0  3  0  0  0  0  0  0
  191.0560  174.3370  137.0510 C   0  0  2  0  0  3  0  0  0  0  0  0
  193.2330  175.5190  137.1340 C   0  0  0  0  0  2  0  0  0  0  0  0
  1  4  1  0  0  0  0
  1  6  1  0  0  0  0
  2  1  2  0  0  0  0
  4  3  1  6  0  0  0
  4  9  1  0  0  0  0
  5 11  1  1  0  0  0
  6  8  2  0  0  0  0
  8  5  1  0  0  0  0
  9  7  1  6  0  0  0
  9  5  1  0  0  0  0
 10  2  1  0  0  0  0
 10  3  2  0  0  0  0
 11 16  1  0  0  0  0
 11 13  1  0  0  0  0
 13 12  2  0  0  0  0
 14 15  1  0  0  0  0
 14 13  1  0  0  0  0
 16 18  1  0  0  0  0
 18 19  1  0  0  0  0
 18 17  1  0  0  0  0
 19 17  1  0  0  0  0
 20  6  1  0  0  0  0
 21 25  1  0  0  0  0
 22 26  2  0  0  0  0
 22 24  1  0  0  0  0
 23 20  1  0  0  0  0
 23 25  2  0  0  0  0
 24 21  2  0  0  0  0
 26 23  1  0  0  0  0
 27 10  1  0  0  0  0
 28 29  1  0  0  0  0
 28 27  1  0  0  0  0
 29 30  1  6  0  0  0
 31 30  1  0  0  0  0
 33 34  1  0  0  0  0
 33 32  1  1  0  0  0
 33 29  1  0  0  0  0
 35 38  1  6  0  0  0
 36 37  1  0  0  0  0
 36 38  1  6  0  0  0
 36 35  1  0  0  0  0
 37 34  1  6  0  0  0
 37 35  1  0  0  0  0
M  END
>  <MODEL>
3

>  <REMARK>
 VINA RESULT:      -6.6      3.419      8.507
  Name = 
  13 active torsions:
  status: ('A' for Active; 'I' for Inactive)
    1  A    between atoms: O_2  and  C_27
    2  A    between atoms: O_7  and  C_18
    3  A    between atoms: O_7  and  C_20
    4  A    between atoms: C_9  and  N_16
    5  A    between atoms: C_11  and  CA_12
    6  A    between atoms: CA_12  and  N_28
    7  A    between atoms: CA_12  and  C_36
    8  A    between atoms: O_15  and  C_25
    9  A    between atoms: O_15  and  C_36
   10  A    between atoms: N_16  and  S_17
   11  A    between atoms: S_17  and  C_24
   12  A    between atoms: N_28  and  C_31
   13  A    between atoms: C_31  and  C_34
                            x       y       z     vdW  Elec       q    Type
                         _______ _______ _______ _____ _____    ______ ____

>  <TORSDO>
F 13

$$$$
=
 OpenBabel11062414363D

 38 43  0  0  1  0  0  0  0  0999 V2000
  187.8650  178.2800  140.3930 C   0  0  0  0  0  0  0  0  0  0  0  0
  187.8160  178.4260  139.0590 N   0  0  0  0  0  0  0  0  0  0  0  0
  189.8010  177.4730  139.6770 C   0  0  0  0  0  3  0  0  0  0  0  0
  189.0310  177.7020  140.7970 C   0  0  1  0  0  3  0  0  0  0  0  0
  188.1180  177.5490  143.1080 C   0  0  1  0  0  3  0  0  0  0  0  0
  186.8690  178.7380  141.3630 C   0  0  0  0  0  0  0  0  0  0  0  0
  190.1350  176.4150  142.4550 O   0  0  0  0  0  1  0  0  0  0  0  0
  187.0430  178.4370  142.6200 N   0  0  0  0  0  0  0  0  0  0  0  0
  189.3990  177.5820  142.2420 C   0  0  1  0  0  3  0  0  0  0  0  0
  188.9910  177.9100  138.6340 C   0  0  0  0  0  0  0  0  0  0  0  0
  188.4120  177.8350  144.5080 N   0  0  0  0  0  0  0  0  0  0  0  0
  187.6880  178.0420  146.7210 O   0  0  0  0  0  0  0  0  0  0  0  0
  187.3970  177.7730  145.5230 C   0  0  0  0  0  0  0  0  0  0  0  0
  186.0910  177.4110  145.1820 O   0  0  0  0  0  0  0  0  0  0  0  0
  184.9970  178.3030  145.3400 C   0  0  0  0  0  1  0  0  0  0  0  0
  190.0830  178.2280  144.9370 S   0  0  0  0  0  0  0  0  0  0  0  0
  190.9510  176.8920  147.1380 C   0  0  0  0  0  2  0  0  0  0  0  0
  190.3240  176.6380  145.7840 C   0  0  0  0  0  3  0  0  0  0  0  0
  191.8060  176.4010  145.9900 C   0  0  0  0  0  2  0  0  0  0  0  0
  185.7880  179.5220  140.9290 O   0  0  0  0  0  0  0  0  0  0  0  0
  182.5200  177.7750  140.5520 C   0  0  0  0  0  3  0  0  0  0  0  0
  182.9990  178.9980  138.5760 C   0  0  0  0  0  3  0  0  0  0  0  0
  184.5690  179.0540  140.4120 C   0  0  0  0  0  0  0  0  0  0  0  0
  182.1880  178.1770  139.2960 N   0  0  0  0  0  0  0  0  0  0  0  0
  183.7150  178.2050  141.1310 C   0  0  0  0  0  3  0  0  0  0  0  0
  184.2030  179.4480  139.1230 C   0  0  0  0  0  3  0  0  0  0  0  0
  189.3930  177.8930  137.2020 C   0  0  0  0  0  2  0  0  0  0  0  0
  189.9120  176.5820  136.8520 N   0  0  0  0  0  2  0  0  0  0  0  0
  188.8830  175.9090  136.0720 C   0  0  1  0  0  3  0  0  0  0  0  0
  189.4490  175.5130  134.7120 C   0  0  0  0  0  2  0  0  0  0  0  0
  190.8230  175.7540  134.6590 O   0  0  0  0  0  1  0  0  0  0  0  0
  189.3910  173.6010  136.9000 C   0  0  0  0  0  1  0  0  0  0  0  0
  188.3360  174.6940  136.8300 C   0  0  2  0  0  3  0  0  0  0  0  0
  187.2060  174.1880  136.1790 O   0  0  0  0  0  0  0  0  0  0  0  0
  185.7080  172.9880  137.5970 C   0  0  2  0  0  3  0  0  0  0  0  0
  184.8940  173.7010  136.5440 C   0  0  1  0  0  3  0  0  0  0  0  0
  186.1560  174.3480  137.0880 C   0  0  2  0  0  3  0  0  0  0  0  0
  185.0910  172.2000  136.4580 C   0  0  0  0  0  2  0  0  0  0  0  0
  1  4  1  0  0  0  0
  1  6  1  0  0  0  0
  2  1  2  0  0  0  0
  4  3  1  6  0  0  0
  4  9  1  0  0  0  0
  5 11  1  1  0  0  0
  6  8  2  0  0  0  0
  8  5  1  0  0  0  0
  9  7  1  6  0  0  0
  9  5  1  0  0  0  0
 10  2  1  0  0  0  0
 10  3  2  0  0  0  0
 11 16  1  0  0  0  0
 11 13  1  0  0  0  0
 13 12  2  0  0  0  0
 14 15  1  0  0  0  0
 14 13  1  0  0  0  0
 16 18  1  0  0  0  0
 18 19  1  0  0  0  0
 18 17  1  0  0  0  0
 19 17  1  0  0  0  0
 20  6  1  0  0  0  0
 21 25  1  0  0  0  0
 22 26  2  0  0  0  0
 22 24  1  0  0  0  0
 23 20  1  0  0  0  0
 23 25  2  0  0  0  0
 24 21  2  0  0  0  0
 26 23  1  0  0  0  0
 27 10  1  0  0  0  0
 28 27  1  0  0  0  0
 29 30  1  6  0  0  0
 29 33  1  0  0  0  0
 29 28  1  0  0  0  0
 31 30  1  0  0  0  0
 33 32  1  6  0  0  0
 34 33  1  0  0  0  0
 35 38  1  6  0  0  0
 36 38  1  6  0  0  0
 36 37  1  0  0  0  0
 36 35  1  0  0  0  0
 37 34  1  6  0  0  0
 37 35  1  0  0  0  0
M  END
>  <MODEL>
4

>  <REMARK>
 VINA RESULT:      -6.6      3.493      8.967
  Name = 
  13 active torsions:
  status: ('A' for Active; 'I' for Inactive)
    1  A    between atoms: O_2  and  C_27
    2  A    between atoms: O_7  and  C_18
    3  A    between atoms: O_7  and  C_20
    4  A    between atoms: C_9  and  N_16
    5  A    between atoms: C_11  and  CA_12
    6  A    between atoms: CA_12  and  N_28
    7  A    between atoms: CA_12  and  C_36
    8  A    between atoms: O_15  and  C_25
    9  A    between atoms: O_15  and  C_36
   10  A    between atoms: N_16  and  S_17
   11  A    between atoms: S_17  and  C_24
   12  A    between atoms: N_28  and  C_31
   13  A    between atoms: C_31  and  C_34
                            x       y       z     vdW  Elec       q    Type
                         _______ _______ _______ _____ _____    ______ ____

>  <TORSDO>
F 13

$$$$
=
 OpenBabel11062414363D

 38 43  0  0  1  0  0  0  0  0999 V2000
  184.5330  178.5820  140.7620 C   0  0  0  0  0  0  0  0  0  0  0  0
  185.3640  178.8030  141.7930 N   0  0  0  0  0  2  0  0  0  0  0  0
  183.2120  178.6120  142.5410 C   0  0  0  0  0  3  0  0  0  0  0  0
  183.2410  178.4500  141.1720 C   0  0  0  0  0  0  0  0  0  0  0  0
  182.6070  177.7880  138.8580 C   0  0  1  0  0  3  0  0  0  0  0  0
  184.8840  178.5580  139.3420 C   0  0  0  0  0  0  0  0  0  0  0  0
  181.0980  177.5420  140.7150 O   0  0  0  0  0  1  0  0  0  0  0  0
  183.9570  178.2470  138.4780 N   0  0  0  0  0  0  0  0  0  0  0  0
  182.1040  178.3630  140.2040 C   0  0  1  0  0  3  0  0  0  0  0  0
  184.5500  178.7960  142.8720 C   0  0  0  0  0  0  0  0  0  0  0  0
  181.6610  178.0530  137.7780 N   0  0  0  0  0  0  0  0  0  0  0  0
  180.5260  179.5790  136.4190 O   0  0  0  0  0  0  0  0  0  0  0  0
  181.3610  179.3900  137.3460 C   0  0  0  0  0  0  0  0  0  0  0  0
  181.9960  180.4780  137.9510 O   0  0  0  0  0  0  0  0  0  0  0  0
  181.2690  181.5850  138.4640 C   0  0  0  0  0  1  0  0  0  0  0  0
  180.9140  176.6650  136.9760 S   0  0  0  0  0  0  0  0  0  0  0  0
  182.8010  174.7110  136.9310 C   0  0  0  0  0  2  0  0  0  0  0  0
  181.9310  175.4790  137.9030 C   0  0  0  0  0  3  0  0  0  0  0  0
  181.5520  174.0700  137.4960 C   0  0  0  0  0  2  0  0  0  0  0  0
  186.1820  178.9150  138.9420 O   0  0  0  0  0  0  0  0  0  0  0  0
  188.4340  176.3250  137.4930 C   0  0  0  0  0  3  0  0  0  0  0  0
  189.3930  177.1840  139.4860 C   0  0  0  0  0  3  0  0  0  0  0  0
  187.2630  178.0420  138.7320 C   0  0  0  0  0  0  0  0  0  0  0  0
  189.4350  176.3500  138.4130 N   0  0  0  0  0  0  0  0  0  0  0  0
  187.3310  177.1690  137.6360 C   0  0  0  0  0  3  0  0  0  0  0  0
  188.3050  178.0430  139.6620 C   0  0  0  0  0  3  0  0  0  0  0  0
  185.0410  179.0420  144.2550 C   0  0  0  0  0  2  0  0  0  0  0  0
  185.7740  177.8810  144.7310 N   0  0  0  0  0  2  0  0  0  0  0  0
  186.7480  178.3590  145.7020 C   0  0  1  0  0  3  0  0  0  0  0  0
  186.1170  178.3800  147.0910 C   0  0  0  0  0  2  0  0  0  0  0  0
  185.7390  179.6770  147.4430 O   0  0  0  0  0  1  0  0  0  0  0  0
  188.4550  177.1590  147.0870 C   0  0  0  0  0  1  0  0  0  0  0  0
  188.0140  177.4950  145.6710 C   0  0  2  0  0  3  0  0  0  0  0  0
  189.0500  178.1800  145.0270 O   0  0  0  0  0  0  0  0  0  0  0  0
  191.3570  177.6110  144.8190 C   0  0  2  0  0  3  0  0  0  0  0  0
  190.7710  177.7230  143.4320 C   0  0  1  0  0  3  0  0  0  0  0  0
  189.9200  177.1860  144.5700 C   0  0  2  0  0  3  0  0  0  0  0  0
  191.6860  178.8130  143.9550 C   0  0  0  0  0  2  0  0  0  0  0  0
  1  4  2  0  0  0  0
  1  2  1  0  0  0  0
  2 10  1  0  0  0  0
  3 10  2  0  0  0  0
  4  3  1  0  0  0  0
  5 11  1  6  0  0  0
  5  9  1  0  0  0  0
  6  1  1  0  0  0  0
  8  5  1  0  0  0  0
  8  6  2  0  0  0  0
  9  7  1  1  0  0  0
  9  4  1  0  0  0  0
 10 27  1  0  0  0  0
 12 13  2  0  0  0  0
 13 11  1  0  0  0  0
 13 14  1  0  0  0  0
 14 15  1  0  0  0  0
 16 11  1  0  0  0  0
 16 18  1  0  0  0  0
 17 19  1  0  0  0  0
 17 18  1  0  0  0  0
 19 18  1  0  0  0  0
 20  6  1  0  0  0  0
 21 25  2  0  0  0  0
 21 24  1  0  0  0  0
 22 26  1  0  0  0  0
 23 20  1  0  0  0  0
 23 26  2  0  0  0  0
 24 22  2  0  0  0  0
 25 23  1  0  0  0  0
 27 28  1  0  0  0  0
 28 29  1  0  0  0  0
 29 30  1  1  0  0  0
 30 31  1  0  0  0  0
 33 29  1  0  0  0  0
 33 32  1  1  0  0  0
 34 33  1  0  0  0  0
 35 38  1  1  0  0  0
 36 38  1  1  0  0  0
 36 37  1  0  0  0  0
 36 35  1  0  0  0  0
 37 35  1  0  0  0  0
 37 34  1  1  0  0  0
M  END
>  <MODEL>
5

>  <REMARK>
 VINA RESULT:      -6.6      1.724      2.873
  Name = 
  13 active torsions:
  status: ('A' for Active; 'I' for Inactive)
    1  A    between atoms: O_2  and  C_27
    2  A    between atoms: O_7  and  C_18
    3  A    between atoms: O_7  and  C_20
    4  A    between atoms: C_9  and  N_16
    5  A    between atoms: C_11  and  CA_12
    6  A    between atoms: CA_12  and  N_28
    7  A    between atoms: CA_12  and  C_36
    8  A    between atoms: O_15  and  C_25
    9  A    between atoms: O_15  and  C_36
   10  A    between atoms: N_16  and  S_17
   11  A    between atoms: S_17  and  C_24
   12  A    between atoms: N_28  and  C_31
   13  A    between atoms: C_31  and  C_34
                            x       y       z     vdW  Elec       q    Type
                         _______ _______ _______ _____ _____    ______ ____

>  <TORSDO>
F 13

$$$$
=
 OpenBabel11062414363D

 38 43  0  0  1  0  0  0  0  0999 V2000
  185.4890  178.5910  139.5070 C   0  0  0  0  0  0  0  0  0  0  0  0
  186.8270  178.5550  139.4060 N   0  0  0  0  0  2  0  0  0  0  0  0
  185.8700  177.5730  137.5760 C   0  0  0  0  0  3  0  0  0  0  0  0
  184.8830  178.0250  138.4260 C   0  0  0  0  0  0  0  0  0  0  0  0
  182.6840  178.8120  139.2850 C   0  0  1  0  0  3  0  0  0  0  0  0
  184.7080  179.0820  140.6430 C   0  0  0  0  0  0  0  0  0  0  0  0
  182.9450  177.9300  137.0630 O   0  0  0  0  0  1  0  0  0  0  0  0
  183.4080  179.1160  140.5340 N   0  0  0  0  0  0  0  0  0  0  0  0
  183.4060  177.7930  138.3730 C   0  0  1  0  0  3  0  0  0  0  0  0
  187.0450  177.9530  138.2150 C   0  0  0  0  0  0  0  0  0  0  0  0
  181.3190  178.3880  139.5830 N   0  0  0  0  0  0  0  0  0  0  0  0
  179.0930  178.9300  140.0430 O   0  0  0  0  0  0  0  0  0  0  0  0
  180.2560  179.3360  139.7720 C   0  0  0  0  0  0  0  0  0  0  0  0
  180.5120  180.7050  139.6520 O   0  0  0  0  0  0  0  0  0  0  0  0
  179.4710  181.6690  139.6650 C   0  0  0  0  0  1  0  0  0  0  0  0
  180.9940  176.6510  139.6670 S   0  0  0  0  0  0  0  0  0  0  0  0
  178.9850  175.5740  138.1880 C   0  0  0  0  0  2  0  0  0  0  0  0
  180.0210  176.6770  138.1330 C   0  0  0  0  0  3  0  0  0  0  0  0
  180.2480  175.3850  137.3750 C   0  0  0  0  0  2  0  0  0  0  0  0
  185.3640  179.4550  141.8270 O   0  0  0  0  0  0  0  0  0  0  0  0
  183.2700  179.1100  144.8880 C   0  0  0  0  0  3  0  0  0  0  0  0
  185.4960  178.4460  145.3710 C   0  0  0  0  0  3  0  0  0  0  0  0
  184.9410  179.1900  143.1390 C   0  0  0  0  0  0  0  0  0  0  0  0
  184.2080  178.6460  145.7560 N   0  0  0  0  0  0  0  0  0  0  0  0
  183.6190  179.3900  143.5650 C   0  0  0  0  0  3  0  0  0  0  0  0
  185.8830  178.7150  144.0560 C   0  0  0  0  0  3  0  0  0  0  0  0
  188.4090  177.6630  137.6960 C   0  0  0  0  0  2  0  0  0  0  0  0
  189.4060  178.1480  138.6350 N   0  0  0  0  0  2  0  0  0  0  0  0
  189.9530  176.9840  139.3180 C   0  0  1  0  0  3  0  0  0  0  0  0
  191.0480  176.3560  138.4610 C   0  0  0  0  0  2  0  0  0  0  0  0
  190.8000  174.9960  138.2610 O   0  0  0  0  0  1  0  0  0  0  0  0
  191.9920  177.4520  140.6930 C   0  0  0  0  0  1  0  0  0  0  0  0
  190.4740  177.3660  140.7080 C   0  0  2  0  0  3  0  0  0  0  0  0
  190.0870  176.4070  141.6490 O   0  0  0  0  0  0  0  0  0  0  0  0
  189.2890  177.8670  143.3580 C   0  0  2  0  0  3  0  0  0  0  0  0
  188.8300  176.4650  143.6820 C   0  0  1  0  0  3  0  0  0  0  0  0
  188.9230  176.9140  142.2340 C   0  0  2  0  0  3  0  0  0  0  0  0
  189.9560  177.0940  144.4800 C   0  0  0  0  0  2  0  0  0  0  0  0
  1  6  1  0  0  0  0
  2  1  1  0  0  0  0
  3 10  2  0  0  0  0
  3  4  1  0  0  0  0
  4  1  2  0  0  0  0
  5 11  1  1  0  0  0
  5  8  1  0  0  0  0
  6 20  1  0  0  0  0
  8  6  2  0  0  0  0
  9  7  1  6  0  0  0
  9  4  1  0  0  0  0
  9  5  1  0  0  0  0
 10  2  1  0  0  0  0
 11 16  1  0  0  0  0
 11 13  1  0  0  0  0
 13 12  2  0  0  0  0
 14 15  1  0  0  0  0
 14 13  1  0  0  0  0
 18 17  1  0  0  0  0
 18 16  1  0  0  0  0
 19 18  1  0  0  0  0
 19 17  1  0  0  0  0
 20 23  1  0  0  0  0
 21 24  1  0  0  0  0
 22 24  2  0  0  0  0
 23 25  1  0  0  0  0
 23 26  2  0  0  0  0
 25 21  2  0  0  0  0
 26 22  1  0  0  0  0
 27 10  1  0  0  0  0
 27 28  1  0  0  0  0
 28 29  1  0  0  0  0
 29 30  1  6  0  0  0
 29 33  1  0  0  0  0
 31 30  1  0  0  0  0
 33 32  1  6  0  0  0
 33 34  1  0  0  0  0
 35 36  1  0  0  0  0
 35 38  1  6  0  0  0
 36 38  1  6  0  0  0
 37 34  1  6  0  0  0
 37 35  1  0  0  0  0
 37 36  1  0  0  0  0
M  END
>  <MODEL>
6

>  <REMARK>
 VINA RESULT:      -6.5      2.301      5.449
  Name = 
  13 active torsions:
  status: ('A' for Active; 'I' for Inactive)
    1  A    between atoms: O_2  and  C_27
    2  A    between atoms: O_7  and  C_18
    3  A    between atoms: O_7  and  C_20
    4  A    between atoms: C_9  and  N_16
    5  A    between atoms: C_11  and  CA_12
    6  A    between atoms: CA_12  and  N_28
    7  A    between atoms: CA_12  and  C_36
    8  A    between atoms: O_15  and  C_25
    9  A    between atoms: O_15  and  C_36
   10  A    between atoms: N_16  and  S_17
   11  A    between atoms: S_17  and  C_24
   12  A    between atoms: N_28  and  C_31
   13  A    between atoms: C_31  and  C_34
                            x       y       z     vdW  Elec       q    Type
                         _______ _______ _______ _____ _____    ______ ____

>  <TORSDO>
F 13

$$$$
=
 OpenBabel11062414363D

 38 43  0  0  1  0  0  0  0  0999 V2000
  185.7250  178.7380  140.4470 C   0  0  0  0  0  0  0  0  0  0  0  0
  185.0840  179.0500  139.3090 N   0  0  0  0  0  0  0  0  0  0  0  0
  183.5750  178.5810  140.9620 C   0  0  0  0  0  3  0  0  0  0  0  0
  184.8560  178.4660  141.4600 C   0  0  1  0  0  3  0  0  0  0  0  0
  186.7760  178.3710  143.0400 C   0  0  1  0  0  3  0  0  0  0  0  0
  187.1710  178.6050  140.6310 C   0  0  0  0  0  0  0  0  0  0  0  0
  184.4950  178.4120  143.8030 O   0  0  0  0  0  1  0  0  0  0  0  0
  187.6240  178.3750  141.8330 N   0  0  0  0  0  0  0  0  0  0  0  0
  185.3150  177.9330  142.7800 C   0  0  1  0  0  3  0  0  0  0  0  0
  183.7760  178.9730  139.6430 C   0  0  0  0  0  0  0  0  0  0  0  0
  187.3950  177.5670  144.0900 N   0  0  0  0  0  0  0  0  0  0  0  0
  187.7370  177.1310  146.3600 O   0  0  0  0  0  0  0  0  0  0  0  0
  187.1720  177.8390  145.4830 C   0  0  0  0  0  0  0  0  0  0  0  0
  186.3270  178.8850  145.8630 O   0  0  0  0  0  0  0  0  0  0  0  0
  185.4470  178.7770  146.9720 C   0  0  0  0  0  1  0  0  0  0  0  0
  188.4100  176.2050  143.5960 S   0  0  0  0  0  0  0  0  0  0  0  0
  191.1090  176.3310  143.3100 C   0  0  0  0  0  2  0  0  0  0  0  0
  189.9200  177.2150  143.6230 C   0  0  0  0  0  3  0  0  0  0  0  0
  190.8220  176.7350  144.7400 C   0  0  0  0  0  2  0  0  0  0  0  0
  188.0210  178.6780  139.5170 O   0  0  0  0  0  0  0  0  0  0  0  0
  191.0110  176.5010  139.0730 C   0  0  0  0  0  3  0  0  0  0  0  0
  189.3010  175.8150  137.5780 C   0  0  0  0  0  3  0  0  0  0  0  0
  188.8970  177.6770  139.0640 C   0  0  0  0  0  0  0  0  0  0  0  0
  190.5520  175.6770  138.0930 N   0  0  0  0  0  0  0  0  0  0  0  0
  190.1930  177.5140  139.5750 C   0  0  0  0  0  3  0  0  0  0  0  0
  188.4540  176.8180  138.0550 C   0  0  0  0  0  3  0  0  0  0  0  0
  182.6790  179.2060  138.6650 C   0  0  0  0  0  2  0  0  0  0  0  0
  182.1950  180.5700  138.7850 N   0  0  0  0  0  2  0  0  0  0  0  0
  180.7570  180.5350  138.5570 C   0  0  1  0  0  3  0  0  0  0  0  0
  180.0270  180.9150  139.8420 C   0  0  0  0  0  2  0  0  0  0  0  0
  179.9830  179.8330  140.7240 O   0  0  0  0  0  1  0  0  0  0  0  0
  180.3030  180.6640  136.0980 C   0  0  0  0  0  1  0  0  0  0  0  0
  180.3690  181.4560  137.3950 C   0  0  2  0  0  3  0  0  0  0  0  0
  181.3150  182.4760  137.2510 O   0  0  0  0  0  0  0  0  0  0  0  0
  179.8460  184.1520  136.4000 C   0  0  2  0  0  3  0  0  0  0  0  0
  181.1580  184.8100  136.7560 C   0  0  1  0  0  3  0  0  0  0  0  0
  180.6420  183.6530  137.5940 C   0  0  2  0  0  3  0  0  0  0  0  0
  180.7990  184.5810  135.3000 C   0  0  0  0  0  2  0  0  0  0  0  0
  1  6  1  0  0  0  0
  1  4  1  0  0  0  0
  2 10  1  0  0  0  0
  2  1  2  0  0  0  0
  4  3  1  6  0  0  0
  4  9  1  0  0  0  0
  5 11  1  1  0  0  0
  6  8  2  0  0  0  0
  8  5  1  0  0  0  0
  9  5  1  0  0  0  0
  9  7  1  1  0  0  0
 10  3  2  0  0  0  0
 11 13  1  0  0  0  0
 13 14  1  0  0  0  0
 13 12  2  0  0  0  0
 14 15  1  0  0  0  0
 16 18  1  0  0  0  0
 16 11  1  0  0  0  0
 17 18  1  0  0  0  0
 17 19  1  0  0  0  0
 18 19  1  0  0  0  0
 20  6  1  0  0  0  0
 21 25  1  0  0  0  0
 22 26  2  0  0  0  0
 22 24  1  0  0  0  0
 23 20  1  0  0  0  0
 23 25  2  0  0  0  0
 24 21  2  0  0  0  0
 26 23  1  0  0  0  0
 27 28  1  0  0  0  0
 27 10  1  0  0  0  0
 29 28  1  0  0  0  0
 29 30  1  1  0  0  0
 30 31  1  0  0  0  0
 33 32  1  6  0  0  0
 33 29  1  0  0  0  0
 34 33  1  0  0  0  0
 35 38  1  6  0  0  0
 35 36  1  0  0  0  0
 35 37  1  0  0  0  0
 36 38  1  6  0  0  0
 36 37  1  0  0  0  0
 37 34  1  6  0  0  0
M  END
>  <MODEL>
7

>  <REMARK>
 VINA RESULT:      -6.5      2.638      8.848
  Name = 
  13 active torsions:
  status: ('A' for Active; 'I' for Inactive)
    1  A    between atoms: O_2  and  C_27
    2  A    between atoms: O_7  and  C_18
    3  A    between atoms: O_7  and  C_20
    4  A    between atoms: C_9  and  N_16
    5  A    between atoms: C_11  and  CA_12
    6  A    between atoms: CA_12  and  N_28
    7  A    between atoms: CA_12  and  C_36
    8  A    between atoms: O_15  and  C_25
    9  A    between atoms: O_15  and  C_36
   10  A    between atoms: N_16  and  S_17
   11  A    between atoms: S_17  and  C_24
   12  A    between atoms: N_28  and  C_31
   13  A    between atoms: C_31  and  C_34
                            x       y       z     vdW  Elec       q    Type
                         _______ _______ _______ _____ _____    ______ ____

>  <TORSDO>
F 13

$$$$
=
 OpenBabel11062414363D

 38 43  0  0  1  0  0  0  0  0999 V2000
  185.7480  177.9770  143.6920 C   0  0  0  0  0  0  0  0  0  0  0  0
  184.5840  178.1980  144.3250 N   0  0  0  0  0  2  0  0  0  0  0  0
  184.6060  179.2840  142.3140 C   0  0  0  0  0  3  0  0  0  0  0  0
  185.7910  178.6000  142.4820 C   0  0  0  0  0  0  0  0  0  0  0  0
  187.9330  177.4310  141.9930 C   0  0  1  0  0  3  0  0  0  0  0  0
  186.9030  177.2440  144.2100 C   0  0  0  0  0  0  0  0  0  0  0  0
  186.7160  178.6270  140.2980 O   0  0  0  0  0  1  0  0  0  0  0  0
  187.9250  177.0580  143.4210 N   0  0  0  0  0  0  0  0  0  0  0  0
  187.0380  178.6470  141.6560 C   0  0  1  0  0  3  0  0  0  0  0  0
  183.8900  178.9750  143.4650 C   0  0  0  0  0  0  0  0  0  0  0  0
  189.3040  177.6340  141.5320 N   0  0  0  0  0  0  0  0  0  0  0  0
  190.8930  177.5340  139.8210 O   0  0  0  0  0  0  0  0  0  0  0  0
  189.6950  177.3600  140.1770 C   0  0  0  0  0  0  0  0  0  0  0  0
  188.7470  176.9070  139.2550 O   0  0  0  0  0  0  0  0  0  0  0  0
  189.1130  176.4660  137.9560 C   0  0  0  0  0  1  0  0  0  0  0  0
  190.4780  178.2710  142.6910 S   0  0  0  0  0  0  0  0  0  0  0  0
  190.6220  175.6100  143.2180 C   0  0  0  0  0  2  0  0  0  0  0  0
  191.4590  176.7420  142.6620 C   0  0  0  0  0  3  0  0  0  0  0  0
  191.6800  176.2630  144.0820 C   0  0  0  0  0  2  0  0  0  0  0  0
  186.9040  176.8040  145.5440 O   0  0  0  0  0  0  0  0  0  0  0  0
  188.0480  178.4320  148.6930 C   0  0  0  0  0  3  0  0  0  0  0  0
  189.9220  177.5730  147.5170 C   0  0  0  0  0  3  0  0  0  0  0  0
  187.7100  177.2910  146.5860 C   0  0  0  0  0  0  0  0  0  0  0  0
  189.3880  178.2250  148.5840 N   0  0  0  0  0  0  0  0  0  0  0  0
  187.1870  177.9690  147.6960 C   0  0  0  0  0  3  0  0  0  0  0  0
  189.0910  177.0970  146.5010 C   0  0  0  0  0  3  0  0  0  0  0  0
  182.5330  179.5040  143.7710 C   0  0  0  0  0  2  0  0  0  0  0  0
  181.8110  179.7500  142.5340 N   0  0  0  0  0  2  0  0  0  0  0  0
  180.9610  178.5910  142.2970 C   0  0  1  0  0  3  0  0  0  0  0  0
  179.6330  178.7740  143.0250 C   0  0  0  0  0  2  0  0  0  0  0  0
  179.5310  177.8850  144.0970 O   0  0  0  0  0  1  0  0  0  0  0  0
  181.8600  177.4830  140.2390 C   0  0  0  0  0  1  0  0  0  0  0  0
  180.7550  178.3690  140.7940 C   0  0  2  0  0  3  0  0  0  0  0  0
  180.7770  179.5930  140.1180 O   0  0  0  0  0  0  0  0  0  0  0  0
  182.4320  180.5900  138.7190 C   0  0  2  0  0  3  0  0  0  0  0  0
  181.1910  180.3580  137.8910 C   0  0  1  0  0  3  0  0  0  0  0  0
  181.5640  179.3720  138.9840 C   0  0  2  0  0  3  0  0  0  0  0  0
  181.5530  181.7640  138.3330 C   0  0  0  0  0  2  0  0  0  0  0  0
  1  6  1  0  0  0  0
  1  2  1  0  0  0  0
  3  4  1  0  0  0  0
  3 10  2  0  0  0  0
  4  1  2  0  0  0  0
  5 11  1  1  0  0  0
  5  8  1  0  0  0  0
  6 20  1  0  0  0  0
  8  6  2  0  0  0  0
  9  7  1  6  0  0  0
  9  5  1  0  0  0  0
  9  4  1  0  0  0  0
 10 27  1  0  0  0  0
 10  2  1  0  0  0  0
 11 16  1  0  0  0  0
 12 13  2  0  0  0  0
 13 11  1  0  0  0  0
 14 13  1  0  0  0  0
 15 14  1  0  0  0  0
 17 19  1  0  0  0  0
 18 16  1  0  0  0  0
 18 17  1  0  0  0  0
 18 19  1  0  0  0  0
 20 23  1  0  0  0  0
 22 24  2  0  0  0  0
 23 25  1  0  0  0  0
 24 21  1  0  0  0  0
 25 21  2  0  0  0  0
 26 23  2  0  0  0  0
 26 22  1  0  0  0  0
 28 27  1  0  0  0  0
 29 28  1  0  0  0  0
 29 30  1  1  0  0  0
 30 31  1  0  0  0  0
 33 32  1  6  0  0  0
 33 29  1  0  0  0  0
 34 33  1  0  0  0  0
 35 38  1  1  0  0  0
 35 37  1  0  0  0  0
 36 38  1  1  0  0  0
 36 35  1  0  0  0  0
 36 37  1  0  0  0  0
 37 34  1  1  0  0  0
M  END
>  <MODEL>
8

>  <REMARK>
 VINA RESULT:      -6.5      2.748      8.528
  Name = 
  13 active torsions:
  status: ('A' for Active; 'I' for Inactive)
    1  A    between atoms: O_2  and  C_27
    2  A    between atoms: O_7  and  C_18
    3  A    between atoms: O_7  and  C_20
    4  A    between atoms: C_9  and  N_16
    5  A    between atoms: C_11  and  CA_12
    6  A    between atoms: CA_12  and  N_28
    7  A    between atoms: CA_12  and  C_36
    8  A    between atoms: O_15  and  C_25
    9  A    between atoms: O_15  and  C_36
   10  A    between atoms: N_16  and  S_17
   11  A    between atoms: S_17  and  C_24
   12  A    between atoms: N_28  and  C_31
   13  A    between atoms: C_31  and  C_34
                            x       y       z     vdW  Elec       q    Type
                         _______ _______ _______ _____ _____    ______ ____

>  <TORSDO>
F 13

$$$$
=
 OpenBabel11062414363D

 38 43  0  0  1  0  0  0  0  0999 V2000
  188.9330  177.8510  139.2930 C   0  0  0  0  0  0  0  0  0  0  0  0
  188.5240  178.4390  140.4280 N   0  0  0  0  0  2  0  0  0  0  0  0
  190.2220  176.9720  140.8670 C   0  0  0  0  0  3  0  0  0  0  0  0
  189.9550  176.9780  139.5140 C   0  0  0  0  0  0  0  0  0  0  0  0
  190.2180  176.7100  137.0540 C   0  0  1  0  0  3  0  0  0  0  0  0
  188.3480  178.0120  137.9610 C   0  0  0  0  0  0  0  0  0  0  0  0
  191.8470  175.8690  138.6110 O   0  0  0  0  0  1  0  0  0  0  0  0
  188.9300  177.4230  136.9530 N   0  0  0  0  0  0  0  0  0  0  0  0
  190.4770  176.0760  138.4410 C   0  0  1  0  0  3  0  0  0  0  0  0
  189.3320  177.9120  141.3750 C   0  0  0  0  0  0  0  0  0  0  0  0
  190.3330  175.7220  135.9860 N   0  0  0  0  0  0  0  0  0  0  0  0
  189.6750  173.6890  135.0370 O   0  0  0  0  0  0  0  0  0  0  0  0
  189.5350  174.5270  135.9700 C   0  0  0  0  0  0  0  0  0  0  0  0
  188.6040  174.2970  136.9870 O   0  0  0  0  0  0  0  0  0  0  0  0
  187.2090  174.2300  136.7280 C   0  0  0  0  0  1  0  0  0  0  0  0
  191.4680  176.0560  134.6700 S   0  0  0  0  0  0  0  0  0  0  0  0
  193.9680  176.1450  135.7310 C   0  0  0  0  0  2  0  0  0  0  0  0
  192.8220  175.1810  135.5080 C   0  0  0  0  0  3  0  0  0  0  0  0
  194.0320  175.1450  134.5970 C   0  0  0  0  0  2  0  0  0  0  0  0
  187.1620  178.7480  137.8090 O   0  0  0  0  0  0  0  0  0  0  0  0
  183.8850  177.0540  137.2910 C   0  0  0  0  0  3  0  0  0  0  0  0
  183.8810  178.1650  139.3870 C   0  0  0  0  0  3  0  0  0  0  0  0
  185.8530  178.2740  137.9940 C   0  0  0  0  0  0  0  0  0  0  0  0
  183.2630  177.4000  138.4490 N   0  0  0  0  0  0  0  0  0  0  0  0
  185.1900  177.4860  137.0430 C   0  0  0  0  0  3  0  0  0  0  0  0
  185.1860  178.6150  139.1730 C   0  0  0  0  0  3  0  0  0  0  0  0
  189.2130  178.2540  142.8180 C   0  0  0  0  0  2  0  0  0  0  0  0
  188.6340  177.1350  143.5420 N   0  0  0  0  0  2  0  0  0  0  0  0
  189.2710  177.0970  144.8510 C   0  0  1  0  0  3  0  0  0  0  0  0
  190.6740  177.6890  144.7530 C   0  0  0  0  0  2  0  0  0  0  0  0
  191.6290  176.7760  145.2050 O   0  0  0  0  0  1  0  0  0  0  0  0
  188.6480  177.2370  147.2720 C   0  0  0  0  0  1  0  0  0  0  0  0
  188.4190  177.8320  145.8910 C   0  0  2  0  0  3  0  0  0  0  0  0
  187.0630  177.7190  145.5710 O   0  0  0  0  0  0  0  0  0  0  0  0
  184.9430  178.2480  146.5300 C   0  0  2  0  0  3  0  0  0  0  0  0
  185.3540  179.3900  145.6320 C   0  0  1  0  0  3  0  0  0  0  0  0
  186.4100  178.6260  146.4110 C   0  0  2  0  0  3  0  0  0  0  0  0
  184.2620  178.4350  145.1880 C   0  0  0  0  0  2  0  0  0  0  0  0
  1  4  2  0  0  0  0
  1  2  1  0  0  0  0
  2 10  1  0  0  0  0
  3 10  2  0  0  0  0
  4  3  1  0  0  0  0
  5 11  1  6  0  0  0
  5  9  1  0  0  0  0
  6  1  1  0  0  0  0
  8  5  1  0  0  0  0
  8  6  2  0  0  0  0
  9  7  1  1  0  0  0
  9  4  1  0  0  0  0
 10 27  1  0  0  0  0
 12 13  2  0  0  0  0
 13 11  1  0  0  0  0
 13 14  1  0  0  0  0
 15 14  1  0  0  0  0
 16 18  1  0  0  0  0
 16 11  1  0  0  0  0
 18 17  1  0  0  0  0
 19 18  1  0  0  0  0
 19 17  1  0  0  0  0
 20  6  1  0  0  0  0
 20 23  1  0  0  0  0
 21 24  1  0  0  0  0
 23 26  2  0  0  0  0
 24 22  2  0  0  0  0
 25 21  2  0  0  0  0
 25 23  1  0  0  0  0
 26 22  1  0  0  0  0
 27 28  1  0  0  0  0
 28 29  1  0  0  0  0
 29 30  1  6  0  0  0
 29 33  1  0  0  0  0
 30 31  1  0  0  0  0
 33 32  1  1  0  0  0
 34 33  1  0  0  0  0
 35 38  1  6  0  0  0
 36 38  1  6  0  0  0
 36 37  1  0  0  0  0
 36 35  1  0  0  0  0
 37 34  1  6  0  0  0
 37 35  1  0  0  0  0
M  END
>  <MODEL>
9

>  <REMARK>
 VINA RESULT:      -6.4      4.017      7.603
  Name = 
  13 active torsions:
  status: ('A' for Active; 'I' for Inactive)
    1  A    between atoms: O_2  and  C_27
    2  A    between atoms: O_7  and  C_18
    3  A    between atoms: O_7  and  C_20
    4  A    between atoms: C_9  and  N_16
    5  A    between atoms: C_11  and  CA_12
    6  A    between atoms: CA_12  and  N_28
    7  A    between atoms: CA_12  and  C_36
    8  A    between atoms: O_15  and  C_25
    9  A    between atoms: O_15  and  C_36
   10  A    between atoms: N_16  and  S_17
   11  A    between atoms: S_17  and  C_24
   12  A    between atoms: N_28  and  C_31
   13  A    between atoms: C_31  and  C_34
                            x       y       z     vdW  Elec       q    Type
                         _______ _______ _______ _____ _____    ______ ____

>  <TORSDO>
F 13

$$$$
