=
 OpenBabel11062416493D

 34 36  0  0  1  0  0  0  0  0999 V2000
  187.7920  178.3500  145.0960 C   0  0  2  0  0  3  0  0  0  0  0  0
  188.2480  178.5340  147.9630 C   0  0  0  0  0  3  0  0  0  0  0  0
  186.6980  177.4160  145.5710 C   0  0  2  0  0  3  0  0  0  0  0  0
  186.8990  177.6740  144.0890 C   0  0  1  0  0  3  0  0  0  0  0  0
  188.9740  177.6960  145.7690 C   0  0  2  0  0  3  0  0  0  0  0  0
  189.1600  178.3590  147.0520 N   0  0  0  0  0  0  0  0  0  0  0  0
  186.0540  178.3090  146.6070 C   0  0  2  0  0  3  0  0  0  0  0  0
  186.8080  178.0360  147.9200 C   0  0  0  0  0  2  0  0  0  0  0  0
  183.7790  178.9520  146.1290 O   0  0  0  0  0  1  0  0  0  0  0  0
  184.5710  177.9880  146.7580 C   0  0  0  0  0  2  0  0  0  0  0  0
  190.2440  177.8330  144.9220 C   0  0  2  0  0  3  0  0  0  0  0  0
  191.2650  179.7290  144.3860 C   0  0  0  0  0  1  0  0  0  0  0  0
  190.1550  178.9420  144.0710 O   0  0  0  0  0  0  0  0  0  0  0  0
  190.5170  176.5510  144.1200 C   0  0  1  0  0  3  0  0  0  0  0  0
  190.6600  176.7950  142.6410 C   0  0  0  0  0  0  0  0  0  0  0  0
  190.8640  177.2700  139.8870 C   0  0  0  0  0  3  0  0  0  0  0  0
  189.6300  176.9300  140.4490 C   0  0  0  0  0  3  0  0  0  0  0  0
  189.5290  176.6940  141.8230 C   0  0  0  0  0  3  0  0  0  0  0  0
  191.9980  177.3760  140.6990 C   0  0  0  0  0  3  0  0  0  0  0  0
  191.8960  177.1400  142.0730 C   0  0  0  0  0  3  0  0  0  0  0  0
  191.6990  175.7830  144.6970 C   0  0  0  0  0  2  0  0  0  0  0  0
  192.0130  175.9420  147.1900 C   0  0  0  0  0  0  0  0  0  0  0  0
  192.5300  176.6470  148.3120 N   0  0  0  0  0  1  0  0  0  0  0  0
  192.2070  176.4640  145.8770 N   0  0  0  0  0  2  0  0  0  0  0  0
  191.3880  174.8620  147.3660 O   0  0  0  0  0  0  0  0  0  0  0  0
  185.8710  178.6600  143.5610 C   0  0  0  0  0  2  0  0  0  0  0  0
  185.2880  178.1600  142.2510 C   0  0  0  0  0  2  0  0  0  0  0  0
  183.8920  178.7220  142.0470 C   0  0  0  0  0  2  0  0  0  0  0  0
  183.4700  178.5680  140.5840 C   0  0  2  0  0  3  0  0  0  0  0  0
  184.2830  180.3000  139.1000 O   0  0  0  0  0  1  0  0  0  0  0  0
  184.6370  178.1180  138.5320 O   0  0  0  0  0  1  0  0  0  0  0  0
  184.5470  179.0210  139.5920 C   0  0  0  0  0  3  0  0  0  0  0  0
  181.3640  178.9300  141.4400 C   0  0  0  0  0  1  0  0  0  0  0  0
  182.1690  179.0470  140.2960 O   0  0  0  0  0  0  0  0  0  0  0  0
  1  3  1  0  0  0  0
  1  5  1  0  0  0  0
  3  7  1  0  0  0  0
  4  1  1  0  0  0  0
  4  3  1  0  0  0  0
  5  6  1  0  0  0  0
  6  2  2  0  0  0  0
  7 10  1  0  0  0  0
  7  8  1  0  0  0  0
  8  2  1  0  0  0  0
  9 10  1  0  0  0  0
 11  5  1  0  0  0  0
 13 12  1  0  0  0  0
 13 11  1  0  0  0  0
 14 21  1  0  0  0  0
 14 11  1  0  0  0  0
 15 14  1  0  0  0  0
 16 17  2  0  0  0  0
 16 19  1  0  0  0  0
 17 18  1  0  0  0  0
 18 15  2  0  0  0  0
 19 20  2  0  0  0  0
 20 15  1  0  0  0  0
 21 24  1  0  0  0  0
 22 25  2  0  0  0  0
 22 23  1  0  0  0  0
 24 22  1  0  0  0  0
 26  4  1  0  0  0  0
 27 26  1  0  0  0  0
 28 27  1  0  0  0  0
 29 28  1  0  0  0  0
 30 32  1  0  0  0  0
 31 32  1  0  0  0  0
 32 29  1  0  0  0  0
 34 29  1  0  0  0  0
 34 33  1  0  0  0  0
M  END
>  <MODEL>
1

>  <REMARK>
 VINA RESULT:      -7.0      0.000      0.000
  Name = 
  13 active torsions:
  status: ('A' for Active; 'I' for Inactive)
    1  A    between atoms: C_4  and  C_26
    2  A    between atoms: C_7  and  C_17
    3  A    between atoms: C_7  and  C_27
    4  A    between atoms: C_10  and  N_14
    5  A    between atoms: C_10  and  C_26
    6  A    between atoms: C_11  and  C_27
    7  A    between atoms: C_12  and  C_15
    8  A    between atoms: C_15  and  C_26
    9  A    between atoms: C_15  and  O_30
   10  A    between atoms: C_17  and  C_19
   11  A    between atoms: C_19  and  O_31
   12  A    between atoms: C_19  and  C_34
   13  A    between atoms: C_28  and  C_29
                            x       y       z     vdW  Elec       q    Type
                         _______ _______ _______ _____ _____    ______ ____

>  <TORSDO>
F 13

$$$$
=
 OpenBabel11062416493D

 34 36  0  0  1  0  0  0  0  0999 V2000
  184.7110  178.0550  142.3840 C   0  0  2  0  0  3  0  0  0  0  0  0
  182.2330  178.9070  143.6480 C   0  0  0  0  0  3  0  0  0  0  0  0
  185.2680  179.1210  143.3050 C   0  0  2  0  0  3  0  0  0  0  0  0
  186.1890  178.3420  142.3840 C   0  0  1  0  0  3  0  0  0  0  0  0
  183.6770  178.8830  141.6590 C   0  0  2  0  0  3  0  0  0  0  0  0
  182.4190  178.7230  142.3740 N   0  0  0  0  0  0  0  0  0  0  0  0
  184.6300  178.6760  144.6010 C   0  0  2  0  0  3  0  0  0  0  0  0
  183.2670  179.3870  144.6610 C   0  0  0  0  0  2  0  0  0  0  0  0
  184.8830  178.7000  147.0000 O   0  0  0  0  0  1  0  0  0  0  0  0
  185.4940  179.0620  145.7960 C   0  0  0  0  0  2  0  0  0  0  0  0
  183.5140  178.4220  140.2060 C   0  0  2  0  0  3  0  0  0  0  0  0
  185.1980  178.5180  138.7640 C   0  0  0  0  0  1  0  0  0  0  0  0
  184.1820  179.2900  139.3330 O   0  0  0  0  0  0  0  0  0  0  0  0
  182.0310  178.3000  139.8250 C   0  0  1  0  0  3  0  0  0  0  0  0
  181.6190  179.2500  138.7330 C   0  0  0  0  0  0  0  0  0  0  0  0
  180.8220  180.9680  136.6670 C   0  0  0  0  0  3  0  0  0  0  0  0
  181.0690  179.6190  136.3980 C   0  0  0  0  0  3  0  0  0  0  0  0
  181.4650  178.7620  137.4300 C   0  0  0  0  0  3  0  0  0  0  0  0
  180.9700  181.4610  137.9670 C   0  0  0  0  0  3  0  0  0  0  0  0
  181.3660  180.6050  138.9980 C   0  0  0  0  0  3  0  0  0  0  0  0
  181.6610  176.8570  139.5060 C   0  0  0  0  0  2  0  0  0  0  0  0
  182.9130  175.1620  138.1270 C   0  0  0  0  0  0  0  0  0  0  0  0
  184.1110  174.4360  137.8800 N   0  0  0  0  0  1  0  0  0  0  0  0
  182.8610  176.0900  139.2100 N   0  0  0  0  0  2  0  0  0  0  0  0
  181.9090  174.9790  137.3890 O   0  0  0  0  0  0  0  0  0  0  0  0
  186.9300  177.2550  143.1430 C   0  0  0  0  0  2  0  0  0  0  0  0
  188.3790  177.6560  143.3570 C   0  0  0  0  0  2  0  0  0  0  0  0
  188.9780  176.8730  144.5120 C   0  0  0  0  0  2  0  0  0  0  0  0
  189.9440  177.7580  145.3030 C   0  0  2  0  0  3  0  0  0  0  0  0
  191.5500  176.2640  144.2750 O   0  0  0  0  0  1  0  0  0  0  0  0
  191.9090  176.9450  146.4240 O   0  0  0  0  0  1  0  0  0  0  0  0
  191.4080  177.3200  145.1770 C   0  0  0  0  0  3  0  0  0  0  0  0
  188.5000  177.1570  146.9920 C   0  0  0  0  0  1  0  0  0  0  0  0
  189.5290  178.0390  146.6270 O   0  0  0  0  0  0  0  0  0  0  0  0
  1  3  1  0  0  0  0
  2  8  1  0  0  0  0
  3  7  1  0  0  0  0
  4  1  1  0  0  0  0
  4 26  1  0  0  0  0
  4  3  1  0  0  0  0
  5  6  1  0  0  0  0
  5  1  1  0  0  0  0
  6  2  2  0  0  0  0
  7  8  1  0  0  0  0
  7 10  1  0  0  0  0
 10  9  1  0  0  0  0
 11  5  1  0  0  0  0
 12 13  1  0  0  0  0
 13 11  1  0  0  0  0
 14 11  1  0  0  0  0
 15 20  1  0  0  0  0
 15 14  1  0  0  0  0
 16 19  1  0  0  0  0
 17 16  2  0  0  0  0
 17 18  1  0  0  0  0
 18 15  2  0  0  0  0
 19 20  2  0  0  0  0
 21 14  1  0  0  0  0
 22 24  1  0  0  0  0
 23 22  1  0  0  0  0
 24 21  1  0  0  0  0
 25 22  2  0  0  0  0
 26 27  1  0  0  0  0
 27 28  1  0  0  0  0
 28 29  1  0  0  0  0
 29 34  1  0  0  0  0
 30 32  1  0  0  0  0
 32 29  1  0  0  0  0
 32 31  1  0  0  0  0
 34 33  1  0  0  0  0
M  END
>  <MODEL>
2

>  <REMARK>
 VINA RESULT:      -6.9      3.832      8.754
  Name = 
  13 active torsions:
  status: ('A' for Active; 'I' for Inactive)
    1  A    between atoms: C_4  and  C_26
    2  A    between atoms: C_7  and  C_17
    3  A    between atoms: C_7  and  C_27
    4  A    between atoms: C_10  and  N_14
    5  A    between atoms: C_10  and  C_26
    6  A    between atoms: C_11  and  C_27
    7  A    between atoms: C_12  and  C_15
    8  A    between atoms: C_15  and  C_26
    9  A    between atoms: C_15  and  O_30
   10  A    between atoms: C_17  and  C_19
   11  A    between atoms: C_19  and  O_31
   12  A    between atoms: C_19  and  C_34
   13  A    between atoms: C_28  and  C_29
                            x       y       z     vdW  Elec       q    Type
                         _______ _______ _______ _____ _____    ______ ____

>  <TORSDO>
F 13

$$$$
=
 OpenBabel11062416493D

 34 36  0  0  1  0  0  0  0  0999 V2000
  184.4640  178.0670  142.4590 C   0  0  2  0  0  3  0  0  0  0  0  0
  182.0280  178.7900  143.8770 C   0  0  0  0  0  3  0  0  0  0  0  0
  185.0160  179.1780  143.3270 C   0  0  2  0  0  3  0  0  0  0  0  0
  185.9190  178.4410  142.3560 C   0  0  1  0  0  3  0  0  0  0  0  0
  183.3360  178.8190  141.7950 C   0  0  2  0  0  3  0  0  0  0  0  0
  182.1400  178.5970  142.5950 N   0  0  0  0  0  0  0  0  0  0  0  0
  184.4930  178.7170  144.6690 C   0  0  2  0  0  3  0  0  0  0  0  0
  183.0970  179.3460  144.8120 C   0  0  0  0  0  2  0  0  0  0  0  0
  184.9630  178.6980  147.0340 O   0  0  0  0  0  1  0  0  0  0  0  0
  185.4100  179.1720  145.7980 C   0  0  0  0  0  2  0  0  0  0  0  0
  183.1050  178.3270  140.3620 C   0  0  2  0  0  3  0  0  0  0  0  0
  182.3180  176.3180  139.8440 C   0  0  0  0  0  1  0  0  0  0  0  0
  183.4820  176.9840  140.2320 O   0  0  0  0  0  0  0  0  0  0  0  0
  183.8540  179.2040  139.3460 C   0  0  1  0  0  3  0  0  0  0  0  0
  184.8750  178.4430  138.5440 C   0  0  0  0  0  0  0  0  0  0  0  0
  186.7390  177.0370  136.9940 C   0  0  0  0  0  3  0  0  0  0  0  0
  185.3900  177.0480  136.6270 C   0  0  0  0  0  3  0  0  0  0  0  0
  184.4610  177.7500  137.4000 C   0  0  0  0  0  3  0  0  0  0  0  0
  187.1590  177.7300  138.1330 C   0  0  0  0  0  3  0  0  0  0  0  0
  186.2300  178.4330  138.9060 C   0  0  0  0  0  3  0  0  0  0  0  0
  182.8810  179.9750  138.4630 C   0  0  0  0  0  2  0  0  0  0  0  0
  180.8440  181.3540  139.0020 C   0  0  0  0  0  0  0  0  0  0  0  0
  179.6170  181.4930  139.7090 N   0  0  0  0  0  1  0  0  0  0  0  0
  181.6200  180.1680  139.1610 N   0  0  0  0  0  2  0  0  0  0  0  0
  181.2350  182.2800  138.2430 O   0  0  0  0  0  0  0  0  0  0  0  0
  186.7720  177.4110  143.0760 C   0  0  0  0  0  2  0  0  0  0  0  0
  188.2450  177.6790  142.8230 C   0  0  0  0  0  2  0  0  0  0  0  0
  189.1000  176.6510  143.5430 C   0  0  0  0  0  2  0  0  0  0  0  0
  189.7520  177.2780  144.7770 C   0  0  2  0  0  3  0  0  0  0  0  0
  191.8970  177.1060  145.8900 O   0  0  0  0  0  1  0  0  0  0  0  0
  191.6450  178.6550  144.2320 O   0  0  0  0  0  1  0  0  0  0  0  0
  191.2780  177.3820  144.6690 C   0  0  0  0  0  3  0  0  0  0  0  0
  188.5440  177.7520  146.6780 C   0  0  0  0  0  1  0  0  0  0  0  0
  189.2860  176.7640  146.0110 O   0  0  0  0  0  0  0  0  0  0  0  0
  1  3  1  0  0  0  0
  2  8  1  0  0  0  0
  3  7  1  0  0  0  0
  4  1  1  0  0  0  0
  4 26  1  0  0  0  0
  4  3  1  0  0  0  0
  5  1  1  0  0  0  0
  5  6  1  0  0  0  0
  6  2  2  0  0  0  0
  7  8  1  0  0  0  0
  7 10  1  0  0  0  0
 10  9  1  0  0  0  0
 11  5  1  0  0  0  0
 12 13  1  0  0  0  0
 13 11  1  0  0  0  0
 14 11  1  0  0  0  0
 15 20  1  0  0  0  0
 15 14  1  0  0  0  0
 16 19  1  0  0  0  0
 17 16  2  0  0  0  0
 17 18  1  0  0  0  0
 18 15  2  0  0  0  0
 19 20  2  0  0  0  0
 21 24  1  0  0  0  0
 21 14  1  0  0  0  0
 22 24  1  0  0  0  0
 22 23  1  0  0  0  0
 25 22  2  0  0  0  0
 27 26  1  0  0  0  0
 27 28  1  0  0  0  0
 28 29  1  0  0  0  0
 29 34  1  0  0  0  0
 31 32  1  0  0  0  0
 32 29  1  0  0  0  0
 32 30  1  0  0  0  0
 34 33  1  0  0  0  0
M  END
>  <MODEL>
3

>  <REMARK>
 VINA RESULT:      -6.8      3.815      8.352
  Name = 
  13 active torsions:
  status: ('A' for Active; 'I' for Inactive)
    1  A    between atoms: C_4  and  C_26
    2  A    between atoms: C_7  and  C_17
    3  A    between atoms: C_7  and  C_27
    4  A    between atoms: C_10  and  N_14
    5  A    between atoms: C_10  and  C_26
    6  A    between atoms: C_11  and  C_27
    7  A    between atoms: C_12  and  C_15
    8  A    between atoms: C_15  and  C_26
    9  A    between atoms: C_15  and  O_30
   10  A    between atoms: C_17  and  C_19
   11  A    between atoms: C_19  and  O_31
   12  A    between atoms: C_19  and  C_34
   13  A    between atoms: C_28  and  C_29
                            x       y       z     vdW  Elec       q    Type
                         _______ _______ _______ _____ _____    ______ ____

>  <TORSDO>
F 13

$$$$
=
 OpenBabel11062416493D

 34 36  0  0  1  0  0  0  0  0999 V2000
  184.6720  178.4040  141.7950 C   0  0  2  0  0  3  0  0  0  0  0  0
  182.0630  178.8050  143.0200 C   0  0  0  0  0  3  0  0  0  0  0  0
  185.0910  179.2640  142.9700 C   0  0  2  0  0  3  0  0  0  0  0  0
  186.1220  178.7660  141.9740 C   0  0  1  0  0  3  0  0  0  0  0  0
  183.6280  179.3140  141.1940 C   0  0  2  0  0  3  0  0  0  0  0  0
  182.3430  178.9250  141.7550 N   0  0  0  0  0  0  0  0  0  0  0  0
  184.4060  178.5010  144.0820 C   0  0  2  0  0  3  0  0  0  0  0  0
  182.9940  179.1020  144.1910 C   0  0  0  0  0  2  0  0  0  0  0  0
  184.2840  178.7280  146.4800 O   0  0  0  0  0  1  0  0  0  0  0  0
  185.1630  178.6550  145.3960 C   0  0  0  0  0  2  0  0  0  0  0  0
  183.5920  179.1850  139.6670 C   0  0  2  0  0  3  0  0  0  0  0  0
  182.4140  180.7040  138.5570 C   0  0  0  0  0  1  0  0  0  0  0  0
  182.3080  179.4560  139.1770 O   0  0  0  0  0  0  0  0  0  0  0  0
  184.0650  177.7950  139.2150 C   0  0  1  0  0  3  0  0  0  0  0  0
  182.9350  176.8770  138.8340 C   0  0  0  0  0  0  0  0  0  0  0  0
  180.8010  175.1800  138.1840 C   0  0  0  0  0  3  0  0  0  0  0  0
  181.1870  175.3400  139.5190 C   0  0  0  0  0  3  0  0  0  0  0  0
  182.2500  176.1880  139.8420 C   0  0  0  0  0  3  0  0  0  0  0  0
  181.4780  175.8690  137.1730 C   0  0  0  0  0  3  0  0  0  0  0  0
  182.5420  176.7160  137.4970 C   0  0  0  0  0  3  0  0  0  0  0  0
  185.1180  177.9020  138.1190 C   0  0  0  0  0  2  0  0  0  0  0  0
  187.5920  178.0520  138.5630 C   0  0  0  0  0  0  0  0  0  0  0  0
  188.6980  178.7930  139.0620 N   0  0  0  0  0  1  0  0  0  0  0  0
  186.2830  178.6170  138.6150 N   0  0  0  0  0  2  0  0  0  0  0  0
  187.7770  176.9040  138.0790 O   0  0  0  0  0  0  0  0  0  0  0  0
  186.8910  177.5790  142.5280 C   0  0  0  0  0  2  0  0  0  0  0  0
  188.3650  177.9200  142.6550 C   0  0  0  0  0  2  0  0  0  0  0  0
  189.0860  176.8520  143.4590 C   0  0  0  0  0  2  0  0  0  0  0  0
  189.7530  177.4770  144.6860 C   0  0  2  0  0  3  0  0  0  0  0  0
  191.8210  178.6400  144.2000 O   0  0  0  0  0  1  0  0  0  0  0  0
  191.7050  176.3960  143.7940 O   0  0  0  0  0  1  0  0  0  0  0  0
  191.2840  177.4270  144.6350 C   0  0  0  0  0  3  0  0  0  0  0  0
  190.2140  176.9640  146.8830 C   0  0  0  0  0  1  0  0  0  0  0  0
  189.1950  177.0750  145.9240 O   0  0  0  0  0  0  0  0  0  0  0  0
  1  4  1  0  0  0  0
  1  3  1  0  0  0  0
  2  8  1  0  0  0  0
  3  7  1  0  0  0  0
  4 26  1  0  0  0  0
  4  3  1  0  0  0  0
  5  6  1  0  0  0  0
  5  1  1  0  0  0  0
  6  2  2  0  0  0  0
  7  8  1  0  0  0  0
  7 10  1  0  0  0  0
 10  9  1  0  0  0  0
 11  5  1  0  0  0  0
 12 13  1  0  0  0  0
 13 11  1  0  0  0  0
 14 11  1  0  0  0  0
 15 14  1  0  0  0  0
 15 18  1  0  0  0  0
 16 17  1  0  0  0  0
 17 18  2  0  0  0  0
 19 20  1  0  0  0  0
 19 16  2  0  0  0  0
 20 15  2  0  0  0  0
 21 24  1  0  0  0  0
 21 14  1  0  0  0  0
 22 24  1  0  0  0  0
 22 23  1  0  0  0  0
 25 22  2  0  0  0  0
 26 27  1  0  0  0  0
 27 28  1  0  0  0  0
 28 29  1  0  0  0  0
 29 34  1  0  0  0  0
 30 32  1  0  0  0  0
 31 32  1  0  0  0  0
 32 29  1  0  0  0  0
 34 33  1  0  0  0  0
M  END
>  <MODEL>
4

>  <REMARK>
 VINA RESULT:      -6.8      3.422      8.024
  Name = 
  13 active torsions:
  status: ('A' for Active; 'I' for Inactive)
    1  A    between atoms: C_4  and  C_26
    2  A    between atoms: C_7  and  C_17
    3  A    between atoms: C_7  and  C_27
    4  A    between atoms: C_10  and  N_14
    5  A    between atoms: C_10  and  C_26
    6  A    between atoms: C_11  and  C_27
    7  A    between atoms: C_12  and  C_15
    8  A    between atoms: C_15  and  C_26
    9  A    between atoms: C_15  and  O_30
   10  A    between atoms: C_17  and  C_19
   11  A    between atoms: C_19  and  O_31
   12  A    between atoms: C_19  and  C_34
   13  A    between atoms: C_28  and  C_29
                            x       y       z     vdW  Elec       q    Type
                         _______ _______ _______ _____ _____    ______ ____

>  <TORSDO>
F 13

$$$$
=
 OpenBabel11062416493D

 34 36  0  0  1  0  0  0  0  0999 V2000
  188.8220  177.8830  143.8880 C   0  0  2  0  0  3  0  0  0  0  0  0
  191.7100  178.1860  144.0700 C   0  0  0  0  0  3  0  0  0  0  0  0
  189.1220  176.7360  144.8310 C   0  0  2  0  0  3  0  0  0  0  0  0
  187.6970  177.0190  144.3940 C   0  0  1  0  0  3  0  0  0  0  0  0
  189.7460  177.5090  142.7550 C   0  0  2  0  0  3  0  0  0  0  0  0
  191.0040  178.2070  142.9770 N   0  0  0  0  0  0  0  0  0  0  0  0
  189.9650  177.4740  145.8460 C   0  0  2  0  0  3  0  0  0  0  0  0
  191.4120  177.3840  145.3320 C   0  0  0  0  0  2  0  0  0  0  0  0
  189.0840  177.6380  148.0850 O   0  0  0  0  0  1  0  0  0  0  0  0
  189.8400  176.8370  147.2260 C   0  0  0  0  0  2  0  0  0  0  0  0
  189.1570  177.9140  141.3990 C   0  0  2  0  0  3  0  0  0  0  0  0
  187.2260  178.9960  141.2390 C   0  0  0  0  0  1  0  0  0  0  0  0
  187.7700  177.7180  141.3820 O   0  0  0  0  0  0  0  0  0  0  0  0
  189.8300  177.1480  140.2500 C   0  0  1  0  0  3  0  0  0  0  0  0
  189.1740  177.3820  138.9150 C   0  0  0  0  0  0  0  0  0  0  0  0
  187.9970  177.8680  136.4190 C   0  0  0  0  0  3  0  0  0  0  0  0
  188.6230  178.9080  137.1120 C   0  0  0  0  0  3  0  0  0  0  0  0
  189.2110  178.6650  138.3560 C   0  0  0  0  0  3  0  0  0  0  0  0
  187.9600  176.5830  136.9700 C   0  0  0  0  0  3  0  0  0  0  0  0
  188.5480  176.3400  138.2150 C   0  0  0  0  0  3  0  0  0  0  0  0
  191.3290  177.4170  140.2130 C   0  0  0  0  0  2  0  0  0  0  0  0
  193.3410  176.6230  138.9240 C   0  0  0  0  0  0  0  0  0  0  0  0
  193.8760  175.9580  137.7860 N   0  0  0  0  0  1  0  0  0  0  0  0
  191.9280  176.7460  139.0700 N   0  0  0  0  0  2  0  0  0  0  0  0
  194.1200  177.0990  139.7920 O   0  0  0  0  0  0  0  0  0  0  0  0
  186.9270  177.7510  145.4800 C   0  0  0  0  0  2  0  0  0  0  0  0
  185.4640  177.8780  145.0940 C   0  0  0  0  0  2  0  0  0  0  0  0
  185.2670  179.0540  144.1540 C   0  0  0  0  0  2  0  0  0  0  0  0
  184.0030  178.8520  143.3160 C   0  0  2  0  0  3  0  0  0  0  0  0
  181.6170  179.2360  143.4940 O   0  0  0  0  0  1  0  0  0  0  0  0
  182.8920  179.3730  145.3830 O   0  0  0  0  0  1  0  0  0  0  0  0
  182.7300  178.7190  144.1600 C   0  0  0  0  0  3  0  0  0  0  0  0
  183.7320  178.4470  141.0660 C   0  0  0  0  0  1  0  0  0  0  0  0
  184.1280  177.8840  142.2900 O   0  0  0  0  0  0  0  0  0  0  0  0
  1  4  1  0  0  0  0
  1  3  1  0  0  0  0
  2  8  1  0  0  0  0
  3  7  1  0  0  0  0
  4  3  1  0  0  0  0
  4 26  1  0  0  0  0
  5  6  1  0  0  0  0
  5  1  1  0  0  0  0
  6  2  2  0  0  0  0
  7 10  1  0  0  0  0
  8  7  1  0  0  0  0
 10  9  1  0  0  0  0
 11  5  1  0  0  0  0
 12 13  1  0  0  0  0
 13 11  1  0  0  0  0
 14 11  1  0  0  0  0
 15 14  1  0  0  0  0
 16 19  2  0  0  0  0
 16 17  1  0  0  0  0
 17 18  2  0  0  0  0
 18 15  1  0  0  0  0
 19 20  1  0  0  0  0
 20 15  2  0  0  0  0
 21 14  1  0  0  0  0
 22 24  1  0  0  0  0
 22 25  2  0  0  0  0
 23 22  1  0  0  0  0
 24 21  1  0  0  0  0
 27 26  1  0  0  0  0
 28 27  1  0  0  0  0
 29 28  1  0  0  0  0
 29 32  1  0  0  0  0
 30 32  1  0  0  0  0
 32 31  1  0  0  0  0
 33 34  1  0  0  0  0
 34 29  1  0  0  0  0
M  END
>  <MODEL>
5

>  <REMARK>
 VINA RESULT:      -6.6      3.074      4.978
  Name = 
  13 active torsions:
  status: ('A' for Active; 'I' for Inactive)
    1  A    between atoms: C_4  and  C_26
    2  A    between atoms: C_7  and  C_17
    3  A    between atoms: C_7  and  C_27
    4  A    between atoms: C_10  and  N_14
    5  A    between atoms: C_10  and  C_26
    6  A    between atoms: C_11  and  C_27
    7  A    between atoms: C_12  and  C_15
    8  A    between atoms: C_15  and  C_26
    9  A    between atoms: C_15  and  O_30
   10  A    between atoms: C_17  and  C_19
   11  A    between atoms: C_19  and  O_31
   12  A    between atoms: C_19  and  C_34
   13  A    between atoms: C_28  and  C_29
                            x       y       z     vdW  Elec       q    Type
                         _______ _______ _______ _____ _____    ______ ____

>  <TORSDO>
F 13

$$$$
=
 OpenBabel11062416493D

 34 36  0  0  1  0  0  0  0  0999 V2000
  184.5010  178.0920  142.5280 C   0  0  2  0  0  3  0  0  0  0  0  0
  182.0540  178.7480  143.9590 C   0  0  0  0  0  3  0  0  0  0  0  0
  185.0480  179.1560  143.4580 C   0  0  2  0  0  3  0  0  0  0  0  0
  185.9580  178.4660  142.4580 C   0  0  1  0  0  3  0  0  0  0  0  0
  183.3810  178.8810  141.8940 C   0  0  2  0  0  3  0  0  0  0  0  0
  182.1780  178.6200  142.6700 N   0  0  0  0  0  0  0  0  0  0  0  0
  184.5110  178.6270  144.7690 C   0  0  2  0  0  3  0  0  0  0  0  0
  183.1160  179.2520  144.9310 C   0  0  0  0  0  2  0  0  0  0  0  0
  184.9430  178.5100  147.1390 O   0  0  0  0  0  1  0  0  0  0  0  0
  185.4190  179.0210  145.9280 C   0  0  0  0  0  2  0  0  0  0  0  0
  183.1630  178.4630  140.4360 C   0  0  2  0  0  3  0  0  0  0  0  0
  182.2120  176.5460  139.8490 C   0  0  0  0  0  1  0  0  0  0  0  0
  183.4250  177.0980  140.2650 O   0  0  0  0  0  0  0  0  0  0  0  0
  184.0230  179.3070  139.4810 C   0  0  1  0  0  3  0  0  0  0  0  0
  184.9210  178.4790  138.6020 C   0  0  0  0  0  0  0  0  0  0  0  0
  186.5560  176.9540  136.9120 C   0  0  0  0  0  3  0  0  0  0  0  0
  185.2070  177.1430  136.5970 C   0  0  0  0  0  3  0  0  0  0  0  0
  184.3920  177.9050  137.4400 C   0  0  0  0  0  3  0  0  0  0  0  0
  187.0910  177.5280  138.0700 C   0  0  0  0  0  3  0  0  0  0  0  0
  186.2760  178.2890  138.9130 C   0  0  0  0  0  3  0  0  0  0  0  0
  183.1640  180.2780  138.6810 C   0  0  0  0  0  2  0  0  0  0  0  0
  180.8040  179.7890  137.9510 C   0  0  0  0  0  0  0  0  0  0  0  0
  179.4390  179.5840  138.2950 N   0  0  0  0  0  1  0  0  0  0  0  0
  181.7570  180.0600  138.9770 N   0  0  0  0  0  2  0  0  0  0  0  0
  181.1590  179.7290  136.7440 O   0  0  0  0  0  0  0  0  0  0  0  0
  186.8030  177.3990  143.1320 C   0  0  0  0  0  2  0  0  0  0  0  0
  188.2650  177.8100  143.1350 C   0  0  0  0  0  2  0  0  0  0  0  0
  188.7940  177.8870  141.7140 C   0  0  0  0  0  2  0  0  0  0  0  0
  190.1670  177.2180  141.6260 C   0  0  2  0  0  3  0  0  0  0  0  0
  190.5260  176.0010  139.5620 O   0  0  0  0  0  1  0  0  0  0  0  0
  192.1210  177.4830  140.2510 O   0  0  0  0  0  1  0  0  0  0  0  0
  190.7510  177.2180  140.2080 C   0  0  0  0  0  3  0  0  0  0  0  0
  191.2760  176.0340  143.2590 C   0  0  0  0  0  1  0  0  0  0  0  0
  190.2570  175.9740  142.2960 O   0  0  0  0  0  0  0  0  0  0  0  0
  1  3  1  0  0  0  0
  2  8  1  0  0  0  0
  3  7  1  0  0  0  0
  4  1  1  0  0  0  0
  4 26  1  0  0  0  0
  4  3  1  0  0  0  0
  5  1  1  0  0  0  0
  5  6  1  0  0  0  0
  6  2  2  0  0  0  0
  7  8  1  0  0  0  0
  7 10  1  0  0  0  0
 10  9  1  0  0  0  0
 11  5  1  0  0  0  0
 12 13  1  0  0  0  0
 13 11  1  0  0  0  0
 14 11  1  0  0  0  0
 15 20  1  0  0  0  0
 15 14  1  0  0  0  0
 16 19  1  0  0  0  0
 17 16  2  0  0  0  0
 17 18  1  0  0  0  0
 18 15  2  0  0  0  0
 19 20  2  0  0  0  0
 21 24  1  0  0  0  0
 21 14  1  0  0  0  0
 22 23  1  0  0  0  0
 22 24  1  0  0  0  0
 25 22  2  0  0  0  0
 26 27  1  0  0  0  0
 28 27  1  0  0  0  0
 29 28  1  0  0  0  0
 29 34  1  0  0  0  0
 30 32  1  0  0  0  0
 32 31  1  0  0  0  0
 32 29  1  0  0  0  0
 34 33  1  0  0  0  0
M  END
>  <MODEL>
6

>  <REMARK>
 VINA RESULT:      -6.6      4.027      8.169
  Name = 
  13 active torsions:
  status: ('A' for Active; 'I' for Inactive)
    1  A    between atoms: C_4  and  C_26
    2  A    between atoms: C_7  and  C_17
    3  A    between atoms: C_7  and  C_27
    4  A    between atoms: C_10  and  N_14
    5  A    between atoms: C_10  and  C_26
    6  A    between atoms: C_11  and  C_27
    7  A    between atoms: C_12  and  C_15
    8  A    between atoms: C_15  and  C_26
    9  A    between atoms: C_15  and  O_30
   10  A    between atoms: C_17  and  C_19
   11  A    between atoms: C_19  and  O_31
   12  A    between atoms: C_19  and  C_34
   13  A    between atoms: C_28  and  C_29
                            x       y       z     vdW  Elec       q    Type
                         _______ _______ _______ _____ _____    ______ ____

>  <TORSDO>
F 13

$$$$
=
 OpenBabel11062416493D

 34 36  0  0  1  0  0  0  0  0999 V2000
  189.0820  178.1500  140.9440 C   0  0  2  0  0  3  0  0  0  0  0  0
  191.7410  177.2700  141.7310 C   0  0  0  0  0  3  0  0  0  0  0  0
  188.6920  177.0200  141.8750 C   0  0  2  0  0  3  0  0  0  0  0  0
  187.6260  177.8360  141.1670 C   0  0  1  0  0  3  0  0  0  0  0  0
  189.9900  177.3880  140.0100 C   0  0  2  0  0  3  0  0  0  0  0  0
  191.3460  177.5280  140.5180 N   0  0  0  0  0  0  0  0  0  0  0  0
  189.5310  177.3970  143.0750 C   0  0  2  0  0  3  0  0  0  0  0  0
  190.8910  176.7100  142.8670 C   0  0  0  0  0  2  0  0  0  0  0  0
  189.7240  177.1170  145.4630 O   0  0  0  0  0  1  0  0  0  0  0  0
  188.8770  176.9230  144.3680 C   0  0  0  0  0  2  0  0  0  0  0  0
  189.9080  177.9390  138.5820 C   0  0  2  0  0  3  0  0  0  0  0  0
  189.0250  179.4120  137.1770 C   0  0  0  0  0  1  0  0  0  0  0  0
  189.0180  179.0190  138.5170 O   0  0  0  0  0  0  0  0  0  0  0  0
  189.5070  176.8410  137.5850 C   0  0  1  0  0  3  0  0  0  0  0  0
  190.6170  175.8660  137.2980 C   0  0  0  0  0  0  0  0  0  0  0  0
  192.6400  174.0110  136.7290 C   0  0  0  0  0  3  0  0  0  0  0  0
  191.3120  173.5880  136.8360 C   0  0  0  0  0  3  0  0  0  0  0  0
  190.3030  174.5130  137.1180 C   0  0  0  0  0  3  0  0  0  0  0  0
  192.9590  175.3610  136.9030 C   0  0  0  0  0  3  0  0  0  0  0  0
  191.9510  176.2870  137.1860 C   0  0  0  0  0  3  0  0  0  0  0  0
  188.2240  176.1450  138.0200 C   0  0  0  0  0  2  0  0  0  0  0  0
  186.0960  177.1180  137.0880 C   0  0  0  0  0  0  0  0  0  0  0  0
  185.1430  177.1820  136.0340 N   0  0  0  0  0  1  0  0  0  0  0  0
  187.2210  176.2490  136.9710 N   0  0  0  0  0  2  0  0  0  0  0  0
  185.9370  177.8290  138.1160 O   0  0  0  0  0  0  0  0  0  0  0  0
  187.0100  178.8610  142.1040 C   0  0  0  0  0  2  0  0  0  0  0  0
  185.5330  179.0330  141.7980 C   0  0  0  0  0  2  0  0  0  0  0  0
  184.6910  178.3880  142.8840 C   0  0  0  0  0  2  0  0  0  0  0  0
  184.4700  179.3730  144.0340 C   0  0  2  0  0  3  0  0  0  0  0  0
  185.7720  177.7030  145.2100 O   0  0  0  0  0  1  0  0  0  0  0  0
  184.2780  178.9590  146.3940 O   0  0  0  0  0  1  0  0  0  0  0  0
  185.1800  178.9620  145.3290 C   0  0  0  0  0  3  0  0  0  0  0  0
  182.2890  178.9800  143.4120 C   0  0  0  0  0  1  0  0  0  0  0  0
  183.1250  179.7800  144.2080 O   0  0  0  0  0  0  0  0  0  0  0  0
  1  4  1  0  0  0  0
  1  3  1  0  0  0  0
  2  8  1  0  0  0  0
  3  7  1  0  0  0  0
  4  3  1  0  0  0  0
  4 26  1  0  0  0  0
  5  6  1  0  0  0  0
  5  1  1  0  0  0  0
  6  2  2  0  0  0  0
  7 10  1  0  0  0  0
  8  7  1  0  0  0  0
 10  9  1  0  0  0  0
 11  5  1  0  0  0  0
 12 13  1  0  0  0  0
 13 11  1  0  0  0  0
 14 21  1  0  0  0  0
 14 11  1  0  0  0  0
 15 14  1  0  0  0  0
 16 17  2  0  0  0  0
 16 19  1  0  0  0  0
 17 18  1  0  0  0  0
 18 15  2  0  0  0  0
 19 20  2  0  0  0  0
 20 15  1  0  0  0  0
 22 25  2  0  0  0  0
 23 22  1  0  0  0  0
 24 22  1  0  0  0  0
 24 21  1  0  0  0  0
 27 26  1  0  0  0  0
 27 28  1  0  0  0  0
 28 29  1  0  0  0  0
 29 34  1  0  0  0  0
 29 32  1  0  0  0  0
 30 32  1  0  0  0  0
 32 31  1  0  0  0  0
 33 34  1  0  0  0  0
M  END
>  <MODEL>
7

>  <REMARK>
 VINA RESULT:      -6.4      3.778      6.536
  Name = 
  13 active torsions:
  status: ('A' for Active; 'I' for Inactive)
    1  A    between atoms: C_4  and  C_26
    2  A    between atoms: C_7  and  C_17
    3  A    between atoms: C_7  and  C_27
    4  A    between atoms: C_10  and  N_14
    5  A    between atoms: C_10  and  C_26
    6  A    between atoms: C_11  and  C_27
    7  A    between atoms: C_12  and  C_15
    8  A    between atoms: C_15  and  C_26
    9  A    between atoms: C_15  and  O_30
   10  A    between atoms: C_17  and  C_19
   11  A    between atoms: C_19  and  O_31
   12  A    between atoms: C_19  and  C_34
   13  A    between atoms: C_28  and  C_29
                            x       y       z     vdW  Elec       q    Type
                         _______ _______ _______ _____ _____    ______ ____

>  <TORSDO>
F 13

$$$$
=
 OpenBabel11062416493D

 34 36  0  0  1  0  0  0  0  0999 V2000
  184.5030  178.2550  142.2100 C   0  0  2  0  0  3  0  0  0  0  0  0
  182.0340  178.7730  143.6600 C   0  0  0  0  0  3  0  0  0  0  0  0
  185.0020  179.3330  143.1500 C   0  0  2  0  0  3  0  0  0  0  0  0
  185.9390  178.7010  142.1370 C   0  0  1  0  0  3  0  0  0  0  0  0
  183.3420  178.9960  141.5910 C   0  0  2  0  0  3  0  0  0  0  0  0
  182.1570  178.6680  142.3690 N   0  0  0  0  0  0  0  0  0  0  0  0
  184.4990  178.7620  144.4570 C   0  0  2  0  0  3  0  0  0  0  0  0
  183.0750  179.3170  144.6340 C   0  0  0  0  0  2  0  0  0  0  0  0
  184.8960  178.7140  146.8360 O   0  0  0  0  0  1  0  0  0  0  0  0
  185.3920  179.1860  145.6170 C   0  0  0  0  0  2  0  0  0  0  0  0
  183.1370  178.5870  140.1280 C   0  0  2  0  0  3  0  0  0  0  0  0
  184.7900  178.5640  138.6480 C   0  0  0  0  0  1  0  0  0  0  0  0
  183.8750  179.4140  139.2730 O   0  0  0  0  0  0  0  0  0  0  0  0
  181.6470  178.6030  139.7510 C   0  0  1  0  0  3  0  0  0  0  0  0
  181.2940  179.6930  138.7750 C   0  0  0  0  0  0  0  0  0  0  0  0
  180.6050  181.6760  136.9190 C   0  0  0  0  0  3  0  0  0  0  0  0
  180.8110  180.3610  136.4930 C   0  0  0  0  0  3  0  0  0  0  0  0
  181.1530  179.3710  137.4200 C   0  0  0  0  0  3  0  0  0  0  0  0
  180.7410  182.0030  138.2720 C   0  0  0  0  0  3  0  0  0  0  0  0
  181.0830  181.0140  139.1980 C   0  0  0  0  0  3  0  0  0  0  0  0
  181.1840  177.2310  139.2790 C   0  0  0  0  0  2  0  0  0  0  0  0
  179.4780  175.6220  140.1960 C   0  0  0  0  0  0  0  0  0  0  0  0
  178.9310  174.9300  141.3110 N   0  0  0  0  0  1  0  0  0  0  0  0
  180.5880  176.4980  140.3850 N   0  0  0  0  0  2  0  0  0  0  0  0
  178.9780  175.4560  139.0520 O   0  0  0  0  0  0  0  0  0  0  0  0
  186.8380  177.6680  142.7940 C   0  0  0  0  0  2  0  0  0  0  0  0
  188.1940  177.6400  142.1110 C   0  0  0  0  0  2  0  0  0  0  0  0
  189.2800  178.0790  143.0770 C   0  0  0  0  0  2  0  0  0  0  0  0
  189.4670  177.0270  144.1730 C   0  0  2  0  0  3  0  0  0  0  0  0
  190.3430  177.2080  146.4250 O   0  0  0  0  0  1  0  0  0  0  0  0
  188.0800  177.1630  146.1310 O   0  0  0  0  0  1  0  0  0  0  0  0
  189.2930  177.5900  145.5890 C   0  0  0  0  0  3  0  0  0  0  0  0
  191.5460  176.8640  143.1990 C   0  0  0  0  0  1  0  0  0  0  0  0
  190.6070  176.2040  144.0070 O   0  0  0  0  0  0  0  0  0  0  0  0
  1  3  1  0  0  0  0
  2  8  1  0  0  0  0
  3  7  1  0  0  0  0
  4  1  1  0  0  0  0
  4 26  1  0  0  0  0
  4  3  1  0  0  0  0
  5  1  1  0  0  0  0
  5  6  1  0  0  0  0
  6  2  2  0  0  0  0
  7  8  1  0  0  0  0
  7 10  1  0  0  0  0
 10  9  1  0  0  0  0
 11  5  1  0  0  0  0
 12 13  1  0  0  0  0
 13 11  1  0  0  0  0
 14 11  1  0  0  0  0
 15 20  1  0  0  0  0
 15 14  1  0  0  0  0
 16 19  1  0  0  0  0
 17 16  2  0  0  0  0
 17 18  1  0  0  0  0
 18 15  2  0  0  0  0
 19 20  2  0  0  0  0
 21 14  1  0  0  0  0
 21 24  1  0  0  0  0
 22 24  1  0  0  0  0
 22 23  1  0  0  0  0
 25 22  2  0  0  0  0
 27 26  1  0  0  0  0
 27 28  1  0  0  0  0
 28 29  1  0  0  0  0
 29 32  1  0  0  0  0
 32 31  1  0  0  0  0
 32 30  1  0  0  0  0
 33 34  1  0  0  0  0
 34 29  1  0  0  0  0
M  END
>  <MODEL>
8

>  <REMARK>
 VINA RESULT:      -6.4      4.070      9.095
  Name = 
  13 active torsions:
  status: ('A' for Active; 'I' for Inactive)
    1  A    between atoms: C_4  and  C_26
    2  A    between atoms: C_7  and  C_17
    3  A    between atoms: C_7  and  C_27
    4  A    between atoms: C_10  and  N_14
    5  A    between atoms: C_10  and  C_26
    6  A    between atoms: C_11  and  C_27
    7  A    between atoms: C_12  and  C_15
    8  A    between atoms: C_15  and  C_26
    9  A    between atoms: C_15  and  O_30
   10  A    between atoms: C_17  and  C_19
   11  A    between atoms: C_19  and  O_31
   12  A    between atoms: C_19  and  C_34
   13  A    between atoms: C_28  and  C_29
                            x       y       z     vdW  Elec       q    Type
                         _______ _______ _______ _____ _____    ______ ____

>  <TORSDO>
F 13

$$$$
=
 OpenBabel11062416493D

 34 36  0  0  1  0  0  0  0  0999 V2000
  188.5300  177.4360  141.0430 C   0  0  2  0  0  3  0  0  0  0  0  0
  190.7010  176.4300  139.3870 C   0  0  0  0  0  3  0  0  0  0  0  0
  188.7000  178.6280  140.1230 C   0  0  2  0  0  3  0  0  0  0  0  0
  187.6520  178.6470  141.2210 C   0  0  1  0  0  3  0  0  0  0  0  0
  189.9470  177.3220  141.5500 C   0  0  2  0  0  3  0  0  0  0  0  0
  190.6400  176.3780  140.6860 N   0  0  0  0  0  0  0  0  0  0  0  0
  188.6620  177.9120  138.7920 C   0  0  2  0  0  3  0  0  0  0  0  0
  190.1170  177.5160  138.4900 C   0  0  0  0  0  2  0  0  0  0  0  0
  189.0510  179.7780  137.3140 O   0  0  0  0  0  1  0  0  0  0  0  0
  188.1100  178.8190  137.6990 C   0  0  0  0  0  2  0  0  0  0  0  0
  189.9810  176.8260  143.0000 C   0  0  2  0  0  3  0  0  0  0  0  0
  189.6680  174.6450  143.2640 C   0  0  0  0  0  1  0  0  0  0  0  0
  188.9870  175.8630  143.2180 O   0  0  0  0  0  0  0  0  0  0  0  0
  189.8370  177.9920  143.9900 C   0  0  1  0  0  3  0  0  0  0  0  0
  188.5920  177.9060  144.8310 C   0  0  0  0  0  0  0  0  0  0  0  0
  186.3040  177.7800  146.4450 C   0  0  0  0  0  3  0  0  0  0  0  0
  187.5730  177.8140  147.0310 C   0  0  0  0  0  3  0  0  0  0  0  0
  188.7140  177.8780  146.2250 C   0  0  0  0  0  3  0  0  0  0  0  0
  186.1750  177.8120  145.0530 C   0  0  0  0  0  3  0  0  0  0  0  0
  187.3160  177.8760  144.2470 C   0  0  0  0  0  3  0  0  0  0  0  0
  191.0950  178.1550  144.8340 C   0  0  0  0  0  2  0  0  0  0  0  0
  191.9300  176.4020  146.4380 C   0  0  0  0  0  0  0  0  0  0  0  0
  192.5090  175.1210  146.6510 N   0  0  0  0  0  1  0  0  0  0  0  0
  191.6840  176.8540  145.1070 N   0  0  0  0  0  2  0  0  0  0  0  0
  191.6410  177.1280  147.4260 O   0  0  0  0  0  0  0  0  0  0  0  0
  186.2680  178.3720  140.6610 C   0  0  0  0  0  2  0  0  0  0  0  0
  185.2030  178.8420  141.6360 C   0  0  0  0  0  2  0  0  0  0  0  0
  183.8350  178.3460  141.2020 C   0  0  0  0  0  2  0  0  0  0  0  0
  183.7880  178.1930  139.6800 C   0  0  2  0  0  3  0  0  0  0  0  0
  184.0630  180.5030  139.0050 O   0  0  0  0  0  1  0  0  0  0  0  0
  181.9720  179.7630  139.5470 O   0  0  0  0  0  1  0  0  0  0  0  0
  183.1920  179.4120  138.9660 C   0  0  0  0  0  3  0  0  0  0  0  0
  183.7700  176.6860  137.9400 C   0  0  0  0  0  1  0  0  0  0  0  0
  183.2840  176.9480  139.2310 O   0  0  0  0  0  0  0  0  0  0  0  0
  1  4  1  0  0  0  0
  1  5  1  0  0  0  0
  2  6  2  0  0  0  0
  3  1  1  0  0  0  0
  3  4  1  0  0  0  0
  5 11  1  0  0  0  0
  6  5  1  0  0  0  0
  7  3  1  0  0  0  0
  8  7  1  0  0  0  0
  8  2  1  0  0  0  0
  9 10  1  0  0  0  0
 10  7  1  0  0  0  0
 11 13  1  0  0  0  0
 11 14  1  0  0  0  0
 13 12  1  0  0  0  0
 14 15  1  0  0  0  0
 14 21  1  0  0  0  0
 15 18  1  0  0  0  0
 16 17  1  0  0  0  0
 18 17  2  0  0  0  0
 19 16  2  0  0  0  0
 20 15  2  0  0  0  0
 20 19  1  0  0  0  0
 21 24  1  0  0  0  0
 22 23  1  0  0  0  0
 22 25  2  0  0  0  0
 24 22  1  0  0  0  0
 26  4  1  0  0  0  0
 26 27  1  0  0  0  0
 28 27  1  0  0  0  0
 29 28  1  0  0  0  0
 32 30  1  0  0  0  0
 32 31  1  0  0  0  0
 32 29  1  0  0  0  0
 33 34  1  0  0  0  0
 34 29  1  0  0  0  0
M  END
>  <MODEL>
9

>  <REMARK>
 VINA RESULT:      -6.3      2.048      5.220
  Name = 
  13 active torsions:
  status: ('A' for Active; 'I' for Inactive)
    1  A    between atoms: C_4  and  C_26
    2  A    between atoms: C_7  and  C_17
    3  A    between atoms: C_7  and  C_27
    4  A    between atoms: C_10  and  N_14
    5  A    between atoms: C_10  and  C_26
    6  A    between atoms: C_11  and  C_27
    7  A    between atoms: C_12  and  C_15
    8  A    between atoms: C_15  and  C_26
    9  A    between atoms: C_15  and  O_30
   10  A    between atoms: C_17  and  C_19
   11  A    between atoms: C_19  and  O_31
   12  A    between atoms: C_19  and  C_34
   13  A    between atoms: C_28  and  C_29
                            x       y       z     vdW  Elec       q    Type
                         _______ _______ _______ _____ _____    ______ ____

>  <TORSDO>
F 13

$$$$
