=
 OpenBabel11062414423D

 68 74  0  0  1  0  0  0  0  0999 V2000
  185.5290  176.3670  135.7740 C   0  0  0  0  0  0  0  0  0  0  0  0
  179.0200  178.2000  139.9480 C   0  0  0  0  0  1  0  0  0  0  0  0
  179.7180  178.2650  138.5960 C   0  0  0  0  0  0  0  0  0  0  0  0
  185.7010  176.7760  134.5940 O   0  0  0  0  0  0  0  0  0  0  0  0
  181.2390  178.5120  138.7110 C   0  0  2  0  0  3  0  0  0  0  0  0
  182.7940  176.8350  138.4120 N   0  0  0  0  0  0  0  0  0  0  0  0
  181.8560  177.6460  137.6660 C   0  0  1  0  0  3  0  0  0  0  0  0
  179.0990  179.4140  137.8180 C   0  0  0  0  0  1  0  0  0  0  0  0
  184.3250  176.7160  136.4650 N   0  0  0  0  0  2  0  0  0  0  0  0
  179.4910  177.0620  137.8970 O   0  0  0  0  0  0  0  0  0  0  0  0
  181.8590  177.9910  140.0140 C   0  0  1  0  0  3  0  0  0  0  0  0
  186.5300  175.5630  136.4050 N   0  0  0  0  0  2  0  0  0  0  0  0
  180.8840  175.4890  136.4870 C   0  0  2  0  0  3  0  0  0  0  0  0
  184.9350  175.9460  138.5890 O   0  0  0  0  0  0  0  0  0  0  0  0
  180.6890  176.8110  137.2160 C   0  0  2  0  0  0  0  0  0  0  0  0
  182.6090  176.8240  139.7580 O   0  0  0  0  0  0  0  0  0  0  0  0
  184.0590  176.4720  137.8520 C   0  0  0  0  0  0  0  0  0  0  0  0
  180.5080  176.7510  135.7170 C   0  0  0  0  0  2  0  0  0  0  0  0
  179.7690  173.8340  137.8190 O   0  0  0  0  0  0  0  0  0  0  0  0
  180.7440  173.2600  134.9520 F   0  0  0  0  0  0  0  0  0  0  0  0
  179.6670  174.5800  136.6400 C   0  0  2  0  0  3  0  0  0  0  0  0
  178.9860  172.4010  136.2340 C   0  0  0  0  0  2  0  0  0  0  0  0
  178.9430  172.7640  137.6440 N   0  0  0  0  0  2  0  0  0  0  0  0
  179.5180  173.5940  135.5070 C   0  0  2  0  0  3  0  0  0  0  0  0
  182.6860  179.0720  140.7180 C   0  0  0  0  0  2  0  0  0  0  0  0
  184.7350  179.0640  144.2190 C   0  0  1  0  0  0  0  0  0  0  0  0
  184.8680  179.1640  141.7900 O   0  0  0  0  0  0  0  0  0  0  0  0
  184.1450  180.3380  144.1440 O   0  0  0  0  0  0  0  0  0  0  0  0
  183.6950  178.1450  144.1530 O   0  0  0  0  0  0  0  0  0  0  0  0
  185.6060  178.8380  142.9600 C   0  0  0  0  0  2  0  0  0  0  0  0
  183.5860  178.5450  141.8330 C   0  0  1  0  0  3  0  0  0  0  0  0
  182.9130  178.7910  143.2070 C   0  0  2  0  0  3  0  0  0  0  0  0
  182.9850  180.1630  143.5100 O   0  0  0  0  0  0  0  0  0  0  0  0
  185.5460  178.8890  145.5100 C   0  0  1  0  0  3  0  0  0  0  0  0
  184.7420  178.1860  146.5980 C   0  0  0  0  0  1  0  0  0  0  0  0
  186.8840  178.1820  145.2870 C   0  0  0  0  0  2  0  0  0  0  0  0
  187.3180  177.5560  146.4590 O   0  0  0  0  0  0  0  0  0  0  0  0
  188.5870  177.0490  146.1590 C   0  0  2  0  0  3  0  0  0  0  0  0
  189.1710  178.1640  148.3580 C   0  0  0  0  0  1  0  0  0  0  0  0
  189.4390  176.9870  147.4280 C   0  0  0  0  0  2  0  0  0  0  0  0
  189.2430  177.8990  145.0720 C   0  0  0  0  0  2  0  0  0  0  0  0
  190.7590  176.2070  143.6160 O   0  0  0  0  0  0  0  0  0  0  0  0
  189.4660  176.9740  143.5600 S   0  0  0  0  0  0  0  0  0  0  0  0
  188.3230  176.0080  143.3920 O   0  0  0  0  0  0  0  0  0  0  0  0
  189.4950  178.0590  142.2090 N   0  0  0  0  0  2  0  0  0  0  0  0
  189.5480  177.2550  141.0000 C   0  0  0  0  0  3  0  0  0  0  0  0
  188.4600  177.5660  140.1870 O   0  0  0  0  0  1  0  0  0  0  0  0
  190.7300  177.5250  140.3140 O   0  0  0  0  0  1  0  0  0  0  0  0
  187.8640  175.3770  135.8420 C   0  0  0  0  0  2  0  0  0  0  0  0
  188.8910  175.2220  136.9580 C   0  0  0  0  0  2  0  0  0  0  0  0
  189.7590  176.4640  137.0540 C   0  0  0  0  0  2  0  0  0  0  0  0
  194.4850  175.1250  137.7980 N   0  0  0  0  0  2  0  0  0  0  0  0
  193.8230  175.6420  135.6250 O   0  0  0  0  0  0  0  0  0  0  0  0
  191.0950  176.2200  136.4450 C   0  0  0  0  0  0  0  0  0  0  0  0
  191.2910  176.4930  135.2290 O   0  0  0  0  0  0  0  0  0  0  0  0
  193.5020  175.5040  136.8360 C   0  0  0  0  0  0  0  0  0  0  0  0
  192.1570  175.7300  137.2690 N   0  0  0  0  0  2  0  0  0  0  0  0
  196.2090  172.6170  137.1580 C   0  0  1  0  0  3  0  0  0  0  0  0
  195.8520  173.8970  136.4340 C   0  0  0  0  0  2  0  0  0  0  0  0
  196.5370  174.2930  138.5570 C   0  0  1  0  0  3  0  0  0  0  0  0
  196.2890  172.9130  138.5260 O   0  0  0  0  0  0  0  0  0  0  0  0
  195.8350  174.9360  137.4430 N   0  0  0  0  0  0  0  0  0  0  0  0
  194.5660  171.5420  135.8150 O   0  0  0  0  0  0  0  0  0  0  0  0
  195.1760  171.5680  136.9150 C   0  0  0  0  0  0  0  0  0  0  0  0
  194.8750  170.5950  137.9150 N   0  0  0  0  0  1  0  0  0  0  0  0
  196.2080  174.9090  139.9200 C   0  0  0  0  0  2  0  0  0  0  0  0
  197.4700  175.3180  140.6590 C   0  0  0  0  0  2  0  0  0  0  0  0
  198.6770  175.1950  139.7500 C   0  0  0  0  0  1  0  0  0  0  0  0
  1 12  1  0  0  0  0
  1  9  1  0  0  0  0
  3  2  1  0  0  0  0
  4  1  2  0  0  0  0
  5  3  1  1  0  0  0
  5 11  1  0  0  0  0
  6 16  1  0  0  0  0
  7  6  1  1  0  0  0
  7  5  1  0  0  0  0
  8  3  1  0  0  0  0
  9 17  1  0  0  0  0
 10  3  1  0  0  0  0
 11 25  1  6  0  0  0
 13 18  1  6  0  0  0
 13 21  1  0  0  0  0
 13 15  1  0  0  0  0
 15 18  1  6  0  0  0
 15  7  1  0  0  0  0
 15 10  1  0  0  0  0
 16 11  1  0  0  0  0
 17  6  1  0  0  0  0
 17 14  2  0  0  0  0
 21 19  1  1  0  0  0
 22 23  1  0  0  0  0
 23 19  1  0  0  0  0
 24 20  1  1  0  0  0
 24 22  1  0  0  0  0
 24 21  1  0  0  0  0
 26 34  1  1  0  0  0
 27 31  1  0  0  0  0
 27 30  1  0  0  0  0
 28 26  1  0  0  0  0
 29 26  1  0  0  0  0
 30 26  1  0  0  0  0
 31 25  1  6  0  0  0
 31 32  1  0  0  0  0
 32 33  1  1  0  0  0
 32 29  1  0  0  0  0
 33 28  1  0  0  0  0
 34 35  1  1  0  0  0
 36 34  1  0  0  0  0
 36 37  1  0  0  0  0
 38 41  1  6  0  0  0
 38 37  1  0  0  0  0
 38 40  1  0  0  0  0
 40 39  1  0  0  0  0
 43 42  2  0  0  0  0
 43 41  1  0  0  0  0
 44 43  2  0  0  0  0
 45 43  1  0  0  0  0
 46 45  1  0  0  0  0
 47 46  1  0  0  0  0
 48 46  1  0  0  0  0
 49 12  1  0  0  0  0
 49 50  1  0  0  0  0
 50 51  1  0  0  0  0
 53 56  2  0  0  0  0
 54 51  1  0  0  0  0
 54 57  1  0  0  0  0
 55 54  2  0  0  0  0
 56 57  1  0  0  0  0
 56 52  1  0  0  0  0
 58 64  1  1  0  0  0
 58 61  1  0  0  0  0
 59 58  1  0  0  0  0
 59 62  1  0  0  0  0
 60 66  1  1  0  0  0
 61 60  1  0  0  0  0
 62 52  1  0  0  0  0
 62 60  1  0  0  0  0
 63 64  2  0  0  0  0
 64 65  1  0  0  0  0
 66 67  1  0  0  0  0
 68 67  1  0  0  0  0
M  END
>  <MODEL>
1

>  <REMARK>
 VINA RESULT:      -7.0      0.000      0.000
  Name = 
  20 active torsions:
  status: ('A' for Active; 'I' for Inactive)
    1  A    between atoms: C_1  and  C_29
    2  A    between atoms: C_2  and  C_22
    3  A    between atoms: C_2  and  C_24
    4  A    between atoms: C_9  and  N_18
    5  A    between atoms: C_12  and  C_34
    6  A    between atoms: C_12  and  C_38
    7  A    between atoms: C_13  and  C_36
    8  A    between atoms: C_13  and  C_52
    9  A    between atoms: C_17  and  O_31
   10  A    between atoms: C_17  and  C_37
   11  A    between atoms: C_17  and  C_49
   12  A    between atoms: N_18  and  S_42
   13  A    between atoms: C_24  and  O_31
   14  A    between atoms: C_25  and  C_45
   15  A    between atoms: N_30  and  N_66
   16  A    between atoms: C_34  and  C_67
   17  A    between atoms: C_37  and  S_42
   18  A    between atoms: N_41  and  C_67
   19  A    between atoms: C_43  and  C_47
   20  A    between atoms: C_47  and  C_59
                            x       y       z     vdW  Elec       q    Type
                         _______ _______ _______ _____ _____    ______ ____

>  <TORSDO>
F 20

$$$$
=
 OpenBabel11062414423D

 68 74  0  0  1  0  0  0  0  0999 V2000
  181.8530  178.7540  142.6320 C   0  0  0  0  0  0  0  0  0  0  0  0
  181.4500  178.2540  134.7120 C   0  0  0  0  0  1  0  0  0  0  0  0
  180.6890  178.1650  136.0270 C   0  0  0  0  0  0  0  0  0  0  0  0
  180.8740  178.4560  143.3700 O   0  0  0  0  0  0  0  0  0  0  0  0
  181.5090  177.5080  137.1590 C   0  0  2  0  0  3  0  0  0  0  0  0
  182.4820  178.7290  138.8560 N   0  0  0  0  0  0  0  0  0  0  0  0
  181.1860  178.2930  138.3840 C   0  0  1  0  0  3  0  0  0  0  0  0
  179.4470  177.3240  135.7790 C   0  0  0  0  0  1  0  0  0  0  0  0
  181.7090  178.6620  141.2120 N   0  0  0  0  0  2  0  0  0  0  0  0
  180.2940  179.4580  136.4260 O   0  0  0  0  0  0  0  0  0  0  0  0
  183.0260  177.6860  137.0140 C   0  0  1  0  0  3  0  0  0  0  0  0
  183.0860  179.1810  143.2190 N   0  0  0  0  0  2  0  0  0  0  0  0
  180.2480  180.7550  138.5980 C   0  0  2  0  0  3  0  0  0  0  0  0
  183.9550  178.9840  140.6380 O   0  0  0  0  0  0  0  0  0  0  0  0
  180.4190  179.4580  137.8210 C   0  0  2  0  0  0  0  0  0  0  0  0
  183.4910  178.6310  137.9520 O   0  0  0  0  0  0  0  0  0  0  0  0
  182.7680  178.8040  140.2560 C   0  0  0  0  0  0  0  0  0  0  0  0
  179.1110  179.7400  138.5250 C   0  0  0  0  0  2  0  0  0  0  0  0
  181.1530  182.6180  137.3880 O   0  0  0  0  0  0  0  0  0  0  0  0
  179.0810  182.9670  139.6410 F   0  0  0  0  0  0  0  0  0  0  0  0
  179.9660  181.9330  137.6680 C   0  0  2  0  0  3  0  0  0  0  0  0
  179.5690  184.2160  137.7250 C   0  0  0  0  0  2  0  0  0  0  0  0
  180.7670  183.8590  136.9780 N   0  0  0  0  0  2  0  0  0  0  0  0
  179.0070  182.9370  138.2580 C   0  0  2  0  0  3  0  0  0  0  0  0
  183.7650  176.3470  137.1190 C   0  0  0  0  0  2  0  0  0  0  0  0
  187.4980  175.8930  135.5980 C   0  0  1  0  0  0  0  0  0  0  0  0
  185.5680  177.3590  135.8370 O   0  0  0  0  0  0  0  0  0  0  0  0
  187.6860  176.0720  136.9800 O   0  0  0  0  0  0  0  0  0  0  0  0
  186.6730  174.7840  135.4540 O   0  0  0  0  0  0  0  0  0  0  0  0
  186.7140  177.1030  135.0360 C   0  0  0  0  0  2  0  0  0  0  0  0
  184.8520  176.1490  136.0660 C   0  0  1  0  0  3  0  0  0  0  0  0
  185.8190  175.0260  136.5190 C   0  0  2  0  0  3  0  0  0  0  0  0
  186.6260  175.5140  137.5640 O   0  0  0  0  0  0  0  0  0  0  0  0
  188.8310  175.6890  134.8650 C   0  0  1  0  0  3  0  0  0  0  0  0
  189.5400  177.0120  134.5940 C   0  0  0  0  0  1  0  0  0  0  0  0
  189.7670  174.7140  135.5820 C   0  0  0  0  0  2  0  0  0  0  0  0
  190.9830  174.6010  134.9030 O   0  0  0  0  0  0  0  0  0  0  0  0
  191.9040  174.1690  135.8630 C   0  0  2  0  0  3  0  0  0  0  0  0
  191.9310  176.4440  136.9780 C   0  0  0  0  0  1  0  0  0  0  0  0
  191.7070  174.9490  137.1640 C   0  0  0  0  0  2  0  0  0  0  0  0
  193.3250  174.3120  135.3220 C   0  0  0  0  0  2  0  0  0  0  0  0
  193.8670  173.2270  137.7320 O   0  0  0  0  0  0  0  0  0  0  0  0
  194.5440  173.8670  136.5500 S   0  0  0  0  0  0  0  0  0  0  0  0
  195.5240  172.8930  135.9520 O   0  0  0  0  0  0  0  0  0  0  0  0
  195.3970  175.2830  137.0700 N   0  0  0  0  0  2  0  0  0  0  0  0
  195.9380  175.9300  135.8870 C   0  0  0  0  0  3  0  0  0  0  0  0
  195.3020  177.1550  135.6950 O   0  0  0  0  0  1  0  0  0  0  0  0
  197.3050  176.1410  136.0580 O   0  0  0  0  0  1  0  0  0  0  0  0
  183.3620  179.0680  144.6480 C   0  0  0  0  0  2  0  0  0  0  0  0
  184.8560  179.2170  144.9120 C   0  0  0  0  0  2  0  0  0  0  0  0
  185.2440  178.4910  146.1870 C   0  0  0  0  0  2  0  0  0  0  0  0
  188.5790  176.6090  143.0220 N   0  0  0  0  0  2  0  0  0  0  0  0
  189.0380  176.4780  145.3030 O   0  0  0  0  0  0  0  0  0  0  0  0
  186.5510  177.8000  146.0220 C   0  0  0  0  0  0  0  0  0  0  0  0
  187.1750  177.3830  147.0350 O   0  0  0  0  0  0  0  0  0  0  0  0
  188.2630  176.8680  144.3900 C   0  0  0  0  0  0  0  0  0  0  0  0
  187.0530  177.5680  144.7020 N   0  0  0  0  0  2  0  0  0  0  0  0
  191.6300  177.1870  143.1840 C   0  0  1  0  0  3  0  0  0  0  0  0
  190.7060  176.1040  143.6990 C   0  0  0  0  0  2  0  0  0  0  0  0
  190.3570  176.5380  141.5020 C   0  0  1  0  0  3  0  0  0  0  0  0
  191.1290  177.6200  141.9490 O   0  0  0  0  0  0  0  0  0  0  0  0
  189.7280  175.8830  142.6530 N   0  0  0  0  0  0  0  0  0  0  0  0
  191.7430  179.5050  143.7080 O   0  0  0  0  0  0  0  0  0  0  0  0
  191.6930  178.3270  144.1460 C   0  0  0  0  0  0  0  0  0  0  0  0
  191.6960  178.0930  145.5540 N   0  0  0  0  0  1  0  0  0  0  0  0
  189.3580  176.9500  140.4160 C   0  0  0  0  0  2  0  0  0  0  0  0
  189.7270  178.2930  139.8110 C   0  0  0  0  0  2  0  0  0  0  0  0
  188.7140  178.6930  138.7580 C   0  0  0  0  0  1  0  0  0  0  0  0
  1 12  1  0  0  0  0
  1  4  2  0  0  0  0
  2  3  1  0  0  0  0
  3 10  1  0  0  0  0
  5  3  1  6  0  0  0
  5  7  1  0  0  0  0
  6 17  1  0  0  0  0
  7  6  1  6  0  0  0
  8  3  1  0  0  0  0
  9  1  1  0  0  0  0
 10 15  1  0  0  0  0
 11 25  1  1  0  0  0
 11  5  1  0  0  0  0
 11 16  1  0  0  0  0
 12 49  1  0  0  0  0
 13 18  1  1  0  0  0
 15  7  1  0  0  0  0
 15 18  1  1  0  0  0
 15 13  1  0  0  0  0
 16  6  1  0  0  0  0
 17 14  2  0  0  0  0
 17  9  1  0  0  0  0
 21 19  1  1  0  0  0
 21 24  1  0  0  0  0
 21 13  1  0  0  0  0
 22 24  1  0  0  0  0
 23 19  1  0  0  0  0
 23 22  1  0  0  0  0
 24 20  1  1  0  0  0
 26 34  1  6  0  0  0
 26 28  1  0  0  0  0
 27 31  1  0  0  0  0
 28 33  1  0  0  0  0
 29 26  1  0  0  0  0
 30 26  1  0  0  0  0
 30 27  1  0  0  0  0
 31 32  1  0  0  0  0
 31 25  1  1  0  0  0
 32 29  1  6  0  0  0
 32 33  1  0  0  0  0
 34 35  1  1  0  0  0
 34 36  1  0  0  0  0
 37 36  1  0  0  0  0
 37 38  1  0  0  0  0
 38 41  1  6  0  0  0
 38 40  1  0  0  0  0
 39 40  1  0  0  0  0
 41 43  1  0  0  0  0
 43 45  1  0  0  0  0
 43 42  2  0  0  0  0
 44 43  2  0  0  0  0
 46 48  1  0  0  0  0
 46 45  1  0  0  0  0
 47 46  1  0  0  0  0
 49 50  1  0  0  0  0
 50 51  1  0  0  0  0
 52 56  1  0  0  0  0
 54 51  1  0  0  0  0
 54 55  2  0  0  0  0
 56 57  1  0  0  0  0
 56 53  2  0  0  0  0
 57 54  1  0  0  0  0
 58 59  1  0  0  0  0
 58 64  1  1  0  0  0
 60 66  1  6  0  0  0
 60 61  1  0  0  0  0
 60 62  1  0  0  0  0
 61 58  1  0  0  0  0
 62 52  1  0  0  0  0
 62 59  1  0  0  0  0
 63 64  2  0  0  0  0
 64 65  1  0  0  0  0
 67 66  1  0  0  0  0
 68 67  1  0  0  0  0
M  END
>  <MODEL>
2

>  <REMARK>
 VINA RESULT:      -7.0      3.199      8.677
  Name = 
  20 active torsions:
  status: ('A' for Active; 'I' for Inactive)
    1  A    between atoms: C_1  and  C_29
    2  A    between atoms: C_2  and  C_22
    3  A    between atoms: C_2  and  C_24
    4  A    between atoms: C_9  and  N_18
    5  A    between atoms: C_12  and  C_34
    6  A    between atoms: C_12  and  C_38
    7  A    between atoms: C_13  and  C_36
    8  A    between atoms: C_13  and  C_52
    9  A    between atoms: C_17  and  O_31
   10  A    between atoms: C_17  and  C_37
   11  A    between atoms: C_17  and  C_49
   12  A    between atoms: N_18  and  S_42
   13  A    between atoms: C_24  and  O_31
   14  A    between atoms: C_25  and  C_45
   15  A    between atoms: N_30  and  N_66
   16  A    between atoms: C_34  and  C_67
   17  A    between atoms: C_37  and  S_42
   18  A    between atoms: N_41  and  C_67
   19  A    between atoms: C_43  and  C_47
   20  A    between atoms: C_47  and  C_59
                            x       y       z     vdW  Elec       q    Type
                         _______ _______ _______ _____ _____    ______ ____

>  <TORSDO>
F 20

$$$$
=
 OpenBabel11062414423D

 68 74  0  0  1  0  0  0  0  0999 V2000
  186.4310  178.3180  138.5780 C   0  0  0  0  0  0  0  0  0  0  0  0
  179.0630  175.4220  137.8910 C   0  0  0  0  0  1  0  0  0  0  0  0
  180.1610  175.8790  138.8420 C   0  0  0  0  0  0  0  0  0  0  0  0
  187.0000  178.4340  139.6980 O   0  0  0  0  0  0  0  0  0  0  0  0
  181.5770  175.4860  138.3670 C   0  0  2  0  0  3  0  0  0  0  0  0
  183.0310  177.0000  137.4120 N   0  0  0  0  0  0  0  0  0  0  0  0
  182.4380  176.6590  138.6870 C   0  0  1  0  0  3  0  0  0  0  0  0
  179.9020  175.2220  140.1870 C   0  0  0  0  0  1  0  0  0  0  0  0
  185.0950  177.8080  138.5250 N   0  0  0  0  0  2  0  0  0  0  0  0
  180.0910  177.2790  138.9950 O   0  0  0  0  0  0  0  0  0  0  0  0
  181.7100  175.3550  136.8440 C   0  0  1  0  0  3  0  0  0  0  0  0
  187.1210  178.6970  137.3830 N   0  0  0  0  0  2  0  0  0  0  0  0
  181.7560  179.1830  139.0780 C   0  0  2  0  0  3  0  0  0  0  0  0
  184.9390  177.5550  136.2030 O   0  0  0  0  0  0  0  0  0  0  0  0
  181.4260  177.6980  139.0840 C   0  0  2  0  0  0  0  0  0  0  0  0
  182.4230  176.4560  136.3260 O   0  0  0  0  0  0  0  0  0  0  0  0
  184.3820  177.4630  137.3290 C   0  0  0  0  0  0  0  0  0  0  0  0
  181.7320  178.4000  140.3870 C   0  0  0  0  0  2  0  0  0  0  0  0
  179.8710  179.7870  137.7230 O   0  0  0  0  0  0  0  0  0  0  0  0
  182.0430  181.8200  138.5250 F   0  0  0  0  0  0  0  0  0  0  0  0
  180.4970  180.0370  138.9480 C   0  0  2  0  0  3  0  0  0  0  0  0
  179.7660  182.0390  138.0350 C   0  0  0  0  0  2  0  0  0  0  0  0
  179.0820  180.8750  137.4910 N   0  0  0  0  0  2  0  0  0  0  0  0
  180.7790  181.5180  139.0050 C   0  0  2  0  0  3  0  0  0  0  0  0
  182.3360  174.0140  136.4440 C   0  0  0  0  0  2  0  0  0  0  0  0
  186.1160  172.5520  136.2740 C   0  0  1  0  0  0  0  0  0  0  0  0
  184.4310  173.6670  137.6320 O   0  0  0  0  0  0  0  0  0  0  0  0
  185.2890  171.4180  136.3470 O   0  0  0  0  0  0  0  0  0  0  0  0
  185.7150  173.2580  135.1460 O   0  0  0  0  0  0  0  0  0  0  0  0
  185.8300  173.4630  137.4910 C   0  0  0  0  0  2  0  0  0  0  0  0
  183.8620  174.0320  136.3780 C   0  0  1  0  0  3  0  0  0  0  0  0
  184.3460  173.0700  135.2640 C   0  0  2  0  0  3  0  0  0  0  0  0
  184.1700  171.7440  135.6990 O   0  0  0  0  0  0  0  0  0  0  0  0
  187.5990  172.1680  136.1870 C   0  0  1  0  0  3  0  0  0  0  0  0
  187.8050  170.8510  135.4460 C   0  0  0  0  0  1  0  0  0  0  0  0
  188.4700  173.2700  135.5800 C   0  0  0  0  0  2  0  0  0  0  0  0
  189.7670  172.8050  135.3430 O   0  0  0  0  0  0  0  0  0  0  0  0
  190.6070  173.8810  135.6490 C   0  0  2  0  0  3  0  0  0  0  0  0
  189.7640  176.2670  135.5140 C   0  0  0  0  0  1  0  0  0  0  0  0
  190.2910  175.0680  134.7370 C   0  0  0  0  0  2  0  0  0  0  0  0
  192.0680  173.4490  135.5380 C   0  0  0  0  0  2  0  0  0  0  0  0
  192.4690  175.2230  137.5320 O   0  0  0  0  0  0  0  0  0  0  0  0
  193.1600  174.6110  136.3430 S   0  0  0  0  0  0  0  0  0  0  0  0
  194.4000  173.8940  136.8060 O   0  0  0  0  0  0  0  0  0  0  0  0
  193.6090  175.8610  135.2300 N   0  0  0  0  0  2  0  0  0  0  0  0
  194.9330  176.3290  135.6030 C   0  0  0  0  0  3  0  0  0  0  0  0
  195.8460  175.9830  134.6090 O   0  0  0  0  0  1  0  0  0  0  0  0
  194.9110  177.7150  135.7500 O   0  0  0  0  0  1  0  0  0  0  0  0
  188.5500  178.9950  137.3570 C   0  0  0  0  0  2  0  0  0  0  0  0
  189.1300  178.9220  138.7650 C   0  0  0  0  0  2  0  0  0  0  0  0
  190.2210  177.8680  138.8330 C   0  0  0  0  0  2  0  0  0  0  0  0
  188.0930  177.3270  143.2900 N   0  0  0  0  0  2  0  0  0  0  0  0
  189.4430  175.5980  142.5040 O   0  0  0  0  0  0  0  0  0  0  0  0
  190.0400  177.0020  140.0300 C   0  0  0  0  0  0  0  0  0  0  0  0
  190.7060  175.9370  140.1410 O   0  0  0  0  0  0  0  0  0  0  0  0
  188.9200  176.7250  142.2950 C   0  0  0  0  0  0  0  0  0  0  0  0
  189.1490  177.4250  141.0660 N   0  0  0  0  0  2  0  0  0  0  0  0
  186.1580  177.9040  145.6550 C   0  0  1  0  0  3  0  0  0  0  0  0
  186.4360  176.7240  144.7490 C   0  0  0  0  0  2  0  0  0  0  0  0
  188.3430  177.6010  145.6010 C   0  0  1  0  0  3  0  0  0  0  0  0
  187.3700  178.5780  145.8570 O   0  0  0  0  0  0  0  0  0  0  0  0
  187.8690  176.7110  144.5370 N   0  0  0  0  0  0  0  0  0  0  0  0
  185.4850  179.5260  144.0500 O   0  0  0  0  0  0  0  0  0  0  0  0
  185.1540  178.8190  145.0360 C   0  0  0  0  0  0  0  0  0  0  0  0
  183.8250  178.8970  145.5500 N   0  0  0  0  0  1  0  0  0  0  0  0
  189.7170  178.2160  145.3120 C   0  0  0  0  0  2  0  0  0  0  0  0
  190.8360  177.2520  145.6640 C   0  0  0  0  0  2  0  0  0  0  0  0
  191.6130  176.8670  144.4210 C   0  0  0  0  0  1  0  0  0  0  0  0
  1  4  2  0  0  0  0
  2  3  1  0  0  0  0
  3 10  1  0  0  0  0
  3  8  1  0  0  0  0
  5  7  1  0  0  0  0
  5  3  1  6  0  0  0
  7  6  1  6  0  0  0
  7 15  1  0  0  0  0
  9  1  1  0  0  0  0
 10 15  1  0  0  0  0
 11 25  1  1  0  0  0
 11  5  1  0  0  0  0
 12  1  1  0  0  0  0
 13 15  1  0  0  0  0
 13 18  1  1  0  0  0
 14 17  2  0  0  0  0
 15 18  1  1  0  0  0
 16 11  1  0  0  0  0
 16  6  1  0  0  0  0
 17  6  1  0  0  0  0
 17  9  1  0  0  0  0
 21 19  1  6  0  0  0
 21 24  1  0  0  0  0
 21 13  1  0  0  0  0
 22 24  1  0  0  0  0
 23 19  1  0  0  0  0
 23 22  1  0  0  0  0
 24 20  1  6  0  0  0
 26 34  1  6  0  0  0
 26 28  1  0  0  0  0
 26 30  1  0  0  0  0
 29 26  1  0  0  0  0
 30 27  1  0  0  0  0
 31 25  1  1  0  0  0
 31 27  1  0  0  0  0
 32 29  1  1  0  0  0
 32 33  1  0  0  0  0
 32 31  1  0  0  0  0
 33 28  1  0  0  0  0
 34 35  1  6  0  0  0
 36 34  1  0  0  0  0
 37 36  1  0  0  0  0
 37 38  1  0  0  0  0
 38 40  1  6  0  0  0
 40 39  1  0  0  0  0
 41 38  1  0  0  0  0
 41 43  1  0  0  0  0
 43 44  2  0  0  0  0
 43 42  2  0  0  0  0
 45 46  1  0  0  0  0
 45 43  1  0  0  0  0
 46 48  1  0  0  0  0
 47 46  1  0  0  0  0
 49 12  1  0  0  0  0
 49 50  1  0  0  0  0
 50 51  1  0  0  0  0
 51 54  1  0  0  0  0
 52 62  1  0  0  0  0
 54 55  2  0  0  0  0
 54 57  1  0  0  0  0
 56 53  2  0  0  0  0
 56 52  1  0  0  0  0
 57 56  1  0  0  0  0
 58 64  1  6  0  0  0
 58 61  1  0  0  0  0
 59 58  1  0  0  0  0
 60 66  1  6  0  0  0
 60 61  1  0  0  0  0
 62 59  1  0  0  0  0
 62 60  1  0  0  0  0
 63 64  2  0  0  0  0
 64 65  1  0  0  0  0
 66 67  1  0  0  0  0
 68 67  1  0  0  0  0
M  END
>  <MODEL>
3

>  <REMARK>
 VINA RESULT:      -6.7      3.025      8.583
  Name = 
  20 active torsions:
  status: ('A' for Active; 'I' for Inactive)
    1  A    between atoms: C_1  and  C_29
    2  A    between atoms: C_2  and  C_22
    3  A    between atoms: C_2  and  C_24
    4  A    between atoms: C_9  and  N_18
    5  A    between atoms: C_12  and  C_34
    6  A    between atoms: C_12  and  C_38
    7  A    between atoms: C_13  and  C_36
    8  A    between atoms: C_13  and  C_52
    9  A    between atoms: C_17  and  O_31
   10  A    between atoms: C_17  and  C_37
   11  A    between atoms: C_17  and  C_49
   12  A    between atoms: N_18  and  S_42
   13  A    between atoms: C_24  and  O_31
   14  A    between atoms: C_25  and  C_45
   15  A    between atoms: N_30  and  N_66
   16  A    between atoms: C_34  and  C_67
   17  A    between atoms: C_37  and  S_42
   18  A    between atoms: N_41  and  C_67
   19  A    between atoms: C_43  and  C_47
   20  A    between atoms: C_47  and  C_59
                            x       y       z     vdW  Elec       q    Type
                         _______ _______ _______ _____ _____    ______ ____

>  <TORSDO>
F 20

$$$$
=
 OpenBabel11062414423D

 68 74  0  0  1  0  0  0  0  0999 V2000
  186.5840  178.0090  135.7600 C   0  0  0  0  0  0  0  0  0  0  0  0
  179.6430  177.0380  139.5050 C   0  0  0  0  0  1  0  0  0  0  0  0
  180.3520  177.5820  138.2720 C   0  0  0  0  0  0  0  0  0  0  0  0
  186.6830  178.6940  134.7060 O   0  0  0  0  0  0  0  0  0  0  0  0
  181.7290  178.2060  138.5900 C   0  0  2  0  0  3  0  0  0  0  0  0
  183.7160  177.1270  138.1380 N   0  0  0  0  0  0  0  0  0  0  0  0
  182.6170  177.7900  137.4690 C   0  0  1  0  0  3  0  0  0  0  0  0
  179.4610  178.6560  137.6700 C   0  0  0  0  0  1  0  0  0  0  0  0
  185.3010  177.8560  136.3750 N   0  0  0  0  0  2  0  0  0  0  0  0
  180.5160  176.5430  137.3330 O   0  0  0  0  0  0  0  0  0  0  0  0
  182.4140  177.6090  139.8260 C   0  0  1  0  0  3  0  0  0  0  0  0
  187.7470  177.3940  136.3250 N   0  0  0  0  0  2  0  0  0  0  0  0
  182.3680  175.7550  135.7990 C   0  0  2  0  0  3  0  0  0  0  0  0
  186.0130  176.8450  138.3620 O   0  0  0  0  0  0  0  0  0  0  0  0
  181.7650  176.7840  136.7460 C   0  0  2  0  0  0  0  0  0  0  0  0
  183.4820  176.7770  139.4290 O   0  0  0  0  0  0  0  0  0  0  0  0
  185.0560  177.2550  137.6540 C   0  0  0  0  0  0  0  0  0  0  0  0
  181.6760  177.0010  135.2530 C   0  0  0  0  0  2  0  0  0  0  0  0
  181.2430  173.9390  136.8910 O   0  0  0  0  0  0  0  0  0  0  0  0
  183.4320  173.4860  134.7700 F   0  0  0  0  0  0  0  0  0  0  0  0
  181.4620  174.5360  135.6450 C   0  0  2  0  0  3  0  0  0  0  0  0
  181.5700  172.2310  135.4240 C   0  0  0  0  0  2  0  0  0  0  0  0
  180.8560  172.6610  136.6180 N   0  0  0  0  0  2  0  0  0  0  0  0
  182.0470  173.4750  134.7450 C   0  0  2  0  0  3  0  0  0  0  0  0
  182.8580  178.6970  140.8090 C   0  0  0  0  0  2  0  0  0  0  0  0
  184.9450  178.8090  144.2860 C   0  0  1  0  0  0  0  0  0  0  0  0
  185.0140  178.3790  141.8900 O   0  0  0  0  0  0  0  0  0  0  0  0
  184.7360  180.1560  143.9420 O   0  0  0  0  0  0  0  0  0  0  0  0
  183.6870  178.2280  144.3820 O   0  0  0  0  0  0  0  0  0  0  0  0
  185.6720  178.0980  143.1180 C   0  0  0  0  0  2  0  0  0  0  0  0
  183.6120  178.1700  142.0270 C   0  0  1  0  0  3  0  0  0  0  0  0
  183.0850  178.8660  143.3070 C   0  0  2  0  0  3  0  0  0  0  0  0
  183.5520  180.1930  143.3300 O   0  0  0  0  0  0  0  0  0  0  0  0
  185.7200  178.6730  145.6030 C   0  0  1  0  0  3  0  0  0  0  0  0
  184.8070  178.2950  146.7650 C   0  0  0  0  0  1  0  0  0  0  0  0
  186.9000  177.7040  145.5090 C   0  0  0  0  0  2  0  0  0  0  0  0
  188.0710  178.3790  145.1510 O   0  0  0  0  0  0  0  0  0  0  0  0
  189.0780  177.4080  145.1720 C   0  0  2  0  0  3  0  0  0  0  0  0
  189.0970  177.3000  147.7040 C   0  0  0  0  0  1  0  0  0  0  0  0
  189.9160  177.5530  146.4440 C   0  0  0  0  0  2  0  0  0  0  0  0
  189.9330  177.5180  143.9110 C   0  0  0  0  0  2  0  0  0  0  0  0
  190.8010  175.0190  143.3790 O   0  0  0  0  0  0  0  0  0  0  0  0
  189.8100  176.0470  142.9050 S   0  0  0  0  0  0  0  0  0  0  0  0
  188.4190  175.4810  143.0130 O   0  0  0  0  0  0  0  0  0  0  0  0
  190.1350  176.4410  141.2490 N   0  0  0  0  0  2  0  0  0  0  0  0
  191.2850  177.3290  141.2250 C   0  0  0  0  0  3  0  0  0  0  0  0
  192.1860  176.9490  142.2180 O   0  0  0  0  0  1  0  0  0  0  0  0
  191.9060  177.2490  139.9800 O   0  0  0  0  0  1  0  0  0  0  0  0
  189.1010  177.7080  135.8790 C   0  0  0  0  0  2  0  0  0  0  0  0
  189.4240  176.9500  134.5970 C   0  0  0  0  0  2  0  0  0  0  0  0
  190.8770  176.5070  134.5960 C   0  0  0  0  0  2  0  0  0  0  0  0
  194.2960  174.3480  137.4800 N   0  0  0  0  0  2  0  0  0  0  0  0
  192.0550  173.8530  137.8820 O   0  0  0  0  0  0  0  0  0  0  0  0
  191.1440  175.5790  135.7270 C   0  0  0  0  0  0  0  0  0  0  0  0
  190.1970  174.9220  136.2390 O   0  0  0  0  0  0  0  0  0  0  0  0
  192.9030  174.5050  137.2150 C   0  0  0  0  0  0  0  0  0  0  0  0
  192.4900  175.4040  136.1800 N   0  0  0  0  0  2  0  0  0  0  0  0
  197.1100  173.7170  138.6450 C   0  0  1  0  0  3  0  0  0  0  0  0
  195.7770  174.1500  139.2150 C   0  0  0  0  0  2  0  0  0  0  0  0
  195.5580  172.4010  137.7910 C   0  0  1  0  0  3  0  0  0  0  0  0
  196.8520  172.8840  137.5480 O   0  0  0  0  0  0  0  0  0  0  0  0
  194.7680  173.4430  138.4520 N   0  0  0  0  0  0  0  0  0  0  0  0
  197.8960  175.2590  137.0120 O   0  0  0  0  0  0  0  0  0  0  0  0
  197.9110  174.9020  138.2180 C   0  0  0  0  0  0  0  0  0  0  0  0
  198.6890  175.6340  139.1640 N   0  0  0  0  0  1  0  0  0  0  0  0
  194.8990  171.8510  136.5220 C   0  0  0  0  0  2  0  0  0  0  0  0
  194.3920  170.4350  136.7350 C   0  0  0  0  0  2  0  0  0  0  0  0
  194.8670  169.8990  138.0700 C   0  0  0  0  0  1  0  0  0  0  0  0
  1 12  1  0  0  0  0
  1  9  1  0  0  0  0
  3  2  1  0  0  0  0
  4  1  2  0  0  0  0
  5  3  1  6  0  0  0
  5 11  1  0  0  0  0
  6 16  1  0  0  0  0
  7  6  1  1  0  0  0
  7  5  1  0  0  0  0
  8  3  1  0  0  0  0
  9 17  1  0  0  0  0
 10  3  1  0  0  0  0
 11 25  1  1  0  0  0
 13 18  1  6  0  0  0
 13 15  1  0  0  0  0
 15 18  1  6  0  0  0
 15 10  1  0  0  0  0
 15  7  1  0  0  0  0
 16 11  1  0  0  0  0
 17  6  1  0  0  0  0
 17 14  2  0  0  0  0
 21 13  1  0  0  0  0
 21 19  1  1  0  0  0
 22 23  1  0  0  0  0
 23 19  1  0  0  0  0
 24 20  1  1  0  0  0
 24 22  1  0  0  0  0
 24 21  1  0  0  0  0
 26 29  1  0  0  0  0
 26 34  1  1  0  0  0
 27 31  1  0  0  0  0
 27 30  1  0  0  0  0
 28 26  1  0  0  0  0
 30 26  1  0  0  0  0
 31 25  1  6  0  0  0
 31 32  1  0  0  0  0
 32 33  1  6  0  0  0
 32 29  1  0  0  0  0
 33 28  1  0  0  0  0
 34 35  1  1  0  0  0
 36 34  1  0  0  0  0
 37 38  1  0  0  0  0
 37 36  1  0  0  0  0
 38 41  1  6  0  0  0
 38 40  1  0  0  0  0
 40 39  1  0  0  0  0
 43 44  2  0  0  0  0
 43 42  2  0  0  0  0
 43 41  1  0  0  0  0
 45 43  1  0  0  0  0
 46 45  1  0  0  0  0
 46 47  1  0  0  0  0
 48 46  1  0  0  0  0
 49 12  1  0  0  0  0
 50 49  1  0  0  0  0
 51 50  1  0  0  0  0
 51 54  1  0  0  0  0
 52 62  1  0  0  0  0
 54 57  1  0  0  0  0
 54 55  2  0  0  0  0
 56 52  1  0  0  0  0
 56 53  2  0  0  0  0
 57 56  1  0  0  0  0
 58 64  1  6  0  0  0
 58 59  1  0  0  0  0
 60 66  1  6  0  0  0
 60 62  1  0  0  0  0
 61 60  1  0  0  0  0
 61 58  1  0  0  0  0
 62 59  1  0  0  0  0
 63 64  2  0  0  0  0
 64 65  1  0  0  0  0
 66 67  1  0  0  0  0
 67 68  1  0  0  0  0
M  END
>  <MODEL>
4

>  <REMARK>
 VINA RESULT:      -6.6      1.587      2.367
  Name = 
  20 active torsions:
  status: ('A' for Active; 'I' for Inactive)
    1  A    between atoms: C_1  and  C_29
    2  A    between atoms: C_2  and  C_22
    3  A    between atoms: C_2  and  C_24
    4  A    between atoms: C_9  and  N_18
    5  A    between atoms: C_12  and  C_34
    6  A    between atoms: C_12  and  C_38
    7  A    between atoms: C_13  and  C_36
    8  A    between atoms: C_13  and  C_52
    9  A    between atoms: C_17  and  O_31
   10  A    between atoms: C_17  and  C_37
   11  A    between atoms: C_17  and  C_49
   12  A    between atoms: N_18  and  S_42
   13  A    between atoms: C_24  and  O_31
   14  A    between atoms: C_25  and  C_45
   15  A    between atoms: N_30  and  N_66
   16  A    between atoms: C_34  and  C_67
   17  A    between atoms: C_37  and  S_42
   18  A    between atoms: N_41  and  C_67
   19  A    between atoms: C_43  and  C_47
   20  A    between atoms: C_47  and  C_59
                            x       y       z     vdW  Elec       q    Type
                         _______ _______ _______ _____ _____    ______ ____

>  <TORSDO>
F 20

$$$$
