=
 OpenBabel11062413103D

 42 45  0  0  1  0  0  0  0  0999 V2000
  188.9550  177.3850  146.5320 C   0  0  0  0  0  0  0  0  0  0  0  0
  186.5010  177.7270  144.9890 C   0  0  0  0  0  0  0  0  0  0  0  0
  186.4440  177.8760  146.3180 C   0  0  0  0  0  3  0  0  0  0  0  0
  189.4490  176.9770  143.0620 C   0  0  0  0  0  0  0  0  0  0  0  0
  187.6210  177.5680  147.2350 C   0  0  0  0  0  2  0  0  0  0  0  0
  188.0410  177.2180  143.1380 N   0  0  0  0  0  0  0  0  0  0  0  0
  188.9710  177.2430  145.1980 C   0  0  0  0  0  0  0  0  0  0  0  0
  187.7860  177.3550  144.3940 C   0  0  0  0  0  0  0  0  0  0  0  0
  190.0530  177.0100  144.2540 C   0  0  0  0  0  3  0  0  0  0  0  0
  190.1690  176.8270  141.7590 C   0  0  0  0  0  2  0  0  0  0  0  0
  189.7100  177.8470  140.7210 C   0  0  0  0  0  2  0  0  0  0  0  0
  188.9810  179.1360  138.2680 O   0  0  0  0  0  0  0  0  0  0  0  0
  189.2310  177.1790  139.5170 N   0  0  0  0  0  2  0  0  0  0  0  0
  188.9550  177.8740  138.3010 C   0  0  0  0  0  0  0  0  0  0  0  0
  188.6740  177.1410  137.1500 O   0  0  0  0  0  0  0  0  0  0  0  0
  189.4010  177.3250  135.9950 N   0  0  0  0  0  2  0  0  0  0  0  0
  191.7940  176.4560  137.1700 O   0  0  0  0  0  1  0  0  0  0  0  0
  191.3220  176.0620  134.6320 O   0  0  0  0  0  0  0  0  0  0  0  0
  190.6480  176.0960  135.9830 P   0  0  2  0  0  0  0  0  0  0  0  0
  190.5450  173.8880  137.4980 N   0  0  0  0  0  1  0  0  0  0  0  0
  189.9050  174.4800  136.3380 C   0  0  0  0  0  2  0  0  0  0  0  0
  190.1370  177.3140  147.3450 N   0  0  0  0  0  2  0  0  0  0  0  0
  191.2010  176.4170  147.1550 C   0  0  0  0  0  0  0  0  0  0  0  0
  192.0780  175.6780  146.9990 N   0  0  0  0  0  0  0  0  0  0  0  0
  185.3340  178.0960  144.1360 C   0  0  0  0  0  2  0  0  0  0  0  0
  184.5510  179.2100  144.8070 C   0  0  0  0  0  2  0  0  0  0  0  0
  183.0600  178.9240  144.7580 C   0  0  0  0  0  2  0  0  0  0  0  0
  182.4970  179.1930  143.3690 C   0  0  0  0  0  2  0  0  0  0  0  0
  181.0400  178.7710  143.2600 C   0  0  0  0  0  2  0  0  0  0  0  0
  180.4140  179.2870  141.9710 C   0  0  1  0  0  3  0  0  0  0  0  0
  180.1610  180.6570  142.0750 O   0  0  0  0  0  1  0  0  0  0  0  0
  185.4130  178.9330  138.6010 N   0  0  0  0  0  1  0  0  0  0  0  0
  181.0840  179.8890  139.7130 O   0  0  0  0  0  0  0  0  0  0  0  0
  183.9930  178.8490  138.8930 C   0  0  1  0  0  3  0  0  0  0  0  0
  181.2690  177.5230  140.3920 C   0  0  1  0  0  3  0  0  0  0  0  0
  182.6330  176.9410  139.9840 C   0  0  2  0  0  3  0  0  0  0  0  0
  183.7960  177.9480  140.1110 C   0  0  0  0  0  2  0  0  0  0  0  0
  181.8060  181.6020  138.3820 O   0  0  0  0  0  0  0  0  0  0  0  0
  182.1030  180.5730  139.0430 C   0  0  0  0  0  0  0  0  0  0  0  0
  181.3420  179.0040  140.7990 C   0  0  2  0  0  3  0  0  0  0  0  0
  183.4820  180.1940  139.1450 N   0  0  0  0  0  2  0  0  0  0  0  0
  181.5980  177.2960  138.9290 C   0  0  0  0  0  2  0  0  0  0  0  0
  1  5  1  0  0  0  0
  1 22  1  0  0  0  0
  2  3  2  0  0  0  0
  3  5  1  0  0  0  0
  4  6  1  0  0  0  0
  4  9  2  0  0  0  0
  6  8  2  0  0  0  0
  7  1  2  0  0  0  0
  8  2  1  0  0  0  0
  8  7  1  0  0  0  0
  9  7  1  0  0  0  0
 10  4  1  0  0  0  0
 11 10  1  0  0  0  0
 12 14  2  0  0  0  0
 13 11  1  0  0  0  0
 14 13  1  0  0  0  0
 15 14  1  0  0  0  0
 16 15  1  0  0  0  0
 19 18  2  6  0  0  0
 19 16  1  0  0  0  0
 19 21  1  0  0  0  0
 19 17  1  0  0  0  0
 21 20  1  0  0  0  0
 23 22  1  0  0  0  0
 24 23  3  0  0  0  0
 25 26  1  0  0  0  0
 25  2  1  0  0  0  0
 27 26  1  0  0  0  0
 28 27  1  0  0  0  0
 29 28  1  0  0  0  0
 30 31  1  1  0  0  0
 30 29  1  0  0  0  0
 33 40  1  0  0  0  0
 34 32  1  1  0  0  0
 34 41  1  0  0  0  0
 34 37  1  0  0  0  0
 35 42  1  6  0  0  0
 35 40  1  0  0  0  0
 36 42  1  6  0  0  0
 36 37  1  0  0  0  0
 36 35  1  0  0  0  0
 38 39  2  0  0  0  0
 39 41  1  0  0  0  0
 39 33  1  0  0  0  0
 40 30  1  1  0  0  0
M  END
>  <MODEL>
1

>  <REMARK>
 VINA RESULT:      -8.5      0.000      0.000
  Name = 
  16 active torsions:
  status: ('A' for Active; 'I' for Inactive)
    1  A    between atoms: C_1  and  N_30
    2  A    between atoms: C_2  and  C_29
    3  A    between atoms: C_3  and  C_21
    4  A    between atoms: C_3  and  C_22
    5  A    between atoms: C_8  and  C_36
    6  A    between atoms: N_14  and  C_40
    7  A    between atoms: N_18  and  O_25
    8  A    between atoms: N_18  and  P_41
    9  A    between atoms: C_21  and  C_35
   10  A    between atoms: C_22  and  C_33
   11  A    between atoms: O_25  and  C_34
   12  A    between atoms: C_26  and  P_41
   13  A    between atoms: C_28  and  C_35
   14  A    between atoms: C_29  and  C_33
   15  A    between atoms: N_30  and  C_37
   16  A    between atoms: C_36  and  C_40
                            x       y       z     vdW  Elec       q    Type
                         _______ _______ _______ _____ _____    ______ ____

>  <TORSDO>
F 16

$$$$
=
 OpenBabel11062413103D

 42 45  0  0  1  0  0  0  0  0999 V2000
  189.3440  177.6160  145.4940 C   0  0  0  0  0  0  0  0  0  0  0  0
  186.6170  177.7720  144.4650 C   0  0  0  0  0  0  0  0  0  0  0  0
  186.8020  177.8170  145.7900 C   0  0  0  0  0  3  0  0  0  0  0  0
  189.2020  177.5220  141.9700 C   0  0  0  0  0  0  0  0  0  0  0  0
  188.1580  177.5860  146.4430 C   0  0  0  0  0  2  0  0  0  0  0  0
  187.8170  177.5860  142.3240 N   0  0  0  0  0  0  0  0  0  0  0  0
  189.1180  177.5730  144.1720 C   0  0  0  0  0  0  0  0  0  0  0  0
  187.7950  177.6010  143.6130 C   0  0  0  0  0  0  0  0  0  0  0  0
  190.0170  177.5400  143.0290 C   0  0  0  0  0  3  0  0  0  0  0  0
  189.6700  177.5530  140.5490 C   0  0  0  0  0  2  0  0  0  0  0  0
  191.1720  177.3070  140.4280 C   0  0  0  0  0  2  0  0  0  0  0  0
  193.7540  177.2040  139.1910 O   0  0  0  0  0  0  0  0  0  0  0  0
  191.4860  176.6470  139.1670 N   0  0  0  0  0  2  0  0  0  0  0  0
  192.8110  176.5690  138.6410 C   0  0  0  0  0  0  0  0  0  0  0  0
  193.0520  175.7710  137.5250 O   0  0  0  0  0  0  0  0  0  0  0  0
  193.3360  174.4300  137.6590 N   0  0  0  0  0  2  0  0  0  0  0  0
  195.6730  175.5430  136.5840 O   0  0  0  0  0  0  0  0  0  0  0  0
  195.4030  172.9570  136.8250 O   0  0  0  0  0  1  0  0  0  0  0  0
  195.0720  174.2630  137.5060 P   0  0  2  0  0  0  0  0  0  0  0  0
  197.1680  174.8520  139.0680 N   0  0  0  0  0  1  0  0  0  0  0  0
  195.8280  174.3040  139.1550 C   0  0  0  0  0  2  0  0  0  0  0  0
  190.6600  177.6280  146.0680 N   0  0  0  0  0  2  0  0  0  0  0  0
  191.2310  176.5830  146.8140 C   0  0  0  0  0  0  0  0  0  0  0  0
  191.7010  175.7210  147.4270 N   0  0  0  0  0  0  0  0  0  0  0  0
  185.2770  178.0580  143.8770 C   0  0  0  0  0  2  0  0  0  0  0  0
  184.5900  179.1410  144.6910 C   0  0  0  0  0  2  0  0  0  0  0  0
  183.0830  178.9490  144.6790 C   0  0  0  0  0  2  0  0  0  0  0  0
  182.5190  179.1410  143.2780 C   0  0  0  0  0  2  0  0  0  0  0  0
  181.0400  178.7960  143.2140 C   0  0  0  0  0  2  0  0  0  0  0  0
  180.4260  179.2530  141.8980 C   0  0  1  0  0  3  0  0  0  0  0  0
  180.1240  180.6160  141.9560 O   0  0  0  0  0  1  0  0  0  0  0  0
  185.5140  178.9510  138.6590 N   0  0  0  0  0  1  0  0  0  0  0  0
  181.1380  179.8280  139.6450 O   0  0  0  0  0  0  0  0  0  0  0  0
  184.0900  178.8400  138.9180 C   0  0  1  0  0  3  0  0  0  0  0  0
  181.3600  177.4800  140.3750 C   0  0  1  0  0  3  0  0  0  0  0  0
  182.7460  176.9220  140.0120 C   0  0  2  0  0  3  0  0  0  0  0  0
  183.8830  177.9580  140.1480 C   0  0  0  0  0  2  0  0  0  0  0  0
  181.8560  181.5320  138.2990 O   0  0  0  0  0  0  0  0  0  0  0  0
  182.1590  180.5230  138.9880 C   0  0  0  0  0  0  0  0  0  0  0  0
  181.3890  178.9700  140.7540 C   0  0  2  0  0  3  0  0  0  0  0  0
  183.5430  180.1770  139.1310 N   0  0  0  0  0  2  0  0  0  0  0  0
  181.7300  177.2330  138.9250 C   0  0  0  0  0  2  0  0  0  0  0  0
  1 22  1  0  0  0  0
  1  5  1  0  0  0  0
  2  3  2  0  0  0  0
  3  5  1  0  0  0  0
  4  6  1  0  0  0  0
  4  9  2  0  0  0  0
  6  8  2  0  0  0  0
  7  1  2  0  0  0  0
  8  7  1  0  0  0  0
  8  2  1  0  0  0  0
  9  7  1  0  0  0  0
 10  4  1  0  0  0  0
 11 10  1  0  0  0  0
 13 11  1  0  0  0  0
 14 13  1  0  0  0  0
 14 12  2  0  0  0  0
 15 16  1  0  0  0  0
 15 14  1  0  0  0  0
 18 19  1  0  0  0  0
 19 17  2  6  0  0  0
 19 16  1  0  0  0  0
 19 21  1  0  0  0  0
 20 21  1  0  0  0  0
 22 23  1  0  0  0  0
 23 24  3  0  0  0  0
 25  2  1  0  0  0  0
 25 26  1  0  0  0  0
 27 26  1  0  0  0  0
 28 27  1  0  0  0  0
 29 28  1  0  0  0  0
 30 31  1  1  0  0  0
 30 29  1  0  0  0  0
 33 40  1  0  0  0  0
 34 32  1  1  0  0  0
 34 41  1  0  0  0  0
 34 37  1  0  0  0  0
 35 42  1  6  0  0  0
 35 40  1  0  0  0  0
 36 42  1  6  0  0  0
 36 37  1  0  0  0  0
 36 35  1  0  0  0  0
 38 39  2  0  0  0  0
 39 41  1  0  0  0  0
 39 33  1  0  0  0  0
 40 30  1  1  0  0  0
M  END
>  <MODEL>
2

>  <REMARK>
 VINA RESULT:      -8.5      2.230      2.567
  Name = 
  16 active torsions:
  status: ('A' for Active; 'I' for Inactive)
    1  A    between atoms: C_1  and  N_30
    2  A    between atoms: C_2  and  C_29
    3  A    between atoms: C_3  and  C_21
    4  A    between atoms: C_3  and  C_22
    5  A    between atoms: C_8  and  C_36
    6  A    between atoms: N_14  and  C_40
    7  A    between atoms: N_18  and  O_25
    8  A    between atoms: N_18  and  P_41
    9  A    between atoms: C_21  and  C_35
   10  A    between atoms: C_22  and  C_33
   11  A    between atoms: O_25  and  C_34
   12  A    between atoms: C_26  and  P_41
   13  A    between atoms: C_28  and  C_35
   14  A    between atoms: C_29  and  C_33
   15  A    between atoms: N_30  and  C_37
   16  A    between atoms: C_36  and  C_40
                            x       y       z     vdW  Elec       q    Type
                         _______ _______ _______ _____ _____    ______ ____

>  <TORSDO>
F 16

$$$$
=
 OpenBabel11062413103D

 42 45  0  0  1  0  0  0  0  0999 V2000
  189.8760  177.4240  146.9660 C   0  0  0  0  0  0  0  0  0  0  0  0
  186.9950  177.7590  146.6320 C   0  0  0  0  0  0  0  0  0  0  0  0
  187.5230  177.9520  147.8470 C   0  0  0  0  0  3  0  0  0  0  0  0
  188.8090  176.8940  143.6440 C   0  0  0  0  0  0  0  0  0  0  0  0
  188.9800  177.6530  148.1720 C   0  0  0  0  0  2  0  0  0  0  0  0
  187.5750  177.1630  144.3160 N   0  0  0  0  0  0  0  0  0  0  0  0
  189.3080  177.2370  145.7640 C   0  0  0  0  0  0  0  0  0  0  0  0
  187.8920  177.3450  145.5520 C   0  0  0  0  0  0  0  0  0  0  0  0
  189.8720  176.9550  144.4530 C   0  0  0  0  0  3  0  0  0  0  0  0
  188.8900  176.6880  142.1640 C   0  0  0  0  0  2  0  0  0  0  0  0
  190.2470  177.0970  141.5960 C   0  0  0  0  0  2  0  0  0  0  0  0
  189.6340  178.0420  138.9610 O   0  0  0  0  0  0  0  0  0  0  0  0
  190.5190  176.3880  140.3520 N   0  0  0  0  0  2  0  0  0  0  0  0
  190.2550  176.9480  139.0650 C   0  0  0  0  0  0  0  0  0  0  0  0
  190.7070  176.2800  137.9290 O   0  0  0  0  0  0  0  0  0  0  0  0
  191.3490  175.0650  138.0270 N   0  0  0  0  0  2  0  0  0  0  0  0
  193.9290  173.9810  137.8750 O   0  0  0  0  0  0  0  0  0  0  0  0
  193.5640  176.5600  138.0520 O   0  0  0  0  0  1  0  0  0  0  0  0
  192.9810  175.3080  137.4410 P   0  0  2  0  0  0  0  0  0  0  0  0
  194.2690  175.8470  135.1540 N   0  0  0  0  0  1  0  0  0  0  0  0
  192.9550  175.4620  135.6340 C   0  0  0  0  0  2  0  0  0  0  0  0
  191.2930  177.3580  147.1870 N   0  0  0  0  0  2  0  0  0  0  0  0
  192.0230  176.1830  147.4310 C   0  0  0  0  0  0  0  0  0  0  0  0
  192.6240  175.2150  147.6340 N   0  0  0  0  0  0  0  0  0  0  0  0
  185.5740  178.1200  146.3580 C   0  0  0  0  0  2  0  0  0  0  0  0
  185.4880  178.8660  145.0380 C   0  0  0  0  0  2  0  0  0  0  0  0
  184.0770  179.3750  144.7990 C   0  0  0  0  0  2  0  0  0  0  0  0
  183.5040  178.8060  143.5080 C   0  0  0  0  0  2  0  0  0  0  0  0
  184.5810  178.1650  142.6470 C   0  0  0  0  0  2  0  0  0  0  0  0
  185.0570  179.1200  141.5620 C   0  0  1  0  0  3  0  0  0  0  0  0
  186.4530  179.1760  141.5490 O   0  0  0  0  0  1  0  0  0  0  0  0
  183.6860  175.5860  136.8610 N   0  0  0  0  0  1  0  0  0  0  0  0
  185.3210  179.1910  139.1450 O   0  0  0  0  0  0  0  0  0  0  0  0
  183.8230  176.8280  137.6000 C   0  0  1  0  0  3  0  0  0  0  0  0
  183.0370  179.0030  140.0650 C   0  0  1  0  0  3  0  0  0  0  0  0
  182.2400  177.9120  139.3320 C   0  0  2  0  0  3  0  0  0  0  0  0
  183.0910  176.6870  138.9330 C   0  0  0  0  0  2  0  0  0  0  0  0
  186.7700  178.8030  137.4200 O   0  0  0  0  0  0  0  0  0  0  0  0
  185.7880  178.3960  138.0940 C   0  0  0  0  0  0  0  0  0  0  0  0
  184.5310  178.6660  140.2080 C   0  0  2  0  0  3  0  0  0  0  0  0
  185.2420  177.1030  137.8040 N   0  0  0  0  0  2  0  0  0  0  0  0
  182.6130  179.2030  138.6220 C   0  0  0  0  0  2  0  0  0  0  0  0
  1 22  1  0  0  0  0
  1  5  1  0  0  0  0
  2  3  2  0  0  0  0
  3  5  1  0  0  0  0
  4  6  1  0  0  0  0
  4  9  2  0  0  0  0
  6  8  2  0  0  0  0
  7  1  2  0  0  0  0
  8  7  1  0  0  0  0
  8  2  1  0  0  0  0
  9  7  1  0  0  0  0
 10  4  1  0  0  0  0
 11 10  1  0  0  0  0
 12 14  2  0  0  0  0
 13 11  1  0  0  0  0
 14 13  1  0  0  0  0
 15 16  1  0  0  0  0
 15 14  1  0  0  0  0
 19 17  2  1  0  0  0
 19 16  1  0  0  0  0
 19 18  1  0  0  0  0
 20 21  1  0  0  0  0
 21 19  1  0  0  0  0
 22 23  1  0  0  0  0
 23 24  3  0  0  0  0
 25  2  1  0  0  0  0
 26 25  1  0  0  0  0
 27 26  1  0  0  0  0
 28 27  1  0  0  0  0
 29 28  1  0  0  0  0
 30 31  1  6  0  0  0
 30 29  1  0  0  0  0
 33 40  1  0  0  0  0
 34 32  1  1  0  0  0
 34 41  1  0  0  0  0
 34 37  1  0  0  0  0
 35 42  1  6  0  0  0
 35 40  1  0  0  0  0
 36 42  1  6  0  0  0
 36 35  1  0  0  0  0
 37 36  1  0  0  0  0
 38 39  2  0  0  0  0
 39 33  1  0  0  0  0
 40 30  1  1  0  0  0
 41 39  1  0  0  0  0
M  END
>  <MODEL>
3

>  <REMARK>
 VINA RESULT:      -8.4      2.189      2.838
  Name = 
  16 active torsions:
  status: ('A' for Active; 'I' for Inactive)
    1  A    between atoms: C_1  and  N_30
    2  A    between atoms: C_2  and  C_29
    3  A    between atoms: C_3  and  C_21
    4  A    between atoms: C_3  and  C_22
    5  A    between atoms: C_8  and  C_36
    6  A    between atoms: N_14  and  C_40
    7  A    between atoms: N_18  and  O_25
    8  A    between atoms: N_18  and  P_41
    9  A    between atoms: C_21  and  C_35
   10  A    between atoms: C_22  and  C_33
   11  A    between atoms: O_25  and  C_34
   12  A    between atoms: C_26  and  P_41
   13  A    between atoms: C_28  and  C_35
   14  A    between atoms: C_29  and  C_33
   15  A    between atoms: N_30  and  C_37
   16  A    between atoms: C_36  and  C_40
                            x       y       z     vdW  Elec       q    Type
                         _______ _______ _______ _____ _____    ______ ____

>  <TORSDO>
F 16

$$$$
=
 OpenBabel11062413103D

 42 45  0  0  1  0  0  0  0  0999 V2000
  190.8950  177.5790  144.8160 C   0  0  0  0  0  0  0  0  0  0  0  0
  189.3250  177.6660  142.3570 C   0  0  0  0  0  0  0  0  0  0  0  0
  190.6600  177.6330  142.2600 C   0  0  0  0  0  3  0  0  0  0  0  0
  187.4170  177.6100  145.4100 C   0  0  0  0  0  0  0  0  0  0  0  0
  191.5790  177.7450  143.4690 C   0  0  0  0  0  3  0  0  0  0  0  0
  187.4780  177.6870  143.9830 N   0  0  0  0  0  0  0  0  0  0  0  0
  189.5550  177.6150  144.8710 C   0  0  0  0  0  0  0  0  0  0  0  0
  188.7350  177.7040  143.6960 C   0  0  0  0  0  0  0  0  0  0  0  0
  188.6220  177.5350  145.9850 C   0  0  0  0  0  2  0  0  0  0  0  0
  186.1240  177.5010  146.1550 C   0  0  0  0  0  2  0  0  0  0  0  0
  185.4800  178.8630  146.3980 C   0  0  0  0  0  2  0  0  0  0  0  0
  184.8060  179.6450  143.7260 O   0  0  0  0  0  0  0  0  0  0  0  0
  184.1350  178.9060  145.8360 N   0  0  0  0  0  2  0  0  0  0  0  0
  183.8740  179.2350  144.4710 C   0  0  0  0  0  0  0  0  0  0  0  0
  182.5840  179.0800  143.9720 O   0  0  0  0  0  0  0  0  0  0  0  0
  182.1780  179.7400  142.8330 N   0  0  0  0  0  2  0  0  0  0  0  0
  180.1830  178.2870  141.5050 O   0  0  0  0  0  0  0  0  0  0  0  0
  179.7700  180.7510  142.2650 O   0  0  0  0  0  1  0  0  0  0  0  0
  180.4550  179.4700  142.6780 P   0  0  2  0  0  0  0  0  0  0  0  0
  179.6480  177.4590  144.2550 N   0  0  0  0  0  1  0  0  0  0  0  0
  179.7900  178.9030  144.2670 C   0  0  0  0  0  2  0  0  0  0  0  0
  191.7280  177.4520  145.9790 N   0  0  0  0  0  2  0  0  0  0  0  0
  191.9250  176.2690  146.7110 C   0  0  0  0  0  0  0  0  0  0  0  0
  192.0890  175.2950  147.3150 N   0  0  0  0  0  0  0  0  0  0  0  0
  188.4740  177.4990  141.1440 C   0  0  0  0  0  2  0  0  0  0  0  0
  189.3020  177.7860  139.9030 C   0  0  0  0  0  2  0  0  0  0  0  0
  188.4610  178.4760  138.8430 C   0  0  0  0  0  2  0  0  0  0  0  0
  188.0360  177.4950  137.7580 C   0  0  0  0  0  2  0  0  0  0  0  0
  186.8930  178.0440  136.9190 C   0  0  0  0  0  2  0  0  0  0  0  0
  185.7290  177.0630  136.8690 C   0  0  1  0  0  3  0  0  0  0  0  0
  186.1380  175.8080  137.3280 O   0  0  0  0  0  1  0  0  0  0  0  0
  181.3540  180.6690  138.9490 N   0  0  0  0  0  1  0  0  0  0  0  0
  185.0140  177.9320  139.0250 O   0  0  0  0  0  0  0  0  0  0  0  0
  182.2410  179.5190  138.9360 C   0  0  1  0  0  3  0  0  0  0  0  0
  183.4070  176.5910  137.7160 C   0  0  1  0  0  3  0  0  0  0  0  0
  182.0300  177.2760  137.6710 C   0  0  2  0  0  3  0  0  0  0  0  0
  182.1090  178.8150  137.5870 C   0  0  0  0  0  2  0  0  0  0  0  0
  185.3840  179.5550  140.5920 O   0  0  0  0  0  0  0  0  0  0  0  0
  184.6780  179.1450  139.6340 C   0  0  0  0  0  0  0  0  0  0  0  0
  184.5770  177.5890  137.7130 C   0  0  2  0  0  3  0  0  0  0  0  0
  183.6100  179.9760  139.1600 N   0  0  0  0  0  2  0  0  0  0  0  0
  182.5560  176.6820  138.9680 C   0  0  0  0  0  2  0  0  0  0  0  0
  1  7  1  0  0  0  0
  1 22  1  0  0  0  0
  2  8  1  0  0  0  0
  3  2  2  0  0  0  0
  3  5  1  0  0  0  0
  4  9  1  0  0  0  0
  4 10  1  0  0  0  0
  5  1  2  0  0  0  0
  6  4  2  0  0  0  0
  7  9  1  0  0  0  0
  8  6  1  0  0  0  0
  8  7  2  0  0  0  0
 10 11  1  0  0  0  0
 12 14  2  0  0  0  0
 13 11  1  0  0  0  0
 14 13  1  0  0  0  0
 15 14  1  0  0  0  0
 16 15  1  0  0  0  0
 18 19  1  0  0  0  0
 19 17  2  6  0  0  0
 19 16  1  0  0  0  0
 19 21  1  0  0  0  0
 20 21  1  0  0  0  0
 22 23  1  0  0  0  0
 23 24  3  0  0  0  0
 25  2  1  0  0  0  0
 26 25  1  0  0  0  0
 27 26  1  0  0  0  0
 28 27  1  0  0  0  0
 29 28  1  0  0  0  0
 30 29  1  0  0  0  0
 30 31  1  1  0  0  0
 33 39  1  0  0  0  0
 34 32  1  6  0  0  0
 34 41  1  0  0  0  0
 35 42  1  1  0  0  0
 36 37  1  1  0  0  0
 36 35  1  0  0  0  0
 36 42  1  0  0  0  0
 37 34  1  0  0  0  0
 39 38  2  0  0  0  0
 40 30  1  6  0  0  0
 40 35  1  0  0  0  0
 40 33  1  0  0  0  0
 41 39  1  0  0  0  0
M  END
>  <MODEL>
4

>  <REMARK>
 VINA RESULT:      -8.3      3.411      6.906
  Name = 
  16 active torsions:
  status: ('A' for Active; 'I' for Inactive)
    1  A    between atoms: C_1  and  N_30
    2  A    between atoms: C_2  and  C_29
    3  A    between atoms: C_3  and  C_21
    4  A    between atoms: C_3  and  C_22
    5  A    between atoms: C_8  and  C_36
    6  A    between atoms: N_14  and  C_40
    7  A    between atoms: N_18  and  O_25
    8  A    between atoms: N_18  and  P_41
    9  A    between atoms: C_21  and  C_35
   10  A    between atoms: C_22  and  C_33
   11  A    between atoms: O_25  and  C_34
   12  A    between atoms: C_26  and  P_41
   13  A    between atoms: C_28  and  C_35
   14  A    between atoms: C_29  and  C_33
   15  A    between atoms: N_30  and  C_37
   16  A    between atoms: C_36  and  C_40
                            x       y       z     vdW  Elec       q    Type
                         _______ _______ _______ _____ _____    ______ ____

>  <TORSDO>
F 16

$$$$
=
 OpenBabel11062413103D

 42 45  0  0  1  0  0  0  0  0999 V2000
  189.9240  177.3100  146.9470 C   0  0  0  0  0  0  0  0  0  0  0  0
  187.3490  177.7080  145.6320 C   0  0  0  0  0  0  0  0  0  0  0  0
  187.3760  177.6210  146.9680 C   0  0  0  0  0  3  0  0  0  0  0  0
  190.2000  177.5470  143.4370 C   0  0  0  0  0  0  0  0  0  0  0  0
  188.6330  177.2580  147.7460 C   0  0  0  0  0  2  0  0  0  0  0  0
  188.7870  177.6540  143.6350 N   0  0  0  0  0  0  0  0  0  0  0  0
  189.8560  177.4010  145.6100 C   0  0  0  0  0  0  0  0  0  0  0  0
  188.6120  177.5510  144.9080 C   0  0  0  0  0  0  0  0  0  0  0  0
  190.8830  177.4240  144.5800 C   0  0  0  0  0  3  0  0  0  0  0  0
  190.8350  177.6830  142.0890 C   0  0  0  0  0  2  0  0  0  0  0  0
  190.2570  176.7010  141.0740 C   0  0  0  0  0  2  0  0  0  0  0  0
  187.9390  178.1860  140.2790 O   0  0  0  0  0  0  0  0  0  0  0  0
  190.0620  177.3490  139.7830 N   0  0  0  0  0  2  0  0  0  0  0  0
  188.9120  178.1380  139.4760 C   0  0  0  0  0  0  0  0  0  0  0  0
  188.8860  178.8660  138.2890 O   0  0  0  0  0  0  0  0  0  0  0  0
  187.7120  179.0500  137.5930 N   0  0  0  0  0  2  0  0  0  0  0  0
  189.0770  176.9680  136.3040 O   0  0  0  0  0  1  0  0  0  0  0  0
  187.0970  178.2050  135.1340 O   0  0  0  0  0  0  0  0  0  0  0  0
  187.5690  177.7070  136.4790 P   0  0  2  0  0  0  0  0  0  0  0  0
  185.0400  177.0440  137.0660 N   0  0  0  0  0  1  0  0  0  0  0  0
  186.3840  176.5020  137.1380 C   0  0  0  0  0  2  0  0  0  0  0  0
  191.1620  177.1980  147.6670 N   0  0  0  0  0  2  0  0  0  0  0  0
  192.0680  176.1300  147.5620 C   0  0  0  0  0  0  0  0  0  0  0  0
  192.8140  175.2490  147.4750 N   0  0  0  0  0  0  0  0  0  0  0  0
  186.1020  178.1200  144.9250 C   0  0  0  0  0  2  0  0  0  0  0  0
  185.1110  178.6770  145.9330 C   0  0  0  0  0  2  0  0  0  0  0  0
  183.7250  178.7820  145.3230 C   0  0  0  0  0  2  0  0  0  0  0  0
  183.7840  179.4140  143.9380 C   0  0  0  0  0  2  0  0  0  0  0  0
  182.6320  178.9520  143.0590 C   0  0  0  0  0  2  0  0  0  0  0  0
  183.0930  178.7190  141.6270 C   0  0  1  0  0  3  0  0  0  0  0  0
  184.1060  177.7560  141.5990 O   0  0  0  0  0  1  0  0  0  0  0  0
  179.5930  175.3750  138.0170 N   0  0  0  0  0  1  0  0  0  0  0  0
  181.8330  179.0420  139.5730 O   0  0  0  0  0  0  0  0  0  0  0  0
  180.0000  176.5530  138.7620 C   0  0  1  0  0  3  0  0  0  0  0  0
  180.6110  178.3040  141.5870 C   0  0  1  0  0  3  0  0  0  0  0  0
  179.6690  177.1340  141.2590 C   0  0  2  0  0  3  0  0  0  0  0  0
  180.2450  176.1530  140.2160 C   0  0  0  0  0  2  0  0  0  0  0  0
  181.9800  179.1100  137.2920 O   0  0  0  0  0  0  0  0  0  0  0  0
  181.6610  178.4520  138.3170 C   0  0  0  0  0  0  0  0  0  0  0  0
  181.9150  178.2770  140.7720 C   0  0  2  0  0  3  0  0  0  0  0  0
  181.2090  177.1010  138.1550 N   0  0  0  0  0  2  0  0  0  0  0  0
  179.3820  178.5290  140.7270 C   0  0  0  0  0  2  0  0  0  0  0  0
  1 22  1  0  0  0  0
  1  5  1  0  0  0  0
  2  3  2  0  0  0  0
  3  5  1  0  0  0  0
  4  6  1  0  0  0  0
  4  9  2  0  0  0  0
  6  8  2  0  0  0  0
  7  1  2  0  0  0  0
  8  7  1  0  0  0  0
  8  2  1  0  0  0  0
  9  7  1  0  0  0  0
 10  4  1  0  0  0  0
 11 10  1  0  0  0  0
 13 11  1  0  0  0  0
 14 13  1  0  0  0  0
 14 12  2  0  0  0  0
 15 14  1  0  0  0  0
 16 15  1  0  0  0  0
 17 19  1  0  0  0  0
 19 18  2  6  0  0  0
 19 21  1  0  0  0  0
 19 16  1  0  0  0  0
 20 21  1  0  0  0  0
 23 22  1  0  0  0  0
 24 23  3  0  0  0  0
 25  2  1  0  0  0  0
 25 26  1  0  0  0  0
 27 26  1  0  0  0  0
 28 27  1  0  0  0  0
 29 28  1  0  0  0  0
 30 31  1  1  0  0  0
 30 29  1  0  0  0  0
 33 40  1  0  0  0  0
 34 32  1  6  0  0  0
 34 37  1  0  0  0  0
 35 42  1  6  0  0  0
 36 37  1  6  0  0  0
 36 35  1  0  0  0  0
 38 39  2  0  0  0  0
 39 33  1  0  0  0  0
 40 35  1  0  0  0  0
 40 30  1  1  0  0  0
 41 39  1  0  0  0  0
 41 34  1  0  0  0  0
 42 36  1  0  0  0  0
M  END
>  <MODEL>
5

>  <REMARK>
 VINA RESULT:      -8.3      2.011      2.740
  Name = 
  16 active torsions:
  status: ('A' for Active; 'I' for Inactive)
    1  A    between atoms: C_1  and  N_30
    2  A    between atoms: C_2  and  C_29
    3  A    between atoms: C_3  and  C_21
    4  A    between atoms: C_3  and  C_22
    5  A    between atoms: C_8  and  C_36
    6  A    between atoms: N_14  and  C_40
    7  A    between atoms: N_18  and  O_25
    8  A    between atoms: N_18  and  P_41
    9  A    between atoms: C_21  and  C_35
   10  A    between atoms: C_22  and  C_33
   11  A    between atoms: O_25  and  C_34
   12  A    between atoms: C_26  and  P_41
   13  A    between atoms: C_28  and  C_35
   14  A    between atoms: C_29  and  C_33
   15  A    between atoms: N_30  and  C_37
   16  A    between atoms: C_36  and  C_40
                            x       y       z     vdW  Elec       q    Type
                         _______ _______ _______ _____ _____    ______ ____

>  <TORSDO>
F 16

$$$$
=
 OpenBabel11062413103D

 42 45  0  0  1  0  0  0  0  0999 V2000
  182.3340  178.8300  142.4770 C   0  0  0  0  0  0  0  0  0  0  0  0
  184.9360  178.6310  143.7850 C   0  0  0  0  0  0  0  0  0  0  0  0
  183.8410  178.7060  144.5520 C   0  0  0  0  0  3  0  0  0  0  0  0
  185.0070  178.6000  140.1840 C   0  0  0  0  0  0  0  0  0  0  0  0
  182.4530  178.9700  143.9850 C   0  0  0  0  0  2  0  0  0  0  0  0
  185.6890  178.5950  141.4420 N   0  0  0  0  0  0  0  0  0  0  0  0
  183.4550  178.7550  141.7430 C   0  0  0  0  0  0  0  0  0  0  0  0
  184.7630  178.7010  142.3320 C   0  0  0  0  0  0  0  0  0  0  0  0
  183.6770  178.6640  140.3080 C   0  0  0  0  0  3  0  0  0  0  0  0
  185.7220  178.4280  138.8810 C   0  0  0  0  0  2  0  0  0  0  0  0
  187.1920  178.0670  139.0700 C   0  0  0  0  0  2  0  0  0  0  0  0
  189.4290  178.3670  137.3040 O   0  0  0  0  0  0  0  0  0  0  0  0
  187.6190  177.1010  138.0650 N   0  0  0  0  0  2  0  0  0  0  0  0
  188.7890  177.2790  137.2650 C   0  0  0  0  0  0  0  0  0  0  0  0
  189.2240  176.2310  136.4570 O   0  0  0  0  0  0  0  0  0  0  0  0
  190.3250  176.3720  135.6420 N   0  0  0  0  0  2  0  0  0  0  0  0
  192.2890  174.4430  135.1130 O   0  0  0  0  0  0  0  0  0  0  0  0
  191.0170  174.4770  137.3940 O   0  0  0  0  0  1  0  0  0  0  0  0
  191.5940  175.3820  136.3320 P   0  0  2  0  0  0  0  0  0  0  0  0
  192.7390  176.4490  138.5060 N   0  0  0  0  0  1  0  0  0  0  0  0
  192.8630  176.4530  137.0610 C   0  0  0  0  0  2  0  0  0  0  0  0
  181.0170  178.8460  141.9040 N   0  0  0  0  0  2  0  0  0  0  0  0
  180.2470  179.9970  141.6700 C   0  0  0  0  0  0  0  0  0  0  0  0
  179.6130  180.9460  141.4760 N   0  0  0  0  0  0  0  0  0  0  0  0
  186.2630  178.3180  144.3890 C   0  0  0  0  0  2  0  0  0  0  0  0
  186.0580  177.6010  145.7120 C   0  0  0  0  0  2  0  0  0  0  0  0
  186.3520  178.5300  146.8780 C   0  0  0  0  0  2  0  0  0  0  0  0
  187.5970  178.0820  147.6330 C   0  0  0  0  0  2  0  0  0  0  0  0
  188.3000  176.9320  146.9290 C   0  0  0  0  0  2  0  0  0  0  0  0
  189.8090  177.1320  146.9240 C   0  0  1  0  0  3  0  0  0  0  0  0
  190.4340  176.0870  147.6090 O   0  0  0  0  0  1  0  0  0  0  0  0
  190.1310  176.3990  140.9380 N   0  0  0  0  0  1  0  0  0  0  0  0
  191.4680  176.3890  145.3090 O   0  0  0  0  0  0  0  0  0  0  0  0
  190.5890  176.7850  142.2610 C   0  0  1  0  0  3  0  0  0  0  0  0
  190.5430  178.6660  145.0690 C   0  0  1  0  0  3  0  0  0  0  0  0
  190.1410  178.9430  143.6100 C   0  0  2  0  0  3  0  0  0  0  0  0
  189.5510  177.7130  142.8880 C   0  0  0  0  0  2  0  0  0  0  0  0
  192.4230  174.5560  144.3320 O   0  0  0  0  0  0  0  0  0  0  0  0
  191.5980  175.5010  144.2360 C   0  0  0  0  0  0  0  0  0  0  0  0
  190.3140  177.2050  145.4900 C   0  0  2  0  0  3  0  0  0  0  0  0
  190.7740  175.5800  143.0660 N   0  0  0  0  0  2  0  0  0  0  0  0
  191.6060  178.8110  143.9960 C   0  0  0  0  0  2  0  0  0  0  0  0
  1  5  1  0  0  0  0
  2 25  1  0  0  0  0
  2  3  2  0  0  0  0
  4  9  2  0  0  0  0
  4  6  1  0  0  0  0
  5  3  1  0  0  0  0
  6  8  2  0  0  0  0
  7  8  1  0  0  0  0
  7  1  2  0  0  0  0
  8  2  1  0  0  0  0
  9  7  1  0  0  0  0
 10 11  1  0  0  0  0
 10  4  1  0  0  0  0
 13 11  1  0  0  0  0
 14 12  2  0  0  0  0
 14 13  1  0  0  0  0
 15 14  1  0  0  0  0
 16 19  1  0  0  0  0
 16 15  1  0  0  0  0
 19 17  2  6  0  0  0
 19 21  1  0  0  0  0
 19 18  1  0  0  0  0
 21 20  1  0  0  0  0
 22  1  1  0  0  0  0
 23 22  1  0  0  0  0
 24 23  3  0  0  0  0
 25 26  1  0  0  0  0
 26 27  1  0  0  0  0
 27 28  1  0  0  0  0
 29 28  1  0  0  0  0
 30 29  1  0  0  0  0
 30 31  1  6  0  0  0
 33 40  1  0  0  0  0
 34 32  1  6  0  0  0
 34 37  1  0  0  0  0
 34 41  1  0  0  0  0
 35 42  1  6  0  0  0
 35 40  1  0  0  0  0
 36 37  1  6  0  0  0
 36 42  1  0  0  0  0
 36 35  1  0  0  0  0
 39 38  2  0  0  0  0
 39 33  1  0  0  0  0
 40 30  1  1  0  0  0
 41 39  1  0  0  0  0
M  END
>  <MODEL>
6

>  <REMARK>
 VINA RESULT:      -8.1      3.185      7.574
  Name = 
  16 active torsions:
  status: ('A' for Active; 'I' for Inactive)
    1  A    between atoms: C_1  and  N_30
    2  A    between atoms: C_2  and  C_29
    3  A    between atoms: C_3  and  C_21
    4  A    between atoms: C_3  and  C_22
    5  A    between atoms: C_8  and  C_36
    6  A    between atoms: N_14  and  C_40
    7  A    between atoms: N_18  and  O_25
    8  A    between atoms: N_18  and  P_41
    9  A    between atoms: C_21  and  C_35
   10  A    between atoms: C_22  and  C_33
   11  A    between atoms: O_25  and  C_34
   12  A    between atoms: C_26  and  P_41
   13  A    between atoms: C_28  and  C_35
   14  A    between atoms: C_29  and  C_33
   15  A    between atoms: N_30  and  C_37
   16  A    between atoms: C_36  and  C_40
                            x       y       z     vdW  Elec       q    Type
                         _______ _______ _______ _____ _____    ______ ____

>  <TORSDO>
F 16

$$$$
=
 OpenBabel11062413103D

 42 45  0  0  1  0  0  0  0  0999 V2000
  190.4490  176.9080  146.2430 C   0  0  0  0  0  0  0  0  0  0  0  0
  189.4160  177.0350  143.5160 C   0  0  0  0  0  0  0  0  0  0  0  0
  190.6980  176.6920  143.6970 C   0  0  0  0  0  3  0  0  0  0  0  0
  187.0350  177.7910  146.1090 C   0  0  0  0  0  0  0  0  0  0  0  0
  191.3830  176.7460  145.0560 C   0  0  0  0  0  3  0  0  0  0  0  0
  187.3690  177.6730  144.7220 N   0  0  0  0  0  0  0  0  0  0  0  0
  189.1700  177.2490  146.0200 C   0  0  0  0  0  0  0  0  0  0  0  0
  188.6220  177.3720  144.6980 C   0  0  0  0  0  0  0  0  0  0  0  0
  188.0610  177.5210  146.9220 C   0  0  0  0  0  2  0  0  0  0  0  0
  185.6420  178.0690  146.5790 C   0  0  0  0  0  2  0  0  0  0  0  0
  185.0290  179.2840  145.8890 C   0  0  0  0  0  2  0  0  0  0  0  0
  184.0500  179.3850  143.1980 O   0  0  0  0  0  0  0  0  0  0  0  0
  183.6610  179.0040  145.4690 N   0  0  0  0  0  2  0  0  0  0  0  0
  183.2550  179.0000  144.1000 C   0  0  0  0  0  0  0  0  0  0  0  0
  181.9780  178.5500  143.7740 O   0  0  0  0  0  0  0  0  0  0  0  0
  181.0330  179.4070  143.2550 N   0  0  0  0  0  2  0  0  0  0  0  0
  179.5490  179.8050  140.9110 O   0  0  0  0  0  0  0  0  0  0  0  0
  179.5160  177.5060  142.1480 O   0  0  0  0  0  1  0  0  0  0  0  0
  180.4210  178.6610  141.7940 P   0  0  2  0  0  0  0  0  0  0  0  0
  181.3240  177.2090  139.7300 N   0  0  0  0  0  1  0  0  0  0  0  0
  181.8130  178.0660  140.7940 C   0  0  0  0  0  2  0  0  0  0  0  0
  191.0020  176.7440  147.5580 N   0  0  0  0  0  2  0  0  0  0  0  0
  192.2340  176.1340  147.8500 C   0  0  0  0  0  0  0  0  0  0  0  0
  193.2470  175.6300  148.0920 N   0  0  0  0  0  0  0  0  0  0  0  0
  188.7830  176.9120  142.1710 C   0  0  0  0  0  2  0  0  0  0  0  0
  188.6680  178.2890  141.5390 C   0  0  0  0  0  2  0  0  0  0  0  0
  189.0250  178.2350  140.0640 C   0  0  0  0  0  2  0  0  0  0  0  0
  189.8410  176.9900  139.7440 C   0  0  0  0  0  2  0  0  0  0  0  0
  190.5980  177.1330  138.4330 C   0  0  0  0  0  2  0  0  0  0  0  0
  190.1350  176.0990  137.4160 C   0  0  1  0  0  3  0  0  0  0  0  0
  190.1930  174.8180  137.9720 O   0  0  0  0  0  1  0  0  0  0  0  0
  184.1740  177.0580  137.5640 N   0  0  0  0  0  1  0  0  0  0  0  0
  188.1840  175.3720  136.1600 O   0  0  0  0  0  0  0  0  0  0  0  0
  185.4820  176.8820  136.9580 C   0  0  1  0  0  3  0  0  0  0  0  0
  188.6640  177.7910  136.2720 C   0  0  1  0  0  3  0  0  0  0  0  0
  187.3920  178.5870  136.6060 C   0  0  2  0  0  3  0  0  0  0  0  0
  186.4560  177.8670  137.6000 C   0  0  0  0  0  2  0  0  0  0  0  0
  186.6500  173.6940  135.9120 O   0  0  0  0  0  0  0  0  0  0  0  0
  186.9100  174.8360  136.3740 C   0  0  0  0  0  0  0  0  0  0  0  0
  188.7170  176.4190  136.9650 C   0  0  2  0  0  3  0  0  0  0  0  0
  185.9150  175.5030  137.1620 N   0  0  0  0  0  2  0  0  0  0  0  0
  187.5390  177.8980  135.2590 C   0  0  0  0  0  2  0  0  0  0  0  0
  1 22  1  0  0  0  0
  2  3  2  0  0  0  0
  2  8  1  0  0  0  0
  3  5  1  0  0  0  0
  4 10  1  0  0  0  0
  4  9  1  0  0  0  0
  5  1  2  0  0  0  0
  6  4  2  0  0  0  0
  7  1  1  0  0  0  0
  7  9  1  0  0  0  0
  8  6  1  0  0  0  0
  8  7  2  0  0  0  0
 11 10  1  0  0  0  0
 12 14  2  0  0  0  0
 13 11  1  0  0  0  0
 14 13  1  0  0  0  0
 15 14  1  0  0  0  0
 16 15  1  0  0  0  0
 19 17  2  6  0  0  0
 19 18  1  0  0  0  0
 19 16  1  0  0  0  0
 20 21  1  0  0  0  0
 21 19  1  0  0  0  0
 22 23  1  0  0  0  0
 23 24  3  0  0  0  0
 25  2  1  0  0  0  0
 26 25  1  0  0  0  0
 27 26  1  0  0  0  0
 28 27  1  0  0  0  0
 29 28  1  0  0  0  0
 30 31  1  1  0  0  0
 30 29  1  0  0  0  0
 33 39  1  0  0  0  0
 33 40  1  0  0  0  0
 34 41  1  0  0  0  0
 34 32  1  1  0  0  0
 34 37  1  0  0  0  0
 35 42  1  6  0  0  0
 35 36  1  0  0  0  0
 35 40  1  0  0  0  0
 36 42  1  6  0  0  0
 36 37  1  0  0  0  0
 38 39  2  0  0  0  0
 39 41  1  0  0  0  0
 40 30  1  6  0  0  0
M  END
>  <MODEL>
7

>  <REMARK>
 VINA RESULT:      -8.0      3.016      7.586
  Name = 
  16 active torsions:
  status: ('A' for Active; 'I' for Inactive)
    1  A    between atoms: C_1  and  N_30
    2  A    between atoms: C_2  and  C_29
    3  A    between atoms: C_3  and  C_21
    4  A    between atoms: C_3  and  C_22
    5  A    between atoms: C_8  and  C_36
    6  A    between atoms: N_14  and  C_40
    7  A    between atoms: N_18  and  O_25
    8  A    between atoms: N_18  and  P_41
    9  A    between atoms: C_21  and  C_35
   10  A    between atoms: C_22  and  C_33
   11  A    between atoms: O_25  and  C_34
   12  A    between atoms: C_26  and  P_41
   13  A    between atoms: C_28  and  C_35
   14  A    between atoms: C_29  and  C_33
   15  A    between atoms: N_30  and  C_37
   16  A    between atoms: C_36  and  C_40
                            x       y       z     vdW  Elec       q    Type
                         _______ _______ _______ _____ _____    ______ ____

>  <TORSDO>
F 16

$$$$
=
 OpenBabel11062413103D

 42 45  0  0  1  0  0  0  0  0999 V2000
  184.9430  177.1760  136.9230 C   0  0  0  0  0  0  0  0  0  0  0  0
  184.9370  178.5830  139.4810 C   0  0  0  0  0  0  0  0  0  0  0  0
  183.7640  178.2020  138.9600 C   0  0  0  0  0  3  0  0  0  0  0  0
  188.1870  177.9970  138.0440 C   0  0  0  0  0  0  0  0  0  0  0  0
  183.6350  177.6050  137.5650 C   0  0  0  0  0  2  0  0  0  0  0  0
  187.3640  178.5570  139.0720 N   0  0  0  0  0  0  0  0  0  0  0  0
  186.0980  177.5760  137.4770 C   0  0  0  0  0  0  0  0  0  0  0  0
  186.1510  178.3100  138.7100 C   0  0  0  0  0  0  0  0  0  0  0  0
  187.4860  177.3780  137.0890 C   0  0  0  0  0  3  0  0  0  0  0  0
  189.6810  178.0100  138.1150 C   0  0  0  0  0  2  0  0  0  0  0  0
  190.2340  176.8310  138.9110 C   0  0  0  0  0  2  0  0  0  0  0  0
  193.0930  177.0000  138.9840 O   0  0  0  0  0  0  0  0  0  0  0  0
  191.1550  176.0460  138.0980 N   0  0  0  0  0  2  0  0  0  0  0  0
  192.5740  176.1260  138.2360 C   0  0  0  0  0  0  0  0  0  0  0  0
  193.3740  175.2170  137.5480 O   0  0  0  0  0  0  0  0  0  0  0  0
  194.6930  175.4990  137.2710 N   0  0  0  0  0  2  0  0  0  0  0  0
  194.9160  172.9010  138.3000 O   0  0  0  0  0  0  0  0  0  0  0  0
  195.7720  174.9620  139.6560 O   0  0  0  0  0  1  0  0  0  0  0  0
  195.6580  174.4170  138.2530 P   0  0  2  0  0  0  0  0  0  0  0  0
  197.8450  175.5660  137.2150 N   0  0  0  0  0  1  0  0  0  0  0  0
  197.3100  174.2530  137.5220 C   0  0  0  0  0  2  0  0  0  0  0  0
  184.8750  176.4080  135.7120 N   0  0  0  0  0  2  0  0  0  0  0  0
  184.9330  175.0060  135.6350 C   0  0  0  0  0  0  0  0  0  0  0  0
  184.9800  173.8520  135.5720 N   0  0  0  0  0  0  0  0  0  0  0  0
  185.0100  179.1120  140.8730 C   0  0  0  0  0  2  0  0  0  0  0  0
  184.1630  178.2450  141.7880 C   0  0  0  0  0  2  0  0  0  0  0  0
  184.6720  178.3130  143.2170 C   0  0  0  0  0  2  0  0  0  0  0  0
  186.1940  178.2630  143.2580 C   0  0  0  0  0  2  0  0  0  0  0  0
  186.6970  177.1390  144.1490 C   0  0  0  0  0  2  0  0  0  0  0  0
  187.9720  176.5230  143.5900 C   0  0  1  0  0  3  0  0  0  0  0  0
  188.1830  176.9620  142.2800 O   0  0  0  0  0  1  0  0  0  0  0  0
  192.4980  176.0770  147.5630 N   0  0  0  0  0  1  0  0  0  0  0  0
  188.7490  177.7410  145.5460 O   0  0  0  0  0  0  0  0  0  0  0  0
  191.5730  176.7450  146.6650 C   0  0  1  0  0  3  0  0  0  0  0  0
  190.2900  177.5030  143.6310 C   0  0  1  0  0  3  0  0  0  0  0  0
  191.6880  177.0700  144.1040 C   0  0  2  0  0  3  0  0  0  0  0  0
  191.6610  176.0840  145.2910 C   0  0  0  0  0  2  0  0  0  0  0  0
  188.4580  178.0270  147.7950 O   0  0  0  0  0  0  0  0  0  0  0  0
  189.1350  177.5090  146.8700 C   0  0  0  0  0  0  0  0  0  0  0  0
  189.1550  176.8960  144.4720 C   0  0  2  0  0  3  0  0  0  0  0  0
  190.2240  176.6410  147.2150 N   0  0  0  0  0  2  0  0  0  0  0  0
  191.1620  178.4610  144.4210 C   0  0  0  0  0  2  0  0  0  0  0  0
  1  7  2  0  0  0  0
  1  5  1  0  0  0  0
  2 25  1  0  0  0  0
  3  2  2  0  0  0  0
  4 10  1  0  0  0  0
  4  6  1  0  0  0  0
  5  3  1  0  0  0  0
  7  8  1  0  0  0  0
  8  6  2  0  0  0  0
  8  2  1  0  0  0  0
  9  7  1  0  0  0  0
  9  4  2  0  0  0  0
 10 11  1  0  0  0  0
 13 14  1  0  0  0  0
 13 11  1  0  0  0  0
 14 12  2  0  0  0  0
 15 14  1  0  0  0  0
 16 15  1  0  0  0  0
 16 19  1  0  0  0  0
 19 17  2  1  0  0  0
 19 18  1  0  0  0  0
 20 21  1  0  0  0  0
 21 19  1  0  0  0  0
 22  1  1  0  0  0  0
 23 22  1  0  0  0  0
 24 23  3  0  0  0  0
 25 26  1  0  0  0  0
 26 27  1  0  0  0  0
 27 28  1  0  0  0  0
 28 29  1  0  0  0  0
 30 31  1  6  0  0  0
 30 29  1  0  0  0  0
 33 39  1  0  0  0  0
 34 41  1  0  0  0  0
 34 32  1  1  0  0  0
 35 36  1  0  0  0  0
 35 42  1  1  0  0  0
 35 40  1  0  0  0  0
 36 42  1  1  0  0  0
 36 37  1  0  0  0  0
 37 34  1  0  0  0  0
 39 41  1  0  0  0  0
 39 38  2  0  0  0  0
 40 30  1  6  0  0  0
 40 33  1  0  0  0  0
M  END
>  <MODEL>
8

>  <REMARK>
 VINA RESULT:      -8.0      3.604      8.219
  Name = 
  16 active torsions:
  status: ('A' for Active; 'I' for Inactive)
    1  A    between atoms: C_1  and  N_30
    2  A    between atoms: C_2  and  C_29
    3  A    between atoms: C_3  and  C_21
    4  A    between atoms: C_3  and  C_22
    5  A    between atoms: C_8  and  C_36
    6  A    between atoms: N_14  and  C_40
    7  A    between atoms: N_18  and  O_25
    8  A    between atoms: N_18  and  P_41
    9  A    between atoms: C_21  and  C_35
   10  A    between atoms: C_22  and  C_33
   11  A    between atoms: O_25  and  C_34
   12  A    between atoms: C_26  and  P_41
   13  A    between atoms: C_28  and  C_35
   14  A    between atoms: C_29  and  C_33
   15  A    between atoms: N_30  and  C_37
   16  A    between atoms: C_36  and  C_40
                            x       y       z     vdW  Elec       q    Type
                         _______ _______ _______ _____ _____    ______ ____

>  <TORSDO>
F 16

$$$$
=
 OpenBabel11062413103D

 42 45  0  0  1  0  0  0  0  0999 V2000
  190.3220  177.1580  146.7020 C   0  0  0  0  0  0  0  0  0  0  0  0
  187.5790  178.1510  146.8060 C   0  0  0  0  0  0  0  0  0  0  0  0
  188.2510  178.0130  147.9560 C   0  0  0  0  0  3  0  0  0  0  0  0
  188.8490  177.4540  143.5090 C   0  0  0  0  0  0  0  0  0  0  0  0
  189.6240  177.3590  148.0360 C   0  0  0  0  0  2  0  0  0  0  0  0
  187.7800  177.8580  144.3710 N   0  0  0  0  0  0  0  0  0  0  0  0
  189.6150  177.3090  145.5710 C   0  0  0  0  0  0  0  0  0  0  0  0
  188.2480  177.7500  145.5670 C   0  0  0  0  0  0  0  0  0  0  0  0
  189.9690  177.1460  144.1700 C   0  0  0  0  0  3  0  0  0  0  0  0
  188.7380  177.4970  142.0170 C   0  0  0  0  0  2  0  0  0  0  0  0
  190.0760  177.2420  141.3290 C   0  0  0  0  0  2  0  0  0  0  0  0
  190.8760  175.6450  139.0900 O   0  0  0  0  0  0  0  0  0  0  0  0
  190.0230  177.6490  139.9300 N   0  0  0  0  0  2  0  0  0  0  0  0
  190.3680  176.7760  138.8540 C   0  0  0  0  0  0  0  0  0  0  0  0
  190.1200  177.1820  137.5450 O   0  0  0  0  0  0  0  0  0  0  0  0
  189.4550  178.3590  137.2800 N   0  0  0  0  0  2  0  0  0  0  0  0
  187.0500  178.8060  135.9110 O   0  0  0  0  0  0  0  0  0  0  0  0
  187.0690  178.3690  138.4850 O   0  0  0  0  0  1  0  0  0  0  0  0
  187.7500  177.9680  137.1980 P   0  0  2  0  0  0  0  0  0  0  0  0
  187.5540  175.8980  135.5070 N   0  0  0  0  0  1  0  0  0  0  0  0
  187.5540  176.1840  136.9300 C   0  0  0  0  0  2  0  0  0  0  0  0
  191.7000  176.7550  146.7210 N   0  0  0  0  0  2  0  0  0  0  0  0
  192.3060  175.9810  147.7240 C   0  0  0  0  0  0  0  0  0  0  0  0
  192.8060  175.3450  148.5520 N   0  0  0  0  0  0  0  0  0  0  0  0
  186.2610  178.8480  146.7790 C   0  0  0  0  0  2  0  0  0  0  0  0
  185.1970  177.8950  146.2620 C   0  0  0  0  0  2  0  0  0  0  0  0
  184.1630  178.6410  145.4360 C   0  0  0  0  0  2  0  0  0  0  0  0
  184.4380  178.4850  143.9460 C   0  0  0  0  0  2  0  0  0  0  0  0
  183.5370  179.3810  143.1110 C   0  0  0  0  0  2  0  0  0  0  0  0
  182.2380  178.6730  142.7540 C   0  0  1  0  0  3  0  0  0  0  0  0
  181.1470  179.5010  143.0300 O   0  0  0  0  0  1  0  0  0  0  0  0
  183.7790  175.9800  137.5730 N   0  0  0  0  0  1  0  0  0  0  0  0
  182.7270  179.3540  140.4710 O   0  0  0  0  0  0  0  0  0  0  0  0
  183.0780  176.9190  138.4310 C   0  0  1  0  0  3  0  0  0  0  0  0
  180.8700  177.7700  140.8430 C   0  0  1  0  0  3  0  0  0  0  0  0
  180.9500  176.5920  139.8590 C   0  0  2  0  0  3  0  0  0  0  0  0
  182.3930  176.1400  139.5520 C   0  0  0  0  0  2  0  0  0  0  0  0
  184.3470  180.1730  139.0810 O   0  0  0  0  0  0  0  0  0  0  0  0
  183.6990  179.1720  139.4830 C   0  0  0  0  0  0  0  0  0  0  0  0
  182.2510  178.2840  141.2830 C   0  0  2  0  0  3  0  0  0  0  0  0
  184.0400  177.8780  138.9670 N   0  0  0  0  0  2  0  0  0  0  0  0
  180.6020  177.9870  139.3660 C   0  0  0  0  0  2  0  0  0  0  0  0
  1 22  1  0  0  0  0
  1  5  1  0  0  0  0
  2  3  2  0  0  0  0
  3  5  1  0  0  0  0
  4  9  2  0  0  0  0
  4  6  1  0  0  0  0
  6  8  2  0  0  0  0
  7  1  2  0  0  0  0
  8  7  1  0  0  0  0
  8  2  1  0  0  0  0
  9  7  1  0  0  0  0
 10  4  1  0  0  0  0
 11 10  1  0  0  0  0
 13 11  1  0  0  0  0
 14 12  2  0  0  0  0
 14 13  1  0  0  0  0
 15 14  1  0  0  0  0
 16 15  1  0  0  0  0
 19 17  2  6  0  0  0
 19 16  1  0  0  0  0
 19 18  1  0  0  0  0
 20 21  1  0  0  0  0
 21 19  1  0  0  0  0
 22 23  1  0  0  0  0
 23 24  3  0  0  0  0
 25  2  1  0  0  0  0
 26 25  1  0  0  0  0
 27 26  1  0  0  0  0
 28 27  1  0  0  0  0
 29 28  1  0  0  0  0
 30 31  1  6  0  0  0
 30 29  1  0  0  0  0
 33 40  1  0  0  0  0
 34 32  1  6  0  0  0
 34 41  1  0  0  0  0
 34 37  1  0  0  0  0
 35 42  1  6  0  0  0
 35 40  1  0  0  0  0
 36 42  1  6  0  0  0
 36 35  1  0  0  0  0
 37 36  1  0  0  0  0
 38 39  2  0  0  0  0
 39 33  1  0  0  0  0
 40 30  1  1  0  0  0
 41 39  1  0  0  0  0
M  END
>  <MODEL>
9

>  <REMARK>
 VINA RESULT:      -8.0      1.776      2.451
  Name = 
  16 active torsions:
  status: ('A' for Active; 'I' for Inactive)
    1  A    between atoms: C_1  and  N_30
    2  A    between atoms: C_2  and  C_29
    3  A    between atoms: C_3  and  C_21
    4  A    between atoms: C_3  and  C_22
    5  A    between atoms: C_8  and  C_36
    6  A    between atoms: N_14  and  C_40
    7  A    between atoms: N_18  and  O_25
    8  A    between atoms: N_18  and  P_41
    9  A    between atoms: C_21  and  C_35
   10  A    between atoms: C_22  and  C_33
   11  A    between atoms: O_25  and  C_34
   12  A    between atoms: C_26  and  P_41
   13  A    between atoms: C_28  and  C_35
   14  A    between atoms: C_29  and  C_33
   15  A    between atoms: N_30  and  C_37
   16  A    between atoms: C_36  and  C_40
                            x       y       z     vdW  Elec       q    Type
                         _______ _______ _______ _____ _____    ______ ____

>  <TORSDO>
F 16

$$$$
