=
 OpenBabel11062413253D

 46 49  0  0  1  0  0  0  0  0999 V2000
  183.7430  177.8890  141.8390 C   0  0  2  0  0  3  0  0  0  0  0  0
  183.7420  177.9420  140.3630 N   0  0  0  0  0  2  0  0  0  0  0  0
  182.9070  178.9130  141.2010 C   0  0  1  0  0  3  0  0  0  0  0  0
  181.5100  178.4360  141.4880 C   0  0  1  0  0  3  0  0  0  0  0  0
  180.2490  178.7130  143.7320 C   0  0  0  0  0  2  0  0  0  0  0  0
  181.0730  179.2170  142.7550 C   0  0  0  0  0  3  0  0  0  0  0  0
  180.2990  178.6610  140.1220 S   0  0  0  0  0  0  0  0  0  0  0  0
  182.2590  177.1990  136.0820 C   0  0  0  0  0  2  0  0  0  0  0  0
  180.7370  176.2280  137.9200 C   0  0  2  0  0  3  0  0  0  0  0  0
  180.1340  175.2460  138.5770 N   0  0  0  0  0  2  0  0  0  0  0  0
  182.2850  178.4140  136.8560 N   0  0  0  0  0  2  0  0  0  0  0  0
  180.9530  178.6940  137.3150 C   0  0  1  0  0  3  0  0  0  0  0  0
  181.9720  175.9680  136.9990 C   0  0  1  0  0  3  0  0  0  0  0  0
  181.8970  174.8930  136.0440 N   0  0  0  0  0  1  0  0  0  0  0  0
  180.5000  177.7110  138.3910 C   0  0  2  0  0  3  0  0  0  0  0  0
  179.4690  180.7250  137.0810 C   0  0  0  0  0  3  0  0  0  0  0  0
  179.2620  182.0250  137.1680 C   0  0  0  0  0  3  0  0  0  0  0  0
  180.2850  182.9480  137.7070 C   0  0  0  0  0  2  0  0  0  0  0  0
  181.5530  182.2690  138.0970 C   0  0  0  0  0  0  0  0  0  0  0  0
  181.6830  180.8880  137.9370 N   0  0  0  0  0  0  0  0  0  0  0  0
  182.5580  182.9680  138.5630 O   0  0  0  0  0  0  0  0  0  0  0  0
  180.6850  180.1100  137.5080 C   0  0  0  0  0  0  0  0  0  0  0  0
  180.2260  173.9550  138.1220 C   0  0  0  0  0  3  0  0  0  0  0  0
  179.6940  172.9650  138.7310 O   0  0  0  0  0  0  0  0  0  0  0  0
  184.8810  178.6350  142.5410 C   0  0  0  0  0  2  0  0  0  0  0  0
  184.5820  178.7500  144.0510 C   0  0  2  0  0  0  0  0  0  0  0  0
  183.4320  178.1290  144.4260 F   0  0  0  0  0  0  0  0  0  0  0  0
  184.5660  180.2970  144.2870 C   0  0  0  0  0  1  0  0  0  0  0  0
  185.3020  178.2850  146.3980 C   0  0  0  0  0  1  0  0  0  0  0  0
  185.6110  178.0380  144.9280 C   0  0  2  0  0  3  0  0  0  0  0  0
  187.1340  178.0960  144.6300 C   0  0  0  0  0  2  0  0  0  0  0  0
  187.5890  176.7020  144.2300 C   0  0  0  0  0  2  0  0  0  0  0  0
  188.1610  176.7470  142.7810 C   0  0  0  0  0  2  0  0  0  0  0  0
  189.5580  177.3860  142.7030 C   0  0  1  0  0  3  0  0  0  0  0  0
  191.7220  175.9180  144.1120 C   0  0  0  0  0  2  0  0  0  0  0  0
  190.4890  176.3870  143.3580 C   0  0  1  0  0  3  0  0  0  0  0  0
  191.9790  178.2270  144.2330 O   0  0  0  0  0  1  0  0  0  0  0  0
  191.0770  177.2060  144.5400 C   0  0  2  0  0  0  0  0  0  0  0  0
  190.6340  176.8600  147.0610 N   0  0  0  0  0  0  0  0  0  0  0  0
  190.8320  176.9900  145.9600 C   0  0  0  0  0  0  0  0  0  0  0  0
  191.2120  177.1610  140.8190 C   0  0  0  0  0  1  0  0  0  0  0  0
  190.0000  177.8260  141.3460 N   0  0  0  0  0  0  0  0  0  0  0  0
  188.9680  177.3610  140.4130 C   0  0  0  0  0  2  0  0  0  0  0  0
  189.1610  178.4760  138.1210 C   0  0  0  0  0  1  0  0  0  0  0  0
  187.1660  178.4680  139.4040 O   0  0  0  0  0  1  0  0  0  0  0  0
  188.5400  178.4790  139.4970 C   0  0  1  0  0  3  0  0  0  0  0  0
  1 25  1  1  0  0  0
  2  3  1  0  0  0  0
  2  1  1  0  0  0  0
  3  4  1  6  0  0  0
  3  1  1  0  0  0  0
  4  6  1  1  0  0  0
  6  5  2  0  0  0  0
  7  4  1  0  0  0  0
  8 11  1  0  0  0  0
  8 13  1  0  0  0  0
  9 15  1  0  0  0  0
  9 10  1  1  0  0  0
 11 12  1  0  0  0  0
 12 22  1  1  0  0  0
 12 15  1  0  0  0  0
 13 14  1  6  0  0  0
 13  9  1  0  0  0  0
 15  7  1  1  0  0  0
 16 17  2  0  0  0  0
 16 22  1  0  0  0  0
 17 18  1  0  0  0  0
 18 19  1  0  0  0  0
 19 21  2  0  0  0  0
 20 19  1  0  0  0  0
 22 20  2  0  0  0  0
 23 10  1  0  0  0  0
 23 24  2  0  0  0  0
 25 26  1  0  0  0  0
 26 28  1  1  0  0  0
 26 27  1  0  0  0  0
 26 30  1  0  0  0  0
 30 29  1  1  0  0  0
 31 30  1  0  0  0  0
 32 31  1  0  0  0  0
 33 32  1  0  0  0  0
 34 33  1  6  0  0  0
 35 38  1  0  0  0  0
 36 34  1  6  0  0  0
 36 35  1  0  0  0  0
 36 38  1  0  0  0  0
 38 37  1  6  0  0  0
 38 40  1  0  0  0  0
 40 39  3  0  0  0  0
 41 42  1  0  0  0  0
 42 34  1  0  0  0  0
 43 42  1  0  0  0  0
 45 46  1  0  0  0  0
 46 44  1  6  0  0  0
 46 43  1  0  0  0  0
M  END
>  <MODEL>
1

>  <REMARK>
 VINA RESULT:      -7.2      0.000      0.000
  Name = 
  18 active torsions:
  status: ('A' for Active; 'I' for Inactive)
    1  A    between atoms: C_3  and  C_7
    2  A    between atoms: C_3  and  C_16
    3  A    between atoms: C_5  and  C_42
    4  A    between atoms: C_7  and  C_12
    5  A    between atoms: C_8  and  N_26
    6  A    between atoms: C_8  and  C_37
    7  A    between atoms: C_10  and  N_23
    8  A    between atoms: C_11  and  C_18
    9  A    between atoms: C_11  and  C_45
   10  A    between atoms: C_12  and  C_17
   11  A    between atoms: C_12  and  N_26
   12  A    between atoms: C_16  and  C_45
   13  A    between atoms: C_18  and  C_34
   14  A    between atoms: C_28  and  C_44
   15  A    between atoms: C_29  and  S_39
   16  A    between atoms: C_29  and  C_40
   17  A    between atoms: C_29  and  C_46
   18  A    between atoms: S_39  and  C_43
                            x       y       z     vdW  Elec       q    Type
                         _______ _______ _______ _____ _____    ______ ____

>  <TORSDO>
F 18

$$$$
=
 OpenBabel11062413253D

 46 49  0  0  1  0  0  0  0  0999 V2000
  187.4080  177.6200  137.2240 C   0  0  2  0  0  3  0  0  0  0  0  0
  186.4090  178.2780  138.0900 N   0  0  0  0  0  2  0  0  0  0  0  0
  186.1130  176.9500  137.3900 C   0  0  1  0  0  3  0  0  0  0  0  0
  185.4810  177.0960  136.0330 C   0  0  1  0  0  3  0  0  0  0  0  0
  186.2930  174.6770  135.6010 C   0  0  0  0  0  2  0  0  0  0  0  0
  186.1140  175.9700  135.1740 C   0  0  0  0  0  3  0  0  0  0  0  0
  183.6450  177.0010  135.9990 S   0  0  0  0  0  0  0  0  0  0  0  0
  179.9960  174.8660  138.1040 C   0  0  0  0  0  2  0  0  0  0  0  0
  182.3020  174.2060  137.1600 C   0  0  2  0  0  3  0  0  0  0  0  0
  183.2160  173.3460  136.7340 N   0  0  0  0  0  2  0  0  0  0  0  0
  180.2910  176.2080  137.6710 N   0  0  0  0  0  2  0  0  0  0  0  0
  181.6500  176.5140  138.0220 C   0  0  1  0  0  3  0  0  0  0  0  0
  180.7890  173.8250  137.2510 C   0  0  1  0  0  3  0  0  0  0  0  0
  180.4340  172.5830  137.8860 N   0  0  0  0  0  1  0  0  0  0  0  0
  182.6500  175.7410  137.1670 C   0  0  2  0  0  3  0  0  0  0  0  0
  181.0980  178.9530  137.6600 C   0  0  0  0  0  3  0  0  0  0  0  0
  181.3710  180.2360  137.8020 C   0  0  0  0  0  3  0  0  0  0  0  0
  182.5280  180.7090  138.5930 C   0  0  0  0  0  2  0  0  0  0  0  0
  183.3490  179.6060  139.1660 C   0  0  0  0  0  0  0  0  0  0  0  0
  182.9920  178.2770  138.9330 N   0  0  0  0  0  0  0  0  0  0  0  0
  184.4220  179.8780  139.8660 O   0  0  0  0  0  0  0  0  0  0  0  0
  181.8880  177.9280  138.2650 C   0  0  0  0  0  0  0  0  0  0  0  0
  182.9870  171.9970  136.8240 C   0  0  0  0  0  3  0  0  0  0  0  0
  182.7510  171.2630  135.8040 O   0  0  0  0  0  0  0  0  0  0  0  0
  188.4440  176.7410  137.9330 C   0  0  0  0  0  2  0  0  0  0  0  0
  189.6670  177.5920  138.3380 C   0  0  2  0  0  0  0  0  0  0  0  0
  189.5510  178.9040  138.0030 F   0  0  0  0  0  0  0  0  0  0  0  0
  190.8510  176.8630  137.6210 C   0  0  0  0  0  1  0  0  0  0  0  0
  191.2480  177.1600  140.2230 C   0  0  0  0  0  1  0  0  0  0  0  0
  189.8670  177.6820  139.8500 C   0  0  2  0  0  3  0  0  0  0  0  0
  188.7770  177.2300  140.8590 C   0  0  0  0  0  2  0  0  0  0  0  0
  189.4740  176.6820  142.0930 C   0  0  0  0  0  2  0  0  0  0  0  0
  188.4000  176.2310  143.1290 C   0  0  0  0  0  2  0  0  0  0  0  0
  188.2270  177.2230  144.2910 C   0  0  1  0  0  3  0  0  0  0  0  0
  190.6870  178.6820  145.0920 C   0  0  0  0  0  2  0  0  0  0  0  0
  189.5530  177.9450  144.3990 C   0  0  1  0  0  3  0  0  0  0  0  0
  189.3740  178.0710  146.9130 O   0  0  0  0  0  1  0  0  0  0  0  0
  190.0440  177.5310  145.8130 C   0  0  2  0  0  0  0  0  0  0  0  0
  192.0320  175.9860  146.3900 N   0  0  0  0  0  0  0  0  0  0  0  0
  191.1790  176.6720  146.1270 C   0  0  0  0  0  0  0  0  0  0  0  0
  186.1260  177.8820  143.0730 C   0  0  0  0  0  1  0  0  0  0  0  0
  187.0470  178.1330  144.2030 N   0  0  0  0  0  0  0  0  0  0  0  0
  186.2020  177.8140  145.3600 C   0  0  0  0  0  2  0  0  0  0  0  0
  183.8730  178.8620  145.4860 C   0  0  0  0  0  1  0  0  0  0  0  0
  185.5900  179.3020  147.0640 O   0  0  0  0  0  1  0  0  0  0  0  0
  185.3550  179.0020  145.7400 C   0  0  1  0  0  3  0  0  0  0  0  0
  1  3  1  0  0  0  0
  1 25  1  1  0  0  0
  1  2  1  0  0  0  0
  3  4  1  6  0  0  0
  3  2  1  0  0  0  0
  4  6  1  6  0  0  0
  6  5  2  0  0  0  0
  7  4  1  0  0  0  0
  9 10  1  6  0  0  0
  9 15  1  0  0  0  0
  9 13  1  0  0  0  0
 10 23  1  0  0  0  0
 11 12  1  0  0  0  0
 11  8  1  0  0  0  0
 12 22  1  6  0  0  0
 13 14  1  1  0  0  0
 13  8  1  0  0  0  0
 15  7  1  6  0  0  0
 15 12  1  0  0  0  0
 16 17  2  0  0  0  0
 16 22  1  0  0  0  0
 17 18  1  0  0  0  0
 18 19  1  0  0  0  0
 19 21  2  0  0  0  0
 20 19  1  0  0  0  0
 22 20  2  0  0  0  0
 24 23  2  0  0  0  0
 25 26  1  0  0  0  0
 26 28  1  6  0  0  0
 26 30  1  0  0  0  0
 27 26  1  0  0  0  0
 30 29  1  1  0  0  0
 30 31  1  0  0  0  0
 31 32  1  0  0  0  0
 32 33  1  0  0  0  0
 34 33  1  6  0  0  0
 35 38  1  0  0  0  0
 36 34  1  1  0  0  0
 36 35  1  0  0  0  0
 36 38  1  0  0  0  0
 38 40  1  0  0  0  0
 38 37  1  1  0  0  0
 40 39  3  0  0  0  0
 41 42  1  0  0  0  0
 42 34  1  0  0  0  0
 42 43  1  0  0  0  0
 43 46  1  0  0  0  0
 46 44  1  1  0  0  0
 46 45  1  0  0  0  0
M  END
>  <MODEL>
2

>  <REMARK>
 VINA RESULT:      -7.0      2.871      5.272
  Name = 
  18 active torsions:
  status: ('A' for Active; 'I' for Inactive)
    1  A    between atoms: C_3  and  C_7
    2  A    between atoms: C_3  and  C_16
    3  A    between atoms: C_5  and  C_42
    4  A    between atoms: C_7  and  C_12
    5  A    between atoms: C_8  and  N_26
    6  A    between atoms: C_8  and  C_37
    7  A    between atoms: C_10  and  N_23
    8  A    between atoms: C_11  and  C_18
    9  A    between atoms: C_11  and  C_45
   10  A    between atoms: C_12  and  C_17
   11  A    between atoms: C_12  and  N_26
   12  A    between atoms: C_16  and  C_45
   13  A    between atoms: C_18  and  C_34
   14  A    between atoms: C_28  and  C_44
   15  A    between atoms: C_29  and  S_39
   16  A    between atoms: C_29  and  C_40
   17  A    between atoms: C_29  and  C_46
   18  A    between atoms: S_39  and  C_43
                            x       y       z     vdW  Elec       q    Type
                         _______ _______ _______ _____ _____    ______ ____

>  <TORSDO>
F 18

$$$$
=
 OpenBabel11062413253D

 46 49  0  0  1  0  0  0  0  0999 V2000
  182.4430  179.4400  143.0910 C   0  0  2  0  0  3  0  0  0  0  0  0
  180.9860  179.6790  143.0890 N   0  0  0  0  0  2  0  0  0  0  0  0
  181.6400  178.6990  142.1110 C   0  0  1  0  0  3  0  0  0  0  0  0
  182.0490  179.3160  140.8020 C   0  0  1  0  0  3  0  0  0  0  0  0
  183.4090  177.1950  140.2100 C   0  0  0  0  0  2  0  0  0  0  0  0
  183.3360  178.5550  140.3870 C   0  0  0  0  0  3  0  0  0  0  0  0
  180.7850  179.2550  139.4680 S   0  0  0  0  0  0  0  0  0  0  0  0
  180.1150  180.4920  134.9590 C   0  0  0  0  0  2  0  0  0  0  0  0
  180.8380  181.6260  137.1580 C   0  0  2  0  0  3  0  0  0  0  0  0
  181.0840  182.6690  137.9390 N   0  0  0  0  0  2  0  0  0  0  0  0
  179.9650  179.2810  135.7260 N   0  0  0  0  0  2  0  0  0  0  0  0
  181.0950  179.1520  136.6030 C   0  0  1  0  0  3  0  0  0  0  0  0
  179.9530  181.7470  135.8750 C   0  0  1  0  0  3  0  0  0  0  0  0
  180.2220  182.8240  134.9580 N   0  0  0  0  0  1  0  0  0  0  0  0
  181.0630  180.1790  137.7330 C   0  0  2  0  0  3  0  0  0  0  0  0
  182.7080  177.2080  136.6200 C   0  0  0  0  0  3  0  0  0  0  0  0
  182.9860  175.9340  136.8220 C   0  0  0  0  0  3  0  0  0  0  0  0
  181.9870  174.9920  137.3720 C   0  0  0  0  0  2  0  0  0  0  0  0
  180.6590  175.6150  137.6320 C   0  0  0  0  0  0  0  0  0  0  0  0
  180.4580  176.9690  137.3550 N   0  0  0  0  0  0  0  0  0  0  0  0
  179.6700  174.8910  138.0930 O   0  0  0  0  0  0  0  0  0  0  0  0
  181.4330  177.7750  136.9240 C   0  0  0  0  0  0  0  0  0  0  0  0
  181.0100  183.9410  137.4330 C   0  0  0  0  0  3  0  0  0  0  0  0
  182.0420  184.6640  137.2160 O   0  0  0  0  0  0  0  0  0  0  0  0
  182.9590  178.4070  144.0980 C   0  0  0  0  0  2  0  0  0  0  0  0
  184.3240  178.8580  144.6610 C   0  0  2  0  0  0  0  0  0  0  0  0
  184.4260  178.7240  146.0090 F   0  0  0  0  0  0  0  0  0  0  0  0
  184.4340  180.3380  144.1650 C   0  0  0  0  0  1  0  0  0  0  0  0
  186.5830  177.9620  145.2410 C   0  0  0  0  0  1  0  0  0  0  0  0
  185.4900  177.9950  144.1810 C   0  0  2  0  0  3  0  0  0  0  0  0
  186.0680  178.1070  142.7440 C   0  0  0  0  0  2  0  0  0  0  0  0
  187.4600  177.4970  142.7470 C   0  0  0  0  0  2  0  0  0  0  0  0
  188.3870  178.3340  141.8150 C   0  0  0  0  0  2  0  0  0  0  0  0
  189.1400  177.4770  140.7830 C   0  0  1  0  0  3  0  0  0  0  0  0
  189.1240  178.5980  138.0330 C   0  0  0  0  0  2  0  0  0  0  0  0
  189.1860  178.3180  139.5250 C   0  0  1  0  0  3  0  0  0  0  0  0
  188.5170  176.3530  138.0900 O   0  0  0  0  0  1  0  0  0  0  0  0
  188.1590  177.5990  138.6080 C   0  0  2  0  0  0  0  0  0  0  0  0
  185.8700  178.4890  137.8050 N   0  0  0  0  0  0  0  0  0  0  0  0
  186.8660  178.1120  138.1730 C   0  0  0  0  0  0  0  0  0  0  0  0
  191.6120  177.3100  140.3370 C   0  0  0  0  0  1  0  0  0  0  0  0
  190.4730  176.9580  141.2130 N   0  0  0  0  0  0  0  0  0  0  0  0
  190.8070  177.6750  142.4490 C   0  0  0  0  0  2  0  0  0  0  0  0
  191.5400  177.2440  144.8600 C   0  0  0  0  0  1  0  0  0  0  0  0
  190.8370  175.5260  143.3830 O   0  0  0  0  0  1  0  0  0  0  0  0
  191.4710  176.7480  143.4360 C   0  0  1  0  0  3  0  0  0  0  0  0
  1 25  1  1  0  0  0
  2  1  1  0  0  0  0
  3  4  1  6  0  0  0
  3  2  1  0  0  0  0
  3  1  1  0  0  0  0
  4  6  1  6  0  0  0
  5  6  2  0  0  0  0
  7  4  1  0  0  0  0
  8 11  1  0  0  0  0
  8 13  1  0  0  0  0
  9 15  1  0  0  0  0
  9 10  1  1  0  0  0
 11 12  1  0  0  0  0
 12 22  1  1  0  0  0
 12 15  1  0  0  0  0
 13 14  1  6  0  0  0
 13  9  1  0  0  0  0
 15  7  1  1  0  0  0
 16 17  2  0  0  0  0
 16 22  1  0  0  0  0
 17 18  1  0  0  0  0
 18 19  1  0  0  0  0
 19 21  2  0  0  0  0
 20 19  1  0  0  0  0
 22 20  2  0  0  0  0
 23 10  1  0  0  0  0
 24 23  2  0  0  0  0
 25 26  1  0  0  0  0
 26 28  1  6  0  0  0
 26 27  1  0  0  0  0
 30 26  1  0  0  0  0
 30 29  1  1  0  0  0
 31 32  1  0  0  0  0
 31 30  1  0  0  0  0
 33 32  1  0  0  0  0
 34 42  1  0  0  0  0
 34 33  1  1  0  0  0
 35 38  1  0  0  0  0
 35 36  1  0  0  0  0
 36 34  1  6  0  0  0
 38 37  1  6  0  0  0
 38 36  1  0  0  0  0
 39 40  3  0  0  0  0
 40 38  1  0  0  0  0
 41 42  1  0  0  0  0
 42 43  1  0  0  0  0
 43 46  1  0  0  0  0
 45 46  1  0  0  0  0
 46 44  1  1  0  0  0
M  END
>  <MODEL>
3

>  <REMARK>
 VINA RESULT:      -7.0      1.773      5.375
  Name = 
  18 active torsions:
  status: ('A' for Active; 'I' for Inactive)
    1  A    between atoms: C_3  and  C_7
    2  A    between atoms: C_3  and  C_16
    3  A    between atoms: C_5  and  C_42
    4  A    between atoms: C_7  and  C_12
    5  A    between atoms: C_8  and  N_26
    6  A    between atoms: C_8  and  C_37
    7  A    between atoms: C_10  and  N_23
    8  A    between atoms: C_11  and  C_18
    9  A    between atoms: C_11  and  C_45
   10  A    between atoms: C_12  and  C_17
   11  A    between atoms: C_12  and  N_26
   12  A    between atoms: C_16  and  C_45
   13  A    between atoms: C_18  and  C_34
   14  A    between atoms: C_28  and  C_44
   15  A    between atoms: C_29  and  S_39
   16  A    between atoms: C_29  and  C_40
   17  A    between atoms: C_29  and  C_46
   18  A    between atoms: S_39  and  C_43
                            x       y       z     vdW  Elec       q    Type
                         _______ _______ _______ _____ _____    ______ ____

>  <TORSDO>
F 18

$$$$
=
 OpenBabel11062413253D

 46 49  0  0  1  0  0  0  0  0999 V2000
  182.3990  179.3760  143.2880 C   0  0  2  0  0  3  0  0  0  0  0  0
  180.9320  179.5090  143.1830 N   0  0  0  0  0  2  0  0  0  0  0  0
  181.7200  178.5690  142.2680 C   0  0  1  0  0  3  0  0  0  0  0  0
  182.1730  179.1990  140.9800 C   0  0  1  0  0  3  0  0  0  0  0  0
  184.5970  178.9730  140.1000 C   0  0  0  0  0  2  0  0  0  0  0  0
  183.4390  178.4020  140.5690 C   0  0  0  0  0  3  0  0  0  0  0  0
  180.9310  179.2130  139.6240 S   0  0  0  0  0  0  0  0  0  0  0  0
  180.6300  180.1900  135.0140 C   0  0  0  0  0  2  0  0  0  0  0  0
  181.0240  181.4780  137.2110 C   0  0  2  0  0  3  0  0  0  0  0  0
  181.1010  182.5710  137.9580 N   0  0  0  0  0  2  0  0  0  0  0  0
  180.5030  179.0050  135.8230 N   0  0  0  0  0  2  0  0  0  0  0  0
  181.5430  179.0140  136.8140 C   0  0  1  0  0  3  0  0  0  0  0  0
  180.2700  181.4650  135.8420 C   0  0  1  0  0  3  0  0  0  0  0  0
  180.5420  182.5210  134.9030 N   0  0  0  0  0  1  0  0  0  0  0  0
  181.3090  180.0820  137.8800 C   0  0  2  0  0  3  0  0  0  0  0  0
  181.0810  176.7870  137.9140 C   0  0  0  0  0  3  0  0  0  0  0  0
  181.4830  175.6210  138.3840 C   0  0  0  0  0  3  0  0  0  0  0  0
  182.8830  175.1640  138.2540 C   0  0  0  0  0  2  0  0  0  0  0  0
  183.7740  176.1530  137.5840 C   0  0  0  0  0  0  0  0  0  0  0  0
  183.2570  177.3750  137.1480 N   0  0  0  0  0  0  0  0  0  0  0  0
  185.0480  175.8930  137.4280 O   0  0  0  0  0  0  0  0  0  0  0  0
  181.9600  177.6870  137.2380 C   0  0  0  0  0  0  0  0  0  0  0  0
  180.9730  183.8090  137.3820 C   0  0  0  0  0  3  0  0  0  0  0  0
  181.9680  184.5850  137.1780 O   0  0  0  0  0  0  0  0  0  0  0  0
  182.9160  178.3950  144.3440 C   0  0  0  0  0  2  0  0  0  0  0  0
  184.2750  178.8810  144.8940 C   0  0  2  0  0  0  0  0  0  0  0  0
  184.3100  178.9750  146.2490 F   0  0  0  0  0  0  0  0  0  0  0  0
  184.4760  180.2500  144.1640 C   0  0  0  0  0  1  0  0  0  0  0  0
  186.6100  178.2430  145.5140 C   0  0  0  0  0  1  0  0  0  0  0  0
  185.4190  177.9050  144.6260 C   0  0  2  0  0  3  0  0  0  0  0  0
  185.8530  177.5100  143.1880 C   0  0  0  0  0  2  0  0  0  0  0  0
  187.2120  178.1340  142.9170 C   0  0  0  0  0  2  0  0  0  0  0  0
  188.2670  177.0010  142.7340 C   0  0  0  0  0  2  0  0  0  0  0  0
  189.7130  177.5240  142.6850 C   0  0  1  0  0  3  0  0  0  0  0  0
  191.6660  175.9360  144.2610 C   0  0  0  0  0  2  0  0  0  0  0  0
  190.5400  176.4720  143.3930 C   0  0  1  0  0  3  0  0  0  0  0  0
  191.9500  178.2300  144.5290 O   0  0  0  0  0  1  0  0  0  0  0  0
  190.9990  177.2170  144.6760 C   0  0  2  0  0  0  0  0  0  0  0  0
  190.2940  176.7000  147.1060 N   0  0  0  0  0  0  0  0  0  0  0  0
  190.5840  176.9380  146.0440 C   0  0  0  0  0  0  0  0  0  0  0  0
  191.6040  177.4420  141.0270 C   0  0  0  0  0  1  0  0  0  0  0  0
  190.2280  177.8920  141.3330 N   0  0  0  0  0  0  0  0  0  0  0  0
  189.4340  177.1180  140.3710 C   0  0  0  0  0  2  0  0  0  0  0  0
  189.3670  176.8900  137.8260 C   0  0  0  0  0  1  0  0  0  0  0  0
  188.3610  178.6880  139.0030 O   0  0  0  0  0  1  0  0  0  0  0  0
  189.4160  177.8020  139.0280 C   0  0  1  0  0  3  0  0  0  0  0  0
  1 25  1  1  0  0  0
  2  1  1  0  0  0  0
  3  4  1  6  0  0  0
  3  2  1  0  0  0  0
  3  1  1  0  0  0  0
  4  6  1  6  0  0  0
  5  6  2  0  0  0  0
  7  4  1  0  0  0  0
  8 11  1  0  0  0  0
  8 13  1  0  0  0  0
  9 15  1  0  0  0  0
  9 10  1  1  0  0  0
 11 12  1  0  0  0  0
 12 22  1  1  0  0  0
 12 15  1  0  0  0  0
 13 14  1  6  0  0  0
 13  9  1  0  0  0  0
 15  7  1  6  0  0  0
 16 17  2  0  0  0  0
 18 17  1  0  0  0  0
 19 18  1  0  0  0  0
 20 22  2  0  0  0  0
 20 19  1  0  0  0  0
 21 19  2  0  0  0  0
 22 16  1  0  0  0  0
 23 10  1  0  0  0  0
 24 23  2  0  0  0  0
 25 26  1  0  0  0  0
 26 28  1  6  0  0  0
 26 27  1  0  0  0  0
 30 26  1  0  0  0  0
 30 29  1  6  0  0  0
 31 30  1  0  0  0  0
 32 31  1  0  0  0  0
 33 32  1  0  0  0  0
 34 33  1  6  0  0  0
 35 38  1  0  0  0  0
 36 34  1  6  0  0  0
 36 35  1  0  0  0  0
 36 38  1  0  0  0  0
 38 37  1  6  0  0  0
 38 40  1  0  0  0  0
 40 39  3  0  0  0  0
 41 42  1  0  0  0  0
 42 34  1  0  0  0  0
 43 42  1  0  0  0  0
 45 46  1  0  0  0  0
 46 44  1  6  0  0  0
 46 43  1  0  0  0  0
M  END
>  <MODEL>
4

>  <REMARK>
 VINA RESULT:      -6.9      1.718      4.181
  Name = 
  18 active torsions:
  status: ('A' for Active; 'I' for Inactive)
    1  A    between atoms: C_3  and  C_7
    2  A    between atoms: C_3  and  C_16
    3  A    between atoms: C_5  and  C_42
    4  A    between atoms: C_7  and  C_12
    5  A    between atoms: C_8  and  N_26
    6  A    between atoms: C_8  and  C_37
    7  A    between atoms: C_10  and  N_23
    8  A    between atoms: C_11  and  C_18
    9  A    between atoms: C_11  and  C_45
   10  A    between atoms: C_12  and  C_17
   11  A    between atoms: C_12  and  N_26
   12  A    between atoms: C_16  and  C_45
   13  A    between atoms: C_18  and  C_34
   14  A    between atoms: C_28  and  C_44
   15  A    between atoms: C_29  and  S_39
   16  A    between atoms: C_29  and  C_40
   17  A    between atoms: C_29  and  C_46
   18  A    between atoms: S_39  and  C_43
                            x       y       z     vdW  Elec       q    Type
                         _______ _______ _______ _____ _____    ______ ____

>  <TORSDO>
F 18

$$$$
=
 OpenBabel11062413253D

 46 49  0  0  1  0  0  0  0  0999 V2000
  187.4610  177.6620  137.7200 C   0  0  2  0  0  3  0  0  0  0  0  0
  186.4520  178.6170  138.2200 N   0  0  0  0  0  2  0  0  0  0  0  0
  186.0750  177.1900  137.8160 C   0  0  1  0  0  3  0  0  0  0  0  0
  185.6660  177.0460  136.3760 C   0  0  1  0  0  3  0  0  0  0  0  0
  186.0680  174.8780  135.0180 C   0  0  0  0  0  2  0  0  0  0  0  0
  186.5370  175.8840  135.8280 C   0  0  0  0  0  3  0  0  0  0  0  0
  183.8780  176.7240  136.0870 S   0  0  0  0  0  0  0  0  0  0  0  0
  180.2000  174.4130  137.9400 C   0  0  0  0  0  2  0  0  0  0  0  0
  182.6010  173.8710  137.1760 C   0  0  2  0  0  3  0  0  0  0  0  0
  183.5890  173.0570  136.8280 N   0  0  0  0  0  2  0  0  0  0  0  0
  180.4560  175.7660  137.5150 N   0  0  0  0  0  2  0  0  0  0  0  0
  181.7660  176.1460  137.9630 C   0  0  1  0  0  3  0  0  0  0  0  0
  181.1080  173.4100  137.1590 C   0  0  1  0  0  3  0  0  0  0  0  0
  180.7730  172.1550  137.7800 N   0  0  0  0  0  1  0  0  0  0  0  0
  182.8670  175.4220  137.1930 C   0  0  2  0  0  3  0  0  0  0  0  0
  181.2270  178.5560  137.4290 C   0  0  0  0  0  3  0  0  0  0  0  0
  181.4290  179.8510  137.5850 C   0  0  0  0  0  3  0  0  0  0  0  0
  182.3930  180.3810  138.5740 C   0  0  0  0  0  2  0  0  0  0  0  0
  183.1160  179.3190  139.3290 C   0  0  0  0  0  0  0  0  0  0  0  0
  182.8510  177.9740  139.0680 N   0  0  0  0  0  0  0  0  0  0  0  0
  184.0220  179.6430  140.2180 O   0  0  0  0  0  0  0  0  0  0  0  0
  181.9110  177.5730  138.2070 C   0  0  0  0  0  0  0  0  0  0  0  0
  183.4260  171.6980  136.9160 C   0  0  0  0  0  3  0  0  0  0  0  0
  183.3360  170.9420  135.8890 O   0  0  0  0  0  0  0  0  0  0  0  0
  188.2540  176.8970  138.7830 C   0  0  0  0  0  2  0  0  0  0  0  0
  189.4780  177.7270  139.2260 C   0  0  2  0  0  0  0  0  0  0  0  0
  189.3440  179.0590  138.9930 F   0  0  0  0  0  0  0  0  0  0  0  0
  190.6530  177.0660  138.4330 C   0  0  0  0  0  1  0  0  0  0  0  0
  190.8710  176.7790  141.0710 C   0  0  0  0  0  1  0  0  0  0  0  0
  189.7090  177.7050  140.7360 C   0  0  2  0  0  3  0  0  0  0  0  0
  188.5410  177.5720  141.7510 C   0  0  0  0  0  2  0  0  0  0  0  0
  189.0770  177.9110  143.1320 C   0  0  0  0  0  2  0  0  0  0  0  0
  188.2540  177.1340  144.2050 C   0  0  0  0  0  2  0  0  0  0  0  0
  187.9160  177.9860  145.4400 C   0  0  1  0  0  3  0  0  0  0  0  0
  185.1510  177.6710  146.4780 C   0  0  0  0  0  2  0  0  0  0  0  0
  186.5360  177.5330  145.8690 C   0  0  1  0  0  3  0  0  0  0  0  0
  185.8950  179.8730  146.5630 O   0  0  0  0  0  1  0  0  0  0  0  0
  185.6880  178.8180  145.6710 C   0  0  2  0  0  0  0  0  0  0  0  0
  183.8520  179.1680  143.8880 N   0  0  0  0  0  0  0  0  0  0  0  0
  184.6420  179.0310  144.6770 C   0  0  0  0  0  0  0  0  0  0  0  0
  188.3840  177.8230  147.9080 C   0  0  0  0  0  1  0  0  0  0  0  0
  188.9270  177.9730  146.5390 N   0  0  0  0  0  0  0  0  0  0  0  0
  189.6880  176.7290  146.3760 C   0  0  0  0  0  2  0  0  0  0  0  0
  191.9210  175.7530  147.1470 C   0  0  0  0  0  1  0  0  0  0  0  0
  191.7400  177.4970  145.5480 O   0  0  0  0  0  1  0  0  0  0  0  0
  191.1480  176.9600  146.6690 C   0  0  1  0  0  3  0  0  0  0  0  0
  1  3  1  0  0  0  0
  1  2  1  0  0  0  0
  1 25  1  1  0  0  0
  3  4  1  6  0  0  0
  3  2  1  0  0  0  0
  4  6  1  1  0  0  0
  5  6  2  0  0  0  0
  7  4  1  0  0  0  0
  9 10  1  6  0  0  0
  9 15  1  0  0  0  0
 10 23  1  0  0  0  0
 11  8  1  0  0  0  0
 11 12  1  0  0  0  0
 12 22  1  6  0  0  0
 13  9  1  0  0  0  0
 13 14  1  1  0  0  0
 13  8  1  0  0  0  0
 15  7  1  6  0  0  0
 15 12  1  0  0  0  0
 16 17  2  0  0  0  0
 16 22  1  0  0  0  0
 17 18  1  0  0  0  0
 18 19  1  0  0  0  0
 19 21  2  0  0  0  0
 20 19  1  0  0  0  0
 22 20  2  0  0  0  0
 24 23  2  0  0  0  0
 25 26  1  0  0  0  0
 26 28  1  6  0  0  0
 26 30  1  0  0  0  0
 27 26  1  0  0  0  0
 30 29  1  6  0  0  0
 30 31  1  0  0  0  0
 31 32  1  0  0  0  0
 32 33  1  0  0  0  0
 34 33  1  6  0  0  0
 34 42  1  0  0  0  0
 36 34  1  1  0  0  0
 36 35  1  0  0  0  0
 38 36  1  0  0  0  0
 38 35  1  0  0  0  0
 38 37  1  1  0  0  0
 39 40  3  0  0  0  0
 40 38  1  0  0  0  0
 42 41  1  0  0  0  0
 43 42  1  0  0  0  0
 43 46  1  0  0  0  0
 45 46  1  0  0  0  0
 46 44  1  6  0  0  0
M  END
>  <MODEL>
5

>  <REMARK>
 VINA RESULT:      -6.8      2.847      5.749
  Name = 
  18 active torsions:
  status: ('A' for Active; 'I' for Inactive)
    1  A    between atoms: C_3  and  C_7
    2  A    between atoms: C_3  and  C_16
    3  A    between atoms: C_5  and  C_42
    4  A    between atoms: C_7  and  C_12
    5  A    between atoms: C_8  and  N_26
    6  A    between atoms: C_8  and  C_37
    7  A    between atoms: C_10  and  N_23
    8  A    between atoms: C_11  and  C_18
    9  A    between atoms: C_11  and  C_45
   10  A    between atoms: C_12  and  C_17
   11  A    between atoms: C_12  and  N_26
   12  A    between atoms: C_16  and  C_45
   13  A    between atoms: C_18  and  C_34
   14  A    between atoms: C_28  and  C_44
   15  A    between atoms: C_29  and  S_39
   16  A    between atoms: C_29  and  C_40
   17  A    between atoms: C_29  and  C_46
   18  A    between atoms: S_39  and  C_43
                            x       y       z     vdW  Elec       q    Type
                         _______ _______ _______ _____ _____    ______ ____

>  <TORSDO>
F 18

$$$$
=
 OpenBabel11062413253D

 46 49  0  0  1  0  0  0  0  0999 V2000
  183.9870  178.5080  140.8060 C   0  0  2  0  0  3  0  0  0  0  0  0
  183.9750  179.2940  139.5560 N   0  0  0  0  0  2  0  0  0  0  0  0
  182.7500  178.5000  140.0160 C   0  0  1  0  0  3  0  0  0  0  0  0
  182.6950  177.0920  139.4880 C   0  0  1  0  0  3  0  0  0  0  0  0
  180.8540  175.2900  139.7350 C   0  0  0  0  0  2  0  0  0  0  0  0
  181.2600  176.6000  139.8140 C   0  0  0  0  0  3  0  0  0  0  0  0
  183.0690  176.9020  137.6980 S   0  0  0  0  0  0  0  0  0  0  0  0
  185.2810  172.7750  137.0860 C   0  0  0  0  0  2  0  0  0  0  0  0
  182.8830  173.6980  136.8850 C   0  0  2  0  0  3  0  0  0  0  0  0
  181.5660  173.5880  136.7800 N   0  0  0  0  0  2  0  0  0  0  0  0
  185.6690  174.0960  137.5120 N   0  0  0  0  0  2  0  0  0  0  0  0
  185.0270  175.0580  136.6610 C   0  0  1  0  0  3  0  0  0  0  0  0
  183.7710  172.5180  137.3950 C   0  0  1  0  0  3  0  0  0  0  0  0
  183.5660  171.2120  136.8240 N   0  0  0  0  0  1  0  0  0  0  0  0
  183.5240  175.1360  136.9160 C   0  0  2  0  0  3  0  0  0  0  0  0
  186.1080  176.8410  135.2340 C   0  0  0  0  0  3  0  0  0  0  0  0
  186.8660  177.9130  135.0960 C   0  0  0  0  0  3  0  0  0  0  0  0
  187.4340  178.6270  136.2590 C   0  0  0  0  0  2  0  0  0  0  0  0
  187.0960  178.0000  137.5680 C   0  0  0  0  0  0  0  0  0  0  0  0
  186.3100  176.8460  137.6060 N   0  0  0  0  0  0  0  0  0  0  0  0
  187.5570  178.5100  138.6820 O   0  0  0  0  0  0  0  0  0  0  0  0
  185.7720  176.2980  136.5120 C   0  0  0  0  0  0  0  0  0  0  0  0
  180.9870  172.3540  136.6340 C   0  0  0  0  0  3  0  0  0  0  0  0
  180.2190  171.8390  137.5160 O   0  0  0  0  0  0  0  0  0  0  0  0
  183.6730  179.2780  142.0930 C   0  0  0  0  0  2  0  0  0  0  0  0
  184.9030  179.2660  143.0260 C   0  0  2  0  0  0  0  0  0  0  0  0
  185.2490  180.4970  143.4850 F   0  0  0  0  0  0  0  0  0  0  0  0
  186.0050  178.5920  142.1420 C   0  0  0  0  0  1  0  0  0  0  0  0
  183.2010  178.6290  144.7410 C   0  0  0  0  0  1  0  0  0  0  0  0
  184.6630  178.5110  144.3330 C   0  0  2  0  0  3  0  0  0  0  0  0
  185.6230  178.6320  145.5480 C   0  0  0  0  0  2  0  0  0  0  0  0
  186.7570  177.6400  145.3530 C   0  0  0  0  0  2  0  0  0  0  0  0
  187.8490  177.8920  146.4380 C   0  0  0  0  0  2  0  0  0  0  0  0
  189.2640  177.5110  145.9700 C   0  0  1  0  0  3  0  0  0  0  0  0
  190.3150  178.9520  143.5950 C   0  0  0  0  0  2  0  0  0  0  0  0
  189.5630  178.4390  144.8110 C   0  0  1  0  0  3  0  0  0  0  0  0
  191.4170  176.9410  143.9830 O   0  0  0  0  0  1  0  0  0  0  0  0
  190.1450  177.4670  143.7490 C   0  0  2  0  0  0  0  0  0  0  0  0
  189.0520  176.7450  141.5220 N   0  0  0  0  0  0  0  0  0  0  0  0
  189.5270  177.0810  142.4870 C   0  0  0  0  0  0  0  0  0  0  0  0
  189.8790  177.9080  148.3780 C   0  0  0  0  0  1  0  0  0  0  0  0
  190.3200  177.5010  147.0260 N   0  0  0  0  0  0  0  0  0  0  0  0
  190.6720  176.0910  147.2320 C   0  0  0  0  0  2  0  0  0  0  0  0
  192.8560  175.6390  148.4820 C   0  0  0  0  0  1  0  0  0  0  0  0
  192.4420  174.8960  146.2670 O   0  0  0  0  0  1  0  0  0  0  0  0
  192.1660  175.9040  147.1650 C   0  0  1  0  0  3  0  0  0  0  0  0
  1 25  1  1  0  0  0
  2  3  1  0  0  0  0
  2  1  1  0  0  0  0
  3  4  1  6  0  0  0
  3  1  1  0  0  0  0
  4  6  1  6  0  0  0
  5  6  2  0  0  0  0
  7  4  1  0  0  0  0
  8 13  1  0  0  0  0
  8 11  1  0  0  0  0
  9 10  1  1  0  0  0
  9 15  1  0  0  0  0
  9 13  1  0  0  0  0
 12 22  1  1  0  0  0
 12 15  1  0  0  0  0
 12 11  1  0  0  0  0
 13 14  1  6  0  0  0
 15  7  1  1  0  0  0
 16 22  1  0  0  0  0
 17 16  2  0  0  0  0
 17 18  1  0  0  0  0
 18 19  1  0  0  0  0
 19 20  1  0  0  0  0
 19 21  2  0  0  0  0
 22 20  2  0  0  0  0
 23 10  1  0  0  0  0
 23 24  2  0  0  0  0
 25 26  1  0  0  0  0
 26 28  1  6  0  0  0
 26 27  1  0  0  0  0
 26 30  1  0  0  0  0
 30 29  1  1  0  0  0
 30 31  1  0  0  0  0
 32 31  1  0  0  0  0
 32 33  1  0  0  0  0
 34 33  1  1  0  0  0
 34 42  1  0  0  0  0
 35 38  1  0  0  0  0
 35 36  1  0  0  0  0
 36 34  1  1  0  0  0
 38 37  1  1  0  0  0
 38 36  1  0  0  0  0
 39 40  3  0  0  0  0
 40 38  1  0  0  0  0
 42 43  1  0  0  0  0
 42 41  1  0  0  0  0
 45 46  1  0  0  0  0
 46 43  1  0  0  0  0
 46 44  1  1  0  0  0
M  END
>  <MODEL>
6

>  <REMARK>
 VINA RESULT:      -6.8      2.693      5.108
  Name = 
  18 active torsions:
  status: ('A' for Active; 'I' for Inactive)
    1  A    between atoms: C_3  and  C_7
    2  A    between atoms: C_3  and  C_16
    3  A    between atoms: C_5  and  C_42
    4  A    between atoms: C_7  and  C_12
    5  A    between atoms: C_8  and  N_26
    6  A    between atoms: C_8  and  C_37
    7  A    between atoms: C_10  and  N_23
    8  A    between atoms: C_11  and  C_18
    9  A    between atoms: C_11  and  C_45
   10  A    between atoms: C_12  and  C_17
   11  A    between atoms: C_12  and  N_26
   12  A    between atoms: C_16  and  C_45
   13  A    between atoms: C_18  and  C_34
   14  A    between atoms: C_28  and  C_44
   15  A    between atoms: C_29  and  S_39
   16  A    between atoms: C_29  and  C_40
   17  A    between atoms: C_29  and  C_46
   18  A    between atoms: S_39  and  C_43
                            x       y       z     vdW  Elec       q    Type
                         _______ _______ _______ _____ _____    ______ ____

>  <TORSDO>
F 18

$$$$
=
 OpenBabel11062413253D

 46 49  0  0  1  0  0  0  0  0999 V2000
  182.5800  178.6200  143.7880 C   0  0  2  0  0  3  0  0  0  0  0  0
  183.3990  178.6130  145.0170 N   0  0  0  0  0  2  0  0  0  0  0  0
  183.9170  179.2190  143.7100 C   0  0  1  0  0  3  0  0  0  0  0  0
  184.6720  178.2520  142.8400 C   0  0  1  0  0  3  0  0  0  0  0  0
  184.6160  178.8040  140.3110 C   0  0  0  0  0  2  0  0  0  0  0  0
  185.0650  179.0710  141.5820 C   0  0  0  0  0  3  0  0  0  0  0  0
  186.1490  177.4760  143.6120 S   0  0  0  0  0  0  0  0  0  0  0  0
  190.7180  176.7270  142.6810 C   0  0  0  0  0  2  0  0  0  0  0  0
  188.6740  177.7470  141.4880 C   0  0  2  0  0  3  0  0  0  0  0  0
  188.0080  178.1970  140.4330 N   0  0  0  0  0  2  0  0  0  0  0  0
  189.8330  176.4420  143.7820 N   0  0  0  0  0  2  0  0  0  0  0  0
  189.0020  177.5910  144.0100 C   0  0  1  0  0  3  0  0  0  0  0  0
  189.9200  176.8150  141.3410 C   0  0  1  0  0  3  0  0  0  0  0  0
  190.9460  177.1880  140.4030 N   0  0  0  0  0  1  0  0  0  0  0  0
  187.9750  177.7850  142.8980 C   0  0  2  0  0  3  0  0  0  0  0  0
  189.2760  177.1470  146.4820 C   0  0  0  0  0  3  0  0  0  0  0  0
  188.8330  177.1940  147.7250 C   0  0  0  0  0  3  0  0  0  0  0  0
  187.5570  177.8540  148.0780 C   0  0  0  0  0  2  0  0  0  0  0  0
  186.8300  178.4120  146.9030 C   0  0  0  0  0  0  0  0  0  0  0  0
  187.3700  178.2830  145.6220 N   0  0  0  0  0  0  0  0  0  0  0  0
  185.6700  178.9990  147.0640 O   0  0  0  0  0  0  0  0  0  0  0  0
  188.5670  177.7340  145.3910 C   0  0  0  0  0  0  0  0  0  0  0  0
  188.6290  178.2870  139.2140 C   0  0  0  0  0  3  0  0  0  0  0  0
  188.0330  178.6960  138.1600 O   0  0  0  0  0  0  0  0  0  0  0  0
  181.5810  179.7720  143.6470 C   0  0  0  0  0  2  0  0  0  0  0  0
  180.1770  179.2140  143.3240 C   0  0  2  0  0  0  0  0  0  0  0  0
  179.1680  180.0640  143.6470 F   0  0  0  0  0  0  0  0  0  0  0  0
  180.1450  177.8690  144.1210 C   0  0  0  0  0  1  0  0  0  0  0  0
  179.6680  177.5410  141.5400 C   0  0  0  0  0  1  0  0  0  0  0  0
  179.9370  179.0120  141.8290 C   0  0  2  0  0  3  0  0  0  0  0  0
  180.8400  179.6660  140.7480 C   0  0  0  0  0  2  0  0  0  0  0  0
  180.0650  180.8130  140.1190 C   0  0  0  0  0  2  0  0  0  0  0  0
  179.5660  180.3780  138.7080 C   0  0  0  0  0  2  0  0  0  0  0  0
  180.7120  180.0740  137.7280 C   0  0  1  0  0  3  0  0  0  0  0  0
  180.7890  177.3130  136.6370 C   0  0  0  0  0  2  0  0  0  0  0  0
  180.4460  178.6690  137.2290 C   0  0  1  0  0  3  0  0  0  0  0  0
  182.9080  178.2410  136.8780 O   0  0  0  0  0  1  0  0  0  0  0  0
  181.7580  177.9290  137.6060 C   0  0  2  0  0  0  0  0  0  0  0  0
  182.0600  176.0630  139.3670 N   0  0  0  0  0  0  0  0  0  0  0  0
  181.9150  176.8870  138.6130 C   0  0  0  0  0  0  0  0  0  0  0  0
  180.5760  180.6190  135.2750 C   0  0  0  0  0  1  0  0  0  0  0  0
  180.9230  181.0740  136.6390 N   0  0  0  0  0  0  0  0  0  0  0  0
  179.9350  182.1360  136.8660 C   0  0  0  0  0  2  0  0  0  0  0  0
  181.1630  184.2400  136.0930 C   0  0  0  0  0  1  0  0  0  0  0  0
  179.7520  184.1780  138.0000 O   0  0  0  0  0  1  0  0  0  0  0  0
  180.6210  183.4240  137.2420 C   0  0  1  0  0  3  0  0  0  0  0  0
  1 25  1  1  0  0  0
  1  2  1  0  0  0  0
  3  4  1  6  0  0  0
  3  1  1  0  0  0  0
  3  2  1  0  0  0  0
  4  6  1  6  0  0  0
  4  7  1  0  0  0  0
  5  6  2  0  0  0  0
  8 11  1  0  0  0  0
  9 10  1  6  0  0  0
  9 15  1  0  0  0  0
 11 12  1  0  0  0  0
 12 22  1  1  0  0  0
 13 14  1  6  0  0  0
 13  9  1  0  0  0  0
 13  8  1  0  0  0  0
 15  7  1  6  0  0  0
 15 12  1  0  0  0  0
 16 17  2  0  0  0  0
 17 18  1  0  0  0  0
 19 21  2  0  0  0  0
 19 18  1  0  0  0  0
 20 19  1  0  0  0  0
 22 20  2  0  0  0  0
 22 16  1  0  0  0  0
 23 10  1  0  0  0  0
 24 23  2  0  0  0  0
 26 25  1  0  0  0  0
 26 27  1  0  0  0  0
 26 28  1  1  0  0  0
 30 29  1  1  0  0  0
 30 26  1  0  0  0  0
 31 30  1  0  0  0  0
 32 31  1  0  0  0  0
 33 32  1  0  0  0  0
 34 33  1  6  0  0  0
 35 36  1  0  0  0  0
 35 38  1  0  0  0  0
 36 38  1  0  0  0  0
 36 34  1  6  0  0  0
 38 37  1  6  0  0  0
 38 40  1  0  0  0  0
 40 39  3  0  0  0  0
 41 42  1  0  0  0  0
 42 43  1  0  0  0  0
 42 34  1  0  0  0  0
 43 46  1  0  0  0  0
 46 44  1  6  0  0  0
 46 45  1  0  0  0  0
M  END
>  <MODEL>
7

>  <REMARK>
 VINA RESULT:      -6.5      2.537      9.575
  Name = 
  18 active torsions:
  status: ('A' for Active; 'I' for Inactive)
    1  A    between atoms: C_3  and  C_7
    2  A    between atoms: C_3  and  C_16
    3  A    between atoms: C_5  and  C_42
    4  A    between atoms: C_7  and  C_12
    5  A    between atoms: C_8  and  N_26
    6  A    between atoms: C_8  and  C_37
    7  A    between atoms: C_10  and  N_23
    8  A    between atoms: C_11  and  C_18
    9  A    between atoms: C_11  and  C_45
   10  A    between atoms: C_12  and  C_17
   11  A    between atoms: C_12  and  N_26
   12  A    between atoms: C_16  and  C_45
   13  A    between atoms: C_18  and  C_34
   14  A    between atoms: C_28  and  C_44
   15  A    between atoms: C_29  and  S_39
   16  A    between atoms: C_29  and  C_40
   17  A    between atoms: C_29  and  C_46
   18  A    between atoms: S_39  and  C_43
                            x       y       z     vdW  Elec       q    Type
                         _______ _______ _______ _____ _____    ______ ____

>  <TORSDO>
F 18

$$$$
=
 OpenBabel11062413253D

 46 49  0  0  1  0  0  0  0  0999 V2000
  183.3190  179.0280  140.7970 C   0  0  2  0  0  3  0  0  0  0  0  0
  184.6200  179.3070  140.1570 N   0  0  0  0  0  2  0  0  0  0  0  0
  184.4840  178.2800  141.2840 C   0  0  1  0  0  3  0  0  0  0  0  0
  184.6970  178.8460  142.6610 C   0  0  1  0  0  3  0  0  0  0  0  0
  183.1020  179.0020  144.6950 C   0  0  0  0  0  2  0  0  0  0  0  0
  183.3490  178.6230  143.3970 C   0  0  0  0  0  3  0  0  0  0  0  0
  186.0950  178.1190  143.6090 S   0  0  0  0  0  0  0  0  0  0  0  0
  190.3920  176.4400  142.5980 C   0  0  0  0  0  2  0  0  0  0  0  0
  188.5750  177.8470  141.4320 C   0  0  2  0  0  3  0  0  0  0  0  0
  187.9920  178.4140  140.3850 N   0  0  0  0  0  2  0  0  0  0  0  0
  189.4920  176.3530  143.7200 N   0  0  0  0  0  2  0  0  0  0  0  0
  188.9190  177.6500  143.9490 C   0  0  1  0  0  3  0  0  0  0  0  0
  189.5990  176.6770  141.2730 C   0  0  1  0  0  3  0  0  0  0  0  0
  190.6590  176.8240  140.3100 N   0  0  0  0  0  1  0  0  0  0  0  0
  187.9300  178.0400  142.8550 C   0  0  2  0  0  3  0  0  0  0  0  0
  189.4430  177.6220  146.4210 C   0  0  0  0  0  3  0  0  0  0  0  0
  189.0820  177.7510  147.6840 C   0  0  0  0  0  3  0  0  0  0  0  0
  187.7190  178.1750  148.0700 C   0  0  0  0  0  2  0  0  0  0  0  0
  186.8130  178.4010  146.9090 C   0  0  0  0  0  0  0  0  0  0  0  0
  187.2850  178.2080  145.6090 N   0  0  0  0  0  0  0  0  0  0  0  0
  185.5670  178.7520  147.1030 O   0  0  0  0  0  0  0  0  0  0  0  0
  188.5540  177.8920  145.3360 C   0  0  0  0  0  0  0  0  0  0  0  0
  188.5900  178.3630  139.1520 C   0  0  0  0  0  3  0  0  0  0  0  0
  189.0610  179.3960  138.5650 O   0  0  0  0  0  0  0  0  0  0  0  0
  182.4190  178.0130  140.0860 C   0  0  0  0  0  2  0  0  0  0  0  0
  181.8110  178.6480  138.8170 C   0  0  2  0  0  0  0  0  0  0  0  0
  182.7060  179.3580  138.0820 F   0  0  0  0  0  0  0  0  0  0  0  0
  180.6380  179.5130  139.3870 C   0  0  0  0  0  1  0  0  0  0  0  0
  180.7550  176.4040  138.5140 C   0  0  0  0  0  1  0  0  0  0  0  0
  181.3310  177.6170  137.7960 C   0  0  2  0  0  3  0  0  0  0  0  0
  182.1810  177.2190  136.5590 C   0  0  0  0  0  2  0  0  0  0  0  0
  183.0010  175.9930  136.9250 C   0  0  0  0  0  2  0  0  0  0  0  0
  184.0440  175.7210  135.7990 C   0  0  0  0  0  2  0  0  0  0  0  0
  185.3760  175.1640  136.3310 C   0  0  1  0  0  3  0  0  0  0  0  0
  185.7660  172.2790  135.7440 C   0  0  0  0  0  2  0  0  0  0  0  0
  185.4870  173.7730  135.7450 C   0  0  1  0  0  3  0  0  0  0  0  0
  185.9880  172.7720  138.0070 O   0  0  0  0  0  1  0  0  0  0  0  0
  185.0860  172.8730  136.9460 C   0  0  2  0  0  0  0  0  0  0  0  0
  182.9260  171.4720  137.1560 N   0  0  0  0  0  0  0  0  0  0  0  0
  183.8800  172.0650  137.0670 C   0  0  0  0  0  0  0  0  0  0  0  0
  186.4100  177.4580  136.3930 C   0  0  0  0  0  1  0  0  0  0  0  0
  186.5790  176.0180  136.0990 N   0  0  0  0  0  0  0  0  0  0  0  0
  187.5620  175.6150  137.1120 C   0  0  0  0  0  2  0  0  0  0  0  0
  189.6230  174.1200  136.8870 C   0  0  0  0  0  1  0  0  0  0  0  0
  188.7660  175.4390  135.1100 O   0  0  0  0  0  1  0  0  0  0  0  0
  188.9110  175.3870  136.4790 C   0  0  1  0  0  3  0  0  0  0  0  0
  1 25  1  6  0  0  0
  1  3  1  0  0  0  0
  2  1  1  0  0  0  0
  2  3  1  0  0  0  0
  3  4  1  1  0  0  0
  4  6  1  1  0  0  0
  4  7  1  0  0  0  0
  6  5  2  0  0  0  0
  8 11  1  0  0  0  0
  9 10  1  6  0  0  0
  9 15  1  0  0  0  0
 11 12  1  0  0  0  0
 12 22  1  1  0  0  0
 13 14  1  6  0  0  0
 13  9  1  0  0  0  0
 13  8  1  0  0  0  0
 15  7  1  6  0  0  0
 15 12  1  0  0  0  0
 16 17  2  0  0  0  0
 17 18  1  0  0  0  0
 19 21  2  0  0  0  0
 19 18  1  0  0  0  0
 20 19  1  0  0  0  0
 22 20  2  0  0  0  0
 22 16  1  0  0  0  0
 23 10  1  0  0  0  0
 24 23  2  0  0  0  0
 26 28  1  1  0  0  0
 26 25  1  0  0  0  0
 27 26  1  0  0  0  0
 30 29  1  1  0  0  0
 30 26  1  0  0  0  0
 31 32  1  0  0  0  0
 31 30  1  0  0  0  0
 33 32  1  0  0  0  0
 34 33  1  6  0  0  0
 35 36  1  0  0  0  0
 35 38  1  0  0  0  0
 36 34  1  1  0  0  0
 36 38  1  0  0  0  0
 38 40  1  0  0  0  0
 38 37  1  1  0  0  0
 40 39  3  0  0  0  0
 42 34  1  0  0  0  0
 42 41  1  0  0  0  0
 42 43  1  0  0  0  0
 45 46  1  0  0  0  0
 46 44  1  6  0  0  0
 46 43  1  0  0  0  0
M  END
>  <MODEL>
8

>  <REMARK>
 VINA RESULT:      -6.5      3.258      8.836
  Name = 
  18 active torsions:
  status: ('A' for Active; 'I' for Inactive)
    1  A    between atoms: C_3  and  C_7
    2  A    between atoms: C_3  and  C_16
    3  A    between atoms: C_5  and  C_42
    4  A    between atoms: C_7  and  C_12
    5  A    between atoms: C_8  and  N_26
    6  A    between atoms: C_8  and  C_37
    7  A    between atoms: C_10  and  N_23
    8  A    between atoms: C_11  and  C_18
    9  A    between atoms: C_11  and  C_45
   10  A    between atoms: C_12  and  C_17
   11  A    between atoms: C_12  and  N_26
   12  A    between atoms: C_16  and  C_45
   13  A    between atoms: C_18  and  C_34
   14  A    between atoms: C_28  and  C_44
   15  A    between atoms: C_29  and  S_39
   16  A    between atoms: C_29  and  C_40
   17  A    between atoms: C_29  and  C_46
   18  A    between atoms: S_39  and  C_43
                            x       y       z     vdW  Elec       q    Type
                         _______ _______ _______ _____ _____    ______ ____

>  <TORSDO>
F 18

$$$$
=
 OpenBabel11062413253D

 46 49  0  0  1  0  0  0  0  0999 V2000
  183.5530  179.0400  140.9560 C   0  0  2  0  0  3  0  0  0  0  0  0
  184.2890  177.8350  140.5250 N   0  0  0  0  0  2  0  0  0  0  0  0
  183.9380  178.0780  141.9940 C   0  0  1  0  0  3  0  0  0  0  0  0
  184.9950  178.8170  142.7670 C   0  0  1  0  0  3  0  0  0  0  0  0
  183.3310  178.9930  144.7420 C   0  0  0  0  0  2  0  0  0  0  0  0
  184.2210  179.5790  143.8740 C   0  0  0  0  0  3  0  0  0  0  0  0
  186.3260  177.7740  143.4890 S   0  0  0  0  0  0  0  0  0  0  0  0
  190.8160  176.5440  142.6950 C   0  0  0  0  0  2  0  0  0  0  0  0
  188.9470  177.8270  141.4680 C   0  0  2  0  0  3  0  0  0  0  0  0
  188.3780  178.3830  140.4070 N   0  0  0  0  0  2  0  0  0  0  0  0
  189.8620  176.3250  143.7520 N   0  0  0  0  0  2  0  0  0  0  0  0
  189.1560  177.5530  143.9930 C   0  0  1  0  0  3  0  0  0  0  0  0
  190.0860  176.7640  141.3310 C   0  0  1  0  0  3  0  0  0  0  0  0
  191.1840  177.0500  140.4450 N   0  0  0  0  0  1  0  0  0  0  0  0
  188.2020  177.8970  142.8520 C   0  0  2  0  0  3  0  0  0  0  0  0
  189.3750  177.1270  146.4730 C   0  0  0  0  0  3  0  0  0  0  0  0
  188.9010  177.1770  147.7040 C   0  0  0  0  0  3  0  0  0  0  0  0
  187.6100  177.8240  148.0220 C   0  0  0  0  0  2  0  0  0  0  0  0
  186.9050  178.3670  146.8260 C   0  0  0  0  0  0  0  0  0  0  0  0
  187.4780  178.2360  145.5600 N   0  0  0  0  0  0  0  0  0  0  0  0
  185.7360  178.9420  146.9550 O   0  0  0  0  0  0  0  0  0  0  0  0
  188.6860  177.7000  145.3610 C   0  0  0  0  0  0  0  0  0  0  0  0
  189.0520  178.4410  139.2140 C   0  0  0  0  0  3  0  0  0  0  0  0
  188.6730  179.1720  138.2370 O   0  0  0  0  0  0  0  0  0  0  0  0
  182.0270  178.9750  140.8490 C   0  0  0  0  0  2  0  0  0  0  0  0
  181.5770  179.4390  139.4460 C   0  0  2  0  0  0  0  0  0  0  0  0
  182.4570  180.2810  138.8450 F   0  0  0  0  0  0  0  0  0  0  0  0
  180.1790  180.0840  139.7240 C   0  0  0  0  0  1  0  0  0  0  0  0
  181.1480  178.8540  137.0550 C   0  0  0  0  0  1  0  0  0  0  0  0
  181.5020  178.3010  138.4290 C   0  0  2  0  0  3  0  0  0  0  0  0
  180.7690  176.9660  138.7320 C   0  0  0  0  0  2  0  0  0  0  0  0
  181.8070  175.8580  138.7800 C   0  0  0  0  0  2  0  0  0  0  0  0
  181.9740  175.2520  137.3530 C   0  0  0  0  0  2  0  0  0  0  0  0
  183.0080  174.1140  137.2970 C   0  0  1  0  0  3  0  0  0  0  0  0
  182.5040  172.0980  135.1760 C   0  0  0  0  0  2  0  0  0  0  0  0
  182.6720  173.3330  136.0450 C   0  0  1  0  0  3  0  0  0  0  0  0
  183.0090  171.1300  137.2300 O   0  0  0  0  0  1  0  0  0  0  0  0
  182.1070  172.0060  136.6220 C   0  0  2  0  0  0  0  0  0  0  0  0
  179.6530  171.2070  136.5160 N   0  0  0  0  0  0  0  0  0  0  0  0
  180.7280  171.5390  136.5490 C   0  0  0  0  0  0  0  0  0  0  0  0
  185.4130  173.4290  137.5810 C   0  0  0  0  0  1  0  0  0  0  0  0
  184.4400  174.5270  137.3880 N   0  0  0  0  0  0  0  0  0  0  0  0
  184.8040  175.0250  136.0560 C   0  0  0  0  0  2  0  0  0  0  0  0
  185.0060  177.1840  137.4090 C   0  0  0  0  0  1  0  0  0  0  0  0
  186.7100  176.3840  135.9640 O   0  0  0  0  0  1  0  0  0  0  0  0
  185.3450  176.4290  136.1460 C   0  0  1  0  0  3  0  0  0  0  0  0
  1 25  1  6  0  0  0
  1  3  1  0  0  0  0
  2  1  1  0  0  0  0
  2  3  1  0  0  0  0
  3  4  1  1  0  0  0
  4  7  1  0  0  0  0
  4  6  1  1  0  0  0
  6  5  2  0  0  0  0
  8 11  1  0  0  0  0
  9 10  1  6  0  0  0
  9 15  1  0  0  0  0
 11 12  1  0  0  0  0
 12 22  1  1  0  0  0
 13 14  1  6  0  0  0
 13  9  1  0  0  0  0
 13  8  1  0  0  0  0
 15  7  1  6  0  0  0
 15 12  1  0  0  0  0
 16 17  2  0  0  0  0
 17 18  1  0  0  0  0
 19 21  2  0  0  0  0
 19 18  1  0  0  0  0
 20 19  1  0  0  0  0
 22 20  2  0  0  0  0
 22 16  1  0  0  0  0
 23 10  1  0  0  0  0
 24 23  2  0  0  0  0
 26 28  1  1  0  0  0
 26 25  1  0  0  0  0
 27 26  1  0  0  0  0
 30 29  1  6  0  0  0
 30 31  1  0  0  0  0
 30 26  1  0  0  0  0
 31 32  1  0  0  0  0
 33 32  1  0  0  0  0
 34 33  1  6  0  0  0
 34 42  1  0  0  0  0
 35 36  1  0  0  0  0
 35 38  1  0  0  0  0
 36 38  1  0  0  0  0
 36 34  1  1  0  0  0
 38 37  1  1  0  0  0
 39 40  3  0  0  0  0
 40 38  1  0  0  0  0
 42 41  1  0  0  0  0
 43 46  1  0  0  0  0
 43 42  1  0  0  0  0
 45 46  1  0  0  0  0
 46 44  1  1  0  0  0
M  END
>  <MODEL>
9

>  <REMARK>
 VINA RESULT:      -6.5      2.927      9.416
  Name = 
  18 active torsions:
  status: ('A' for Active; 'I' for Inactive)
    1  A    between atoms: C_3  and  C_7
    2  A    between atoms: C_3  and  C_16
    3  A    between atoms: C_5  and  C_42
    4  A    between atoms: C_7  and  C_12
    5  A    between atoms: C_8  and  N_26
    6  A    between atoms: C_8  and  C_37
    7  A    between atoms: C_10  and  N_23
    8  A    between atoms: C_11  and  C_18
    9  A    between atoms: C_11  and  C_45
   10  A    between atoms: C_12  and  C_17
   11  A    between atoms: C_12  and  N_26
   12  A    between atoms: C_16  and  C_45
   13  A    between atoms: C_18  and  C_34
   14  A    between atoms: C_28  and  C_44
   15  A    between atoms: C_29  and  S_39
   16  A    between atoms: C_29  and  C_40
   17  A    between atoms: C_29  and  C_46
   18  A    between atoms: S_39  and  C_43
                            x       y       z     vdW  Elec       q    Type
                         _______ _______ _______ _____ _____    ______ ____

>  <TORSDO>
F 18

$$$$
