=
 OpenBabel11062413163D

 42 47  0  0  1  0  0  0  0  0999 V2000
  183.1770  178.6310  143.1570 C   0  0  0  0  0  0  0  0  0  0  0  0
  180.4830  177.4390  141.1500 C   0  0  0  0  0  2  0  0  0  0  0  0
  182.4190  179.3950  143.8920 N   0  0  0  0  0  0  0  0  0  0  0  0
  180.8200  179.8230  142.0410 C   0  0  0  0  0  2  0  0  0  0  0  0
  181.4240  178.5920  141.3980 C   0  0  1  0  0  0  0  0  0  0  0  0
  182.7290  178.1740  141.8840 N   0  0  0  0  0  2  0  0  0  0  0  0
  181.0280  179.7230  143.5550 C   0  0  0  0  0  2  0  0  0  0  0  0
  181.0390  178.2370  139.9710 C   0  0  1  0  0  3  0  0  0  0  0  0
  186.1920  177.9360  145.3040 C   0  0  0  0  0  3  0  0  0  0  0  0
  189.4290  176.9050  143.5640 C   0  0  1  0  0  0  0  0  0  0  0  0
  189.1060  175.5890  143.2180 O   0  0  0  0  0  1  0  0  0  0  0  0
  184.5580  178.3570  143.5640 C   0  0  0  0  0  0  0  0  0  0  0  0
  189.1640  178.4430  145.4060 O   0  0  0  0  0  1  0  0  0  0  0  0
  184.8830  178.2590  144.9220 C   0  0  0  0  0  3  0  0  0  0  0  0
  185.5490  178.1720  142.5920 C   0  0  0  0  0  3  0  0  0  0  0  0
  186.8780  177.9000  142.9660 C   0  0  0  0  0  0  0  0  0  0  0  0
  188.5730  177.3580  144.7610 C   0  0  1  0  0  3  0  0  0  0  0  0
  187.9470  177.6550  141.9230 C   0  0  1  0  0  3  0  0  0  0  0  0
  187.8190  178.6280  140.7630 C   0  0  0  0  0  1  0  0  0  0  0  0
  190.7630  176.9300  143.9410 F   0  0  0  0  0  0  0  0  0  0  0  0
  189.2550  177.7770  142.4580 O   0  0  0  0  0  0  0  0  0  0  0  0
  187.1810  177.7280  144.3320 C   0  0  0  0  0  0  0  0  0  0  0  0
  185.2410  178.6300  138.4880 C   0  0  0  0  0  2  0  0  0  0  0  0
  182.8440  178.3130  138.2400 C   0  0  0  0  0  2  0  0  0  0  0  0
  181.6210  176.1770  138.6010 C   0  0  0  0  0  0  0  0  0  0  0  0
  184.6040  176.5630  137.3470 C   0  0  0  0  0  2  0  0  0  0  0  0
  182.6240  175.1760  138.1190 C   0  0  0  0  0  2  0  0  0  0  0  0
  184.2570  177.8620  138.0290 C   0  0  0  0  0  0  0  0  0  0  0  0
  183.3930  175.7350  136.9230 C   0  0  2  0  0  3  0  0  0  0  0  0
  180.3820  176.1050  138.1030 C   0  0  0  0  0  2  0  0  0  0  0  0
  182.1340  177.4380  139.2570 C   0  0  2  0  0  3  0  0  0  0  0  0
  185.2830  173.7630  136.3530 S   0  0  0  0  0  0  0  0  0  0  0  0
  183.7400  171.6140  136.3650 C   0  0  0  0  0  0  0  0  0  0  0  0
  182.9460  172.3340  135.4720 O   0  0  0  0  0  0  0  0  0  0  0  0
  183.5940  170.3720  136.4540 O   0  0  0  0  0  0  0  0  0  0  0  0
  186.0060  173.3640  135.1020 O   0  0  0  0  0  0  0  0  0  0  0  0
  183.7820  174.6480  135.9120 C   0  0  1  0  0  3  0  0  0  0  0  0
  184.7580  172.3060  137.2180 C   0  0  0  0  0  2  0  0  0  0  0  0
  186.1950  174.5870  137.2160 O   0  0  0  0  0  0  0  0  0  0  0  0
  182.5790  173.6980  135.7110 C   0  0  1  0  0  3  0  0  0  0  0  0
  180.3450  174.2250  135.0260 O   0  0  0  0  0  1  0  0  0  0  0  0
  181.6770  174.2200  134.5960 C   0  0  0  0  0  2  0  0  0  0  0  0
  1 12  1  0  0  0  0
  1  3  2  0  0  0  0
  4  7  1  0  0  0  0
  5  2  1  1  0  0  0
  5  6  1  0  0  0  0
  5  4  1  0  0  0  0
  6  1  1  0  0  0  0
  7  3  1  0  0  0  0
  8  2  1  1  0  0  0
  8  5  1  0  0  0  0
 10 11  1  6  0  0  0
 10 20  1  0  0  0  0
 10 17  1  0  0  0  0
 12 14  2  0  0  0  0
 14  9  1  0  0  0  0
 15 16  2  0  0  0  0
 15 12  1  0  0  0  0
 16 22  1  0  0  0  0
 17 13  1  6  0  0  0
 18 19  1  6  0  0  0
 18 21  1  0  0  0  0
 18 16  1  0  0  0  0
 21 10  1  0  0  0  0
 22 17  1  0  0  0  0
 22  9  2  0  0  0  0
 25 31  1  0  0  0  0
 26 28  1  0  0  0  0
 27 25  1  0  0  0  0
 28 24  1  0  0  0  0
 28 23  2  0  0  0  0
 29 26  1  1  0  0  0
 29 27  1  0  0  0  0
 30 25  2  0  0  0  0
 31 24  1  6  0  0  0
 31  8  1  0  0  0  0
 32 39  2  0  0  0  0
 32 38  1  0  0  0  0
 33 35  2  0  0  0  0
 33 38  1  0  0  0  0
 34 40  1  0  0  0  0
 34 33  1  0  0  0  0
 36 32  2  0  0  0  0
 37 32  1  1  0  0  0
 37 29  1  0  0  0  0
 40 42  1  6  0  0  0
 40 37  1  0  0  0  0
 42 41  1  0  0  0  0
M  END
>  <MODEL>
1

>  <REMARK>
 VINA RESULT:      -8.8      0.000      0.000
  Name = 
  4 active torsions:
  status: ('A' for Active; 'I' for Inactive)
    1  A    between atoms: C_1  and  C_15
    2  A    between atoms: C_22  and  C_32
    3  A    between atoms: C_31  and  C_36
    4  A    between atoms: C_33  and  C_42
                            x       y       z     vdW  Elec       q    Type
                         _______ _______ _______ _____ _____    ______ ____

>  <TORSDO>
F 4

$$$$
=
 OpenBabel11062413163D

 42 47  0  0  1  0  0  0  0  0999 V2000
  182.4020  178.6120  140.9680 C   0  0  0  0  0  0  0  0  0  0  0  0
  181.8250  176.8790  137.9070 C   0  0  0  0  0  2  0  0  0  0  0  0
  181.2530  179.2270  140.9480 N   0  0  0  0  0  0  0  0  0  0  0  0
  181.1780  179.2990  138.4670 C   0  0  0  0  0  2  0  0  0  0  0  0
  182.2160  178.1980  138.5270 C   0  0  1  0  0  0  0  0  0  0  0  0
  182.9440  178.0520  139.7760 N   0  0  0  0  0  2  0  0  0  0  0  0
  180.3760  179.2700  139.7720 C   0  0  0  0  0  2  0  0  0  0  0  0
  182.8920  177.7480  137.2410 C   0  0  1  0  0  3  0  0  0  0  0  0
  183.4190  178.9410  144.5790 C   0  0  0  0  0  3  0  0  0  0  0  0
  186.9010  177.7350  145.5750 C   0  0  1  0  0  0  0  0  0  0  0  0
  186.6950  176.3530  145.5370 O   0  0  0  0  0  1  0  0  0  0  0  0
  183.2180  178.6210  142.1850 C   0  0  0  0  0  0  0  0  0  0  0  0
  185.7710  179.7460  146.2870 O   0  0  0  0  0  1  0  0  0  0  0  0
  182.6500  178.9940  143.4090 C   0  0  0  0  0  3  0  0  0  0  0  0
  184.5630  178.2340  142.1260 C   0  0  0  0  0  3  0  0  0  0  0  0
  185.3590  178.2290  143.2870 C   0  0  0  0  0  0  0  0  0  0  0  0
  185.5610  178.4590  145.7960 C   0  0  1  0  0  3  0  0  0  0  0  0
  186.8010  177.7710  143.2420 C   0  0  1  0  0  3  0  0  0  0  0  0
  187.5100  178.3050  142.0100 C   0  0  0  0  0  1  0  0  0  0  0  0
  187.7340  178.0110  146.6470 F   0  0  0  0  0  0  0  0  0  0  0  0
  187.5300  178.1860  144.3850 O   0  0  0  0  0  0  0  0  0  0  0  0
  184.7600  178.5330  144.5260 C   0  0  0  0  0  0  0  0  0  0  0  0
  186.6900  178.6120  139.4420 C   0  0  0  0  0  2  0  0  0  0  0  0
  185.3310  178.2650  137.4560 C   0  0  0  0  0  2  0  0  0  0  0  0
  184.6530  176.0570  136.5330 C   0  0  0  0  0  0  0  0  0  0  0  0
  187.4740  176.8180  137.9760 C   0  0  0  0  0  2  0  0  0  0  0  0
  185.8550  175.2220  136.8460 C   0  0  0  0  0  2  0  0  0  0  0  0
  186.5090  177.9250  138.3170 C   0  0  0  0  0  0  0  0  0  0  0  0
  187.1270  176.0560  136.6970 C   0  0  2  0  0  3  0  0  0  0  0  0
  184.2000  176.0470  135.2750 C   0  0  0  0  0  2  0  0  0  0  0  0
  184.2860  177.1640  137.4940 C   0  0  2  0  0  3  0  0  0  0  0  0
  189.7360  176.2270  135.7240 S   0  0  0  0  0  0  0  0  0  0  0  0
  191.0270  174.8710  137.5930 C   0  0  0  0  0  0  0  0  0  0  0  0
  190.0770  173.8780  137.3510 O   0  0  0  0  0  0  0  0  0  0  0  0
  192.0850  174.5760  138.1970 O   0  0  0  0  0  0  0  0  0  0  0  0
  190.4570  175.5560  134.5940 O   0  0  0  0  0  0  0  0  0  0  0  0
  188.3190  175.2290  136.1970 C   0  0  1  0  0  3  0  0  0  0  0  0
  190.7950  176.2810  137.1460 C   0  0  0  0  0  2  0  0  0  0  0  0
  189.3410  177.6150  135.3090 O   0  0  0  0  0  0  0  0  0  0  0  0
  188.6770  174.1710  137.2650 C   0  0  1  0  0  3  0  0  0  0  0  0
  187.9150  172.5440  135.6800 O   0  0  0  0  0  1  0  0  0  0  0  0
  187.8700  172.8960  137.0340 C   0  0  0  0  0  2  0  0  0  0  0  0
  1 12  1  0  0  0  0
  3  1  2  0  0  0  0
  4  5  1  0  0  0  0
  4  7  1  0  0  0  0
  5  2  1  1  0  0  0
  5  6  1  0  0  0  0
  6  1  1  0  0  0  0
  7  3  1  0  0  0  0
  8 31  1  0  0  0  0
  8  2  1  1  0  0  0
  8  5  1  0  0  0  0
 10 11  1  6  0  0  0
 10 17  1  0  0  0  0
 10 20  1  0  0  0  0
 12 14  1  0  0  0  0
 14  9  2  0  0  0  0
 15 12  2  0  0  0  0
 15 16  1  0  0  0  0
 16 22  2  0  0  0  0
 17 13  1  6  0  0  0
 18 19  1  6  0  0  0
 18 16  1  0  0  0  0
 18 21  1  0  0  0  0
 21 10  1  0  0  0  0
 22  9  1  0  0  0  0
 22 17  1  0  0  0  0
 24 28  1  0  0  0  0
 25 27  1  0  0  0  0
 25 31  1  0  0  0  0
 26 28  1  0  0  0  0
 28 23  2  0  0  0  0
 29 27  1  1  0  0  0
 29 26  1  0  0  0  0
 30 25  2  0  0  0  0
 31 24  1  6  0  0  0
 32 38  1  0  0  0  0
 33 35  2  0  0  0  0
 34 33  1  0  0  0  0
 36 32  2  0  0  0  0
 37 32  1  1  0  0  0
 37 29  1  0  0  0  0
 37 40  1  0  0  0  0
 38 33  1  0  0  0  0
 39 32  2  0  0  0  0
 40 42  1  6  0  0  0
 40 34  1  0  0  0  0
 41 42  1  0  0  0  0
M  END
>  <MODEL>
2

>  <REMARK>
 VINA RESULT:      -8.5      2.836      4.341
  Name = 
  4 active torsions:
  status: ('A' for Active; 'I' for Inactive)
    1  A    between atoms: C_1  and  C_15
    2  A    between atoms: C_22  and  C_32
    3  A    between atoms: C_31  and  C_36
    4  A    between atoms: C_33  and  C_42
                            x       y       z     vdW  Elec       q    Type
                         _______ _______ _______ _____ _____    ______ ____

>  <TORSDO>
F 4

$$$$
=
 OpenBabel11062413163D

 42 47  0  0  1  0  0  0  0  0999 V2000
  184.0950  178.3960  140.7280 C   0  0  0  0  0  0  0  0  0  0  0  0
  184.7030  176.6330  137.6900 C   0  0  0  0  0  2  0  0  0  0  0  0
  182.9460  178.8690  140.3360 N   0  0  0  0  0  0  0  0  0  0  0  0
  183.6360  178.9530  137.9530 C   0  0  0  0  0  2  0  0  0  0  0  0
  184.7260  177.9840  138.3620 C   0  0  1  0  0  0  0  0  0  0  0  0
  185.0430  177.9160  139.7780 N   0  0  0  0  0  2  0  0  0  0  0  0
  182.4780  178.8170  138.9460 C   0  0  0  0  0  2  0  0  0  0  0  0
  185.8150  177.6290  137.3620 C   0  0  1  0  0  3  0  0  0  0  0  0
  183.9620  179.0750  144.4290 C   0  0  0  0  0  3  0  0  0  0  0  0
  186.8200  177.7650  146.5950 C   0  0  1  0  0  0  0  0  0  0  0  0
  186.4990  176.4040  146.6160 O   0  0  0  0  0  1  0  0  0  0  0  0
  184.4880  178.4920  142.1360 C   0  0  0  0  0  0  0  0  0  0  0  0
  185.7310  179.9160  146.7240 O   0  0  0  0  0  1  0  0  0  0  0  0
  183.6060  179.0420  143.0750 C   0  0  0  0  0  3  0  0  0  0  0  0
  185.7380  178.0130  142.5480 C   0  0  0  0  0  3  0  0  0  0  0  0
  186.1260  178.0900  143.8980 C   0  0  0  0  0  0  0  0  0  0  0  0
  185.5570  178.5970  146.3080 C   0  0  1  0  0  3  0  0  0  0  0  0
  187.4570  177.5360  144.3600 C   0  0  1  0  0  3  0  0  0  0  0  0
  188.5660  177.8750  143.3780 C   0  0  0  0  0  1  0  0  0  0  0  0
  187.3000  178.1090  147.8480 F   0  0  0  0  0  0  0  0  0  0  0  0
  187.8310  178.0320  145.6350 O   0  0  0  0  0  0  0  0  0  0  0  0
  185.2040  178.5760  144.8470 C   0  0  0  0  0  0  0  0  0  0  0  0
  188.6260  178.9340  140.5870 C   0  0  0  0  0  2  0  0  0  0  0  0
  187.9930  178.4320  138.2940 C   0  0  0  0  0  2  0  0  0  0  0  0
  187.8880  176.1600  137.2870 C   0  0  0  0  0  0  0  0  0  0  0  0
  190.0220  177.2490  139.4960 C   0  0  0  0  0  2  0  0  0  0  0  0
  189.0220  175.4740  137.9810 C   0  0  0  0  0  2  0  0  0  0  0  0
  188.8790  178.2330  139.4860 C   0  0  0  0  0  0  0  0  0  0  0  0
  190.1750  176.4530  138.2000 C   0  0  2  0  0  3  0  0  0  0  0  0
  187.8490  176.0990  135.9510 C   0  0  0  0  0  2  0  0  0  0  0  0
  187.1200  177.2140  138.0490 C   0  0  2  0  0  3  0  0  0  0  0  0
  191.8030  174.8510  136.5980 S   0  0  0  0  0  0  0  0  0  0  0  0
  193.8420  176.4910  136.2100 C   0  0  0  0  0  0  0  0  0  0  0  0
  193.8470  176.6100  137.6000 O   0  0  0  0  0  0  0  0  0  0  0  0
  194.8530  176.8450  135.5590 O   0  0  0  0  0  0  0  0  0  0  0  0
  192.6750  173.6660  136.8800 O   0  0  0  0  0  0  0  0  0  0  0  0
  191.5480  175.7750  138.1180 C   0  0  1  0  0  3  0  0  0  0  0  0
  192.6450  175.9500  135.4900 C   0  0  0  0  0  2  0  0  0  0  0  0
  190.5090  174.3860  135.9930 O   0  0  0  0  0  0  0  0  0  0  0  0
  192.6460  176.8390  138.3470 C   0  0  1  0  0  3  0  0  0  0  0  0
  194.3340  176.9110  140.0450 O   0  0  0  0  0  1  0  0  0  0  0  0
  192.9510  176.9690  139.8370 C   0  0  0  0  0  2  0  0  0  0  0  0
  1 12  1  0  0  0  0
  3  1  2  0  0  0  0
  4  5  1  0  0  0  0
  4  7  1  0  0  0  0
  5  2  1  6  0  0  0
  5  6  1  0  0  0  0
  6  1  1  0  0  0  0
  7  3  1  0  0  0  0
  8  2  1  1  0  0  0
  8 31  1  0  0  0  0
  8  5  1  0  0  0  0
  9 22  1  0  0  0  0
 10 11  1  6  0  0  0
 10 20  1  0  0  0  0
 12 15  2  0  0  0  0
 12 14  1  0  0  0  0
 14  9  2  0  0  0  0
 15 16  1  0  0  0  0
 16 18  1  0  0  0  0
 16 22  2  0  0  0  0
 17 10  1  0  0  0  0
 17 13  1  6  0  0  0
 18 19  1  6  0  0  0
 18 21  1  0  0  0  0
 21 10  1  0  0  0  0
 22 17  1  0  0  0  0
 24 28  1  0  0  0  0
 25 27  1  0  0  0  0
 25 31  1  0  0  0  0
 28 26  1  0  0  0  0
 28 23  2  0  0  0  0
 29 27  1  1  0  0  0
 29 26  1  0  0  0  0
 30 25  2  0  0  0  0
 31 24  1  6  0  0  0
 32 36  2  0  0  0  0
 33 34  1  0  0  0  0
 34 40  1  0  0  0  0
 35 33  2  0  0  0  0
 37 32  1  6  0  0  0
 37 29  1  0  0  0  0
 37 40  1  0  0  0  0
 38 33  1  0  0  0  0
 38 32  1  0  0  0  0
 39 32  2  0  0  0  0
 40 42  1  1  0  0  0
 42 41  1  0  0  0  0
M  END
>  <MODEL>
3

>  <REMARK>
 VINA RESULT:      -8.3      3.933      6.583
  Name = 
  4 active torsions:
  status: ('A' for Active; 'I' for Inactive)
    1  A    between atoms: C_1  and  C_15
    2  A    between atoms: C_22  and  C_32
    3  A    between atoms: C_31  and  C_36
    4  A    between atoms: C_33  and  C_42
                            x       y       z     vdW  Elec       q    Type
                         _______ _______ _______ _____ _____    ______ ____

>  <TORSDO>
F 4

$$$$
=
 OpenBabel11062413163D

 42 47  0  0  1  0  0  0  0  0999 V2000
  185.1740  178.2140  143.9180 C   0  0  0  0  0  0  0  0  0  0  0  0
  182.0060  177.7090  142.3630 C   0  0  0  0  0  2  0  0  0  0  0  0
  184.6800  178.8670  144.9320 N   0  0  0  0  0  0  0  0  0  0  0  0
  182.8160  179.8140  143.5910 C   0  0  0  0  0  2  0  0  0  0  0  0
  183.1180  178.6980  142.6120 C   0  0  1  0  0  0  0  0  0  0  0  0
  184.4280  178.0760  142.7120 N   0  0  0  0  0  2  0  0  0  0  0  0
  183.3050  179.3780  144.9760 C   0  0  0  0  0  2  0  0  0  0  0  0
  182.4170  178.6880  141.2630 C   0  0  1  0  0  3  0  0  0  0  0  0
  188.5440  176.9590  142.8020 C   0  0  0  0  0  3  0  0  0  0  0  0
  191.3570  176.8460  145.3800 C   0  0  1  0  0  0  0  0  0  0  0  0
  191.6550  178.2090  145.4680 O   0  0  0  0  0  1  0  0  0  0  0  0
  186.5600  177.7420  143.9540 C   0  0  0  0  0  0  0  0  0  0  0  0
  190.8060  175.1850  143.7170 O   0  0  0  0  0  1  0  0  0  0  0  0
  187.2000  177.3510  142.7710 C   0  0  0  0  0  3  0  0  0  0  0  0
  187.2540  177.7010  145.1700 C   0  0  0  0  0  3  0  0  0  0  0  0
  188.5890  177.2590  145.2200 C   0  0  0  0  0  0  0  0  0  0  0  0
  190.6960  176.5400  144.0240 C   0  0  1  0  0  3  0  0  0  0  0  0
  189.3600  177.2530  146.5220 C   0  0  1  0  0  3  0  0  0  0  0  0
  188.5010  176.7530  147.6700 C   0  0  0  0  0  1  0  0  0  0  0  0
  192.5480  176.1430  145.4600 F   0  0  0  0  0  0  0  0  0  0  0  0
  190.5210  176.4400  146.4530 O   0  0  0  0  0  0  0  0  0  0  0  0
  189.2470  176.9390  144.0150 C   0  0  0  0  0  0  0  0  0  0  0  0
  186.5050  178.6270  139.4490 C   0  0  0  0  0  2  0  0  0  0  0  0
  184.0970  178.9590  139.4290 C   0  0  0  0  0  2  0  0  0  0  0  0
  182.3900  177.1610  139.2300 C   0  0  0  0  0  0  0  0  0  0  0  0
  185.3100  177.2860  137.7900 C   0  0  0  0  0  2  0  0  0  0  0  0
  183.0800  176.1950  138.3200 C   0  0  0  0  0  2  0  0  0  0  0  0
  185.3380  178.3080  138.8980 C   0  0  0  0  0  0  0  0  0  0  0  0
  183.9090  176.9500  137.2820 C   0  0  2  0  0  3  0  0  0  0  0  0
  181.1510  177.5450  138.9050 C   0  0  0  0  0  2  0  0  0  0  0  0
  183.2370  177.9650  140.1890 C   0  0  2  0  0  3  0  0  0  0  0  0
  184.8850  174.6870  135.9740 S   0  0  0  0  0  0  0  0  0  0  0  0
  182.6130  173.5650  135.2130 C   0  0  0  0  0  0  0  0  0  0  0  0
  182.3230  174.8180  134.6720 O   0  0  0  0  0  0  0  0  0  0  0  0
  181.9600  172.5650  134.8340 O   0  0  0  0  0  0  0  0  0  0  0  0
  185.5540  174.4740  134.6500 O   0  0  0  0  0  0  0  0  0  0  0  0
  183.9610  176.2270  135.9300 C   0  0  1  0  0  3  0  0  0  0  0  0
  183.6900  173.4040  136.2420 C   0  0  0  0  0  2  0  0  0  0  0  0
  185.9190  174.6770  137.0630 O   0  0  0  0  0  0  0  0  0  0  0  0
  182.5170  176.0290  135.4130 C   0  0  1  0  0  3  0  0  0  0  0  0
  180.9990  177.8720  135.2200 O   0  0  0  0  0  1  0  0  0  0  0  0
  182.0800  177.2410  134.5940 C   0  0  0  0  0  2  0  0  0  0  0  0
  1 12  1  0  0  0  0
  1  3  2  0  0  0  0
  3  7  1  0  0  0  0
  4  7  1  0  0  0  0
  5  2  1  1  0  0  0
  5  6  1  0  0  0  0
  5  4  1  0  0  0  0
  6  1  1  0  0  0  0
  8  2  1  1  0  0  0
  8  5  1  0  0  0  0
  9 22  1  0  0  0  0
 10 20  1  1  0  0  0
 10 11  1  0  0  0  0
 10 21  1  0  0  0  0
 12 15  2  0  0  0  0
 14  9  2  0  0  0  0
 14 12  1  0  0  0  0
 15 16  1  0  0  0  0
 16 18  1  0  0  0  0
 17 13  1  1  0  0  0
 17 10  1  0  0  0  0
 18 19  1  1  0  0  0
 21 18  1  0  0  0  0
 22 17  1  0  0  0  0
 22 16  2  0  0  0  0
 25 31  1  0  0  0  0
 26 28  1  0  0  0  0
 27 25  1  0  0  0  0
 28 24  1  0  0  0  0
 28 23  2  0  0  0  0
 29 26  1  1  0  0  0
 29 27  1  0  0  0  0
 30 25  2  0  0  0  0
 31 24  1  6  0  0  0
 31  8  1  0  0  0  0
 32 38  1  0  0  0  0
 32 39  2  0  0  0  0
 33 38  1  0  0  0  0
 34 33  1  0  0  0  0
 34 40  1  0  0  0  0
 35 33  2  0  0  0  0
 36 32  2  0  0  0  0
 37 32  1  1  0  0  0
 37 29  1  0  0  0  0
 40 42  1  6  0  0  0
 40 37  1  0  0  0  0
 42 41  1  0  0  0  0
M  END
>  <MODEL>
4

>  <REMARK>
 VINA RESULT:      -8.1      1.671      2.763
  Name = 
  4 active torsions:
  status: ('A' for Active; 'I' for Inactive)
    1  A    between atoms: C_1  and  C_15
    2  A    between atoms: C_22  and  C_32
    3  A    between atoms: C_31  and  C_36
    4  A    between atoms: C_33  and  C_42
                            x       y       z     vdW  Elec       q    Type
                         _______ _______ _______ _____ _____    ______ ____

>  <TORSDO>
F 4

$$$$
=
 OpenBabel11062413163D

 42 47  0  0  1  0  0  0  0  0999 V2000
  188.7290  177.3040  140.3580 C   0  0  0  0  0  0  0  0  0  0  0  0
  188.6160  175.7820  137.1360 C   0  0  0  0  0  2  0  0  0  0  0  0
  187.6450  178.0020  140.1720 N   0  0  0  0  0  0  0  0  0  0  0  0
  188.0310  178.2110  137.7280 C   0  0  0  0  0  2  0  0  0  0  0  0
  188.9690  177.0340  137.9010 C   0  0  1  0  0  0  0  0  0  0  0  0
  189.4450  176.7690  139.2480 N   0  0  0  0  0  2  0  0  0  0  0  0
  187.0030  178.1720  138.8630 C   0  0  0  0  0  2  0  0  0  0  0  0
  189.8400  176.6040  136.7310 C   0  0  1  0  0  3  0  0  0  0  0  0
  191.2290  176.8500  143.1380 C   0  0  0  0  0  3  0  0  0  0  0  0
  190.0880  177.5730  146.7080 C   0  0  1  0  0  0  0  0  0  0  0  0
  190.0600  178.9710  146.6710 O   0  0  0  0  0  1  0  0  0  0  0  0
  189.3070  177.1880  141.6990 C   0  0  0  0  0  0  0  0  0  0  0  0
  191.4500  175.7370  145.9330 O   0  0  0  0  0  1  0  0  0  0  0  0
  190.6680  176.8990  141.8550 C   0  0  0  0  0  3  0  0  0  0  0  0
  188.5010  177.3870  142.8270 C   0  0  0  0  0  3  0  0  0  0  0  0
  189.0430  177.2880  144.1220 C   0  0  0  0  0  0  0  0  0  0  0  0
  191.0530  177.0390  145.6340 C   0  0  1  0  0  3  0  0  0  0  0  0
  188.1900  177.5440  145.3460 C   0  0  1  0  0  3  0  0  0  0  0  0
  186.8150  176.9150  145.2020 C   0  0  0  0  0  1  0  0  0  0  0  0
  190.5560  177.1890  147.9540 F   0  0  0  0  0  0  0  0  0  0  0  0
  188.7850  177.0370  146.5300 O   0  0  0  0  0  0  0  0  0  0  0  0
  190.4280  177.0710  144.2680 C   0  0  0  0  0  0  0  0  0  0  0  0
  193.2330  177.0830  139.6070 C   0  0  0  0  0  2  0  0  0  0  0  0
  192.2300  176.9260  137.3980 C   0  0  0  0  0  2  0  0  0  0  0  0
  191.5820  174.8160  136.2500 C   0  0  0  0  0  0  0  0  0  0  0  0
  194.1450  175.3000  138.2040 C   0  0  0  0  0  2  0  0  0  0  0  0
  192.6510  173.8810  136.7210 C   0  0  0  0  0  2  0  0  0  0  0  0
  193.2100  176.4600  138.4320 C   0  0  0  0  0  0  0  0  0  0  0  0
  193.9820  174.6210  136.8440 C   0  0  2  0  0  3  0  0  0  0  0  0
  191.3620  174.8950  134.9330 C   0  0  0  0  0  2  0  0  0  0  0  0
  191.1240  175.9060  137.1910 C   0  0  2  0  0  3  0  0  0  0  0  0
  196.4710  174.5730  135.5850 S   0  0  0  0  0  0  0  0  0  0  0  0
  198.0280  173.9850  137.6410 C   0  0  0  0  0  0  0  0  0  0  0  0
  197.1430  172.9260  137.8460 O   0  0  0  0  0  0  0  0  0  0  0  0
  199.1560  173.9580  138.1870 O   0  0  0  0  0  0  0  0  0  0  0  0
  197.1380  173.5950  134.6660 O   0  0  0  0  0  0  0  0  0  0  0  0
  195.1850  173.7290  136.5150 C   0  0  1  0  0  3  0  0  0  0  0  0
  197.6450  175.1500  136.7820 C   0  0  0  0  0  2  0  0  0  0  0  0
  195.9300  175.7220  134.7820 O   0  0  0  0  0  0  0  0  0  0  0  0
  195.7220  173.1090  137.8250 C   0  0  1  0  0  3  0  0  0  0  0  0
  194.8130  171.0820  136.9310 O   0  0  0  0  0  1  0  0  0  0  0  0
  195.0020  171.7960  138.1200 C   0  0  0  0  0  2  0  0  0  0  0  0
  1 12  1  0  0  0  0
  3  1  2  0  0  0  0
  4  5  1  0  0  0  0
  4  7  1  0  0  0  0
  5  2  1  6  0  0  0
  5  6  1  0  0  0  0
  6  1  1  0  0  0  0
  7  3  1  0  0  0  0
  8  2  1  6  0  0  0
  8 31  1  0  0  0  0
  8  5  1  0  0  0  0
  9 22  1  0  0  0  0
 10 11  1  6  0  0  0
 10 20  1  0  0  0  0
 12 14  1  0  0  0  0
 12 15  2  0  0  0  0
 14  9  2  0  0  0  0
 15 16  1  0  0  0  0
 16 22  2  0  0  0  0
 16 18  1  0  0  0  0
 17 13  1  1  0  0  0
 17 10  1  0  0  0  0
 18 19  1  6  0  0  0
 18 21  1  0  0  0  0
 21 10  1  0  0  0  0
 22 17  1  0  0  0  0
 24 28  1  0  0  0  0
 25 27  1  0  0  0  0
 25 31  1  0  0  0  0
 26 28  1  0  0  0  0
 28 23  2  0  0  0  0
 29 27  1  1  0  0  0
 29 26  1  0  0  0  0
 30 25  2  0  0  0  0
 31 24  1  6  0  0  0
 32 38  1  0  0  0  0
 33 34  1  0  0  0  0
 33 35  2  0  0  0  0
 36 32  2  0  0  0  0
 37 32  1  1  0  0  0
 37 29  1  0  0  0  0
 37 40  1  0  0  0  0
 38 33  1  0  0  0  0
 39 32  2  0  0  0  0
 40 34  1  0  0  0  0
 40 42  1  6  0  0  0
 41 42  1  0  0  0  0
M  END
>  <MODEL>
5

>  <REMARK>
 VINA RESULT:      -8.0      6.554      9.234
  Name = 
  4 active torsions:
  status: ('A' for Active; 'I' for Inactive)
    1  A    between atoms: C_1  and  C_15
    2  A    between atoms: C_22  and  C_32
    3  A    between atoms: C_31  and  C_36
    4  A    between atoms: C_33  and  C_42
                            x       y       z     vdW  Elec       q    Type
                         _______ _______ _______ _____ _____    ______ ____

>  <TORSDO>
F 4

$$$$
=
 OpenBabel11062413163D

 42 47  0  0  1  0  0  0  0  0999 V2000
  188.9280  177.6280  144.5840 C   0  0  0  0  0  0  0  0  0  0  0  0
  185.6220  177.1150  145.8180 C   0  0  0  0  0  2  0  0  0  0  0  0
  189.4590  177.7250  145.7700 N   0  0  0  0  0  0  0  0  0  0  0  0
  187.4040  178.7050  146.7620 C   0  0  0  0  0  2  0  0  0  0  0  0
  186.6970  178.1400  145.5470 C   0  0  1  0  0  0  0  0  0  0  0  0
  187.5270  177.8140  144.4000 N   0  0  0  0  0  2  0  0  0  0  0  0
  188.6740  177.8820  147.0000 C   0  0  0  0  0  2  0  0  0  0  0  0
  185.2410  178.5030  145.3040 C   0  0  1  0  0  3  0  0  0  0  0  0
  191.9770  177.1290  142.4310 C   0  0  0  0  0  3  0  0  0  0  0  0
  191.4550  176.5480  138.6950 C   0  0  1  0  0  0  0  0  0  0  0  0
  190.9930  175.2290  138.7200 O   0  0  0  0  0  1  0  0  0  0  0  0
  189.7850  177.4770  143.4050 C   0  0  0  0  0  0  0  0  0  0  0  0
  193.1180  177.9380  139.7590 O   0  0  0  0  0  1  0  0  0  0  0  0
  191.1690  177.3340  143.5570 C   0  0  0  0  0  3  0  0  0  0  0  0
  189.2160  177.4560  142.1260 C   0  0  0  0  0  3  0  0  0  0  0  0
  190.0240  177.3030  140.9840 C   0  0  0  0  0  0  0  0  0  0  0  0
  192.2870  176.8370  139.9580 C   0  0  1  0  0  3  0  0  0  0  0  0
  189.4150  177.2350  139.6000 C   0  0  1  0  0  3  0  0  0  0  0  0
  188.3020  178.2550  139.4370 C   0  0  0  0  0  1  0  0  0  0  0  0
  192.2730  176.6920  137.5850 F   0  0  0  0  0  0  0  0  0  0  0  0
  190.3740  177.4610  138.5800 O   0  0  0  0  0  0  0  0  0  0  0  0
  191.4070  177.0840  141.1510 C   0  0  0  0  0  0  0  0  0  0  0  0
  186.9140  179.3590  141.2440 C   0  0  0  0  0  2  0  0  0  0  0  0
  185.3700  179.6730  143.0950 C   0  0  0  0  0  2  0  0  0  0  0  0
  183.3870  178.2520  143.5820 C   0  0  0  0  0  0  0  0  0  0  0  0
  184.5560  179.0820  140.6560 C   0  0  0  0  0  2  0  0  0  0  0  0
  182.9330  177.8910  142.2030 C   0  0  0  0  0  2  0  0  0  0  0  0
  185.6480  179.3810  141.6520 C   0  0  0  0  0  0  0  0  0  0  0  0
  183.1490  179.0690  141.2540 C   0  0  2  0  0  3  0  0  0  0  0  0
  182.4790  178.7590  144.4230 C   0  0  0  0  0  2  0  0  0  0  0  0
  184.8680  178.4350  143.8190 C   0  0  2  0  0  3  0  0  0  0  0  0
  182.3050  177.9580  138.8380 S   0  0  0  0  0  0  0  0  0  0  0  0
  179.9170  177.0610  139.5410 C   0  0  0  0  0  0  0  0  0  0  0  0
  179.7100  178.3560  140.0160 O   0  0  0  0  0  0  0  0  0  0  0  0
  178.9310  176.3100  139.3540 O   0  0  0  0  0  0  0  0  0  0  0  0
  181.8180  178.5480  137.5500 O   0  0  0  0  0  0  0  0  0  0  0  0
  182.0760  179.1510  140.1610 C   0  0  1  0  0  3  0  0  0  0  0  0
  181.2990  176.5580  139.2600 C   0  0  0  0  0  2  0  0  0  0  0  0
  183.7410  177.5460  138.6870 O   0  0  0  0  0  0  0  0  0  0  0  0
  180.6820  179.0350  140.8200 C   0  0  1  0  0  3  0  0  0  0  0  0
  180.0580  180.4840  142.6230 O   0  0  0  0  0  1  0  0  0  0  0  0
  180.1770  180.4170  141.2300 C   0  0  0  0  0  2  0  0  0  0  0  0
  1  3  2  0  0  0  0
  3  7  1  0  0  0  0
  4  7  1  0  0  0  0
  5  2  1  1  0  0  0
  5  4  1  0  0  0  0
  6  1  1  0  0  0  0
  6  5  1  0  0  0  0
  8  5  1  0  0  0  0
  8  2  1  1  0  0  0
  9 14  1  0  0  0  0
 10 20  1  6  0  0  0
 10 11  1  0  0  0  0
 10 17  1  0  0  0  0
 12 14  2  0  0  0  0
 12  1  1  0  0  0  0
 15 12  1  0  0  0  0
 16 22  1  0  0  0  0
 16 15  2  0  0  0  0
 17 13  1  6  0  0  0
 17 22  1  0  0  0  0
 18 19  1  1  0  0  0
 18 16  1  0  0  0  0
 21 10  1  0  0  0  0
 21 18  1  0  0  0  0
 22  9  2  0  0  0  0
 23 28  2  0  0  0  0
 25 31  1  0  0  0  0
 25 30  2  0  0  0  0
 26 28  1  0  0  0  0
 27 25  1  0  0  0  0
 28 24  1  0  0  0  0
 29 26  1  6  0  0  0
 29 27  1  0  0  0  0
 31 24  1  6  0  0  0
 31  8  1  0  0  0  0
 32 38  1  0  0  0  0
 33 34  1  0  0  0  0
 34 40  1  0  0  0  0
 35 33  2  0  0  0  0
 36 32  2  0  0  0  0
 37 32  1  6  0  0  0
 37 40  1  0  0  0  0
 37 29  1  0  0  0  0
 38 33  1  0  0  0  0
 39 32  2  0  0  0  0
 40 42  1  6  0  0  0
 42 41  1  0  0  0  0
M  END
>  <MODEL>
6

>  <REMARK>
 VINA RESULT:      -8.0      3.829      6.218
  Name = 
  4 active torsions:
  status: ('A' for Active; 'I' for Inactive)
    1  A    between atoms: C_1  and  C_15
    2  A    between atoms: C_22  and  C_32
    3  A    between atoms: C_31  and  C_36
    4  A    between atoms: C_33  and  C_42
                            x       y       z     vdW  Elec       q    Type
                         _______ _______ _______ _____ _____    ______ ____

>  <TORSDO>
F 4

$$$$
=
 OpenBabel11062413163D

 42 47  0  0  1  0  0  0  0  0999 V2000
  186.7330  178.1330  141.3000 C   0  0  0  0  0  0  0  0  0  0  0  0
  186.1180  177.0030  137.9760 C   0  0  0  0  0  2  0  0  0  0  0  0
  185.6900  178.9130  141.3310 N   0  0  0  0  0  0  0  0  0  0  0  0
  185.7930  179.3780  138.8940 C   0  0  0  0  0  2  0  0  0  0  0  0
  186.6540  178.1340  138.8190 C   0  0  1  0  0  0  0  0  0  0  0  0
  187.2680  177.6870  140.0570 N   0  0  0  0  0  2  0  0  0  0  0  0
  184.9100  179.2720  140.1410 C   0  0  0  0  0  2  0  0  0  0  0  0
  187.3420  177.7890  137.5070 C   0  0  1  0  0  3  0  0  0  0  0  0
  187.5230  176.8290  144.7440 C   0  0  0  0  0  3  0  0  0  0  0  0
  191.1550  176.9430  145.9120 C   0  0  1  0  0  0  0  0  0  0  0  0
  191.6810  175.8890  145.1590 O   0  0  0  0  0  1  0  0  0  0  0  0
  187.4590  177.8270  142.5360 C   0  0  0  0  0  0  0  0  0  0  0  0
  189.1750  177.4920  147.1800 O   0  0  0  0  0  1  0  0  0  0  0  0
  186.8080  177.1730  143.5890 C   0  0  0  0  0  3  0  0  0  0  0  0
  188.8110  178.1720  142.6560 C   0  0  0  0  0  3  0  0  0  0  0  0
  189.5250  177.8780  143.8320 C   0  0  0  0  0  0  0  0  0  0  0  0
  189.6380  176.7530  146.0930 C   0  0  1  0  0  3  0  0  0  0  0  0
  190.9970  178.2070  143.9540 C   0  0  1  0  0  3  0  0  0  0  0  0
  191.3080  179.5730  143.3690 C   0  0  0  0  0  1  0  0  0  0  0  0
  191.7550  176.9160  147.1610 F   0  0  0  0  0  0  0  0  0  0  0  0
  191.4390  178.1930  145.3020 O   0  0  0  0  0  0  0  0  0  0  0  0
  188.8830  177.1530  144.8570 C   0  0  0  0  0  0  0  0  0  0  0  0
  190.8520  177.4430  140.2590 C   0  0  0  0  0  2  0  0  0  0  0  0
  189.7650  177.8710  138.1270 C   0  0  0  0  0  2  0  0  0  0  0  0
  189.0000  176.1350  136.5180 C   0  0  0  0  0  0  0  0  0  0  0  0
  191.6470  176.0460  138.4160 C   0  0  0  0  0  2  0  0  0  0  0  0
  190.0500  175.0840  136.6940 C   0  0  0  0  0  2  0  0  0  0  0  0
  190.7640  177.1360  138.9680 C   0  0  0  0  0  0  0  0  0  0  0  0
  191.4110  175.7350  136.9390 C   0  0  2  0  0  3  0  0  0  0  0  0
  188.7340  176.5470  135.2740 C   0  0  0  0  0  2  0  0  0  0  0  0
  188.6150  176.9650  137.7210 C   0  0  2  0  0  3  0  0  0  0  0  0
  194.1850  175.6390  136.6640 S   0  0  0  0  0  0  0  0  0  0  0  0
  194.7020  173.3530  137.8930 C   0  0  0  0  0  0  0  0  0  0  0  0
  193.7300  172.8230  137.0430 O   0  0  0  0  0  0  0  0  0  0  0  0
  195.4970  172.5800  138.4760 O   0  0  0  0  0  0  0  0  0  0  0  0
  195.0940  175.3430  135.5100 O   0  0  0  0  0  0  0  0  0  0  0  0
  192.5690  174.9240  136.3440 C   0  0  1  0  0  3  0  0  0  0  0  0
  194.8010  174.8310  138.1190 C   0  0  0  0  0  2  0  0  0  0  0  0
  194.1170  177.1240  136.8780 O   0  0  0  0  0  0  0  0  0  0  0  0
  192.4640  173.4640  136.8430 C   0  0  1  0  0  3  0  0  0  0  0  0
  192.3300  171.5960  135.3490 O   0  0  0  0  0  1  0  0  0  0  0  0
  191.5860  172.6460  135.8990 C   0  0  0  0  0  2  0  0  0  0  0  0
  1  3  2  0  0  0  0
  1 12  1  0  0  0  0
  4  7  1  0  0  0  0
  5  2  1  6  0  0  0
  5  4  1  0  0  0  0
  5  6  1  0  0  0  0
  6  1  1  0  0  0  0
  7  3  1  0  0  0  0
  8 31  1  0  0  0  0
  8  2  1  6  0  0  0
  8  5  1  0  0  0  0
  9 22  1  0  0  0  0
 10 11  1  6  0  0  0
 10 17  1  0  0  0  0
 10 20  1  0  0  0  0
 12 15  2  0  0  0  0
 12 14  1  0  0  0  0
 14  9  2  0  0  0  0
 15 16  1  0  0  0  0
 16 18  1  0  0  0  0
 16 22  2  0  0  0  0
 17 13  1  1  0  0  0
 18 19  1  1  0  0  0
 18 21  1  0  0  0  0
 21 10  1  0  0  0  0
 22 17  1  0  0  0  0
 24 28  1  0  0  0  0
 25 27  1  0  0  0  0
 25 31  1  0  0  0  0
 26 28  1  0  0  0  0
 28 23  2  0  0  0  0
 29 27  1  1  0  0  0
 29 26  1  0  0  0  0
 30 25  2  0  0  0  0
 31 24  1  6  0  0  0
 32 39  2  0  0  0  0
 32 38  1  0  0  0  0
 33 38  1  0  0  0  0
 33 35  2  0  0  0  0
 34 33  1  0  0  0  0
 36 32  2  0  0  0  0
 37 32  1  1  0  0  0
 37 40  1  0  0  0  0
 37 29  1  0  0  0  0
 40 42  1  6  0  0  0
 40 34  1  0  0  0  0
 41 42  1  0  0  0  0
M  END
>  <MODEL>
7

>  <REMARK>
 VINA RESULT:      -7.8      4.870      6.937
  Name = 
  4 active torsions:
  status: ('A' for Active; 'I' for Inactive)
    1  A    between atoms: C_1  and  C_15
    2  A    between atoms: C_22  and  C_32
    3  A    between atoms: C_31  and  C_36
    4  A    between atoms: C_33  and  C_42
                            x       y       z     vdW  Elec       q    Type
                         _______ _______ _______ _____ _____    ______ ____

>  <TORSDO>
F 4

$$$$
=
 OpenBabel11062413163D

 42 47  0  0  1  0  0  0  0  0999 V2000
  189.6150  177.3640  141.0380 C   0  0  0  0  0  0  0  0  0  0  0  0
  189.4240  177.8700  137.5150 C   0  0  0  0  0  2  0  0  0  0  0  0
  190.9170  177.3690  141.0660 N   0  0  0  0  0  0  0  0  0  0  0  0
  191.1070  176.4060  138.7850 C   0  0  0  0  0  2  0  0  0  0  0  0
  189.6730  176.8600  138.6080 C   0  0  1  0  0  0  0  0  0  0  0  0
  188.9170  177.1260  139.8190 N   0  0  0  0  0  2  0  0  0  0  0  0
  191.7550  177.2800  139.8640 C   0  0  0  0  0  2  0  0  0  0  0  0
  188.9130  176.4380  137.3610 C   0  0  1  0  0  3  0  0  0  0  0  0
  188.7370  177.2350  144.6980 C   0  0  0  0  0  3  0  0  0  0  0  0
  185.3850  178.7000  145.7890 C   0  0  1  0  0  0  0  0  0  0  0  0
  185.6770  180.0640  145.6870 O   0  0  0  0  0  1  0  0  0  0  0  0
  188.8530  177.4540  142.2870 C   0  0  0  0  0  0  0  0  0  0  0  0
  186.4150  176.6480  146.5330 O   0  0  0  0  0  1  0  0  0  0  0  0
  189.4490  177.0890  143.5010 C   0  0  0  0  0  3  0  0  0  0  0  0
  187.5340  177.9240  142.2690 C   0  0  0  0  0  3  0  0  0  0  0  0
  186.7920  178.0240  143.4600 C   0  0  0  0  0  0  0  0  0  0  0  0
  186.6850  177.8990  145.9830 C   0  0  1  0  0  3  0  0  0  0  0  0
  185.3810  178.5720  143.4570 C   0  0  1  0  0  3  0  0  0  0  0  0
  184.5860  178.0410  142.2770 C   0  0  0  0  0  1  0  0  0  0  0  0
  184.5840  178.5190  146.9040 F   0  0  0  0  0  0  0  0  0  0  0  0
  184.6770  178.2480  144.6450 O   0  0  0  0  0  0  0  0  0  0  0  0
  187.4240  177.7270  144.6850 C   0  0  0  0  0  0  0  0  0  0  0  0
  185.5160  173.5370  137.5950 C   0  0  0  0  0  2  0  0  0  0  0  0
  186.7540  175.3980  136.6390 C   0  0  0  0  0  2  0  0  0  0  0  0
  186.7310  177.7380  137.4850 C   0  0  0  0  0  0  0  0  0  0  0  0
  184.2510  175.6250  137.4400 C   0  0  0  0  0  2  0  0  0  0  0  0
  185.3200  177.8670  137.9640 C   0  0  0  0  0  2  0  0  0  0  0  0
  185.5050  174.8150  137.2250 C   0  0  0  0  0  0  0  0  0  0  0  0
  184.3780  177.0940  137.0410 C   0  0  2  0  0  3  0  0  0  0  0  0
  187.1950  178.6780  136.6550 C   0  0  0  0  0  2  0  0  0  0  0  0
  187.4000  176.3870  137.5950 C   0  0  2  0  0  3  0  0  0  0  0  0
  181.9510  177.0000  135.6680 S   0  0  0  0  0  0  0  0  0  0  0  0
  180.2900  176.5480  137.6770 C   0  0  0  0  0  0  0  0  0  0  0  0
  180.9060  177.6520  138.2680 O   0  0  0  0  0  0  0  0  0  0  0  0
  179.1840  176.1540  138.1150 O   0  0  0  0  0  0  0  0  0  0  0  0
  181.0810  178.0500  135.0470 O   0  0  0  0  0  0  0  0  0  0  0  0
  183.0030  177.7610  136.9100 C   0  0  1  0  0  3  0  0  0  0  0  0
  180.9360  175.8300  136.5330 C   0  0  0  0  0  2  0  0  0  0  0  0
  182.7460  176.3130  134.5950 O   0  0  0  0  0  0  0  0  0  0  0  0
  182.3310  177.7980  138.3020 C   0  0  1  0  0  3  0  0  0  0  0  0
  181.8210  179.3190  140.0820 O   0  0  0  0  0  1  0  0  0  0  0  0
  182.7270  179.0730  139.0430 C   0  0  0  0  0  2  0  0  0  0  0  0
  1  3  2  0  0  0  0
  1 12  1  0  0  0  0
  4  7  1  0  0  0  0
  5  2  1  6  0  0  0
  5  4  1  0  0  0  0
  5  6  1  0  0  0  0
  6  1  1  0  0  0  0
  7  3  1  0  0  0  0
  8  2  1  6  0  0  0
  8 31  1  0  0  0  0
  8  5  1  0  0  0  0
 10 11  1  6  0  0  0
 10 17  1  0  0  0  0
 10 20  1  0  0  0  0
 12 14  1  0  0  0  0
 14  9  2  0  0  0  0
 15 12  2  0  0  0  0
 15 16  1  0  0  0  0
 16 22  2  0  0  0  0
 17 13  1  6  0  0  0
 18 19  1  6  0  0  0
 18 16  1  0  0  0  0
 18 21  1  0  0  0  0
 21 10  1  0  0  0  0
 22  9  1  0  0  0  0
 22 17  1  0  0  0  0
 24 28  1  0  0  0  0
 25 31  1  0  0  0  0
 25 27  1  0  0  0  0
 28 26  1  0  0  0  0
 28 23  2  0  0  0  0
 29 26  1  1  0  0  0
 29 27  1  0  0  0  0
 30 25  2  0  0  0  0
 31 24  1  6  0  0  0
 32 38  1  0  0  0  0
 33 35  2  0  0  0  0
 33 34  1  0  0  0  0
 34 40  1  0  0  0  0
 36 32  2  0  0  0  0
 37 32  1  6  0  0  0
 37 29  1  0  0  0  0
 37 40  1  0  0  0  0
 38 33  1  0  0  0  0
 39 32  2  0  0  0  0
 40 42  1  6  0  0  0
 42 41  1  0  0  0  0
M  END
>  <MODEL>
8

>  <REMARK>
 VINA RESULT:      -7.7      3.360      5.979
  Name = 
  4 active torsions:
  status: ('A' for Active; 'I' for Inactive)
    1  A    between atoms: C_1  and  C_15
    2  A    between atoms: C_22  and  C_32
    3  A    between atoms: C_31  and  C_36
    4  A    between atoms: C_33  and  C_42
                            x       y       z     vdW  Elec       q    Type
                         _______ _______ _______ _____ _____    ______ ____

>  <TORSDO>
F 4

$$$$
=
 OpenBabel11062413163D

 42 47  0  0  1  0  0  0  0  0999 V2000
  186.0380  176.6410  137.0290 C   0  0  0  0  0  0  0  0  0  0  0  0
  189.4150  175.7100  137.6890 C   0  0  0  0  0  2  0  0  0  0  0  0
  186.1810  176.6100  135.7340 N   0  0  0  0  0  0  0  0  0  0  0  0
  188.5690  177.2820  135.8430 C   0  0  0  0  0  2  0  0  0  0  0  0
  188.4990  176.8410  137.2910 C   0  0  1  0  0  0  0  0  0  0  0  0
  187.1750  176.7440  137.8810 N   0  0  0  0  0  2  0  0  0  0  0  0
  187.4850  176.5320  135.0630 C   0  0  0  0  0  2  0  0  0  0  0  0
  189.6780  177.1240  138.2080 C   0  0  1  0  0  3  0  0  0  0  0  0
  182.6060  175.6680  138.2350 C   0  0  0  0  0  3  0  0  0  0  0  0
  180.6710  178.1870  140.3530 C   0  0  1  0  0  0  0  0  0  0  0  0
  181.3650  178.0660  141.5610 O   0  0  0  0  0  1  0  0  0  0  0  0
  184.6990  176.7230  137.6180 C   0  0  0  0  0  0  0  0  0  0  0  0
  179.8290  176.7990  138.5660 O   0  0  0  0  0  1  0  0  0  0  0  0
  183.8610  175.6010  137.6170 C   0  0  0  0  0  3  0  0  0  0  0  0
  184.2640  177.9200  138.2010 C   0  0  0  0  0  3  0  0  0  0  0  0
  182.9850  178.0130  138.7790 C   0  0  0  0  0  0  0  0  0  0  0  0
  180.8390  176.9020  139.5210 C   0  0  1  0  0  3  0  0  0  0  0  0
  182.5230  179.2880  139.4510 C   0  0  1  0  0  3  0  0  0  0  0  0
  182.9280  180.5120  138.6480 C   0  0  0  0  0  1  0  0  0  0  0  0
  179.3280  178.3500  140.6480 F   0  0  0  0  0  0  0  0  0  0  0  0
  181.1150  179.3220  139.6260 O   0  0  0  0  0  0  0  0  0  0  0  0
  182.1780  176.8580  138.8400 C   0  0  0  0  0  0  0  0  0  0  0  0
  186.3160  178.5950  140.7660 C   0  0  0  0  0  2  0  0  0  0  0  0
  188.5990  178.5840  139.9300 C   0  0  0  0  0  2  0  0  0  0  0  0
  190.3940  177.0170  140.6450 C   0  0  0  0  0  0  0  0  0  0  0  0
  188.0250  178.2870  142.4880 C   0  0  0  0  0  2  0  0  0  0  0  0
  190.0610  176.8230  142.0910 C   0  0  0  0  0  2  0  0  0  0  0  0
  187.6110  178.5010  141.0540 C   0  0  0  0  0  0  0  0  0  0  0  0
  189.5320  178.1260  142.6880 C   0  0  2  0  0  3  0  0  0  0  0  0
  191.6480  177.3620  140.3370 C   0  0  0  0  0  2  0  0  0  0  0  0
  189.2560  177.2380  139.6760 C   0  0  2  0  0  3  0  0  0  0  0  0
  189.0870  177.1610  145.2680 S   0  0  0  0  0  0  0  0  0  0  0  0
  191.5230  176.3340  145.8880 C   0  0  0  0  0  0  0  0  0  0  0  0
  191.9190  177.6150  145.5000 O   0  0  0  0  0  0  0  0  0  0  0  0
  192.2980  175.6350  146.5810 O   0  0  0  0  0  0  0  0  0  0  0  0
  188.8650  177.8290  146.5900 O   0  0  0  0  0  0  0  0  0  0  0  0
  189.9230  178.3030  144.1610 C   0  0  1  0  0  3  0  0  0  0  0  0
  190.1900  175.7870  145.4810 C   0  0  0  0  0  2  0  0  0  0  0  0
  187.7700  176.6960  144.7150 O   0  0  0  0  0  0  0  0  0  0  0  0
  191.4620  178.2160  144.2820 C   0  0  1  0  0  3  0  0  0  0  0  0
  191.1200  180.5870  144.3200 O   0  0  0  0  0  1  0  0  0  0  0  0
  192.0840  179.5980  144.0930 C   0  0  0  0  0  2  0  0  0  0  0  0
  1 12  1  0  0  0  0
  1  6  1  0  0  0  0
  3  1  2  0  0  0  0
  5  4  1  6  0  0  0
  5  2  1  0  0  0  0
  5  6  1  0  0  0  0
  5  8  1  0  0  0  0
  7  3  1  0  0  0  0
  7  4  1  0  0  0  0
  8  2  1  1  0  0  0
  8 31  1  0  0  0  0
  9 22  1  0  0  0  0
 10 20  1  1  0  0  0
 10 11  1  0  0  0  0
 12 15  2  0  0  0  0
 14 12  1  0  0  0  0
 14  9  2  0  0  0  0
 15 16  1  0  0  0  0
 16 22  2  0  0  0  0
 16 18  1  0  0  0  0
 17 13  1  6  0  0  0
 17 10  1  0  0  0  0
 18 19  1  6  0  0  0
 18 21  1  0  0  0  0
 21 10  1  0  0  0  0
 22 17  1  0  0  0  0
 23 28  2  0  0  0  0
 24 28  1  0  0  0  0
 25 27  1  0  0  0  0
 26 29  1  0  0  0  0
 28 26  1  0  0  0  0
 29 27  1  1  0  0  0
 30 25  2  0  0  0  0
 31 24  1  6  0  0  0
 31 25  1  0  0  0  0
 32 38  1  0  0  0  0
 32 36  2  0  0  0  0
 33 35  2  0  0  0  0
 34 33  1  0  0  0  0
 37 29  1  6  0  0  0
 37 40  1  0  0  0  0
 37 32  1  0  0  0  0
 38 33  1  0  0  0  0
 39 32  2  0  0  0  0
 40 42  1  1  0  0  0
 40 34  1  0  0  0  0
 42 41  1  0  0  0  0
M  END
>  <MODEL>
9

>  <REMARK>
 VINA RESULT:      -7.6      4.231      9.646
  Name = 
  4 active torsions:
  status: ('A' for Active; 'I' for Inactive)
    1  A    between atoms: C_1  and  C_15
    2  A    between atoms: C_22  and  C_32
    3  A    between atoms: C_31  and  C_36
    4  A    between atoms: C_33  and  C_42
                            x       y       z     vdW  Elec       q    Type
                         _______ _______ _______ _____ _____    ______ ____

>  <TORSDO>
F 4

$$$$
