=
 OpenBabel11062417063D

 69 71  0  0  1  0  0  0  0  0999 V2000
  182.3900  175.3850  138.5950 C   0  0  0  0  0  2  0  0  0  0  0  0
  181.6440  176.6500  139.0330 C   0  0  2  0  0  3  0  0  0  0  0  0
  180.4830  178.2590  137.6320 O   0  0  0  0  0  0  0  0  0  0  0  0
  181.5290  176.4360  136.6190 N   0  0  0  0  0  2  0  0  0  0  0  0
  182.2850  175.2830  137.0690 C   0  0  2  0  0  3  0  0  0  0  0  0
  181.1860  177.2190  137.7420 C   0  0  0  0  0  0  0  0  0  0  0  0
  181.6390  173.9730  136.6060 C   0  0  0  0  0  2  0  0  0  0  0  0
  182.1060  171.4740  136.1050 C   0  0  0  0  0  2  0  0  0  0  0  0
  181.7290  171.5660  137.5760 C   0  0  0  0  0  2  0  0  0  0  0  0
  182.4630  172.7090  136.9100 C   0  0  0  0  0  0  0  0  0  0  0  0
  183.8100  172.8190  137.3130 O   0  0  0  0  0  0  0  0  0  0  0  0
  187.4710  172.6090  136.3060 C   0  0  0  0  0  2  0  0  0  0  0  0
  186.8290  174.0020  136.4250 C   0  0  2  0  0  3  0  0  0  0  0  0
  184.5960  172.7350  136.1540 C   0  0  1  0  0  3  0  0  0  0  0  0
  186.6960  171.7490  135.5090 O   0  0  0  0  0  0  0  0  0  0  0  0
  185.3660  174.0430  135.9360 C   0  0  0  0  0  2  0  0  0  0  0  0
  185.5270  171.5170  136.2450 C   0  0  0  0  0  2  0  0  0  0  0  0
  187.6540  175.0190  135.7020 C   0  0  0  0  0  0  0  0  0  0  0  0
  188.9170  175.4410  136.2440 N   0  0  0  0  0  0  0  0  0  0  0  0
  187.2540  175.4850  134.6000 O   0  0  0  0  0  0  0  0  0  0  0  0
  190.2150  174.2650  137.8040 O   0  0  0  0  0  0  0  0  0  0  0  0
  189.8570  174.4110  136.6010 C   0  0  0  0  0  0  0  0  0  0  0  0
  189.1790  176.8520  136.6300 C   0  0  2  0  0  0  0  0  0  0  0  0
  190.5180  176.9260  137.3650 C   0  0  0  0  0  1  0  0  0  0  0  0
  186.8910  177.3520  137.1010 O   0  0  0  0  0  0  0  0  0  0  0  0
  188.3260  177.9550  138.8450 C   0  0  0  0  0  1  0  0  0  0  0  0
  188.0430  177.3510  137.5070 C   0  0  0  0  0  0  0  0  0  0  0  0
  189.3150  177.7570  135.3890 C   0  0  0  0  0  2  0  0  0  0  0  0
  188.0800  178.2690  134.9780 O   0  0  0  0  0  1  0  0  0  0  0  0
  190.3790  173.4910  135.5390 C   0  0  0  0  0  2  0  0  0  0  0  0
  191.8800  173.6770  135.3460 C   0  0  0  0  0  2  0  0  0  0  0  0
  194.4800  174.7050  135.8030 O   0  0  0  0  0  0  0  0  0  0  0  0
  192.0370  171.3340  135.6550 O   0  0  0  0  0  0  0  0  0  0  0  0
  193.9030  172.5070  136.3980 N   0  0  0  0  0  2  0  0  0  0  0  0
  192.6030  172.4510  135.7950 C   0  0  0  0  0  0  0  0  0  0  0  0
  194.7830  173.6420  136.4080 C   0  0  0  0  0  0  0  0  0  0  0  0
  196.0380  173.5340  137.0840 N   0  0  0  0  0  2  0  0  0  0  0  0
  198.3440  174.0980  137.6610 C   0  0  0  0  0  1  0  0  0  0  0  0
  197.0520  174.5820  137.0330 C   0  0  0  0  0  2  0  0  0  0  0  0
  182.5590  177.6070  139.8310 C   0  0  1  0  0  3  0  0  0  0  0  0
  183.3800  178.5510  138.9390 C   0  0  1  0  0  3  0  0  0  0  0  0
  182.8930  179.8550  138.9960 O   0  0  0  0  0  1  0  0  0  0  0  0
  184.8740  178.5230  139.2180 C   0  0  0  0  0  1  0  0  0  0  0  0
  181.7290  178.4350  140.8130 C   0  0  0  0  0  2  0  0  0  0  0  0
  182.2650  178.4020  142.2330 C   0  0  2  0  0  3  0  0  0  0  0  0
  181.1060  178.5470  143.1640 C   0  0  0  0  0  3  0  0  0  0  0  0
  180.2420  179.3890  142.9670 O   0  0  0  0  0  0  0  0  0  0  0  0
  183.1390  179.4950  142.3910 O   0  0  0  0  0  0  0  0  0  0  0  0
  184.3940  179.1380  142.9670 C   0  0  1  0  0  0  0  0  0  0  0  0
  185.3600  179.9780  142.3960 O   0  0  0  0  0  1  0  0  0  0  0  0
  183.6210  178.6370  145.2640 C   0  0  0  0  0  2  0  0  0  0  0  0
  184.3250  179.4190  144.4550 C   0  0  0  0  0  0  0  0  0  0  0  0
  185.0550  180.4620  145.0130 O   0  0  0  0  0  1  0  0  0  0  0  0
  184.8480  177.6760  142.7070 C   0  0  0  0  0  2  0  0  0  0  0  0
  186.3010  177.5770  142.6700 N   0  0  0  0  0  2  0  0  0  0  0  0
  186.7540  177.5590  144.0540 C   0  0  0  0  0  2  0  0  0  0  0  0
  188.2430  177.6780  144.0850 C   0  0  0  0  0  0  0  0  0  0  0  0
  188.9530  177.6360  145.2180 C   0  0  0  0  0  3  0  0  0  0  0  0
  188.4010  177.6170  146.5940 C   0  0  0  0  0  0  0  0  0  0  0  0
  187.1550  177.6240  146.7820 O   0  0  0  0  0  0  0  0  0  0  0  0
  189.3110  177.6940  147.7530 C   0  0  0  0  0  0  0  0  0  0  0  0
  189.0680  178.5430  148.7490 C   0  0  0  0  0  2  0  0  0  0  0  0
  190.6460  177.0400  147.6900 C   0  0  0  0  0  1  0  0  0  0  0  0
  188.9570  177.8380  142.7870 C   0  0  0  0  0  2  0  0  0  0  0  0
  189.2650  176.5330  142.2040 N   0  0  0  0  0  2  0  0  0  0  0  0
  190.2650  176.7690  141.1820 C   0  0  0  0  0  2  0  0  0  0  0  0
  191.5810  177.0670  141.8170 C   0  0  0  0  0  0  0  0  0  0  0  0
  192.4460  177.9890  141.2380 O   0  0  0  0  0  0  0  0  0  0  0  0
  191.9160  176.4690  142.8740 O   0  0  0  0  0  1  0  0  0  0  0  0
  1  2  1  0  0  0  0
  2 40  1  6  0  0  0
  3  6  2  0  0  0  0
  4  5  1  0  0  0  0
  4  6  1  0  0  0  0
  5  7  1  1  0  0  0
  5  1  1  0  0  0  0
  6  2  1  0  0  0  0
  7 10  1  0  0  0  0
  8 10  1  0  0  0  0
  8  9  1  0  0  0  0
 10 11  1  0  0  0  0
 10  9  1  0  0  0  0
 12 13  1  0  0  0  0
 13 18  1  6  0  0  0
 14 17  1  0  0  0  0
 14 11  1  1  0  0  0
 15 17  1  0  0  0  0
 15 12  1  0  0  0  0
 16 14  1  0  0  0  0
 16 13  1  0  0  0  0
 18 19  1  0  0  0  0
 19 22  1  0  0  0  0
 19 23  1  0  0  0  0
 20 18  2  0  0  0  0
 22 21  2  0  0  0  0
 23 24  1  1  0  0  0
 23 27  1  0  0  0  0
 25 27  2  0  0  0  0
 27 26  1  0  0  0  0
 28 23  1  0  0  0  0
 29 28  1  0  0  0  0
 30 22  1  0  0  0  0
 31 30  1  0  0  0  0
 31 35  1  0  0  0  0
 32 36  2  0  0  0  0
 33 35  2  0  0  0  0
 34 36  1  0  0  0  0
 35 34  1  0  0  0  0
 36 37  1  0  0  0  0
 39 37  1  0  0  0  0
 39 38  1  0  0  0  0
 40 44  1  1  0  0  0
 41 42  1  0  0  0  0
 41 43  1  1  0  0  0
 41 40  1  0  0  0  0
 45 44  1  6  0  0  0
 45 48  1  0  0  0  0
 45 46  1  0  0  0  0
 47 46  2  0  0  0  0
 48 49  1  0  0  0  0
 49 50  1  6  0  0  0
 49 52  1  0  0  0  0
 52 53  1  0  0  0  0
 52 51  2  0  0  0  0
 54 49  1  0  0  0  0
 55 54  1  0  0  0  0
 55 56  1  0  0  0  0
 56 57  1  0  0  0  0
 57 58  2  0  0  0  0
 58 59  1  0  0  0  0
 59 60  2  0  0  0  0
 59 61  1  0  0  0  0
 61 62  2  0  0  0  0
 63 61  1  0  0  0  0
 64 57  1  0  0  0  0
 65 64  1  0  0  0  0
 66 67  1  0  0  0  0
 66 65  1  0  0  0  0
 67 69  1  0  0  0  0
 68 67  2  0  0  0  0
M  END
>  <MODEL>
1

>  <REMARK>
 VINA RESULT:      -5.3      0.000      0.000
  Name = 
  30 active torsions:
  status: ('A' for Active; 'I' for Inactive)
    1  A    between atoms: C_1  and  C_16
    2  A    between atoms: C_1  and  C_35
    3  A    between atoms: O_3  and  C_19
    4  A    between atoms: O_3  and  C_48
    5  A    between atoms: N_4  and  C_23
    6  A    between atoms: N_4  and  C_35
    7  A    between atoms: C_5  and  C_34
    8  A    between atoms: C_8  and  C_25
    9  A    between atoms: C_9  and  C_64
   10  A    between atoms: C_9  and  C_69
   11  A    between atoms: C_10  and  C_25
   12  A    between atoms: C_11  and  C_27
   13  A    between atoms: C_13  and  C_34
   14  A    between atoms: C_14  and  C_41
   15  A    between atoms: C_15  and  C_23
   16  A    between atoms: C_16  and  N_26
   17  A    between atoms: C_25  and  C_36
   18  A    between atoms: N_26  and  C_38
   19  A    between atoms: C_27  and  N_43
   20  A    between atoms: C_27  and  C_59
   21  A    between atoms: C_31  and  C_48
   22  A    between atoms: C_31  and  C_53
   23  A    between atoms: C_33  and  N_65
   24  A    between atoms: C_36  and  C_39
   25  A    between atoms: C_38  and  C_46
   26  A    between atoms: C_39  and  C_40
   27  A    between atoms: C_39  and  O_42
   28  A    between atoms: O_42  and  C_46
   29  A    between atoms: C_46  and  C_50
   30  A    between atoms: C_52  and  C_69
                            x       y       z     vdW  Elec       q    Type
                         _______ _______ _______ _____ _____    ______ ____

>  <TORSDO>
F 30

$$$$
=
 OpenBabel11062417063D

 69 71  0  0  1  0  0  0  0  0999 V2000
  189.9350  174.4350  137.2410 C   0  0  0  0  0  2  0  0  0  0  0  0
  190.7610  175.6870  136.9320 C   0  0  2  0  0  3  0  0  0  0  0  0
  192.2690  176.0590  135.0650 O   0  0  0  0  0  0  0  0  0  0  0  0
  191.1700  174.0080  135.2310 N   0  0  0  0  0  2  0  0  0  0  0  0
  190.2140  173.4060  136.1400 C   0  0  2  0  0  3  0  0  0  0  0  0
  191.4920  175.2990  135.7010 C   0  0  0  0  0  0  0  0  0  0  0  0
  188.9430  172.9640  135.4060 C   0  0  0  0  0  2  0  0  0  0  0  0
  187.6040  171.6450  137.1890 C   0  0  0  0  0  2  0  0  0  0  0  0
  186.7090  171.7640  135.9640 C   0  0  0  0  0  2  0  0  0  0  0  0
  187.6910  172.8680  136.2950 C   0  0  0  0  0  0  0  0  0  0  0  0
  187.0720  174.0370  136.7820 O   0  0  0  0  0  0  0  0  0  0  0  0
  185.1890  177.2420  135.9760 C   0  0  0  0  0  2  0  0  0  0  0  0
  184.3710  175.9750  136.2810 C   0  0  2  0  0  3  0  0  0  0  0  0
  186.5400  174.7140  135.6730 C   0  0  1  0  0  3  0  0  0  0  0  0
  186.1750  176.9980  135.0050 O   0  0  0  0  0  0  0  0  0  0  0  0
  185.0070  174.6880  135.7190 C   0  0  0  0  0  2  0  0  0  0  0  0
  187.0970  176.1440  135.6220 C   0  0  0  0  0  2  0  0  0  0  0  0
  182.9680  176.1300  135.7850 C   0  0  0  0  0  0  0  0  0  0  0  0
  181.8590  175.9000  136.6700 N   0  0  0  0  0  0  0  0  0  0  0  0
  182.7590  176.4910  134.5940 O   0  0  0  0  0  0  0  0  0  0  0  0
  181.9280  175.9520  139.0140 O   0  0  0  0  0  0  0  0  0  0  0  0
  181.8670  176.5970  137.9300 C   0  0  0  0  0  0  0  0  0  0  0  0
  180.8530  174.8360  136.4170 C   0  0  2  0  0  0  0  0  0  0  0  0
  179.8440  174.8230  137.5650 C   0  0  0  0  0  1  0  0  0  0  0  0
  181.9310  172.8900  137.2850 O   0  0  0  0  0  0  0  0  0  0  0  0
  181.9180  172.9500  134.9480 C   0  0  0  0  0  1  0  0  0  0  0  0
  181.5600  173.4970  136.2920 C   0  0  0  0  0  0  0  0  0  0  0  0
  180.0460  175.1210  135.1330 C   0  0  0  0  0  2  0  0  0  0  0  0
  178.9430  174.2700  135.0110 O   0  0  0  0  0  1  0  0  0  0  0  0
  181.8420  178.0960  137.9420 C   0  0  0  0  0  2  0  0  0  0  0  0
  180.5050  178.6140  138.4620 C   0  0  0  0  0  2  0  0  0  0  0  0
  180.5350  181.4250  138.8140 O   0  0  0  0  0  0  0  0  0  0  0  0
  179.0010  178.1910  136.6830 O   0  0  0  0  0  0  0  0  0  0  0  0
  179.5800  180.4320  136.9120 N   0  0  0  0  0  2  0  0  0  0  0  0
  179.6560  179.0590  137.3200 C   0  0  0  0  0  0  0  0  0  0  0  0
  180.0510  181.5640  137.6590 C   0  0  0  0  0  0  0  0  0  0  0  0
  179.9220  182.8680  137.0870 N   0  0  0  0  0  2  0  0  0  0  0  0
  181.6010  184.6150  137.4020 C   0  0  0  0  0  1  0  0  0  0  0  0
  180.2440  184.0860  137.8240 C   0  0  0  0  0  2  0  0  0  0  0  0
  191.6980  176.0580  138.1050 C   0  0  1  0  0  3  0  0  0  0  0  0
  193.1880  176.0260  137.7300 C   0  0  1  0  0  3  0  0  0  0  0  0
  193.7500  177.2990  137.7740 O   0  0  0  0  0  1  0  0  0  0  0  0
  194.0120  175.0460  138.5500 C   0  0  0  0  0  1  0  0  0  0  0  0
  191.3440  177.4440  138.6460 C   0  0  0  0  0  2  0  0  0  0  0  0
  191.2490  177.4940  140.1610 C   0  0  2  0  0  3  0  0  0  0  0  0
  190.6190  176.2210  140.6220 C   0  0  0  0  0  3  0  0  0  0  0  0
  190.9570  175.6960  141.6730 O   0  0  0  0  0  0  0  0  0  0  0  0
  190.4250  178.5830  140.5070 O   0  0  0  0  0  0  0  0  0  0  0  0
  189.0430  178.2400  140.5940 C   0  0  1  0  0  0  0  0  0  0  0  0
  188.3850  179.3400  141.1610 O   0  0  0  0  0  1  0  0  0  0  0  0
  188.6060  179.0000  138.2790 C   0  0  0  0  0  2  0  0  0  0  0  0
  188.5200  178.0350  139.1870 C   0  0  0  0  0  0  0  0  0  0  0  0
  188.0010  176.8060  138.7980 O   0  0  0  0  0  1  0  0  0  0  0  0
  188.7230  177.0080  141.4830 C   0  0  0  0  0  2  0  0  0  0  0  0
  187.7680  177.3500  142.5290 N   0  0  0  0  0  2  0  0  0  0  0  0
  188.2520  176.7350  143.7570 C   0  0  0  0  0  2  0  0  0  0  0  0
  188.3260  177.7710  144.8300 C   0  0  0  0  0  0  0  0  0  0  0  0
  189.4510  178.0420  145.5030 C   0  0  0  0  0  3  0  0  0  0  0  0
  190.7260  177.2910  145.4120 C   0  0  0  0  0  0  0  0  0  0  0  0
  191.2640  177.0810  144.2910 O   0  0  0  0  0  0  0  0  0  0  0  0
  191.3190  176.6980  146.6250 C   0  0  0  0  0  0  0  0  0  0  0  0
  191.7460  175.4370  146.6230 C   0  0  0  0  0  2  0  0  0  0  0  0
  191.1880  177.3990  147.9310 C   0  0  0  0  0  1  0  0  0  0  0  0
  187.0890  178.5370  145.1460 C   0  0  0  0  0  2  0  0  0  0  0  0
  186.0600  177.6530  145.6900 N   0  0  0  0  0  2  0  0  0  0  0  0
  184.7870  178.2820  145.4020 C   0  0  0  0  0  2  0  0  0  0  0  0
  184.7360  178.6920  143.9680 C   0  0  0  0  0  0  0  0  0  0  0  0
  184.4590  177.7540  142.9800 O   0  0  0  0  0  0  0  0  0  0  0  0
  184.9620  179.8900  143.6510 O   0  0  0  0  0  1  0  0  0  0  0  0
  2  1  1  0  0  0  0
  2 40  1  1  0  0  0
  3  6  2  0  0  0  0
  4  6  1  0  0  0  0
  4  5  1  0  0  0  0
  5  7  1  6  0  0  0
  5  1  1  0  0  0  0
  6  2  1  0  0  0  0
  7 10  1  0  0  0  0
  9 10  1  0  0  0  0
  9  8  1  0  0  0  0
 10 11  1  0  0  0  0
 10  8  1  0  0  0  0
 12 13  1  0  0  0  0
 13 18  1  6  0  0  0
 14 16  1  0  0  0  0
 14 11  1  1  0  0  0
 15 17  1  0  0  0  0
 15 12  1  0  0  0  0
 16 13  1  0  0  0  0
 17 14  1  0  0  0  0
 18 19  1  0  0  0  0
 19 22  1  0  0  0  0
 20 18  2  0  0  0  0
 22 30  1  0  0  0  0
 22 21  2  0  0  0  0
 23 19  1  0  0  0  0
 23 24  1  1  0  0  0
 26 27  1  0  0  0  0
 27 23  1  0  0  0  0
 27 25  2  0  0  0  0
 28 23  1  0  0  0  0
 29 28  1  0  0  0  0
 30 31  1  0  0  0  0
 33 35  2  0  0  0  0
 34 35  1  0  0  0  0
 34 36  1  0  0  0  0
 35 31  1  0  0  0  0
 36 32  2  0  0  0  0
 37 36  1  0  0  0  0
 37 39  1  0  0  0  0
 38 39  1  0  0  0  0
 40 44  1  6  0  0  0
 41 42  1  0  0  0  0
 41 40  1  0  0  0  0
 41 43  1  1  0  0  0
 45 44  1  6  0  0  0
 45 48  1  0  0  0  0
 45 46  1  0  0  0  0
 46 47  2  0  0  0  0
 48 49  1  0  0  0  0
 49 50  1  1  0  0  0
 49 54  1  0  0  0  0
 51 52  2  0  0  0  0
 52 49  1  0  0  0  0
 53 52  1  0  0  0  0
 54 55  1  0  0  0  0
 55 56  1  0  0  0  0
 56 57  1  0  0  0  0
 57 64  1  0  0  0  0
 57 58  2  0  0  0  0
 59 58  1  0  0  0  0
 59 61  1  0  0  0  0
 60 59  2  0  0  0  0
 61 63  1  0  0  0  0
 62 61  2  0  0  0  0
 64 65  1  0  0  0  0
 66 65  1  0  0  0  0
 67 66  1  0  0  0  0
 68 67  2  0  0  0  0
 69 67  1  0  0  0  0
M  END
>  <MODEL>
2

>  <REMARK>
 VINA RESULT:      -3.9      2.482      9.089
  Name = 
  30 active torsions:
  status: ('A' for Active; 'I' for Inactive)
    1  A    between atoms: C_1  and  C_16
    2  A    between atoms: C_1  and  C_35
    3  A    between atoms: O_3  and  C_19
    4  A    between atoms: O_3  and  C_48
    5  A    between atoms: N_4  and  C_23
    6  A    between atoms: N_4  and  C_35
    7  A    between atoms: C_5  and  C_34
    8  A    between atoms: C_8  and  C_25
    9  A    between atoms: C_9  and  C_64
   10  A    between atoms: C_9  and  C_69
   11  A    between atoms: C_10  and  C_25
   12  A    between atoms: C_11  and  C_27
   13  A    between atoms: C_13  and  C_34
   14  A    between atoms: C_14  and  C_41
   15  A    between atoms: C_15  and  C_23
   16  A    between atoms: C_16  and  N_26
   17  A    between atoms: C_25  and  C_36
   18  A    between atoms: N_26  and  C_38
   19  A    between atoms: C_27  and  N_43
   20  A    between atoms: C_27  and  C_59
   21  A    between atoms: C_31  and  C_48
   22  A    between atoms: C_31  and  C_53
   23  A    between atoms: C_33  and  N_65
   24  A    between atoms: C_36  and  C_39
   25  A    between atoms: C_38  and  C_46
   26  A    between atoms: C_39  and  C_40
   27  A    between atoms: C_39  and  O_42
   28  A    between atoms: O_42  and  C_46
   29  A    between atoms: C_46  and  C_50
   30  A    between atoms: C_52  and  C_69
                            x       y       z     vdW  Elec       q    Type
                         _______ _______ _______ _____ _____    ______ ____

>  <TORSDO>
F 30

$$$$
=
 OpenBabel11062417063D

 69 71  0  0  1  0  0  0  0  0999 V2000
  190.2790  174.7060  137.6070 C   0  0  0  0  0  2  0  0  0  0  0  0
  191.0530  176.0260  137.5160 C   0  0  2  0  0  3  0  0  0  0  0  0
  192.6870  176.6880  135.8470 O   0  0  0  0  0  0  0  0  0  0  0  0
  191.7030  174.5790  135.6820 N   0  0  0  0  0  2  0  0  0  0  0  0
  190.7110  173.8280  136.4280 C   0  0  2  0  0  3  0  0  0  0  0  0
  191.9060  175.8210  136.3210 C   0  0  0  0  0  0  0  0  0  0  0  0
  189.5350  173.4120  135.5370 C   0  0  0  0  0  2  0  0  0  0  0  0
  188.2090  171.7290  136.9920 C   0  0  0  0  0  2  0  0  0  0  0  0
  187.3910  171.9630  135.7310 C   0  0  0  0  0  2  0  0  0  0  0  0
  188.2420  173.0780  136.2990 C   0  0  0  0  0  0  0  0  0  0  0  0
  187.4860  174.1030  136.9040 O   0  0  0  0  0  0  0  0  0  0  0  0
  185.3370  177.2040  136.4300 C   0  0  0  0  0  2  0  0  0  0  0  0
  184.6300  175.8440  136.5640 C   0  0  2  0  0  3  0  0  0  0  0  0
  186.9130  174.8580  135.8690 C   0  0  1  0  0  3  0  0  0  0  0  0
  186.3550  177.1640  135.4620 O   0  0  0  0  0  0  0  0  0  0  0  0
  185.3880  174.6930  135.8710 C   0  0  0  0  0  2  0  0  0  0  0  0
  187.3410  176.3260  135.9980 C   0  0  0  0  0  2  0  0  0  0  0  0
  183.2270  175.9340  136.0530 C   0  0  0  0  0  0  0  0  0  0  0  0
  182.1350  176.1140  136.9700 N   0  0  0  0  0  0  0  0  0  0  0  0
  183.0050  175.8790  134.8120 O   0  0  0  0  0  0  0  0  0  0  0  0
  182.2880  176.9620  139.1520 O   0  0  0  0  0  0  0  0  0  0  0  0
  182.2390  177.1980  137.9120 C   0  0  0  0  0  0  0  0  0  0  0  0
  181.0430  175.1140  137.1060 C   0  0  2  0  0  0  0  0  0  0  0  0
  180.2320  175.0850  135.8100 C   0  0  0  0  0  1  0  0  0  0  0  0
  179.3060  176.3440  138.1900 O   0  0  0  0  0  0  0  0  0  0  0  0
  180.4250  174.8900  139.6390 C   0  0  0  0  0  1  0  0  0  0  0  0
  180.1700  175.4870  138.2920 C   0  0  0  0  0  0  0  0  0  0  0  0
  181.6060  173.6920  137.2990 C   0  0  0  0  0  2  0  0  0  0  0  0
  181.3840  172.8870  136.1770 O   0  0  0  0  0  1  0  0  0  0  0  0
  182.3260  178.6060  137.4060 C   0  0  0  0  0  2  0  0  0  0  0  0
  181.1910  179.4580  137.9650 C   0  0  0  0  0  2  0  0  0  0  0  0
  180.9910  182.2530  138.3810 O   0  0  0  0  0  0  0  0  0  0  0  0
  179.6630  178.9420  136.2310 O   0  0  0  0  0  0  0  0  0  0  0  0
  180.0550  181.2190  136.4910 N   0  0  0  0  0  2  0  0  0  0  0  0
  180.2640  179.8500  136.8640 C   0  0  0  0  0  0  0  0  0  0  0  0
  180.4530  182.3730  137.2480 C   0  0  0  0  0  0  0  0  0  0  0  0
  180.1910  183.6730  136.7120 N   0  0  0  0  0  2  0  0  0  0  0  0
  179.3280  185.9030  137.2110 C   0  0  0  0  0  1  0  0  0  0  0  0
  180.4340  184.8980  137.4650 C   0  0  0  0  0  2  0  0  0  0  0  0
  191.8630  176.3040  138.8040 C   0  0  1  0  0  3  0  0  0  0  0  0
  193.3580  176.5470  138.5430 C   0  0  1  0  0  3  0  0  0  0  0  0
  193.8330  177.6280  139.2820 O   0  0  0  0  0  1  0  0  0  0  0  0
  194.2310  175.3220  138.7600 C   0  0  0  0  0  1  0  0  0  0  0  0
  191.2780  177.5060  139.5470 C   0  0  0  0  0  2  0  0  0  0  0  0
  191.1280  177.2770  141.0400 C   0  0  2  0  0  3  0  0  0  0  0  0
  190.4100  175.9820  141.2340 C   0  0  0  0  0  3  0  0  0  0  0  0
  190.3700  175.4420  142.3300 O   0  0  0  0  0  0  0  0  0  0  0  0
  190.3550  178.3310  141.5650 O   0  0  0  0  0  0  0  0  0  0  0  0
  188.9520  178.1450  141.3890 C   0  0  1  0  0  0  0  0  0  0  0  0
  188.3220  179.2960  141.8820 O   0  0  0  0  0  1  0  0  0  0  0  0
  188.0610  176.9730  139.3990 C   0  0  0  0  0  2  0  0  0  0  0  0
  188.6740  178.0380  139.9030 C   0  0  0  0  0  0  0  0  0  0  0  0
  188.9930  179.0850  139.0470 O   0  0  0  0  0  1  0  0  0  0  0  0
  188.3470  176.9320  142.1470 C   0  0  0  0  0  2  0  0  0  0  0  0
  187.0580  177.2720  142.7350 N   0  0  0  0  0  2  0  0  0  0  0  0
  187.0570  176.7270  144.0860 C   0  0  0  0  0  2  0  0  0  0  0  0
  187.0380  177.8520  145.0690 C   0  0  0  0  0  0  0  0  0  0  0  0
  185.9720  178.6400  145.2530 C   0  0  0  0  0  3  0  0  0  0  0  0
  184.7300  178.6320  144.4430 C   0  0  0  0  0  0  0  0  0  0  0  0
  183.6630  178.1590  144.9160 O   0  0  0  0  0  0  0  0  0  0  0  0
  184.7640  179.0870  143.0400 C   0  0  0  0  0  0  0  0  0  0  0  0
  185.4940  180.1430  142.6880 C   0  0  0  0  0  2  0  0  0  0  0  0
  183.7740  178.5540  142.0650 C   0  0  0  0  0  1  0  0  0  0  0  0
  188.2640  178.0870  145.8830 C   0  0  0  0  0  2  0  0  0  0  0  0
  188.9880  176.8360  146.0980 N   0  0  0  0  0  2  0  0  0  0  0  0
  190.0410  176.7990  145.1030 C   0  0  0  0  0  2  0  0  0  0  0  0
  191.3600  176.5870  145.7670 C   0  0  0  0  0  0  0  0  0  0  0  0
  192.0330  177.6560  146.3470 O   0  0  0  0  0  1  0  0  0  0  0  0
  191.8730  175.4370  145.7880 O   0  0  0  0  0  0  0  0  0  0  0  0
  2  1  1  0  0  0  0
  2 40  1  1  0  0  0
  3  6  2  0  0  0  0
  4  6  1  0  0  0  0
  4  5  1  0  0  0  0
  5  7  1  6  0  0  0
  5  1  1  0  0  0  0
  6  2  1  0  0  0  0
  7 10  1  0  0  0  0
  9 10  1  0  0  0  0
  9  8  1  0  0  0  0
 10 11  1  0  0  0  0
 10  8  1  0  0  0  0
 12 13  1  0  0  0  0
 13 18  1  6  0  0  0
 14 16  1  0  0  0  0
 14 17  1  0  0  0  0
 14 11  1  1  0  0  0
 15 17  1  0  0  0  0
 15 12  1  0  0  0  0
 16 13  1  0  0  0  0
 18 19  1  0  0  0  0
 19 23  1  0  0  0  0
 19 22  1  0  0  0  0
 20 18  2  0  0  0  0
 22 21  2  0  0  0  0
 23 24  1  6  0  0  0
 23 28  1  0  0  0  0
 23 27  1  0  0  0  0
 25 27  2  0  0  0  0
 27 26  1  0  0  0  0
 29 28  1  0  0  0  0
 30 22  1  0  0  0  0
 30 31  1  0  0  0  0
 33 35  2  0  0  0  0
 34 35  1  0  0  0  0
 34 36  1  0  0  0  0
 35 31  1  0  0  0  0
 36 32  2  0  0  0  0
 37 36  1  0  0  0  0
 37 39  1  0  0  0  0
 38 39  1  0  0  0  0
 40 44  1  6  0  0  0
 41 43  1  1  0  0  0
 41 40  1  0  0  0  0
 41 42  1  0  0  0  0
 45 44  1  6  0  0  0
 45 46  1  0  0  0  0
 45 48  1  0  0  0  0
 46 47  2  0  0  0  0
 49 48  1  0  0  0  0
 49 50  1  1  0  0  0
 49 54  1  0  0  0  0
 51 52  2  0  0  0  0
 52 49  1  0  0  0  0
 53 52  1  0  0  0  0
 54 55  1  0  0  0  0
 55 56  1  0  0  0  0
 56 57  1  0  0  0  0
 57 58  2  0  0  0  0
 57 64  1  0  0  0  0
 59 60  2  0  0  0  0
 59 58  1  0  0  0  0
 61 59  1  0  0  0  0
 62 61  2  0  0  0  0
 63 61  1  0  0  0  0
 64 65  1  0  0  0  0
 66 67  1  0  0  0  0
 66 65  1  0  0  0  0
 67 69  2  0  0  0  0
 67 68  1  0  0  0  0
M  END
>  <MODEL>
3

>  <REMARK>
 VINA RESULT:      -2.8      2.695      9.118
  Name = 
  30 active torsions:
  status: ('A' for Active; 'I' for Inactive)
    1  A    between atoms: C_1  and  C_16
    2  A    between atoms: C_1  and  C_35
    3  A    between atoms: O_3  and  C_19
    4  A    between atoms: O_3  and  C_48
    5  A    between atoms: N_4  and  C_23
    6  A    between atoms: N_4  and  C_35
    7  A    between atoms: C_5  and  C_34
    8  A    between atoms: C_8  and  C_25
    9  A    between atoms: C_9  and  C_64
   10  A    between atoms: C_9  and  C_69
   11  A    between atoms: C_10  and  C_25
   12  A    between atoms: C_11  and  C_27
   13  A    between atoms: C_13  and  C_34
   14  A    between atoms: C_14  and  C_41
   15  A    between atoms: C_15  and  C_23
   16  A    between atoms: C_16  and  N_26
   17  A    between atoms: C_25  and  C_36
   18  A    between atoms: N_26  and  C_38
   19  A    between atoms: C_27  and  N_43
   20  A    between atoms: C_27  and  C_59
   21  A    between atoms: C_31  and  C_48
   22  A    between atoms: C_31  and  C_53
   23  A    between atoms: C_33  and  N_65
   24  A    between atoms: C_36  and  C_39
   25  A    between atoms: C_38  and  C_46
   26  A    between atoms: C_39  and  C_40
   27  A    between atoms: C_39  and  O_42
   28  A    between atoms: O_42  and  C_46
   29  A    between atoms: C_46  and  C_50
   30  A    between atoms: C_52  and  C_69
                            x       y       z     vdW  Elec       q    Type
                         _______ _______ _______ _____ _____    ______ ____

>  <TORSDO>
F 30

$$$$
