=
 OpenBabel11062416503D

 34 36  0  0  1  0  0  0  0  0999 V2000
  187.2460  178.3630  134.5940 C   0  0  0  0  0  1  0  0  0  0  0  0
  187.9290  174.1190  136.3470 C   0  0  0  0  0  1  0  0  0  0  0  0
  186.8010  176.9110  134.6890 C   0  0  2  0  0  3  0  0  0  0  0  0
  186.5120  176.7450  137.0480 C   0  0  1  0  0  3  0  0  0  0  0  0
  185.9000  176.6810  135.7620 O   0  0  0  0  0  0  0  0  0  0  0  0
  188.4620  175.5130  136.0410 C   0  0  2  0  0  3  0  0  0  0  0  0
  188.0360  176.5400  137.0910 C   0  0  2  0  0  3  0  0  0  0  0  0
  187.9900  175.9410  134.6540 C   0  0  0  0  0  2  0  0  0  0  0  0
  186.7790  179.0000  137.7830 O   0  0  0  0  0  0  0  0  0  0  0  0
  184.8900  177.9260  138.6430 N   0  0  0  0  0  0  0  0  0  0  0  0
  186.0700  177.9590  137.8160 C   0  0  0  0  0  0  0  0  0  0  0  0
  181.3350  176.5300  138.5980 C   0  0  0  0  0  1  0  0  0  0  0  0
  183.3590  176.6620  137.1270 C   0  0  0  0  0  2  0  0  0  0  0  0
  182.2980  178.8200  137.7920 C   0  0  0  0  0  1  0  0  0  0  0  0
  183.9050  176.8350  138.5460 C   0  0  2  0  0  3  0  0  0  0  0  0
  182.5220  177.3620  138.1600 C   0  0  0  0  0  0  0  0  0  0  0  0
  184.8970  178.7640  139.8460 C   0  0  2  0  0  3  0  0  0  0  0  0
  184.0860  178.1140  140.9520 C   0  0  0  0  0  1  0  0  0  0  0  0
  184.3900  180.0360  139.5750 O   0  0  0  0  0  1  0  0  0  0  0  0
  188.5010  176.1650  138.4950 C   0  0  0  0  0  2  0  0  0  0  0  0
  189.7140  176.9910  138.9080 C   0  0  1  0  0  3  0  0  0  0  0  0
  188.5140  177.8790  140.9090 C   0  0  0  0  0  3  0  0  0  0  0  0
  189.6790  177.3240  140.3680 C   0  0  0  0  0  0  0  0  0  0  0  0
  188.4520  178.2000  142.2690 C   0  0  0  0  0  3  0  0  0  0  0  0
  190.7870  177.0950  141.1970 C   0  0  0  0  0  3  0  0  0  0  0  0
  190.7260  177.4170  142.5570 C   0  0  0  0  0  3  0  0  0  0  0  0
  189.5580  177.9680  143.0920 C   0  0  0  0  0  3  0  0  0  0  0  0
  192.0610  177.0050  138.4290 O   0  0  0  0  0  0  0  0  0  0  0  0
  191.0000  176.3290  138.5210 C   0  0  0  0  0  0  0  0  0  0  0  0
  191.0030  174.9520  138.2710 O   0  0  0  0  0  0  0  0  0  0  0  0
  191.7520  175.1750  136.1230 F   0  0  0  0  0  0  0  0  0  0  0  0
  191.1990  173.1280  136.8790 F   0  0  0  0  0  0  0  0  0  0  0  0
  193.1330  174.1430  137.6600 N   0  0  0  0  0  1  0  0  0  0  0  0
  191.7610  174.3440  137.2280 C   0  0  0  0  0  0  0  0  0  0  0  0
  3  1  1  1  0  0  0
  3  5  1  0  0  0  0
  4  7  1  0  0  0  0
  4 11  1  6  0  0  0
  5  4  1  0  0  0  0
  6  2  1  1  0  0  0
  6  7  1  0  0  0  0
  7 20  1  1  0  0  0
  8  3  1  0  0  0  0
  8  6  1  0  0  0  0
  9 11  2  0  0  0  0
 10 17  1  0  0  0  0
 11 10  1  0  0  0  0
 13 16  1  0  0  0  0
 13 15  1  0  0  0  0
 14 16  1  0  0  0  0
 15 10  1  6  0  0  0
 16 15  1  0  0  0  0
 16 12  1  0  0  0  0
 17 18  1  1  0  0  0
 19 17  1  0  0  0  0
 21 20  1  1  0  0  0
 21 23  1  0  0  0  0
 22 24  1  0  0  0  0
 23 22  2  0  0  0  0
 23 25  1  0  0  0  0
 24 27  2  0  0  0  0
 25 26  2  0  0  0  0
 26 27  1  0  0  0  0
 28 29  2  0  0  0  0
 29 21  1  0  0  0  0
 30 29  1  0  0  0  0
 31 34  1  0  0  0  0
 32 34  1  0  0  0  0
 34 33  1  0  0  0  0
 34 30  1  0  0  0  0
M  END
>  <MODEL>
1

>  <REMARK>
 VINA RESULT:      -5.8      0.000      0.000
  Name = 
  9 active torsions:
  status: ('A' for Active; 'I' for Inactive)
    1  A    between atoms: O_4  and  C_27
    2  A    between atoms: O_4  and  C_29
    3  A    between atoms: C_7  and  C_9
    4  A    between atoms: C_7  and  C_30
    5  A    between atoms: C_9  and  C_11
    6  A    between atoms: C_9  and  C_27
    7  A    between atoms: C_14  and  N_26
    8  A    between atoms: C_18  and  C_34
    9  A    between atoms: C_23  and  N_26
                            x       y       z     vdW  Elec       q    Type
                         _______ _______ _______ _____ _____    ______ ____

>  <TORSDO>
F 9

$$$$
=
 OpenBabel11062416503D

 34 36  0  0  1  0  0  0  0  0999 V2000
  190.6030  179.3300  142.8830 C   0  0  0  0  0  1  0  0  0  0  0  0
  188.0180  175.5770  143.7710 C   0  0  0  0  0  1  0  0  0  0  0  0
  190.5100  177.8150  142.9940 C   0  0  2  0  0  3  0  0  0  0  0  0
  188.7540  177.4180  141.4320 C   0  0  1  0  0  3  0  0  0  0  0  0
  190.1210  177.1970  141.7760 O   0  0  0  0  0  0  0  0  0  0  0  0
  188.2200  177.0840  143.8690 C   0  0  2  0  0  3  0  0  0  0  0  0
  187.8130  177.8080  142.5850 C   0  0  2  0  0  3  0  0  0  0  0  0
  189.6790  177.3780  144.2090 C   0  0  0  0  0  2  0  0  0  0  0  0
  188.6000  179.5720  140.4170 O   0  0  0  0  0  0  0  0  0  0  0  0
  188.4360  177.7880  138.9160 N   0  0  0  0  0  0  0  0  0  0  0  0
  188.6180  178.3240  140.2420 C   0  0  0  0  0  0  0  0  0  0  0  0
  189.4960  174.9120  136.6360 C   0  0  0  0  0  1  0  0  0  0  0  0
  190.1390  175.9630  138.8190 C   0  0  0  0  0  2  0  0  0  0  0  0
  190.3120  177.3890  136.7800 C   0  0  0  0  0  1  0  0  0  0  0  0
  188.6770  176.3660  138.6150 C   0  0  2  0  0  3  0  0  0  0  0  0
  189.6240  176.1970  137.4260 C   0  0  0  0  0  0  0  0  0  0  0  0
  187.6270  178.5780  137.9830 C   0  0  2  0  0  3  0  0  0  0  0  0
  186.7650  177.6710  137.1250 C   0  0  0  0  0  1  0  0  0  0  0  0
  188.4360  179.3720  137.1670 O   0  0  0  0  0  1  0  0  0  0  0  0
  186.3550  177.5600  142.2130 C   0  0  0  0  0  2  0  0  0  0  0  0
  185.5510  178.8550  142.2570 C   0  0  1  0  0  3  0  0  0  0  0  0
  184.7410  179.2860  139.9350 C   0  0  0  0  0  3  0  0  0  0  0  0
  184.4550  178.8560  141.2360 C   0  0  0  0  0  0  0  0  0  0  0  0
  183.7370  179.2970  138.9620 C   0  0  0  0  0  3  0  0  0  0  0  0
  183.1550  178.4400  141.5590 C   0  0  0  0  0  3  0  0  0  0  0  0
  182.1510  178.4510  140.5850 C   0  0  0  0  0  3  0  0  0  0  0  0
  182.4430  178.8790  139.2870 C   0  0  0  0  0  3  0  0  0  0  0  0
  184.6470  180.3060  143.9350 O   0  0  0  0  0  0  0  0  0  0  0  0
  185.0300  179.1430  143.6310 C   0  0  0  0  0  0  0  0  0  0  0  0
  184.9700  178.1010  144.5630 O   0  0  0  0  0  0  0  0  0  0  0  0
  186.5940  179.0970  145.8270 F   0  0  0  0  0  0  0  0  0  0  0  0
  186.0990  176.9320  146.1950 F   0  0  0  0  0  0  0  0  0  0  0  0
  184.5890  178.5680  146.8440 N   0  0  0  0  0  1  0  0  0  0  0  0
  185.5730  178.1660  145.8540 C   0  0  0  0  0  0  0  0  0  0  0  0
  3  1  1  6  0  0  0
  3  8  1  0  0  0  0
  4 11  1  6  0  0  0
  4  5  1  0  0  0  0
  4  7  1  0  0  0  0
  5  3  1  0  0  0  0
  6  2  1  6  0  0  0
  6  8  1  0  0  0  0
  7 20  1  6  0  0  0
  7  6  1  0  0  0  0
 10 11  1  0  0  0  0
 11  9  2  0  0  0  0
 12 16  1  0  0  0  0
 14 16  1  0  0  0  0
 15 13  1  0  0  0  0
 15 10  1  1  0  0  0
 16 15  1  0  0  0  0
 16 13  1  0  0  0  0
 17 18  1  6  0  0  0
 17 10  1  0  0  0  0
 19 17  1  0  0  0  0
 21 20  1  1  0  0  0
 21 29  1  0  0  0  0
 22 23  1  0  0  0  0
 23 25  2  0  0  0  0
 23 21  1  0  0  0  0
 24 27  1  0  0  0  0
 24 22  2  0  0  0  0
 26 25  1  0  0  0  0
 27 26  2  0  0  0  0
 29 28  2  0  0  0  0
 29 30  1  0  0  0  0
 30 34  1  0  0  0  0
 31 34  1  0  0  0  0
 34 32  1  0  0  0  0
 34 33  1  0  0  0  0
M  END
>  <MODEL>
2

>  <REMARK>
 VINA RESULT:      -5.5      3.848      7.683
  Name = 
  9 active torsions:
  status: ('A' for Active; 'I' for Inactive)
    1  A    between atoms: O_4  and  C_27
    2  A    between atoms: O_4  and  C_29
    3  A    between atoms: C_7  and  C_9
    4  A    between atoms: C_7  and  C_30
    5  A    between atoms: C_9  and  C_11
    6  A    between atoms: C_9  and  C_27
    7  A    between atoms: C_14  and  N_26
    8  A    between atoms: C_18  and  C_34
    9  A    between atoms: C_23  and  N_26
                            x       y       z     vdW  Elec       q    Type
                         _______ _______ _______ _____ _____    ______ ____

>  <TORSDO>
F 9

$$$$
=
 OpenBabel11062416503D

 34 36  0  0  1  0  0  0  0  0999 V2000
  187.7290  180.1380  136.7220 C   0  0  0  0  0  1  0  0  0  0  0  0
  189.4830  176.1540  138.3390 C   0  0  0  0  0  1  0  0  0  0  0  0
  188.1740  178.7090  136.4460 C   0  0  2  0  0  3  0  0  0  0  0  0
  186.7790  177.5590  137.9990 C   0  0  1  0  0  3  0  0  0  0  0  0
  187.1320  177.7620  136.6320 O   0  0  0  0  0  0  0  0  0  0  0  0
  189.2420  177.6480  138.5150 C   0  0  2  0  0  3  0  0  0  0  0  0
  187.8390  177.9510  139.0440 C   0  0  2  0  0  3  0  0  0  0  0  0
  189.4740  178.3590  137.1840 C   0  0  0  0  0  2  0  0  0  0  0  0
  185.3220  179.3190  138.6880 O   0  0  0  0  0  0  0  0  0  0  0  0
  184.2450  177.2890  138.2630 N   0  0  0  0  0  0  0  0  0  0  0  0
  185.4210  178.1200  138.3140 C   0  0  0  0  0  0  0  0  0  0  0  0
  182.8140  174.5970  135.9620 C   0  0  0  0  0  1  0  0  0  0  0  0
  184.8760  175.9980  136.2200 C   0  0  0  0  0  2  0  0  0  0  0  0
  182.7270  177.2040  135.8270 C   0  0  0  0  0  1  0  0  0  0  0  0
  184.2580  175.9640  137.6190 C   0  0  2  0  0  3  0  0  0  0  0  0
  183.3810  175.9410  136.3660 C   0  0  0  0  0  0  0  0  0  0  0  0
  183.1660  177.6040  139.2050 C   0  0  2  0  0  3  0  0  0  0  0  0
  182.5110  176.3320  139.7090 C   0  0  0  0  0  1  0  0  0  0  0  0
  182.2060  178.4260  138.6120 O   0  0  0  0  0  1  0  0  0  0  0  0
  187.5640  177.2760  140.3840 C   0  0  0  0  0  2  0  0  0  0  0  0
  187.8970  178.2080  141.5440 C   0  0  1  0  0  3  0  0  0  0  0  0
  185.5480  178.8850  142.0550 C   0  0  0  0  0  3  0  0  0  0  0  0
  186.7510  178.3240  142.5010 C   0  0  0  0  0  0  0  0  0  0  0  0
  184.4620  179.0050  142.9270 C   0  0  0  0  0  3  0  0  0  0  0  0
  186.8610  177.8870  143.8300 C   0  0  0  0  0  3  0  0  0  0  0  0
  185.7750  178.0080  144.7020 C   0  0  0  0  0  3  0  0  0  0  0  0
  184.5750  178.5660  144.2500 C   0  0  0  0  0  3  0  0  0  0  0  0
  189.4240  176.5890  142.4290 O   0  0  0  0  0  0  0  0  0  0  0  0
  189.1620  177.8080  142.2380 C   0  0  0  0  0  0  0  0  0  0  0  0
  190.0460  178.8070  142.6610 O   0  0  0  0  0  0  0  0  0  0  0  0
  189.7020  178.4960  144.8990 F   0  0  0  0  0  0  0  0  0  0  0  0
  191.1440  180.0880  144.2270 F   0  0  0  0  0  0  0  0  0  0  0  0
  191.7340  177.8560  144.0070 N   0  0  0  0  0  1  0  0  0  0  0  0
  190.6520  178.8240  143.9510 C   0  0  0  0  0  0  0  0  0  0  0  0
  3  5  1  0  0  0  0
  3  1  1  1  0  0  0
  3  8  1  0  0  0  0
  4 11  1  1  0  0  0
  4  7  1  0  0  0  0
  5  4  1  0  0  0  0
  6  2  1  6  0  0  0
  6  7  1  0  0  0  0
  7 20  1  1  0  0  0
  8  6  1  0  0  0  0
 10 11  1  0  0  0  0
 10 17  1  0  0  0  0
 11  9  2  0  0  0  0
 12 16  1  0  0  0  0
 13 16  1  0  0  0  0
 13 15  1  0  0  0  0
 14 16  1  0  0  0  0
 15 10  1  1  0  0  0
 16 15  1  0  0  0  0
 17 18  1  6  0  0  0
 19 17  1  0  0  0  0
 21 20  1  6  0  0  0
 21 29  1  0  0  0  0
 21 23  1  0  0  0  0
 22 23  2  0  0  0  0
 22 24  1  0  0  0  0
 23 25  1  0  0  0  0
 24 27  2  0  0  0  0
 25 26  2  0  0  0  0
 27 26  1  0  0  0  0
 29 28  2  0  0  0  0
 29 30  1  0  0  0  0
 30 34  1  0  0  0  0
 34 33  1  0  0  0  0
 34 32  1  0  0  0  0
 34 31  1  0  0  0  0
M  END
>  <MODEL>
3

>  <REMARK>
 VINA RESULT:      -5.5      3.389      4.381
  Name = 
  9 active torsions:
  status: ('A' for Active; 'I' for Inactive)
    1  A    between atoms: O_4  and  C_27
    2  A    between atoms: O_4  and  C_29
    3  A    between atoms: C_7  and  C_9
    4  A    between atoms: C_7  and  C_30
    5  A    between atoms: C_9  and  C_11
    6  A    between atoms: C_9  and  C_27
    7  A    between atoms: C_14  and  N_26
    8  A    between atoms: C_18  and  C_34
    9  A    between atoms: C_23  and  N_26
                            x       y       z     vdW  Elec       q    Type
                         _______ _______ _______ _____ _____    ______ ____

>  <TORSDO>
F 9

$$$$
=
 OpenBabel11062416503D

 34 36  0  0  1  0  0  0  0  0999 V2000
  181.2540  180.7740  139.1730 C   0  0  0  0  0  1  0  0  0  0  0  0
  180.1270  176.3700  140.1190 C   0  0  0  0  0  1  0  0  0  0  0  0
  180.5330  179.7840  140.0760 C   0  0  2  0  0  3  0  0  0  0  0  0
  182.3700  178.3870  140.6690 C   0  0  1  0  0  3  0  0  0  0  0  0
  181.3590  179.2870  141.1190 O   0  0  0  0  0  0  0  0  0  0  0  0
  180.6360  177.4100  139.1280 C   0  0  2  0  0  3  0  0  0  0  0  0
  182.1250  177.7060  139.3110 C   0  0  2  0  0  3  0  0  0  0  0  0
  179.8160  178.6900  139.2730 C   0  0  0  0  0  2  0  0  0  0  0  0
  184.1870  179.6780  139.8160 O   0  0  0  0  0  0  0  0  0  0  0  0
  184.5790  178.7370  141.9190 N   0  0  0  0  0  0  0  0  0  0  0  0
  183.7420  178.9910  140.7740 C   0  0  0  0  0  0  0  0  0  0  0  0
  184.3170  178.4190  145.7170 C   0  0  0  0  0  1  0  0  0  0  0  0
  182.8780  178.9530  143.7350 C   0  0  0  0  0  2  0  0  0  0  0  0
  184.7950  180.4830  144.1890 C   0  0  0  0  0  1  0  0  0  0  0  0
  184.0420  178.1460  143.1570 C   0  0  2  0  0  3  0  0  0  0  0  0
  184.2410  179.0770  144.3550 C   0  0  0  0  0  0  0  0  0  0  0  0
  186.0270  178.6980  141.6900 C   0  0  2  0  0  3  0  0  0  0  0  0
  186.7030  177.7980  142.7080 C   0  0  0  0  0  1  0  0  0  0  0  0
  186.5800  179.9790  141.7510 O   0  0  0  0  0  1  0  0  0  0  0  0
  182.9900  176.4590  139.1580 C   0  0  0  0  0  2  0  0  0  0  0  0
  183.0550  176.0150  137.7000 C   0  0  1  0  0  3  0  0  0  0  0  0
  184.2460  176.6220  135.5910 C   0  0  0  0  0  3  0  0  0  0  0  0
  184.2210  176.6330  136.9900 C   0  0  0  0  0  0  0  0  0  0  0  0
  185.3210  177.1920  134.9020 C   0  0  0  0  0  3  0  0  0  0  0  0
  185.2830  177.2160  137.6980 C   0  0  0  0  0  3  0  0  0  0  0  0
  186.3580  177.7850  137.0090 C   0  0  0  0  0  3  0  0  0  0  0  0
  186.3770  177.7740  135.6110 C   0  0  0  0  0  3  0  0  0  0  0  0
  182.0410  173.9290  137.1050 O   0  0  0  0  0  0  0  0  0  0  0  0
  183.0520  174.5240  137.5690 C   0  0  0  0  0  0  0  0  0  0  0  0
  184.1880  173.8080  137.9620 O   0  0  0  0  0  0  0  0  0  0  0  0
  184.8790  173.4110  135.8200 F   0  0  0  0  0  0  0  0  0  0  0  0
  184.2520  171.6720  137.1040 F   0  0  0  0  0  0  0  0  0  0  0  0
  186.2560  172.7500  137.5520 N   0  0  0  0  0  1  0  0  0  0  0  0
  184.8820  172.9050  137.1060 C   0  0  0  0  0  0  0  0  0  0  0  0
  3  1  1  6  0  0  0
  3  5  1  0  0  0  0
  4 11  1  6  0  0  0
  4  5  1  0  0  0  0
  6  8  1  0  0  0  0
  6  7  1  0  0  0  0
  6  2  1  1  0  0  0
  7 20  1  1  0  0  0
  7  4  1  0  0  0  0
  8  3  1  0  0  0  0
  9 11  2  0  0  0  0
 11 10  1  0  0  0  0
 13 16  1  0  0  0  0
 14 16  1  0  0  0  0
 15 10  1  6  0  0  0
 15 13  1  0  0  0  0
 15 16  1  0  0  0  0
 16 12  1  0  0  0  0
 17 19  1  0  0  0  0
 17 10  1  0  0  0  0
 17 18  1  1  0  0  0
 21 20  1  1  0  0  0
 22 23  1  0  0  0  0
 23 25  2  0  0  0  0
 23 21  1  0  0  0  0
 24 22  2  0  0  0  0
 24 27  1  0  0  0  0
 26 25  1  0  0  0  0
 27 26  2  0  0  0  0
 28 29  2  0  0  0  0
 29 21  1  0  0  0  0
 29 30  1  0  0  0  0
 31 34  1  0  0  0  0
 32 34  1  0  0  0  0
 34 33  1  0  0  0  0
 34 30  1  0  0  0  0
M  END
>  <MODEL>
4

>  <REMARK>
 VINA RESULT:      -5.5      3.789      6.922
  Name = 
  9 active torsions:
  status: ('A' for Active; 'I' for Inactive)
    1  A    between atoms: O_4  and  C_27
    2  A    between atoms: O_4  and  C_29
    3  A    between atoms: C_7  and  C_9
    4  A    between atoms: C_7  and  C_30
    5  A    between atoms: C_9  and  C_11
    6  A    between atoms: C_9  and  C_27
    7  A    between atoms: C_14  and  N_26
    8  A    between atoms: C_18  and  C_34
    9  A    between atoms: C_23  and  N_26
                            x       y       z     vdW  Elec       q    Type
                         _______ _______ _______ _____ _____    ______ ____

>  <TORSDO>
F 9

$$$$
=
 OpenBabel11062416503D

 34 36  0  0  1  0  0  0  0  0999 V2000
  191.6470  178.6440  141.7950 C   0  0  0  0  0  1  0  0  0  0  0  0
  189.7380  174.7960  143.5580 C   0  0  0  0  0  1  0  0  0  0  0  0
  191.6110  177.1240  141.8560 C   0  0  2  0  0  3  0  0  0  0  0  0
  189.3380  176.7610  141.2390 C   0  0  1  0  0  3  0  0  0  0  0  0
  190.7120  176.5550  140.9160 O   0  0  0  0  0  0  0  0  0  0  0  0
  189.9650  176.3010  143.6330 C   0  0  2  0  0  3  0  0  0  0  0  0
  189.0220  177.0760  142.7120 C   0  0  2  0  0  3  0  0  0  0  0  0
  191.4200  176.6110  143.2910 C   0  0  0  0  0  2  0  0  0  0  0  0
  188.4080  178.8870  140.6800 O   0  0  0  0  0  0  0  0  0  0  0  0
  188.2900  177.3030  138.9650 N   0  0  0  0  0  0  0  0  0  0  0  0
  188.6790  177.7200  140.2880 C   0  0  0  0  0  0  0  0  0  0  0  0
  189.5170  175.1490  136.0590 C   0  0  0  0  0  1  0  0  0  0  0  0
  190.3050  175.9940  138.2830 C   0  0  0  0  0  2  0  0  0  0  0  0
  189.7790  177.7020  136.5420 C   0  0  0  0  0  1  0  0  0  0  0  0
  188.7780  176.0460  138.3720 C   0  0  2  0  0  3  0  0  0  0  0  0
  189.5030  176.2950  137.0480 C   0  0  0  0  0  0  0  0  0  0  0  0
  187.0980  177.9370  138.3910 C   0  0  2  0  0  3  0  0  0  0  0  0
  186.2910  176.9290  137.5940 C   0  0  0  0  0  1  0  0  0  0  0  0
  187.4470  179.0140  137.5740 O   0  0  0  0  0  1  0  0  0  0  0  0
  187.5530  176.8140  143.0270 C   0  0  0  0  0  2  0  0  0  0  0  0
  186.9890  177.8930  143.9440 C   0  0  1  0  0  3  0  0  0  0  0  0
  185.2390  178.2130  142.1920 C   0  0  0  0  0  3  0  0  0  0  0  0
  185.6000  178.2840  143.5420 C   0  0  0  0  0  0  0  0  0  0  0  0
  183.9490  178.5700  141.7890 C   0  0  0  0  0  3  0  0  0  0  0  0
  184.6600  178.7200  144.4890 C   0  0  0  0  0  3  0  0  0  0  0  0
  183.3710  179.0780  144.0850 C   0  0  0  0  0  3  0  0  0  0  0  0
  183.0150  179.0030  142.7350 C   0  0  0  0  0  3  0  0  0  0  0  0
  186.4260  176.4840  145.7970 O   0  0  0  0  0  0  0  0  0  0  0  0
  187.0590  177.4950  145.3860 C   0  0  0  0  0  0  0  0  0  0  0  0
  187.8420  178.2570  146.2600 O   0  0  0  0  0  0  0  0  0  0  0  0
  190.1250  178.2340  146.1600 F   0  0  0  0  0  0  0  0  0  0  0  0
  189.0450  176.3880  146.8620 F   0  0  0  0  0  0  0  0  0  0  0  0
  189.1230  178.2510  148.2410 N   0  0  0  0  0  1  0  0  0  0  0  0
  189.0340  177.7720  146.8720 C   0  0  0  0  0  0  0  0  0  0  0  0
  3  1  1  1  0  0  0
  3  8  1  0  0  0  0
  4 11  1  6  0  0  0
  4  7  1  0  0  0  0
  5  4  1  0  0  0  0
  5  3  1  0  0  0  0
  6  2  1  6  0  0  0
  7 20  1  1  0  0  0
  7  6  1  0  0  0  0
  8  6  1  0  0  0  0
 10 11  1  0  0  0  0
 11  9  2  0  0  0  0
 12 16  1  0  0  0  0
 13 15  1  0  0  0  0
 14 16  1  0  0  0  0
 15 10  1  1  0  0  0
 16 13  1  0  0  0  0
 16 15  1  0  0  0  0
 17 18  1  6  0  0  0
 17 10  1  0  0  0  0
 19 17  1  0  0  0  0
 21 20  1  6  0  0  0
 21 29  1  0  0  0  0
 22 23  1  0  0  0  0
 23 21  1  0  0  0  0
 23 25  2  0  0  0  0
 24 22  2  0  0  0  0
 24 27  1  0  0  0  0
 26 25  1  0  0  0  0
 27 26  2  0  0  0  0
 29 28  2  0  0  0  0
 29 30  1  0  0  0  0
 30 34  1  0  0  0  0
 31 34  1  0  0  0  0
 32 34  1  0  0  0  0
 34 33  1  0  0  0  0
M  END
>  <MODEL>
5

>  <REMARK>
 VINA RESULT:      -5.4      4.176      7.241
  Name = 
  9 active torsions:
  status: ('A' for Active; 'I' for Inactive)
    1  A    between atoms: O_4  and  C_27
    2  A    between atoms: O_4  and  C_29
    3  A    between atoms: C_7  and  C_9
    4  A    between atoms: C_7  and  C_30
    5  A    between atoms: C_9  and  C_11
    6  A    between atoms: C_9  and  C_27
    7  A    between atoms: C_14  and  N_26
    8  A    between atoms: C_18  and  C_34
    9  A    between atoms: C_23  and  N_26
                            x       y       z     vdW  Elec       q    Type
                         _______ _______ _______ _____ _____    ______ ____

>  <TORSDO>
F 9

$$$$
=
 OpenBabel11062416503D

 34 36  0  0  1  0  0  0  0  0999 V2000
  188.4230  175.4140  143.2630 C   0  0  0  0  0  1  0  0  0  0  0  0
  188.6370  179.4440  140.9670 C   0  0  0  0  0  1  0  0  0  0  0  0
  189.1930  176.6870  142.9450 C   0  0  2  0  0  3  0  0  0  0  0  0
  187.5700  178.3010  143.6040 C   0  0  1  0  0  3  0  0  0  0  0  0
  188.8710  177.7590  143.8180 O   0  0  0  0  0  0  0  0  0  0  0  0
  188.0160  178.0630  141.1380 C   0  0  2  0  0  3  0  0  0  0  0  0
  186.9390  178.0420  142.2250 C   0  0  2  0  0  3  0  0  0  0  0  0
  189.1130  177.0510  141.4550 C   0  0  0  0  0  2  0  0  0  0  0  0
  185.4650  177.5910  144.4780 O   0  0  0  0  0  0  0  0  0  0  0  0
  187.0380  178.1690  146.1080 N   0  0  0  0  0  0  0  0  0  0  0  0
  186.6360  177.9760  144.7360 C   0  0  0  0  0  0  0  0  0  0  0  0
  189.8980  178.4690  148.6220 C   0  0  0  0  0  1  0  0  0  0  0  0
  189.2210  177.0820  146.6470 C   0  0  0  0  0  2  0  0  0  0  0  0
  187.7280  177.0150  148.6450 C   0  0  0  0  0  1  0  0  0  0  0  0
  188.4460  178.3910  146.4800 C   0  0  2  0  0  3  0  0  0  0  0  0
  188.7540  177.8250  147.8680 C   0  0  0  0  0  0  0  0  0  0  0  0
  185.9890  178.5420  147.0620 C   0  0  2  0  0  3  0  0  0  0  0  0
  184.6160  178.2600  146.4810 C   0  0  0  0  0  1  0  0  0  0  0  0
  186.0860  179.8890  147.4140 O   0  0  0  0  0  1  0  0  0  0  0  0
  185.8090  179.0270  141.9430 C   0  0  0  0  0  2  0  0  0  0  0  0
  184.7490  178.4000  141.0430 C   0  0  1  0  0  3  0  0  0  0  0  0
  183.2530  178.9230  142.9730 C   0  0  0  0  0  3  0  0  0  0  0  0
  183.3800  178.5300  141.6360 C   0  0  0  0  0  0  0  0  0  0  0  0
  181.9870  179.0530  143.5520 C   0  0  0  0  0  3  0  0  0  0  0  0
  182.2280  178.2650  140.8800 C   0  0  0  0  0  3  0  0  0  0  0  0
  180.9620  178.3940  141.4590 C   0  0  0  0  0  3  0  0  0  0  0  0
  180.8410  178.7890  142.7950 C   0  0  0  0  0  3  0  0  0  0  0  0
  184.5660  180.1650  139.4340 O   0  0  0  0  0  0  0  0  0  0  0  0
  184.8060  178.9450  139.6500 C   0  0  0  0  0  0  0  0  0  0  0  0
  185.1350  178.0810  138.6000 O   0  0  0  0  0  0  0  0  0  0  0  0
  183.1100  178.1960  137.5450 F   0  0  0  0  0  0  0  0  0  0  0  0
  183.6940  176.2850  138.5820 F   0  0  0  0  0  0  0  0  0  0  0  0
  184.7570  176.8760  136.6070 N   0  0  0  0  0  1  0  0  0  0  0  0
  184.1670  177.3570  137.8450 C   0  0  0  0  0  0  0  0  0  0  0  0
  3  1  1  6  0  0  0
  3  5  1  0  0  0  0
  4  5  1  0  0  0  0
  4 11  1  1  0  0  0
  6  2  1  1  0  0  0
  6  8  1  0  0  0  0
  6  7  1  0  0  0  0
  7 20  1  6  0  0  0
  7  4  1  0  0  0  0
  8  3  1  0  0  0  0
  9 11  2  0  0  0  0
 10 17  1  0  0  0  0
 11 10  1  0  0  0  0
 13 16  1  0  0  0  0
 15 10  1  6  0  0  0
 15 13  1  0  0  0  0
 15 16  1  0  0  0  0
 16 12  1  0  0  0  0
 16 14  1  0  0  0  0
 17 18  1  6  0  0  0
 17 19  1  0  0  0  0
 21 23  1  0  0  0  0
 21 20  1  1  0  0  0
 22 24  1  0  0  0  0
 23 22  2  0  0  0  0
 25 26  2  0  0  0  0
 25 23  1  0  0  0  0
 26 27  1  0  0  0  0
 27 24  2  0  0  0  0
 28 29  2  0  0  0  0
 29 21  1  0  0  0  0
 30 29  1  0  0  0  0
 31 34  1  0  0  0  0
 33 34  1  0  0  0  0
 34 32  1  0  0  0  0
 34 30  1  0  0  0  0
M  END
>  <MODEL>
6

>  <REMARK>
 VINA RESULT:      -5.3      4.259      8.237
  Name = 
  9 active torsions:
  status: ('A' for Active; 'I' for Inactive)
    1  A    between atoms: O_4  and  C_27
    2  A    between atoms: O_4  and  C_29
    3  A    between atoms: C_7  and  C_9
    4  A    between atoms: C_7  and  C_30
    5  A    between atoms: C_9  and  C_11
    6  A    between atoms: C_9  and  C_27
    7  A    between atoms: C_14  and  N_26
    8  A    between atoms: C_18  and  C_34
    9  A    between atoms: C_23  and  N_26
                            x       y       z     vdW  Elec       q    Type
                         _______ _______ _______ _____ _____    ______ ____

>  <TORSDO>
F 9

$$$$
=
 OpenBabel11062416503D

 34 36  0  0  1  0  0  0  0  0999 V2000
  182.6610  176.2560  134.6750 C   0  0  0  0  0  1  0  0  0  0  0  0
  184.1820  172.6810  137.2190 C   0  0  0  0  0  1  0  0  0  0  0  0
  182.3530  175.1500  135.6740 C   0  0  2  0  0  3  0  0  0  0  0  0
  183.9030  175.7300  137.3880 C   0  0  1  0  0  3  0  0  0  0  0  0
  182.5360  175.5580  137.0220 O   0  0  0  0  0  0  0  0  0  0  0  0
  184.3880  173.6480  136.0590 C   0  0  2  0  0  3  0  0  0  0  0  0
  184.9410  174.9970  136.5200 C   0  0  2  0  0  3  0  0  0  0  0  0
  183.0680  173.8380  135.3180 C   0  0  0  0  0  2  0  0  0  0  0  0
  184.8440  177.8090  136.6900 O   0  0  0  0  0  0  0  0  0  0  0  0
  183.9670  177.8290  138.8570 N   0  0  0  0  0  0  0  0  0  0  0  0
  184.2460  177.1770  137.6020 C   0  0  0  0  0  0  0  0  0  0  0  0
  181.0830  177.9250  141.3600 C   0  0  0  0  0  1  0  0  0  0  0  0
  181.7580  176.7340  139.2600 C   0  0  0  0  0  2  0  0  0  0  0  0
  181.4620  179.2070  139.1160 C   0  0  0  0  0  1  0  0  0  0  0  0
  183.0760  177.2260  139.8630 C   0  0  2  0  0  3  0  0  0  0  0  0
  181.7840  178.0300  140.0220 C   0  0  0  0  0  0  0  0  0  0  0  0
  184.8910  178.8870  139.2770 C   0  0  2  0  0  3  0  0  0  0  0  0
  185.2310  178.7430  140.7490 C   0  0  0  0  0  1  0  0  0  0  0  0
  184.3470  180.1510  139.0400 O   0  0  0  0  0  1  0  0  0  0  0  0
  186.2720  174.8620  137.2520 C   0  0  0  0  0  2  0  0  0  0  0  0
  187.4170  175.4230  136.4150 C   0  0  1  0  0  3  0  0  0  0  0  0
  188.0050  176.7840  138.4230 C   0  0  0  0  0  3  0  0  0  0  0  0
  187.9900  176.6620  137.0290 C   0  0  0  0  0  0  0  0  0  0  0  0
  188.5350  177.9300  139.0240 C   0  0  0  0  0  3  0  0  0  0  0  0
  188.5070  177.6990  136.2370 C   0  0  0  0  0  3  0  0  0  0  0  0
  189.0370  178.8450  136.8390 C   0  0  0  0  0  3  0  0  0  0  0  0
  189.0510  178.9600  138.2320 C   0  0  0  0  0  3  0  0  0  0  0  0
  188.5010  173.7820  135.0470 O   0  0  0  0  0  0  0  0  0  0  0  0
  188.4730  174.3940  136.1500 C   0  0  0  0  0  0  0  0  0  0  0  0
  189.4250  174.1340  137.1400 O   0  0  0  0  0  0  0  0  0  0  0  0
  190.9270  175.4620  136.0420 F   0  0  0  0  0  0  0  0  0  0  0  0
  191.5550  173.3940  136.6720 F   0  0  0  0  0  0  0  0  0  0  0  0
  191.2800  175.0370  138.2850 N   0  0  0  0  0  1  0  0  0  0  0  0
  190.7990  174.4980  137.0250 C   0  0  0  0  0  0  0  0  0  0  0  0
  3  1  1  6  0  0  0
  3  5  1  0  0  0  0
  4 11  1  6  0  0  0
  5  4  1  0  0  0  0
  6  7  1  0  0  0  0
  6  2  1  1  0  0  0
  7 20  1  1  0  0  0
  7  4  1  0  0  0  0
  8  3  1  0  0  0  0
  8  6  1  0  0  0  0
  9 11  2  0  0  0  0
 10 17  1  0  0  0  0
 11 10  1  0  0  0  0
 13 15  1  0  0  0  0
 13 16  1  0  0  0  0
 14 16  1  0  0  0  0
 15 10  1  6  0  0  0
 15 16  1  0  0  0  0
 16 12  1  0  0  0  0
 17 18  1  1  0  0  0
 19 17  1  0  0  0  0
 21 23  1  0  0  0  0
 21 20  1  1  0  0  0
 22 24  1  0  0  0  0
 23 22  2  0  0  0  0
 25 26  2  0  0  0  0
 25 23  1  0  0  0  0
 26 27  1  0  0  0  0
 27 24  2  0  0  0  0
 28 29  2  0  0  0  0
 29 21  1  0  0  0  0
 29 30  1  0  0  0  0
 31 34  1  0  0  0  0
 32 34  1  0  0  0  0
 34 30  1  0  0  0  0
 34 33  1  0  0  0  0
M  END
>  <MODEL>
7

>  <REMARK>
 VINA RESULT:      -5.2      2.080      3.424
  Name = 
  9 active torsions:
  status: ('A' for Active; 'I' for Inactive)
    1  A    between atoms: O_4  and  C_27
    2  A    between atoms: O_4  and  C_29
    3  A    between atoms: C_7  and  C_9
    4  A    between atoms: C_7  and  C_30
    5  A    between atoms: C_9  and  C_11
    6  A    between atoms: C_9  and  C_27
    7  A    between atoms: C_14  and  N_26
    8  A    between atoms: C_18  and  C_34
    9  A    between atoms: C_23  and  N_26
                            x       y       z     vdW  Elec       q    Type
                         _______ _______ _______ _____ _____    ______ ____

>  <TORSDO>
F 9

$$$$
=
 OpenBabel11062416503D

 34 36  0  0  1  0  0  0  0  0999 V2000
  180.0690  176.7860  140.8400 C   0  0  0  0  0  1  0  0  0  0  0  0
  180.7210  179.5580  137.1730 C   0  0  0  0  0  1  0  0  0  0  0  0
  179.5330  177.3640  139.5390 C   0  0  2  0  0  3  0  0  0  0  0  0
  181.2720  176.6760  138.0610 C   0  0  1  0  0  3  0  0  0  0  0  0
  179.8900  176.5880  138.4030 O   0  0  0  0  0  0  0  0  0  0  0  0
  181.1140  179.1330  138.5830 C   0  0  2  0  0  3  0  0  0  0  0  0
  182.0290  177.9080  138.5860 C   0  0  2  0  0  3  0  0  0  0  0  0
  179.8530  178.8590  139.3980 C   0  0  0  0  0  2  0  0  0  0  0  0
  182.5770  175.2370  139.4470 O   0  0  0  0  0  0  0  0  0  0  0  0
  182.1000  174.3630  137.3310 N   0  0  0  0  0  0  0  0  0  0  0  0
  181.9970  175.3900  138.3380 C   0  0  0  0  0  0  0  0  0  0  0  0
  179.9190  172.7110  134.6660 C   0  0  0  0  0  1  0  0  0  0  0  0
  179.7700  174.4760  136.4390 C   0  0  0  0  0  2  0  0  0  0  0  0
  180.2740  172.1520  137.1930 C   0  0  0  0  0  1  0  0  0  0  0  0
  181.2630  174.3790  136.1190 C   0  0  2  0  0  3  0  0  0  0  0  0
  180.3570  173.1490  136.0480 C   0  0  0  0  0  0  0  0  0  0  0  0
  183.3160  173.5440  137.3370 C   0  0  2  0  0  3  0  0  0  0  0  0
  184.5500  174.4220  137.4270 C   0  0  0  0  0  1  0  0  0  0  0  0
  183.3880  172.7440  136.1950 O   0  0  0  0  0  1  0  0  0  0  0  0
  183.3140  178.1400  137.7970 C   0  0  0  0  0  2  0  0  0  0  0  0
  184.5260  178.1670  138.7220 C   0  0  1  0  0  3  0  0  0  0  0  0
  185.7410  177.6910  136.5930 C   0  0  0  0  0  3  0  0  0  0  0  0
  185.8030  177.9850  137.9600 C   0  0  0  0  0  0  0  0  0  0  0  0
  186.9160  177.5180  135.8570 C   0  0  0  0  0  3  0  0  0  0  0  0
  187.0520  178.1000  138.5880 C   0  0  0  0  0  3  0  0  0  0  0  0
  188.2280  177.9260  137.8520 C   0  0  0  0  0  3  0  0  0  0  0  0
  188.1600  177.6350  136.4860 C   0  0  0  0  0  3  0  0  0  0  0  0
  184.1810  180.5080  139.0930 O   0  0  0  0  0  0  0  0  0  0  0  0
  184.5560  179.4010  139.5690 C   0  0  0  0  0  0  0  0  0  0  0  0
  184.9980  179.3020  140.8930 O   0  0  0  0  0  0  0  0  0  0  0  0
  184.4150  177.4170  142.0470 F   0  0  0  0  0  0  0  0  0  0  0  0
  182.8580  179.0030  141.6900 F   0  0  0  0  0  0  0  0  0  0  0  0
  184.5630  179.4080  143.2090 N   0  0  0  0  0  1  0  0  0  0  0  0
  184.1990  178.7790  141.9510 C   0  0  0  0  0  0  0  0  0  0  0  0
  3  1  1  1  0  0  0
  4 11  1  1  0  0  0
  4  5  1  0  0  0  0
  4  7  1  0  0  0  0
  5  3  1  0  0  0  0
  6  2  1  6  0  0  0
  6  7  1  0  0  0  0
  6  8  1  0  0  0  0
  7 20  1  6  0  0  0
  8  3  1  0  0  0  0
 10 17  1  0  0  0  0
 10 11  1  0  0  0  0
 11  9  2  0  0  0  0
 12 16  1  0  0  0  0
 15 13  1  0  0  0  0
 15 10  1  1  0  0  0
 16 15  1  0  0  0  0
 16 13  1  0  0  0  0
 16 14  1  0  0  0  0
 17 18  1  6  0  0  0
 19 17  1  0  0  0  0
 21 20  1  6  0  0  0
 21 29  1  0  0  0  0
 22 23  1  0  0  0  0
 23 25  2  0  0  0  0
 23 21  1  0  0  0  0
 24 27  1  0  0  0  0
 24 22  2  0  0  0  0
 26 25  1  0  0  0  0
 27 26  2  0  0  0  0
 28 29  2  0  0  0  0
 29 30  1  0  0  0  0
 30 34  1  0  0  0  0
 32 34  1  0  0  0  0
 34 31  1  0  0  0  0
 34 33  1  0  0  0  0
M  END
>  <MODEL>
8

>  <REMARK>
 VINA RESULT:      -5.1      4.449      7.227
  Name = 
  9 active torsions:
  status: ('A' for Active; 'I' for Inactive)
    1  A    between atoms: O_4  and  C_27
    2  A    between atoms: O_4  and  C_29
    3  A    between atoms: C_7  and  C_9
    4  A    between atoms: C_7  and  C_30
    5  A    between atoms: C_9  and  C_11
    6  A    between atoms: C_9  and  C_27
    7  A    between atoms: C_14  and  N_26
    8  A    between atoms: C_18  and  C_34
    9  A    between atoms: C_23  and  N_26
                            x       y       z     vdW  Elec       q    Type
                         _______ _______ _______ _____ _____    ______ ____

>  <TORSDO>
F 9

$$$$
=
 OpenBabel11062416503D

 34 36  0  0  1  0  0  0  0  0999 V2000
  180.5740  180.5340  139.8930 C   0  0  0  0  0  1  0  0  0  0  0  0
  180.1110  175.9440  140.4160 C   0  0  0  0  0  1  0  0  0  0  0  0
  180.1070  179.3660  140.7490 C   0  0  2  0  0  3  0  0  0  0  0  0
  182.1590  178.1670  140.9280 C   0  0  1  0  0  3  0  0  0  0  0  0
  181.1230  178.8720  141.6100 O   0  0  0  0  0  0  0  0  0  0  0  0
  180.3510  177.1430  139.5070 C   0  0  2  0  0  3  0  0  0  0  0  0
  181.8070  177.6110  139.5370 C   0  0  2  0  0  3  0  0  0  0  0  0
  179.4160  178.2790  139.9120 C   0  0  0  0  0  2  0  0  0  0  0  0
  183.7560  179.6360  139.9340 O   0  0  0  0  0  0  0  0  0  0  0  0
  184.3780  178.8160  142.0320 N   0  0  0  0  0  0  0  0  0  0  0  0
  183.4520  178.9330  140.9340 C   0  0  0  0  0  0  0  0  0  0  0  0
  184.5880  178.4100  145.8250 C   0  0  0  0  0  1  0  0  0  0  0  0
  182.9240  179.0190  144.0530 C   0  0  0  0  0  2  0  0  0  0  0  0
  184.9170  180.5010  144.2940 C   0  0  0  0  0  1  0  0  0  0  0  0
  183.9880  178.2050  143.3150 C   0  0  2  0  0  3  0  0  0  0  0  0
  184.3570  179.1010  144.4980 C   0  0  0  0  0  0  0  0  0  0  0  0
  185.8050  178.9410  141.7170 C   0  0  2  0  0  3  0  0  0  0  0  0
  186.0580  178.6090  140.2580 C   0  0  0  0  0  1  0  0  0  0  0  0
  186.5740  178.1080  142.5310 O   0  0  0  0  0  1  0  0  0  0  0  0
  182.7810  176.5130  139.1220 C   0  0  0  0  0  2  0  0  0  0  0  0
  183.0180  176.5340  137.6160 C   0  0  1  0  0  3  0  0  0  0  0  0
  185.0390  175.1170  137.2370 C   0  0  0  0  0  3  0  0  0  0  0  0
  184.4730  176.3960  137.2870 C   0  0  0  0  0  0  0  0  0  0  0  0
  186.3940  174.9580  136.9320 C   0  0  0  0  0  3  0  0  0  0  0  0
  185.2750  177.5190  137.0340 C   0  0  0  0  0  3  0  0  0  0  0  0
  186.6300  177.3610  136.7300 C   0  0  0  0  0  3  0  0  0  0  0  0
  187.1900  176.0800  136.6790 C   0  0  0  0  0  3  0  0  0  0  0  0
  181.8490  175.6900  135.7030 O   0  0  0  0  0  0  0  0  0  0  0  0
  182.1890  175.5100  136.9050 C   0  0  0  0  0  0  0  0  0  0  0  0
  181.8070  174.3530  137.5930 O   0  0  0  0  0  0  0  0  0  0  0  0
  179.5860  174.7790  137.2590 F   0  0  0  0  0  0  0  0  0  0  0  0
  180.1810  173.1440  138.6870 F   0  0  0  0  0  0  0  0  0  0  0  0
  180.4620  172.8190  136.4080 N   0  0  0  0  0  1  0  0  0  0  0  0
  180.5070  173.7770  137.5000 C   0  0  0  0  0  0  0  0  0  0  0  0
  3  1  1  6  0  0  0
  3  5  1  0  0  0  0
  4 11  1  6  0  0  0
  4  5  1  0  0  0  0
  6  7  1  0  0  0  0
  6  8  1  0  0  0  0
  6  2  1  1  0  0  0
  7 20  1  1  0  0  0
  7  4  1  0  0  0  0
  8  3  1  0  0  0  0
  9 11  2  0  0  0  0
 11 10  1  0  0  0  0
 13 16  1  0  0  0  0
 14 16  1  0  0  0  0
 15 10  1  6  0  0  0
 15 13  1  0  0  0  0
 15 16  1  0  0  0  0
 16 12  1  0  0  0  0
 17 18  1  6  0  0  0
 17 10  1  0  0  0  0
 17 19  1  0  0  0  0
 21 20  1  1  0  0  0
 22 23  1  0  0  0  0
 23 21  1  0  0  0  0
 24 22  2  0  0  0  0
 25 23  2  0  0  0  0
 26 25  1  0  0  0  0
 27 26  2  0  0  0  0
 27 24  1  0  0  0  0
 28 29  2  0  0  0  0
 29 30  1  0  0  0  0
 29 21  1  0  0  0  0
 31 34  1  0  0  0  0
 33 34  1  0  0  0  0
 34 30  1  0  0  0  0
 34 32  1  0  0  0  0
M  END
>  <MODEL>
9

>  <REMARK>
 VINA RESULT:      -5.0      4.611      7.818
  Name = 
  9 active torsions:
  status: ('A' for Active; 'I' for Inactive)
    1  A    between atoms: O_4  and  C_27
    2  A    between atoms: O_4  and  C_29
    3  A    between atoms: C_7  and  C_9
    4  A    between atoms: C_7  and  C_30
    5  A    between atoms: C_9  and  C_11
    6  A    between atoms: C_9  and  C_27
    7  A    between atoms: C_14  and  N_26
    8  A    between atoms: C_18  and  C_34
    9  A    between atoms: C_23  and  N_26
                            x       y       z     vdW  Elec       q    Type
                         _______ _______ _______ _____ _____    ______ ____

>  <TORSDO>
F 9

$$$$
