=
 OpenBabel11062417353D

 47 50  0  0  1  0  0  0  0  0999 V2000
  184.4250  178.6070  144.0350 C   0  0  0  0  0  0  0  0  0  0  0  0
  186.6490  177.6400  144.2610 C   0  0  0  0  0  0  0  0  0  0  0  0
  184.4950  179.0340  145.3700 C   0  0  0  0  0  3  0  0  0  0  0  0
  185.5100  177.9050  143.4960 C   0  0  0  0  0  3  0  0  0  0  0  0
  185.6740  179.2250  147.4600 O   0  0  0  0  0  1  0  0  0  0  0  0
  187.8670  177.8210  146.3910 N   0  0  0  0  0  1  0  0  0  0  0  0
  185.6310  178.7820  146.1450 C   0  0  0  0  0  0  0  0  0  0  0  0
  186.7150  178.0850  145.5950 C   0  0  0  0  0  0  0  0  0  0  0  0
  183.1220  178.3940  141.8600 C   0  0  0  0  0  0  0  0  0  0  0  0
  183.8030  177.4210  141.4370 O   0  0  0  0  0  0  0  0  0  0  0  0
  182.2880  179.6420  143.7230 F   0  0  0  0  0  0  0  0  0  0  0  0
  183.2730  178.8670  143.2120 N   0  0  0  0  0  0  0  0  0  0  0  0
  181.6050  176.6320  140.2930 O   0  0  0  0  0  1  0  0  0  0  0  0
  182.3300  178.8520  139.4420 C   0  0  1  0  0  3  0  0  0  0  0  0
  181.2890  177.9890  140.1340 C   0  0  2  0  0  0  0  0  0  0  0  0
  182.0700  179.0010  140.9630 C   0  0  1  0  0  3  0  0  0  0  0  0
  179.9740  178.3140  139.8630 F   0  0  0  0  0  0  0  0  0  0  0  0
  186.0160  178.4100  138.8940 O   0  0  0  0  0  1  0  0  0  0  0  0
  183.9250  178.3010  137.6410 N   0  0  0  0  0  0  0  0  0  0  0  0
  184.7250  178.9200  138.7250 C   0  0  0  0  0  0  0  0  0  0  0  0
  184.5780  180.3090  138.7760 O   0  0  0  0  0  1  0  0  0  0  0  0
  183.5920  178.0580  139.0710 C   0  0  1  0  0  3  0  0  0  0  0  0
  184.5410  177.1120  136.9940 C   0  0  2  0  0  3  0  0  0  0  0  0
  186.6210  176.4440  136.0570 O   0  0  0  0  0  0  0  0  0  0  0  0
  185.7990  177.3360  136.1860 C   0  0  0  0  0  3  0  0  0  0  0  0
  183.5100  176.2980  136.2110 C   0  0  0  0  0  2  0  0  0  0  0  0
  183.8350  174.6210  138.0280 O   0  0  0  0  0  1  0  0  0  0  0  0
  182.9290  173.9970  136.0170 O   0  0  0  0  0  0  0  0  0  0  0  0
  183.4120  174.9090  136.7380 C   0  0  0  0  0  0  0  0  0  0  0  0
  187.7640  176.8640  143.6390 C   0  0  0  0  0  2  0  0  0  0  0  0
  187.7940  177.1250  142.2120 N   0  0  0  0  0  2  0  0  0  0  0  0
  188.9220  177.9230  141.9590 N   0  0  0  0  0  2  0  0  0  0  0  0
  189.7860  177.2380  140.9900 C   0  0  1  0  0  3  0  0  0  0  0  0
  188.9350  179.1750  136.9800 S   0  0  0  0  0  1  0  0  0  0  0  0
  189.6240  177.7760  139.6410 N   0  0  0  0  0  2  0  0  0  0  0  0
  189.7420  177.6160  137.1730 N   0  0  0  0  0  2  0  0  0  0  0  0
  189.9910  177.0490  138.4630 C   0  0  0  0  0  0  0  0  0  0  0  0
  190.5540  175.8830  138.5720 N   0  0  0  0  0  0  0  0  0  0  0  0
  190.9480  175.0650  137.4310 C   0  0  0  0  0  3  0  0  0  0  0  0
  192.3490  174.5370  137.6510 C   0  0  0  0  0  1  0  0  0  0  0  0
  189.9940  173.8930  137.2820 C   0  0  0  0  0  1  0  0  0  0  0  0
  191.2570  177.2290  141.4200 C   0  0  0  0  0  2  0  0  0  0  0  0
  191.6190  177.8110  144.8990 C   0  0  0  0  0  3  0  0  0  0  0  0
  191.4080  177.1830  142.8690 N   0  0  0  0  0  0  0  0  0  0  0  0
  191.3520  176.0710  143.5770 N   0  0  0  0  0  0  0  0  0  0  0  0
  191.5660  178.2520  143.6280 N   0  0  0  0  0  0  0  0  0  0  0  0
  191.4840  176.4330  144.8670 C   0  0  0  0  0  3  0  0  0  0  0  0
  1  3  1  0  0  0  0
  2  8  2  0  0  0  0
  3  7  2  0  0  0  0
  4  1  2  0  0  0  0
  4  2  1  0  0  0  0
  7  5  1  0  0  0  0
  8  7  1  0  0  0  0
  8  6  1  0  0  0  0
  9 12  1  0  0  0  0
 10  9  2  0  0  0  0
 12 11  1  0  0  0  0
 12  1  1  0  0  0  0
 14 22  1  1  0  0  0
 14 15  1  0  0  0  0
 14 16  1  0  0  0  0
 15 17  1  6  0  0  0
 15 13  1  0  0  0  0
 15 16  1  0  0  0  0
 16  9  1  1  0  0  0
 19 20  1  0  0  0  0
 20 21  1  0  0  0  0
 20 18  1  0  0  0  0
 20 22  1  0  0  0  0
 22 19  1  6  0  0  0
 23 25  1  6  0  0  0
 23 19  1  0  0  0  0
 24 25  2  0  0  0  0
 26 29  1  0  0  0  0
 26 23  1  0  0  0  0
 28 29  2  0  0  0  0
 29 27  1  0  0  0  0
 30  2  1  0  0  0  0
 31 30  1  0  0  0  0
 32 31  1  0  0  0  0
 33 42  1  1  0  0  0
 33 32  1  0  0  0  0
 34 36  1  0  0  0  0
 35 33  1  0  0  0  0
 36 37  1  0  0  0  0
 37 38  2  0  0  0  0
 37 35  1  0  0  0  0
 39 40  1  0  0  0  0
 39 38  1  0  0  0  0
 41 39  1  0  0  0  0
 42 44  1  0  0  0  0
 44 45  1  0  0  0  0
 44 46  1  0  0  0  0
 45 47  2  0  0  0  0
 46 43  2  0  0  0  0
 47 43  1  0  0  0  0
M  END
>  <MODEL>
1

>  <REMARK>
 VINA RESULT:      -8.0      0.000      0.000
  Name = 
  15 active torsions:
  status: ('A' for Active; 'I' for Inactive)
    1  A    between atoms: C_1  and  N_33
    2  A    between atoms: C_2  and  C_40
    3  A    between atoms: N_6  and  C_34
    4  A    between atoms: N_7  and  N_22
    5  A    between atoms: N_7  and  C_34
    6  A    between atoms: C_10  and  C_32
    7  A    between atoms: C_11  and  C_30
    8  A    between atoms: N_13  and  C_28
    9  A    between atoms: C_17  and  N_47
   10  A    between atoms: N_19  and  C_42
   11  A    between atoms: N_22  and  C_40
   12  A    between atoms: C_28  and  C_31
   13  A    between atoms: C_28  and  C_39
   14  A    between atoms: C_31  and  C_44
   15  A    between atoms: C_34  and  C_42
                            x       y       z     vdW  Elec       q    Type
                         _______ _______ _______ _____ _____    ______ ____

>  <TORSDO>
F 15

$$$$
=
 OpenBabel11062417353D

 47 50  0  0  1  0  0  0  0  0999 V2000
  184.2350  178.5940  140.9490 C   0  0  0  0  0  0  0  0  0  0  0  0
  186.0150  178.2760  142.5810 C   0  0  0  0  0  0  0  0  0  0  0  0
  183.3080  178.6610  142.0010 C   0  0  0  0  0  3  0  0  0  0  0  0
  185.5870  178.3950  141.2560 C   0  0  0  0  0  3  0  0  0  0  0  0
  182.7830  178.6300  144.3500 O   0  0  0  0  0  1  0  0  0  0  0  0
  185.4970  178.2360  144.9860 N   0  0  0  0  0  1  0  0  0  0  0  0
  183.7230  178.5500  143.3310 C   0  0  0  0  0  0  0  0  0  0  0  0
  185.0790  178.3590  143.6280 C   0  0  0  0  0  0  0  0  0  0  0  0
  183.4070  177.6190  138.7490 C   0  0  0  0  0  0  0  0  0  0  0  0
  182.9980  176.5460  139.2700 O   0  0  0  0  0  0  0  0  0  0  0  0
  183.9060  179.9450  138.9990 F   0  0  0  0  0  0  0  0  0  0  0  0
  183.8350  178.7210  139.5720 N   0  0  0  0  0  0  0  0  0  0  0  0
  183.4210  175.2710  137.2140 O   0  0  0  0  0  1  0  0  0  0  0  0
  184.6230  177.3220  136.4880 C   0  0  1  0  0  3  0  0  0  0  0  0
  183.3710  176.4630  136.4770 C   0  0  2  0  0  0  0  0  0  0  0  0
  183.3510  177.7760  137.2490 C   0  0  1  0  0  3  0  0  0  0  0  0
  182.6710  176.4510  135.2860 F   0  0  0  0  0  0  0  0  0  0  0  0
  187.6200  177.4880  138.7420 O   0  0  0  0  0  1  0  0  0  0  0  0
  186.9780  176.5860  136.5670 N   0  0  0  0  0  0  0  0  0  0  0  0
  186.8450  177.6520  137.5890 C   0  0  0  0  0  0  0  0  0  0  0  0
  186.8000  178.9310  137.0300 O   0  0  0  0  0  1  0  0  0  0  0  0
  185.7320  176.7250  137.3690 C   0  0  1  0  0  3  0  0  0  0  0  0
  187.7870  175.4070  136.9780 C   0  0  2  0  0  3  0  0  0  0  0  0
  189.8130  176.5180  136.4250 O   0  0  0  0  0  0  0  0  0  0  0  0
  189.2900  175.5620  136.9740 C   0  0  0  0  0  3  0  0  0  0  0  0
  187.3510  174.1410  136.2380 C   0  0  0  0  0  2  0  0  0  0  0  0
  185.8890  173.0940  137.9670 O   0  0  0  0  0  1  0  0  0  0  0  0
  187.8180  172.0560  137.2910 O   0  0  0  0  0  0  0  0  0  0  0  0
  187.0420  173.0420  137.1950 C   0  0  0  0  0  0  0  0  0  0  0  0
  187.4670  178.0390  142.8440 C   0  0  0  0  0  2  0  0  0  0  0  0
  187.7070  176.6130  142.9650 N   0  0  0  0  0  2  0  0  0  0  0  0
  189.0980  176.4290  143.0100 N   0  0  0  0  0  2  0  0  0  0  0  0
  189.6950  177.4880  143.8330 C   0  0  1  0  0  3  0  0  0  0  0  0
  192.2660  175.4980  146.9930 S   0  0  0  0  0  1  0  0  0  0  0  0
  190.4600  176.9420  144.9520 N   0  0  0  0  0  2  0  0  0  0  0  0
  190.7740  176.3760  147.3430 N   0  0  0  0  0  2  0  0  0  0  0  0
  190.0000  176.9910  146.3070 C   0  0  0  0  0  0  0  0  0  0  0  0
  188.8870  177.5980  146.5910 N   0  0  0  0  0  0  0  0  0  0  0  0
  188.3330  177.6850  147.9360 C   0  0  0  0  0  3  0  0  0  0  0  0
  189.2560  178.5100  148.8080 C   0  0  0  0  0  1  0  0  0  0  0  0
  186.9680  178.3500  147.8910 C   0  0  0  0  0  1  0  0  0  0  0  0
  190.5320  178.4700  143.0060 C   0  0  0  0  0  2  0  0  0  0  0  0
  191.0740  177.2030  139.7390 C   0  0  0  0  0  3  0  0  0  0  0  0
  191.0130  177.8770  141.7650 N   0  0  0  0  0  0  0  0  0  0  0  0
  192.2520  177.4630  141.5820 N   0  0  0  0  0  0  0  0  0  0  0  0
  190.2730  177.7380  140.6790 N   0  0  0  0  0  0  0  0  0  0  0  0
  192.3250  177.0280  140.3090 C   0  0  0  0  0  3  0  0  0  0  0  0
  1  4  2  0  0  0  0
  1  3  1  0  0  0  0
  2 30  1  0  0  0  0
  2  8  2  0  0  0  0
  3  7  2  0  0  0  0
  4  2  1  0  0  0  0
  7  8  1  0  0  0  0
  7  5  1  0  0  0  0
  8  6  1  0  0  0  0
  9 10  2  0  0  0  0
  9 12  1  0  0  0  0
 11 12  1  0  0  0  0
 12  1  1  0  0  0  0
 14 16  1  0  0  0  0
 14 22  1  1  0  0  0
 15 17  1  6  0  0  0
 15 14  1  0  0  0  0
 15 13  1  0  0  0  0
 15 16  1  0  0  0  0
 16  9  1  1  0  0  0
 19 23  1  0  0  0  0
 19 20  1  0  0  0  0
 20 18  1  0  0  0  0
 21 20  1  0  0  0  0
 22 19  1  6  0  0  0
 22 20  1  0  0  0  0
 23 26  1  6  0  0  0
 24 25  2  0  0  0  0
 25 23  1  0  0  0  0
 26 29  1  0  0  0  0
 29 28  2  0  0  0  0
 29 27  1  0  0  0  0
 30 31  1  0  0  0  0
 31 32  1  0  0  0  0
 32 33  1  0  0  0  0
 33 42  1  6  0  0  0
 33 35  1  0  0  0  0
 34 36  1  0  0  0  0
 35 37  1  0  0  0  0
 37 38  2  0  0  0  0
 37 36  1  0  0  0  0
 38 39  1  0  0  0  0
 39 40  1  0  0  0  0
 41 39  1  0  0  0  0
 43 47  1  0  0  0  0
 43 46  2  0  0  0  0
 44 42  1  0  0  0  0
 45 44  1  0  0  0  0
 46 44  1  0  0  0  0
 47 45  2  0  0  0  0
M  END
>  <MODEL>
2

>  <REMARK>
 VINA RESULT:      -7.9      2.845      5.220
  Name = 
  15 active torsions:
  status: ('A' for Active; 'I' for Inactive)
    1  A    between atoms: C_1  and  N_33
    2  A    between atoms: C_2  and  C_40
    3  A    between atoms: N_6  and  C_34
    4  A    between atoms: N_7  and  N_22
    5  A    between atoms: N_7  and  C_34
    6  A    between atoms: C_10  and  C_32
    7  A    between atoms: C_11  and  C_30
    8  A    between atoms: N_13  and  C_28
    9  A    between atoms: C_17  and  N_47
   10  A    between atoms: N_19  and  C_42
   11  A    between atoms: N_22  and  C_40
   12  A    between atoms: C_28  and  C_31
   13  A    between atoms: C_28  and  C_39
   14  A    between atoms: C_31  and  C_44
   15  A    between atoms: C_34  and  C_42
                            x       y       z     vdW  Elec       q    Type
                         _______ _______ _______ _____ _____    ______ ____

>  <TORSDO>
F 15

$$$$
=
 OpenBabel11062417353D

 47 50  0  0  1  0  0  0  0  0999 V2000
  186.7020  175.2950  135.9510 C   0  0  0  0  0  0  0  0  0  0  0  0
  184.3030  175.4180  136.3560 C   0  0  0  0  0  0  0  0  0  0  0  0
  186.5800  173.9100  135.7560 C   0  0  0  0  0  3  0  0  0  0  0  0
  185.5520  176.0350  136.2560 C   0  0  0  0  0  3  0  0  0  0  0  0
  185.2450  171.9110  135.6390 O   0  0  0  0  0  1  0  0  0  0  0  0
  182.9240  173.3830  136.2450 N   0  0  0  0  0  1  0  0  0  0  0  0
  185.3350  173.2810  135.8460 C   0  0  0  0  0  0  0  0  0  0  0  0
  184.1900  174.0310  136.1450 C   0  0  0  0  0  0  0  0  0  0  0  0
  189.1760  175.5270  136.4990 C   0  0  0  0  0  0  0  0  0  0  0  0
  189.2980  174.3340  136.8880 O   0  0  0  0  0  0  0  0  0  0  0  0
  188.0240  177.1170  135.1330 F   0  0  0  0  0  0  0  0  0  0  0  0
  187.9690  175.9700  135.8490 N   0  0  0  0  0  0  0  0  0  0  0  0
  190.7850  175.2550  138.7800 O   0  0  0  0  0  1  0  0  0  0  0  0
  190.2580  177.4790  137.8020 C   0  0  1  0  0  3  0  0  0  0  0  0
  191.1740  176.2720  137.8970 C   0  0  2  0  0  0  0  0  0  0  0  0
  190.3490  176.4680  136.6310 C   0  0  1  0  0  3  0  0  0  0  0  0
  192.5240  176.5430  137.7860 F   0  0  0  0  0  0  0  0  0  0  0  0
  186.7080  178.1780  138.8010 O   0  0  0  0  0  1  0  0  0  0  0  0
  188.9720  178.4600  139.6670 N   0  0  0  0  0  0  0  0  0  0  0  0
  188.0520  178.4270  138.5040 C   0  0  0  0  0  0  0  0  0  0  0  0
  188.3230  179.4350  137.5750 O   0  0  0  0  0  1  0  0  0  0  0  0
  189.0130  177.3370  138.6920 C   0  0  1  0  0  3  0  0  0  0  0  0
  188.3710  178.0590  140.9670 C   0  0  2  0  0  3  0  0  0  0  0  0
  186.3300  178.2140  142.1760 O   0  0  0  0  0  0  0  0  0  0  0  0
  187.0850  178.7410  141.3750 C   0  0  0  0  0  3  0  0  0  0  0  0
  189.4020  178.0840  142.0960 C   0  0  0  0  0  2  0  0  0  0  0  0
  191.7370  177.4220  141.5200 O   0  0  0  0  0  0  0  0  0  0  0  0
  190.1750  175.8320  142.0550 O   0  0  0  0  0  1  0  0  0  0  0  0
  190.4510  177.0480  141.8850 C   0  0  0  0  0  0  0  0  0  0  0  0
  183.1180  176.2550  136.7100 C   0  0  0  0  0  2  0  0  0  0  0  0
  183.1520  176.5630  138.1280 N   0  0  0  0  0  2  0  0  0  0  0  0
  182.5230  177.8060  138.2990 N   0  0  0  0  0  2  0  0  0  0  0  0
  181.3200  177.6260  139.1200 C   0  0  1  0  0  3  0  0  0  0  0  0
  179.4480  181.7140  139.7010 S   0  0  0  0  0  1  0  0  0  0  0  0
  180.6910  178.9020  139.4520 N   0  0  0  0  0  2  0  0  0  0  0  0
  180.0920  180.7260  141.0160 N   0  0  0  0  0  2  0  0  0  0  0  0
  180.6700  179.4390  140.7790 C   0  0  0  0  0  0  0  0  0  0  0  0
  181.1690  178.7510  141.7620 N   0  0  0  0  0  0  0  0  0  0  0  0
  181.2070  179.2210  143.1410 C   0  0  0  0  0  3  0  0  0  0  0  0
  180.2180  178.4280  143.9700 C   0  0  0  0  0  1  0  0  0  0  0  0
  182.6000  179.0310  143.7150 C   0  0  0  0  0  1  0  0  0  0  0  0
  180.3190  176.6540  138.4860 C   0  0  0  0  0  2  0  0  0  0  0  0
  179.5240  173.6940  140.2700 C   0  0  0  0  0  3  0  0  0  0  0  0
  179.8910  175.6180  139.4170 N   0  0  0  0  0  0  0  0  0  0  0  0
  179.4380  175.8650  140.6320 N   0  0  0  0  0  0  0  0  0  0  0  0
  179.9590  174.3230  139.1620 N   0  0  0  0  0  0  0  0  0  0  0  0
  179.1940  174.6670  141.1980 C   0  0  0  0  0  3  0  0  0  0  0  0
  1  4  1  0  0  0  0
  2 30  1  0  0  0  0
  3  7  1  0  0  0  0
  3  1  2  0  0  0  0
  4  2  2  0  0  0  0
  5  7  1  0  0  0  0
  7  8  2  0  0  0  0
  8  6  1  0  0  0  0
  8  2  1  0  0  0  0
  9 10  2  0  0  0  0
 11 12  1  0  0  0  0
 12  1  1  0  0  0  0
 12  9  1  0  0  0  0
 14 15  1  0  0  0  0
 14 22  1  1  0  0  0
 15 17  1  6  0  0  0
 15 13  1  0  0  0  0
 16  9  1  1  0  0  0
 16 14  1  0  0  0  0
 16 15  1  0  0  0  0
 19 23  1  0  0  0  0
 20 18  1  0  0  0  0
 20 19  1  0  0  0  0
 21 20  1  0  0  0  0
 22 20  1  6  0  0  0
 22 19  1  0  0  0  0
 23 25  1  1  0  0  0
 23 26  1  0  0  0  0
 25 24  2  0  0  0  0
 27 29  2  0  0  0  0
 29 28  1  0  0  0  0
 29 26  1  0  0  0  0
 30 31  1  0  0  0  0
 31 32  1  0  0  0  0
 32 33  1  0  0  0  0
 33 42  1  6  0  0  0
 33 35  1  0  0  0  0
 34 36  1  0  0  0  0
 35 37  1  0  0  0  0
 37 36  1  0  0  0  0
 37 38  2  0  0  0  0
 38 39  1  0  0  0  0
 39 41  1  0  0  0  0
 39 40  1  0  0  0  0
 42 44  1  0  0  0  0
 43 47  1  0  0  0  0
 44 45  1  0  0  0  0
 45 47  2  0  0  0  0
 46 44  1  0  0  0  0
 46 43  2  0  0  0  0
M  END
>  <MODEL>
3

>  <REMARK>
 VINA RESULT:      -7.3      4.076      9.737
  Name = 
  15 active torsions:
  status: ('A' for Active; 'I' for Inactive)
    1  A    between atoms: C_1  and  N_33
    2  A    between atoms: C_2  and  C_40
    3  A    between atoms: N_6  and  C_34
    4  A    between atoms: N_7  and  N_22
    5  A    between atoms: N_7  and  C_34
    6  A    between atoms: C_10  and  C_32
    7  A    between atoms: C_11  and  C_30
    8  A    between atoms: N_13  and  C_28
    9  A    between atoms: C_17  and  N_47
   10  A    between atoms: N_19  and  C_42
   11  A    between atoms: N_22  and  C_40
   12  A    between atoms: C_28  and  C_31
   13  A    between atoms: C_28  and  C_39
   14  A    between atoms: C_31  and  C_44
   15  A    between atoms: C_34  and  C_42
                            x       y       z     vdW  Elec       q    Type
                         _______ _______ _______ _____ _____    ______ ____

>  <TORSDO>
F 15

$$$$
=
 OpenBabel11062417353D

 47 50  0  0  1  0  0  0  0  0999 V2000
  185.4400  175.0340  136.4270 C   0  0  0  0  0  0  0  0  0  0  0  0
  186.8990  176.8940  135.8410 C   0  0  0  0  0  0  0  0  0  0  0  0
  186.3350  174.1560  135.7970 C   0  0  0  0  0  3  0  0  0  0  0  0
  185.7340  176.4040  136.4360 C   0  0  0  0  0  3  0  0  0  0  0  0
  188.3780  173.7370  134.5960 O   0  0  0  0  0  1  0  0  0  0  0  0
  188.9900  176.4850  134.6090 N   0  0  0  0  0  1  0  0  0  0  0  0
  187.5080  174.6320  135.2040 C   0  0  0  0  0  0  0  0  0  0  0  0
  187.7970  176.0030  135.2230 C   0  0  0  0  0  0  0  0  0  0  0  0
  182.9400  174.5590  136.4250 C   0  0  0  0  0  0  0  0  0  0  0  0
  182.8370  174.6020  135.1690 O   0  0  0  0  0  0  0  0  0  0  0  0
  184.3080  174.1520  138.3450 F   0  0  0  0  0  0  0  0  0  0  0  0
  184.2330  174.5680  137.0590 N   0  0  0  0  0  0  0  0  0  0  0  0
  180.6180  175.8490  135.5260 O   0  0  0  0  0  1  0  0  0  0  0  0
  181.1790  175.6880  137.9420 C   0  0  1  0  0  3  0  0  0  0  0  0
  180.4720  175.1290  136.7200 C   0  0  2  0  0  0  0  0  0  0  0  0
  181.6930  174.3950  137.2600 C   0  0  1  0  0  3  0  0  0  0  0  0
  179.2500  174.5310  136.9630 F   0  0  0  0  0  0  0  0  0  0  0  0
  183.9070  178.2040  138.4970 O   0  0  0  0  0  1  0  0  0  0  0  0
  181.4710  178.0870  138.4460 N   0  0  0  0  0  0  0  0  0  0  0  0
  182.7670  177.4390  138.7600 C   0  0  0  0  0  0  0  0  0  0  0  0
  182.7380  176.7330  139.9660 O   0  0  0  0  0  1  0  0  0  0  0  0
  181.9810  176.9590  137.6210 C   0  0  1  0  0  3  0  0  0  0  0  0
  181.5660  179.3930  137.7400 C   0  0  2  0  0  3  0  0  0  0  0  0
  181.4750  181.5900  138.6410 O   0  0  0  0  0  0  0  0  0  0  0  0
  182.1210  180.5630  138.5200 C   0  0  0  0  0  3  0  0  0  0  0  0
  180.2520  179.7540  137.0460 C   0  0  0  0  0  2  0  0  0  0  0  0
  181.5540  179.1500  135.0060 O   0  0  0  0  0  1  0  0  0  0  0  0
  179.3840  179.8690  134.8310 O   0  0  0  0  0  0  0  0  0  0  0  0
  180.3680  179.6020  135.5690 C   0  0  0  0  0  0  0  0  0  0  0  0
  187.1460  178.3670  135.8580 C   0  0  0  0  0  2  0  0  0  0  0  0
  187.2640  178.8190  137.2320 N   0  0  0  0  0  2  0  0  0  0  0  0
  188.6300  179.0180  137.4890 N   0  0  0  0  0  2  0  0  0  0  0  0
  188.9840  178.3440  138.7440 C   0  0  1  0  0  3  0  0  0  0  0  0
  185.4930  179.0240  141.5570 S   0  0  0  0  0  1  0  0  0  0  0  0
  187.9220  178.4580  139.7420 N   0  0  0  0  0  2  0  0  0  0  0  0
  187.0480  178.3520  142.0570 N   0  0  0  0  0  2  0  0  0  0  0  0
  188.1180  178.1530  141.1270 C   0  0  0  0  0  0  0  0  0  0  0  0
  189.2640  177.6920  141.5320 N   0  0  0  0  0  0  0  0  0  0  0  0
  189.5600  177.3690  142.9220 C   0  0  0  0  0  3  0  0  0  0  0  0
  190.3380  176.0720  142.9820 C   0  0  0  0  0  1  0  0  0  0  0  0
  190.3940  178.4760  143.5430 C   0  0  0  0  0  1  0  0  0  0  0  0
  189.3990  176.8840  138.5290 C   0  0  0  0  0  2  0  0  0  0  0  0
  192.9350  176.6350  138.6100 C   0  0  0  0  0  3  0  0  0  0  0  0
  190.8280  176.7480  138.2790 N   0  0  0  0  0  0  0  0  0  0  0  0
  191.3400  176.4320  137.1050 N   0  0  0  0  0  0  0  0  0  0  0  0
  191.7550  176.8780  139.2110 N   0  0  0  0  0  0  0  0  0  0  0  0
  192.6730  176.3540  137.2790 C   0  0  0  0  0  3  0  0  0  0  0  0
  1  4  1  0  0  0  0
  1 12  1  0  0  0  0
  2 30  1  0  0  0  0
  2  4  2  0  0  0  0
  3  1  2  0  0  0  0
  5  7  1  0  0  0  0
  6  8  1  0  0  0  0
  7  8  2  0  0  0  0
  7  3  1  0  0  0  0
  8  2  1  0  0  0  0
  9 12  1  0  0  0  0
 10  9  2  0  0  0  0
 12 11  1  0  0  0  0
 14 22  1  6  0  0  0
 15 13  1  6  0  0  0
 15 17  1  0  0  0  0
 15 16  1  0  0  0  0
 15 14  1  0  0  0  0
 16  9  1  6  0  0  0
 16 14  1  0  0  0  0
 18 20  1  0  0  0  0
 19 20  1  0  0  0  0
 20 21  1  0  0  0  0
 22 19  1  1  0  0  0
 22 20  1  0  0  0  0
 23 26  1  1  0  0  0
 23 19  1  0  0  0  0
 23 25  1  0  0  0  0
 25 24  2  0  0  0  0
 27 29  1  0  0  0  0
 28 29  2  0  0  0  0
 29 26  1  0  0  0  0
 30 31  1  0  0  0  0
 31 32  1  0  0  0  0
 32 33  1  0  0  0  0
 33 42  1  6  0  0  0
 33 35  1  0  0  0  0
 34 36  1  0  0  0  0
 35 37  1  0  0  0  0
 37 38  2  0  0  0  0
 37 36  1  0  0  0  0
 38 39  1  0  0  0  0
 39 40  1  0  0  0  0
 39 41  1  0  0  0  0
 43 46  2  0  0  0  0
 44 42  1  0  0  0  0
 44 46  1  0  0  0  0
 45 47  2  0  0  0  0
 45 44  1  0  0  0  0
 47 43  1  0  0  0  0
M  END
>  <MODEL>
4

>  <REMARK>
 VINA RESULT:      -7.3      3.289      6.636
  Name = 
  15 active torsions:
  status: ('A' for Active; 'I' for Inactive)
    1  A    between atoms: C_1  and  N_33
    2  A    between atoms: C_2  and  C_40
    3  A    between atoms: N_6  and  C_34
    4  A    between atoms: N_7  and  N_22
    5  A    between atoms: N_7  and  C_34
    6  A    between atoms: C_10  and  C_32
    7  A    between atoms: C_11  and  C_30
    8  A    between atoms: N_13  and  C_28
    9  A    between atoms: C_17  and  N_47
   10  A    between atoms: N_19  and  C_42
   11  A    between atoms: N_22  and  C_40
   12  A    between atoms: C_28  and  C_31
   13  A    between atoms: C_28  and  C_39
   14  A    between atoms: C_31  and  C_44
   15  A    between atoms: C_34  and  C_42
                            x       y       z     vdW  Elec       q    Type
                         _______ _______ _______ _____ _____    ______ ____

>  <TORSDO>
F 15

$$$$
=
 OpenBabel11062417353D

 47 50  0  0  1  0  0  0  0  0999 V2000
  189.9380  177.2030  139.4310 C   0  0  0  0  0  0  0  0  0  0  0  0
  188.4720  178.2410  141.0750 C   0  0  0  0  0  0  0  0  0  0  0  0
  190.7790  176.7830  140.4730 C   0  0  0  0  0  3  0  0  0  0  0  0
  188.7890  177.9370  139.7490 C   0  0  0  0  0  3  0  0  0  0  0  0
  191.3180  176.6380  142.8150 O   0  0  0  0  0  1  0  0  0  0  0  0
  189.0090  178.1070  143.4730 N   0  0  0  0  0  1  0  0  0  0  0  0
  190.4710  177.0750  141.8050 C   0  0  0  0  0  0  0  0  0  0  0  0
  189.3150  177.8040  142.1140 C   0  0  0  0  0  0  0  0  0  0  0  0
  190.3500  175.5680  137.5250 C   0  0  0  0  0  0  0  0  0  0  0  0
  189.8540  174.5830  138.1370 O   0  0  0  0  0  0  0  0  0  0  0  0
  190.4340  177.9370  137.2060 F   0  0  0  0  0  0  0  0  0  0  0  0
  190.2250  176.9020  138.0530 N   0  0  0  0  0  0  0  0  0  0  0  0
  191.3160  172.9940  136.9710 O   0  0  0  0  0  1  0  0  0  0  0  0
  192.5120  175.0370  136.2120 C   0  0  1  0  0  3  0  0  0  0  0  0
  191.5040  173.9320  135.9460 C   0  0  2  0  0  0  0  0  0  0  0  0
  190.9940  175.3490  136.1770 C   0  0  1  0  0  3  0  0  0  0  0  0
  191.4540  173.4760  134.6430 F   0  0  0  0  0  0  0  0  0  0  0  0
  194.0870  176.4200  139.3240 O   0  0  0  0  0  1  0  0  0  0  0  0
  194.6090  174.8820  137.5040 N   0  0  0  0  0  0  0  0  0  0  0  0
  193.9280  176.1140  137.9690 C   0  0  0  0  0  0  0  0  0  0  0  0
  194.0450  177.1690  137.0600 O   0  0  0  0  0  1  0  0  0  0  0  0
  193.1270  174.9400  137.6160 C   0  0  1  0  0  3  0  0  0  0  0  0
  195.2260  174.0520  138.5730 C   0  0  2  0  0  3  0  0  0  0  0  0
  197.0300  175.2900  139.5010 O   0  0  0  0  0  0  0  0  0  0  0  0
  196.6850  174.2950  138.8840 C   0  0  0  0  0  3  0  0  0  0  0  0
  194.9370  172.5640  138.3690 C   0  0  0  0  0  2  0  0  0  0  0  0
  195.5340  172.5000  135.9480 O   0  0  0  0  0  0  0  0  0  0  0  0
  196.5910  171.1220  137.4440 O   0  0  0  0  0  1  0  0  0  0  0  0
  195.7300  172.0150  137.2340 C   0  0  0  0  0  0  0  0  0  0  0  0
  187.2460  179.0510  141.3500 C   0  0  0  0  0  2  0  0  0  0  0  0
  186.2710  178.8180  140.3010 N   0  0  0  0  0  2  0  0  0  0  0  0
  185.1340  179.5820  140.6140 N   0  0  0  0  0  2  0  0  0  0  0  0
  184.2740  178.8120  141.5200 C   0  0  1  0  0  3  0  0  0  0  0  0
  181.3460  176.5580  138.8930 S   0  0  0  0  0  1  0  0  0  0  0  0
  183.2380  178.0780  140.7950 N   0  0  0  0  0  2  0  0  0  0  0  0
  180.8880  177.4330  140.3570 N   0  0  0  0  0  2  0  0  0  0  0  0
  181.8540  178.1260  141.1550 C   0  0  0  0  0  0  0  0  0  0  0  0
  181.4810  178.7930  142.2060 N   0  0  0  0  0  0  0  0  0  0  0  0
  180.0950  178.9100  142.6410 C   0  0  0  0  0  3  0  0  0  0  0  0
  179.9420  178.2840  144.0100 C   0  0  0  0  0  1  0  0  0  0  0  0
  179.7000  180.3750  142.7190 C   0  0  0  0  0  1  0  0  0  0  0  0
  185.0750  177.8880  142.4440 C   0  0  0  0  0  2  0  0  0  0  0  0
  185.4020  178.5710  145.9080 C   0  0  0  0  0  3  0  0  0  0  0  0
  184.9380  178.2570  143.8470 N   0  0  0  0  0  0  0  0  0  0  0  0
  183.8820  178.8730  144.3440 N   0  0  0  0  0  0  0  0  0  0  0  0
  185.8750  178.0590  144.7570 N   0  0  0  0  0  0  0  0  0  0  0  0
  184.1430  179.0850  145.6480 C   0  0  0  0  0  3  0  0  0  0  0  0
  1  4  2  0  0  0  0
  1  3  1  0  0  0  0
  2 30  1  0  0  0  0
  2  8  2  0  0  0  0
  3  7  2  0  0  0  0
  4  2  1  0  0  0  0
  7  8  1  0  0  0  0
  7  5  1  0  0  0  0
  8  6  1  0  0  0  0
  9 12  1  0  0  0  0
  9 10  2  0  0  0  0
 11 12  1  0  0  0  0
 12  1  1  0  0  0  0
 14 22  1  1  0  0  0
 15 17  1  6  0  0  0
 15 16  1  0  0  0  0
 15 14  1  0  0  0  0
 15 13  1  0  0  0  0
 16 14  1  0  0  0  0
 16  9  1  1  0  0  0
 19 20  1  0  0  0  0
 19 23  1  0  0  0  0
 20 18  1  0  0  0  0
 21 20  1  0  0  0  0
 22 19  1  6  0  0  0
 22 20  1  0  0  0  0
 23 26  1  6  0  0  0
 23 25  1  0  0  0  0
 25 24  2  0  0  0  0
 27 29  2  0  0  0  0
 29 28  1  0  0  0  0
 29 26  1  0  0  0  0
 31 32  1  0  0  0  0
 31 30  1  0  0  0  0
 32 33  1  0  0  0  0
 33 42  1  6  0  0  0
 34 36  1  0  0  0  0
 35 37  1  0  0  0  0
 35 33  1  0  0  0  0
 36 37  1  0  0  0  0
 37 38  2  0  0  0  0
 38 39  1  0  0  0  0
 39 41  1  0  0  0  0
 39 40  1  0  0  0  0
 42 44  1  0  0  0  0
 44 45  1  0  0  0  0
 44 46  1  0  0  0  0
 45 47  2  0  0  0  0
 46 43  2  0  0  0  0
 47 43  1  0  0  0  0
M  END
>  <MODEL>
5

>  <REMARK>
 VINA RESULT:      -7.2      4.925      9.351
  Name = 
  15 active torsions:
  status: ('A' for Active; 'I' for Inactive)
    1  A    between atoms: C_1  and  N_33
    2  A    between atoms: C_2  and  C_40
    3  A    between atoms: N_6  and  C_34
    4  A    between atoms: N_7  and  N_22
    5  A    between atoms: N_7  and  C_34
    6  A    between atoms: C_10  and  C_32
    7  A    between atoms: C_11  and  C_30
    8  A    between atoms: N_13  and  C_28
    9  A    between atoms: C_17  and  N_47
   10  A    between atoms: N_19  and  C_42
   11  A    between atoms: N_22  and  C_40
   12  A    between atoms: C_28  and  C_31
   13  A    between atoms: C_28  and  C_39
   14  A    between atoms: C_31  and  C_44
   15  A    between atoms: C_34  and  C_42
                            x       y       z     vdW  Elec       q    Type
                         _______ _______ _______ _____ _____    ______ ____

>  <TORSDO>
F 15

$$$$
=
 OpenBabel11062417353D

 47 50  0  0  1  0  0  0  0  0999 V2000
  186.5260  175.4310  135.9630 C   0  0  0  0  0  0  0  0  0  0  0  0
  184.3250  175.5930  136.9950 C   0  0  0  0  0  0  0  0  0  0  0  0
  186.1620  174.1870  135.4250 C   0  0  0  0  0  3  0  0  0  0  0  0
  185.5960  176.1200  136.7520 C   0  0  0  0  0  3  0  0  0  0  0  0
  184.5590  172.4210  135.1000 O   0  0  0  0  0  1  0  0  0  0  0  0
  182.6750  173.7950  136.6780 N   0  0  0  0  0  1  0  0  0  0  0  0
  184.8920  173.6500  135.6540 C   0  0  0  0  0  0  0  0  0  0  0  0
  183.9660  174.3500  136.4390 C   0  0  0  0  0  0  0  0  0  0  0  0
  189.0610  175.4350  136.1820 C   0  0  0  0  0  0  0  0  0  0  0  0
  189.1320  174.2120  136.4800 O   0  0  0  0  0  0  0  0  0  0  0  0
  187.8790  177.2000  135.0820 F   0  0  0  0  0  0  0  0  0  0  0  0
  187.8220  176.0130  135.7290 N   0  0  0  0  0  0  0  0  0  0  0  0
  190.9430  174.8580  138.1800 O   0  0  0  0  0  1  0  0  0  0  0  0
  190.4760  177.1880  137.4490 C   0  0  1  0  0  3  0  0  0  0  0  0
  191.2910  175.9130  137.3240 C   0  0  2  0  0  0  0  0  0  0  0  0
  190.3170  176.2720  136.2090 C   0  0  1  0  0  3  0  0  0  0  0  0
  192.6310  176.0900  137.0370 F   0  0  0  0  0  0  0  0  0  0  0  0
  187.2790  178.2060  139.1290 O   0  0  0  0  0  1  0  0  0  0  0  0
  189.6530  177.9730  139.6400 N   0  0  0  0  0  0  0  0  0  0  0  0
  188.5920  178.3030  138.6590 C   0  0  0  0  0  0  0  0  0  0  0  0
  188.9080  179.4180  137.8780 O   0  0  0  0  0  1  0  0  0  0  0  0
  189.3600  177.0660  138.4980 C   0  0  1  0  0  3  0  0  0  0  0  0
  189.1750  177.4250  140.9370 C   0  0  2  0  0  3  0  0  0  0  0  0
  188.2830  178.0450  143.0510 O   0  0  0  0  0  0  0  0  0  0  0  0
  188.5610  178.3990  141.9170 C   0  0  0  0  0  3  0  0  0  0  0  0
  190.2360  176.5500  141.6050 C   0  0  0  0  0  2  0  0  0  0  0  0
  192.4660  177.3810  140.8580 O   0  0  0  0  0  0  0  0  0  0  0  0
  191.6570  177.9240  142.9330 O   0  0  0  0  0  1  0  0  0  0  0  0
  191.4900  177.3170  141.8430 C   0  0  0  0  0  0  0  0  0  0  0  0
  183.3860  176.3610  137.8650 C   0  0  0  0  0  2  0  0  0  0  0  0
  184.1090  177.4340  138.5240 N   0  0  0  0  0  2  0  0  0  0  0  0
  183.2220  178.5150  138.6530 N   0  0  0  0  0  2  0  0  0  0  0  0
  183.1570  178.9150  140.0640 C   0  0  1  0  0  3  0  0  0  0  0  0
  178.9320  179.5070  141.5980 S   0  0  0  0  0  1  0  0  0  0  0  0
  181.7920  179.2350  140.4770 N   0  0  0  0  0  2  0  0  0  0  0  0
  179.5620  180.2520  140.1260 N   0  0  0  0  0  2  0  0  0  0  0  0
  180.9070  180.0360  139.6870 C   0  0  0  0  0  0  0  0  0  0  0  0
  181.3290  180.5670  138.5790 N   0  0  0  0  0  0  0  0  0  0  0  0
  180.4970  181.3820  137.7030 C   0  0  0  0  0  3  0  0  0  0  0  0
  180.8540  182.8420  137.8860 C   0  0  0  0  0  1  0  0  0  0  0  0
  180.7340  180.9920  136.2550 C   0  0  0  0  0  1  0  0  0  0  0  0
  183.7990  177.8820  140.9960 C   0  0  0  0  0  2  0  0  0  0  0  0
  183.4830  179.2820  144.2390 C   0  0  0  0  0  3  0  0  0  0  0  0
  183.9440  178.3820  142.3570 N   0  0  0  0  0  0  0  0  0  0  0  0
  185.0200  178.1930  143.0980 N   0  0  0  0  0  0  0  0  0  0  0  0
  182.9960  179.0320  143.0090 N   0  0  0  0  0  0  0  0  0  0  0  0
  184.7610  178.7520  144.2950 C   0  0  0  0  0  3  0  0  0  0  0  0
  1  4  1  0  0  0  0
  2 30  1  0  0  0  0
  3  7  1  0  0  0  0
  3  1  2  0  0  0  0
  4  2  2  0  0  0  0
  5  7  1  0  0  0  0
  7  8  2  0  0  0  0
  8  6  1  0  0  0  0
  8  2  1  0  0  0  0
  9 10  2  0  0  0  0
 11 12  1  0  0  0  0
 12  1  1  0  0  0  0
 12  9  1  0  0  0  0
 14 22  1  1  0  0  0
 15 17  1  6  0  0  0
 15 14  1  0  0  0  0
 15 13  1  0  0  0  0
 16  9  1  1  0  0  0
 16 15  1  0  0  0  0
 16 14  1  0  0  0  0
 19 23  1  0  0  0  0
 20 18  1  0  0  0  0
 20 19  1  0  0  0  0
 21 20  1  0  0  0  0
 22 20  1  6  0  0  0
 22 19  1  0  0  0  0
 23 26  1  1  0  0  0
 23 25  1  0  0  0  0
 25 24  2  0  0  0  0
 26 29  1  0  0  0  0
 27 29  2  0  0  0  0
 29 28  1  0  0  0  0
 30 31  1  0  0  0  0
 31 32  1  0  0  0  0
 32 33  1  0  0  0  0
 33 35  1  0  0  0  0
 33 42  1  1  0  0  0
 36 34  1  0  0  0  0
 37 36  1  0  0  0  0
 37 35  1  0  0  0  0
 38 37  2  0  0  0  0
 39 40  1  0  0  0  0
 39 38  1  0  0  0  0
 41 39  1  0  0  0  0
 42 44  1  0  0  0  0
 43 47  1  0  0  0  0
 44 46  1  0  0  0  0
 44 45  1  0  0  0  0
 45 47  2  0  0  0  0
 46 43  2  0  0  0  0
M  END
>  <MODEL>
6

>  <REMARK>
 VINA RESULT:      -7.1      3.955      9.159
  Name = 
  15 active torsions:
  status: ('A' for Active; 'I' for Inactive)
    1  A    between atoms: C_1  and  N_33
    2  A    between atoms: C_2  and  C_40
    3  A    between atoms: N_6  and  C_34
    4  A    between atoms: N_7  and  N_22
    5  A    between atoms: N_7  and  C_34
    6  A    between atoms: C_10  and  C_32
    7  A    between atoms: C_11  and  C_30
    8  A    between atoms: N_13  and  C_28
    9  A    between atoms: C_17  and  N_47
   10  A    between atoms: N_19  and  C_42
   11  A    between atoms: N_22  and  C_40
   12  A    between atoms: C_28  and  C_31
   13  A    between atoms: C_28  and  C_39
   14  A    between atoms: C_31  and  C_44
   15  A    between atoms: C_34  and  C_42
                            x       y       z     vdW  Elec       q    Type
                         _______ _______ _______ _____ _____    ______ ____

>  <TORSDO>
F 15

$$$$
=
 OpenBabel11062417353D

 47 50  0  0  1  0  0  0  0  0999 V2000
  189.6810  177.0790  139.3210 C   0  0  0  0  0  0  0  0  0  0  0  0
  188.0770  178.0330  140.8860 C   0  0  0  0  0  0  0  0  0  0  0  0
  190.4710  176.6720  140.4070 C   0  0  0  0  0  3  0  0  0  0  0  0
  188.4870  177.7650  139.5770 C   0  0  0  0  0  3  0  0  0  0  0  0
  190.8690  176.5050  142.7750 O   0  0  0  0  0  1  0  0  0  0  0  0
  188.4700  177.8770  143.3100 N   0  0  0  0  0  1  0  0  0  0  0  0
  190.0700  176.9280  141.7210 C   0  0  0  0  0  0  0  0  0  0  0  0
  188.8710  177.6090  141.9680 C   0  0  0  0  0  0  0  0  0  0  0  0
  190.2390  175.4940  137.4100 C   0  0  0  0  0  0  0  0  0  0  0  0
  189.7130  174.4900  137.9640 O   0  0  0  0  0  0  0  0  0  0  0  0
  190.3190  177.8710  137.1520 F   0  0  0  0  0  0  0  0  0  0  0  0
  190.0640  176.8140  137.9590 N   0  0  0  0  0  0  0  0  0  0  0  0
  191.4760  173.0150  136.9710 O   0  0  0  0  0  1  0  0  0  0  0  0
  192.5120  175.1490  136.2280 C   0  0  1  0  0  3  0  0  0  0  0  0
  191.6310  173.9470  135.9350 C   0  0  2  0  0  0  0  0  0  0  0  0
  190.9750  175.3120  136.1050 C   0  0  1  0  0  3  0  0  0  0  0  0
  191.6970  173.4640  134.6430 F   0  0  0  0  0  0  0  0  0  0  0  0
  193.9150  176.7240  139.3320 O   0  0  0  0  0  1  0  0  0  0  0  0
  194.5400  175.0870  137.6330 N   0  0  0  0  0  0  0  0  0  0  0  0
  193.8290  176.3390  137.9910 C   0  0  0  0  0  0  0  0  0  0  0  0
  193.9870  177.3410  137.0290 O   0  0  0  0  0  1  0  0  0  0  0  0
  193.0530  175.1390  137.6660 C   0  0  1  0  0  3  0  0  0  0  0  0
  195.1050  174.3260  138.7790 C   0  0  2  0  0  3  0  0  0  0  0  0
  197.3660  175.0600  138.7960 O   0  0  0  0  0  0  0  0  0  0  0  0
  196.3440  174.8870  139.4400 C   0  0  0  0  0  3  0  0  0  0  0  0
  195.2710  172.8430  138.4430 C   0  0  0  0  0  2  0  0  0  0  0  0
  194.5760  172.1510  136.1500 O   0  0  0  0  0  0  0  0  0  0  0  0
  196.6870  172.9590  136.5320 O   0  0  0  0  0  1  0  0  0  0  0  0
  195.5570  172.6510  136.9950 C   0  0  0  0  0  0  0  0  0  0  0  0
  186.8070  178.7920  141.0960 C   0  0  0  0  0  2  0  0  0  0  0  0
  186.0340  178.7850  139.8680 N   0  0  0  0  0  2  0  0  0  0  0  0
  184.9820  179.7010  140.0340 N   0  0  0  0  0  2  0  0  0  0  0  0
  183.7050  179.0020  139.8500 C   0  0  1  0  0  3  0  0  0  0  0  0
  184.3640  175.9340  136.5770 S   0  0  0  0  0  1  0  0  0  0  0  0
  183.7690  178.0280  138.7610 N   0  0  0  0  0  2  0  0  0  0  0  0
  183.0370  177.1000  136.5860 N   0  0  0  0  0  2  0  0  0  0  0  0
  182.8710  178.0460  137.6460 C   0  0  0  0  0  0  0  0  0  0  0  0
  181.9070  178.9160  137.6060 N   0  0  0  0  0  0  0  0  0  0  0  0
  180.9550  179.0200  136.5070 C   0  0  0  0  0  3  0  0  0  0  0  0
  179.6430  178.3860  136.9170 C   0  0  0  0  0  1  0  0  0  0  0  0
  180.7160  180.4800  136.1660 C   0  0  0  0  0  1  0  0  0  0  0  0
  183.1940  178.3630  141.1460 C   0  0  0  0  0  2  0  0  0  0  0  0
  179.6710  177.9570  141.1370 C   0  0  0  0  0  3  0  0  0  0  0  0
  181.7450  178.4520  141.2710 N   0  0  0  0  0  0  0  0  0  0  0  0
  181.1230  179.4100  141.9320 N   0  0  0  0  0  0  0  0  0  0  0  0
  180.9060  177.5580  140.7790 N   0  0  0  0  0  0  0  0  0  0  0  0
  179.8080  179.1270  141.8660 C   0  0  0  0  0  3  0  0  0  0  0  0
  1  4  2  0  0  0  0
  1  3  1  0  0  0  0
  2 30  1  0  0  0  0
  2  8  2  0  0  0  0
  3  7  2  0  0  0  0
  4  2  1  0  0  0  0
  7  8  1  0  0  0  0
  7  5  1  0  0  0  0
  8  6  1  0  0  0  0
  9 12  1  0  0  0  0
  9 10  2  0  0  0  0
 11 12  1  0  0  0  0
 12  1  1  0  0  0  0
 14 22  1  1  0  0  0
 15 17  1  6  0  0  0
 15 16  1  0  0  0  0
 15 14  1  0  0  0  0
 15 13  1  0  0  0  0
 16 14  1  0  0  0  0
 16  9  1  1  0  0  0
 19 20  1  0  0  0  0
 19 23  1  0  0  0  0
 20 18  1  0  0  0  0
 21 20  1  0  0  0  0
 22 19  1  6  0  0  0
 22 20  1  0  0  0  0
 23 26  1  6  0  0  0
 23 25  1  0  0  0  0
 24 25  2  0  0  0  0
 27 29  2  0  0  0  0
 28 29  1  0  0  0  0
 29 26  1  0  0  0  0
 31 32  1  0  0  0  0
 31 30  1  0  0  0  0
 33 32  1  0  0  0  0
 33 42  1  1  0  0  0
 34 36  1  0  0  0  0
 35 33  1  0  0  0  0
 36 37  1  0  0  0  0
 37 35  1  0  0  0  0
 38 37  2  0  0  0  0
 39 40  1  0  0  0  0
 39 38  1  0  0  0  0
 41 39  1  0  0  0  0
 42 44  1  0  0  0  0
 43 47  1  0  0  0  0
 44 45  1  0  0  0  0
 46 43  2  0  0  0  0
 46 44  1  0  0  0  0
 47 45  2  0  0  0  0
M  END
>  <MODEL>
7

>  <REMARK>
 VINA RESULT:      -7.1      4.804      9.512
  Name = 
  15 active torsions:
  status: ('A' for Active; 'I' for Inactive)
    1  A    between atoms: C_1  and  N_33
    2  A    between atoms: C_2  and  C_40
    3  A    between atoms: N_6  and  C_34
    4  A    between atoms: N_7  and  N_22
    5  A    between atoms: N_7  and  C_34
    6  A    between atoms: C_10  and  C_32
    7  A    between atoms: C_11  and  C_30
    8  A    between atoms: N_13  and  C_28
    9  A    between atoms: C_17  and  N_47
   10  A    between atoms: N_19  and  C_42
   11  A    between atoms: N_22  and  C_40
   12  A    between atoms: C_28  and  C_31
   13  A    between atoms: C_28  and  C_39
   14  A    between atoms: C_31  and  C_44
   15  A    between atoms: C_34  and  C_42
                            x       y       z     vdW  Elec       q    Type
                         _______ _______ _______ _____ _____    ______ ____

>  <TORSDO>
F 15

$$$$
=
 OpenBabel11062417353D

 47 50  0  0  1  0  0  0  0  0999 V2000
  191.0020  176.7730  139.3760 C   0  0  0  0  0  0  0  0  0  0  0  0
  189.3780  176.9230  137.5670 C   0  0  0  0  0  0  0  0  0  0  0  0
  191.6010  175.6840  138.7240 C   0  0  0  0  0  3  0  0  0  0  0  0
  189.8860  177.3790  138.7860 C   0  0  0  0  0  3  0  0  0  0  0  0
  191.7280  174.1480  136.8760 O   0  0  0  0  0  1  0  0  0  0  0  0
  189.4890  175.3580  135.6720 N   0  0  0  0  0  1  0  0  0  0  0  0
  191.1080  175.2210  137.5010 C   0  0  0  0  0  0  0  0  0  0  0  0
  189.9950  175.8390  136.9150 C   0  0  0  0  0  0  0  0  0  0  0  0
  191.0290  176.8460  141.9200 C   0  0  0  0  0  0  0  0  0  0  0  0
  190.4290  175.7450  142.0520 O   0  0  0  0  0  0  0  0  0  0  0  0
  192.4380  178.2530  140.5940 F   0  0  0  0  0  0  0  0  0  0  0  0
  191.5000  177.2780  140.6290 N   0  0  0  0  0  0  0  0  0  0  0  0
  190.5960  175.6350  144.4120 O   0  0  0  0  0  1  0  0  0  0  0  0
  190.1160  178.0420  144.0210 C   0  0  1  0  0  3  0  0  0  0  0  0
  191.0740  176.9520  144.4680 C   0  0  2  0  0  0  0  0  0  0  0  0
  191.3410  177.6660  143.1480 C   0  0  1  0  0  3  0  0  0  0  0  0
  191.9070  177.2880  145.5170 F   0  0  0  0  0  0  0  0  0  0  0  0
  187.3070  177.6040  141.5710 O   0  0  0  0  0  1  0  0  0  0  0  0
  187.6910  178.4560  143.8250 N   0  0  0  0  0  0  0  0  0  0  0  0
  188.1870  178.2530  142.4430 C   0  0  0  0  0  0  0  0  0  0  0  0
  188.8680  179.3680  141.9460 O   0  0  0  0  0  1  0  0  0  0  0  0
  188.7720  177.4750  143.5380 C   0  0  1  0  0  3  0  0  0  0  0  0
  186.3960  177.7960  144.1410 C   0  0  2  0  0  3  0  0  0  0  0  0
  185.1460  179.5560  143.1480 O   0  0  0  0  0  0  0  0  0  0  0  0
  185.1450  178.4050  143.5510 C   0  0  0  0  0  3  0  0  0  0  0  0
  186.2430  177.5440  145.6420 C   0  0  0  0  0  2  0  0  0  0  0  0
  184.0730  178.6280  146.2210 O   0  0  0  0  0  0  0  0  0  0  0  0
  186.0550  179.5470  146.9160 O   0  0  0  0  0  1  0  0  0  0  0  0
  185.4600  178.6320  146.2900 C   0  0  0  0  0  0  0  0  0  0  0  0
  188.1690  177.5920  137.0000 C   0  0  0  0  0  2  0  0  0  0  0  0
  187.0370  177.3690  137.8810 N   0  0  0  0  0  2  0  0  0  0  0  0
  186.4780  178.6250  138.1660 N   0  0  0  0  0  2  0  0  0  0  0  0
  185.0250  178.4790  138.3160 C   0  0  1  0  0  3  0  0  0  0  0  0
  184.1080  174.1000  137.5890 S   0  0  0  0  0  1  0  0  0  0  0  0
  184.5850  177.1110  138.0550 N   0  0  0  0  0  2  0  0  0  0  0  0
  183.1300  175.4300  136.9640 N   0  0  0  0  0  2  0  0  0  0  0  0
  183.4610  176.7980  137.2260 C   0  0  0  0  0  0  0  0  0  0  0  0
  182.7430  177.7560  136.7210 N   0  0  0  0  0  0  0  0  0  0  0  0
  181.5920  177.5350  135.8550 C   0  0  0  0  0  3  0  0  0  0  0  0
  180.3240  177.5870  136.6800 C   0  0  0  0  0  1  0  0  0  0  0  0
  181.5330  178.6150  134.7880 C   0  0  0  0  0  1  0  0  0  0  0  0
  184.5230  178.9830  139.6730 C   0  0  0  0  0  2  0  0  0  0  0  0
  181.3520  180.4360  139.0320 C   0  0  0  0  0  3  0  0  0  0  0  0
  183.1300  179.4100  139.6220 N   0  0  0  0  0  0  0  0  0  0  0  0
  182.1650  178.8490  140.3250 N   0  0  0  0  0  0  0  0  0  0  0  0
  182.6820  180.3680  138.8310 N   0  0  0  0  0  0  0  0  0  0  0  0
  181.0250  179.4760  139.9760 C   0  0  0  0  0  3  0  0  0  0  0  0
  1 12  1  0  0  0  0
  2  4  2  0  0  0  0
  3  1  2  0  0  0  0
  4  1  1  0  0  0  0
  5  7  1  0  0  0  0
  6  8  1  0  0  0  0
  7  3  1  0  0  0  0
  8  7  2  0  0  0  0
  8  2  1  0  0  0  0
  9 10  2  0  0  0  0
 11 12  1  0  0  0  0
 12  9  1  0  0  0  0
 14 22  1  6  0  0  0
 14 15  1  0  0  0  0
 15 13  1  6  0  0  0
 15 17  1  0  0  0  0
 16  9  1  6  0  0  0
 16 14  1  0  0  0  0
 16 15  1  0  0  0  0
 18 20  1  0  0  0  0
 19 23  1  0  0  0  0
 20 19  1  0  0  0  0
 21 20  1  0  0  0  0
 22 20  1  6  0  0  0
 22 19  1  0  0  0  0
 23 25  1  1  0  0  0
 23 26  1  0  0  0  0
 24 25  2  0  0  0  0
 26 29  1  0  0  0  0
 27 29  2  0  0  0  0
 29 28  1  0  0  0  0
 30  2  1  0  0  0  0
 30 31  1  0  0  0  0
 31 32  1  0  0  0  0
 32 33  1  0  0  0  0
 33 42  1  1  0  0  0
 35 33  1  0  0  0  0
 36 37  1  0  0  0  0
 36 34  1  0  0  0  0
 37 35  1  0  0  0  0
 38 37  2  0  0  0  0
 39 40  1  0  0  0  0
 39 38  1  0  0  0  0
 41 39  1  0  0  0  0
 43 47  1  0  0  0  0
 44 42  1  0  0  0  0
 44 45  1  0  0  0  0
 46 43  2  0  0  0  0
 46 44  1  0  0  0  0
 47 45  2  0  0  0  0
M  END
>  <MODEL>
8

>  <REMARK>
 VINA RESULT:      -6.8      3.635      8.957
  Name = 
  15 active torsions:
  status: ('A' for Active; 'I' for Inactive)
    1  A    between atoms: C_1  and  N_33
    2  A    between atoms: C_2  and  C_40
    3  A    between atoms: N_6  and  C_34
    4  A    between atoms: N_7  and  N_22
    5  A    between atoms: N_7  and  C_34
    6  A    between atoms: C_10  and  C_32
    7  A    between atoms: C_11  and  C_30
    8  A    between atoms: N_13  and  C_28
    9  A    between atoms: C_17  and  N_47
   10  A    between atoms: N_19  and  C_42
   11  A    between atoms: N_22  and  C_40
   12  A    between atoms: C_28  and  C_31
   13  A    between atoms: C_28  and  C_39
   14  A    between atoms: C_31  and  C_44
   15  A    between atoms: C_34  and  C_42
                            x       y       z     vdW  Elec       q    Type
                         _______ _______ _______ _____ _____    ______ ____

>  <TORSDO>
F 15

$$$$
=
 OpenBabel11062417353D

 47 50  0  0  1  0  0  0  0  0999 V2000
  183.8220  178.7040  142.9450 C   0  0  0  0  0  0  0  0  0  0  0  0
  186.0920  177.9400  143.3890 C   0  0  0  0  0  0  0  0  0  0  0  0
  183.6260  178.8680  144.3250 C   0  0  0  0  0  3  0  0  0  0  0  0
  185.0610  178.2340  142.4920 C   0  0  0  0  0  3  0  0  0  0  0  0
  184.4290  178.7650  146.5910 O   0  0  0  0  0  1  0  0  0  0  0  0
  186.9280  177.8240  145.7000 N   0  0  0  0  0  1  0  0  0  0  0  0
  184.6510  178.5840  145.2330 C   0  0  0  0  0  0  0  0  0  0  0  0
  185.8890  178.1210  144.7700 C   0  0  0  0  0  0  0  0  0  0  0  0
  182.8920  178.7390  140.5760 C   0  0  0  0  0  0  0  0  0  0  0  0
  183.7230  177.8990  140.1360 O   0  0  0  0  0  0  0  0  0  0  0  0
  181.6650  179.6120  142.4350 F   0  0  0  0  0  0  0  0  0  0  0  0
  182.7880  179.0040  141.9880 N   0  0  0  0  0  0  0  0  0  0  0  0
  180.2760  177.7320  140.4860 O   0  0  0  0  0  1  0  0  0  0  0  0
  181.4570  178.5060  138.4400 C   0  0  1  0  0  3  0  0  0  0  0  0
  180.5330  178.7960  139.6090 C   0  0  2  0  0  0  0  0  0  0  0  0
  181.9330  179.3980  139.6140 C   0  0  1  0  0  3  0  0  0  0  0  0
  179.4990  179.6730  139.3450 F   0  0  0  0  0  0  0  0  0  0  0  0
  183.9520  175.8030  137.7000 O   0  0  0  0  0  1  0  0  0  0  0  0
  181.6440  176.3950  137.1740 N   0  0  0  0  0  0  0  0  0  0  0  0
  183.0330  176.8290  137.4610 C   0  0  0  0  0  0  0  0  0  0  0  0
  183.4500  177.8780  136.6370 O   0  0  0  0  0  1  0  0  0  0  0  0
  181.9860  177.0640  138.4590 C   0  0  1  0  0  3  0  0  0  0  0  0
  181.3820  174.9410  137.3450 C   0  0  2  0  0  3  0  0  0  0  0  0
  182.8610  173.6240  136.0310 O   0  0  0  0  0  0  0  0  0  0  0  0
  181.7230  174.0350  136.1840 C   0  0  0  0  0  3  0  0  0  0  0  0
  179.9680  174.6810  137.8640 C   0  0  0  0  0  2  0  0  0  0  0  0
  179.8840  174.1000  140.2890 O   0  0  0  0  0  1  0  0  0  0  0  0
  180.0560  172.4530  138.7030 O   0  0  0  0  0  0  0  0  0  0  0  0
  179.9790  173.6810  138.9680 C   0  0  0  0  0  0  0  0  0  0  0  0
  187.3820  177.4170  142.8480 C   0  0  0  0  0  2  0  0  0  0  0  0
  187.7940  178.2260  141.7160 N   0  0  0  0  0  2  0  0  0  0  0  0
  189.1910  178.1250  141.6190 N   0  0  0  0  0  2  0  0  0  0  0  0
  189.5500  176.7360  141.3080 C   0  0  1  0  0  3  0  0  0  0  0  0
  192.5510  176.6100  137.9120 S   0  0  0  0  0  1  0  0  0  0  0  0
  190.4030  176.6460  140.1240 N   0  0  0  0  0  2  0  0  0  0  0  0
  190.8040  176.7250  137.6820 N   0  0  0  0  0  2  0  0  0  0  0  0
  189.8980  176.7570  138.7890 C   0  0  0  0  0  0  0  0  0  0  0  0
  188.6200  176.8810  138.5890 N   0  0  0  0  0  0  0  0  0  0  0  0
  188.0160  177.0160  137.2700 C   0  0  0  0  0  3  0  0  0  0  0  0
  187.3950  175.6960  136.8640 C   0  0  0  0  0  1  0  0  0  0  0  0
  186.9360  178.0820  137.3020 C   0  0  0  0  0  1  0  0  0  0  0  0
  190.1710  176.0090  142.5050 C   0  0  0  0  0  2  0  0  0  0  0  0
  191.1780  177.8930  145.3360 C   0  0  0  0  0  3  0  0  0  0  0  0
  190.7380  176.9340  143.4790 N   0  0  0  0  0  0  0  0  0  0  0  0
  191.6670  177.8250  143.1890 N   0  0  0  0  0  0  0  0  0  0  0  0
  190.4180  176.9430  144.7600 N   0  0  0  0  0  0  0  0  0  0  0  0
  191.9670  178.4510  144.3430 C   0  0  0  0  0  3  0  0  0  0  0  0
  1  3  1  0  0  0  0
  2  8  2  0  0  0  0
  3  7  2  0  0  0  0
  4  1  2  0  0  0  0
  4  2  1  0  0  0  0
  7  5  1  0  0  0  0
  8  7  1  0  0  0  0
  8  6  1  0  0  0  0
  9 12  1  0  0  0  0
 10  9  2  0  0  0  0
 12 11  1  0  0  0  0
 12  1  1  0  0  0  0
 14 22  1  1  0  0  0
 14 15  1  0  0  0  0
 14 16  1  0  0  0  0
 15 17  1  6  0  0  0
 15 16  1  0  0  0  0
 15 13  1  0  0  0  0
 16  9  1  1  0  0  0
 19 23  1  0  0  0  0
 19 20  1  0  0  0  0
 20 18  1  0  0  0  0
 20 22  1  0  0  0  0
 21 20  1  0  0  0  0
 22 19  1  6  0  0  0
 23 25  1  6  0  0  0
 23 26  1  0  0  0  0
 24 25  2  0  0  0  0
 26 29  1  0  0  0  0
 28 29  2  0  0  0  0
 29 27  1  0  0  0  0
 30  2  1  0  0  0  0
 31 30  1  0  0  0  0
 32 31  1  0  0  0  0
 33 32  1  0  0  0  0
 33 42  1  1  0  0  0
 35 33  1  0  0  0  0
 36 34  1  0  0  0  0
 36 37  1  0  0  0  0
 37 35  1  0  0  0  0
 38 37  2  0  0  0  0
 39 41  1  0  0  0  0
 39 38  1  0  0  0  0
 40 39  1  0  0  0  0
 42 44  1  0  0  0  0
 44 46  1  0  0  0  0
 45 44  1  0  0  0  0
 45 47  2  0  0  0  0
 46 43  2  0  0  0  0
 47 43  1  0  0  0  0
M  END
>  <MODEL>
9

>  <REMARK>
 VINA RESULT:      -6.7      1.927      2.661
  Name = 
  15 active torsions:
  status: ('A' for Active; 'I' for Inactive)
    1  A    between atoms: C_1  and  N_33
    2  A    between atoms: C_2  and  C_40
    3  A    between atoms: N_6  and  C_34
    4  A    between atoms: N_7  and  N_22
    5  A    between atoms: N_7  and  C_34
    6  A    between atoms: C_10  and  C_32
    7  A    between atoms: C_11  and  C_30
    8  A    between atoms: N_13  and  C_28
    9  A    between atoms: C_17  and  N_47
   10  A    between atoms: N_19  and  C_42
   11  A    between atoms: N_22  and  C_40
   12  A    between atoms: C_28  and  C_31
   13  A    between atoms: C_28  and  C_39
   14  A    between atoms: C_31  and  C_44
   15  A    between atoms: C_34  and  C_42
                            x       y       z     vdW  Elec       q    Type
                         _______ _______ _______ _____ _____    ______ ____

>  <TORSDO>
F 15

$$$$
