=
 OpenBabel11062413503D

 52 54  0  0  1  0  0  0  0  0999 V2000
  185.4610  179.2570  139.9800 O   0  0  0  0  0  0  0  0  0  0  0  0
  185.6790  178.4950  138.9350 C   0  0  0  0  0  0  0  0  0  0  0  0
  184.1910  179.5830  140.0220 C   0  0  0  0  0  3  0  0  0  0  0  0
  184.5130  178.2790  138.2280 C   0  0  0  0  0  3  0  0  0  0  0  0
  183.5630  178.9840  138.9430 C   0  0  0  0  0  0  0  0  0  0  0  0
  180.2940  180.0100  137.2400 C   0  0  1  0  0  3  0  0  0  0  0  0
  182.1360  179.0940  138.5950 C   0  0  0  0  0  0  0  0  0  0  0  0
  180.1070  180.2860  135.8850 O   0  0  0  0  0  1  0  0  0  0  0  0
  181.7510  179.8090  137.5330 C   0  0  0  0  0  3  0  0  0  0  0  0
  180.8940  178.2180  139.5810 S   0  0  0  0  0  0  0  0  0  0  0  0
  180.2280  180.9990  139.6060 C   0  0  0  0  0  2  0  0  0  0  0  0
  180.0320  179.6670  140.3310 C   0  0  2  0  0  3  0  0  0  0  0  0
  179.6260  181.0610  138.1760 C   0  0  1  0  0  3  0  0  0  0  0  0
  181.0650  182.9380  137.6630 C   0  0  0  0  0  1  0  0  0  0  0  0
  179.6980  182.4240  137.6070 N   0  0  0  0  0  0  0  0  0  0  0  0
  178.9380  183.3120  138.4810 C   0  0  0  0  0  2  0  0  0  0  0  0
  178.9440  184.7240  137.9170 C   0  0  0  0  0  1  0  0  0  0  0  0
  180.4700  179.8330  141.7730 C   0  0  0  0  0  2  0  0  0  0  0  0
  181.5180  178.7940  142.1470 C   0  0  0  0  0  2  0  0  0  0  0  0
  181.8890  178.9420  143.6090 C   0  0  0  0  0  2  0  0  0  0  0  0
  183.3860  178.7880  143.7930 C   0  0  0  0  0  2  0  0  0  0  0  0
  183.7280  178.8520  145.2740 C   0  0  0  0  0  2  0  0  0  0  0  0
  185.2100  179.1460  145.4560 C   0  0  0  0  0  2  0  0  0  0  0  0
  185.7360  178.3560  146.6420 C   0  0  0  0  0  2  0  0  0  0  0  0
  186.8770  177.4790  146.2320 C   0  0  0  0  0  3  0  0  0  0  0  0
  188.1070  177.9800  146.1160 C   0  0  0  0  0  2  0  0  0  0  0  0
  187.0080  177.9150  138.5790 C   0  0  2  0  0  3  0  0  0  0  0  0
  188.0350  178.6250  139.2200 O   0  0  0  0  0  0  0  0  0  0  0  0
  188.6690  177.7030  140.0620 C   0  0  1  0  0  3  0  0  0  0  0  0
  190.9900  177.6270  140.5890 F   0  0  0  0  0  0  0  0  0  0  0  0
  190.1890  176.1120  139.1280 F   0  0  0  0  0  0  0  0  0  0  0  0
  190.0870  177.4210  139.5640 C   0  0  0  0  0  0  0  0  0  0  0  0
  190.4040  178.2740  138.5220 F   0  0  0  0  0  0  0  0  0  0  0  0
  188.7060  178.2510  141.4880 C   0  0  0  0  0  2  0  0  0  0  0  0
  189.7800  175.9040  142.7730 O   0  0  0  0  0  1  0  0  0  0  0  0
  187.9080  177.3900  142.4130 C   0  0  0  0  0  0  0  0  0  0  0  0
  186.6810  177.7000  142.6730 N   0  0  0  0  0  2  0  0  0  0  0  0
  188.4910  176.2360  143.0180 N   0  0  0  0  0  2  0  0  0  0  0  0
  187.1950  177.8630  137.0530 C   0  0  0  0  0  2  0  0  0  0  0  0
  188.1560  176.7720  136.5650 C   0  0  1  0  0  3  0  0  0  0  0  0
  185.9260  175.8300  135.8340 C   0  0  0  0  0  2  0  0  0  0  0  0
  187.4890  174.3950  136.9730 C   0  0  0  0  0  2  0  0  0  0  0  0
  186.0690  173.8990  137.1070 C   0  0  0  0  0  2  0  0  0  0  0  0
  187.4120  175.5500  136.0020 C   0  0  2  0  0  3  0  0  0  0  0  0
  184.0520  174.4580  136.0750 C   0  0  0  0  0  1  0  0  0  0  0  0
  185.1900  175.0090  136.7850 N   0  0  0  0  0  0  0  0  0  0  0  0
  189.1820  177.3330  135.5730 C   0  0  0  0  0  2  0  0  0  0  0  0
  190.1790  176.2810  135.1030 C   0  0  0  0  0  2  0  0  0  0  0  0
  191.0930  175.8740  136.2450 C   0  0  0  0  0  2  0  0  0  0  0  0
  192.5460  175.9150  135.8080 C   0  0  0  0  0  2  0  0  0  0  0  0
  193.4320  176.0700  137.0260 C   0  0  0  0  0  2  0  0  0  0  0  0
  194.7660  176.1240  136.6230 O   0  0  0  0  0  1  0  0  0  0  0  0
  1  3  1  0  0  0  0
  2  1  1  0  0  0  0
  4  2  2  0  0  0  0
  4  5  1  0  0  0  0
  5  3  2  0  0  0  0
  6  8  1  6  0  0  0
  6  9  1  0  0  0  0
  6 13  1  0  0  0  0
  7  5  1  0  0  0  0
  7 10  1  0  0  0  0
  9  7  2  0  0  0  0
 10 12  1  0  0  0  0
 11 12  1  0  0  0  0
 12 18  1  1  0  0  0
 13 15  1  6  0  0  0
 13 11  1  0  0  0  0
 15 14  1  0  0  0  0
 15 16  1  0  0  0  0
 17 16  1  0  0  0  0
 18 19  1  0  0  0  0
 19 20  1  0  0  0  0
 20 21  1  0  0  0  0
 21 22  1  0  0  0  0
 22 23  1  0  0  0  0
 23 24  1  0  0  0  0
 25 24  1  0  0  0  0
 26 25  2  0  0  0  0
 27 39  1  6  0  0  0
 27  2  1  0  0  0  0
 27 28  1  0  0  0  0
 28 29  1  0  0  0  0
 29 34  1  1  0  0  0
 31 32  1  0  0  0  0
 32 29  1  0  0  0  0
 32 30  1  0  0  0  0
 33 32  1  0  0  0  0
 34 36  1  0  0  0  0
 35 38  1  0  0  0  0
 36 37  2  0  0  0  0
 36 38  1  0  0  0  0
 40 47  1  6  0  0  0
 40 39  1  0  0  0  0
 41 44  1  0  0  0  0
 41 46  1  0  0  0  0
 42 43  1  0  0  0  0
 44 40  1  1  0  0  0
 44 42  1  0  0  0  0
 45 46  1  0  0  0  0
 46 43  1  0  0  0  0
 48 47  1  0  0  0  0
 48 49  1  0  0  0  0
 50 49  1  0  0  0  0
 50 51  1  0  0  0  0
 52 51  1  0  0  0  0
M  END
>  <MODEL>
1

>  <REMARK>
 VINA RESULT:      -6.5      0.000      0.000
  Name = 
  25 active torsions:
  status: ('A' for Active; 'I' for Inactive)
    1  A    between atoms: O_1  and  C_23
    2  A    between atoms: O_1  and  C_33
    3  A    between atoms: C_3  and  C_7
    4  A    between atoms: C_3  and  C_19
    5  A    between atoms: C_7  and  C_46
    6  A    between atoms: C_11  and  C_35
    7  A    between atoms: C_13  and  N_14
    8  A    between atoms: N_14  and  C_50
    9  A    between atoms: C_15  and  C_23
   10  A    between atoms: C_17  and  C_52
   11  A    between atoms: C_18  and  C_25
   12  A    between atoms: C_19  and  C_52
   13  A    between atoms: C_20  and  C_49
   14  A    between atoms: C_23  and  C_30
   15  A    between atoms: C_25  and  C_33
   16  A    between atoms: C_28  and  C_36
   17  A    between atoms: C_28  and  C_40
   18  A    between atoms: C_30  and  C_46
   19  A    between atoms: C_31  and  C_46
   20  A    between atoms: C_33  and  C_38
   21  A    between atoms: C_35  and  C_47
   22  A    between atoms: C_36  and  C_51
   23  A    between atoms: C_40  and  C_48
   24  A    between atoms: C_44  and  C_48
   25  A    between atoms: C_47  and  C_51
                            x       y       z     vdW  Elec       q    Type
                         _______ _______ _______ _____ _____    ______ ____

>  <TORSDO>
F 25

$$$$
=
 OpenBabel11062413503D

 52 54  0  0  1  0  0  0  0  0999 V2000
  189.5970  178.5620  139.1590 O   0  0  0  0  0  0  0  0  0  0  0  0
  188.4970  178.3240  139.8330 C   0  0  0  0  0  0  0  0  0  0  0  0
  189.5230  177.9770  137.9880 C   0  0  0  0  0  3  0  0  0  0  0  0
  187.6240  177.5490  139.0960 C   0  0  0  0  0  3  0  0  0  0  0  0
  188.2980  177.3370  137.9090 C   0  0  0  0  0  0  0  0  0  0  0  0
  185.9800  175.5530  135.4420 C   0  0  1  0  0  3  0  0  0  0  0  0
  187.8020  176.5430  136.7710 C   0  0  0  0  0  0  0  0  0  0  0  0
  184.7230  175.9820  135.0160 O   0  0  0  0  0  1  0  0  0  0  0  0
  186.4900  176.4450  136.5340 C   0  0  0  0  0  3  0  0  0  0  0  0
  188.9750  175.7340  135.6530 S   0  0  0  0  0  0  0  0  0  0  0  0
  187.2450  173.7190  136.7130 C   0  0  0  0  0  2  0  0  0  0  0  0
  188.6010  173.9710  136.0510 C   0  0  2  0  0  3  0  0  0  0  0  0
  186.0130  174.0430  135.8250 C   0  0  1  0  0  3  0  0  0  0  0  0
  185.0080  172.9650  137.7450 C   0  0  0  0  0  1  0  0  0  0  0  0
  184.7490  173.6120  136.4600 N   0  0  0  0  0  0  0  0  0  0  0  0
  184.1710  172.5590  135.6320 C   0  0  0  0  0  2  0  0  0  0  0  0
  182.6590  172.5530  135.7820 C   0  0  0  0  0  1  0  0  0  0  0  0
  189.6880  173.4070  136.9460 C   0  0  0  0  0  2  0  0  0  0  0  0
  190.8990  174.3280  136.9780 C   0  0  0  0  0  2  0  0  0  0  0  0
  192.1060  173.6060  136.4100 C   0  0  0  0  0  2  0  0  0  0  0  0
  192.6820  174.3800  135.2410 C   0  0  0  0  0  2  0  0  0  0  0  0
  194.0110  173.7670  134.8270 C   0  0  0  0  0  2  0  0  0  0  0  0
  194.5130  172.8260  135.9130 C   0  0  0  0  0  2  0  0  0  0  0  0
  195.9410  173.1970  136.2770 C   0  0  0  0  0  2  0  0  0  0  0  0
  195.9840  173.9210  137.5850 C   0  0  0  0  0  3  0  0  0  0  0  0
  195.2470  173.5030  138.6140 C   0  0  0  0  0  2  0  0  0  0  0  0
  188.2170  178.8510  141.2020 C   0  0  2  0  0  3  0  0  0  0  0  0
  189.3560  178.7220  142.0120 O   0  0  0  0  0  0  0  0  0  0  0  0
  189.2650  177.4550  142.6000 C   0  0  1  0  0  3  0  0  0  0  0  0
  191.5370  177.2490  141.9180 F   0  0  0  0  0  0  0  0  0  0  0  0
  190.5700  175.4780  142.9180 F   0  0  0  0  0  0  0  0  0  0  0  0
  190.3610  176.5380  142.0550 C   0  0  0  0  0  0  0  0  0  0  0  0
  189.9960  176.0490  140.8130 F   0  0  0  0  0  0  0  0  0  0  0  0
  189.3870  177.5830  144.1180 C   0  0  0  0  0  2  0  0  0  0  0  0
  191.4770  176.3540  145.6780 O   0  0  0  0  0  1  0  0  0  0  0  0
  190.6460  178.2930  144.4960 C   0  0  0  0  0  0  0  0  0  0  0  0
  190.8330  179.5100  144.1070 N   0  0  0  0  0  2  0  0  0  0  0  0
  191.6460  177.6350  145.2750 N   0  0  0  0  0  2  0  0  0  0  0  0
  186.9820  178.1670  141.8130 C   0  0  0  0  0  2  0  0  0  0  0  0
  185.6900  178.9900  141.7270 C   0  0  1  0  0  3  0  0  0  0  0  0
  184.3400  179.0560  139.5890 C   0  0  0  0  0  2  0  0  0  0  0  0
  183.2940  178.2780  141.6140 C   0  0  0  0  0  2  0  0  0  0  0  0
  182.2800  178.7830  140.6150 C   0  0  0  0  0  2  0  0  0  0  0  0
  184.6140  178.2940  140.8780 C   0  0  2  0  0  3  0  0  0  0  0  0
  182.3810  179.3710  138.3590 C   0  0  0  0  0  1  0  0  0  0  0  0
  182.9930  179.6050  139.6520 N   0  0  0  0  0  0  0  0  0  0  0  0
  185.1740  179.3680  143.1210 C   0  0  0  0  0  2  0  0  0  0  0  0
  185.7250  178.4610  144.2150 C   0  0  0  0  0  2  0  0  0  0  0  0
  184.9020  178.6080  145.4820 C   0  0  0  0  0  2  0  0  0  0  0  0
  185.8010  178.8670  146.6780 C   0  0  0  0  0  2  0  0  0  0  0  0
  186.9110  177.8370  146.7040 C   0  0  0  0  0  2  0  0  0  0  0  0
  187.6850  178.0210  147.8480 O   0  0  0  0  0  1  0  0  0  0  0  0
  1  2  1  0  0  0  0
  2 27  1  0  0  0  0
  3  1  1  0  0  0  0
  4  2  2  0  0  0  0
  5  3  2  0  0  0  0
  5  4  1  0  0  0  0
  6  8  1  1  0  0  0
  6 13  1  0  0  0  0
  6  9  1  0  0  0  0
  7  5  1  0  0  0  0
  9  7  2  0  0  0  0
 10 12  1  0  0  0  0
 10  7  1  0  0  0  0
 12 11  1  0  0  0  0
 12 18  1  1  0  0  0
 13 15  1  1  0  0  0
 13 11  1  0  0  0  0
 15 14  1  0  0  0  0
 16 17  1  0  0  0  0
 16 15  1  0  0  0  0
 18 19  1  0  0  0  0
 20 19  1  0  0  0  0
 21 20  1  0  0  0  0
 22 21  1  0  0  0  0
 22 23  1  0  0  0  0
 23 24  1  0  0  0  0
 24 25  1  0  0  0  0
 25 26  2  0  0  0  0
 27 39  1  1  0  0  0
 27 28  1  0  0  0  0
 28 29  1  0  0  0  0
 29 34  1  1  0  0  0
 30 32  1  0  0  0  0
 32 29  1  0  0  0  0
 32 31  1  0  0  0  0
 33 32  1  0  0  0  0
 34 36  1  0  0  0  0
 36 38  1  0  0  0  0
 37 36  2  0  0  0  0
 38 35  1  0  0  0  0
 40 39  1  1  0  0  0
 40 47  1  0  0  0  0
 41 46  1  0  0  0  0
 41 44  1  0  0  0  0
 43 42  1  0  0  0  0
 44 42  1  0  0  0  0
 44 40  1  1  0  0  0
 45 46  1  0  0  0  0
 46 43  1  0  0  0  0
 47 48  1  0  0  0  0
 48 49  1  0  0  0  0
 49 50  1  0  0  0  0
 50 51  1  0  0  0  0
 51 52  1  0  0  0  0
M  END
>  <MODEL>
2

>  <REMARK>
 VINA RESULT:      -6.0      2.984      8.885
  Name = 
  25 active torsions:
  status: ('A' for Active; 'I' for Inactive)
    1  A    between atoms: O_1  and  C_23
    2  A    between atoms: O_1  and  C_33
    3  A    between atoms: C_3  and  C_7
    4  A    between atoms: C_3  and  C_19
    5  A    between atoms: C_7  and  C_46
    6  A    between atoms: C_11  and  C_35
    7  A    between atoms: C_13  and  N_14
    8  A    between atoms: N_14  and  C_50
    9  A    between atoms: C_15  and  C_23
   10  A    between atoms: C_17  and  C_52
   11  A    between atoms: C_18  and  C_25
   12  A    between atoms: C_19  and  C_52
   13  A    between atoms: C_20  and  C_49
   14  A    between atoms: C_23  and  C_30
   15  A    between atoms: C_25  and  C_33
   16  A    between atoms: C_28  and  C_36
   17  A    between atoms: C_28  and  C_40
   18  A    between atoms: C_30  and  C_46
   19  A    between atoms: C_31  and  C_46
   20  A    between atoms: C_33  and  C_38
   21  A    between atoms: C_35  and  C_47
   22  A    between atoms: C_36  and  C_51
   23  A    between atoms: C_40  and  C_48
   24  A    between atoms: C_44  and  C_48
   25  A    between atoms: C_47  and  C_51
                            x       y       z     vdW  Elec       q    Type
                         _______ _______ _______ _____ _____    ______ ____

>  <TORSDO>
F 25

$$$$
=
 OpenBabel11062413503D

 52 54  0  0  1  0  0  0  0  0999 V2000
  188.9810  179.2110  138.9540 O   0  0  0  0  0  0  0  0  0  0  0  0
  188.3900  178.4100  139.8090 C   0  0  0  0  0  0  0  0  0  0  0  0
  188.8340  178.7340  137.7410 C   0  0  0  0  0  3  0  0  0  0  0  0
  187.8060  177.3400  139.1610 C   0  0  0  0  0  3  0  0  0  0  0  0
  188.0980  177.5650  137.8300 C   0  0  0  0  0  0  0  0  0  0  0  0
  186.0230  175.5370  135.3360 C   0  0  1  0  0  3  0  0  0  0  0  0
  187.7110  176.6930  136.7070 C   0  0  0  0  0  0  0  0  0  0  0  0
  184.7670  175.8700  134.8260 O   0  0  0  0  0  1  0  0  0  0  0  0
  186.4210  176.5060  136.4080 C   0  0  0  0  0  3  0  0  0  0  0  0
  188.9870  175.9080  135.6890 S   0  0  0  0  0  0  0  0  0  0  0  0
  187.3220  173.8410  136.7550 C   0  0  0  0  0  2  0  0  0  0  0  0
  188.6950  174.1450  136.1510 C   0  0  2  0  0  3  0  0  0  0  0  0
  186.1230  174.0510  135.7910 C   0  0  1  0  0  3  0  0  0  0  0  0
  185.0700  173.0580  137.7310 C   0  0  0  0  0  1  0  0  0  0  0  0
  184.8530  173.5730  136.3810 N   0  0  0  0  0  0  0  0  0  0  0  0
  184.4160  172.4110  135.6140 C   0  0  0  0  0  2  0  0  0  0  0  0
  183.0010  172.6290  135.1030 C   0  0  0  0  0  1  0  0  0  0  0  0
  189.7630  173.6870  137.1260 C   0  0  0  0  0  2  0  0  0  0  0  0
  191.1550  173.9090  136.5520 C   0  0  0  0  0  2  0  0  0  0  0  0
  192.0200  174.6290  137.5680 C   0  0  0  0  0  2  0  0  0  0  0  0
  193.3410  175.0340  136.9440 C   0  0  0  0  0  2  0  0  0  0  0  0
  194.4480  174.9360  137.9820 C   0  0  0  0  0  2  0  0  0  0  0  0
  195.7360  174.4580  137.3300 C   0  0  0  0  0  2  0  0  0  0  0  0
  196.6360  173.8430  138.3880 C   0  0  0  0  0  2  0  0  0  0  0  0
  196.5020  174.5720  139.6880 C   0  0  0  0  0  3  0  0  0  0  0  0
  197.5430  175.2230  140.2090 C   0  0  0  0  0  2  0  0  0  0  0  0
  188.3320  178.6450  141.2820 C   0  0  2  0  0  3  0  0  0  0  0  0
  189.6190  178.5590  141.8370 O   0  0  0  0  0  0  0  0  0  0  0  0
  189.5350  177.5940  142.8480 C   0  0  1  0  0  3  0  0  0  0  0  0
  190.4620  176.2830  141.0890 F   0  0  0  0  0  0  0  0  0  0  0  0
  191.6050  176.4110  143.0250 F   0  0  0  0  0  0  0  0  0  0  0  0
  190.3430  176.3530  142.4630 C   0  0  0  0  0  0  0  0  0  0  0  0
  189.6990  175.2120  142.9060 F   0  0  0  0  0  0  0  0  0  0  0  0
  190.0550  178.1790  144.1600 C   0  0  0  0  0  2  0  0  0  0  0  0
  191.9440  177.1470  146.0780 O   0  0  0  0  0  1  0  0  0  0  0  0
  189.6550  177.3280  145.3220 C   0  0  0  0  0  0  0  0  0  0  0  0
  188.4090  177.0380  145.5010 N   0  0  0  0  0  2  0  0  0  0  0  0
  190.6360  176.8410  146.2380 N   0  0  0  0  0  2  0  0  0  0  0  0
  187.3380  177.6820  141.9550 C   0  0  0  0  0  2  0  0  0  0  0  0
  185.9380  178.2660  142.1770 C   0  0  1  0  0  3  0  0  0  0  0  0
  185.9660  178.1700  144.7050 C   0  0  0  0  0  2  0  0  0  0  0  0
  184.4850  179.7190  143.6060 C   0  0  0  0  0  2  0  0  0  0  0  0
  184.0090  179.3770  144.9980 C   0  0  0  0  0  2  0  0  0  0  0  0
  185.8450  179.0710  143.4850 C   0  0  2  0  0  3  0  0  0  0  0  0
  184.9720  178.2750  146.8160 C   0  0  0  0  0  1  0  0  0  0  0  0
  184.6860  178.1560  145.3990 N   0  0  0  0  0  0  0  0  0  0  0  0
  185.4700  179.0780  140.9630 C   0  0  0  0  0  2  0  0  0  0  0  0
  184.3160  178.4130  140.2230 C   0  0  0  0  0  2  0  0  0  0  0  0
  184.4800  178.5930  138.7240 C   0  0  0  0  0  2  0  0  0  0  0  0
  183.2640  178.0650  137.9860 C   0  0  0  0  0  2  0  0  0  0  0  0
  182.0140  178.7060  138.5530 C   0  0  0  0  0  2  0  0  0  0  0  0
  181.8330  179.9590  137.9700 O   0  0  0  0  0  1  0  0  0  0  0  0
  1  2  1  0  0  0  0
  2 27  1  0  0  0  0
  3  5  2  0  0  0  0
  3  1  1  0  0  0  0
  4  2  2  0  0  0  0
  5  4  1  0  0  0  0
  6  8  1  1  0  0  0
  6 13  1  0  0  0  0
  6  9  1  0  0  0  0
  7  5  1  0  0  0  0
  9  7  2  0  0  0  0
 10 12  1  0  0  0  0
 10  7  1  0  0  0  0
 12 11  1  0  0  0  0
 12 18  1  1  0  0  0
 13 15  1  1  0  0  0
 13 11  1  0  0  0  0
 15 14  1  0  0  0  0
 16 15  1  0  0  0  0
 17 16  1  0  0  0  0
 19 18  1  0  0  0  0
 19 20  1  0  0  0  0
 21 20  1  0  0  0  0
 21 22  1  0  0  0  0
 23 22  1  0  0  0  0
 23 24  1  0  0  0  0
 24 25  1  0  0  0  0
 25 26  2  0  0  0  0
 27 28  1  0  0  0  0
 27 39  1  1  0  0  0
 28 29  1  0  0  0  0
 29 34  1  1  0  0  0
 30 32  1  0  0  0  0
 32 29  1  0  0  0  0
 32 33  1  0  0  0  0
 32 31  1  0  0  0  0
 34 36  1  0  0  0  0
 35 38  1  0  0  0  0
 36 37  2  0  0  0  0
 36 38  1  0  0  0  0
 39 40  1  0  0  0  0
 40 47  1  6  0  0  0
 41 46  1  0  0  0  0
 42 43  1  0  0  0  0
 43 46  1  0  0  0  0
 44 40  1  6  0  0  0
 44 42  1  0  0  0  0
 44 41  1  0  0  0  0
 46 45  1  0  0  0  0
 48 47  1  0  0  0  0
 49 48  1  0  0  0  0
 50 51  1  0  0  0  0
 50 49  1  0  0  0  0
 52 51  1  0  0  0  0
M  END
>  <MODEL>
3

>  <REMARK>
 VINA RESULT:      -5.8      3.179      8.822
  Name = 
  25 active torsions:
  status: ('A' for Active; 'I' for Inactive)
    1  A    between atoms: O_1  and  C_23
    2  A    between atoms: O_1  and  C_33
    3  A    between atoms: C_3  and  C_7
    4  A    between atoms: C_3  and  C_19
    5  A    between atoms: C_7  and  C_46
    6  A    between atoms: C_11  and  C_35
    7  A    between atoms: C_13  and  N_14
    8  A    between atoms: N_14  and  C_50
    9  A    between atoms: C_15  and  C_23
   10  A    between atoms: C_17  and  C_52
   11  A    between atoms: C_18  and  C_25
   12  A    between atoms: C_19  and  C_52
   13  A    between atoms: C_20  and  C_49
   14  A    between atoms: C_23  and  C_30
   15  A    between atoms: C_25  and  C_33
   16  A    between atoms: C_28  and  C_36
   17  A    between atoms: C_28  and  C_40
   18  A    between atoms: C_30  and  C_46
   19  A    between atoms: C_31  and  C_46
   20  A    between atoms: C_33  and  C_38
   21  A    between atoms: C_35  and  C_47
   22  A    between atoms: C_36  and  C_51
   23  A    between atoms: C_40  and  C_48
   24  A    between atoms: C_44  and  C_48
   25  A    between atoms: C_47  and  C_51
                            x       y       z     vdW  Elec       q    Type
                         _______ _______ _______ _____ _____    ______ ____

>  <TORSDO>
F 25

$$$$
=
 OpenBabel11062413503D

 52 54  0  0  1  0  0  0  0  0999 V2000
  181.9360  177.6540  140.5820 O   0  0  0  0  0  0  0  0  0  0  0  0
  182.4780  177.4370  139.4070 C   0  0  0  0  0  0  0  0  0  0  0  0
  182.8430  178.1390  141.3960 C   0  0  0  0  0  3  0  0  0  0  0  0
  183.8120  177.7930  139.4050 C   0  0  0  0  0  3  0  0  0  0  0  0
  184.0310  178.2460  140.6920 C   0  0  0  0  0  0  0  0  0  0  0  0
  187.7760  178.8490  141.1930 C   0  0  1  0  0  3  0  0  0  0  0  0
  185.3160  178.7330  141.2230 C   0  0  0  0  0  0  0  0  0  0  0  0
  188.7480  178.9470  140.1970 O   0  0  0  0  0  1  0  0  0  0  0  0
  186.4610  178.4450  140.5970 C   0  0  0  0  0  3  0  0  0  0  0  0
  185.3460  179.7720  142.7070 S   0  0  0  0  0  0  0  0  0  0  0  0
  186.9800  177.4790  143.2110 C   0  0  0  0  0  2  0  0  0  0  0  0
  186.1860  178.6100  143.8690 C   0  0  2  0  0  3  0  0  0  0  0  0
  188.2090  177.9390  142.3810 C   0  0  1  0  0  3  0  0  0  0  0  0
  189.0270  175.7270  142.9240 C   0  0  0  0  0  1  0  0  0  0  0  0
  189.0250  176.7930  141.9240 N   0  0  0  0  0  0  0  0  0  0  0  0
  190.4140  177.2340  141.8570 C   0  0  0  0  0  2  0  0  0  0  0  0
  191.1470  176.8320  143.1270 C   0  0  0  0  0  1  0  0  0  0  0  0
  185.1660  177.9990  144.8090 C   0  0  0  0  0  2  0  0  0  0  0  0
  185.4900  178.3380  146.2580 C   0  0  0  0  0  2  0  0  0  0  0  0
  186.9190  177.9410  146.5700 C   0  0  0  0  0  2  0  0  0  0  0  0
  187.2780  178.3320  147.9900 C   0  0  0  0  0  2  0  0  0  0  0  0
  188.7470  178.0320  148.2470 C   0  0  0  0  0  2  0  0  0  0  0  0
  189.1720  176.7960  147.4680 C   0  0  0  0  0  2  0  0  0  0  0  0
  190.4890  177.0770  146.7630 C   0  0  0  0  0  2  0  0  0  0  0  0
  191.6300  176.4480  147.4990 C   0  0  0  0  0  3  0  0  0  0  0  0
  192.3470  175.4760  146.9330 C   0  0  0  0  0  2  0  0  0  0  0  0
  181.7390  176.9070  138.2230 C   0  0  2  0  0  3  0  0  0  0  0  0
  180.5100  177.5690  138.0830 O   0  0  0  0  0  0  0  0  0  0  0  0
  180.8110  178.8210  137.5320 C   0  0  1  0  0  3  0  0  0  0  0  0
  180.1510  179.9880  135.5640 F   0  0  0  0  0  0  0  0  0  0  0  0
  181.8780  178.5500  135.4110 F   0  0  0  0  0  0  0  0  0  0  0  0
  180.6540  178.7810  136.0110 C   0  0  0  0  0  0  0  0  0  0  0  0
  179.7730  177.7780  135.6510 F   0  0  0  0  0  0  0  0  0  0  0  0
  179.8900  179.8810  138.1340 C   0  0  0  0  0  2  0  0  0  0  0  0
  179.4760  179.9290  140.9860 O   0  0  0  0  0  1  0  0  0  0  0  0
  180.6440  180.7870  139.0520 C   0  0  0  0  0  0  0  0  0  0  0  0
  181.5360  181.5870  138.5690 N   0  0  0  0  0  2  0  0  0  0  0  0
  180.3930  180.7710  140.4580 N   0  0  0  0  0  2  0  0  0  0  0  0
  181.5770  175.3800  138.3150 C   0  0  0  0  0  2  0  0  0  0  0  0
  182.2980  174.5950  137.2120 C   0  0  1  0  0  3  0  0  0  0  0  0
  183.1030  172.2040  137.0290 C   0  0  0  0  0  2  0  0  0  0  0  0
  181.0140  172.8200  136.0010 C   0  0  0  0  0  2  0  0  0  0  0  0
  181.6160  171.5920  135.3600 C   0  0  0  0  0  2  0  0  0  0  0  0
  181.8930  173.1110  137.1950 C   0  0  2  0  0  3  0  0  0  0  0  0
  183.3720  170.1630  135.9250 C   0  0  0  0  0  1  0  0  0  0  0  0
  183.0200  171.5570  135.7280 N   0  0  0  0  0  0  0  0  0  0  0  0
  182.1170  175.2600  135.8420 C   0  0  0  0  0  2  0  0  0  0  0  0
  183.4310  175.4030  135.0830 C   0  0  0  0  0  2  0  0  0  0  0  0
  184.5680  175.6840  136.0480 C   0  0  0  0  0  2  0  0  0  0  0  0
  184.9460  177.1540  136.0170 C   0  0  0  0  0  2  0  0  0  0  0  0
  186.3190  177.3330  136.6310 C   0  0  0  0  0  2  0  0  0  0  0  0
  186.6700  176.1740  137.3220 O   0  0  0  0  0  1  0  0  0  0  0  0
  1  3  1  0  0  0  0
  2  1  1  0  0  0  0
  4  2  2  0  0  0  0
  4  5  1  0  0  0  0
  5  7  1  0  0  0  0
  5  3  2  0  0  0  0
  6  8  1  6  0  0  0
  6 13  1  0  0  0  0
  7 10  1  0  0  0  0
  9  6  1  0  0  0  0
  9  7  2  0  0  0  0
 10 12  1  0  0  0  0
 11 12  1  0  0  0  0
 12 18  1  1  0  0  0
 13 15  1  6  0  0  0
 13 11  1  0  0  0  0
 15 14  1  0  0  0  0
 16 15  1  0  0  0  0
 16 17  1  0  0  0  0
 18 19  1  0  0  0  0
 19 20  1  0  0  0  0
 20 21  1  0  0  0  0
 21 22  1  0  0  0  0
 23 22  1  0  0  0  0
 24 23  1  0  0  0  0
 24 25  1  0  0  0  0
 26 25  2  0  0  0  0
 27 39  1  1  0  0  0
 27  2  1  0  0  0  0
 28 27  1  0  0  0  0
 29 28  1  0  0  0  0
 29 34  1  1  0  0  0
 30 32  1  0  0  0  0
 31 32  1  0  0  0  0
 32 29  1  0  0  0  0
 33 32  1  0  0  0  0
 34 36  1  0  0  0  0
 36 38  1  0  0  0  0
 37 36  2  0  0  0  0
 38 35  1  0  0  0  0
 40 47  1  6  0  0  0
 40 39  1  0  0  0  0
 41 44  1  0  0  0  0
 42 44  1  0  0  0  0
 43 46  1  0  0  0  0
 43 42  1  0  0  0  0
 44 40  1  6  0  0  0
 46 45  1  0  0  0  0
 46 41  1  0  0  0  0
 48 47  1  0  0  0  0
 48 49  1  0  0  0  0
 50 49  1  0  0  0  0
 50 51  1  0  0  0  0
 51 52  1  0  0  0  0
M  END
>  <MODEL>
4

>  <REMARK>
 VINA RESULT:      -5.6      3.676      7.740
  Name = 
  25 active torsions:
  status: ('A' for Active; 'I' for Inactive)
    1  A    between atoms: O_1  and  C_23
    2  A    between atoms: O_1  and  C_33
    3  A    between atoms: C_3  and  C_7
    4  A    between atoms: C_3  and  C_19
    5  A    between atoms: C_7  and  C_46
    6  A    between atoms: C_11  and  C_35
    7  A    between atoms: C_13  and  N_14
    8  A    between atoms: N_14  and  C_50
    9  A    between atoms: C_15  and  C_23
   10  A    between atoms: C_17  and  C_52
   11  A    between atoms: C_18  and  C_25
   12  A    between atoms: C_19  and  C_52
   13  A    between atoms: C_20  and  C_49
   14  A    between atoms: C_23  and  C_30
   15  A    between atoms: C_25  and  C_33
   16  A    between atoms: C_28  and  C_36
   17  A    between atoms: C_28  and  C_40
   18  A    between atoms: C_30  and  C_46
   19  A    between atoms: C_31  and  C_46
   20  A    between atoms: C_33  and  C_38
   21  A    between atoms: C_35  and  C_47
   22  A    between atoms: C_36  and  C_51
   23  A    between atoms: C_40  and  C_48
   24  A    between atoms: C_44  and  C_48
   25  A    between atoms: C_47  and  C_51
                            x       y       z     vdW  Elec       q    Type
                         _______ _______ _______ _____ _____    ______ ____

>  <TORSDO>
F 25

$$$$
=
 OpenBabel11062413503D

 52 54  0  0  1  0  0  0  0  0999 V2000
  188.7910  179.1700  139.2540 O   0  0  0  0  0  0  0  0  0  0  0  0
  188.2240  178.2530  140.0030 C   0  0  0  0  0  0  0  0  0  0  0  0
  188.8600  178.7380  138.0180 C   0  0  0  0  0  3  0  0  0  0  0  0
  187.8810  177.1460  139.2530 C   0  0  0  0  0  3  0  0  0  0  0  0
  188.2930  177.4750  137.9760 C   0  0  0  0  0  0  0  0  0  0  0  0
  186.8620  175.2070  135.2480 C   0  0  1  0  0  3  0  0  0  0  0  0
  188.1720  176.6150  136.7860 C   0  0  0  0  0  0  0  0  0  0  0  0
  185.5920  175.2860  134.6760 O   0  0  0  0  0  1  0  0  0  0  0  0
  186.9750  176.1670  136.3940 C   0  0  0  0  0  3  0  0  0  0  0  0
  189.6440  176.2010  135.8150 S   0  0  0  0  0  0  0  0  0  0  0  0
  188.4330  173.7510  136.6590 C   0  0  0  0  0  2  0  0  0  0  0  0
  189.7320  174.3900  136.1640 C   0  0  2  0  0  3  0  0  0  0  0  0
  187.2700  173.7530  135.6310 C   0  0  1  0  0  3  0  0  0  0  0  0
  185.9020  173.1730  137.5420 C   0  0  0  0  0  1  0  0  0  0  0  0
  186.1110  172.9680  136.1100 N   0  0  0  0  0  0  0  0  0  0  0  0
  186.4510  171.5540  135.9900 C   0  0  0  0  0  2  0  0  0  0  0  0
  186.9780  171.2630  134.5940 C   0  0  0  0  0  1  0  0  0  0  0  0
  190.8230  174.1170  137.1810 C   0  0  0  0  0  2  0  0  0  0  0  0
  191.9770  173.3530  136.5490 C   0  0  0  0  0  2  0  0  0  0  0  0
  192.7640  174.2750  135.6370 C   0  0  0  0  0  2  0  0  0  0  0  0
  193.4250  175.3760  136.4430 C   0  0  0  0  0  2  0  0  0  0  0  0
  194.8950  175.0440  136.6500 C   0  0  0  0  0  2  0  0  0  0  0  0
  195.3510  174.0230  135.6190 C   0  0  0  0  0  2  0  0  0  0  0  0
  196.4680  173.1780  136.2100 C   0  0  0  0  0  2  0  0  0  0  0  0
  195.9340  171.8820  136.7330 C   0  0  0  0  0  3  0  0  0  0  0  0
  195.7190  170.8570  135.9070 C   0  0  0  0  0  2  0  0  0  0  0  0
  187.9590  178.4040  141.4640 C   0  0  2  0  0  3  0  0  0  0  0  0
  187.9370  177.1450  142.0850 O   0  0  0  0  0  0  0  0  0  0  0  0
  188.8370  177.2310  143.1540 C   0  0  1  0  0  3  0  0  0  0  0  0
  188.8960  176.6510  145.4640 F   0  0  0  0  0  0  0  0  0  0  0  0
  187.7080  178.4670  144.8610 F   0  0  0  0  0  0  0  0  0  0  0  0
  188.0840  177.1900  144.4850 C   0  0  0  0  0  0  0  0  0  0  0  0
  186.9550  176.3990  144.3670 F   0  0  0  0  0  0  0  0  0  0  0  0
  189.8390  176.0810  143.0760 C   0  0  0  0  0  2  0  0  0  0  0  0
  191.3760  177.4180  141.0360 O   0  0  0  0  0  1  0  0  0  0  0  0
  191.2340  176.5690  143.2950 C   0  0  0  0  0  0  0  0  0  0  0  0
  191.7930  176.4050  144.4480 N   0  0  0  0  0  2  0  0  0  0  0  0
  191.9500  177.2210  142.2460 N   0  0  0  0  0  2  0  0  0  0  0  0
  186.6670  179.2030  141.7090 C   0  0  0  0  0  2  0  0  0  0  0  0
  185.3840  178.4900  141.2660 C   0  0  1  0  0  3  0  0  0  0  0  0
  183.0290  178.2950  142.1680 C   0  0  0  0  0  2  0  0  0  0  0  0
  184.8050  178.9500  143.6570 C   0  0  0  0  0  2  0  0  0  0  0  0
  183.4550  179.4100  144.1540 C   0  0  0  0  0  2  0  0  0  0  0  0
  184.5060  178.0770  142.4590 C   0  0  2  0  0  3  0  0  0  0  0  0
  181.2540  178.9350  143.5440 C   0  0  0  0  0  1  0  0  0  0  0  0
  182.5390  179.3630  143.0280 N   0  0  0  0  0  0  0  0  0  0  0  0
  184.6090  179.3210  140.2370 C   0  0  0  0  0  2  0  0  0  0  0  0
  184.6080  178.6850  138.8510 C   0  0  0  0  0  2  0  0  0  0  0  0
  184.1710  177.2340  138.9390 C   0  0  0  0  0  2  0  0  0  0  0  0
  183.4960  176.7990  137.6510 C   0  0  0  0  0  2  0  0  0  0  0  0
  182.8190  177.9930  137.0100 C   0  0  0  0  0  2  0  0  0  0  0  0
  181.9150  177.5490  136.0470 O   0  0  0  0  0  1  0  0  0  0  0  0
  1  2  1  0  0  0  0
  2 27  1  0  0  0  0
  3  1  1  0  0  0  0
  4  2  2  0  0  0  0
  5  3  2  0  0  0  0
  5  4  1  0  0  0  0
  6  8  1  1  0  0  0
  6 13  1  0  0  0  0
  6  9  1  0  0  0  0
  7  5  1  0  0  0  0
  9  7  2  0  0  0  0
 10 12  1  0  0  0  0
 10  7  1  0  0  0  0
 12 11  1  0  0  0  0
 12 18  1  1  0  0  0
 13 15  1  1  0  0  0
 13 11  1  0  0  0  0
 15 14  1  0  0  0  0
 16 15  1  0  0  0  0
 17 16  1  0  0  0  0
 19 18  1  0  0  0  0
 20 21  1  0  0  0  0
 20 19  1  0  0  0  0
 21 22  1  0  0  0  0
 23 24  1  0  0  0  0
 23 22  1  0  0  0  0
 24 25  1  0  0  0  0
 26 25  2  0  0  0  0
 27 39  1  6  0  0  0
 27 28  1  0  0  0  0
 28 29  1  0  0  0  0
 29 34  1  1  0  0  0
 29 32  1  0  0  0  0
 32 31  1  0  0  0  0
 32 30  1  0  0  0  0
 33 32  1  0  0  0  0
 34 36  1  0  0  0  0
 35 38  1  0  0  0  0
 36 37  2  0  0  0  0
 38 36  1  0  0  0  0
 40 47  1  6  0  0  0
 40 39  1  0  0  0  0
 41 44  1  0  0  0  0
 41 46  1  0  0  0  0
 42 43  1  0  0  0  0
 44 40  1  6  0  0  0
 44 42  1  0  0  0  0
 46 45  1  0  0  0  0
 46 43  1  0  0  0  0
 48 49  1  0  0  0  0
 48 47  1  0  0  0  0
 50 49  1  0  0  0  0
 51 50  1  0  0  0  0
 52 51  1  0  0  0  0
M  END
>  <MODEL>
5

>  <REMARK>
 VINA RESULT:      -5.5      3.494      9.357
  Name = 
  25 active torsions:
  status: ('A' for Active; 'I' for Inactive)
    1  A    between atoms: O_1  and  C_23
    2  A    between atoms: O_1  and  C_33
    3  A    between atoms: C_3  and  C_7
    4  A    between atoms: C_3  and  C_19
    5  A    between atoms: C_7  and  C_46
    6  A    between atoms: C_11  and  C_35
    7  A    between atoms: C_13  and  N_14
    8  A    between atoms: N_14  and  C_50
    9  A    between atoms: C_15  and  C_23
   10  A    between atoms: C_17  and  C_52
   11  A    between atoms: C_18  and  C_25
   12  A    between atoms: C_19  and  C_52
   13  A    between atoms: C_20  and  C_49
   14  A    between atoms: C_23  and  C_30
   15  A    between atoms: C_25  and  C_33
   16  A    between atoms: C_28  and  C_36
   17  A    between atoms: C_28  and  C_40
   18  A    between atoms: C_30  and  C_46
   19  A    between atoms: C_31  and  C_46
   20  A    between atoms: C_33  and  C_38
   21  A    between atoms: C_35  and  C_47
   22  A    between atoms: C_36  and  C_51
   23  A    between atoms: C_40  and  C_48
   24  A    between atoms: C_44  and  C_48
   25  A    between atoms: C_47  and  C_51
                            x       y       z     vdW  Elec       q    Type
                         _______ _______ _______ _____ _____    ______ ____

>  <TORSDO>
F 25

$$$$
=
 OpenBabel11062413503D

 52 54  0  0  1  0  0  0  0  0999 V2000
  185.7930  178.9330  139.4320 O   0  0  0  0  0  0  0  0  0  0  0  0
  184.7480  178.3280  139.9460 C   0  0  0  0  0  0  0  0  0  0  0  0
  185.9530  178.5420  138.1910 C   0  0  0  0  0  3  0  0  0  0  0  0
  184.1580  177.4910  139.0220 C   0  0  0  0  0  3  0  0  0  0  0  0
  184.9430  177.6420  137.8950 C   0  0  0  0  0  0  0  0  0  0  0  0
  183.6110  175.2810  135.1950 C   0  0  1  0  0  3  0  0  0  0  0  0
  184.7490  176.9420  136.6130 C   0  0  0  0  0  0  0  0  0  0  0  0
  182.2890  174.8710  135.0200 O   0  0  0  0  0  1  0  0  0  0  0  0
  183.7460  176.0710  136.4620 C   0  0  0  0  0  3  0  0  0  0  0  0
  185.8420  177.2990  135.2130 S   0  0  0  0  0  0  0  0  0  0  0  0
  185.9900  174.4930  135.7460 C   0  0  0  0  0  2  0  0  0  0  0  0
  186.7060  175.6730  135.0870 C   0  0  2  0  0  3  0  0  0  0  0  0
  184.6320  174.1080  135.0990 C   0  0  1  0  0  3  0  0  0  0  0  0
  184.8370  172.4590  136.8590 C   0  0  0  0  0  1  0  0  0  0  0  0
  184.0840  172.8580  135.6710 N   0  0  0  0  0  0  0  0  0  0  0  0
  184.3240  171.7860  134.7110 C   0  0  0  0  0  2  0  0  0  0  0  0
  185.4020  170.8520  135.2350 C   0  0  0  0  0  1  0  0  0  0  0  0
  188.0970  175.7850  135.6800 C   0  0  0  0  0  2  0  0  0  0  0  0
  188.0650  175.5750  137.1870 C   0  0  0  0  0  2  0  0  0  0  0  0
  189.4510  175.7880  137.7640 C   0  0  0  0  0  2  0  0  0  0  0  0
  190.3720  174.6550  137.3580 C   0  0  0  0  0  2  0  0  0  0  0  0
  191.7940  175.1770  137.2210 C   0  0  0  0  0  2  0  0  0  0  0  0
  192.7510  174.0230  136.9610 C   0  0  0  0  0  2  0  0  0  0  0  0
  194.1470  174.5740  136.7220 C   0  0  0  0  0  2  0  0  0  0  0  0
  195.1720  173.7500  137.4350 C   0  0  0  0  0  3  0  0  0  0  0  0
  195.3340  173.8650  138.7530 C   0  0  0  0  0  2  0  0  0  0  0  0
  184.2480  178.5450  141.3360 C   0  0  2  0  0  3  0  0  0  0  0  0
  183.1120  179.3700  141.3200 O   0  0  0  0  0  0  0  0  0  0  0  0
  182.1000  178.6360  141.9500 C   0  0  1  0  0  3  0  0  0  0  0  0
  182.8420  180.0970  143.6790 F   0  0  0  0  0  0  0  0  0  0  0  0
  180.6300  179.7150  143.4960 F   0  0  0  0  0  0  0  0  0  0  0  0
  181.8850  179.1470  143.3760 C   0  0  0  0  0  0  0  0  0  0  0  0
  182.0020  178.1040  144.2770 F   0  0  0  0  0  0  0  0  0  0  0  0
  180.8060  178.7510  141.1460 C   0  0  0  0  0  2  0  0  0  0  0  0
  180.9130  179.7100  138.4290 O   0  0  0  0  0  1  0  0  0  0  0  0
  180.8290  177.8420  139.9600 C   0  0  0  0  0  0  0  0  0  0  0  0
  180.8130  176.5620  140.1380 N   0  0  0  0  0  2  0  0  0  0  0  0
  180.8780  178.3740  138.6360 N   0  0  0  0  0  2  0  0  0  0  0  0
  185.3620  179.0990  142.2410 C   0  0  0  0  0  2  0  0  0  0  0  0
  185.9490  178.0790  143.2260 C   0  0  1  0  0  3  0  0  0  0  0  0
  188.0720  176.8030  143.7380 C   0  0  0  0  0  2  0  0  0  0  0  0
  188.0250  178.2910  141.8440 C   0  0  0  0  0  2  0  0  0  0  0  0
  189.4310  178.0590  142.3430 C   0  0  0  0  0  2  0  0  0  0  0  0
  187.1630  177.3390  142.6410 C   0  0  2  0  0  3  0  0  0  0  0  0
  190.3910  176.5550  143.8470 C   0  0  0  0  0  1  0  0  0  0  0  0
  189.3310  177.5320  143.6930 N   0  0  0  0  0  0  0  0  0  0  0  0
  186.2610  178.7260  144.5800 C   0  0  0  0  0  2  0  0  0  0  0  0
  185.0630  178.7210  145.5230 C   0  0  0  0  0  2  0  0  0  0  0  0
  185.5090  178.3980  146.9380 C   0  0  0  0  0  2  0  0  0  0  0  0
  186.9040  177.8000  146.9360 C   0  0  0  0  0  2  0  0  0  0  0  0
  187.6450  178.2490  148.1790 C   0  0  0  0  0  2  0  0  0  0  0  0
  188.8800  177.6060  148.2380 O   0  0  0  0  0  1  0  0  0  0  0  0
  1  2  1  0  0  0  0
  2 27  1  0  0  0  0
  3  1  1  0  0  0  0
  4  2  2  0  0  0  0
  5  3  2  0  0  0  0
  5  4  1  0  0  0  0
  6  8  1  1  0  0  0
  6  9  1  0  0  0  0
  7  5  1  0  0  0  0
  9  7  2  0  0  0  0
 10  7  1  0  0  0  0
 12 10  1  0  0  0  0
 12 18  1  1  0  0  0
 12 11  1  0  0  0  0
 13  6  1  0  0  0  0
 13 15  1  1  0  0  0
 13 11  1  0  0  0  0
 15 14  1  0  0  0  0
 16 17  1  0  0  0  0
 16 15  1  0  0  0  0
 18 19  1  0  0  0  0
 19 20  1  0  0  0  0
 21 20  1  0  0  0  0
 22 21  1  0  0  0  0
 23 22  1  0  0  0  0
 24 23  1  0  0  0  0
 24 25  1  0  0  0  0
 25 26  2  0  0  0  0
 27 39  1  1  0  0  0
 28 27  1  0  0  0  0
 28 29  1  0  0  0  0
 29 34  1  6  0  0  0
 29 32  1  0  0  0  0
 32 31  1  0  0  0  0
 32 30  1  0  0  0  0
 32 33  1  0  0  0  0
 35 38  1  0  0  0  0
 36 37  2  0  0  0  0
 36 34  1  0  0  0  0
 38 36  1  0  0  0  0
 40 39  1  6  0  0  0
 40 47  1  0  0  0  0
 42 43  1  0  0  0  0
 42 44  1  0  0  0  0
 43 46  1  0  0  0  0
 44 40  1  1  0  0  0
 44 41  1  0  0  0  0
 46 41  1  0  0  0  0
 46 45  1  0  0  0  0
 47 48  1  0  0  0  0
 48 49  1  0  0  0  0
 50 49  1  0  0  0  0
 50 51  1  0  0  0  0
 51 52  1  0  0  0  0
M  END
>  <MODEL>
6

>  <REMARK>
 VINA RESULT:      -5.4      3.682      9.238
  Name = 
  25 active torsions:
  status: ('A' for Active; 'I' for Inactive)
    1  A    between atoms: O_1  and  C_23
    2  A    between atoms: O_1  and  C_33
    3  A    between atoms: C_3  and  C_7
    4  A    between atoms: C_3  and  C_19
    5  A    between atoms: C_7  and  C_46
    6  A    between atoms: C_11  and  C_35
    7  A    between atoms: C_13  and  N_14
    8  A    between atoms: N_14  and  C_50
    9  A    between atoms: C_15  and  C_23
   10  A    between atoms: C_17  and  C_52
   11  A    between atoms: C_18  and  C_25
   12  A    between atoms: C_19  and  C_52
   13  A    between atoms: C_20  and  C_49
   14  A    between atoms: C_23  and  C_30
   15  A    between atoms: C_25  and  C_33
   16  A    between atoms: C_28  and  C_36
   17  A    between atoms: C_28  and  C_40
   18  A    between atoms: C_30  and  C_46
   19  A    between atoms: C_31  and  C_46
   20  A    between atoms: C_33  and  C_38
   21  A    between atoms: C_35  and  C_47
   22  A    between atoms: C_36  and  C_51
   23  A    between atoms: C_40  and  C_48
   24  A    between atoms: C_44  and  C_48
   25  A    between atoms: C_47  and  C_51
                            x       y       z     vdW  Elec       q    Type
                         _______ _______ _______ _____ _____    ______ ____

>  <TORSDO>
F 25

$$$$
=
 OpenBabel11062413503D

 52 54  0  0  1  0  0  0  0  0999 V2000
  186.4230  179.1350  141.5030 O   0  0  0  0  0  0  0  0  0  0  0  0
  186.9090  178.2920  140.6220 C   0  0  0  0  0  0  0  0  0  0  0  0
  185.1390  179.2930  141.2890 C   0  0  0  0  0  3  0  0  0  0  0  0
  185.9210  177.8440  139.7690 C   0  0  0  0  0  3  0  0  0  0  0  0
  184.7860  178.4950  140.2130 C   0  0  0  0  0  0  0  0  0  0  0  0
  181.8160  178.7880  137.8190 C   0  0  1  0  0  3  0  0  0  0  0  0
  183.4410  178.3750  139.6230 C   0  0  0  0  0  0  0  0  0  0  0  0
  181.8600  178.7610  136.4250 O   0  0  0  0  0  1  0  0  0  0  0  0
  183.2050  178.8110  138.3810 C   0  0  0  0  0  3  0  0  0  0  0  0
  182.1070  177.5880  140.5620 S   0  0  0  0  0  0  0  0  0  0  0  0
  181.2490  180.2260  139.8660 C   0  0  0  0  0  2  0  0  0  0  0  0
  181.0200  179.0560  140.8250 C   0  0  2  0  0  3  0  0  0  0  0  0
  180.9150  179.9280  138.3800 C   0  0  1  0  0  3  0  0  0  0  0  0
  181.7350  182.2000  138.2300 C   0  0  0  0  0  1  0  0  0  0  0  0
  180.9900  181.1460  137.5440 N   0  0  0  0  0  0  0  0  0  0  0  0
  179.6390  181.6810  137.4130 C   0  0  0  0  0  2  0  0  0  0  0  0
  179.2430  181.7370  135.9470 C   0  0  0  0  0  1  0  0  0  0  0  0
  181.1760  179.5600  142.2470 C   0  0  0  0  0  2  0  0  0  0  0  0
  182.0340  178.6100  143.0700 C   0  0  0  0  0  2  0  0  0  0  0  0
  183.0570  179.3990  143.8640 C   0  0  0  0  0  2  0  0  0  0  0  0
  183.4790  178.6260  145.0980 C   0  0  0  0  0  2  0  0  0  0  0  0
  184.7630  179.2190  145.6580 C   0  0  0  0  0  2  0  0  0  0  0  0
  185.3660  178.2790  146.6910 C   0  0  0  0  0  2  0  0  0  0  0  0
  186.7000  178.8370  147.1580 C   0  0  0  0  0  2  0  0  0  0  0  0
  187.1770  178.1190  148.3810 C   0  0  0  0  0  3  0  0  0  0  0  0
  188.4820  177.9860  148.6220 C   0  0  0  0  0  2  0  0  0  0  0  0
  188.3360  177.8540  140.5740 C   0  0  2  0  0  3  0  0  0  0  0  0
  188.9990  178.2310  141.7520 O   0  0  0  0  0  0  0  0  0  0  0  0
  189.9050  177.2000  142.0270 C   0  0  1  0  0  3  0  0  0  0  0  0
  190.9800  178.8910  143.3150 F   0  0  0  0  0  0  0  0  0  0  0  0
  191.9020  176.8360  143.2890 F   0  0  0  0  0  0  0  0  0  0  0  0
  191.2270  177.7780  142.5340 C   0  0  0  0  0  0  0  0  0  0  0  0
  192.0190  178.1590  141.4670 F   0  0  0  0  0  0  0  0  0  0  0  0
  189.3060  176.2540  143.0660 C   0  0  0  0  0  2  0  0  0  0  0  0
  190.5570  176.8270  145.6000 O   0  0  0  0  0  1  0  0  0  0  0  0
  188.6270  177.0170  144.1570 C   0  0  0  0  0  0  0  0  0  0  0  0
  187.4270  177.4600  143.9740 N   0  0  0  0  0  2  0  0  0  0  0  0
  189.2940  177.2670  145.3950 N   0  0  0  0  0  2  0  0  0  0  0  0
  189.0330  178.3890  139.3110 C   0  0  0  0  0  2  0  0  0  0  0  0
  189.8010  177.3300  138.5100 C   0  0  1  0  0  3  0  0  0  0  0  0
  188.1170  178.1150  136.7930 C   0  0  0  0  0  2  0  0  0  0  0  0
  189.0320  175.8950  136.6100 C   0  0  0  0  0  2  0  0  0  0  0  0
  187.6990  176.0130  135.9110 C   0  0  0  0  0  2  0  0  0  0  0  0
  189.3820  177.3030  137.0310 C   0  0  2  0  0  3  0  0  0  0  0  0
  186.3320  177.8090  135.3190 C   0  0  0  0  0  1  0  0  0  0  0  0
  187.0440  177.2020  136.4270 N   0  0  0  0  0  0  0  0  0  0  0  0
  191.3160  177.4900  138.6810 C   0  0  0  0  0  2  0  0  0  0  0  0
  192.0820  176.2180  138.3360 C   0  0  0  0  0  2  0  0  0  0  0  0
  193.1670  176.5180  137.3170 C   0  0  0  0  0  2  0  0  0  0  0  0
  193.2720  175.3940  136.3020 C   0  0  0  0  0  2  0  0  0  0  0  0
  194.7140  174.9410  136.2030 C   0  0  0  0  0  2  0  0  0  0  0  0
  195.3490  175.1490  137.4270 O   0  0  0  0  0  1  0  0  0  0  0  0
  2  1  1  0  0  0  0
  3  1  1  0  0  0  0
  4  5  1  0  0  0  0
  4  2  2  0  0  0  0
  5  3  2  0  0  0  0
  6  8  1  6  0  0  0
  6 13  1  0  0  0  0
  6  9  1  0  0  0  0
  7  5  1  0  0  0  0
  7 10  1  0  0  0  0
  9  7  2  0  0  0  0
 10 12  1  0  0  0  0
 11 12  1  0  0  0  0
 12 18  1  1  0  0  0
 13 15  1  6  0  0  0
 13 11  1  0  0  0  0
 15 14  1  0  0  0  0
 16 15  1  0  0  0  0
 17 16  1  0  0  0  0
 18 19  1  0  0  0  0
 19 20  1  0  0  0  0
 20 21  1  0  0  0  0
 21 22  1  0  0  0  0
 22 23  1  0  0  0  0
 23 24  1  0  0  0  0
 24 25  1  0  0  0  0
 25 26  2  0  0  0  0
 27 39  1  6  0  0  0
 27  2  1  0  0  0  0
 27 28  1  0  0  0  0
 28 29  1  0  0  0  0
 29 32  1  0  0  0  0
 29 34  1  1  0  0  0
 32 31  1  0  0  0  0
 32 30  1  0  0  0  0
 33 32  1  0  0  0  0
 34 36  1  0  0  0  0
 36 38  1  0  0  0  0
 37 36  2  0  0  0  0
 38 35  1  0  0  0  0
 40 47  1  6  0  0  0
 40 39  1  0  0  0  0
 41 44  1  0  0  0  0
 42 44  1  0  0  0  0
 43 46  1  0  0  0  0
 43 42  1  0  0  0  0
 44 40  1  1  0  0  0
 45 46  1  0  0  0  0
 46 41  1  0  0  0  0
 48 47  1  0  0  0  0
 49 48  1  0  0  0  0
 50 49  1  0  0  0  0
 51 50  1  0  0  0  0
 51 52  1  0  0  0  0
M  END
>  <MODEL>
7

>  <REMARK>
 VINA RESULT:      -5.4      1.781      2.409
  Name = 
  25 active torsions:
  status: ('A' for Active; 'I' for Inactive)
    1  A    between atoms: O_1  and  C_23
    2  A    between atoms: O_1  and  C_33
    3  A    between atoms: C_3  and  C_7
    4  A    between atoms: C_3  and  C_19
    5  A    between atoms: C_7  and  C_46
    6  A    between atoms: C_11  and  C_35
    7  A    between atoms: C_13  and  N_14
    8  A    between atoms: N_14  and  C_50
    9  A    between atoms: C_15  and  C_23
   10  A    between atoms: C_17  and  C_52
   11  A    between atoms: C_18  and  C_25
   12  A    between atoms: C_19  and  C_52
   13  A    between atoms: C_20  and  C_49
   14  A    between atoms: C_23  and  C_30
   15  A    between atoms: C_25  and  C_33
   16  A    between atoms: C_28  and  C_36
   17  A    between atoms: C_28  and  C_40
   18  A    between atoms: C_30  and  C_46
   19  A    between atoms: C_31  and  C_46
   20  A    between atoms: C_33  and  C_38
   21  A    between atoms: C_35  and  C_47
   22  A    between atoms: C_36  and  C_51
   23  A    between atoms: C_40  and  C_48
   24  A    between atoms: C_44  and  C_48
   25  A    between atoms: C_47  and  C_51
                            x       y       z     vdW  Elec       q    Type
                         _______ _______ _______ _____ _____    ______ ____

>  <TORSDO>
F 25

$$$$
=
 OpenBabel11062413503D

 52 54  0  0  1  0  0  0  0  0999 V2000
  191.8480  176.3890  138.8350 O   0  0  0  0  0  0  0  0  0  0  0  0
  190.5560  176.1820  138.7380 C   0  0  0  0  0  0  0  0  0  0  0  0
  192.0990  177.0430  139.9440 C   0  0  0  0  0  3  0  0  0  0  0  0
  189.8880  176.7060  139.8250 C   0  0  0  0  0  3  0  0  0  0  0  0
  190.8950  177.2540  140.5950 C   0  0  0  0  0  0  0  0  0  0  0  0
  191.5230  178.7350  144.0660 C   0  0  1  0  0  3  0  0  0  0  0  0
  190.7100  177.9630  141.8740 C   0  0  0  0  0  0  0  0  0  0  0  0
  192.7210  179.2700  144.5440 O   0  0  0  0  0  1  0  0  0  0  0  0
  191.7350  178.1100  142.7210 C   0  0  0  0  0  3  0  0  0  0  0  0
  189.1010  178.6840  142.2840 S   0  0  0  0  0  0  0  0  0  0  0  0
  189.8000  176.8600  144.3730 C   0  0  0  0  0  2  0  0  0  0  0  0
  188.6390  177.5980  143.7030 C   0  0  2  0  0  3  0  0  0  0  0  0
  190.8350  177.7750  145.0820 C   0  0  1  0  0  3  0  0  0  0  0  0
  191.9380  175.6340  145.3210 C   0  0  0  0  0  1  0  0  0  0  0  0
  191.8260  176.9920  145.8510 N   0  0  0  0  0  0  0  0  0  0  0  0
  191.3010  176.8130  147.2010 C   0  0  0  0  0  2  0  0  0  0  0  0
  191.5260  175.3820  147.6600 C   0  0  0  0  0  1  0  0  0  0  0  0
  187.6130  176.5770  143.2540 C   0  0  0  0  0  2  0  0  0  0  0  0
  186.2310  176.9210  143.7920 C   0  0  0  0  0  2  0  0  0  0  0  0
  186.3640  177.7270  145.0690 C   0  0  0  0  0  2  0  0  0  0  0  0
  185.5380  178.9950  144.9810 C   0  0  0  0  0  2  0  0  0  0  0  0
  184.0590  178.6490  145.0750 C   0  0  0  0  0  2  0  0  0  0  0  0
  183.3520  179.0200  143.7810 C   0  0  0  0  0  2  0  0  0  0  0  0
  181.8530  178.8530  143.9630 C   0  0  0  0  0  2  0  0  0  0  0  0
  181.1310  179.0900  142.6740 C   0  0  0  0  0  3  0  0  0  0  0  0
  180.1340  178.2880  142.2990 C   0  0  0  0  0  2  0  0  0  0  0  0
  189.9040  175.4470  137.6130 C   0  0  2  0  0  3  0  0  0  0  0  0
  190.5520  175.7400  136.4030 O   0  0  0  0  0  0  0  0  0  0  0  0
  191.4610  174.6950  136.1950 C   0  0  1  0  0  3  0  0  0  0  0  0
  191.7040  172.7990  134.7740 F   0  0  0  0  0  0  0  0  0  0  0  0
  190.1620  172.7000  136.4120 F   0  0  0  0  0  0  0  0  0  0  0  0
  190.7720  173.5280  135.4860 C   0  0  0  0  0  0  0  0  0  0  0  0
  189.8190  174.0040  134.6030 F   0  0  0  0  0  0  0  0  0  0  0  0
  192.6400  175.1980  135.3640 C   0  0  0  0  0  2  0  0  0  0  0  0
  194.2050  177.1420  136.8070 O   0  0  0  0  0  1  0  0  0  0  0  0
  193.9400  174.8710  136.0240 C   0  0  0  0  0  0  0  0  0  0  0  0
  194.3970  173.6640  135.9690 N   0  0  0  0  0  2  0  0  0  0  0  0
  194.6750  175.8760  136.7220 N   0  0  0  0  0  2  0  0  0  0  0  0
  188.3960  175.7500  137.5590 C   0  0  0  0  0  2  0  0  0  0  0  0
  187.8520  176.0290  136.1530 C   0  0  1  0  0  3  0  0  0  0  0  0
  185.3320  175.8610  136.0200 C   0  0  0  0  0  2  0  0  0  0  0  0
  186.5990  173.9420  136.7340 C   0  0  0  0  0  2  0  0  0  0  0  0
  185.1740  173.8900  137.2280 C   0  0  0  0  0  2  0  0  0  0  0  0
  186.6510  175.1340  135.8060 C   0  0  2  0  0  3  0  0  0  0  0  0
  183.2430  175.1060  136.7400 C   0  0  0  0  0  1  0  0  0  0  0  0
  184.6330  175.2350  137.1330 N   0  0  0  0  0  0  0  0  0  0  0  0
  187.5410  177.5180  135.9580 C   0  0  0  0  0  2  0  0  0  0  0  0
  188.1220  178.3880  137.0660 C   0  0  0  0  0  2  0  0  0  0  0  0
  187.0080  179.0660  137.8420 C   0  0  0  0  0  2  0  0  0  0  0  0
  186.5040  178.1660  138.9550 C   0  0  0  0  0  2  0  0  0  0  0  0
  185.1940  178.7090  139.4870 C   0  0  0  0  0  2  0  0  0  0  0  0
  184.5280  179.3880  138.4680 O   0  0  0  0  0  1  0  0  0  0  0  0
  1  3  1  0  0  0  0
  2  1  1  0  0  0  0
  2  4  2  0  0  0  0
  3  5  2  0  0  0  0
  4  5  1  0  0  0  0
  5  7  1  0  0  0  0
  6  8  1  1  0  0  0
  6 13  1  0  0  0  0
  7 10  1  0  0  0  0
  7  9  2  0  0  0  0
  9  6  1  0  0  0  0
 10 12  1  0  0  0  0
 11 13  1  0  0  0  0
 12 18  1  6  0  0  0
 12 11  1  0  0  0  0
 13 15  1  6  0  0  0
 14 15  1  0  0  0  0
 15 16  1  0  0  0  0
 16 17  1  0  0  0  0
 18 19  1  0  0  0  0
 19 20  1  0  0  0  0
 21 20  1  0  0  0  0
 21 22  1  0  0  0  0
 23 24  1  0  0  0  0
 23 22  1  0  0  0  0
 25 24  1  0  0  0  0
 26 25  2  0  0  0  0
 27 39  1  6  0  0  0
 27  2  1  0  0  0  0
 28 27  1  0  0  0  0
 29 34  1  6  0  0  0
 29 28  1  0  0  0  0
 30 32  1  0  0  0  0
 32 29  1  0  0  0  0
 32 31  1  0  0  0  0
 33 32  1  0  0  0  0
 34 36  1  0  0  0  0
 36 38  1  0  0  0  0
 37 36  2  0  0  0  0
 38 35  1  0  0  0  0
 40 47  1  1  0  0  0
 40 39  1  0  0  0  0
 41 46  1  0  0  0  0
 42 43  1  0  0  0  0
 44 41  1  0  0  0  0
 44 40  1  1  0  0  0
 44 42  1  0  0  0  0
 45 46  1  0  0  0  0
 46 43  1  0  0  0  0
 47 48  1  0  0  0  0
 48 49  1  0  0  0  0
 49 50  1  0  0  0  0
 50 51  1  0  0  0  0
 52 51  1  0  0  0  0
M  END
>  <MODEL>
8

>  <REMARK>
 VINA RESULT:      -5.1      3.549      8.358
  Name = 
  25 active torsions:
  status: ('A' for Active; 'I' for Inactive)
    1  A    between atoms: O_1  and  C_23
    2  A    between atoms: O_1  and  C_33
    3  A    between atoms: C_3  and  C_7
    4  A    between atoms: C_3  and  C_19
    5  A    between atoms: C_7  and  C_46
    6  A    between atoms: C_11  and  C_35
    7  A    between atoms: C_13  and  N_14
    8  A    between atoms: N_14  and  C_50
    9  A    between atoms: C_15  and  C_23
   10  A    between atoms: C_17  and  C_52
   11  A    between atoms: C_18  and  C_25
   12  A    between atoms: C_19  and  C_52
   13  A    between atoms: C_20  and  C_49
   14  A    between atoms: C_23  and  C_30
   15  A    between atoms: C_25  and  C_33
   16  A    between atoms: C_28  and  C_36
   17  A    between atoms: C_28  and  C_40
   18  A    between atoms: C_30  and  C_46
   19  A    between atoms: C_31  and  C_46
   20  A    between atoms: C_33  and  C_38
   21  A    between atoms: C_35  and  C_47
   22  A    between atoms: C_36  and  C_51
   23  A    between atoms: C_40  and  C_48
   24  A    between atoms: C_44  and  C_48
   25  A    between atoms: C_47  and  C_51
                            x       y       z     vdW  Elec       q    Type
                         _______ _______ _______ _____ _____    ______ ____

>  <TORSDO>
F 25

$$$$
=
 OpenBabel11062413503D

 52 54  0  0  1  0  0  0  0  0999 V2000
  191.1560  177.8760  139.9220 O   0  0  0  0  0  0  0  0  0  0  0  0
  190.1300  177.5320  139.1790 C   0  0  0  0  0  0  0  0  0  0  0  0
  192.2070  177.1830  139.5550 C   0  0  0  0  0  3  0  0  0  0  0  0
  190.4870  176.5680  138.2590 C   0  0  0  0  0  3  0  0  0  0  0  0
  191.8280  176.3560  138.5110 C   0  0  0  0  0  0  0  0  0  0  0  0
  194.8540  174.7260  136.8300 C   0  0  1  0  0  3  0  0  0  0  0  0
  192.6930  175.3950  137.8040 C   0  0  0  0  0  0  0  0  0  0  0  0
  196.1910  174.8500  137.2120 O   0  0  0  0  0  1  0  0  0  0  0  0
  193.9960  175.6500  137.6400 C   0  0  0  0  0  3  0  0  0  0  0  0
  192.0050  173.8350  137.1950 S   0  0  0  0  0  0  0  0  0  0  0  0
  193.1570  175.2110  134.9690 C   0  0  0  0  0  2  0  0  0  0  0  0
  192.1560  174.1300  135.3800 C   0  0  2  0  0  3  0  0  0  0  0  0
  194.6400  174.8870  135.2950 C   0  0  1  0  0  3  0  0  0  0  0  0
  196.8600  175.8450  135.3870 C   0  0  0  0  0  1  0  0  0  0  0  0
  195.5620  175.8880  134.7160 N   0  0  0  0  0  0  0  0  0  0  0  0
  195.0350  177.2120  135.0280 C   0  0  0  0  0  2  0  0  0  0  0  0
  196.1450  178.2460  134.9420 C   0  0  0  0  0  1  0  0  0  0  0  0
  190.7980  174.4850  134.8040 C   0  0  0  0  0  2  0  0  0  0  0  0
  189.7580  173.4400  135.1790 C   0  0  0  0  0  2  0  0  0  0  0  0
  189.1690  173.7670  136.5380 C   0  0  0  0  0  2  0  0  0  0  0  0
  188.2070  172.6790  136.9720 C   0  0  0  0  0  2  0  0  0  0  0  0
  187.2580  172.3500  135.8300 C   0  0  0  0  0  2  0  0  0  0  0  0
  185.9990  173.1990  135.9350 C   0  0  0  0  0  2  0  0  0  0  0  0
  185.3420  172.9560  137.2840 C   0  0  0  0  0  2  0  0  0  0  0  0
  183.8910  173.3140  137.2390 C   0  0  0  0  0  3  0  0  0  0  0  0
  183.1400  172.9670  136.1920 C   0  0  0  0  0  2  0  0  0  0  0  0
  188.7670  178.1300  139.2980 C   0  0  2  0  0  3  0  0  0  0  0  0
  188.5850  179.1190  138.3180 O   0  0  0  0  0  0  0  0  0  0  0  0
  187.4920  178.6990  137.5500 C   0  0  1  0  0  3  0  0  0  0  0  0
  187.2770  178.6100  135.1800 F   0  0  0  0  0  0  0  0  0  0  0  0
  189.3250  178.3090  136.0670 F   0  0  0  0  0  0  0  0  0  0  0  0
  187.9740  178.0690  136.2420 C   0  0  0  0  0  0  0  0  0  0  0  0
  187.7530  176.7040  136.2630 F   0  0  0  0  0  0  0  0  0  0  0  0
  186.6600  177.6950  138.3470 C   0  0  0  0  0  2  0  0  0  0  0  0
  184.9240  179.7970  139.2870 O   0  0  0  0  0  1  0  0  0  0  0  0
  185.2150  177.7850  137.9790 C   0  0  0  0  0  0  0  0  0  0  0  0
  184.7010  176.8960  137.1950 N   0  0  0  0  0  2  0  0  0  0  0  0
  184.4010  178.8460  138.4790 N   0  0  0  0  0  2  0  0  0  0  0  0
  188.5200  178.6620  140.7200 C   0  0  0  0  0  2  0  0  0  0  0  0
  187.7020  177.7240  141.6170 C   0  0  1  0  0  3  0  0  0  0  0  0
  189.5610  178.3320  143.2210 C   0  0  0  0  0  2  0  0  0  0  0  0
  189.1790  176.0140  142.6930 C   0  0  0  0  0  2  0  0  0  0  0  0
  190.5910  176.2560  143.1690 C   0  0  0  0  0  2  0  0  0  0  0  0
  188.4640  177.3300  142.8940 C   0  0  2  0  0  3  0  0  0  0  0  0
  191.6750  178.0600  144.1770 C   0  0  0  0  0  1  0  0  0  0  0  0
  190.8510  177.6800  143.0450 N   0  0  0  0  0  0  0  0  0  0  0  0
  186.3200  178.3110  141.9260 C   0  0  0  0  0  2  0  0  0  0  0  0
  185.8430  177.9790  143.3350 C   0  0  0  0  0  2  0  0  0  0  0  0
  184.4240  178.4760  143.5410 C   0  0  0  0  0  2  0  0  0  0  0  0
  184.3510  179.4090  144.7360 C   0  0  0  0  0  2  0  0  0  0  0  0
  184.5870  178.6180  146.0060 C   0  0  0  0  0  2  0  0  0  0  0  0
  185.7440  179.0820  146.6300 O   0  0  0  0  0  1  0  0  0  0  0  0
  2 27  1  0  0  0  0
  2  1  1  0  0  0  0
  3  1  1  0  0  0  0
  4  5  1  0  0  0  0
  4  2  2  0  0  0  0
  5  3  2  0  0  0  0
  6  8  1  6  0  0  0
  6  9  1  0  0  0  0
  7  5  1  0  0  0  0
  9  7  2  0  0  0  0
 10  7  1  0  0  0  0
 11 13  1  0  0  0  0
 11 12  1  0  0  0  0
 12 18  1  1  0  0  0
 12 10  1  0  0  0  0
 13 15  1  1  0  0  0
 13  6  1  0  0  0  0
 15 16  1  0  0  0  0
 15 14  1  0  0  0  0
 17 16  1  0  0  0  0
 18 19  1  0  0  0  0
 19 20  1  0  0  0  0
 20 21  1  0  0  0  0
 22 23  1  0  0  0  0
 22 21  1  0  0  0  0
 23 24  1  0  0  0  0
 25 24  1  0  0  0  0
 26 25  2  0  0  0  0
 27 39  1  1  0  0  0
 28 27  1  0  0  0  0
 29 28  1  0  0  0  0
 29 34  1  1  0  0  0
 30 32  1  0  0  0  0
 31 32  1  0  0  0  0
 32 33  1  0  0  0  0
 32 29  1  0  0  0  0
 36 34  1  0  0  0  0
 36 38  1  0  0  0  0
 37 36  2  0  0  0  0
 38 35  1  0  0  0  0
 40 39  1  1  0  0  0
 40 47  1  0  0  0  0
 42 44  1  0  0  0  0
 42 43  1  0  0  0  0
 44 40  1  6  0  0  0
 44 41  1  0  0  0  0
 46 43  1  0  0  0  0
 46 41  1  0  0  0  0
 46 45  1  0  0  0  0
 47 48  1  0  0  0  0
 48 49  1  0  0  0  0
 49 50  1  0  0  0  0
 50 51  1  0  0  0  0
 51 52  1  0  0  0  0
M  END
>  <MODEL>
9

>  <REMARK>
 VINA RESULT:      -5.0      3.920     10.647
  Name = 
  25 active torsions:
  status: ('A' for Active; 'I' for Inactive)
    1  A    between atoms: O_1  and  C_23
    2  A    between atoms: O_1  and  C_33
    3  A    between atoms: C_3  and  C_7
    4  A    between atoms: C_3  and  C_19
    5  A    between atoms: C_7  and  C_46
    6  A    between atoms: C_11  and  C_35
    7  A    between atoms: C_13  and  N_14
    8  A    between atoms: N_14  and  C_50
    9  A    between atoms: C_15  and  C_23
   10  A    between atoms: C_17  and  C_52
   11  A    between atoms: C_18  and  C_25
   12  A    between atoms: C_19  and  C_52
   13  A    between atoms: C_20  and  C_49
   14  A    between atoms: C_23  and  C_30
   15  A    between atoms: C_25  and  C_33
   16  A    between atoms: C_28  and  C_36
   17  A    between atoms: C_28  and  C_40
   18  A    between atoms: C_30  and  C_46
   19  A    between atoms: C_31  and  C_46
   20  A    between atoms: C_33  and  C_38
   21  A    between atoms: C_35  and  C_47
   22  A    between atoms: C_36  and  C_51
   23  A    between atoms: C_40  and  C_48
   24  A    between atoms: C_44  and  C_48
   25  A    between atoms: C_47  and  C_51
                            x       y       z     vdW  Elec       q    Type
                         _______ _______ _______ _____ _____    ______ ____

>  <TORSDO>
F 25

$$$$
