=
 OpenBabel11062417043D

 47 51  0  0  1  0  0  0  0  0999 V2000
  190.7570  177.3160  140.0960 C   0  0  0  0  0  0  0  0  0  0  0  0
  192.2510  177.6060  142.1760 C   0  0  0  0  0  2  0  0  0  0  0  0
  191.2550  176.7050  142.8760 C   0  0  0  0  0  0  0  0  0  0  0  0
  192.9650  178.1750  139.9760 O   0  0  0  0  0  0  0  0  0  0  0  0
  192.0420  177.7070  140.6950 C   0  0  0  0  0  0  0  0  0  0  0  0
  189.8450  176.7040  140.8560 C   0  0  0  0  0  3  0  0  0  0  0  0
  190.0630  176.4040  142.2890 C   0  0  0  0  0  0  0  0  0  0  0  0
  190.5930  176.3490  137.7230 C   0  0  1  0  0  3  0  0  0  0  0  0
  189.1700  178.3560  138.4380 C   0  0  0  0  0  2  0  0  0  0  0  0
  189.4530  175.4090  137.8730 N   0  0  0  0  0  0  0  0  0  0  0  0
  190.4860  177.5930  138.6370 C   0  0  1  0  0  3  0  0  0  0  0  0
  188.1090  177.5220  137.7250 C   0  0  0  0  0  2  0  0  0  0  0  0
  188.1740  176.0730  138.2060 C   0  0  0  0  0  2  0  0  0  0  0  0
  187.9180  174.3650  136.4390 F   0  0  0  0  0  0  0  0  0  0  0  0
  189.2630  174.6380  136.6290 C   0  0  0  0  0  0  0  0  0  0  0  0
  189.7370  175.3420  135.5300 F   0  0  0  0  0  0  0  0  0  0  0  0
  189.9290  173.4280  136.7080 F   0  0  0  0  0  0  0  0  0  0  0  0
  191.9300  175.6340  137.9130 C   0  0  0  0  0  2  0  0  0  0  0  0
  193.0260  176.3460  137.1060 C   0  0  1  0  0  3  0  0  0  0  0  0
  194.3380  175.7480  137.1610 N   0  0  0  0  0  0  0  0  0  0  0  0
  193.4640  175.5060  136.0410 N   0  0  0  0  0  2  0  0  0  0  0  0
  194.4130  174.4900  137.9060 C   0  0  0  0  0  1  0  0  0  0  0  0
  188.5440  176.2950  144.2280 C   0  0  0  0  0  2  0  0  0  0  0  0
  188.9700  175.6180  143.0010 C   0  0  1  0  0  3  0  0  0  0  0  0
  187.6230  176.2600  143.0850 N   0  0  0  0  0  0  0  0  0  0  0  0
  187.5440  177.6200  142.5420 C   0  0  0  0  0  2  0  0  0  0  0  0
  186.2300  178.2740  142.8760 C   0  0  0  0  0  0  0  0  0  0  0  0
  185.5700  178.1170  144.1960 C   0  0  2  0  0  3  0  0  0  0  0  0
  184.1960  179.3830  142.6100 C   0  0  0  0  0  3  0  0  0  0  0  0
  184.2130  178.7930  144.0190 C   0  0  0  0  0  3  0  0  0  0  0  0
  185.4870  178.9540  142.0220 C   0  0  0  0  0  0  0  0  0  0  0  0
  186.3590  178.8500  145.2650 C   0  0  0  0  0  1  0  0  0  0  0  0
  185.8780  179.2140  140.7040 O   0  0  0  0  0  0  0  0  0  0  0  0
  184.9750  179.6400  139.7500 N   0  0  0  0  0  2  0  0  0  0  0  0
  184.1100  178.5220  139.4010 C   0  0  2  0  0  3  0  0  0  0  0  0
  184.5410  177.9380  138.0610 C   0  0  0  0  0  2  0  0  0  0  0  0
  183.3990  176.6180  137.5450 S   0  0  0  0  0  0  0  0  0  0  0  0
  184.3410  174.0580  137.5660 C   0  0  0  0  0  1  0  0  0  0  0  0
  184.7600  175.4650  137.1880 C   0  0  0  0  0  2  0  0  0  0  0  0
  182.6550  178.9760  139.3220 C   0  0  0  0  0  2  0  0  0  0  0  0
  181.8850  178.3490  140.3430 O   0  0  0  0  0  0  0  0  0  0  0  0
  180.4830  178.5770  142.3890 C   0  0  0  0  0  1  0  0  0  0  0  0
  180.3710  180.0810  140.5590 O   0  0  0  0  0  0  0  0  0  0  0  0
  180.9030  179.0490  141.0470 C   0  0  0  0  0  0  0  0  0  0  0  0
  191.6330  176.2280  144.2300 C   0  0  0  0  0  0  0  0  0  0  0  0
  191.5090  177.1270  145.4140 C   0  0  0  0  0  1  0  0  0  0  0  0
  192.0850  175.0660  144.4080 O   0  0  0  0  0  0  0  0  0  0  0  0
  1  5  1  0  0  0  0
  1  6  2  0  0  0  0
  2  3  1  0  0  0  0
  3 45  1  0  0  0  0
  4  5  2  0  0  0  0
  5  2  1  0  0  0  0
  6  7  1  0  0  0  0
  7  3  2  0  0  0  0
  8 10  1  0  0  0  0
  8 18  1  1  0  0  0
  8 11  1  0  0  0  0
  9 11  1  0  0  0  0
 10 13  1  0  0  0  0
 11  1  1  1  0  0  0
 12 13  1  0  0  0  0
 12  9  1  0  0  0  0
 14 15  1  0  0  0  0
 15 17  1  0  0  0  0
 15 10  1  0  0  0  0
 16 15  1  0  0  0  0
 19 20  1  0  0  0  0
 19 18  1  1  0  0  0
 20 22  1  0  0  0  0
 21 19  1  0  0  0  0
 21 20  1  0  0  0  0
 24  7  1  6  0  0  0
 24 25  1  0  0  0  0
 24 23  1  0  0  0  0
 25 23  1  0  0  0  0
 26 27  1  0  0  0  0
 26 25  1  0  0  0  0
 27 28  1  0  0  0  0
 28 32  1  1  0  0  0
 29 30  2  0  0  0  0
 30 28  1  0  0  0  0
 31 29  1  0  0  0  0
 31 27  2  0  0  0  0
 33 31  1  0  0  0  0
 34 33  1  0  0  0  0
 35 36  1  6  0  0  0
 35 34  1  0  0  0  0
 37 36  1  0  0  0  0
 39 37  1  0  0  0  0
 39 38  1  0  0  0  0
 40 35  1  0  0  0  0
 40 41  1  0  0  0  0
 41 44  1  0  0  0  0
 43 44  2  0  0  0  0
 44 42  1  0  0  0  0
 45 47  2  0  0  0  0
 45 46  1  0  0  0  0
M  END
>  <MODEL>
1

>  <REMARK>
 VINA RESULT:      -6.6      0.000      0.000
  Name = 
  17 active torsions:
  status: ('A' for Active; 'I' for Inactive)
    1  A    between atoms: C_2  and  C_26
    2  A    between atoms: C_4  and  C_21
    3  A    between atoms: C_6  and  C_26
    4  A    between atoms: O_8  and  C_42
    5  A    between atoms: O_8  and  N_47
    6  A    between atoms: S_9  and  C_16
    7  A    between atoms: S_9  and  C_46
    8  A    between atoms: C_11  and  C_12
    9  A    between atoms: C_11  and  N_25
   10  A    between atoms: C_13  and  C_45
   11  A    between atoms: C_14  and  C_16
   12  A    between atoms: C_14  and  C_35
   13  A    between atoms: C_14  and  N_47
   14  A    between atoms: N_20  and  C_32
   15  A    between atoms: C_24  and  O_41
   16  A    between atoms: C_28  and  C_30
   17  A    between atoms: C_35  and  O_41
                            x       y       z     vdW  Elec       q    Type
                         _______ _______ _______ _____ _____    ______ ____

>  <TORSDO>
F 17

$$$$
=
 OpenBabel11062417043D

 47 51  0  0  1  0  0  0  0  0999 V2000
  184.2110  175.8720  137.3590 C   0  0  0  0  0  0  0  0  0  0  0  0
  186.7680  176.1720  137.2440 C   0  0  0  0  0  2  0  0  0  0  0  0
  186.5240  177.5210  137.8880 C   0  0  0  0  0  0  0  0  0  0  0  0
  185.6950  174.0650  136.9590 O   0  0  0  0  0  0  0  0  0  0  0  0
  185.5530  175.2950  137.1930 C   0  0  0  0  0  0  0  0  0  0  0  0
  184.0940  177.1480  137.7330 C   0  0  0  0  0  3  0  0  0  0  0  0
  185.2610  178.0230  137.9840 C   0  0  0  0  0  0  0  0  0  0  0  0
  181.6450  175.7650  137.3250 C   0  0  1  0  0  3  0  0  0  0  0  0
  183.0550  174.2900  135.7750 C   0  0  0  0  0  2  0  0  0  0  0  0
  181.3320  176.7200  136.2330 N   0  0  0  0  0  0  0  0  0  0  0  0
  182.9870  175.0200  137.1220 C   0  0  1  0  0  3  0  0  0  0  0  0
  182.0060  174.7860  134.7840 C   0  0  0  0  0  2  0  0  0  0  0  0
  181.8430  176.3010  134.9090 C   0  0  0  0  0  2  0  0  0  0  0  0
  179.5150  177.1170  134.8020 F   0  0  0  0  0  0  0  0  0  0  0  0
  179.8720  176.9080  136.1240 C   0  0  0  0  0  0  0  0  0  0  0  0
  179.1910  175.7960  136.6010 F   0  0  0  0  0  0  0  0  0  0  0  0
  179.4750  178.0190  136.8470 F   0  0  0  0  0  0  0  0  0  0  0  0
  181.5900  176.4460  138.6910 C   0  0  0  0  0  2  0  0  0  0  0  0
  181.2160  175.4240  139.7750 C   0  0  1  0  0  3  0  0  0  0  0  0
  179.9640  175.6550  140.4540 N   0  0  0  0  0  0  0  0  0  0  0  0
  180.0530  174.7020  139.3760 N   0  0  0  0  0  2  0  0  0  0  0  0
  179.1840  176.7840  139.9440 C   0  0  0  0  0  1  0  0  0  0  0  0
  183.6150  179.5230  139.0430 C   0  0  0  0  0  2  0  0  0  0  0  0
  184.9710  179.4270  138.4960 C   0  0  1  0  0  3  0  0  0  0  0  0
  184.7550  179.5790  139.9670 N   0  0  0  0  0  0  0  0  0  0  0  0
  184.7640  178.3270  140.7320 C   0  0  0  0  0  2  0  0  0  0  0  0
  184.3670  178.5520  142.1660 C   0  0  0  0  0  0  0  0  0  0  0  0
  183.0590  179.1360  142.5530 C   0  0  2  0  0  3  0  0  0  0  0  0
  184.5250  178.7710  144.4820 C   0  0  0  0  0  3  0  0  0  0  0  0
  183.1690  179.3350  144.0620 C   0  0  0  0  0  3  0  0  0  0  0  0
  185.1570  178.3580  143.2060 C   0  0  0  0  0  0  0  0  0  0  0  0
  181.9390  178.1540  142.2590 C   0  0  0  0  0  1  0  0  0  0  0  0
  186.4520  177.8420  143.1000 O   0  0  0  0  0  0  0  0  0  0  0  0
  186.8090  176.6480  143.6940 N   0  0  0  0  0  2  0  0  0  0  0  0
  188.0930  176.8270  144.3570 C   0  0  2  0  0  3  0  0  0  0  0  0
  187.9370  177.7930  145.5260 C   0  0  0  0  0  2  0  0  0  0  0  0
  188.8840  177.2070  146.9660 S   0  0  0  0  0  0  0  0  0  0  0  0
  186.5320  178.5190  147.3960 C   0  0  0  0  0  1  0  0  0  0  0  0
  187.5870  177.7190  148.1330 C   0  0  0  0  0  2  0  0  0  0  0  0
  189.1300  177.3670  143.3780 C   0  0  0  0  0  2  0  0  0  0  0  0
  190.4360  176.9430  143.7550 O   0  0  0  0  0  0  0  0  0  0  0  0
  191.4780  179.1990  143.9120 C   0  0  0  0  0  1  0  0  0  0  0  0
  191.9960  177.4200  145.3930 O   0  0  0  0  0  0  0  0  0  0  0  0
  191.3240  177.8070  144.3990 C   0  0  0  0  0  0  0  0  0  0  0  0
  187.7260  178.2610  138.3480 C   0  0  0  0  0  0  0  0  0  0  0  0
  188.2370  178.0900  139.7390 C   0  0  0  0  0  1  0  0  0  0  0  0
  188.3280  179.0620  137.5850 O   0  0  0  0  0  0  0  0  0  0  0  0
  1  6  2  0  0  0  0
  2  3  1  0  0  0  0
  3  7  2  0  0  0  0
  3 45  1  0  0  0  0
  4  5  2  0  0  0  0
  5  2  1  0  0  0  0
  5  1  1  0  0  0  0
  6  7  1  0  0  0  0
  8 18  1  1  0  0  0
  9 11  1  0  0  0  0
 10  8  1  0  0  0  0
 11  8  1  0  0  0  0
 11  1  1  6  0  0  0
 12 13  1  0  0  0  0
 12  9  1  0  0  0  0
 13 10  1  0  0  0  0
 14 15  1  0  0  0  0
 15 10  1  0  0  0  0
 15 16  1  0  0  0  0
 15 17  1  0  0  0  0
 19 18  1  6  0  0  0
 19 20  1  0  0  0  0
 21 19  1  0  0  0  0
 21 20  1  0  0  0  0
 22 20  1  0  0  0  0
 23 25  1  0  0  0  0
 24  7  1  1  0  0  0
 24 23  1  0  0  0  0
 24 25  1  0  0  0  0
 25 26  1  0  0  0  0
 26 27  1  0  0  0  0
 27 28  1  0  0  0  0
 27 31  2  0  0  0  0
 28 32  1  1  0  0  0
 28 30  1  0  0  0  0
 30 29  2  0  0  0  0
 31 29  1  0  0  0  0
 33 31  1  0  0  0  0
 33 34  1  0  0  0  0
 34 35  1  0  0  0  0
 35 40  1  6  0  0  0
 35 36  1  0  0  0  0
 36 37  1  0  0  0  0
 37 39  1  0  0  0  0
 38 39  1  0  0  0  0
 40 41  1  0  0  0  0
 41 44  1  0  0  0  0
 42 44  1  0  0  0  0
 44 43  2  0  0  0  0
 45 46  1  0  0  0  0
 47 45  2  0  0  0  0
M  END
>  <MODEL>
2

>  <REMARK>
 VINA RESULT:      -6.3      4.619      8.683
  Name = 
  17 active torsions:
  status: ('A' for Active; 'I' for Inactive)
    1  A    between atoms: C_2  and  C_26
    2  A    between atoms: C_4  and  C_21
    3  A    between atoms: C_6  and  C_26
    4  A    between atoms: O_8  and  C_42
    5  A    between atoms: O_8  and  N_47
    6  A    between atoms: S_9  and  C_16
    7  A    between atoms: S_9  and  C_46
    8  A    between atoms: C_11  and  C_12
    9  A    between atoms: C_11  and  N_25
   10  A    between atoms: C_13  and  C_45
   11  A    between atoms: C_14  and  C_16
   12  A    between atoms: C_14  and  C_35
   13  A    between atoms: C_14  and  N_47
   14  A    between atoms: N_20  and  C_32
   15  A    between atoms: C_24  and  O_41
   16  A    between atoms: C_28  and  C_30
   17  A    between atoms: C_35  and  O_41
                            x       y       z     vdW  Elec       q    Type
                         _______ _______ _______ _____ _____    ______ ____

>  <TORSDO>
F 17

$$$$
=
 OpenBabel11062417043D

 47 51  0  0  1  0  0  0  0  0999 V2000
  191.2720  176.9930  139.2140 C   0  0  0  0  0  0  0  0  0  0  0  0
  192.5730  177.7470  141.3070 C   0  0  0  0  0  2  0  0  0  0  0  0
  191.4070  177.1850  142.0940 C   0  0  0  0  0  0  0  0  0  0  0  0
  193.5700  177.5770  139.1510 O   0  0  0  0  0  0  0  0  0  0  0  0
  192.5280  177.4260  139.8430 C   0  0  0  0  0  0  0  0  0  0  0  0
  190.2190  176.7170  139.9880 C   0  0  0  0  0  3  0  0  0  0  0  0
  190.2520  176.8330  141.4630 C   0  0  0  0  0  0  0  0  0  0  0  0
  191.4460  175.4160  137.1940 C   0  0  1  0  0  3  0  0  0  0  0  0
  189.8860  177.4490  137.1590 C   0  0  0  0  0  2  0  0  0  0  0  0
  190.3230  174.4820  137.4610 N   0  0  0  0  0  0  0  0  0  0  0  0
  191.1860  176.8510  137.7130 C   0  0  1  0  0  3  0  0  0  0  0  0
  188.9510  176.3900  136.5830 C   0  0  0  0  0  2  0  0  0  0  0  0
  188.9930  175.1290  137.4460 C   0  0  0  0  0  2  0  0  0  0  0  0
  190.2440  173.9230  135.1850 F   0  0  0  0  0  0  0  0  0  0  0  0
  190.3180  173.3950  136.4630 C   0  0  0  0  0  0  0  0  0  0  0  0
  191.4670  172.6220  136.5640 F   0  0  0  0  0  0  0  0  0  0  0  0
  189.2140  172.5810  136.6450 F   0  0  0  0  0  0  0  0  0  0  0  0
  192.7660  174.8640  137.7290 C   0  0  0  0  0  2  0  0  0  0  0  0
  193.9110  175.2130  136.7660 C   0  0  1  0  0  3  0  0  0  0  0  0
  195.2460  175.0240  137.2790 N   0  0  0  0  0  0  0  0  0  0  0  0
  194.6350  174.0320  136.4300 N   0  0  0  0  0  2  0  0  0  0  0  0
  195.3150  174.4360  138.6180 C   0  0  0  0  0  1  0  0  0  0  0  0
  188.5030  177.4630  143.0810 C   0  0  0  0  0  2  0  0  0  0  0  0
  189.0050  176.3930  142.2160 C   0  0  1  0  0  3  0  0  0  0  0  0
  187.7310  177.1020  141.8850 N   0  0  0  0  0  0  0  0  0  0  0  0
  187.8610  178.2040  140.9270 C   0  0  0  0  0  2  0  0  0  0  0  0
  186.5390  178.5450  140.2930 C   0  0  0  0  0  0  0  0  0  0  0  0
  186.3110  178.4710  138.8280 C   0  0  2  0  0  3  0  0  0  0  0  0
  184.3760  179.3750  140.0290 C   0  0  0  0  0  3  0  0  0  0  0  0
  184.9170  179.0620  138.6360 C   0  0  0  0  0  3  0  0  0  0  0  0
  185.4970  179.0340  140.9380 C   0  0  0  0  0  0  0  0  0  0  0  0
  186.3080  177.0240  138.3710 C   0  0  0  0  0  1  0  0  0  0  0  0
  185.4740  179.2260  142.3230 O   0  0  0  0  0  0  0  0  0  0  0  0
  184.9130  178.2970  143.1760 N   0  0  0  0  0  2  0  0  0  0  0  0
  184.8430  178.8770  144.5100 C   0  0  2  0  0  3  0  0  0  0  0  0
  185.3630  177.8750  145.5340 C   0  0  0  0  0  2  0  0  0  0  0  0
  186.0560  178.7410  146.9770 S   0  0  0  0  0  0  0  0  0  0  0  0
  188.2010  177.6350  148.2460 C   0  0  0  0  0  1  0  0  0  0  0  0
  187.6370  177.8520  146.8570 C   0  0  0  0  0  2  0  0  0  0  0  0
  183.4070  179.2660  144.8500 C   0  0  0  0  0  2  0  0  0  0  0  0
  182.4890  178.4400  144.1410 O   0  0  0  0  0  0  0  0  0  0  0  0
  180.0130  178.2120  144.0070 C   0  0  0  0  0  1  0  0  0  0  0  0
  181.2120  179.9980  143.0070 O   0  0  0  0  0  0  0  0  0  0  0  0
  181.2660  178.9370  143.6860 C   0  0  0  0  0  0  0  0  0  0  0  0
  191.5860  177.0960  143.5660 C   0  0  0  0  0  0  0  0  0  0  0  0
  191.6960  175.7700  144.2380 C   0  0  0  0  0  1  0  0  0  0  0  0
  191.6270  178.1330  144.2790 O   0  0  0  0  0  0  0  0  0  0  0  0
  1  5  1  0  0  0  0
  1  6  2  0  0  0  0
  2  3  1  0  0  0  0
  3 45  1  0  0  0  0
  4  5  2  0  0  0  0
  5  2  1  0  0  0  0
  6  7  1  0  0  0  0
  7  3  2  0  0  0  0
  8 10  1  0  0  0  0
  8 11  1  0  0  0  0
  8 18  1  1  0  0  0
  9 11  1  0  0  0  0
 11  1  1  1  0  0  0
 12  9  1  0  0  0  0
 12 13  1  0  0  0  0
 13 10  1  0  0  0  0
 14 15  1  0  0  0  0
 15 16  1  0  0  0  0
 15 17  1  0  0  0  0
 15 10  1  0  0  0  0
 19 20  1  0  0  0  0
 19 18  1  1  0  0  0
 20 22  1  0  0  0  0
 21 19  1  0  0  0  0
 21 20  1  0  0  0  0
 24  7  1  6  0  0  0
 24 23  1  0  0  0  0
 25 24  1  0  0  0  0
 25 23  1  0  0  0  0
 26 25  1  0  0  0  0
 27 26  1  0  0  0  0
 27 31  2  0  0  0  0
 28 32  1  1  0  0  0
 28 27  1  0  0  0  0
 29 31  1  0  0  0  0
 30 28  1  0  0  0  0
 30 29  2  0  0  0  0
 31 33  1  0  0  0  0
 33 34  1  0  0  0  0
 34 35  1  0  0  0  0
 35 40  1  1  0  0  0
 35 36  1  0  0  0  0
 36 37  1  0  0  0  0
 39 37  1  0  0  0  0
 39 38  1  0  0  0  0
 41 40  1  0  0  0  0
 43 44  2  0  0  0  0
 44 42  1  0  0  0  0
 44 41  1  0  0  0  0
 45 46  1  0  0  0  0
 45 47  2  0  0  0  0
M  END
>  <MODEL>
3

>  <REMARK>
 VINA RESULT:      -6.2      2.264      3.896
  Name = 
  17 active torsions:
  status: ('A' for Active; 'I' for Inactive)
    1  A    between atoms: C_2  and  C_26
    2  A    between atoms: C_4  and  C_21
    3  A    between atoms: C_6  and  C_26
    4  A    between atoms: O_8  and  C_42
    5  A    between atoms: O_8  and  N_47
    6  A    between atoms: S_9  and  C_16
    7  A    between atoms: S_9  and  C_46
    8  A    between atoms: C_11  and  C_12
    9  A    between atoms: C_11  and  N_25
   10  A    between atoms: C_13  and  C_45
   11  A    between atoms: C_14  and  C_16
   12  A    between atoms: C_14  and  C_35
   13  A    between atoms: C_14  and  N_47
   14  A    between atoms: N_20  and  C_32
   15  A    between atoms: C_24  and  O_41
   16  A    between atoms: C_28  and  C_30
   17  A    between atoms: C_35  and  O_41
                            x       y       z     vdW  Elec       q    Type
                         _______ _______ _______ _____ _____    ______ ____

>  <TORSDO>
F 17

$$$$
=
 OpenBabel11062417043D

 47 51  0  0  1  0  0  0  0  0999 V2000
  190.8360  177.2340  140.0410 C   0  0  0  0  0  0  0  0  0  0  0  0
  192.2460  177.6690  142.1540 C   0  0  0  0  0  2  0  0  0  0  0  0
  191.2620  176.7570  142.8590 C   0  0  0  0  0  0  0  0  0  0  0  0
  193.0120  178.1750  139.9570 O   0  0  0  0  0  0  0  0  0  0  0  0
  192.0840  177.7000  140.6640 C   0  0  0  0  0  0  0  0  0  0  0  0
  189.9240  176.6170  140.7960 C   0  0  0  0  0  3  0  0  0  0  0  0
  190.1040  176.3840  142.2460 C   0  0  0  0  0  0  0  0  0  0  0  0
  190.8780  176.1860  137.6960 C   0  0  1  0  0  3  0  0  0  0  0  0
  189.2310  178.0590  138.2840 C   0  0  0  0  0  2  0  0  0  0  0  0
  189.8310  175.1410  137.8300 N   0  0  0  0  0  0  0  0  0  0  0  0
  190.6060  177.4400  138.5630 C   0  0  1  0  0  3  0  0  0  0  0  0
  188.2910  177.1020  137.5550 C   0  0  0  0  0  2  0  0  0  0  0  0
  188.4780  175.6810  138.0860 C   0  0  0  0  0  2  0  0  0  0  0  0
  188.4740  173.9070  136.3680 F   0  0  0  0  0  0  0  0  0  0  0  0
  189.7750  174.3180  136.6060 C   0  0  0  0  0  0  0  0  0  0  0  0
  190.2270  175.0340  135.5050 F   0  0  0  0  0  0  0  0  0  0  0  0
  190.5530  173.1840  136.7530 F   0  0  0  0  0  0  0  0  0  0  0  0
  192.2690  175.6160  137.9660 C   0  0  0  0  0  2  0  0  0  0  0  0
  193.2840  176.2210  136.9850 C   0  0  1  0  0  3  0  0  0  0  0  0
  194.6120  175.6570  137.0240 N   0  0  0  0  0  0  0  0  0  0  0  0
  193.6640  175.2430  136.0200 N   0  0  0  0  0  2  0  0  0  0  0  0
  194.7730  174.5200  137.9330 C   0  0  0  0  0  1  0  0  0  0  0  0
  188.6360  176.2160  144.2200 C   0  0  0  0  0  2  0  0  0  0  0  0
  189.0190  175.5850  142.9550 C   0  0  1  0  0  3  0  0  0  0  0  0
  187.6840  176.2410  143.1020 N   0  0  0  0  0  0  0  0  0  0  0  0
  187.6100  177.6230  142.6160 C   0  0  0  0  0  2  0  0  0  0  0  0
  186.3220  178.2850  143.0240 C   0  0  0  0  0  0  0  0  0  0  0  0
  185.6750  178.0390  144.3380 C   0  0  2  0  0  3  0  0  0  0  0  0
  184.3190  179.4710  142.8840 C   0  0  0  0  0  3  0  0  0  0  0  0
  184.3370  178.7670  144.2390 C   0  0  0  0  0  3  0  0  0  0  0  0
  185.5880  179.0550  142.2410 C   0  0  0  0  0  0  0  0  0  0  0  0
  186.5000  178.6580  145.4510 C   0  0  0  0  0  1  0  0  0  0  0  0
  185.9680  179.4110  140.9430 O   0  0  0  0  0  0  0  0  0  0  0  0
  185.8490  178.5330  139.8850 N   0  0  0  0  0  2  0  0  0  0  0  0
  184.8350  179.0440  138.9730 C   0  0  2  0  0  3  0  0  0  0  0  0
  183.4510  178.8470  139.5800 C   0  0  0  0  0  2  0  0  0  0  0  0
  182.2380  179.9310  138.7640 S   0  0  0  0  0  0  0  0  0  0  0  0
  181.3860  177.3790  138.3200 C   0  0  0  0  0  1  0  0  0  0  0  0
  180.9120  178.6940  138.9040 C   0  0  0  0  0  2  0  0  0  0  0  0
  184.9160  178.3290  137.6280 C   0  0  0  0  0  2  0  0  0  0  0  0
  184.8910  176.9170  137.8140 O   0  0  0  0  0  0  0  0  0  0  0  0
  184.8270  174.5890  136.9330 C   0  0  0  0  0  1  0  0  0  0  0  0
  184.2240  176.4860  135.6440 O   0  0  0  0  0  0  0  0  0  0  0  0
  184.6290  176.0480  136.7540 C   0  0  0  0  0  0  0  0  0  0  0  0
  191.6120  176.3520  144.2440 C   0  0  0  0  0  0  0  0  0  0  0  0
  191.4800  177.3170  145.3730 C   0  0  0  0  0  1  0  0  0  0  0  0
  192.0460  175.1970  144.4930 O   0  0  0  0  0  0  0  0  0  0  0  0
  1  5  1  0  0  0  0
  1  6  2  0  0  0  0
  2  3  1  0  0  0  0
  3 45  1  0  0  0  0
  4  5  2  0  0  0  0
  5  2  1  0  0  0  0
  6  7  1  0  0  0  0
  7  3  2  0  0  0  0
  8 10  1  0  0  0  0
  8 18  1  1  0  0  0
  8 11  1  0  0  0  0
  9 11  1  0  0  0  0
 10 13  1  0  0  0  0
 11  1  1  1  0  0  0
 12 13  1  0  0  0  0
 12  9  1  0  0  0  0
 14 15  1  0  0  0  0
 15 17  1  0  0  0  0
 15 10  1  0  0  0  0
 16 15  1  0  0  0  0
 19 20  1  0  0  0  0
 19 18  1  1  0  0  0
 20 22  1  0  0  0  0
 21 19  1  0  0  0  0
 21 20  1  0  0  0  0
 24  7  1  6  0  0  0
 24 25  1  0  0  0  0
 24 23  1  0  0  0  0
 25 23  1  0  0  0  0
 26 27  1  0  0  0  0
 26 25  1  0  0  0  0
 27 28  1  0  0  0  0
 28 32  1  1  0  0  0
 29 30  2  0  0  0  0
 30 28  1  0  0  0  0
 31 29  1  0  0  0  0
 31 27  2  0  0  0  0
 33 31  1  0  0  0  0
 34 33  1  0  0  0  0
 35 40  1  6  0  0  0
 35 36  1  0  0  0  0
 35 34  1  0  0  0  0
 37 39  1  0  0  0  0
 37 36  1  0  0  0  0
 38 39  1  0  0  0  0
 40 41  1  0  0  0  0
 43 44  2  0  0  0  0
 44 42  1  0  0  0  0
 44 41  1  0  0  0  0
 45 47  2  0  0  0  0
 45 46  1  0  0  0  0
M  END
>  <MODEL>
4

>  <REMARK>
 VINA RESULT:      -6.1      1.379      2.339
  Name = 
  17 active torsions:
  status: ('A' for Active; 'I' for Inactive)
    1  A    between atoms: C_2  and  C_26
    2  A    between atoms: C_4  and  C_21
    3  A    between atoms: C_6  and  C_26
    4  A    between atoms: O_8  and  C_42
    5  A    between atoms: O_8  and  N_47
    6  A    between atoms: S_9  and  C_16
    7  A    between atoms: S_9  and  C_46
    8  A    between atoms: C_11  and  C_12
    9  A    between atoms: C_11  and  N_25
   10  A    between atoms: C_13  and  C_45
   11  A    between atoms: C_14  and  C_16
   12  A    between atoms: C_14  and  C_35
   13  A    between atoms: C_14  and  N_47
   14  A    between atoms: N_20  and  C_32
   15  A    between atoms: C_24  and  O_41
   16  A    between atoms: C_28  and  C_30
   17  A    between atoms: C_35  and  O_41
                            x       y       z     vdW  Elec       q    Type
                         _______ _______ _______ _____ _____    ______ ____

>  <TORSDO>
F 17

$$$$
=
 OpenBabel11062417043D

 47 51  0  0  1  0  0  0  0  0999 V2000
  191.2600  177.0620  139.4700 C   0  0  0  0  0  0  0  0  0  0  0  0
  192.4600  177.6930  141.6610 C   0  0  0  0  0  2  0  0  0  0  0  0
  191.2530  177.1000  142.3590 C   0  0  0  0  0  0  0  0  0  0  0  0
  193.5620  177.6290  139.5510 O   0  0  0  0  0  0  0  0  0  0  0  0
  192.4870  177.4500  140.1820 C   0  0  0  0  0  0  0  0  0  0  0  0
  190.1690  176.7530  140.1740 C   0  0  0  0  0  3  0  0  0  0  0  0
  190.1290  176.7910  141.6540 C   0  0  0  0  0  0  0  0  0  0  0  0
  191.7090  175.6430  137.3770 C   0  0  1  0  0  3  0  0  0  0  0  0
  189.9050  177.4630  137.3840 C   0  0  0  0  0  2  0  0  0  0  0  0
  190.7050  174.5610  137.5420 N   0  0  0  0  0  0  0  0  0  0  0  0
  191.2490  177.0000  137.9610 C   0  0  1  0  0  3  0  0  0  0  0  0
  189.1340  176.3310  136.7090 C   0  0  0  0  0  2  0  0  0  0  0  0
  189.3040  175.0360  137.5040 C   0  0  0  0  0  2  0  0  0  0  0  0
  191.9150  172.6890  136.8130 F   0  0  0  0  0  0  0  0  0  0  0  0
  190.8750  173.5430  136.4860 C   0  0  0  0  0  0  0  0  0  0  0  0
  189.7150  172.7970  136.3240 F   0  0  0  0  0  0  0  0  0  0  0  0
  191.1910  174.1480  135.2830 F   0  0  0  0  0  0  0  0  0  0  0  0
  193.0670  175.2290  137.9380 C   0  0  0  0  0  2  0  0  0  0  0  0
  194.1640  175.4640  136.8880 C   0  0  1  0  0  3  0  0  0  0  0  0
  195.4930  175.0380  137.2580 N   0  0  0  0  0  0  0  0  0  0  0  0
  194.6600  174.2120  136.4200 N   0  0  0  0  0  2  0  0  0  0  0  0
  195.5850  174.3560  138.5500 C   0  0  0  0  0  1  0  0  0  0  0  0
  188.2900  177.3590  143.1940 C   0  0  0  0  0  2  0  0  0  0  0  0
  188.8430  176.3230  142.3200 C   0  0  1  0  0  3  0  0  0  0  0  0
  187.5870  177.0410  141.9450 N   0  0  0  0  0  0  0  0  0  0  0  0
  187.7670  178.1790  141.0370 C   0  0  0  0  0  2  0  0  0  0  0  0
  186.4920  178.5140  140.3100 C   0  0  0  0  0  0  0  0  0  0  0  0
  186.4000  178.5540  138.8300 C   0  0  2  0  0  3  0  0  0  0  0  0
  184.3210  179.2680  139.9130 C   0  0  0  0  0  3  0  0  0  0  0  0
  185.0000  179.0970  138.5550 C   0  0  0  0  0  3  0  0  0  0  0  0
  185.3720  178.9020  140.8920 C   0  0  0  0  0  0  0  0  0  0  0  0
  186.5120  177.1510  138.2610 C   0  0  0  0  0  1  0  0  0  0  0  0
  185.2150  178.9760  142.2800 O   0  0  0  0  0  0  0  0  0  0  0  0
  184.6170  177.9600  142.9990 N   0  0  0  0  0  2  0  0  0  0  0  0
  183.8770  178.5500  144.1040 C   0  0  2  0  0  3  0  0  0  0  0  0
  182.8170  179.5030  143.5630 C   0  0  0  0  0  2  0  0  0  0  0  0
  181.1510  178.8200  143.8260 S   0  0  0  0  0  0  0  0  0  0  0  0
  180.9560  178.2420  141.1680 C   0  0  0  0  0  1  0  0  0  0  0  0
  180.5930  179.3200  142.1690 C   0  0  0  0  0  2  0  0  0  0  0  0
  184.8190  179.3030  145.0390 C   0  0  0  0  0  2  0  0  0  0  0  0
  185.6770  178.3910  145.7170 O   0  0  0  0  0  0  0  0  0  0  0  0
  187.4160  177.9120  147.4350 C   0  0  0  0  0  1  0  0  0  0  0  0
  185.8950  179.7250  147.5920 O   0  0  0  0  0  0  0  0  0  0  0  0
  186.2880  178.7300  146.9260 C   0  0  0  0  0  0  0  0  0  0  0  0
  191.3570  176.9320  143.8310 C   0  0  0  0  0  0  0  0  0  0  0  0
  191.1880  178.1010  144.7420 C   0  0  0  0  0  1  0  0  0  0  0  0
  191.6100  175.8090  144.3400 O   0  0  0  0  0  0  0  0  0  0  0  0
  1  6  2  0  0  0  0
  1  5  1  0  0  0  0
  2  3  1  0  0  0  0
  3 45  1  0  0  0  0
  4  5  2  0  0  0  0
  5  2  1  0  0  0  0
  6  7  1  0  0  0  0
  7  3  2  0  0  0  0
  8 10  1  0  0  0  0
  8 18  1  1  0  0  0
  8 11  1  0  0  0  0
  9 11  1  0  0  0  0
 11  1  1  1  0  0  0
 12  9  1  0  0  0  0
 12 13  1  0  0  0  0
 13 10  1  0  0  0  0
 15 14  1  0  0  0  0
 15 10  1  0  0  0  0
 16 15  1  0  0  0  0
 17 15  1  0  0  0  0
 19 20  1  0  0  0  0
 19 18  1  1  0  0  0
 20 22  1  0  0  0  0
 21 19  1  0  0  0  0
 21 20  1  0  0  0  0
 24  7  1  6  0  0  0
 24 23  1  0  0  0  0
 25 24  1  0  0  0  0
 25 23  1  0  0  0  0
 26 25  1  0  0  0  0
 27 31  2  0  0  0  0
 27 26  1  0  0  0  0
 28 32  1  6  0  0  0
 28 27  1  0  0  0  0
 29 31  1  0  0  0  0
 30 28  1  0  0  0  0
 30 29  2  0  0  0  0
 31 33  1  0  0  0  0
 33 34  1  0  0  0  0
 34 35  1  0  0  0  0
 35 36  1  6  0  0  0
 35 40  1  0  0  0  0
 36 37  1  0  0  0  0
 38 39  1  0  0  0  0
 39 37  1  0  0  0  0
 40 41  1  0  0  0  0
 41 44  1  0  0  0  0
 44 42  1  0  0  0  0
 44 43  2  0  0  0  0
 45 47  2  0  0  0  0
 45 46  1  0  0  0  0
M  END
>  <MODEL>
5

>  <REMARK>
 VINA RESULT:      -6.0      2.134      3.920
  Name = 
  17 active torsions:
  status: ('A' for Active; 'I' for Inactive)
    1  A    between atoms: C_2  and  C_26
    2  A    between atoms: C_4  and  C_21
    3  A    between atoms: C_6  and  C_26
    4  A    between atoms: O_8  and  C_42
    5  A    between atoms: O_8  and  N_47
    6  A    between atoms: S_9  and  C_16
    7  A    between atoms: S_9  and  C_46
    8  A    between atoms: C_11  and  C_12
    9  A    between atoms: C_11  and  N_25
   10  A    between atoms: C_13  and  C_45
   11  A    between atoms: C_14  and  C_16
   12  A    between atoms: C_14  and  C_35
   13  A    between atoms: C_14  and  N_47
   14  A    between atoms: N_20  and  C_32
   15  A    between atoms: C_24  and  O_41
   16  A    between atoms: C_28  and  C_30
   17  A    between atoms: C_35  and  O_41
                            x       y       z     vdW  Elec       q    Type
                         _______ _______ _______ _____ _____    ______ ____

>  <TORSDO>
F 17

$$$$
=
 OpenBabel11062417043D

 47 51  0  0  1  0  0  0  0  0999 V2000
  182.5010  176.1230  137.4070 C   0  0  0  0  0  0  0  0  0  0  0  0
  181.4920  176.2760  139.7730 C   0  0  0  0  0  2  0  0  0  0  0  0
  182.1330  177.6470  139.8340 C   0  0  0  0  0  0  0  0  0  0  0  0
  180.8040  174.6530  138.1730 O   0  0  0  0  0  0  0  0  0  0  0  0
  181.5490  175.6390  138.4180 C   0  0  0  0  0  0  0  0  0  0  0  0
  183.1840  177.2450  137.6430 C   0  0  0  0  0  3  0  0  0  0  0  0
  183.0360  178.0310  138.8880 C   0  0  0  0  0  0  0  0  0  0  0  0
  183.8280  174.3190  136.1490 C   0  0  1  0  0  3  0  0  0  0  0  0
  181.3630  174.7690  135.6120 C   0  0  0  0  0  2  0  0  0  0  0  0
  183.4970  173.1100  136.9460 N   0  0  0  0  0  0  0  0  0  0  0  0
  182.6850  175.3630  136.1150 C   0  0  1  0  0  3  0  0  0  0  0  0
  181.3470  173.2440  135.6590 C   0  0  0  0  0  2  0  0  0  0  0  0
  182.0620  172.7520  136.9180 C   0  0  0  0  0  2  0  0  0  0  0  0
  183.6260  170.7730  136.7930 F   0  0  0  0  0  0  0  0  0  0  0  0
  184.2710  171.9520  136.4580 C   0  0  0  0  0  0  0  0  0  0  0  0
  184.4240  172.0020  135.0790 F   0  0  0  0  0  0  0  0  0  0  0  0
  185.5220  171.9280  137.0470 F   0  0  0  0  0  0  0  0  0  0  0  0
  185.1400  174.9480  136.6130 C   0  0  0  0  0  2  0  0  0  0  0  0
  185.9370  175.4570  135.4030 C   0  0  1  0  0  3  0  0  0  0  0  0
  187.3300  175.0840  135.3630 N   0  0  0  0  0  0  0  0  0  0  0  0
  186.3490  174.3550  134.5990 N   0  0  0  0  0  2  0  0  0  0  0  0
  187.7610  174.1920  136.4400 C   0  0  0  0  0  1  0  0  0  0  0  0
  184.6510  179.3790  140.1730 C   0  0  0  0  0  2  0  0  0  0  0  0
  183.8110  179.3380  138.9740 C   0  0  1  0  0  3  0  0  0  0  0  0
  185.2990  179.2500  138.8620 N   0  0  0  0  0  0  0  0  0  0  0  0
  185.8380  177.8890  138.7690 C   0  0  0  0  0  2  0  0  0  0  0  0
  187.3360  177.8960  138.6210 C   0  0  0  0  0  0  0  0  0  0  0  0
  188.0120  177.7580  137.3070 C   0  0  2  0  0  3  0  0  0  0  0  0
  189.6000  177.8050  139.1730 C   0  0  0  0  0  3  0  0  0  0  0  0
  189.4930  177.6440  137.6580 C   0  0  0  0  0  3  0  0  0  0  0  0
  188.1930  177.9180  139.6260 C   0  0  0  0  0  0  0  0  0  0  0  0
  187.7910  179.0060  136.4720 C   0  0  0  0  0  1  0  0  0  0  0  0
  187.8020  178.0150  140.9650 O   0  0  0  0  0  0  0  0  0  0  0  0
  188.4000  177.2580  141.9530 N   0  0  0  0  0  2  0  0  0  0  0  0
  188.1130  177.8720  143.2420 C   0  0  2  0  0  3  0  0  0  0  0  0
  189.1790  177.4660  144.2530 C   0  0  0  0  0  2  0  0  0  0  0  0
  190.8300  177.9650  143.6740 S   0  0  0  0  0  0  0  0  0  0  0  0
  191.4190  176.7380  146.0370 C   0  0  0  0  0  1  0  0  0  0  0  0
  191.6440  176.5920  144.5450 C   0  0  0  0  0  2  0  0  0  0  0  0
  186.7370  177.4460  143.7430 C   0  0  0  0  0  2  0  0  0  0  0  0
  185.8920  178.5820  143.8980 O   0  0  0  0  0  0  0  0  0  0  0  0
  183.7930  178.9990  145.1710 C   0  0  0  0  0  1  0  0  0  0  0  0
  185.9440  179.0050  146.1700 O   0  0  0  0  0  0  0  0  0  0  0  0
  185.2680  178.8650  145.1150 C   0  0  0  0  0  0  0  0  0  0  0  0
  181.7600  178.5010  140.9900 C   0  0  0  0  0  0  0  0  0  0  0  0
  180.7480  179.5860  140.8370 C   0  0  0  0  0  1  0  0  0  0  0  0
  182.3010  178.3430  142.1160 O   0  0  0  0  0  0  0  0  0  0  0  0
  1  6  2  0  0  0  0
  1  5  1  0  0  0  0
  2  3  1  0  0  0  0
  3 45  1  0  0  0  0
  4  5  2  0  0  0  0
  5  2  1  0  0  0  0
  6  7  1  0  0  0  0
  7  3  2  0  0  0  0
  8 18  1  1  0  0  0
  8 10  1  0  0  0  0
  9 12  1  0  0  0  0
  9 11  1  0  0  0  0
 11  8  1  0  0  0  0
 11  1  1  1  0  0  0
 12 13  1  0  0  0  0
 13 10  1  0  0  0  0
 15 14  1  0  0  0  0
 15 10  1  0  0  0  0
 15 17  1  0  0  0  0
 16 15  1  0  0  0  0
 19 18  1  1  0  0  0
 20 19  1  0  0  0  0
 20 22  1  0  0  0  0
 21 20  1  0  0  0  0
 21 19  1  0  0  0  0
 24  7  1  1  0  0  0
 24 23  1  0  0  0  0
 25 24  1  0  0  0  0
 25 23  1  0  0  0  0
 26 25  1  0  0  0  0
 27 26  1  0  0  0  0
 27 31  2  0  0  0  0
 28 32  1  6  0  0  0
 28 30  1  0  0  0  0
 28 27  1  0  0  0  0
 29 31  1  0  0  0  0
 30 29  2  0  0  0  0
 31 33  1  0  0  0  0
 33 34  1  0  0  0  0
 34 35  1  0  0  0  0
 35 40  1  1  0  0  0
 35 36  1  0  0  0  0
 37 36  1  0  0  0  0
 37 39  1  0  0  0  0
 39 38  1  0  0  0  0
 40 41  1  0  0  0  0
 41 44  1  0  0  0  0
 44 42  1  0  0  0  0
 44 43  2  0  0  0  0
 45 47  2  0  0  0  0
 46 45  1  0  0  0  0
M  END
>  <MODEL>
6

>  <REMARK>
 VINA RESULT:      -5.3      3.219      7.810
  Name = 
  17 active torsions:
  status: ('A' for Active; 'I' for Inactive)
    1  A    between atoms: C_2  and  C_26
    2  A    between atoms: C_4  and  C_21
    3  A    between atoms: C_6  and  C_26
    4  A    between atoms: O_8  and  C_42
    5  A    between atoms: O_8  and  N_47
    6  A    between atoms: S_9  and  C_16
    7  A    between atoms: S_9  and  C_46
    8  A    between atoms: C_11  and  C_12
    9  A    between atoms: C_11  and  N_25
   10  A    between atoms: C_13  and  C_45
   11  A    between atoms: C_14  and  C_16
   12  A    between atoms: C_14  and  C_35
   13  A    between atoms: C_14  and  N_47
   14  A    between atoms: N_20  and  C_32
   15  A    between atoms: C_24  and  O_41
   16  A    between atoms: C_28  and  C_30
   17  A    between atoms: C_35  and  O_41
                            x       y       z     vdW  Elec       q    Type
                         _______ _______ _______ _____ _____    ______ ____

>  <TORSDO>
F 17

$$$$
=
 OpenBabel11062417043D

 47 51  0  0  1  0  0  0  0  0999 V2000
  184.3200  175.5820  137.6570 C   0  0  0  0  0  0  0  0  0  0  0  0
  186.5470  176.3050  136.5820 C   0  0  0  0  0  2  0  0  0  0  0  0
  186.3120  177.6370  137.2630 C   0  0  0  0  0  0  0  0  0  0  0  0
  185.8590  174.0300  136.7360 O   0  0  0  0  0  0  0  0  0  0  0  0
  185.5870  175.2320  136.9990 C   0  0  0  0  0  0  0  0  0  0  0  0
  184.1140  176.8440  138.0410 C   0  0  0  0  0  3  0  0  0  0  0  0
  185.1050  177.9220  137.8270 C   0  0  0  0  0  0  0  0  0  0  0  0
  181.8260  174.9690  137.6100 C   0  0  1  0  0  3  0  0  0  0  0  0
  183.6350  173.1980  137.2120 C   0  0  0  0  0  2  0  0  0  0  0  0
  181.5290  175.0810  136.1600 N   0  0  0  0  0  0  0  0  0  0  0  0
  183.2770  174.5180  137.9060 C   0  0  1  0  0  3  0  0  0  0  0  0
  182.6710  172.8490  136.0820 C   0  0  0  0  0  2  0  0  0  0  0  0
  182.2730  174.1140  135.3220 C   0  0  0  0  0  2  0  0  0  0  0  0
  179.8710  174.5070  134.6040 F   0  0  0  0  0  0  0  0  0  0  0  0
  180.0860  174.8850  135.9190 C   0  0  0  0  0  0  0  0  0  0  0  0
  179.5720  173.9050  136.7570 F   0  0  0  0  0  0  0  0  0  0  0  0
  179.3980  176.0650  136.1350 F   0  0  0  0  0  0  0  0  0  0  0  0
  181.4850  176.2620  138.3480 C   0  0  0  0  0  2  0  0  0  0  0  0
  181.0150  175.9460  139.7750 C   0  0  1  0  0  3  0  0  0  0  0  0
  179.7700  176.5530  140.1790 N   0  0  0  0  0  0  0  0  0  0  0  0
  179.8110  175.1840  139.7290 N   0  0  0  0  0  2  0  0  0  0  0  0
  179.0850  177.3120  139.1310 C   0  0  0  0  0  1  0  0  0  0  0  0
  183.6030  179.2230  139.2870 C   0  0  0  0  0  2  0  0  0  0  0  0
  184.7690  179.2900  138.4030 C   0  0  1  0  0  3  0  0  0  0  0  0
  184.9250  179.4590  139.8800 N   0  0  0  0  0  0  0  0  0  0  0  0
  185.3040  178.2450  140.6100 C   0  0  0  0  0  2  0  0  0  0  0  0
  184.9950  178.3630  142.0780 C   0  0  0  0  0  0  0  0  0  0  0  0
  183.6980  178.8770  142.5850 C   0  0  2  0  0  3  0  0  0  0  0  0
  185.2970  178.4370  144.3900 C   0  0  0  0  0  3  0  0  0  0  0  0
  183.9010  178.9820  144.0940 C   0  0  0  0  0  3  0  0  0  0  0  0
  185.8560  178.1290  143.0520 C   0  0  0  0  0  0  0  0  0  0  0  0
  182.5910  177.8790  142.2970 C   0  0  0  0  0  1  0  0  0  0  0  0
  187.1560  177.6640  142.8290 O   0  0  0  0  0  0  0  0  0  0  0  0
  187.6000  176.4690  143.3590 N   0  0  0  0  0  2  0  0  0  0  0  0
  189.0520  176.5230  143.4650 C   0  0  2  0  0  3  0  0  0  0  0  0
  189.4840  177.9160  143.9070 C   0  0  0  0  0  2  0  0  0  0  0  0
  189.9630  177.9070  145.6630 S   0  0  0  0  0  0  0  0  0  0  0  0
  191.6690  175.7800  145.6560 C   0  0  0  0  0  1  0  0  0  0  0  0
  191.6180  177.2510  145.2960 C   0  0  0  0  0  2  0  0  0  0  0  0
  189.6990  176.1820  142.1270 C   0  0  0  0  0  2  0  0  0  0  0  0
  190.9630  176.8280  142.0080 O   0  0  0  0  0  0  0  0  0  0  0  0
  190.9260  176.5240  139.5370 C   0  0  0  0  0  1  0  0  0  0  0  0
  192.5180  177.8770  140.6590 O   0  0  0  0  0  0  0  0  0  0  0  0
  191.5190  177.1160  140.7610 C   0  0  0  0  0  0  0  0  0  0  0  0
  187.4390  178.6040  137.2300 C   0  0  0  0  0  0  0  0  0  0  0  0
  188.6190  178.4260  138.1250 C   0  0  0  0  0  1  0  0  0  0  0  0
  187.4150  179.6030  136.4640 O   0  0  0  0  0  0  0  0  0  0  0  0
  1  6  2  0  0  0  0
  2  5  1  0  0  0  0
  2  3  1  0  0  0  0
  3  7  2  0  0  0  0
  4  5  2  0  0  0  0
  5  1  1  0  0  0  0
  7  6  1  0  0  0  0
  8 11  1  0  0  0  0
  8 18  1  1  0  0  0
  9 11  1  0  0  0  0
 10  8  1  0  0  0  0
 11  1  1  6  0  0  0
 12  9  1  0  0  0  0
 13 12  1  0  0  0  0
 13 10  1  0  0  0  0
 14 15  1  0  0  0  0
 15 17  1  0  0  0  0
 15 10  1  0  0  0  0
 15 16  1  0  0  0  0
 19 18  1  6  0  0  0
 19 20  1  0  0  0  0
 21 19  1  0  0  0  0
 21 20  1  0  0  0  0
 22 20  1  0  0  0  0
 23 25  1  0  0  0  0
 24  7  1  1  0  0  0
 24 23  1  0  0  0  0
 24 25  1  0  0  0  0
 25 26  1  0  0  0  0
 26 27  1  0  0  0  0
 27 28  1  0  0  0  0
 27 31  2  0  0  0  0
 28 32  1  1  0  0  0
 28 30  1  0  0  0  0
 30 29  2  0  0  0  0
 31 29  1  0  0  0  0
 33 31  1  0  0  0  0
 33 34  1  0  0  0  0
 34 35  1  0  0  0  0
 35 40  1  6  0  0  0
 35 36  1  0  0  0  0
 36 37  1  0  0  0  0
 39 38  1  0  0  0  0
 39 37  1  0  0  0  0
 41 40  1  0  0  0  0
 42 44  1  0  0  0  0
 43 44  2  0  0  0  0
 44 41  1  0  0  0  0
 45  3  1  0  0  0  0
 45 46  1  0  0  0  0
 47 45  2  0  0  0  0
M  END
>  <MODEL>
7

>  <REMARK>
 VINA RESULT:      -5.1      4.114      8.671
  Name = 
  17 active torsions:
  status: ('A' for Active; 'I' for Inactive)
    1  A    between atoms: C_2  and  C_26
    2  A    between atoms: C_4  and  C_21
    3  A    between atoms: C_6  and  C_26
    4  A    between atoms: O_8  and  C_42
    5  A    between atoms: O_8  and  N_47
    6  A    between atoms: S_9  and  C_16
    7  A    between atoms: S_9  and  C_46
    8  A    between atoms: C_11  and  C_12
    9  A    between atoms: C_11  and  N_25
   10  A    between atoms: C_13  and  C_45
   11  A    between atoms: C_14  and  C_16
   12  A    between atoms: C_14  and  C_35
   13  A    between atoms: C_14  and  N_47
   14  A    between atoms: N_20  and  C_32
   15  A    between atoms: C_24  and  O_41
   16  A    between atoms: C_28  and  C_30
   17  A    between atoms: C_35  and  O_41
                            x       y       z     vdW  Elec       q    Type
                         _______ _______ _______ _____ _____    ______ ____

>  <TORSDO>
F 17

$$$$
=
 OpenBabel11062417043D

 47 51  0  0  1  0  0  0  0  0999 V2000
  181.9950  176.7880  136.2040 C   0  0  0  0  0  0  0  0  0  0  0  0
  181.1150  179.1960  136.4710 C   0  0  0  0  0  2  0  0  0  0  0  0
  180.6600  178.7560  137.8460 C   0  0  0  0  0  0  0  0  0  0  0  0
  182.6490  178.5560  134.7650 O   0  0  0  0  0  0  0  0  0  0  0  0
  181.9770  178.1920  135.7660 C   0  0  0  0  0  0  0  0  0  0  0  0
  181.3790  176.4540  137.3410 C   0  0  0  0  0  3  0  0  0  0  0  0
  180.6640  177.4360  138.1870 C   0  0  0  0  0  0  0  0  0  0  0  0
  183.7520  174.9160  136.1750 C   0  0  1  0  0  3  0  0  0  0  0  0
  181.7360  174.8680  134.5940 C   0  0  0  0  0  2  0  0  0  0  0  0
  183.1330  173.9260  137.0930 N   0  0  0  0  0  0  0  0  0  0  0  0
  182.7150  175.7470  135.3810 C   0  0  1  0  0  3  0  0  0  0  0  0
  181.7230  173.4210  135.0810 C   0  0  0  0  0  2  0  0  0  0  0  0
  181.8480  173.3800  136.6040 C   0  0  0  0  0  2  0  0  0  0  0  0
  183.3400  171.6480  137.6110 F   0  0  0  0  0  0  0  0  0  0  0  0
  184.0560  172.7970  137.3210 C   0  0  0  0  0  0  0  0  0  0  0  0
  184.8420  172.5640  136.2000 F   0  0  0  0  0  0  0  0  0  0  0  0
  184.8810  173.0610  138.3990 F   0  0  0  0  0  0  0  0  0  0  0  0
  184.7380  175.8180  136.9140 C   0  0  0  0  0  2  0  0  0  0  0  0
  186.1430  175.6660  136.3130 C   0  0  1  0  0  3  0  0  0  0  0  0
  186.9560  176.8580  136.2980 N   0  0  0  0  0  0  0  0  0  0  0  0
  187.1260  175.8630  137.3270 N   0  0  0  0  0  2  0  0  0  0  0  0
  186.3520  178.0240  136.9470 C   0  0  0  0  0  1  0  0  0  0  0  0
  180.9440  175.8860  140.0830 C   0  0  0  0  0  2  0  0  0  0  0  0
  180.0920  176.9250  139.5010 C   0  0  1  0  0  3  0  0  0  0  0  0
  180.8860  177.1990  140.7370 N   0  0  0  0  0  0  0  0  0  0  0  0
  182.1770  177.8590  140.5150 C   0  0  0  0  0  2  0  0  0  0  0  0
  182.6960  178.4960  141.7760 C   0  0  0  0  0  0  0  0  0  0  0  0
  181.8000  179.0450  142.8250 C   0  0  2  0  0  3  0  0  0  0  0  0
  184.1660  179.4680  143.3050 C   0  0  0  0  0  3  0  0  0  0  0  0
  182.7470  179.7310  143.8050 C   0  0  0  0  0  3  0  0  0  0  0  0
  183.9700  178.7280  142.0350 C   0  0  0  0  0  0  0  0  0  0  0  0
  181.0750  177.9160  143.5360 C   0  0  0  0  0  1  0  0  0  0  0  0
  185.0090  178.3330  141.1860 O   0  0  0  0  0  0  0  0  0  0  0  0
  186.2270  178.9820  141.1780 N   0  0  0  0  0  2  0  0  0  0  0  0
  187.2820  177.9860  141.3010 C   0  0  2  0  0  3  0  0  0  0  0  0
  187.3700  177.5070  142.7460 C   0  0  0  0  0  2  0  0  0  0  0  0
  189.0950  177.5440  143.3250 S   0  0  0  0  0  0  0  0  0  0  0  0
  189.7450  177.4160  145.9710 C   0  0  0  0  0  1  0  0  0  0  0  0
  188.5970  177.7930  145.0560 C   0  0  0  0  0  2  0  0  0  0  0  0
  188.6230  178.5690  140.8680 C   0  0  0  0  0  2  0  0  0  0  0  0
  188.8190  178.3790  139.4710 O   0  0  0  0  0  0  0  0  0  0  0  0
  190.7790  176.9130  139.9330 C   0  0  0  0  0  1  0  0  0  0  0  0
  190.0500  177.4620  137.7430 O   0  0  0  0  0  0  0  0  0  0  0  0
  189.8680  177.5970  138.9830 C   0  0  0  0  0  0  0  0  0  0  0  0
  180.1730  179.8250  138.7550 C   0  0  0  0  0  0  0  0  0  0  0  0
  180.9860  181.0540  138.9840 C   0  0  0  0  0  1  0  0  0  0  0  0
  179.0780  179.7100  139.3660 O   0  0  0  0  0  0  0  0  0  0  0  0
  1  6  2  0  0  0  0
  2  3  1  0  0  0  0
  3  7  2  0  0  0  0
  3 45  1  0  0  0  0
  4  5  2  0  0  0  0
  5  1  1  0  0  0  0
  5  2  1  0  0  0  0
  6  7  1  0  0  0  0
  8 18  1  1  0  0  0
  8 10  1  0  0  0  0
  9 12  1  0  0  0  0
  9 11  1  0  0  0  0
 10 15  1  0  0  0  0
 11  8  1  0  0  0  0
 11  1  1  1  0  0  0
 12 13  1  0  0  0  0
 13 10  1  0  0  0  0
 15 14  1  0  0  0  0
 15 17  1  0  0  0  0
 16 15  1  0  0  0  0
 19 18  1  1  0  0  0
 19 21  1  0  0  0  0
 20 19  1  0  0  0  0
 20 22  1  0  0  0  0
 20 21  1  0  0  0  0
 23 25  1  0  0  0  0
 24  7  1  6  0  0  0
 24 23  1  0  0  0  0
 24 25  1  0  0  0  0
 26 25  1  0  0  0  0
 26 27  1  0  0  0  0
 27 31  2  0  0  0  0
 27 28  1  0  0  0  0
 28 32  1  1  0  0  0
 28 30  1  0  0  0  0
 29 30  2  0  0  0  0
 31 29  1  0  0  0  0
 33 31  1  0  0  0  0
 34 33  1  0  0  0  0
 34 35  1  0  0  0  0
 35 40  1  1  0  0  0
 35 36  1  0  0  0  0
 36 37  1  0  0  0  0
 37 39  1  0  0  0  0
 39 38  1  0  0  0  0
 41 40  1  0  0  0  0
 43 44  2  0  0  0  0
 44 41  1  0  0  0  0
 44 42  1  0  0  0  0
 45 46  1  0  0  0  0
 45 47  2  0  0  0  0
M  END
>  <MODEL>
8

>  <REMARK>
 VINA RESULT:      -5.0      3.215      8.242
  Name = 
  17 active torsions:
  status: ('A' for Active; 'I' for Inactive)
    1  A    between atoms: C_2  and  C_26
    2  A    between atoms: C_4  and  C_21
    3  A    between atoms: C_6  and  C_26
    4  A    between atoms: O_8  and  C_42
    5  A    between atoms: O_8  and  N_47
    6  A    between atoms: S_9  and  C_16
    7  A    between atoms: S_9  and  C_46
    8  A    between atoms: C_11  and  C_12
    9  A    between atoms: C_11  and  N_25
   10  A    between atoms: C_13  and  C_45
   11  A    between atoms: C_14  and  C_16
   12  A    between atoms: C_14  and  C_35
   13  A    between atoms: C_14  and  N_47
   14  A    between atoms: N_20  and  C_32
   15  A    between atoms: C_24  and  O_41
   16  A    between atoms: C_28  and  C_30
   17  A    between atoms: C_35  and  O_41
                            x       y       z     vdW  Elec       q    Type
                         _______ _______ _______ _____ _____    ______ ____

>  <TORSDO>
F 17

$$$$
=
 OpenBabel11062417043D

 47 51  0  0  1  0  0  0  0  0999 V2000
  182.5970  176.1660  137.3540 C   0  0  0  0  0  0  0  0  0  0  0  0
  181.5270  176.3290  139.6930 C   0  0  0  0  0  2  0  0  0  0  0  0
  182.1840  177.6920  139.7720 C   0  0  0  0  0  0  0  0  0  0  0  0
  180.8620  174.7160  138.0720 O   0  0  0  0  0  0  0  0  0  0  0  0
  181.6130  175.6920  138.3380 C   0  0  0  0  0  0  0  0  0  0  0  0
  183.2880  177.2800  137.6090 C   0  0  0  0  0  3  0  0  0  0  0  0
  183.1160  178.0660  138.8520 C   0  0  0  0  0  0  0  0  0  0  0  0
  183.9060  174.3180  136.1410 C   0  0  1  0  0  3  0  0  0  0  0  0
  181.4840  174.8650  135.5050 C   0  0  0  0  0  2  0  0  0  0  0  0
  183.4970  173.1200  136.9160 N   0  0  0  0  0  0  0  0  0  0  0  0
  182.8060  175.4050  136.0660 C   0  0  1  0  0  3  0  0  0  0  0  0
  181.4090  173.3410  135.5420 C   0  0  0  0  0  2  0  0  0  0  0  0
  182.0510  172.8160  136.8270 C   0  0  0  0  0  2  0  0  0  0  0  0
  183.5990  170.7770  136.8530 F   0  0  0  0  0  0  0  0  0  0  0  0
  184.2460  171.9350  136.4540 C   0  0  0  0  0  0  0  0  0  0  0  0
  184.3610  171.9290  135.0700 F   0  0  0  0  0  0  0  0  0  0  0  0
  185.5130  171.9210  137.0090 F   0  0  0  0  0  0  0  0  0  0  0  0
  185.2200  174.8950  136.6640 C   0  0  0  0  0  2  0  0  0  0  0  0
  186.0500  175.4540  135.4980 C   0  0  1  0  0  3  0  0  0  0  0  0
  187.4230  175.0170  135.4340 N   0  0  0  0  0  0  0  0  0  0  0  0
  186.4130  174.3970  134.6140 N   0  0  0  0  0  2  0  0  0  0  0  0
  187.8030  174.0250  136.4420 C   0  0  0  0  0  1  0  0  0  0  0  0
  184.7770  179.3570  140.1360 C   0  0  0  0  0  2  0  0  0  0  0  0
  183.9050  179.3630  138.9600 C   0  0  1  0  0  3  0  0  0  0  0  0
  185.3880  179.2670  138.8040 N   0  0  0  0  0  0  0  0  0  0  0  0
  185.9130  177.9050  138.6510 C   0  0  0  0  0  2  0  0  0  0  0  0
  187.4170  177.8910  138.6330 C   0  0  0  0  0  0  0  0  0  0  0  0
  188.2030  177.7840  137.3780 C   0  0  2  0  0  3  0  0  0  0  0  0
  189.6240  177.7430  139.3740 C   0  0  0  0  0  3  0  0  0  0  0  0
  189.6460  177.6320  137.8510 C   0  0  0  0  0  3  0  0  0  0  0  0
  188.1850  177.8660  139.7070 C   0  0  0  0  0  0  0  0  0  0  0  0
  188.0730  179.0610  136.5690 C   0  0  0  0  0  1  0  0  0  0  0  0
  187.6800  177.9270  141.0110 O   0  0  0  0  0  0  0  0  0  0  0  0
  188.3890  178.5180  142.0370 N   0  0  0  0  0  2  0  0  0  0  0  0
  188.6930  177.5020  143.0340 C   0  0  2  0  0  3  0  0  0  0  0  0
  187.3970  176.9620  143.6290 C   0  0  0  0  0  2  0  0  0  0  0  0
  186.2120  178.3140  143.9090 S   0  0  0  0  0  0  0  0  0  0  0  0
  185.0460  178.3070  146.3740 C   0  0  0  0  0  1  0  0  0  0  0  0
  186.4080  178.2250  145.7140 C   0  0  0  0  0  2  0  0  0  0  0  0
  189.5660  178.0820  144.1420 C   0  0  0  0  0  2  0  0  0  0  0  0
  190.3470  177.0560  144.7470 O   0  0  0  0  0  0  0  0  0  0  0  0
  191.6910  176.3820  146.7320 C   0  0  0  0  0  1  0  0  0  0  0  0
  189.5240  177.3340  146.8890 O   0  0  0  0  0  0  0  0  0  0  0  0
  190.4580  176.9500  146.1340 C   0  0  0  0  0  0  0  0  0  0  0  0
  181.7900  178.5490  140.9200 C   0  0  0  0  0  0  0  0  0  0  0  0
  182.4090  178.3500  142.2620 C   0  0  0  0  0  1  0  0  0  0  0  0
  180.9150  179.4450  140.7920 O   0  0  0  0  0  0  0  0  0  0  0  0
  1  6  2  0  0  0  0
  1  5  1  0  0  0  0
  2  3  1  0  0  0  0
  3 45  1  0  0  0  0
  4  5  2  0  0  0  0
  5  2  1  0  0  0  0
  6  7  1  0  0  0  0
  7  3  2  0  0  0  0
  8 18  1  1  0  0  0
  8 10  1  0  0  0  0
  9 12  1  0  0  0  0
  9 11  1  0  0  0  0
 11  8  1  0  0  0  0
 11  1  1  1  0  0  0
 12 13  1  0  0  0  0
 13 10  1  0  0  0  0
 15 14  1  0  0  0  0
 15 10  1  0  0  0  0
 15 17  1  0  0  0  0
 16 15  1  0  0  0  0
 19 18  1  1  0  0  0
 20 19  1  0  0  0  0
 20 22  1  0  0  0  0
 21 20  1  0  0  0  0
 21 19  1  0  0  0  0
 24  7  1  1  0  0  0
 24 23  1  0  0  0  0
 25 24  1  0  0  0  0
 25 23  1  0  0  0  0
 26 25  1  0  0  0  0
 27 26  1  0  0  0  0
 27 31  2  0  0  0  0
 28 32  1  6  0  0  0
 28 30  1  0  0  0  0
 28 27  1  0  0  0  0
 29 31  1  0  0  0  0
 30 29  2  0  0  0  0
 31 33  1  0  0  0  0
 33 34  1  0  0  0  0
 34 35  1  0  0  0  0
 35 36  1  1  0  0  0
 35 40  1  0  0  0  0
 36 37  1  0  0  0  0
 37 39  1  0  0  0  0
 39 38  1  0  0  0  0
 40 41  1  0  0  0  0
 41 44  1  0  0  0  0
 44 42  1  0  0  0  0
 44 43  2  0  0  0  0
 45 46  1  0  0  0  0
 47 45  2  0  0  0  0
M  END
>  <MODEL>
9

>  <REMARK>
 VINA RESULT:      -5.0      2.982      8.133
  Name = 
  17 active torsions:
  status: ('A' for Active; 'I' for Inactive)
    1  A    between atoms: C_2  and  C_26
    2  A    between atoms: C_4  and  C_21
    3  A    between atoms: C_6  and  C_26
    4  A    between atoms: O_8  and  C_42
    5  A    between atoms: O_8  and  N_47
    6  A    between atoms: S_9  and  C_16
    7  A    between atoms: S_9  and  C_46
    8  A    between atoms: C_11  and  C_12
    9  A    between atoms: C_11  and  N_25
   10  A    between atoms: C_13  and  C_45
   11  A    between atoms: C_14  and  C_16
   12  A    between atoms: C_14  and  C_35
   13  A    between atoms: C_14  and  N_47
   14  A    between atoms: N_20  and  C_32
   15  A    between atoms: C_24  and  O_41
   16  A    between atoms: C_28  and  C_30
   17  A    between atoms: C_35  and  O_41
                            x       y       z     vdW  Elec       q    Type
                         _______ _______ _______ _____ _____    ______ ____

>  <TORSDO>
F 17

$$$$
