=
 OpenBabel11062412423D

 32 35  0  0  1  0  0  0  0  0999 V2000
  190.1730  177.0500  146.9690 C   0  0  0  0  0  3  0  0  0  0  0  0
  188.8630  176.8980  146.4970 C   0  0  0  0  0  3  0  0  0  0  0  0
  188.5960  177.3540  145.2100 C   0  0  0  0  0  0  0  0  0  0  0  0
  191.1290  177.6380  146.1860 N   0  0  0  0  0  0  0  0  0  0  0  0
  186.2810  176.8490  144.8480 O   0  0  0  0  0  0  0  0  0  0  0  0
  187.3590  177.3820  144.4780 C   0  0  0  0  0  0  0  0  0  0  0  0
  187.5610  178.0250  143.2200 N   0  0  0  0  0  0  0  0  0  0  0  0
  188.9950  178.3150  143.0680 C   0  0  1  0  0  3  0  0  0  0  0  0
  191.9320  178.7520  144.1390 C   0  0  0  0  0  1  0  0  0  0  0  0
  190.8600  178.0850  144.9250 C   0  0  0  0  0  0  0  0  0  0  0  0
  189.5660  177.9240  144.4160 C   0  0  0  0  0  0  0  0  0  0  0  0
  190.2440  175.1300  142.7560 O   0  0  0  0  0  0  0  0  0  0  0  0
  190.9540  177.5510  141.8690 O   0  0  0  0  0  0  0  0  0  0  0  0
  190.2370  176.3150  142.3340 C   0  0  0  0  0  0  0  0  0  0  0  0
  189.5900  177.4640  141.9350 C   0  0  1  0  0  0  0  0  0  0  0  0
  188.8830  177.4340  140.5670 C   0  0  0  0  0  2  0  0  0  0  0  0
  189.7520  177.8510  139.3790 C   0  0  2  0  0  3  0  0  0  0  0  0
  189.0740  178.9070  138.6350 N   0  0  0  0  0  2  0  0  0  0  0  0
  188.5660  178.2740  137.4370 C   0  0  0  0  0  2  0  0  0  0  0  0
  191.4250  176.6200  138.2960 C   0  0  0  0  0  1  0  0  0  0  0  0
  189.4050  177.0460  137.2200 C   0  0  0  0  0  2  0  0  0  0  0  0
  189.9890  176.7060  138.5030 N   0  0  0  0  0  0  0  0  0  0  0  0
  186.5890  178.2480  142.1860 C   0  0  0  0  0  3  0  0  0  0  0  0
  185.5400  179.0690  142.2870 C   0  0  0  0  0  0  0  0  0  0  0  0
  184.7230  179.2250  141.1180 N   0  0  0  0  0  2  0  0  0  0  0  0
  182.4380  179.0130  141.5680 F   0  0  0  0  0  0  0  0  0  0  0  0
  183.4880  178.5090  140.8220 C   0  0  0  0  0  3  0  0  0  0  0  0
  183.6430  177.1560  141.0540 F   0  0  0  0  0  0  0  0  0  0  0  0
  185.3640  179.9470  143.4960 C   0  0  0  0  0  2  0  0  0  0  0  0
  184.2560  179.4630  144.4200 C   0  0  0  0  0  3  0  0  0  0  0  0
  184.7490  179.3390  145.7050 F   0  0  0  0  0  0  0  0  0  0  0  0
  183.7560  178.2440  143.9990 F   0  0  0  0  0  0  0  0  0  0  0  0
  2  1  1  0  0  0  0
  3  2  2  0  0  0  0
  4  1  2  0  0  0  0
  6  5  2  0  0  0  0
  6  3  1  0  0  0  0
  7  6  1  0  0  0  0
  8  7  1  0  0  0  0
  8 11  1  1  0  0  0
  9 10  1  0  0  0  0
 10  4  1  0  0  0  0
 11 10  2  0  0  0  0
 11  3  1  0  0  0  0
 13 15  1  0  0  0  0
 13 14  1  0  0  0  0
 14 12  2  0  0  0  0
 15 16  1  6  0  0  0
 15 14  1  0  0  0  0
 15  8  1  0  0  0  0
 17 16  1  1  0  0  0
 18 17  1  0  0  0  0
 19 18  1  0  0  0  0
 20 22  1  0  0  0  0
 21 19  1  0  0  0  0
 21 22  1  0  0  0  0
 22 17  1  0  0  0  0
 23 24  2  0  0  0  0
 23  7  1  0  0  0  0
 24 29  1  0  0  0  0
 25 24  1  0  0  0  0
 27 28  1  0  0  0  0
 27 25  1  0  0  0  0
 27 26  1  0  0  0  0
 29 30  1  0  0  0  0
 30 31  1  0  0  0  0
 32 30  1  0  0  0  0
M  END
>  <MODEL>
1

>  <REMARK>
 VINA RESULT:      -8.1      0.000      0.000
  Name = 
  8 active torsions:
  status: ('A' for Active; 'I' for Inactive)
    1  A    between atoms: C_3  and  C_5
    2  A    between atoms: C_5  and  C_25
    3  A    between atoms: C_7  and  C_31
    4  A    between atoms: C_8  and  N_19
    5  A    between atoms: C_11  and  N_18
    6  A    between atoms: N_18  and  C_29
    7  A    between atoms: C_21  and  C_25
    8  A    between atoms: C_29  and  C_31
                            x       y       z     vdW  Elec       q    Type
                         _______ _______ _______ _____ _____    ______ ____

>  <TORSDO>
F 8

$$$$
=
 OpenBabel11062412423D

 32 35  0  0  1  0  0  0  0  0999 V2000
  180.1580  178.5290  143.5260 C   0  0  0  0  0  3  0  0  0  0  0  0
  181.4300  179.0210  143.8470 C   0  0  0  0  0  3  0  0  0  0  0  0
  182.4190  178.8990  142.8770 C   0  0  0  0  0  0  0  0  0  0  0  0
  179.9260  177.9460  142.3100 N   0  0  0  0  0  0  0  0  0  0  0  0
  184.3660  179.8960  143.8590 O   0  0  0  0  0  0  0  0  0  0  0  0
  183.8110  179.2580  142.9280 C   0  0  0  0  0  0  0  0  0  0  0  0
  184.4520  178.8620  141.7150 N   0  0  0  0  0  0  0  0  0  0  0  0
  183.4290  178.3440  140.7930 C   0  0  1  0  0  3  0  0  0  0  0  0
  180.5980  177.1480  140.0760 C   0  0  0  0  0  1  0  0  0  0  0  0
  180.9020  177.8290  141.3630 C   0  0  0  0  0  0  0  0  0  0  0  0
  182.1770  178.3330  141.6460 C   0  0  0  0  0  0  0  0  0  0  0  0
  183.4150  177.9980  137.3750 O   0  0  0  0  0  0  0  0  0  0  0  0
  184.4860  179.7280  139.1110 O   0  0  0  0  0  0  0  0  0  0  0  0
  183.6320  178.7400  138.3670 C   0  0  0  0  0  0  0  0  0  0  0  0
  183.2820  179.2830  139.5850 C   0  0  1  0  0  0  0  0  0  0  0  0
  182.1640  180.3410  139.5880 C   0  0  0  0  0  2  0  0  0  0  0  0
  181.5790  180.6710  138.2140 C   0  0  2  0  0  3  0  0  0  0  0  0
  181.5160  182.1190  138.0520 N   0  0  0  0  0  2  0  0  0  0  0  0
  180.1200  182.4670  138.2080 C   0  0  0  0  0  2  0  0  0  0  0  0
  180.2170  179.3360  136.8530 C   0  0  0  0  0  1  0  0  0  0  0  0
  179.3370  181.2220  137.8970 C   0  0  0  0  0  2  0  0  0  0  0  0
  180.2390  180.1020  138.0880 N   0  0  0  0  0  0  0  0  0  0  0  0
  185.8300  179.0450  141.3540 C   0  0  0  0  0  3  0  0  0  0  0  0
  186.8660  178.4770  141.9780 C   0  0  0  0  0  0  0  0  0  0  0  0
  188.1670  178.7120  141.4220 N   0  0  0  0  0  2  0  0  0  0  0  0
  189.8760  177.3480  140.5940 F   0  0  0  0  0  0  0  0  0  0  0  0
  188.7400  178.0580  140.2510 C   0  0  0  0  0  3  0  0  0  0  0  0
  189.0240  178.9850  139.2670 F   0  0  0  0  0  0  0  0  0  0  0  0
  186.6450  177.4650  143.0700 C   0  0  0  0  0  2  0  0  0  0  0  0
  187.9460  176.9660  143.6820 C   0  0  0  0  0  3  0  0  0  0  0  0
  188.2450  175.7160  143.1740 F   0  0  0  0  0  0  0  0  0  0  0  0
  187.8520  176.8930  145.0600 F   0  0  0  0  0  0  0  0  0  0  0  0
  1  2  1  0  0  0  0
  3  6  1  0  0  0  0
  3  2  2  0  0  0  0
  4  1  2  0  0  0  0
  6  5  2  0  0  0  0
  7  6  1  0  0  0  0
  8 11  1  1  0  0  0
  8  7  1  0  0  0  0
  9 10  1  0  0  0  0
 10 11  2  0  0  0  0
 10  4  1  0  0  0  0
 11  3  1  0  0  0  0
 12 14  2  0  0  0  0
 13 15  1  0  0  0  0
 14 13  1  0  0  0  0
 14 15  1  0  0  0  0
 15 16  1  1  0  0  0
 15  8  1  0  0  0  0
 17 16  1  1  0  0  0
 18 19  1  0  0  0  0
 18 17  1  0  0  0  0
 20 22  1  0  0  0  0
 21 22  1  0  0  0  0
 21 19  1  0  0  0  0
 22 17  1  0  0  0  0
 23  7  1  0  0  0  0
 23 24  2  0  0  0  0
 24 29  1  0  0  0  0
 25 24  1  0  0  0  0
 27 26  1  0  0  0  0
 27 25  1  0  0  0  0
 28 27  1  0  0  0  0
 29 30  1  0  0  0  0
 30 32  1  0  0  0  0
 31 30  1  0  0  0  0
M  END
>  <MODEL>
2

>  <REMARK>
 VINA RESULT:      -7.1      4.009      7.687
  Name = 
  8 active torsions:
  status: ('A' for Active; 'I' for Inactive)
    1  A    between atoms: C_3  and  C_5
    2  A    between atoms: C_5  and  C_25
    3  A    between atoms: C_7  and  C_31
    4  A    between atoms: C_8  and  N_19
    5  A    between atoms: C_11  and  N_18
    6  A    between atoms: N_18  and  C_29
    7  A    between atoms: C_21  and  C_25
    8  A    between atoms: C_29  and  C_31
                            x       y       z     vdW  Elec       q    Type
                         _______ _______ _______ _____ _____    ______ ____

>  <TORSDO>
F 8

$$$$
=
 OpenBabel11062412423D

 32 35  0  0  1  0  0  0  0  0999 V2000
  183.8010  178.1080  138.0630 C   0  0  0  0  0  3  0  0  0  0  0  0
  184.6200  178.6210  139.0780 C   0  0  0  0  0  3  0  0  0  0  0  0
  185.9400  178.1850  139.1080 C   0  0  0  0  0  0  0  0  0  0  0  0
  184.2980  177.2080  137.1600 N   0  0  0  0  0  0  0  0  0  0  0  0
  186.9280  179.3450  140.9590 O   0  0  0  0  0  0  0  0  0  0  0  0
  186.9920  178.4870  140.0420 C   0  0  0  0  0  0  0  0  0  0  0  0
  188.1570  177.7330  139.7100 N   0  0  0  0  0  0  0  0  0  0  0  0
  187.9070  177.0120  138.4530 C   0  0  1  0  0  3  0  0  0  0  0  0
  186.0630  175.7730  136.2110 C   0  0  0  0  0  1  0  0  0  0  0  0
  185.5950  176.7840  137.1960 C   0  0  0  0  0  0  0  0  0  0  0  0
  186.4430  177.2970  138.1840 C   0  0  0  0  0  0  0  0  0  0  0  0
  189.2110  180.0770  137.6170 O   0  0  0  0  0  0  0  0  0  0  0  0
  188.0900  178.0530  136.2760 O   0  0  0  0  0  0  0  0  0  0  0  0
  188.8390  178.9390  137.2310 C   0  0  0  0  0  0  0  0  0  0  0  0
  188.8050  177.5660  137.3370 C   0  0  1  0  0  0  0  0  0  0  0  0
  190.0820  176.7990  136.9490 C   0  0  0  0  0  2  0  0  0  0  0  0
  190.2110  175.4020  137.5590 C   0  0  2  0  0  3  0  0  0  0  0  0
  191.4370  175.3310  138.3450 N   0  0  0  0  0  2  0  0  0  0  0  0
  192.3650  174.5550  137.5500 C   0  0  0  0  0  2  0  0  0  0  0  0
  189.2350  173.4010  136.8300 C   0  0  0  0  0  1  0  0  0  0  0  0
  191.5290  173.7300  136.6120 C   0  0  0  0  0  2  0  0  0  0  0  0
  190.2440  174.3930  136.5020 N   0  0  0  0  0  0  0  0  0  0  0  0
  189.4290  177.7490  140.3790 C   0  0  0  0  0  3  0  0  0  0  0  0
  189.6580  177.2520  141.5970 C   0  0  0  0  0  0  0  0  0  0  0  0
  191.0130  177.2840  142.0680 N   0  0  0  0  0  2  0  0  0  0  0  0
  191.6670  177.2540  144.3130 F   0  0  0  0  0  0  0  0  0  0  0  0
  191.5190  178.0570  143.1970 C   0  0  0  0  0  3  0  0  0  0  0  0
  190.6830  179.1220  143.4700 F   0  0  0  0  0  0  0  0  0  0  0  0
  188.5850  176.4970  142.3350 C   0  0  0  0  0  2  0  0  0  0  0  0
  188.0080  177.2840  143.5030 C   0  0  0  0  0  3  0  0  0  0  0  0
  188.4710  176.7510  144.6910 F   0  0  0  0  0  0  0  0  0  0  0  0
  186.6250  177.2510  143.4900 F   0  0  0  0  0  0  0  0  0  0  0  0
  1  2  1  0  0  0  0
  2  3  2  0  0  0  0
  3  6  1  0  0  0  0
  4 10  1  0  0  0  0
  4  1  2  0  0  0  0
  6  5  2  0  0  0  0
  7  6  1  0  0  0  0
  7 23  1  0  0  0  0
  8 11  1  6  0  0  0
  8  7  1  0  0  0  0
  9 10  1  0  0  0  0
 10 11  2  0  0  0  0
 11  3  1  0  0  0  0
 13 14  1  0  0  0  0
 13 15  1  0  0  0  0
 14 15  1  0  0  0  0
 14 12  2  0  0  0  0
 15 16  1  6  0  0  0
 15  8  1  0  0  0  0
 17 16  1  6  0  0  0
 17 18  1  0  0  0  0
 19 18  1  0  0  0  0
 21 19  1  0  0  0  0
 22 21  1  0  0  0  0
 22 20  1  0  0  0  0
 22 17  1  0  0  0  0
 23 24  2  0  0  0  0
 24 25  1  0  0  0  0
 24 29  1  0  0  0  0
 25 27  1  0  0  0  0
 27 28  1  0  0  0  0
 27 26  1  0  0  0  0
 29 30  1  0  0  0  0
 30 31  1  0  0  0  0
 32 30  1  0  0  0  0
M  END
>  <MODEL>
3

>  <REMARK>
 VINA RESULT:      -6.9      3.376      6.454
  Name = 
  8 active torsions:
  status: ('A' for Active; 'I' for Inactive)
    1  A    between atoms: C_3  and  C_5
    2  A    between atoms: C_5  and  C_25
    3  A    between atoms: C_7  and  C_31
    4  A    between atoms: C_8  and  N_19
    5  A    between atoms: C_11  and  N_18
    6  A    between atoms: N_18  and  C_29
    7  A    between atoms: C_21  and  C_25
    8  A    between atoms: C_29  and  C_31
                            x       y       z     vdW  Elec       q    Type
                         _______ _______ _______ _____ _____    ______ ____

>  <TORSDO>
F 8

$$$$
=
 OpenBabel11062412423D

 32 35  0  0  1  0  0  0  0  0999 V2000
  180.6910  178.8700  142.1490 C   0  0  0  0  0  3  0  0  0  0  0  0
  181.8270  179.3040  142.8450 C   0  0  0  0  0  3  0  0  0  0  0  0
  183.0620  178.8800  142.3690 C   0  0  0  0  0  0  0  0  0  0  0  0
  180.8160  178.0530  141.0580 N   0  0  0  0  0  0  0  0  0  0  0  0
  184.6660  179.8910  143.8360 O   0  0  0  0  0  0  0  0  0  0  0  0
  184.3830  179.1130  142.8890 C   0  0  0  0  0  0  0  0  0  0  0  0
  185.3390  178.4000  142.1050 N   0  0  0  0  0  0  0  0  0  0  0  0
  184.6440  177.7840  140.9650 C   0  0  1  0  0  3  0  0  0  0  0  0
  182.1000  176.7190  139.4310 C   0  0  0  0  0  1  0  0  0  0  0  0
  182.0320  177.6400  140.5960 C   0  0  0  0  0  0  0  0  0  0  0  0
  183.1860  178.0770  141.2570 C   0  0  0  0  0  0  0  0  0  0  0  0
  183.6790  180.4890  139.0810 O   0  0  0  0  0  0  0  0  0  0  0  0
  184.4130  177.9700  138.5630 O   0  0  0  0  0  0  0  0  0  0  0  0
  184.2250  179.3560  139.1130 C   0  0  0  0  0  0  0  0  0  0  0  0
  185.0990  178.4370  139.6510 C   0  0  1  0  0  0  0  0  0  0  0  0
  186.6010  178.6710  139.4090 C   0  0  0  0  0  2  0  0  0  0  0  0
  187.2050  177.8690  138.2550 C   0  0  2  0  0  3  0  0  0  0  0  0
  188.3930  177.1660  138.7280 N   0  0  0  0  0  2  0  0  0  0  0  0
  189.5190  177.8980  138.1860 C   0  0  0  0  0  2  0  0  0  0  0  0
  186.9590  178.2200  135.9520 C   0  0  0  0  0  1  0  0  0  0  0  0
  189.0010  178.6410  136.9870 C   0  0  0  0  0  2  0  0  0  0  0  0
  187.5660  178.7620  137.1560 N   0  0  0  0  0  0  0  0  0  0  0  0
  186.7650  178.3720  142.2780 C   0  0  0  0  0  3  0  0  0  0  0  0
  187.3980  177.8480  143.3320 C   0  0  0  0  0  0  0  0  0  0  0  0
  188.8320  177.8390  143.2890 N   0  0  0  0  0  2  0  0  0  0  0  0
  189.1540  175.5330  143.0720 F   0  0  0  0  0  0  0  0  0  0  0  0
  189.6990  176.7010  143.5730 C   0  0  0  0  0  3  0  0  0  0  0  0
  189.9240  176.5890  144.9310 F   0  0  0  0  0  0  0  0  0  0  0  0
  186.6350  177.1080  144.3970 C   0  0  0  0  0  2  0  0  0  0  0  0
  186.6920  177.8020  145.7510 C   0  0  0  0  0  3  0  0  0  0  0  0
  187.6010  177.1520  146.5630 F   0  0  0  0  0  0  0  0  0  0  0  0
  185.4500  177.8060  146.3600 F   0  0  0  0  0  0  0  0  0  0  0  0
  1  2  1  0  0  0  0
  3  2  2  0  0  0  0
  3  6  1  0  0  0  0
  4  1  2  0  0  0  0
  6  5  2  0  0  0  0
  7 23  1  0  0  0  0
  7  6  1  0  0  0  0
  8 11  1  1  0  0  0
  8  7  1  0  0  0  0
  9 10  1  0  0  0  0
 10  4  1  0  0  0  0
 10 11  2  0  0  0  0
 11  3  1  0  0  0  0
 12 14  2  0  0  0  0
 13 14  1  0  0  0  0
 13 15  1  0  0  0  0
 14 15  1  0  0  0  0
 15 16  1  6  0  0  0
 15  8  1  0  0  0  0
 17 18  1  0  0  0  0
 17 16  1  1  0  0  0
 19 18  1  0  0  0  0
 20 22  1  0  0  0  0
 21 22  1  0  0  0  0
 21 19  1  0  0  0  0
 22 17  1  0  0  0  0
 23 24  2  0  0  0  0
 24 29  1  0  0  0  0
 25 24  1  0  0  0  0
 25 27  1  0  0  0  0
 26 27  1  0  0  0  0
 27 28  1  0  0  0  0
 29 30  1  0  0  0  0
 30 32  1  0  0  0  0
 30 31  1  0  0  0  0
M  END
>  <MODEL>
4

>  <REMARK>
 VINA RESULT:      -6.8      3.025      6.144
  Name = 
  8 active torsions:
  status: ('A' for Active; 'I' for Inactive)
    1  A    between atoms: C_3  and  C_5
    2  A    between atoms: C_5  and  C_25
    3  A    between atoms: C_7  and  C_31
    4  A    between atoms: C_8  and  N_19
    5  A    between atoms: C_11  and  N_18
    6  A    between atoms: N_18  and  C_29
    7  A    between atoms: C_21  and  C_25
    8  A    between atoms: C_29  and  C_31
                            x       y       z     vdW  Elec       q    Type
                         _______ _______ _______ _____ _____    ______ ____

>  <TORSDO>
F 8

$$$$
=
 OpenBabel11062412423D

 32 35  0  0  1  0  0  0  0  0999 V2000
  187.7610  176.6400  135.3510 C   0  0  0  0  0  3  0  0  0  0  0  0
  188.0780  177.5470  136.3710 C   0  0  0  0  0  3  0  0  0  0  0  0
  189.0070  177.1340  137.3200 C   0  0  0  0  0  0  0  0  0  0  0  0
  188.3440  175.4030  135.3170 N   0  0  0  0  0  0  0  0  0  0  0  0
  189.2400  179.0020  138.8040 O   0  0  0  0  0  0  0  0  0  0  0  0
  189.4910  177.8090  138.4940 C   0  0  0  0  0  0  0  0  0  0  0  0
  190.3770  176.9490  139.2090 N   0  0  0  0  0  0  0  0  0  0  0  0
  190.5810  175.7250  138.4200 C   0  0  1  0  0  3  0  0  0  0  0  0
  189.8210  173.6300  136.1840 C   0  0  0  0  0  1  0  0  0  0  0  0
  189.2540  175.0030  136.2520 C   0  0  0  0  0  0  0  0  0  0  0  0
  189.6080  175.8960  137.2700 C   0  0  0  0  0  0  0  0  0  0  0  0
  193.5570  177.2330  139.2370 O   0  0  0  0  0  0  0  0  0  0  0  0
  192.3120  176.5810  136.9620 O   0  0  0  0  0  0  0  0  0  0  0  0
  192.8610  176.6630  138.3580 C   0  0  0  0  0  0  0  0  0  0  0  0
  192.0330  175.6490  137.9250 C   0  0  1  0  0  0  0  0  0  0  0  0
  192.6760  174.2710  137.6870 C   0  0  0  0  0  2  0  0  0  0  0  0
  194.1920  174.2880  137.4810 C   0  0  2  0  0  3  0  0  0  0  0  0
  194.5020  173.7770  136.1510 N   0  0  0  0  0  2  0  0  0  0  0  0
  195.0200  172.4410  136.3580 C   0  0  0  0  0  2  0  0  0  0  0  0
  195.8820  174.2770  139.1040 C   0  0  0  0  0  1  0  0  0  0  0  0
  195.5260  172.4000  137.7730 C   0  0  0  0  0  2  0  0  0  0  0  0
  194.8470  173.4610  138.4920 N   0  0  0  0  0  0  0  0  0  0  0  0
  191.0860  177.2390  140.4250 C   0  0  0  0  0  3  0  0  0  0  0  0
  190.5590  177.1710  141.6510 C   0  0  0  0  0  0  0  0  0  0  0  0
  191.4450  177.4170  142.7530 N   0  0  0  0  0  2  0  0  0  0  0  0
  191.5920  175.2720  143.6710 F   0  0  0  0  0  0  0  0  0  0  0  0
  191.5550  176.6210  143.9700 C   0  0  0  0  0  3  0  0  0  0  0  0
  190.5090  176.9000  144.8290 F   0  0  0  0  0  0  0  0  0  0  0  0
  189.1650  176.6450  141.8620 C   0  0  0  0  0  2  0  0  0  0  0  0
  188.1760  177.7350  142.2500 C   0  0  0  0  0  3  0  0  0  0  0  0
  188.6320  178.9560  141.7920 F   0  0  0  0  0  0  0  0  0  0  0  0
  188.0110  177.7900  143.6230 F   0  0  0  0  0  0  0  0  0  0  0  0
  1  2  1  0  0  0  0
  2  3  2  0  0  0  0
  3  6  1  0  0  0  0
  4  1  2  0  0  0  0
  4 10  1  0  0  0  0
  6  5  2  0  0  0  0
  6  7  1  0  0  0  0
  7 23  1  0  0  0  0
  8 11  1  6  0  0  0
  8  7  1  0  0  0  0
  9 10  1  0  0  0  0
 10 11  2  0  0  0  0
 11  3  1  0  0  0  0
 13 15  1  0  0  0  0
 13 14  1  0  0  0  0
 14 12  2  0  0  0  0
 15 16  1  6  0  0  0
 15 14  1  0  0  0  0
 15  8  1  0  0  0  0
 17 16  1  1  0  0  0
 17 22  1  0  0  0  0
 18 19  1  0  0  0  0
 18 17  1  0  0  0  0
 19 21  1  0  0  0  0
 21 22  1  0  0  0  0
 22 20  1  0  0  0  0
 23 24  2  0  0  0  0
 24 29  1  0  0  0  0
 24 25  1  0  0  0  0
 25 27  1  0  0  0  0
 26 27  1  0  0  0  0
 27 28  1  0  0  0  0
 29 30  1  0  0  0  0
 30 32  1  0  0  0  0
 31 30  1  0  0  0  0
M  END
>  <MODEL>
5

>  <REMARK>
 VINA RESULT:      -6.8      3.811      7.283
  Name = 
  8 active torsions:
  status: ('A' for Active; 'I' for Inactive)
    1  A    between atoms: C_3  and  C_5
    2  A    between atoms: C_5  and  C_25
    3  A    between atoms: C_7  and  C_31
    4  A    between atoms: C_8  and  N_19
    5  A    between atoms: C_11  and  N_18
    6  A    between atoms: N_18  and  C_29
    7  A    between atoms: C_21  and  C_25
    8  A    between atoms: C_29  and  C_31
                            x       y       z     vdW  Elec       q    Type
                         _______ _______ _______ _____ _____    ______ ____

>  <TORSDO>
F 8

$$$$
=
 OpenBabel11062412423D

 32 35  0  0  1  0  0  0  0  0999 V2000
  182.7960  178.7130  143.8760 C   0  0  0  0  0  3  0  0  0  0  0  0
  181.5990  179.0050  143.2070 C   0  0  0  0  0  3  0  0  0  0  0  0
  181.6610  179.1290  141.8240 C   0  0  0  0  0  0  0  0  0  0  0  0
  183.9650  178.5750  143.1770 N   0  0  0  0  0  0  0  0  0  0  0  0
  179.4060  179.5820  141.1480 O   0  0  0  0  0  0  0  0  0  0  0  0
  180.6290  179.4670  140.8800 C   0  0  0  0  0  0  0  0  0  0  0  0
  181.1900  179.5590  139.5710 N   0  0  0  0  0  0  0  0  0  0  0  0
  182.6000  179.1470  139.6350 C   0  0  1  0  0  3  0  0  0  0  0  0
  185.3260  178.5800  141.1220 C   0  0  0  0  0  1  0  0  0  0  0  0
  184.0180  178.7000  141.8190 C   0  0  0  0  0  0  0  0  0  0  0  0
  182.8340  178.9670  141.1220 C   0  0  0  0  0  0  0  0  0  0  0  0
  185.2060  177.6060  138.0110 O   0  0  0  0  0  0  0  0  0  0  0  0
  182.6020  177.9700  137.5210 O   0  0  0  0  0  0  0  0  0  0  0  0
  183.9610  177.7540  138.1230 C   0  0  0  0  0  0  0  0  0  0  0  0
  182.8040  177.8320  138.8670 C   0  0  1  0  0  0  0  0  0  0  0  0
  182.2630  176.5210  139.4660 C   0  0  0  0  0  2  0  0  0  0  0  0
  180.8610  176.1250  138.9990 C   0  0  2  0  0  3  0  0  0  0  0  0
  179.9750  176.0450  140.1550 N   0  0  0  0  0  2  0  0  0  0  0  0
  179.7810  174.6310  140.3990 C   0  0  0  0  0  2  0  0  0  0  0  0
  180.2420  175.0030  137.0380 C   0  0  0  0  0  1  0  0  0  0  0  0
  180.0710  173.9350  139.0990 C   0  0  0  0  0  2  0  0  0  0  0  0
  180.9030  174.8310  138.3200 N   0  0  0  0  0  0  0  0  0  0  0  0
  180.5040  179.8600  138.3450 C   0  0  0  0  0  3  0  0  0  0  0  0
  180.5570  181.0330  137.7080 C   0  0  0  0  0  0  0  0  0  0  0  0
  179.8710  181.1210  136.4510 N   0  0  0  0  0  2  0  0  0  0  0  0
  181.2060  179.6780  135.1850 F   0  0  0  0  0  0  0  0  0  0  0  0
  180.4270  180.8200  135.1370 C   0  0  0  0  0  3  0  0  0  0  0  0
  181.1620  181.8900  134.6640 F   0  0  0  0  0  0  0  0  0  0  0  0
  181.4770  182.1260  138.1830 C   0  0  0  0  0  2  0  0  0  0  0  0
  181.1900  183.4660  137.5200 C   0  0  0  0  0  3  0  0  0  0  0  0
  182.2830  184.2980  137.6730 F   0  0  0  0  0  0  0  0  0  0  0  0
  180.0730  184.0650  138.0730 F   0  0  0  0  0  0  0  0  0  0  0  0
  2  1  1  0  0  0  0
  3  2  2  0  0  0  0
  4  1  2  0  0  0  0
  6  5  2  0  0  0  0
  6  3  1  0  0  0  0
  7  8  1  0  0  0  0
  7  6  1  0  0  0  0
  8 11  1  1  0  0  0
  9 10  1  0  0  0  0
 10  4  1  0  0  0  0
 11 10  2  0  0  0  0
 11  3  1  0  0  0  0
 12 14  2  0  0  0  0
 13 14  1  0  0  0  0
 13 15  1  0  0  0  0
 14 15  1  0  0  0  0
 15 16  1  1  0  0  0
 15  8  1  0  0  0  0
 17 16  1  1  0  0  0
 17 18  1  0  0  0  0
 18 19  1  0  0  0  0
 20 22  1  0  0  0  0
 21 19  1  0  0  0  0
 22 17  1  0  0  0  0
 22 21  1  0  0  0  0
 23  7  1  0  0  0  0
 24 29  1  0  0  0  0
 24 23  2  0  0  0  0
 25 24  1  0  0  0  0
 27 26  1  0  0  0  0
 27 25  1  0  0  0  0
 28 27  1  0  0  0  0
 30 31  1  0  0  0  0
 30 32  1  0  0  0  0
 30 29  1  0  0  0  0
M  END
>  <MODEL>
6

>  <REMARK>
 VINA RESULT:      -6.3      5.867      8.237
  Name = 
  8 active torsions:
  status: ('A' for Active; 'I' for Inactive)
    1  A    between atoms: C_3  and  C_5
    2  A    between atoms: C_5  and  C_25
    3  A    between atoms: C_7  and  C_31
    4  A    between atoms: C_8  and  N_19
    5  A    between atoms: C_11  and  N_18
    6  A    between atoms: N_18  and  C_29
    7  A    between atoms: C_21  and  C_25
    8  A    between atoms: C_29  and  C_31
                            x       y       z     vdW  Elec       q    Type
                         _______ _______ _______ _____ _____    ______ ____

>  <TORSDO>
F 8

$$$$
=
 OpenBabel11062412423D

 32 35  0  0  1  0  0  0  0  0999 V2000
  192.6200  176.7430  138.5950 C   0  0  0  0  0  3  0  0  0  0  0  0
  191.9490  176.2660  137.4610 C   0  0  0  0  0  3  0  0  0  0  0  0
  190.5600  176.2430  137.5110 C   0  0  0  0  0  0  0  0  0  0  0  0
  191.9180  177.1500  139.6960 N   0  0  0  0  0  0  0  0  0  0  0  0
  189.8830  175.4010  135.3700 O   0  0  0  0  0  0  0  0  0  0  0  0
  189.6080  175.7700  136.5410 C   0  0  0  0  0  0  0  0  0  0  0  0
  188.2890  175.8710  137.0760 N   0  0  0  0  0  0  0  0  0  0  0  0
  188.3630  176.5450  138.3810 C   0  0  1  0  0  3  0  0  0  0  0  0
  189.8510  177.5400  140.9810 C   0  0  0  0  0  1  0  0  0  0  0  0
  190.5540  177.1230  139.7390 C   0  0  0  0  0  0  0  0  0  0  0  0
  189.8550  176.6740  138.6120 C   0  0  0  0  0  0  0  0  0  0  0  0
  187.3110  178.6550  135.8830 O   0  0  0  0  0  0  0  0  0  0  0  0
  188.5780  178.9500  138.2200 O   0  0  0  0  0  0  0  0  0  0  0  0
  187.7070  178.5280  137.0700 C   0  0  0  0  0  0  0  0  0  0  0  0
  187.6820  177.9200  138.3070 C   0  0  1  0  0  0  0  0  0  0  0  0
  186.4640  178.2050  139.2040 C   0  0  0  0  0  2  0  0  0  0  0  0
  185.1940  178.6250  138.4620 C   0  0  2  0  0  3  0  0  0  0  0  0
  184.5590  179.7250  139.1800 N   0  0  0  0  0  2  0  0  0  0  0  0
  183.4120  179.1440  139.8440 C   0  0  0  0  0  2  0  0  0  0  0  0
  183.8970  177.3700  136.9690 C   0  0  0  0  0  1  0  0  0  0  0  0
  183.0700  177.8940  139.0810 C   0  0  0  0  0  2  0  0  0  0  0  0
  184.2690  177.4980  138.3680 N   0  0  0  0  0  0  0  0  0  0  0  0
  187.0540  175.5180  136.4310 C   0  0  0  0  0  3  0  0  0  0  0  0
  186.5070  174.3000  136.4420 C   0  0  0  0  0  0  0  0  0  0  0  0
  185.2260  174.1570  135.8120 N   0  0  0  0  0  2  0  0  0  0  0  0
  183.9130  174.0600  137.7440 F   0  0  0  0  0  0  0  0  0  0  0  0
  184.0090  173.6430  136.4290 C   0  0  0  0  0  3  0  0  0  0  0  0
  183.9710  172.2640  136.3520 F   0  0  0  0  0  0  0  0  0  0  0  0
  187.1060  173.1950  137.2700 C   0  0  0  0  0  2  0  0  0  0  0  0
  187.7110  172.0850  136.4210 C   0  0  0  0  0  3  0  0  0  0  0  0
  188.4140  172.6400  135.3700 F   0  0  0  0  0  0  0  0  0  0  0  0
  186.7280  171.2460  135.9270 F   0  0  0  0  0  0  0  0  0  0  0  0
  1  4  1  0  0  0  0
  2  3  1  0  0  0  0
  2  1  2  0  0  0  0
  3 11  2  0  0  0  0
  4 10  2  0  0  0  0
  5  6  2  0  0  0  0
  6  7  1  0  0  0  0
  6  3  1  0  0  0  0
  7  8  1  0  0  0  0
  8 11  1  6  0  0  0
 10  9  1  0  0  0  0
 11 10  1  0  0  0  0
 12 14  2  0  0  0  0
 13 15  1  0  0  0  0
 14 13  1  0  0  0  0
 14 15  1  0  0  0  0
 15  8  1  0  0  0  0
 15 16  1  1  0  0  0
 17 18  1  0  0  0  0
 17 16  1  1  0  0  0
 18 19  1  0  0  0  0
 20 22  1  0  0  0  0
 21 19  1  0  0  0  0
 22 17  1  0  0  0  0
 22 21  1  0  0  0  0
 23 24  2  0  0  0  0
 23  7  1  0  0  0  0
 24 29  1  0  0  0  0
 25 27  1  0  0  0  0
 25 24  1  0  0  0  0
 27 26  1  0  0  0  0
 28 27  1  0  0  0  0
 30 29  1  0  0  0  0
 31 30  1  0  0  0  0
 32 30  1  0  0  0  0
M  END
>  <MODEL>
7

>  <REMARK>
 VINA RESULT:      -6.2      4.484      7.404
  Name = 
  8 active torsions:
  status: ('A' for Active; 'I' for Inactive)
    1  A    between atoms: C_3  and  C_5
    2  A    between atoms: C_5  and  C_25
    3  A    between atoms: C_7  and  C_31
    4  A    between atoms: C_8  and  N_19
    5  A    between atoms: C_11  and  N_18
    6  A    between atoms: N_18  and  C_29
    7  A    between atoms: C_21  and  C_25
    8  A    between atoms: C_29  and  C_31
                            x       y       z     vdW  Elec       q    Type
                         _______ _______ _______ _____ _____    ______ ____

>  <TORSDO>
F 8

$$$$
=
 OpenBabel11062412423D

 32 35  0  0  1  0  0  0  0  0999 V2000
  189.4020  178.5390  137.9790 C   0  0  0  0  0  3  0  0  0  0  0  0
  188.4960  179.0250  138.9320 C   0  0  0  0  0  3  0  0  0  0  0  0
  188.4950  178.4070  140.1780 C   0  0  0  0  0  0  0  0  0  0  0  0
  190.2300  177.4920  138.2800 N   0  0  0  0  0  0  0  0  0  0  0  0
  186.8390  179.5890  141.4460 O   0  0  0  0  0  0  0  0  0  0  0  0
  187.6610  178.6440  141.3250 C   0  0  0  0  0  0  0  0  0  0  0  0
  187.9740  177.6990  142.3480 N   0  0  0  0  0  0  0  0  0  0  0  0
  189.1300  176.9020  141.9110 C   0  0  1  0  0  3  0  0  0  0  0  0
  191.1170  175.7290  139.7570 C   0  0  0  0  0  1  0  0  0  0  0  0
  190.2220  176.8890  139.5050 C   0  0  0  0  0  0  0  0  0  0  0  0
  189.3450  177.3690  140.4850 C   0  0  0  0  0  0  0  0  0  0  0  0
  190.5720  179.7150  143.2550 O   0  0  0  0  0  0  0  0  0  0  0  0
  191.4720  177.4940  142.0660 O   0  0  0  0  0  0  0  0  0  0  0  0
  190.7220  178.5320  142.8530 C   0  0  0  0  0  0  0  0  0  0  0  0
  190.3490  177.2070  142.7950 C   0  0  1  0  0  0  0  0  0  0  0  0
  190.6020  176.3500  144.0480 C   0  0  0  0  0  2  0  0  0  0  0  0
  190.7280  177.1350  145.3560 C   0  0  2  0  0  3  0  0  0  0  0  0
  192.0550  176.9190  145.9210 N   0  0  0  0  0  2  0  0  0  0  0  0
  191.8620  176.0120  147.0320 C   0  0  0  0  0  2  0  0  0  0  0  0
  189.0200  177.8850  146.7740 C   0  0  0  0  0  1  0  0  0  0  0  0
  190.4250  176.1550  147.4480 C   0  0  0  0  0  2  0  0  0  0  0  0
  189.7100  176.6940  146.3070 N   0  0  0  0  0  0  0  0  0  0  0  0
  187.3850  177.5970  143.6540 C   0  0  0  0  0  3  0  0  0  0  0  0
  186.0820  177.7270  143.9170 C   0  0  0  0  0  0  0  0  0  0  0  0
  185.6680  177.5100  145.2730 N   0  0  0  0  0  2  0  0  0  0  0  0
  184.2550  178.6020  146.7840 F   0  0  0  0  0  0  0  0  0  0  0  0
  185.5540  178.5230  146.3170 C   0  0  0  0  0  3  0  0  0  0  0  0
  185.9790  179.7510  145.8500 F   0  0  0  0  0  0  0  0  0  0  0  0
  185.0830  177.8740  142.8010 C   0  0  0  0  0  2  0  0  0  0  0  0
  183.9850  178.8790  143.1200 C   0  0  0  0  0  3  0  0  0  0  0  0
  184.5550  180.0520  143.5790 F   0  0  0  0  0  0  0  0  0  0  0  0
  183.1190  178.3820  144.0770 F   0  0  0  0  0  0  0  0  0  0  0  0
  1  4  2  0  0  0  0
  1  2  1  0  0  0  0
  2  3  2  0  0  0  0
  3 11  1  0  0  0  0
  3  6  1  0  0  0  0
  4 10  1  0  0  0  0
  6  5  2  0  0  0  0
  6  7  1  0  0  0  0
  7 23  1  0  0  0  0
  8 11  1  6  0  0  0
  8  7  1  0  0  0  0
  8 15  1  0  0  0  0
 10  9  1  0  0  0  0
 10 11  2  0  0  0  0
 13 15  1  0  0  0  0
 13 14  1  0  0  0  0
 14 12  2  0  0  0  0
 15 14  1  0  0  0  0
 15 16  1  1  0  0  0
 17 16  1  6  0  0  0
 17 18  1  0  0  0  0
 17 22  1  0  0  0  0
 18 19  1  0  0  0  0
 19 21  1  0  0  0  0
 22 20  1  0  0  0  0
 22 21  1  0  0  0  0
 23 24  2  0  0  0  0
 24 25  1  0  0  0  0
 25 27  1  0  0  0  0
 27 26  1  0  0  0  0
 28 27  1  0  0  0  0
 29 30  1  0  0  0  0
 29 24  1  0  0  0  0
 30 31  1  0  0  0  0
 30 32  1  0  0  0  0
M  END
>  <MODEL>
8

>  <REMARK>
 VINA RESULT:      -6.1      1.848      5.565
  Name = 
  8 active torsions:
  status: ('A' for Active; 'I' for Inactive)
    1  A    between atoms: C_3  and  C_5
    2  A    between atoms: C_5  and  C_25
    3  A    between atoms: C_7  and  C_31
    4  A    between atoms: C_8  and  N_19
    5  A    between atoms: C_11  and  N_18
    6  A    between atoms: N_18  and  C_29
    7  A    between atoms: C_21  and  C_25
    8  A    between atoms: C_29  and  C_31
                            x       y       z     vdW  Elec       q    Type
                         _______ _______ _______ _____ _____    ______ ____

>  <TORSDO>
F 8

$$$$
=
 OpenBabel11062412423D

 32 35  0  0  1  0  0  0  0  0999 V2000
  186.8290  177.8350  135.2660 C   0  0  0  0  0  3  0  0  0  0  0  0
  187.5530  178.6570  136.1400 C   0  0  0  0  0  3  0  0  0  0  0  0
  188.3470  178.0250  137.0900 C   0  0  0  0  0  0  0  0  0  0  0  0
  186.9040  176.4730  135.3710 N   0  0  0  0  0  0  0  0  0  0  0  0
  189.3950  179.8110  138.2990 O   0  0  0  0  0  0  0  0  0  0  0  0
  189.1550  178.5870  138.1400 C   0  0  0  0  0  0  0  0  0  0  0  0
  189.7220  177.5360  138.9220 N   0  0  0  0  0  0  0  0  0  0  0  0
  189.3820  176.2500  138.2950 C   0  0  1  0  0  3  0  0  0  0  0  0
  187.6930  174.3760  136.3980 C   0  0  0  0  0  1  0  0  0  0  0  0
  187.6850  175.8600  136.3080 C   0  0  0  0  0  0  0  0  0  0  0  0
  188.4390  176.6540  137.1790 C   0  0  0  0  0  0  0  0  0  0  0  0
  190.1850  173.1770  136.9870 O   0  0  0  0  0  0  0  0  0  0  0  0
  191.3320  174.8760  138.7040 O   0  0  0  0  0  0  0  0  0  0  0  0
  190.5740  174.2090  137.5910 C   0  0  0  0  0  0  0  0  0  0  0  0
  190.6490  175.5760  137.7470 C   0  0  1  0  0  0  0  0  0  0  0  0
  191.5440  176.3470  136.7590 C   0  0  0  0  0  2  0  0  0  0  0  0
  192.9350  175.7500  136.5410 C   0  0  2  0  0  3  0  0  0  0  0  0
  193.9450  176.7390  136.8990 N   0  0  0  0  0  2  0  0  0  0  0  0
  194.4740  177.2280  135.6430 C   0  0  0  0  0  2  0  0  0  0  0  0
  193.5550  173.9800  135.1360 C   0  0  0  0  0  1  0  0  0  0  0  0
  194.1950  176.1590  134.6240 C   0  0  0  0  0  2  0  0  0  0  0  0
  193.1010  175.3610  135.1420 N   0  0  0  0  0  0  0  0  0  0  0  0
  190.5980  177.6630  140.0540 C   0  0  0  0  0  3  0  0  0  0  0  0
  190.2530  177.4090  141.3190 C   0  0  0  0  0  0  0  0  0  0  0  0
  191.2880  177.5120  142.3070 N   0  0  0  0  0  2  0  0  0  0  0  0
  190.5890  177.3960  144.5360 F   0  0  0  0  0  0  0  0  0  0  0  0
  191.1960  178.2010  143.5900 C   0  0  0  0  0  3  0  0  0  0  0  0
  190.5090  179.3920  143.4530 F   0  0  0  0  0  0  0  0  0  0  0  0
  188.9040  176.8280  141.6470 C   0  0  0  0  0  2  0  0  0  0  0  0
  187.8730  177.8930  141.9940 C   0  0  0  0  0  3  0  0  0  0  0  0
  188.2950  179.1180  141.5130 F   0  0  0  0  0  0  0  0  0  0  0  0
  187.6850  177.9760  143.3620 F   0  0  0  0  0  0  0  0  0  0  0  0
  1  4  2  0  0  0  0
  1  2  1  0  0  0  0
  2  3  2  0  0  0  0
  3 11  1  0  0  0  0
  3  6  1  0  0  0  0
  4 10  1  0  0  0  0
  6  5  2  0  0  0  0
  6  7  1  0  0  0  0
  7 23  1  0  0  0  0
  8 11  1  6  0  0  0
  8  7  1  0  0  0  0
 10  9  1  0  0  0  0
 10 11  2  0  0  0  0
 12 14  2  0  0  0  0
 14 15  1  0  0  0  0
 14 13  1  0  0  0  0
 15 16  1  6  0  0  0
 15  8  1  0  0  0  0
 15 13  1  0  0  0  0
 17 16  1  6  0  0  0
 17 18  1  0  0  0  0
 19 18  1  0  0  0  0
 20 22  1  0  0  0  0
 21 22  1  0  0  0  0
 21 19  1  0  0  0  0
 22 17  1  0  0  0  0
 23 24  2  0  0  0  0
 24 29  1  0  0  0  0
 24 25  1  0  0  0  0
 25 27  1  0  0  0  0
 27 26  1  0  0  0  0
 28 27  1  0  0  0  0
 29 30  1  0  0  0  0
 30 32  1  0  0  0  0
 31 30  1  0  0  0  0
M  END
>  <MODEL>
9

>  <REMARK>
 VINA RESULT:      -6.1      3.464      6.952
  Name = 
  8 active torsions:
  status: ('A' for Active; 'I' for Inactive)
    1  A    between atoms: C_3  and  C_5
    2  A    between atoms: C_5  and  C_25
    3  A    between atoms: C_7  and  C_31
    4  A    between atoms: C_8  and  N_19
    5  A    between atoms: C_11  and  N_18
    6  A    between atoms: N_18  and  C_29
    7  A    between atoms: C_21  and  C_25
    8  A    between atoms: C_29  and  C_31
                            x       y       z     vdW  Elec       q    Type
                         _______ _______ _______ _____ _____    ______ ____

>  <TORSDO>
F 8

$$$$
