=
 OpenBabel11062415083D

 55 60  0  0  1  0  0  0  0  0999 V2000
  187.1510  176.4880  137.1370 C   0  0  2  0  0  3  0  0  0  0  0  0
  187.0620  174.6010  135.6700 F   0  0  0  0  0  0  0  0  0  0  0  0
  188.0960  176.5060  138.1860 O   0  0  0  0  0  0  0  0  0  0  0  0
  189.5790  174.3860  136.8730 C   0  0  0  0  0  1  0  0  0  0  0  0
  189.2530  177.2170  137.7750 C   0  0  2  0  0  3  0  0  0  0  0  0
  187.7140  175.8010  135.8970 C   0  0  2  0  0  3  0  0  0  0  0  0
  189.7420  175.3900  134.7400 O   0  0  0  0  0  1  0  0  0  0  0  0
  189.2300  175.6060  136.0200 C   0  0  2  0  0  0  0  0  0  0  0  0
  189.8390  176.7690  136.5520 O   0  0  0  0  0  0  0  0  0  0  0  0
  190.2620  177.2440  138.8920 C   0  0  0  0  0  0  0  0  0  0  0  0
  191.5750  177.0880  138.6540 C   0  0  0  0  0  3  0  0  0  0  0  0
  192.1940  177.3420  141.1910 C   0  0  0  0  0  2  0  0  0  0  0  0
  188.5930  177.6040  140.7080 O   0  0  0  0  0  0  0  0  0  0  0  0
  193.7980  176.9690  139.4540 O   0  0  0  0  0  0  0  0  0  0  0  0
  190.7130  177.5130  141.3270 C   0  0  0  0  0  0  0  0  0  0  0  0
  189.9560  177.7240  142.4540 C   0  0  0  0  0  0  0  0  0  0  0  0
  188.6470  177.7650  142.0110 C   0  0  0  0  0  0  0  0  0  0  0  0
  189.8270  177.4550  140.2800 C   0  0  0  0  0  0  0  0  0  0  0  0
  192.5830  177.1240  139.7440 C   0  0  0  0  0  0  0  0  0  0  0  0
  190.4340  177.8560  143.8620 C   0  0  0  0  0  2  0  0  0  0  0  0
  190.5230  176.4850  144.5040 C   0  0  0  0  0  2  0  0  0  0  0  0
  191.0900  176.6420  146.2180 P   0  0  2  0  0  0  0  0  0  0  0  0
  191.7820  177.9750  146.3860 O   0  0  0  0  0  0  0  0  0  0  0  0
  192.1790  175.3920  146.5770 O   0  0  0  0  0  1  0  0  0  0  0  0
  188.7540  177.7330  147.1120 C   0  0  0  0  0  1  0  0  0  0  0  0
  189.6640  176.5490  147.3380 C   0  0  0  0  0  2  0  0  0  0  0  0
  187.4980  177.9410  142.8380 N   0  0  0  0  0  2  0  0  0  0  0  0
  186.3530  178.4640  142.3350 O   0  0  0  0  0  0  0  0  0  0  0  0
  185.8210  177.9560  144.6180 C   0  0  0  0  0  2  0  0  0  0  0  0
  184.9610  179.1460  146.6050 O   0  0  0  0  0  1  0  0  0  0  0  0
  183.9360  179.3470  144.4040 C   0  0  0  0  0  3  0  0  0  0  0  0
  184.1790  178.9250  143.1790 C   0  0  0  0  0  3  0  0  0  0  0  0
  184.8480  178.7710  145.3110 N   0  0  0  0  0  0  0  0  0  0  0  0
  185.3400  177.9760  143.1690 C   0  0  1  0  0  3  0  0  0  0  0  0
  186.5980  177.8810  136.8330 C   0  0  0  0  0  2  0  0  0  0  0  0
  185.1130  177.9570  137.1670 C   0  0  1  0  0  3  0  0  0  0  0  0
  184.4030  176.7930  136.5500 C   0  0  0  0  0  0  0  0  0  0  0  0
  184.3200  175.5640  137.2790 N   0  0  0  0  0  2  0  0  0  0  0  0
  183.9150  176.8900  135.3910 O   0  0  0  0  0  0  0  0  0  0  0  0
  183.8190  174.3080  136.7340 C   0  0  2  0  0  3  0  0  0  0  0  0
  182.0290  174.1250  137.0160 S   0  0  0  0  0  0  0  0  0  0  0  0
  183.7170  170.4640  136.3020 C   0  0  0  0  0  1  0  0  0  0  0  0
  183.3700  171.8240  136.8060 C   0  0  0  0  0  0  0  0  0  0  0  0
  182.1790  172.3910  136.6050 C   0  0  0  0  0  0  0  0  0  0  0  0
  184.6500  172.8740  137.4830 S   0  0  0  0  0  0  0  0  0  0  0  0
  181.0770  171.7120  135.8730 C   0  0  0  0  0  1  0  0  0  0  0  0
  184.8710  177.9900  138.6840 C   0  0  1  0  0  3  0  0  0  0  0  0
  185.8340  178.7650  139.3310 O   0  0  0  0  0  1  0  0  0  0  0  0
  182.5770  176.3820  139.9900 C   0  0  0  0  0  1  0  0  0  0  0  0
  180.1310  178.0600  140.2370 O   0  0  0  0  0  1  0  0  0  0  0  0
  182.4670  177.8100  139.5600 C   0  0  0  0  0  0  0  0  0  0  0  0
  181.3840  179.8810  139.2310 C   0  0  0  0  0  3  0  0  0  0  0  0
  181.2970  178.5700  139.6920 C   0  0  0  0  0  0  0  0  0  0  0  0
  182.9560  180.0790  138.6620 S   0  0  0  0  0  0  0  0  0  0  0  0
  183.5130  178.5290  139.0050 C   0  0  0  0  0  0  0  0  0  0  0  0
  1 35  1  6  0  0  0
  1  3  1  0  0  0  0
  5  3  1  0  0  0  0
  5 10  1  1  0  0  0
  6  2  1  1  0  0  0
  6  8  1  0  0  0  0
  6  1  1  0  0  0  0
  7  8  1  0  0  0  0
  8  9  1  0  0  0  0
  8  4  1  1  0  0  0
  9  5  1  0  0  0  0
 10 18  1  0  0  0  0
 11 10  2  0  0  0  0
 11 19  1  0  0  0  0
 12 15  1  0  0  0  0
 13 17  1  0  0  0  0
 14 19  2  0  0  0  0
 15 16  1  0  0  0  0
 16 20  1  0  0  0  0
 17 16  2  0  0  0  0
 17 27  1  0  0  0  0
 18 13  1  0  0  0  0
 18 15  2  0  0  0  0
 19 12  1  0  0  0  0
 20 21  1  0  0  0  0
 21 22  1  0  0  0  0
 22 23  2  1  0  0  0
 22 24  1  0  0  0  0
 22 26  1  0  0  0  0
 25 26  1  0  0  0  0
 28 27  1  0  0  0  0
 29 33  1  0  0  0  0
 31 33  1  0  0  0  0
 32 31  2  0  0  0  0
 33 30  1  0  0  0  0
 34 28  1  6  0  0  0
 34 32  1  0  0  0  0
 34 29  1  0  0  0  0
 36 35  1  1  0  0  0
 36 47  1  0  0  0  0
 37 36  1  0  0  0  0
 37 38  1  0  0  0  0
 39 37  2  0  0  0  0
 40 41  1  0  0  0  0
 40 38  1  1  0  0  0
 40 45  1  0  0  0  0
 42 43  1  0  0  0  0
 43 45  1  0  0  0  0
 44 43  2  0  0  0  0
 44 41  1  0  0  0  0
 46 44  1  0  0  0  0
 47 55  1  0  0  0  0
 47 48  1  1  0  0  0
 51 53  1  0  0  0  0
 51 49  1  0  0  0  0
 52 53  2  0  0  0  0
 53 50  1  0  0  0  0
 54 55  1  0  0  0  0
 54 52  1  0  0  0  0
 55 51  2  0  0  0  0
M  END
>  <MODEL>
1

>  <REMARK>
 VINA RESULT:      -8.4      0.000      0.000
  Name = 
  14 active torsions:
  status: ('A' for Active; 'I' for Inactive)
    1  A    between atoms: P_1  and  C_26
    2  A    between atoms: P_1  and  C_53
    3  A    between atoms: C_2  and  C_23
    4  A    between atoms: C_3  and  C_17
    5  A    between atoms: C_3  and  C_55
    6  A    between atoms: C_5  and  C_33
    7  A    between atoms: C_9  and  C_17
    8  A    between atoms: C_17  and  C_33
    9  A    between atoms: C_19  and  N_28
   10  A    between atoms: O_25  and  N_43
   11  A    between atoms: O_25  and  C_54
   12  A    between atoms: C_26  and  C_40
   13  A    between atoms: C_31  and  C_40
   14  A    between atoms: C_39  and  N_43
                            x       y       z     vdW  Elec       q    Type
                         _______ _______ _______ _____ _____    ______ ____

>  <TORSDO>
F 14

$$$$
=
 OpenBabel11062415083D

 55 60  0  0  1  0  0  0  0  0999 V2000
  187.0270  177.6300  144.8410 C   0  0  2  0  0  3  0  0  0  0  0  0
  187.2510  177.3020  147.1990 F   0  0  0  0  0  0  0  0  0  0  0  0
  185.7430  177.5830  144.2540 O   0  0  0  0  0  0  0  0  0  0  0  0
  184.5430  177.9280  146.8730 C   0  0  0  0  0  1  0  0  0  0  0  0
  185.2260  178.8980  144.1290 C   0  0  2  0  0  3  0  0  0  0  0  0
  186.9760  178.2530  146.2320 C   0  0  2  0  0  3  0  0  0  0  0  0
  185.7790  179.8290  147.5370 O   0  0  0  0  0  1  0  0  0  0  0  0
  185.6250  178.9350  146.4780 C   0  0  2  0  0  0  0  0  0  0  0  0
  185.2220  179.6660  145.3330 O   0  0  0  0  0  0  0  0  0  0  0  0
  183.8590  178.8540  143.4980 C   0  0  0  0  0  0  0  0  0  0  0  0
  182.7470  178.7640  144.2440 C   0  0  0  0  0  3  0  0  0  0  0  0
  181.1810  178.8020  142.1400 C   0  0  0  0  0  2  0  0  0  0  0  0
  184.6800  178.9880  141.1490 O   0  0  0  0  0  0  0  0  0  0  0  0
  180.3880  178.6450  144.3930 O   0  0  0  0  0  0  0  0  0  0  0  0
  182.4890  178.9100  141.4200 C   0  0  0  0  0  0  0  0  0  0  0  0
  182.7420  178.9900  140.0710 C   0  0  0  0  0  0  0  0  0  0  0  0
  184.1190  179.0290  139.9620 C   0  0  0  0  0  0  0  0  0  0  0  0
  183.7140  178.9210  142.0370 C   0  0  0  0  0  0  0  0  0  0  0  0
  181.3910  178.7320  143.6370 C   0  0  0  0  0  0  0  0  0  0  0  0
  181.7490  179.0050  138.9560 C   0  0  0  0  0  2  0  0  0  0  0  0
  180.6430  179.9950  139.2680 C   0  0  0  0  0  2  0  0  0  0  0  0
  180.7830  181.4390  138.1820 P   0  0  2  0  0  0  0  0  0  0  0  0
  182.1290  182.0900  138.4030 O   0  0  0  0  0  0  0  0  0  0  0  0
  179.5530  182.5490  138.5460 O   0  0  0  0  0  1  0  0  0  0  0  0
  180.5900  182.1200  135.5470 C   0  0  0  0  0  1  0  0  0  0  0  0
  180.6360  180.9110  136.4510 C   0  0  0  0  0  2  0  0  0  0  0  0
  184.8500  179.0880  138.7380 N   0  0  0  0  0  2  0  0  0  0  0  0
  185.5230  178.0050  138.2770 O   0  0  0  0  0  0  0  0  0  0  0  0
  185.5870  176.9820  136.1090 C   0  0  0  0  0  2  0  0  0  0  0  0
  185.8200  174.7110  135.1630 O   0  0  0  0  0  1  0  0  0  0  0  0
  184.2890  175.2280  136.9870 C   0  0  0  0  0  3  0  0  0  0  0  0
  183.9900  176.2700  137.7370 C   0  0  0  0  0  3  0  0  0  0  0  0
  185.1970  175.5960  135.9740 N   0  0  0  0  0  0  0  0  0  0  0  0
  184.7160  177.4910  137.2550 C   0  0  1  0  0  3  0  0  0  0  0  0
  188.0530  178.3090  143.9330 C   0  0  0  0  0  2  0  0  0  0  0  0
  189.0080  177.2820  143.3360 C   0  0  1  0  0  3  0  0  0  0  0  0
  188.7420  177.1470  141.8700 C   0  0  0  0  0  0  0  0  0  0  0  0
  189.7850  176.6650  141.0160 N   0  0  0  0  0  2  0  0  0  0  0  0
  187.6230  177.4850  141.3940 O   0  0  0  0  0  0  0  0  0  0  0  0
  189.7260  176.6510  139.5590 C   0  0  2  0  0  3  0  0  0  0  0  0
  191.3330  176.1990  138.8300 S   0  0  0  0  0  0  0  0  0  0  0  0
  189.0360  178.1550  136.0610 C   0  0  0  0  0  1  0  0  0  0  0  0
  189.7880  177.7300  137.2760 C   0  0  0  0  0  0  0  0  0  0  0  0
  190.7410  176.7960  137.2500 C   0  0  0  0  0  0  0  0  0  0  0  0
  189.2480  178.2740  138.8920 S   0  0  0  0  0  0  0  0  0  0  0  0
  191.1560  176.1030  136.0020 C   0  0  0  0  0  1  0  0  0  0  0  0
  190.4760  177.6590  143.5820 C   0  0  1  0  0  3  0  0  0  0  0  0
  190.6750  179.0330  143.4410 O   0  0  0  0  0  1  0  0  0  0  0  0
  192.1530  175.1400  144.2130 C   0  0  0  0  0  1  0  0  0  0  0  0
  192.5830  174.8750  147.1460 O   0  0  0  0  0  1  0  0  0  0  0  0
  191.6460  176.0950  145.2450 C   0  0  0  0  0  0  0  0  0  0  0  0
  191.3160  176.9270  147.4290 C   0  0  0  0  0  3  0  0  0  0  0  0
  191.8690  175.9380  146.6200 C   0  0  0  0  0  0  0  0  0  0  0  0
  190.5490  178.0110  146.3940 S   0  0  0  0  0  0  0  0  0  0  0  0
  190.9230  177.2390  144.9460 C   0  0  0  0  0  0  0  0  0  0  0  0
  1 35  1  6  0  0  0
  1  6  1  0  0  0  0
  3  1  1  0  0  0  0
  5 10  1  1  0  0  0
  5  3  1  0  0  0  0
  5  9  1  0  0  0  0
  6  8  1  0  0  0  0
  6  2  1  1  0  0  0
  8  4  1  1  0  0  0
  8  7  1  0  0  0  0
  9  8  1  0  0  0  0
 10 11  2  0  0  0  0
 12 19  1  0  0  0  0
 13 18  1  0  0  0  0
 15 18  2  0  0  0  0
 15 12  1  0  0  0  0
 16 15  1  0  0  0  0
 17 16  2  0  0  0  0
 17 13  1  0  0  0  0
 18 10  1  0  0  0  0
 19 11  1  0  0  0  0
 19 14  2  0  0  0  0
 20 21  1  0  0  0  0
 20 16  1  0  0  0  0
 22 23  2  1  0  0  0
 22 24  1  0  0  0  0
 22 21  1  0  0  0  0
 25 26  1  0  0  0  0
 26 22  1  0  0  0  0
 27 17  1  0  0  0  0
 28 27  1  0  0  0  0
 29 34  1  0  0  0  0
 30 33  1  0  0  0  0
 31 32  2  0  0  0  0
 33 29  1  0  0  0  0
 33 31  1  0  0  0  0
 34 32  1  0  0  0  0
 34 28  1  1  0  0  0
 36 47  1  0  0  0  0
 36 35  1  6  0  0  0
 37 36  1  0  0  0  0
 38 37  1  0  0  0  0
 39 37  2  0  0  0  0
 40 38  1  1  0  0  0
 41 40  1  0  0  0  0
 42 43  1  0  0  0  0
 43 45  1  0  0  0  0
 44 43  2  0  0  0  0
 44 41  1  0  0  0  0
 45 40  1  0  0  0  0
 46 44  1  0  0  0  0
 47 48  1  1  0  0  0
 47 55  1  0  0  0  0
 49 51  1  0  0  0  0
 51 53  1  0  0  0  0
 53 50  1  0  0  0  0
 53 52  2  0  0  0  0
 54 52  1  0  0  0  0
 55 51  2  0  0  0  0
 55 54  1  0  0  0  0
M  END
>  <MODEL>
2

>  <REMARK>
 VINA RESULT:      -8.3      3.896     10.095
  Name = 
  14 active torsions:
  status: ('A' for Active; 'I' for Inactive)
    1  A    between atoms: P_1  and  C_26
    2  A    between atoms: P_1  and  C_53
    3  A    between atoms: C_2  and  C_23
    4  A    between atoms: C_3  and  C_17
    5  A    between atoms: C_3  and  C_55
    6  A    between atoms: C_5  and  C_33
    7  A    between atoms: C_9  and  C_17
    8  A    between atoms: C_17  and  C_33
    9  A    between atoms: C_19  and  N_28
   10  A    between atoms: O_25  and  N_43
   11  A    between atoms: O_25  and  C_54
   12  A    between atoms: C_26  and  C_40
   13  A    between atoms: C_31  and  C_40
   14  A    between atoms: C_39  and  N_43
                            x       y       z     vdW  Elec       q    Type
                         _______ _______ _______ _____ _____    ______ ____

>  <TORSDO>
F 14

$$$$
=
 OpenBabel11062415083D

 55 60  0  0  1  0  0  0  0  0999 V2000
  186.9750  177.6400  144.7470 C   0  0  2  0  0  3  0  0  0  0  0  0
  187.2450  177.3170  147.1020 F   0  0  0  0  0  0  0  0  0  0  0  0
  185.6810  177.5810  144.1840 O   0  0  0  0  0  0  0  0  0  0  0  0
  184.5260  177.9210  146.8240 C   0  0  0  0  0  1  0  0  0  0  0  0
  185.1510  178.8920  144.0670 C   0  0  2  0  0  3  0  0  0  0  0  0
  186.9440  178.2650  146.1380 C   0  0  2  0  0  3  0  0  0  0  0  0
  185.7580  179.8330  147.4630 O   0  0  0  0  0  1  0  0  0  0  0  0
  185.5920  178.9350  146.4080 C   0  0  2  0  0  0  0  0  0  0  0  0
  185.1620  179.6610  145.2700 O   0  0  0  0  0  0  0  0  0  0  0  0
  183.7730  178.8350  143.4620 C   0  0  0  0  0  0  0  0  0  0  0  0
  182.6710  178.8290  144.2280 C   0  0  0  0  0  3  0  0  0  0  0  0
  181.0720  178.7500  142.1500 C   0  0  0  0  0  2  0  0  0  0  0  0
  184.5590  178.7750  141.0970 O   0  0  0  0  0  0  0  0  0  0  0  0
  180.3130  178.7800  144.4190 O   0  0  0  0  0  0  0  0  0  0  0  0
  182.3700  178.7720  141.4050 C   0  0  0  0  0  0  0  0  0  0  0  0
  182.6030  178.7460  140.0500 C   0  0  0  0  0  0  0  0  0  0  0  0
  183.9790  178.7420  139.9180 C   0  0  0  0  0  0  0  0  0  0  0  0
  183.6060  178.7980  142.0020 C   0  0  0  0  0  0  0  0  0  0  0  0
  181.3050  178.7860  143.6450 C   0  0  0  0  0  0  0  0  0  0  0  0
  181.5930  178.7040  138.9520 C   0  0  0  0  0  2  0  0  0  0  0  0
  180.4260  177.8260  139.3610 C   0  0  0  0  0  2  0  0  0  0  0  0
  180.7010  176.1280  138.7900 P   0  0  2  0  0  0  0  0  0  0  0  0
  181.9830  175.6070  139.3990 O   0  0  0  0  0  1  0  0  0  0  0  0
  180.8310  176.1080  137.0990 O   0  0  0  0  0  0  0  0  0  0  0  0
  179.6740  174.3290  140.5650 C   0  0  0  0  0  1  0  0  0  0  0  0
  179.3100  175.0830  139.3080 C   0  0  0  0  0  2  0  0  0  0  0  0
  184.6910  178.6930  138.6830 N   0  0  0  0  0  2  0  0  0  0  0  0
  185.8160  177.9460  138.5590 O   0  0  0  0  0  0  0  0  0  0  0  0
  186.5390  176.0910  137.2220 C   0  0  0  0  0  2  0  0  0  0  0  0
  185.8100  173.7770  136.7560 O   0  0  0  0  0  1  0  0  0  0  0  0
  184.2790  175.6720  136.7250 C   0  0  0  0  0  3  0  0  0  0  0  0
  184.3280  176.9630  136.9890 C   0  0  0  0  0  3  0  0  0  0  0  0
  185.5680  175.1060  136.8020 N   0  0  0  0  0  0  0  0  0  0  0  0
  185.7360  177.3880  137.2780 C   0  0  1  0  0  3  0  0  0  0  0  0
  187.9790  178.3260  143.8200 C   0  0  0  0  0  2  0  0  0  0  0  0
  188.9720  177.3160  143.2590 C   0  0  1  0  0  3  0  0  0  0  0  0
  188.7350  177.1460  141.7910 C   0  0  0  0  0  0  0  0  0  0  0  0
  189.8140  176.7080  140.9590 N   0  0  0  0  0  2  0  0  0  0  0  0
  187.6070  177.4180  141.2950 O   0  0  0  0  0  0  0  0  0  0  0  0
  189.7770  176.6700  139.5020 C   0  0  2  0  0  3  0  0  0  0  0  0
  191.3860  176.1750  138.8060 S   0  0  0  0  0  0  0  0  0  0  0  0
  189.1700  178.1270  135.9690 C   0  0  0  0  0  1  0  0  0  0  0  0
  189.8950  177.7080  137.2030 C   0  0  0  0  0  0  0  0  0  0  0  0
  190.8310  176.7550  137.2070 C   0  0  0  0  0  0  0  0  0  0  0  0
  189.3410  178.2900  138.8000 S   0  0  0  0  0  0  0  0  0  0  0  0
  191.2510  176.0330  135.9780 C   0  0  0  0  0  1  0  0  0  0  0  0
  190.4250  177.7390  143.5220 C   0  0  1  0  0  3  0  0  0  0  0  0
  190.5720  179.1240  143.4300 O   0  0  0  0  0  1  0  0  0  0  0  0
  192.0980  175.2000  144.0790 C   0  0  0  0  0  1  0  0  0  0  0  0
  192.5600  174.8710  147.0010 O   0  0  0  0  0  1  0  0  0  0  0  0
  191.6070  176.1350  145.1370 C   0  0  0  0  0  0  0  0  0  0  0  0
  191.3060  176.9220  147.3420 C   0  0  0  0  0  3  0  0  0  0  0  0
  191.8450  175.9480  146.5060 C   0  0  0  0  0  0  0  0  0  0  0  0
  190.5320  178.0300  146.3390 S   0  0  0  0  0  0  0  0  0  0  0  0
  190.8860  177.2880  144.8710 C   0  0  0  0  0  0  0  0  0  0  0  0
  1 35  1  6  0  0  0
  1  6  1  0  0  0  0
  3  1  1  0  0  0  0
  5 10  1  1  0  0  0
  5  3  1  0  0  0  0
  5  9  1  0  0  0  0
  6  8  1  0  0  0  0
  6  2  1  1  0  0  0
  8  4  1  1  0  0  0
  8  7  1  0  0  0  0
  9  8  1  0  0  0  0
 10 11  2  0  0  0  0
 12 19  1  0  0  0  0
 13 18  1  0  0  0  0
 15 18  2  0  0  0  0
 15 12  1  0  0  0  0
 16 15  1  0  0  0  0
 17 16  2  0  0  0  0
 17 13  1  0  0  0  0
 18 10  1  0  0  0  0
 19 11  1  0  0  0  0
 19 14  2  0  0  0  0
 20 21  1  0  0  0  0
 20 16  1  0  0  0  0
 22 24  2  6  0  0  0
 22 26  1  0  0  0  0
 22 21  1  0  0  0  0
 22 23  1  0  0  0  0
 26 25  1  0  0  0  0
 27 17  1  0  0  0  0
 28 27  1  0  0  0  0
 29 34  1  0  0  0  0
 30 33  1  0  0  0  0
 31 33  1  0  0  0  0
 31 32  2  0  0  0  0
 32 34  1  0  0  0  0
 33 29  1  0  0  0  0
 34 28  1  1  0  0  0
 36 47  1  0  0  0  0
 36 35  1  6  0  0  0
 37 36  1  0  0  0  0
 38 37  1  0  0  0  0
 39 37  2  0  0  0  0
 40 38  1  1  0  0  0
 41 40  1  0  0  0  0
 42 43  1  0  0  0  0
 43 44  2  0  0  0  0
 43 45  1  0  0  0  0
 44 41  1  0  0  0  0
 45 40  1  0  0  0  0
 46 44  1  0  0  0  0
 47 48  1  1  0  0  0
 47 55  1  0  0  0  0
 49 51  1  0  0  0  0
 51 53  1  0  0  0  0
 53 50  1  0  0  0  0
 53 52  2  0  0  0  0
 54 52  1  0  0  0  0
 55 51  2  0  0  0  0
 55 54  1  0  0  0  0
M  END
>  <MODEL>
3

>  <REMARK>
 VINA RESULT:      -8.0      3.841      9.822
  Name = 
  14 active torsions:
  status: ('A' for Active; 'I' for Inactive)
    1  A    between atoms: P_1  and  C_26
    2  A    between atoms: P_1  and  C_53
    3  A    between atoms: C_2  and  C_23
    4  A    between atoms: C_3  and  C_17
    5  A    between atoms: C_3  and  C_55
    6  A    between atoms: C_5  and  C_33
    7  A    between atoms: C_9  and  C_17
    8  A    between atoms: C_17  and  C_33
    9  A    between atoms: C_19  and  N_28
   10  A    between atoms: O_25  and  N_43
   11  A    between atoms: O_25  and  C_54
   12  A    between atoms: C_26  and  C_40
   13  A    between atoms: C_31  and  C_40
   14  A    between atoms: C_39  and  N_43
                            x       y       z     vdW  Elec       q    Type
                         _______ _______ _______ _____ _____    ______ ____

>  <TORSDO>
F 14

$$$$
=
 OpenBabel11062415083D

 55 60  0  0  1  0  0  0  0  0999 V2000
  187.3010  177.6670  144.2220 C   0  0  2  0  0  3  0  0  0  0  0  0
  187.4790  177.1240  146.5450 F   0  0  0  0  0  0  0  0  0  0  0  0
  186.0360  177.6300  143.5970 O   0  0  0  0  0  0  0  0  0  0  0  0
  184.7580  177.6810  146.2020 C   0  0  0  0  0  1  0  0  0  0  0  0
  185.4720  178.9310  143.5820 C   0  0  2  0  0  3  0  0  0  0  0  0
  187.1920  178.1530  145.6640 C   0  0  2  0  0  3  0  0  0  0  0  0
  185.9030  179.5540  147.0770 O   0  0  0  0  0  1  0  0  0  0  0  0
  185.8100  178.7590  145.9340 C   0  0  2  0  0  0  0  0  0  0  0  0
  185.4080  179.5810  144.8520 O   0  0  0  0  0  0  0  0  0  0  0  0
  184.1240  178.8980  142.9110 C   0  0  0  0  0  0  0  0  0  0  0  0
  182.9860  178.9280  143.6240 C   0  0  0  0  0  3  0  0  0  0  0  0
  181.4880  178.8570  141.4710 C   0  0  0  0  0  2  0  0  0  0  0  0
  185.0210  178.7870  140.5880 O   0  0  0  0  0  0  0  0  0  0  0  0
  180.6220  178.9360  143.7010 O   0  0  0  0  0  0  0  0  0  0  0  0
  182.8210  178.8390  140.7900 C   0  0  0  0  0  0  0  0  0  0  0  0
  183.1180  178.7880  139.4480 C   0  0  0  0  0  0  0  0  0  0  0  0
  184.4980  178.7510  139.3830 C   0  0  0  0  0  0  0  0  0  0  0  0
  184.0260  178.8440  141.4450 C   0  0  0  0  0  0  0  0  0  0  0  0
  181.6490  178.9080  142.9750 C   0  0  0  0  0  0  0  0  0  0  0  0
  182.1610  178.7540  138.3030 C   0  0  0  0  0  2  0  0  0  0  0  0
  181.8990  177.3170  137.8950 C   0  0  0  0  0  2  0  0  0  0  0  0
  180.1150  177.0190  137.7930 P   0  0  2  0  0  0  0  0  0  0  0  0
  179.4980  178.0460  136.8720 O   0  0  0  0  0  0  0  0  0  0  0  0
  179.4230  177.1580  139.3360 O   0  0  0  0  0  1  0  0  0  0  0  0
  180.6610  174.3480  137.8830 C   0  0  0  0  0  1  0  0  0  0  0  0
  179.8160  175.3530  137.1380 C   0  0  0  0  0  2  0  0  0  0  0  0
  185.2670  178.6680  138.1850 N   0  0  0  0  0  2  0  0  0  0  0  0
  185.2370  177.5520  137.4160 O   0  0  0  0  0  0  0  0  0  0  0  0
  186.7910  175.8090  136.8660 C   0  0  0  0  0  2  0  0  0  0  0  0
  187.5310  174.5870  134.8500 O   0  0  0  0  0  1  0  0  0  0  0  0
  187.3290  177.0140  134.9190 C   0  0  0  0  0  3  0  0  0  0  0  0
  186.9120  177.9290  135.7720 C   0  0  0  0  0  3  0  0  0  0  0  0
  187.3240  175.7410  135.5240 N   0  0  0  0  0  0  0  0  0  0  0  0
  186.5770  177.3040  137.0930 C   0  0  1  0  0  3  0  0  0  0  0  0
  188.3240  178.4660  143.4120 C   0  0  0  0  0  2  0  0  0  0  0  0
  189.5280  177.6010  143.0600 C   0  0  1  0  0  3  0  0  0  0  0  0
  189.6730  177.5300  141.5730 C   0  0  0  0  0  0  0  0  0  0  0  0
  190.8910  177.0220  141.0170 N   0  0  0  0  0  2  0  0  0  0  0  0
  188.7450  177.9440  140.8240 O   0  0  0  0  0  0  0  0  0  0  0  0
  191.2370  177.0600  139.6010 C   0  0  2  0  0  3  0  0  0  0  0  0
  190.1950  175.9260  138.6280 S   0  0  0  0  0  0  0  0  0  0  0  0
  193.6210  176.8040  136.5640 C   0  0  0  0  0  1  0  0  0  0  0  0
  192.6070  176.4070  137.5830 C   0  0  0  0  0  0  0  0  0  0  0  0
  191.3480  176.0910  137.2710 C   0  0  0  0  0  0  0  0  0  0  0  0
  192.9730  176.5990  139.3230 S   0  0  0  0  0  0  0  0  0  0  0  0
  190.8420  176.0890  135.8730 C   0  0  0  0  0  1  0  0  0  0  0  0
  190.8180  178.1330  143.7000 C   0  0  1  0  0  3  0  0  0  0  0  0
  190.7770  179.5200  143.8410 O   0  0  0  0  0  1  0  0  0  0  0  0
  192.0820  175.3540  144.1840 C   0  0  0  0  0  1  0  0  0  0  0  0
  192.1470  174.7240  147.0930 O   0  0  0  0  0  1  0  0  0  0  0  0
  191.5890  176.2550  145.2700 C   0  0  0  0  0  0  0  0  0  0  0  0
  191.1260  176.8900  147.4960 C   0  0  0  0  0  3  0  0  0  0  0  0
  191.6350  175.9250  146.6310 C   0  0  0  0  0  0  0  0  0  0  0  0
  190.6230  178.1730  146.5280 S   0  0  0  0  0  0  0  0  0  0  0  0
  191.0540  177.5130  145.0410 C   0  0  0  0  0  0  0  0  0  0  0  0
  1 35  1  6  0  0  0
  1  6  1  0  0  0  0
  3  1  1  0  0  0  0
  5 10  1  1  0  0  0
  5  3  1  0  0  0  0
  5  9  1  0  0  0  0
  6  8  1  0  0  0  0
  6  2  1  1  0  0  0
  8  4  1  1  0  0  0
  8  7  1  0  0  0  0
  9  8  1  0  0  0  0
 10 11  2  0  0  0  0
 12 19  1  0  0  0  0
 13 18  1  0  0  0  0
 15 18  2  0  0  0  0
 15 12  1  0  0  0  0
 16 15  1  0  0  0  0
 17 16  2  0  0  0  0
 17 13  1  0  0  0  0
 18 10  1  0  0  0  0
 19 11  1  0  0  0  0
 19 14  2  0  0  0  0
 20 16  1  0  0  0  0
 21 20  1  0  0  0  0
 22 23  2  6  0  0  0
 22 21  1  0  0  0  0
 22 24  1  0  0  0  0
 26 22  1  0  0  0  0
 26 25  1  0  0  0  0
 27 17  1  0  0  0  0
 28 27  1  0  0  0  0
 29 34  1  0  0  0  0
 30 33  1  0  0  0  0
 31 33  1  0  0  0  0
 31 32  2  0  0  0  0
 32 34  1  0  0  0  0
 33 29  1  0  0  0  0
 34 28  1  6  0  0  0
 36 35  1  6  0  0  0
 36 47  1  0  0  0  0
 37 36  1  0  0  0  0
 38 37  1  0  0  0  0
 39 37  2  0  0  0  0
 40 38  1  1  0  0  0
 41 40  1  0  0  0  0
 42 43  1  0  0  0  0
 43 45  1  0  0  0  0
 44 43  2  0  0  0  0
 44 41  1  0  0  0  0
 45 40  1  0  0  0  0
 46 44  1  0  0  0  0
 47 48  1  1  0  0  0
 47 55  1  0  0  0  0
 49 51  1  0  0  0  0
 51 53  1  0  0  0  0
 53 50  1  0  0  0  0
 53 52  2  0  0  0  0
 54 52  1  0  0  0  0
 55 51  2  0  0  0  0
 55 54  1  0  0  0  0
M  END
>  <MODEL>
4

>  <REMARK>
 VINA RESULT:      -7.4      3.806     10.064
  Name = 
  14 active torsions:
  status: ('A' for Active; 'I' for Inactive)
    1  A    between atoms: P_1  and  C_26
    2  A    between atoms: P_1  and  C_53
    3  A    between atoms: C_2  and  C_23
    4  A    between atoms: C_3  and  C_17
    5  A    between atoms: C_3  and  C_55
    6  A    between atoms: C_5  and  C_33
    7  A    between atoms: C_9  and  C_17
    8  A    between atoms: C_17  and  C_33
    9  A    between atoms: C_19  and  N_28
   10  A    between atoms: O_25  and  N_43
   11  A    between atoms: O_25  and  C_54
   12  A    between atoms: C_26  and  C_40
   13  A    between atoms: C_31  and  C_40
   14  A    between atoms: C_39  and  N_43
                            x       y       z     vdW  Elec       q    Type
                         _______ _______ _______ _____ _____    ______ ____

>  <TORSDO>
F 14

$$$$
=
 OpenBabel11062415083D

 55 60  0  0  1  0  0  0  0  0999 V2000
  182.4950  177.9230  137.8540 C   0  0  2  0  0  3  0  0  0  0  0  0
  181.6550  179.7750  136.5940 F   0  0  0  0  0  0  0  0  0  0  0  0
  183.3530  178.1630  138.9500 O   0  0  0  0  0  0  0  0  0  0  0  0
  182.5070  180.9390  138.9920 C   0  0  0  0  0  1  0  0  0  0  0  0
  182.5980  178.1850  140.1510 C   0  0  2  0  0  3  0  0  0  0  0  0
  181.4370  179.0160  137.7310 C   0  0  2  0  0  3  0  0  0  0  0  0
  180.1750  180.5560  139.0160 O   0  0  0  0  0  1  0  0  0  0  0  0
  181.3980  179.8860  138.9930 C   0  0  2  0  0  0  0  0  0  0  0  0
  181.4860  179.0790  140.1550 O   0  0  0  0  0  0  0  0  0  0  0  0
  183.5100  178.4350  141.3240 C   0  0  0  0  0  0  0  0  0  0  0  0
  183.0230  178.6260  142.5610 C   0  0  0  0  0  3  0  0  0  0  0  0
  185.4170  178.8980  143.5980 C   0  0  0  0  0  2  0  0  0  0  0  0
  185.6230  178.3220  140.0080 O   0  0  0  0  0  0  0  0  0  0  0  0
  183.3890  179.0350  144.8620 O   0  0  0  0  0  0  0  0  0  0  0  0
  185.8370  178.6630  142.1810 C   0  0  0  0  0  0  0  0  0  0  0  0
  187.0990  178.6220  141.6370 C   0  0  0  0  0  0  0  0  0  0  0  0
  186.9040  178.4150  140.2840 C   0  0  0  0  0  0  0  0  0  0  0  0
  184.9670  178.4640  141.1380 C   0  0  0  0  0  0  0  0  0  0  0  0
  183.9090  178.8620  143.7300 C   0  0  0  0  0  0  0  0  0  0  0  0
  188.4030  178.7920  142.3440 C   0  0  0  0  0  2  0  0  0  0  0  0
  188.9110  177.4420  142.8130 C   0  0  0  0  0  2  0  0  0  0  0  0
  190.2740  177.6700  143.9860 P   0  0  2  0  0  0  0  0  0  0  0  0
  190.7620  179.0970  143.8980 O   0  0  0  0  0  1  0  0  0  0  0  0
  191.5440  176.6150  143.5980 O   0  0  0  0  0  0  0  0  0  0  0  0
  188.1920  177.5300  145.7440 C   0  0  0  0  0  1  0  0  0  0  0  0
  189.6870  177.3270  145.6690 C   0  0  0  0  0  2  0  0  0  0  0  0
  187.9370  178.3280  139.3040 N   0  0  0  0  0  2  0  0  0  0  0  0
  187.6840  178.6070  138.0010 O   0  0  0  0  0  0  0  0  0  0  0  0
  189.8020  177.5120  138.2660 C   0  0  0  0  0  2  0  0  0  0  0  0
  190.7050  175.2170  138.1210 O   0  0  0  0  0  1  0  0  0  0  0  0
  189.2460  176.1680  136.4170 C   0  0  0  0  0  3  0  0  0  0  0  0
  188.5640  177.2820  136.2360 C   0  0  0  0  0  3  0  0  0  0  0  0
  190.0360  176.2600  137.5810 N   0  0  0  0  0  0  0  0  0  0  0  0
  188.8620  178.2660  137.3270 C   0  0  1  0  0  3  0  0  0  0  0  0
  181.8860  176.5210  137.8930 C   0  0  0  0  0  2  0  0  0  0  0  0
  181.0920  176.2430  136.6220 C   0  0  1  0  0  3  0  0  0  0  0  0
  181.7340  175.1230  135.8680 C   0  0  0  0  0  0  0  0  0  0  0  0
  182.6300  174.2440  136.5570 N   0  0  0  0  0  2  0  0  0  0  0  0
  181.5120  174.9780  134.6340 O   0  0  0  0  0  0  0  0  0  0  0  0
  183.4560  173.2290  135.9160 C   0  0  2  0  0  3  0  0  0  0  0  0
  182.6610  171.5900  135.9690 S   0  0  0  0  0  0  0  0  0  0  0  0
  186.6880  171.1780  135.3510 C   0  0  0  0  0  1  0  0  0  0  0  0
  185.3310  171.5380  135.8520 C   0  0  0  0  0  0  0  0  0  0  0  0
  184.2310  170.8560  135.5240 C   0  0  0  0  0  0  0  0  0  0  0  0
  185.0830  173.0850  136.7140 S   0  0  0  0  0  0  0  0  0  0  0  0
  184.2580  169.6600  134.6410 C   0  0  0  0  0  1  0  0  0  0  0  0
  179.6240  175.9110  136.9290 C   0  0  1  0  0  3  0  0  0  0  0  0
  179.0390  175.1980  135.8830 O   0  0  0  0  0  1  0  0  0  0  0  0
  178.9370  177.0730  139.7100 C   0  0  0  0  0  1  0  0  0  0  0  0
  178.9630  174.9300  141.7760 O   0  0  0  0  0  1  0  0  0  0  0  0
  179.2260  175.6300  139.4480 C   0  0  0  0  0  0  0  0  0  0  0  0
  179.5220  173.3570  140.0130 C   0  0  0  0  0  3  0  0  0  0  0  0
  179.2280  174.6470  140.4470 C   0  0  0  0  0  0  0  0  0  0  0  0
  179.7710  173.4630  138.3510 S   0  0  0  0  0  0  0  0  0  0  0  0
  179.5000  175.1160  138.1910 C   0  0  0  0  0  0  0  0  0  0  0  0
  1 35  1  1  0  0  0
  1  3  1  0  0  0  0
  3  5  1  0  0  0  0
  5  9  1  0  0  0  0
  5 10  1  1  0  0  0
  6  2  1  6  0  0  0
  6  1  1  0  0  0  0
  6  8  1  0  0  0  0
  8  4  1  6  0  0  0
  8  7  1  0  0  0  0
  8  9  1  0  0  0  0
 10 11  2  0  0  0  0
 11 19  1  0  0  0  0
 12 19  1  0  0  0  0
 13 17  1  0  0  0  0
 13 18  1  0  0  0  0
 15 12  1  0  0  0  0
 16 15  1  0  0  0  0
 16 20  1  0  0  0  0
 17 16  2  0  0  0  0
 18 10  1  0  0  0  0
 18 15  2  0  0  0  0
 19 14  2  0  0  0  0
 20 21  1  0  0  0  0
 21 22  1  0  0  0  0
 22 24  2  6  0  0  0
 22 26  1  0  0  0  0
 23 22  1  0  0  0  0
 26 25  1  0  0  0  0
 27 17  1  0  0  0  0
 28 27  1  0  0  0  0
 31 33  1  0  0  0  0
 32 31  2  0  0  0  0
 32 34  1  0  0  0  0
 33 30  1  0  0  0  0
 33 29  1  0  0  0  0
 34 28  1  1  0  0  0
 34 29  1  0  0  0  0
 36 47  1  0  0  0  0
 36 35  1  1  0  0  0
 37 38  1  0  0  0  0
 37 36  1  0  0  0  0
 39 37  2  0  0  0  0
 40 41  1  0  0  0  0
 40 38  1  1  0  0  0
 40 45  1  0  0  0  0
 42 43  1  0  0  0  0
 43 45  1  0  0  0  0
 44 43  2  0  0  0  0
 44 41  1  0  0  0  0
 46 44  1  0  0  0  0
 47 48  1  6  0  0  0
 47 55  1  0  0  0  0
 51 49  1  0  0  0  0
 51 53  1  0  0  0  0
 52 53  2  0  0  0  0
 53 50  1  0  0  0  0
 54 52  1  0  0  0  0
 55 54  1  0  0  0  0
 55 51  2  0  0  0  0
M  END
>  <MODEL>
5

>  <REMARK>
 VINA RESULT:      -6.7      2.713      6.204
  Name = 
  14 active torsions:
  status: ('A' for Active; 'I' for Inactive)
    1  A    between atoms: P_1  and  C_26
    2  A    between atoms: P_1  and  C_53
    3  A    between atoms: C_2  and  C_23
    4  A    between atoms: C_3  and  C_17
    5  A    between atoms: C_3  and  C_55
    6  A    between atoms: C_5  and  C_33
    7  A    between atoms: C_9  and  C_17
    8  A    between atoms: C_17  and  C_33
    9  A    between atoms: C_19  and  N_28
   10  A    between atoms: O_25  and  N_43
   11  A    between atoms: O_25  and  C_54
   12  A    between atoms: C_26  and  C_40
   13  A    between atoms: C_31  and  C_40
   14  A    between atoms: C_39  and  N_43
                            x       y       z     vdW  Elec       q    Type
                         _______ _______ _______ _____ _____    ______ ____

>  <TORSDO>
F 14

$$$$
=
 OpenBabel11062415083D

 55 60  0  0  1  0  0  0  0  0999 V2000
  181.4100  179.3710  139.3300 C   0  0  2  0  0  3  0  0  0  0  0  0
  179.0820  179.8100  139.6560 F   0  0  0  0  0  0  0  0  0  0  0  0
  182.3110  179.5810  140.3970 O   0  0  0  0  0  0  0  0  0  0  0  0
  180.0860  179.5970  142.2600 C   0  0  0  0  0  1  0  0  0  0  0  0
  182.5370  178.3580  141.0790 C   0  0  2  0  0  3  0  0  0  0  0  0
  180.0670  178.8540  139.8340 C   0  0  2  0  0  3  0  0  0  0  0  0
  179.0830  177.5720  141.5690 O   0  0  0  0  0  1  0  0  0  0  0  0
  180.1650  178.4100  141.2990 C   0  0  2  0  0  0  0  0  0  0  0  0
  181.3600  177.6790  141.5170 O   0  0  0  0  0  0  0  0  0  0  0  0
  183.5020  178.5760  142.2150 C   0  0  0  0  0  0  0  0  0  0  0  0
  183.0700  178.8220  143.4630 C   0  0  0  0  0  3  0  0  0  0  0  0
  185.5110  178.9670  144.4140 C   0  0  0  0  0  2  0  0  0  0  0  0
  185.5580  178.3050  140.8330 O   0  0  0  0  0  0  0  0  0  0  0  0
  183.5400  179.2550  145.7410 O   0  0  0  0  0  0  0  0  0  0  0  0
  185.8670  178.6770  142.9890 C   0  0  0  0  0  0  0  0  0  0  0  0
  187.1040  178.5470  142.4040 C   0  0  0  0  0  0  0  0  0  0  0  0
  186.8510  178.3250  141.0630 C   0  0  0  0  0  0  0  0  0  0  0  0
  184.9510  178.5110  141.9810 C   0  0  0  0  0  0  0  0  0  0  0  0
  184.0090  179.0260  144.5960 C   0  0  0  0  0  0  0  0  0  0  0  0
  188.4390  178.6500  143.0630 C   0  0  0  0  0  2  0  0  0  0  0  0
  188.6920  177.4160  143.9080 C   0  0  0  0  0  2  0  0  0  0  0  0
  190.2060  176.5890  143.3550 P   0  0  2  0  0  0  0  0  0  0  0  0
  190.7620  177.3310  142.1610 O   0  0  0  0  0  0  0  0  0  0  0  0
  189.8560  174.9900  142.9120 O   0  0  0  0  0  1  0  0  0  0  0  0
  190.7300  176.3920  146.0260 C   0  0  0  0  0  1  0  0  0  0  0  0
  191.4260  176.5970  144.7010 C   0  0  0  0  0  2  0  0  0  0  0  0
  187.8420  178.1540  140.0520 N   0  0  0  0  0  2  0  0  0  0  0  0
  187.6680  178.6770  138.8140 O   0  0  0  0  0  0  0  0  0  0  0  0
  188.2100  176.5480  137.8500 C   0  0  0  0  0  2  0  0  0  0  0  0
  187.6360  175.2580  135.8230 O   0  0  0  0  0  1  0  0  0  0  0  0
  188.2810  177.6070  135.7510 C   0  0  0  0  0  3  0  0  0  0  0  0
  188.5640  178.5620  136.6150 C   0  0  0  0  0  3  0  0  0  0  0  0
  188.1050  176.3770  136.4190 N   0  0  0  0  0  0  0  0  0  0  0  0
  188.6040  178.0150  138.0110 C   0  0  1  0  0  3  0  0  0  0  0  0
  182.0060  178.4820  138.2370 C   0  0  0  0  0  2  0  0  0  0  0  0
  180.9350  178.0700  137.2350 C   0  0  1  0  0  3  0  0  0  0  0  0
  180.1510  179.2740  136.8180 C   0  0  0  0  0  0  0  0  0  0  0  0
  180.7870  180.5570  136.8350 N   0  0  0  0  0  2  0  0  0  0  0  0
  178.9380  179.1600  136.4880 O   0  0  0  0  0  0  0  0  0  0  0  0
  180.1010  181.8260  136.6280 C   0  0  2  0  0  3  0  0  0  0  0  0
  180.4860  182.5330  134.9930 S   0  0  0  0  0  0  0  0  0  0  0  0
  179.1130  185.4640  137.5010 C   0  0  0  0  0  1  0  0  0  0  0  0
  179.8370  184.3270  136.8650 C   0  0  0  0  0  0  0  0  0  0  0  0
  179.8120  184.0940  135.5510 C   0  0  0  0  0  0  0  0  0  0  0  0
  180.5650  183.0530  137.8880 S   0  0  0  0  0  0  0  0  0  0  0  0
  179.0710  184.9570  134.5940 C   0  0  0  0  0  1  0  0  0  0  0  0
  181.5410  177.3730  136.0070 C   0  0  1  0  0  3  0  0  0  0  0  0
  182.4710  178.1940  135.3700 O   0  0  0  0  0  1  0  0  0  0  0  0
  180.1480  174.6170  136.1320 C   0  0  0  0  0  1  0  0  0  0  0  0
  182.0490  172.5230  137.0600 O   0  0  0  0  0  1  0  0  0  0  0  0
  181.5830  174.8520  136.4780 C   0  0  0  0  0  0  0  0  0  0  0  0
  183.7520  174.2500  137.1890 C   0  0  0  0  0  3  0  0  0  0  0  0
  182.4500  173.8400  136.9110 C   0  0  0  0  0  0  0  0  0  0  0  0
  183.8040  175.9030  136.8740 S   0  0  0  0  0  0  0  0  0  0  0  0
  182.2040  176.0870  136.3860 C   0  0  0  0  0  0  0  0  0  0  0  0
  1 35  1  6  0  0  0
  1  6  1  0  0  0  0
  1  3  1  0  0  0  0
  3  5  1  0  0  0  0
  5  9  1  0  0  0  0
  5 10  1  1  0  0  0
  6  2  1  1  0  0  0
  6  8  1  0  0  0  0
  8  9  1  0  0  0  0
  8  7  1  0  0  0  0
  8  4  1  1  0  0  0
 10 11  2  0  0  0  0
 11 19  1  0  0  0  0
 12 19  1  0  0  0  0
 13 17  1  0  0  0  0
 13 18  1  0  0  0  0
 15 12  1  0  0  0  0
 16 15  1  0  0  0  0
 16 20  1  0  0  0  0
 17 16  2  0  0  0  0
 18 10  1  0  0  0  0
 18 15  2  0  0  0  0
 19 14  2  0  0  0  0
 20 21  1  0  0  0  0
 22 23  2  6  0  0  0
 22 21  1  0  0  0  0
 22 26  1  0  0  0  0
 24 22  1  0  0  0  0
 26 25  1  0  0  0  0
 27 17  1  0  0  0  0
 28 27  1  0  0  0  0
 29 34  1  0  0  0  0
 30 33  1  0  0  0  0
 31 33  1  0  0  0  0
 31 32  2  0  0  0  0
 32 34  1  0  0  0  0
 33 29  1  0  0  0  0
 34 28  1  1  0  0  0
 36 35  1  1  0  0  0
 37 38  1  0  0  0  0
 37 36  1  0  0  0  0
 39 37  2  0  0  0  0
 40 38  1  1  0  0  0
 40 45  1  0  0  0  0
 41 44  1  0  0  0  0
 41 40  1  0  0  0  0
 43 42  1  0  0  0  0
 43 45  1  0  0  0  0
 44 43  2  0  0  0  0
 46 44  1  0  0  0  0
 47 48  1  1  0  0  0
 47 55  1  0  0  0  0
 47 36  1  0  0  0  0
 49 51  1  0  0  0  0
 51 53  1  0  0  0  0
 53 50  1  0  0  0  0
 53 52  2  0  0  0  0
 54 52  1  0  0  0  0
 55 51  2  0  0  0  0
 55 54  1  0  0  0  0
M  END
>  <MODEL>
6

>  <REMARK>
 VINA RESULT:      -6.3      3.252      7.836
  Name = 
  14 active torsions:
  status: ('A' for Active; 'I' for Inactive)
    1  A    between atoms: P_1  and  C_26
    2  A    between atoms: P_1  and  C_53
    3  A    between atoms: C_2  and  C_23
    4  A    between atoms: C_3  and  C_17
    5  A    between atoms: C_3  and  C_55
    6  A    between atoms: C_5  and  C_33
    7  A    between atoms: C_9  and  C_17
    8  A    between atoms: C_17  and  C_33
    9  A    between atoms: C_19  and  N_28
   10  A    between atoms: O_25  and  N_43
   11  A    between atoms: O_25  and  C_54
   12  A    between atoms: C_26  and  C_40
   13  A    between atoms: C_31  and  C_40
   14  A    between atoms: C_39  and  N_43
                            x       y       z     vdW  Elec       q    Type
                         _______ _______ _______ _____ _____    ______ ____

>  <TORSDO>
F 14

$$$$
=
 OpenBabel11062415083D

 55 60  0  0  1  0  0  0  0  0999 V2000
  188.9320  178.4590  142.0000 C   0  0  2  0  0  3  0  0  0  0  0  0
  190.2410  179.1180  143.8910 F   0  0  0  0  0  0  0  0  0  0  0  0
  189.5780  178.1560  140.7820 O   0  0  0  0  0  0  0  0  0  0  0  0
  192.0980  177.8890  142.1950 C   0  0  0  0  0  1  0  0  0  0  0  0
  189.7810  176.7560  140.6840 C   0  0  2  0  0  3  0  0  0  0  0  0
  189.7700  178.0170  143.1950 C   0  0  2  0  0  3  0  0  0  0  0  0
  191.3610  176.3950  143.8710 O   0  0  0  0  0  1  0  0  0  0  0  0
  190.9140  177.0970  142.7520 C   0  0  2  0  0  0  0  0  0  0  0  0
  190.4540  176.1600  141.7930 O   0  0  0  0  0  0  0  0  0  0  0  0
  190.4650  176.4270  139.3830 C   0  0  0  0  0  0  0  0  0  0  0  0
  191.8010  176.4720  139.2630 C   0  0  0  0  0  3  0  0  0  0  0  0
  191.7290  175.7240  136.7500 C   0  0  0  0  0  2  0  0  0  0  0  0
  188.3650  175.9550  138.1260 O   0  0  0  0  0  0  0  0  0  0  0  0
  193.7470  176.2020  137.9440 O   0  0  0  0  0  0  0  0  0  0  0  0
  190.2550  175.7000  137.0100 C   0  0  0  0  0  0  0  0  0  0  0  0
  189.2200  175.3880  136.1600 C   0  0  0  0  0  0  0  0  0  0  0  0
  188.0700  175.5710  136.9050 C   0  0  0  0  0  0  0  0  0  0  0  0
  189.6740  176.0340  138.2080 C   0  0  0  0  0  0  0  0  0  0  0  0
  192.4910  176.1380  137.9900 C   0  0  0  0  0  0  0  0  0  0  0  0
  189.3100  174.9680  134.7300 C   0  0  0  0  0  2  0  0  0  0  0  0
  189.9350  173.5890  134.6390 C   0  0  0  0  0  2  0  0  0  0  0  0
  188.7600  172.3380  135.2200 P   0  0  2  0  0  0  0  0  0  0  0  0
  188.7650  172.3250  136.7320 O   0  0  0  0  0  1  0  0  0  0  0  0
  189.2160  170.8110  134.6420 O   0  0  0  0  0  0  0  0  0  0  0  0
  186.0640  171.9440  135.3770 C   0  0  0  0  0  1  0  0  0  0  0  0
  187.0960  172.7470  134.6200 C   0  0  0  0  0  2  0  0  0  0  0  0
  186.7380  175.3890  136.4280 N   0  0  0  0  0  2  0  0  0  0  0  0
  186.1840  176.2720  135.5610 O   0  0  0  0  0  0  0  0  0  0  0  0
  183.9920  175.3800  135.1680 C   0  0  0  0  0  2  0  0  0  0  0  0
  182.6280  173.4720  135.9420 O   0  0  0  0  0  1  0  0  0  0  0  0
  183.8550  174.9190  137.4700 C   0  0  0  0  0  3  0  0  0  0  0  0
  184.6970  175.9300  137.3830 C   0  0  0  0  0  3  0  0  0  0  0  0
  183.3670  174.5750  136.1930 N   0  0  0  0  0  0  0  0  0  0  0  0
  184.8450  176.3710  135.9580 C   0  0  1  0  0  3  0  0  0  0  0  0
  187.5060  177.9090  142.0510 C   0  0  0  0  0  2  0  0  0  0  0  0
  186.7680  178.4360  143.2760 C   0  0  1  0  0  3  0  0  0  0  0  0
  185.4770  179.0610  142.8500 C   0  0  0  0  0  0  0  0  0  0  0  0
  184.8030  178.5470  141.6960 N   0  0  0  0  0  2  0  0  0  0  0  0
  185.0100  180.0480  143.4830 O   0  0  0  0  0  0  0  0  0  0  0  0
  183.6420  179.1660  141.0690 C   0  0  2  0  0  3  0  0  0  0  0  0
  182.0930  178.6490  141.8760 S   0  0  0  0  0  0  0  0  0  0  0  0
  181.3110  180.0570  138.1120 C   0  0  0  0  0  1  0  0  0  0  0  0
  181.8400  179.3410  139.3080 C   0  0  0  0  0  0  0  0  0  0  0  0
  181.1900  179.2930  140.4720 C   0  0  0  0  0  0  0  0  0  0  0  0
  183.5220  178.7330  139.3070 S   0  0  0  0  0  0  0  0  0  0  0  0
  179.8650  179.9340  140.6820 C   0  0  0  0  0  1  0  0  0  0  0  0
  186.5120  177.3270  144.3080 C   0  0  1  0  0  3  0  0  0  0  0  0
  187.4400  176.2940  144.1780 O   0  0  0  0  0  1  0  0  0  0  0  0
  188.9570  177.1470  146.1900 C   0  0  0  0  0  1  0  0  0  0  0  0
  188.3220  178.3250  148.8480 O   0  0  0  0  0  1  0  0  0  0  0  0
  187.6460  177.7570  146.5680 C   0  0  0  0  0  0  0  0  0  0  0  0
  186.1020  178.8250  148.0000 C   0  0  0  0  0  3  0  0  0  0  0  0
  187.3830  178.3040  147.8310 C   0  0  0  0  0  0  0  0  0  0  0  0
  185.3040  178.5980  146.5350 S   0  0  0  0  0  0  0  0  0  0  0  0
  186.5680  177.8620  145.7040 C   0  0  0  0  0  0  0  0  0  0  0  0
  1 35  1  6  0  0  0
  1  6  1  0  0  0  0
  3  1  1  0  0  0  0
  5 10  1  6  0  0  0
  5  3  1  0  0  0  0
  5  9  1  0  0  0  0
  6  2  1  6  0  0  0
  8  4  1  6  0  0  0
  8  6  1  0  0  0  0
  8  7  1  0  0  0  0
  9  8  1  0  0  0  0
 11 10  2  0  0  0  0
 12 15  1  0  0  0  0
 12 19  1  0  0  0  0
 13 18  1  0  0  0  0
 14 19  2  0  0  0  0
 15 18  2  0  0  0  0
 16 17  2  0  0  0  0
 16 15  1  0  0  0  0
 17 13  1  0  0  0  0
 18 10  1  0  0  0  0
 19 11  1  0  0  0  0
 20 16  1  0  0  0  0
 21 20  1  0  0  0  0
 21 22  1  0  0  0  0
 22 24  2  6  0  0  0
 22 23  1  0  0  0  0
 26 22  1  0  0  0  0
 26 25  1  0  0  0  0
 27 17  1  0  0  0  0
 28 27  1  0  0  0  0
 29 34  1  0  0  0  0
 29 33  1  0  0  0  0
 30 33  1  0  0  0  0
 32 31  2  0  0  0  0
 33 31  1  0  0  0  0
 34 28  1  6  0  0  0
 34 32  1  0  0  0  0
 36 35  1  6  0  0  0
 36 47  1  0  0  0  0
 37 36  1  0  0  0  0
 37 39  2  0  0  0  0
 38 37  1  0  0  0  0
 40 38  1  1  0  0  0
 40 41  1  0  0  0  0
 42 43  1  0  0  0  0
 43 44  2  0  0  0  0
 44 46  1  0  0  0  0
 44 41  1  0  0  0  0
 45 43  1  0  0  0  0
 45 40  1  0  0  0  0
 47 48  1  1  0  0  0
 47 55  1  0  0  0  0
 49 51  1  0  0  0  0
 51 53  1  0  0  0  0
 53 52  2  0  0  0  0
 53 50  1  0  0  0  0
 54 52  1  0  0  0  0
 55 54  1  0  0  0  0
 55 51  2  0  0  0  0
M  END
>  <MODEL>
7

>  <REMARK>
 VINA RESULT:      -6.2      3.222      8.044
  Name = 
  14 active torsions:
  status: ('A' for Active; 'I' for Inactive)
    1  A    between atoms: P_1  and  C_26
    2  A    between atoms: P_1  and  C_53
    3  A    between atoms: C_2  and  C_23
    4  A    between atoms: C_3  and  C_17
    5  A    between atoms: C_3  and  C_55
    6  A    between atoms: C_5  and  C_33
    7  A    between atoms: C_9  and  C_17
    8  A    between atoms: C_17  and  C_33
    9  A    between atoms: C_19  and  N_28
   10  A    between atoms: O_25  and  N_43
   11  A    between atoms: O_25  and  C_54
   12  A    between atoms: C_26  and  C_40
   13  A    between atoms: C_31  and  C_40
   14  A    between atoms: C_39  and  N_43
                            x       y       z     vdW  Elec       q    Type
                         _______ _______ _______ _____ _____    ______ ____

>  <TORSDO>
F 14

$$$$
=
 OpenBabel11062415083D

 55 60  0  0  1  0  0  0  0  0999 V2000
  189.1240  177.4660  140.0860 C   0  0  2  0  0  3  0  0  0  0  0  0
  190.9950  176.0310  140.4870 F   0  0  0  0  0  0  0  0  0  0  0  0
  188.0060  177.4030  140.9460 O   0  0  0  0  0  0  0  0  0  0  0  0
  189.6150  176.0160  142.9220 C   0  0  0  0  0  1  0  0  0  0  0  0
  188.1120  178.4070  141.9420 C   0  0  2  0  0  3  0  0  0  0  0  0
  190.4230  177.2380  140.8510 C   0  0  2  0  0  3  0  0  0  0  0  0
  191.4220  177.5390  142.9800 O   0  0  0  0  0  1  0  0  0  0  0  0
  190.1890  177.3200  142.3640 C   0  0  2  0  0  0  0  0  0  0  0  0
  189.3360  178.4070  142.6770 O   0  0  0  0  0  0  0  0  0  0  0  0
  186.9180  178.3480  142.8590 C   0  0  0  0  0  0  0  0  0  0  0  0
  187.0620  178.3250  144.1940 C   0  0  0  0  0  3  0  0  0  0  0  0
  184.4700  178.2580  144.5970 C   0  0  0  0  0  2  0  0  0  0  0  0
  185.2210  178.3200  141.0340 O   0  0  0  0  0  0  0  0  0  0  0  0
  186.0960  178.2570  146.3530 O   0  0  0  0  0  0  0  0  0  0  0  0
  184.4400  178.2980  143.1010 C   0  0  0  0  0  0  0  0  0  0  0  0
  183.3640  178.2890  142.2460 C   0  0  0  0  0  0  0  0  0  0  0  0
  183.9090  178.2970  140.9760 C   0  0  0  0  0  0  0  0  0  0  0  0
  185.5570  178.3260  142.3050 C   0  0  0  0  0  0  0  0  0  0  0  0
  185.8940  178.2790  145.1110 C   0  0  0  0  0  0  0  0  0  0  0  0
  181.9150  178.2520  142.6040 C   0  0  0  0  0  2  0  0  0  0  0  0
  181.3940  179.6660  142.7800 C   0  0  0  0  0  2  0  0  0  0  0  0
  179.5820  179.6650  142.7360 P   0  0  2  0  0  0  0  0  0  0  0  0
  179.0580  179.9860  144.1170 O   0  0  0  0  0  1  0  0  0  0  0  0
  179.0220  178.1370  142.2610 O   0  0  0  0  0  0  0  0  0  0  0  0
  179.8760  180.9060  140.3230 C   0  0  0  0  0  1  0  0  0  0  0  0
  179.0050  180.9200  141.5570 C   0  0  0  0  0  2  0  0  0  0  0  0
  183.1680  178.2660  139.7580 N   0  0  0  0  0  2  0  0  0  0  0  0
  183.3630  177.2790  138.8500 O   0  0  0  0  0  0  0  0  0  0  0  0
  181.8490  175.6880  137.8840 C   0  0  0  0  0  2  0  0  0  0  0  0
  179.9970  174.2360  138.6350 O   0  0  0  0  0  1  0  0  0  0  0  0
  180.1590  176.5880  139.2510 C   0  0  0  0  0  3  0  0  0  0  0  0
  181.0170  177.5760  139.0870 C   0  0  0  0  0  3  0  0  0  0  0  0
  180.5740  175.4530  138.5240 N   0  0  0  0  0  0  0  0  0  0  0  0
  182.1370  177.1570  138.1840 C   0  0  1  0  0  3  0  0  0  0  0  0
  189.1480  178.7540  139.2620 C   0  0  0  0  0  2  0  0  0  0  0  0
  188.4740  178.5440  137.9120 C   0  0  1  0  0  3  0  0  0  0  0  0
  189.4130  177.8290  136.9920 C   0  0  0  0  0  0  0  0  0  0  0  0
  190.3880  176.9400  137.5470 N   0  0  0  0  0  2  0  0  0  0  0  0
  189.3640  178.0360  135.7480 O   0  0  0  0  0  0  0  0  0  0  0  0
  191.4710  176.3200  136.7940 C   0  0  2  0  0  3  0  0  0  0  0  0
  191.1100  174.5740  136.4200 S   0  0  0  0  0  0  0  0  0  0  0  0
  195.1370  175.2640  136.1440 C   0  0  0  0  0  1  0  0  0  0  0  0
  193.7100  175.1730  136.5680 C   0  0  0  0  0  0  0  0  0  0  0  0
  192.8320  174.3480  135.9930 C   0  0  0  0  0  0  0  0  0  0  0  0
  193.0430  176.3800  137.7060 S   0  0  0  0  0  0  0  0  0  0  0  0
  193.2000  173.4270  134.8850 C   0  0  0  0  0  1  0  0  0  0  0  0
  187.1590  177.7630  138.0470 C   0  0  1  0  0  3  0  0  0  0  0  0
  186.0680  178.6270  138.1560 O   0  0  0  0  0  1  0  0  0  0  0  0
  187.8820  174.7590  137.9690 C   0  0  0  0  0  1  0  0  0  0  0  0
  187.2770  173.6050  135.2930 O   0  0  0  0  0  1  0  0  0  0  0  0
  187.2960  175.5140  136.8200 C   0  0  0  0  0  0  0  0  0  0  0  0
  186.4800  175.7990  134.6230 C   0  0  0  0  0  3  0  0  0  0  0  0
  187.0230  174.9370  135.5720 C   0  0  0  0  0  0  0  0  0  0  0  0
  186.3370  177.2980  135.3740 S   0  0  0  0  0  0  0  0  0  0  0  0
  186.9450  176.8540  136.8780 C   0  0  0  0  0  0  0  0  0  0  0  0
  1 35  1  1  0  0  0
  1  6  1  0  0  0  0
  1  3  1  0  0  0  0
  3  5  1  0  0  0  0
  5  9  1  0  0  0  0
  5 10  1  1  0  0  0
  6  2  1  1  0  0  0
  6  8  1  0  0  0  0
  8  9  1  0  0  0  0
  8  4  1  1  0  0  0
  8  7  1  0  0  0  0
 10 11  2  0  0  0  0
 11 19  1  0  0  0  0
 12 19  1  0  0  0  0
 13 18  1  0  0  0  0
 15 12  1  0  0  0  0
 16 20  1  0  0  0  0
 16 15  1  0  0  0  0
 17 13  1  0  0  0  0
 17 16  2  0  0  0  0
 18 10  1  0  0  0  0
 18 15  2  0  0  0  0
 19 14  2  0  0  0  0
 20 21  1  0  0  0  0
 22 24  2  6  0  0  0
 22 21  1  0  0  0  0
 22 23  1  0  0  0  0
 25 26  1  0  0  0  0
 26 22  1  0  0  0  0
 27 17  1  0  0  0  0
 28 27  1  0  0  0  0
 29 34  1  0  0  0  0
 29 33  1  0  0  0  0
 32 31  2  0  0  0  0
 33 30  1  0  0  0  0
 33 31  1  0  0  0  0
 34 28  1  1  0  0  0
 34 32  1  0  0  0  0
 36 47  1  0  0  0  0
 36 35  1  1  0  0  0
 37 38  1  0  0  0  0
 37 36  1  0  0  0  0
 39 37  2  0  0  0  0
 40 38  1  1  0  0  0
 40 45  1  0  0  0  0
 41 40  1  0  0  0  0
 42 43  1  0  0  0  0
 43 45  1  0  0  0  0
 44 41  1  0  0  0  0
 44 43  2  0  0  0  0
 46 44  1  0  0  0  0
 47 48  1  6  0  0  0
 50 53  1  0  0  0  0
 51 55  2  0  0  0  0
 51 49  1  0  0  0  0
 52 54  1  0  0  0  0
 52 53  2  0  0  0  0
 53 51  1  0  0  0  0
 54 55  1  0  0  0  0
 55 47  1  0  0  0  0
M  END
>  <MODEL>
8

>  <REMARK>
 VINA RESULT:      -6.0      3.454      7.921
  Name = 
  14 active torsions:
  status: ('A' for Active; 'I' for Inactive)
    1  A    between atoms: P_1  and  C_26
    2  A    between atoms: P_1  and  C_53
    3  A    between atoms: C_2  and  C_23
    4  A    between atoms: C_3  and  C_17
    5  A    between atoms: C_3  and  C_55
    6  A    between atoms: C_5  and  C_33
    7  A    between atoms: C_9  and  C_17
    8  A    between atoms: C_17  and  C_33
    9  A    between atoms: C_19  and  N_28
   10  A    between atoms: O_25  and  N_43
   11  A    between atoms: O_25  and  C_54
   12  A    between atoms: C_26  and  C_40
   13  A    between atoms: C_31  and  C_40
   14  A    between atoms: C_39  and  N_43
                            x       y       z     vdW  Elec       q    Type
                         _______ _______ _______ _____ _____    ______ ____

>  <TORSDO>
F 14

$$$$
=
 OpenBabel11062415083D

 55 60  0  0  1  0  0  0  0  0999 V2000
  187.7530  178.0320  139.2870 C   0  0  2  0  0  3  0  0  0  0  0  0
  189.3950  179.6200  138.5770 F   0  0  0  0  0  0  0  0  0  0  0  0
  186.9360  177.4020  138.3240 O   0  0  0  0  0  0  0  0  0  0  0  0
  188.7930  178.2000  136.2420 C   0  0  0  0  0  1  0  0  0  0  0  0
  187.4910  176.1430  137.9760 C   0  0  2  0  0  3  0  0  0  0  0  0
  189.1620  178.2660  138.7500 C   0  0  2  0  0  3  0  0  0  0  0  0
  190.7670  177.3790  137.2490 O   0  0  0  0  0  1  0  0  0  0  0  0
  189.3910  177.4820  137.4530 C   0  0  2  0  0  0  0  0  0  0  0  0
  188.8570  176.1740  137.5620 O   0  0  0  0  0  0  0  0  0  0  0  0
  186.6200  175.4640  136.9520 C   0  0  0  0  0  0  0  0  0  0  0  0
  187.0650  174.4190  136.2370 C   0  0  0  0  0  3  0  0  0  0  0  0
  184.7910  174.1650  134.9550 C   0  0  0  0  0  2  0  0  0  0  0  0
  184.6460  176.9450  137.3030 O   0  0  0  0  0  0  0  0  0  0  0  0
  186.6920  172.7580  134.5940 O   0  0  0  0  0  0  0  0  0  0  0  0
  184.4070  175.3270  135.8170 C   0  0  0  0  0  0  0  0  0  0  0  0
  183.2220  176.0220  135.8750 C   0  0  0  0  0  0  0  0  0  0  0  0
  183.4310  177.0190  136.8100 C   0  0  0  0  0  0  0  0  0  0  0  0
  185.2460  175.9310  136.7200 C   0  0  0  0  0  0  0  0  0  0  0  0
  186.2140  173.7310  135.2320 C   0  0  0  0  0  0  0  0  0  0  0  0
  181.9810  175.7750  135.0840 C   0  0  0  0  0  2  0  0  0  0  0  0
  181.3200  174.4920  135.5520 C   0  0  0  0  0  2  0  0  0  0  0  0
  180.2160  174.8400  136.9460 P   0  0  2  0  0  0  0  0  0  0  0  0
  179.5730  176.1920  136.7370 O   0  0  0  0  0  0  0  0  0  0  0  0
  181.1050  174.8550  138.3900 O   0  0  0  0  0  1  0  0  0  0  0  0
  179.5570  172.2240  137.3530 C   0  0  0  0  0  1  0  0  0  0  0  0
  178.9310  173.5600  137.0330 C   0  0  0  0  0  2  0  0  0  0  0  0
  182.4780  178.0110  137.1880 N   0  0  0  0  0  2  0  0  0  0  0  0
  181.9890  178.8870  136.2770 O   0  0  0  0  0  0  0  0  0  0  0  0
  181.5580  180.6870  137.8030 C   0  0  0  0  0  2  0  0  0  0  0  0
  181.2140  183.1310  137.7000 O   0  0  0  0  0  1  0  0  0  0  0  0
  180.0750  181.5770  136.2080 C   0  0  0  0  0  3  0  0  0  0  0  0
  180.0900  180.2810  135.9630 C   0  0  0  0  0  3  0  0  0  0  0  0
  180.8920  181.8750  137.3190 N   0  0  0  0  0  0  0  0  0  0  0  0
  180.9670  179.5680  136.9480 C   0  0  1  0  0  3  0  0  0  0  0  0
  187.7530  177.2860  140.6220 C   0  0  0  0  0  2  0  0  0  0  0  0
  187.5920  178.2590  141.7840 C   0  0  1  0  0  3  0  0  0  0  0  0
  186.2330  178.8800  141.7290 C   0  0  0  0  0  0  0  0  0  0  0  0
  185.0800  178.0320  141.7370 N   0  0  0  0  0  2  0  0  0  0  0  0
  186.1110  180.1340  141.6440 O   0  0  0  0  0  0  0  0  0  0  0  0
  183.7130  178.4860  141.5120 C   0  0  2  0  0  3  0  0  0  0  0  0
  182.8670  178.8640  143.0800 S   0  0  0  0  0  0  0  0  0  0  0  0
  180.1120  178.2180  140.1210 C   0  0  0  0  0  1  0  0  0  0  0  0
  181.2490  178.1360  141.0820 C   0  0  0  0  0  0  0  0  0  0  0  0
  181.3110  178.8670  142.1970 C   0  0  0  0  0  0  0  0  0  0  0  0
  182.7270  177.2350  140.6350 S   0  0  0  0  0  0  0  0  0  0  0  0
  180.2420  179.8200  142.5970 C   0  0  0  0  0  1  0  0  0  0  0  0
  187.8120  177.5700  143.1390 C   0  0  1  0  0  3  0  0  0  0  0  0
  187.3710  176.2470  143.1100 O   0  0  0  0  0  1  0  0  0  0  0  0
  188.8860  177.1890  146.0130 C   0  0  0  0  0  1  0  0  0  0  0  0
  191.8500  177.4630  146.0690 O   0  0  0  0  0  1  0  0  0  0  0  0
  189.7470  177.4580  144.8200 C   0  0  0  0  0  0  0  0  0  0  0  0
  191.7740  177.8350  143.6700 C   0  0  0  0  0  3  0  0  0  0  0  0
  191.1420  177.5810  144.8840 C   0  0  0  0  0  0  0  0  0  0  0  0
  190.5570  177.8950  142.5080 S   0  0  0  0  0  0  0  0  0  0  0  0
  189.2560  177.5940  143.5320 C   0  0  0  0  0  0  0  0  0  0  0  0
  1 35  1  1  0  0  0
  3  1  1  0  0  0  0
  5 10  1  6  0  0  0
  5  3  1  0  0  0  0
  6  2  1  6  0  0  0
  6  1  1  0  0  0  0
  7  8  1  0  0  0  0
  8  4  1  6  0  0  0
  8  9  1  0  0  0  0
  8  6  1  0  0  0  0
  9  5  1  0  0  0  0
 11 10  2  0  0  0  0
 12 19  1  0  0  0  0
 12 15  1  0  0  0  0
 14 19  2  0  0  0  0
 15 16  1  0  0  0  0
 15 18  2  0  0  0  0
 16 17  2  0  0  0  0
 17 27  1  0  0  0  0
 17 13  1  0  0  0  0
 18 10  1  0  0  0  0
 18 13  1  0  0  0  0
 19 11  1  0  0  0  0
 20 21  1  0  0  0  0
 20 16  1  0  0  0  0
 21 22  1  0  0  0  0
 22 23  2  6  0  0  0
 22 26  1  0  0  0  0
 22 24  1  0  0  0  0
 26 25  1  0  0  0  0
 28 27  1  0  0  0  0
 31 33  1  0  0  0  0
 32 31  2  0  0  0  0
 32 34  1  0  0  0  0
 33 30  1  0  0  0  0
 33 29  1  0  0  0  0
 34 28  1  6  0  0  0
 34 29  1  0  0  0  0
 36 35  1  6  0  0  0
 36 47  1  0  0  0  0
 37 38  1  0  0  0  0
 37 36  1  0  0  0  0
 39 37  2  0  0  0  0
 40 38  1  1  0  0  0
 40 41  1  0  0  0  0
 42 43  1  0  0  0  0
 43 44  2  0  0  0  0
 44 46  1  0  0  0  0
 44 41  1  0  0  0  0
 45 43  1  0  0  0  0
 45 40  1  0  0  0  0
 47 48  1  6  0  0  0
 47 55  1  0  0  0  0
 51 53  1  0  0  0  0
 51 49  1  0  0  0  0
 52 53  2  0  0  0  0
 53 50  1  0  0  0  0
 54 55  1  0  0  0  0
 54 52  1  0  0  0  0
 55 51  2  0  0  0  0
M  END
>  <MODEL>
9

>  <REMARK>
 VINA RESULT:      -5.9      3.498      8.649
  Name = 
  14 active torsions:
  status: ('A' for Active; 'I' for Inactive)
    1  A    between atoms: P_1  and  C_26
    2  A    between atoms: P_1  and  C_53
    3  A    between atoms: C_2  and  C_23
    4  A    between atoms: C_3  and  C_17
    5  A    between atoms: C_3  and  C_55
    6  A    between atoms: C_5  and  C_33
    7  A    between atoms: C_9  and  C_17
    8  A    between atoms: C_17  and  C_33
    9  A    between atoms: C_19  and  N_28
   10  A    between atoms: O_25  and  N_43
   11  A    between atoms: O_25  and  C_54
   12  A    between atoms: C_26  and  C_40
   13  A    between atoms: C_31  and  C_40
   14  A    between atoms: C_39  and  N_43
                            x       y       z     vdW  Elec       q    Type
                         _______ _______ _______ _____ _____    ______ ____

>  <TORSDO>
F 14

$$$$
