=
 OpenBabel11062410593D

 49 55  0  0  1  0  0  0  0  0999 V2000
  189.6600  176.1800  138.2350 F   0  0  0  0  0  0  0  0  0  0  0  0
  183.5550  178.2630  138.5210 C   0  0  1  0  0  3  0  0  0  0  0  0
  185.6620  177.1330  137.5960 C   0  0  0  0  0  0  0  0  0  0  0  0
  184.4810  179.3940  138.9690 C   0  0  0  0  0  2  0  0  0  0  0  0
  186.2720  176.0970  136.8820 C   0  0  0  0  0  3  0  0  0  0  0  0
  184.2220  177.5100  137.3570 C   0  0  1  0  0  3  0  0  0  0  0  0
  187.6150  175.7890  137.1000 C   0  0  0  0  0  3  0  0  0  0  0  0
  186.4130  177.8830  138.5210 C   0  0  0  0  0  0  0  0  0  0  0  0
  185.7980  178.9130  139.2540 O   0  0  0  0  0  0  0  0  0  0  0  0
  187.7690  177.5780  138.7380 C   0  0  0  0  0  0  0  0  0  0  0  0
  188.3620  176.5200  138.0260 C   0  0  0  0  0  0  0  0  0  0  0  0
  182.8510  174.6380  137.6780 C   0  0  0  0  0  2  0  0  0  0  0  0
  179.5580  173.0820  138.0380 C   0  0  0  0  0  1  0  0  0  0  0  0
  183.6610  175.1770  136.6670 O   0  0  0  0  0  0  0  0  0  0  0  0
  179.8550  175.8350  135.5250 C   0  0  0  0  0  0  0  0  0  0  0  0
  181.6180  177.7150  135.1560 C   0  0  1  0  0  3  0  0  0  0  0  0
  181.6850  173.8560  137.0760 C   0  0  0  0  0  2  0  0  0  0  0  0
  179.5140  174.7980  136.4130 O   0  0  0  0  0  0  0  0  0  0  0  0
  181.8960  176.9370  136.4230 C   0  0  2  0  0  3  0  0  0  0  0  0
  183.3740  176.5540  136.5030 C   0  0  1  0  0  3  0  0  0  0  0  0
  181.2840  176.2160  135.2380 C   0  0  1  0  0  3  0  0  0  0  0  0
  180.2780  174.3170  137.5250 C   0  0  1  0  0  0  0  0  0  0  0  0
  178.9310  176.3580  134.8460 O   0  0  0  0  0  0  0  0  0  0  0  0
  179.7460  174.8910  139.9760 C   0  0  0  0  0  1  0  0  0  0  0  0
  180.2570  175.3930  138.6310 C   0  0  0  0  0  2  0  0  0  0  0  0
  180.4630  178.5760  135.3690 N   0  0  0  0  0  2  0  0  0  0  0  0
  180.9290  179.7290  136.1170 C   0  0  0  0  0  3  0  0  0  0  0  0
  179.9580  180.0160  137.2420 C   0  0  0  0  0  2  0  0  0  0  0  0
  179.9200  180.8510  135.9810 C   0  0  0  0  0  2  0  0  0  0  0  0
  188.5530  178.3620  139.7180 C   0  0  0  0  0  0  0  0  0  0  0  0
  189.0160  179.4770  139.3620 O   0  0  0  0  0  0  0  0  0  0  0  0
  188.8410  177.8580  141.0790 C   0  0  0  0  0  0  0  0  0  0  0  0
  192.0710  175.0570  145.3110 O   0  0  0  0  0  0  0  0  0  0  0  0
  189.3240  176.9750  143.6850 C   0  0  0  0  0  0  0  0  0  0  0  0
  191.4100  176.5860  145.0310 P   0  0  2  0  0  0  0  0  0  0  0  0
  188.0080  177.0930  143.2510 C   0  0  0  0  0  3  0  0  0  0  0  0
  191.6420  177.1140  143.4230 O   0  0  0  0  0  0  0  0  0  0  0  0
  191.8980  177.6090  146.0320 O   0  0  0  0  0  1  0  0  0  0  0  0
  190.1650  177.7360  141.5420 C   0  0  0  0  0  3  0  0  0  0  0  0
  189.7050  176.5500  144.9530 O   0  0  0  0  0  0  0  0  0  0  0  0
  187.7720  177.5390  141.9440 C   0  0  0  0  0  3  0  0  0  0  0  0
  190.3900  177.2890  142.8430 C   0  0  0  0  0  0  0  0  0  0  0  0
  183.0900  177.4050  139.7060 C   0  0  0  0  0  2  0  0  0  0  0  0
  182.6620  178.2140  140.9250 C   0  0  0  0  0  2  0  0  0  0  0  0
  181.1480  178.2810  141.0380 C   0  0  0  0  0  2  0  0  0  0  0  0
  180.1410  180.5750  142.4550 O   0  0  0  0  0  0  0  0  0  0  0  0
  181.9090  178.8850  143.7460 O   0  0  0  0  0  1  0  0  0  0  0  0
  179.4690  178.1500  143.1670 O   0  0  0  0  0  1  0  0  0  0  0  0
  180.6270  178.9660  142.6430 P   0  0  0  0  0  0  0  0  0  0  0  0
  2  4  1  0  0  0  0
  2 43  1  1  0  0  0
  3  8  1  0  0  0  0
  4  9  1  0  0  0  0
  5  7  1  0  0  0  0
  5  3  2  0  0  0  0
  6  3  1  1  0  0  0
  6  2  1  0  0  0  0
  7 11  2  0  0  0  0
  8 10  2  0  0  0  0
  8  9  1  0  0  0  0
 10 30  1  0  0  0  0
 11  1  1  0  0  0  0
 11 10  1  0  0  0  0
 14 12  1  0  0  0  0
 15 18  1  0  0  0  0
 16 21  1  0  0  0  0
 16 26  1  1  0  0  0
 16 19  1  0  0  0  0
 17 22  1  0  0  0  0
 17 12  1  0  0  0  0
 18 22  1  0  0  0  0
 19 20  1  0  0  0  0
 20 14  1  0  0  0  0
 20  6  1  0  0  0  0
 21 15  1  0  0  0  0
 21 19  1  0  0  0  0
 22 13  1  0  0  0  0
 22 25  1  0  0  0  0
 23 15  2  0  0  0  0
 25 24  1  0  0  0  0
 26 27  1  0  0  0  0
 27 28  1  0  0  0  0
 29 27  1  0  0  0  0
 29 28  1  0  0  0  0
 30 32  1  0  0  0  0
 31 30  2  0  0  0  0
 32 39  2  0  0  0  0
 32 41  1  0  0  0  0
 34 40  1  0  0  0  0
 35 33  2  0  0  0  0
 35 38  1  0  0  0  0
 36 34  1  0  0  0  0
 37 35  1  0  0  0  0
 39 42  1  0  0  0  0
 40 35  1  0  0  0  0
 41 36  2  0  0  0  0
 42 37  1  0  0  0  0
 42 34  2  0  0  0  0
 43 44  1  0  0  0  0
 44 45  1  0  0  0  0
 45 49  1  0  0  0  0
 46 49  2  0  0  0  0
 49 48  1  0  0  0  0
 49 47  1  0  0  0  0
M  END
>  <MODEL>
1

>  <REMARK>
 VINA RESULT:      -7.4      0.000      0.000
  Name = 
  10 active torsions:
  status: ('A' for Active; 'I' for Inactive)
    1  A    between atoms: C_1  and  C_9
    2  A    between atoms: C_1  and  C_36
    3  A    between atoms: C_10  and  C_38
    4  A    between atoms: C_11  and  C_16
    5  A    between atoms: C_12  and  N_47
    6  A    between atoms: C_16  and  C_42
    7  A    between atoms: C_18  and  N_47
    8  A    between atoms: C_19  and  C_33
    9  A    between atoms: C_36  and  C_37
   10  A    between atoms: C_37  and  P_43
                            x       y       z     vdW  Elec       q    Type
                         _______ _______ _______ _____ _____    ______ ____

>  <TORSDO>
F 10

$$$$
=
 OpenBabel11062410593D

 49 55  0  0  1  0  0  0  0  0999 V2000
  188.8300  175.9650  137.3110 F   0  0  0  0  0  0  0  0  0  0  0  0
  183.1320  178.6870  138.6600 C   0  0  1  0  0  3  0  0  0  0  0  0
  184.8860  177.2830  137.4250 C   0  0  0  0  0  0  0  0  0  0  0  0
  184.2270  179.7440  138.8060 C   0  0  0  0  0  2  0  0  0  0  0  0
  185.2380  176.1430  136.6960 C   0  0  0  0  0  3  0  0  0  0  0  0
  183.4670  177.7900  137.4550 C   0  0  1  0  0  3  0  0  0  0  0  0
  186.5640  175.7130  136.6600 C   0  0  0  0  0  3  0  0  0  0  0  0
  185.8800  178.0130  138.1060 C   0  0  0  0  0  0  0  0  0  0  0  0
  185.5280  179.1480  138.8550 O   0  0  0  0  0  0  0  0  0  0  0  0
  187.2190  177.5840  138.0650 C   0  0  0  0  0  0  0  0  0  0  0  0
  187.5520  176.4240  137.3430 C   0  0  0  0  0  0  0  0  0  0  0  0
  183.2720  175.3510  135.3950 C   0  0  0  0  0  2  0  0  0  0  0  0
  182.7190  171.7340  135.3130 C   0  0  0  0  0  1  0  0  0  0  0  0
  182.5250  176.5330  135.5140 O   0  0  0  0  0  0  0  0  0  0  0  0
  180.5220  173.7240  137.5920 C   0  0  0  0  0  0  0  0  0  0  0  0
  180.7080  176.1240  138.5850 C   0  0  1  0  0  3  0  0  0  0  0  0
  182.3570  174.1600  135.1200 C   0  0  0  0  0  2  0  0  0  0  0  0
  181.2360  172.7880  136.8230 O   0  0  0  0  0  0  0  0  0  0  0  0
  181.9570  175.7420  137.8220 C   0  0  2  0  0  3  0  0  0  0  0  0
  182.3760  176.8730  136.8810 C   0  0  1  0  0  3  0  0  0  0  0  0
  180.6180  175.2080  137.3520 C   0  0  1  0  0  3  0  0  0  0  0  0
  182.4730  172.9920  136.1290 C   0  0  1  0  0  0  0  0  0  0  0  0
  179.6680  173.2880  138.4100 O   0  0  0  0  0  0  0  0  0  0  0  0
  184.8660  172.3570  136.8250 C   0  0  0  0  0  1  0  0  0  0  0  0
  183.6000  173.1300  137.1730 C   0  0  0  0  0  2  0  0  0  0  0  0
  180.6800  175.3970  139.8470 N   0  0  0  0  0  2  0  0  0  0  0  0
  179.4760  175.8110  140.5440 C   0  0  0  0  0  3  0  0  0  0  0  0
  179.1840  177.2580  140.2120 C   0  0  0  0  0  2  0  0  0  0  0  0
  179.8250  176.9020  141.5350 C   0  0  0  0  0  2  0  0  0  0  0  0
  188.2600  178.3470  138.7890 C   0  0  0  0  0  0  0  0  0  0  0  0
  188.8790  179.2520  138.1730 O   0  0  0  0  0  0  0  0  0  0  0  0
  188.6180  178.0500  140.1940 C   0  0  0  0  0  0  0  0  0  0  0  0
  191.8600  175.5650  144.6100 O   0  0  0  0  0  0  0  0  0  0  0  0
  189.2490  177.5730  142.8740 C   0  0  0  0  0  0  0  0  0  0  0  0
  191.3920  177.1060  144.0990 P   0  0  2  0  0  0  0  0  0  0  0  0
  187.9230  177.8170  142.5310 C   0  0  0  0  0  3  0  0  0  0  0  0
  191.5220  177.3010  142.4070 O   0  0  0  0  0  0  0  0  0  0  0  0
  192.1200  178.2000  144.8480 O   0  0  0  0  0  1  0  0  0  0  0  0
  189.9540  177.8060  140.5660 C   0  0  0  0  0  3  0  0  0  0  0  0
  189.7000  177.3230  144.1660 O   0  0  0  0  0  0  0  0  0  0  0  0
  187.6140  178.0580  141.1860 C   0  0  0  0  0  3  0  0  0  0  0  0
  190.2520  177.5640  141.9060 C   0  0  0  0  0  0  0  0  0  0  0  0
  182.8570  177.9650  139.9860 C   0  0  0  0  0  2  0  0  0  0  0  0
  183.2150  178.7830  141.2210 C   0  0  0  0  0  2  0  0  0  0  0  0
  184.1940  178.0370  142.1130 C   0  0  0  0  0  2  0  0  0  0  0  0
  185.3490  177.8940  144.7450 O   0  0  0  0  0  1  0  0  0  0  0  0
  182.7000  178.6450  144.4950 O   0  0  0  0  0  1  0  0  0  0  0  0
  184.6530  180.1890  143.7030 O   0  0  0  0  0  0  0  0  0  0  0  0
  184.2370  178.7390  143.7920 P   0  0  0  0  0  0  0  0  0  0  0  0
  1 11  1  0  0  0  0
  2  4  1  0  0  0  0
  2 43  1  1  0  0  0
  3  8  1  0  0  0  0
  4  9  1  0  0  0  0
  5  3  2  0  0  0  0
  6  3  1  1  0  0  0
  6  2  1  0  0  0  0
  7  5  1  0  0  0  0
  7 11  2  0  0  0  0
  8  9  1  0  0  0  0
 10  8  2  0  0  0  0
 10 30  1  0  0  0  0
 11 10  1  0  0  0  0
 12 14  1  0  0  0  0
 13 22  1  0  0  0  0
 14 20  1  0  0  0  0
 15 23  2  0  0  0  0
 16 26  1  1  0  0  0
 17 12  1  0  0  0  0
 17 22  1  0  0  0  0
 18 15  1  0  0  0  0
 19 16  1  0  0  0  0
 20  6  1  0  0  0  0
 20 19  1  0  0  0  0
 21 15  1  0  0  0  0
 21 19  1  0  0  0  0
 21 16  1  0  0  0  0
 22 18  1  0  0  0  0
 22 25  1  0  0  0  0
 24 25  1  0  0  0  0
 26 27  1  0  0  0  0
 27 29  1  0  0  0  0
 28 27  1  0  0  0  0
 28 29  1  0  0  0  0
 30 32  1  0  0  0  0
 31 30  2  0  0  0  0
 32 39  2  0  0  0  0
 32 41  1  0  0  0  0
 34 40  1  0  0  0  0
 35 40  1  0  0  0  0
 35 33  2  0  0  0  0
 35 38  1  0  0  0  0
 36 34  1  0  0  0  0
 37 35  1  0  0  0  0
 39 42  1  0  0  0  0
 41 36  2  0  0  0  0
 42 37  1  0  0  0  0
 42 34  2  0  0  0  0
 43 44  1  0  0  0  0
 44 45  1  0  0  0  0
 45 49  1  0  0  0  0
 48 49  2  0  0  0  0
 49 47  1  0  0  0  0
 49 46  1  0  0  0  0
M  END
>  <MODEL>
2

>  <REMARK>
 VINA RESULT:      -6.5      1.970      2.927
  Name = 
  10 active torsions:
  status: ('A' for Active; 'I' for Inactive)
    1  A    between atoms: C_1  and  C_9
    2  A    between atoms: C_1  and  C_36
    3  A    between atoms: C_10  and  C_38
    4  A    between atoms: C_11  and  C_16
    5  A    between atoms: C_12  and  N_47
    6  A    between atoms: C_16  and  C_42
    7  A    between atoms: C_18  and  N_47
    8  A    between atoms: C_19  and  C_33
    9  A    between atoms: C_36  and  C_37
   10  A    between atoms: C_37  and  P_43
                            x       y       z     vdW  Elec       q    Type
                         _______ _______ _______ _____ _____    ______ ____

>  <TORSDO>
F 10

$$$$
=
 OpenBabel11062410593D

 49 55  0  0  1  0  0  0  0  0999 V2000
  193.0800  176.5750  139.1920 F   0  0  0  0  0  0  0  0  0  0  0  0
  186.9540  176.5310  137.1520 C   0  0  1  0  0  3  0  0  0  0  0  0
  188.9710  176.9620  138.6750 C   0  0  0  0  0  0  0  0  0  0  0  0
  187.5620  175.1500  136.9060 C   0  0  0  0  0  2  0  0  0  0  0  0
  189.6560  177.7730  139.5850 C   0  0  0  0  0  3  0  0  0  0  0  0
  187.4780  177.0710  138.4950 C   0  0  1  0  0  3  0  0  0  0  0  0
  191.0330  177.6310  139.7540 C   0  0  0  0  0  3  0  0  0  0  0  0
  189.6720  175.9830  137.9440 C   0  0  0  0  0  0  0  0  0  0  0  0
  188.9890  175.1790  137.0150 O   0  0  0  0  0  0  0  0  0  0  0  0
  191.0590  175.8340  138.1190 C   0  0  0  0  0  0  0  0  0  0  0  0
  191.7360  176.6710  139.0240 C   0  0  0  0  0  0  0  0  0  0  0  0
  184.6240  178.5070  138.3340 C   0  0  0  0  0  2  0  0  0  0  0  0
  181.5580  178.9660  140.2790 C   0  0  0  0  0  1  0  0  0  0  0  0
  185.9300  179.0180  138.2820 O   0  0  0  0  0  0  0  0  0  0  0  0
  184.7890  179.2440  142.1380 C   0  0  0  0  0  0  0  0  0  0  0  0
  187.2200  178.4870  141.5920 C   0  0  1  0  0  3  0  0  0  0  0  0
  183.7370  179.3830  139.2160 C   0  0  0  0  0  2  0  0  0  0  0  0
  183.4730  179.1700  141.6500 O   0  0  0  0  0  0  0  0  0  0  0  0
  186.2400  177.9980  140.5490 C   0  0  2  0  0  3  0  0  0  0  0  0
  186.7740  178.2720  139.1420 C   0  0  1  0  0  3  0  0  0  0  0  0
  185.9870  179.3300  141.2270 C   0  0  1  0  0  3  0  0  0  0  0  0
  183.0400  178.6500  140.3870 C   0  0  1  0  0  0  0  0  0  0  0  0
  184.9520  179.3880  143.3800 O   0  0  0  0  0  0  0  0  0  0  0  0
  182.0690  176.3530  139.7560 C   0  0  0  0  0  1  0  0  0  0  0  0
  183.2160  177.1170  140.4060 C   0  0  0  0  0  2  0  0  0  0  0  0
  187.0470  177.7090  142.8110 N   0  0  0  0  0  2  0  0  0  0  0  0
  188.2860  177.8180  143.5590 C   0  0  0  0  0  3  0  0  0  0  0  0
  188.8890  176.4390  143.7240 C   0  0  0  0  0  2  0  0  0  0  0  0
  188.1410  177.0780  144.8730 C   0  0  0  0  0  2  0  0  0  0  0  0
  191.7940  174.8110  137.3430 C   0  0  0  0  0  0  0  0  0  0  0  0
  191.2240  173.7140  137.1050 O   0  0  0  0  0  0  0  0  0  0  0  0
  193.1830  175.0230  136.8780 C   0  0  0  0  0  0  0  0  0  0  0  0
  199.1800  174.9320  137.3280 O   0  0  0  0  0  1  0  0  0  0  0  0
  195.7730  175.4170  135.9080 C   0  0  0  0  0  0  0  0  0  0  0  0
  197.9790  174.2900  136.3310 P   0  0  2  0  0  0  0  0  0  0  0  0
  194.7500  176.2350  135.4390 C   0  0  0  0  0  3  0  0  0  0  0  0
  196.6470  173.6890  137.2160 O   0  0  0  0  0  0  0  0  0  0  0  0
  198.5260  173.2570  135.3710 O   0  0  0  0  0  0  0  0  0  0  0  0
  194.2330  174.2030  137.3340 C   0  0  0  0  0  3  0  0  0  0  0  0
  197.1030  175.5040  135.5090 O   0  0  0  0  0  0  0  0  0  0  0  0
  193.4540  176.0300  135.9270 C   0  0  0  0  0  3  0  0  0  0  0  0
  195.5210  174.4160  136.8440 C   0  0  0  0  0  0  0  0  0  0  0  0
  187.1250  177.4530  135.9380 C   0  0  0  0  0  2  0  0  0  0  0  0
  185.8900  177.5400  135.0480 C   0  0  0  0  0  2  0  0  0  0  0  0
  185.3880  176.1570  134.6660 C   0  0  0  0  0  2  0  0  0  0  0  0
  182.8000  177.2090  135.3590 O   0  0  0  0  0  1  0  0  0  0  0  0
  183.9380  175.2930  136.9960 O   0  0  0  0  0  1  0  0  0  0  0  0
  183.0830  174.7250  134.5940 O   0  0  0  0  0  0  0  0  0  0  0  0
  183.7560  175.8130  135.3960 P   0  0  0  0  0  0  0  0  0  0  0  0
  2 43  1  6  0  0  0
  2  6  1  0  0  0  0
  3  5  1  0  0  0  0
  4  9  1  0  0  0  0
  4  2  1  0  0  0  0
  5  7  2  0  0  0  0
  6  3  1  6  0  0  0
  6 20  1  0  0  0  0
  8 10  1  0  0  0  0
  8  3  2  0  0  0  0
  9  8  1  0  0  0  0
 10 11  2  0  0  0  0
 11  1  1  0  0  0  0
 11  7  1  0  0  0  0
 12 17  1  0  0  0  0
 13 22  1  0  0  0  0
 14 12  1  0  0  0  0
 14 20  1  0  0  0  0
 15 23  2  0  0  0  0
 16 26  1  1  0  0  0
 17 22  1  0  0  0  0
 18 15  1  0  0  0  0
 19 21  1  0  0  0  0
 19 16  1  0  0  0  0
 20 19  1  0  0  0  0
 21 16  1  0  0  0  0
 21 15  1  0  0  0  0
 22 25  1  0  0  0  0
 22 18  1  0  0  0  0
 24 25  1  0  0  0  0
 26 27  1  0  0  0  0
 27 28  1  0  0  0  0
 27 29  1  0  0  0  0
 28 29  1  0  0  0  0
 30 10  1  0  0  0  0
 31 30  2  0  0  0  0
 32 39  1  0  0  0  0
 32 30  1  0  0  0  0
 34 42  1  0  0  0  0
 35 37  1  0  0  0  0
 35 33  1  0  0  0  0
 36 34  2  0  0  0  0
 36 41  1  0  0  0  0
 38 35  2  0  0  0  0
 40 34  1  0  0  0  0
 40 35  1  0  0  0  0
 41 32  2  0  0  0  0
 42 37  1  0  0  0  0
 42 39  2  0  0  0  0
 44 43  1  0  0  0  0
 45 44  1  0  0  0  0
 45 49  1  0  0  0  0
 46 49  1  0  0  0  0
 48 49  2  0  0  0  0
 49 47  1  0  0  0  0
M  END
>  <MODEL>
3

>  <REMARK>
 VINA RESULT:      -6.0      4.849      7.747
  Name = 
  10 active torsions:
  status: ('A' for Active; 'I' for Inactive)
    1  A    between atoms: C_1  and  C_9
    2  A    between atoms: C_1  and  C_36
    3  A    between atoms: C_10  and  C_38
    4  A    between atoms: C_11  and  C_16
    5  A    between atoms: C_12  and  N_47
    6  A    between atoms: C_16  and  C_42
    7  A    between atoms: C_18  and  N_47
    8  A    between atoms: C_19  and  C_33
    9  A    between atoms: C_36  and  C_37
   10  A    between atoms: C_37  and  P_43
                            x       y       z     vdW  Elec       q    Type
                         _______ _______ _______ _____ _____    ______ ____

>  <TORSDO>
F 10

$$$$
=
 OpenBabel11062410593D

 49 55  0  0  1  0  0  0  0  0999 V2000
  189.1660  176.0600  138.0270 F   0  0  0  0  0  0  0  0  0  0  0  0
  183.1570  178.4050  138.3150 C   0  0  1  0  0  3  0  0  0  0  0  0
  185.1900  177.1240  137.4220 C   0  0  0  0  0  0  0  0  0  0  0  0
  184.1380  179.5280  138.6510 C   0  0  0  0  0  2  0  0  0  0  0  0
  185.7390  176.0130  136.7740 C   0  0  0  0  0  3  0  0  0  0  0  0
  183.7590  177.5390  137.1940 C   0  0  1  0  0  3  0  0  0  0  0  0
  187.0750  175.6680  136.9800 C   0  0  0  0  0  3  0  0  0  0  0  0
  185.9970  177.9100  138.2690 C   0  0  0  0  0  0  0  0  0  0  0  0
  185.4440  179.0160  138.9370 O   0  0  0  0  0  0  0  0  0  0  0  0
  187.3460  177.5680  138.4720 C   0  0  0  0  0  0  0  0  0  0  0  0
  187.8770  176.4360  137.8270 C   0  0  0  0  0  0  0  0  0  0  0  0
  184.0840  175.1970  135.0400 C   0  0  0  0  0  2  0  0  0  0  0  0
  183.8920  171.5540  134.7490 C   0  0  0  0  0  1  0  0  0  0  0  0
  183.2190  176.3010  135.0940 O   0  0  0  0  0  0  0  0  0  0  0  0
  181.2220  173.2260  136.7610 C   0  0  0  0  0  0  0  0  0  0  0  0
  181.0410  175.5810  137.8580 C   0  0  1  0  0  3  0  0  0  0  0  0
  183.3330  173.9450  134.5940 C   0  0  0  0  0  2  0  0  0  0  0  0
  182.1210  172.3960  136.0690 O   0  0  0  0  0  0  0  0  0  0  0  0
  182.4140  175.3500  137.2670 C   0  0  2  0  0  3  0  0  0  0  0  0
  182.8510  176.5580  136.4380 C   0  0  1  0  0  3  0  0  0  0  0  0
  181.2100  174.7240  136.5920 C   0  0  1  0  0  3  0  0  0  0  0  0
  183.4170  172.7430  135.5660 C   0  0  1  0  0  0  0  0  0  0  0  0
  180.3080  172.6770  137.4320 O   0  0  0  0  0  0  0  0  0  0  0  0
  185.7260  172.2550  136.5900 C   0  0  0  0  0  1  0  0  0  0  0  0
  184.3710  172.9280  136.7650 C   0  0  0  0  0  2  0  0  0  0  0  0
  180.9070  174.7930  139.0750 N   0  0  0  0  0  2  0  0  0  0  0  0
  179.5470  174.9770  139.5480 C   0  0  0  0  0  3  0  0  0  0  0  0
  179.5820  175.4930  140.9700 C   0  0  0  0  0  2  0  0  0  0  0  0
  179.2890  174.0330  140.7030 C   0  0  0  0  0  2  0  0  0  0  0  0
  188.1880  178.3900  139.3680 C   0  0  0  0  0  0  0  0  0  0  0  0
  188.9470  179.2530  138.8550 O   0  0  0  0  0  0  0  0  0  0  0  0
  188.1930  178.2000  140.8360 C   0  0  0  0  0  0  0  0  0  0  0  0
  186.4340  179.2320  146.4950 O   0  0  0  0  0  1  0  0  0  0  0  0
  188.2360  177.7510  143.5930 C   0  0  0  0  0  0  0  0  0  0  0  0
  186.5140  177.9380  145.4130 P   0  0  2  0  0  0  0  0  0  0  0  0
  189.3970  177.5300  142.8590 C   0  0  0  0  0  3  0  0  0  0  0  0
  185.9960  178.3660  143.8420 O   0  0  0  0  0  0  0  0  0  0  0  0
  185.7860  176.7170  145.9300 O   0  0  0  0  0  0  0  0  0  0  0  0
  187.0270  178.4120  141.5980 C   0  0  0  0  0  3  0  0  0  0  0  0
  188.1190  177.5660  144.9660 O   0  0  0  0  0  0  0  0  0  0  0  0
  189.3680  177.7550  141.4770 C   0  0  0  0  0  3  0  0  0  0  0  0
  187.0670  178.1880  142.9730 C   0  0  0  0  0  0  0  0  0  0  0  0
  182.6940  177.6570  139.5730 C   0  0  0  0  0  2  0  0  0  0  0  0
  182.4510  178.5620  140.7750 C   0  0  0  0  0  2  0  0  0  0  0  0
  180.9660  178.7920  141.0010 C   0  0  0  0  0  2  0  0  0  0  0  0
  180.0640  180.7100  142.9480 O   0  0  0  0  0  0  0  0  0  0  0  0
  181.9880  178.8670  143.6890 O   0  0  0  0  0  1  0  0  0  0  0  0
  179.5170  178.1670  143.2100 O   0  0  0  0  0  1  0  0  0  0  0  0
  180.5990  179.1170  142.7550 P   0  0  0  0  0  0  0  0  0  0  0  0
  2  4  1  0  0  0  0
  2 43  1  1  0  0  0
  3  8  1  0  0  0  0
  4  9  1  0  0  0  0
  5  7  1  0  0  0  0
  5  3  2  0  0  0  0
  6  3  1  1  0  0  0
  6  2  1  0  0  0  0
  7 11  2  0  0  0  0
  8 10  2  0  0  0  0
  8  9  1  0  0  0  0
 10 30  1  0  0  0  0
 11  1  1  0  0  0  0
 11 10  1  0  0  0  0
 12 14  1  0  0  0  0
 13 22  1  0  0  0  0
 14 20  1  0  0  0  0
 15 23  2  0  0  0  0
 16 26  1  1  0  0  0
 17 12  1  0  0  0  0
 17 22  1  0  0  0  0
 18 15  1  0  0  0  0
 19 16  1  0  0  0  0
 20  6  1  0  0  0  0
 20 19  1  0  0  0  0
 21 15  1  0  0  0  0
 21 19  1  0  0  0  0
 21 16  1  0  0  0  0
 22 18  1  0  0  0  0
 22 25  1  0  0  0  0
 24 25  1  0  0  0  0
 26 27  1  0  0  0  0
 27 29  1  0  0  0  0
 27 28  1  0  0  0  0
 29 28  1  0  0  0  0
 30 32  1  0  0  0  0
 31 30  2  0  0  0  0
 32 41  2  0  0  0  0
 32 39  1  0  0  0  0
 34 40  1  0  0  0  0
 35 38  2  0  0  0  0
 35 33  1  0  0  0  0
 36 34  2  0  0  0  0
 37 35  1  0  0  0  0
 39 42  2  0  0  0  0
 40 35  1  0  0  0  0
 41 36  1  0  0  0  0
 42 34  1  0  0  0  0
 42 37  1  0  0  0  0
 43 44  1  0  0  0  0
 44 45  1  0  0  0  0
 45 49  1  0  0  0  0
 49 46  2  0  0  0  0
 49 48  1  0  0  0  0
 49 47  1  0  0  0  0
M  END
>  <MODEL>
4

>  <REMARK>
 VINA RESULT:      -6.0      2.115      3.410
  Name = 
  10 active torsions:
  status: ('A' for Active; 'I' for Inactive)
    1  A    between atoms: C_1  and  C_9
    2  A    between atoms: C_1  and  C_36
    3  A    between atoms: C_10  and  C_38
    4  A    between atoms: C_11  and  C_16
    5  A    between atoms: C_12  and  N_47
    6  A    between atoms: C_16  and  C_42
    7  A    between atoms: C_18  and  N_47
    8  A    between atoms: C_19  and  C_33
    9  A    between atoms: C_36  and  C_37
   10  A    between atoms: C_37  and  P_43
                            x       y       z     vdW  Elec       q    Type
                         _______ _______ _______ _____ _____    ______ ____

>  <TORSDO>
F 10

$$$$
=
 OpenBabel11062410593D

 49 55  0  0  1  0  0  0  0  0999 V2000
  184.5960  172.2410  137.0570 F   0  0  0  0  0  0  0  0  0  0  0  0
  186.6860  178.3110  137.7490 C   0  0  1  0  0  3  0  0  0  0  0  0
  185.0520  176.3540  137.4890 C   0  0  0  0  0  0  0  0  0  0  0  0
  187.5240  177.6250  136.6700 C   0  0  0  0  0  2  0  0  0  0  0  0
  183.8390  175.7320  137.8010 C   0  0  0  0  0  3  0  0  0  0  0  0
  185.2260  177.8460  137.6130 C   0  0  1  0  0  3  0  0  0  0  0  0
  183.6950  174.3540  137.6480 C   0  0  0  0  0  3  0  0  0  0  0  0
  186.1250  175.5860  136.9950 C   0  0  0  0  0  0  0  0  0  0  0  0
  187.3520  176.2040  136.6970 O   0  0  0  0  0  0  0  0  0  0  0  0
  185.9800  174.1960  136.8330 C   0  0  0  0  0  0  0  0  0  0  0  0
  184.7590  173.5850  137.1700 C   0  0  0  0  0  0  0  0  0  0  0  0
  182.0340  178.0470  137.5480 C   0  0  0  0  0  2  0  0  0  0  0  0
  179.0860  177.1300  139.5130 C   0  0  0  0  0  1  0  0  0  0  0  0
  183.0320  179.0340  137.5360 O   0  0  0  0  0  0  0  0  0  0  0  0
  181.9940  178.5370  141.3950 C   0  0  0  0  0  0  0  0  0  0  0  0
  184.5110  178.8380  140.8020 C   0  0  1  0  0  3  0  0  0  0  0  0
  180.8960  178.4420  138.4870 C   0  0  0  0  0  2  0  0  0  0  0  0
  180.8010  177.9810  140.9000 O   0  0  0  0  0  0  0  0  0  0  0  0
  183.7770  178.0720  139.7250 C   0  0  2  0  0  3  0  0  0  0  0  0
  184.1230  178.6270  138.3420 C   0  0  1  0  0  3  0  0  0  0  0  0
  183.0370  179.1480  140.4950 C   0  0  1  0  0  3  0  0  0  0  0  0
  180.5750  177.4170  139.6020 C   0  0  1  0  0  0  0  0  0  0  0  0
  182.1180  178.6510  142.6440 O   0  0  0  0  0  0  0  0  0  0  0  0
  180.5530  174.8790  140.0190 C   0  0  0  0  0  1  0  0  0  0  0  0
  181.3410  176.0810  139.5130 C   0  0  0  0  0  2  0  0  0  0  0  0
  184.6910  177.9760  141.9620 N   0  0  0  0  0  2  0  0  0  0  0  0
  185.7130  178.5910  142.7900 C   0  0  0  0  0  3  0  0  0  0  0  0
  186.5170  177.5050  143.4720 C   0  0  0  0  0  2  0  0  0  0  0  0
  185.4490  178.2510  144.2420 C   0  0  0  0  0  2  0  0  0  0  0  0
  187.1110  173.3910  136.3230 C   0  0  0  0  0  0  0  0  0  0  0  0
  186.9140  172.1770  136.0590 O   0  0  0  0  0  0  0  0  0  0  0  0
  188.4670  173.9600  136.1540 C   0  0  0  0  0  0  0  0  0  0  0  0
  193.5260  176.6770  137.9430 O   0  0  0  0  0  1  0  0  0  0  0  0
  191.0410  174.9730  135.7570 C   0  0  0  0  0  0  0  0  0  0  0  0
  193.0600  175.2180  137.2330 P   0  0  2  0  0  0  0  0  0  0  0  0
  190.1480  174.9750  134.6910 C   0  0  0  0  0  3  0  0  0  0  0  0
  191.6700  174.5490  137.9670 O   0  0  0  0  0  0  0  0  0  0  0  0
  194.1970  174.2230  137.1740 O   0  0  0  0  0  0  0  0  0  0  0  0
  189.3900  173.9620  137.2170 C   0  0  0  0  0  3  0  0  0  0  0  0
  192.3470  175.4450  135.6970 O   0  0  0  0  0  0  0  0  0  0  0  0
  188.8600  174.4630  134.8950 C   0  0  0  0  0  3  0  0  0  0  0  0
  190.6680  174.4760  137.0050 C   0  0  0  0  0  0  0  0  0  0  0  0
  187.3180  178.1640  139.1400 C   0  0  0  0  0  2  0  0  0  0  0  0
  188.8420  178.1910  139.1330 C   0  0  0  0  0  2  0  0  0  0  0  0
  189.4190  176.8870  139.6590 C   0  0  0  0  0  2  0  0  0  0  0  0
  191.8910  177.5300  140.9860 O   0  0  0  0  0  0  0  0  0  0  0  0
  190.1810  175.7090  142.1700 O   0  0  0  0  0  1  0  0  0  0  0  0
  189.5920  178.2480  142.0010 O   0  0  0  0  0  1  0  0  0  0  0  0
  190.2700  177.1270  141.2510 P   0  0  0  0  0  0  0  0  0  0  0  0
  1 11  1  0  0  0  0
  2 43  1  1  0  0  0
  3  5  1  0  0  0  0
  4  9  1  0  0  0  0
  4  2  1  0  0  0  0
  6  3  1  1  0  0  0
  6  2  1  0  0  0  0
  6 20  1  0  0  0  0
  7  5  2  0  0  0  0
  8  3  2  0  0  0  0
  9  8  1  0  0  0  0
 10  8  1  0  0  0  0
 10 11  2  0  0  0  0
 11  7  1  0  0  0  0
 12 17  1  0  0  0  0
 13 22  1  0  0  0  0
 14 12  1  0  0  0  0
 14 20  1  0  0  0  0
 15 23  2  0  0  0  0
 16 26  1  1  0  0  0
 17 22  1  0  0  0  0
 18 15  1  0  0  0  0
 19 21  1  0  0  0  0
 19 16  1  0  0  0  0
 20 19  1  0  0  0  0
 21 16  1  0  0  0  0
 21 15  1  0  0  0  0
 22 18  1  0  0  0  0
 25 22  1  0  0  0  0
 25 24  1  0  0  0  0
 26 27  1  0  0  0  0
 27 28  1  0  0  0  0
 27 29  1  0  0  0  0
 28 29  1  0  0  0  0
 30 10  1  0  0  0  0
 31 30  2  0  0  0  0
 32 30  1  0  0  0  0
 32 39  1  0  0  0  0
 34 42  1  0  0  0  0
 35 33  1  0  0  0  0
 35 37  1  0  0  0  0
 36 41  1  0  0  0  0
 36 34  2  0  0  0  0
 38 35  2  0  0  0  0
 40 34  1  0  0  0  0
 40 35  1  0  0  0  0
 41 32  2  0  0  0  0
 42 39  2  0  0  0  0
 42 37  1  0  0  0  0
 44 43  1  0  0  0  0
 44 45  1  0  0  0  0
 45 49  1  0  0  0  0
 46 49  2  0  0  0  0
 49 48  1  0  0  0  0
 49 47  1  0  0  0  0
M  END
>  <MODEL>
5

>  <REMARK>
 VINA RESULT:      -5.8      3.338      6.674
  Name = 
  10 active torsions:
  status: ('A' for Active; 'I' for Inactive)
    1  A    between atoms: C_1  and  C_9
    2  A    between atoms: C_1  and  C_36
    3  A    between atoms: C_10  and  C_38
    4  A    between atoms: C_11  and  C_16
    5  A    between atoms: C_12  and  N_47
    6  A    between atoms: C_16  and  C_42
    7  A    between atoms: C_18  and  N_47
    8  A    between atoms: C_19  and  C_33
    9  A    between atoms: C_36  and  C_37
   10  A    between atoms: C_37  and  P_43
                            x       y       z     vdW  Elec       q    Type
                         _______ _______ _______ _____ _____    ______ ____

>  <TORSDO>
F 10

$$$$
=
 OpenBabel11062410593D

 49 55  0  0  1  0  0  0  0  0999 V2000
  184.2890  179.3650  141.4160 F   0  0  0  0  0  0  0  0  0  0  0  0
  184.2270  176.7420  135.5160 C   0  0  1  0  0  3  0  0  0  0  0  0
  185.1300  177.9190  137.6060 C   0  0  0  0  0  0  0  0  0  0  0  0
  182.9940  177.6320  135.6690 C   0  0  0  0  0  2  0  0  0  0  0  0
  186.1570  178.1410  138.5290 C   0  0  0  0  0  3  0  0  0  0  0  0
  185.4190  177.4210  136.2130 C   0  0  1  0  0  3  0  0  0  0  0  0
  185.8640  178.6310  139.8020 C   0  0  0  0  0  3  0  0  0  0  0  0
  183.7970  178.2130  137.9580 C   0  0  0  0  0  0  0  0  0  0  0  0
  182.7610  177.9730  137.0400 O   0  0  0  0  0  0  0  0  0  0  0  0
  183.5020  178.7140  139.2380 C   0  0  0  0  0  0  0  0  0  0  0  0
  184.5450  178.9140  140.1600 C   0  0  0  0  0  0  0  0  0  0  0  0
  188.4220  178.3140  136.8560 C   0  0  0  0  0  2  0  0  0  0  0  0
  191.2940  177.3620  138.9160 C   0  0  0  0  0  1  0  0  0  0  0  0
  187.8010  177.9210  135.6600 O   0  0  0  0  0  0  0  0  0  0  0  0
  189.4450  174.5910  137.2190 C   0  0  0  0  0  0  0  0  0  0  0  0
  187.0790  174.4370  136.1430 C   0  0  1  0  0  3  0  0  0  0  0  0
  189.8010  177.6710  136.9850 C   0  0  0  0  0  2  0  0  0  0  0  0
  190.2700  175.4610  137.9530 O   0  0  0  0  0  0  0  0  0  0  0  0
  187.2880  175.7670  136.8310 C   0  0  2  0  0  3  0  0  0  0  0  0
  186.8400  176.9150  135.9250 C   0  0  1  0  0  3  0  0  0  0  0  0
  188.4730  175.0840  136.1780 C   0  0  1  0  0  3  0  0  0  0  0  0
  190.0230  176.8370  138.2690 C   0  0  1  0  0  0  0  0  0  0  0  0
  189.6360  173.3510  137.3430 O   0  0  0  0  0  0  0  0  0  0  0  0
  189.2900  177.5030  140.6430 C   0  0  0  0  0  1  0  0  0  0  0  0
  188.8820  176.9000  139.3050 C   0  0  0  0  0  2  0  0  0  0  0  0
  186.8970  173.4020  137.1510 N   0  0  0  0  0  2  0  0  0  0  0  0
  186.6450  172.1610  136.4410 C   0  0  0  0  0  3  0  0  0  0  0  0
  185.8020  172.4530  135.2190 C   0  0  0  0  0  2  0  0  0  0  0  0
  185.1590  171.8720  136.4580 C   0  0  0  0  0  2  0  0  0  0  0  0
  182.1010  179.0140  139.6070 C   0  0  0  0  0  0  0  0  0  0  0  0
  181.5440  178.3020  140.4820 O   0  0  0  0  0  0  0  0  0  0  0  0
  181.3290  180.0930  138.9500 C   0  0  0  0  0  0  0  0  0  0  0  0
  179.9270  185.7880  137.6140 O   0  0  0  0  0  1  0  0  0  0  0  0
  179.8450  182.0650  137.6400 C   0  0  0  0  0  0  0  0  0  0  0  0
  180.3780  184.3750  136.8060 P   0  0  2  0  0  0  0  0  0  0  0  0
  179.2270  180.8590  137.9540 C   0  0  0  0  0  3  0  0  0  0  0  0
  181.6500  183.5500  137.5940 O   0  0  0  0  0  0  0  0  0  0  0  0
  180.6910  184.6270  135.3480 O   0  0  0  0  0  0  0  0  0  0  0  0
  181.9350  181.3190  138.6180 C   0  0  0  0  0  3  0  0  0  0  0  0
  179.2260  183.1280  136.9910 O   0  0  0  0  0  0  0  0  0  0  0  0
  179.9770  179.8740  138.6080 C   0  0  0  0  0  3  0  0  0  0  0  0
  181.1800  182.2950  137.9690 C   0  0  0  0  0  0  0  0  0  0  0  0
  183.9370  175.2920  135.9280 C   0  0  0  0  0  2  0  0  0  0  0  0
  182.5500  174.8010  135.5300 C   0  0  0  0  0  2  0  0  0  0  0  0
  181.9900  173.8340  136.5600 C   0  0  0  0  0  2  0  0  0  0  0  0
  182.0560  175.3530  139.0040 O   0  0  0  0  0  1  0  0  0  0  0  0
  179.9400  173.6270  138.5680 O   0  0  0  0  0  1  0  0  0  0  0  0
  180.2430  175.8180  137.1780 O   0  0  0  0  0  0  0  0  0  0  0  0
  181.0220  174.7020  137.8340 P   0  0  0  0  0  0  0  0  0  0  0  0
  2  4  1  0  0  0  0
  2 43  1  1  0  0  0
  2  6  1  0  0  0  0
  3  8  2  0  0  0  0
  3  5  1  0  0  0  0
  4  9  1  0  0  0  0
  5  7  2  0  0  0  0
  6  3  1  1  0  0  0
  7 11  1  0  0  0  0
  8 10  1  0  0  0  0
  9  8  1  0  0  0  0
 10 30  1  0  0  0  0
 10 11  2  0  0  0  0
 11  1  1  0  0  0  0
 12 17  1  0  0  0  0
 14 20  1  0  0  0  0
 14 12  1  0  0  0  0
 15 23  2  0  0  0  0
 15 18  1  0  0  0  0
 16 21  1  0  0  0  0
 16 19  1  0  0  0  0
 16 26  1  1  0  0  0
 17 22  1  0  0  0  0
 18 22  1  0  0  0  0
 20  6  1  0  0  0  0
 20 19  1  0  0  0  0
 21 19  1  0  0  0  0
 21 15  1  0  0  0  0
 22 13  1  0  0  0  0
 22 25  1  0  0  0  0
 25 24  1  0  0  0  0
 27 29  1  0  0  0  0
 27 26  1  0  0  0  0
 28 27  1  0  0  0  0
 28 29  1  0  0  0  0
 30 31  2  0  0  0  0
 32 30  1  0  0  0  0
 34 36  2  0  0  0  0
 34 42  1  0  0  0  0
 35 40  1  0  0  0  0
 35 37  1  0  0  0  0
 35 33  1  0  0  0  0
 36 41  1  0  0  0  0
 37 42  1  0  0  0  0
 38 35  2  0  0  0  0
 39 32  1  0  0  0  0
 40 34  1  0  0  0  0
 41 32  2  0  0  0  0
 42 39  2  0  0  0  0
 44 43  1  0  0  0  0
 44 45  1  0  0  0  0
 45 49  1  0  0  0  0
 48 49  2  0  0  0  0
 49 47  1  0  0  0  0
 49 46  1  0  0  0  0
M  END
>  <MODEL>
6

>  <REMARK>
 VINA RESULT:      -5.7      3.910      8.902
  Name = 
  10 active torsions:
  status: ('A' for Active; 'I' for Inactive)
    1  A    between atoms: C_1  and  C_9
    2  A    between atoms: C_1  and  C_36
    3  A    between atoms: C_10  and  C_38
    4  A    between atoms: C_11  and  C_16
    5  A    between atoms: C_12  and  N_47
    6  A    between atoms: C_16  and  C_42
    7  A    between atoms: C_18  and  N_47
    8  A    between atoms: C_19  and  C_33
    9  A    between atoms: C_36  and  C_37
   10  A    between atoms: C_37  and  P_43
                            x       y       z     vdW  Elec       q    Type
                         _______ _______ _______ _____ _____    ______ ____

>  <TORSDO>
F 10

$$$$
=
 OpenBabel11062410593D

 49 55  0  0  1  0  0  0  0  0999 V2000
  190.7300  177.3490  141.5730 F   0  0  0  0  0  0  0  0  0  0  0  0
  186.4970  177.1300  136.7030 C   0  0  1  0  0  3  0  0  0  0  0  0
  188.7470  177.0530  137.9280 C   0  0  0  0  0  0  0  0  0  0  0  0
  186.1760  178.3420  137.5770 C   0  0  0  0  0  2  0  0  0  0  0  0
  190.0240  176.5070  138.0930 C   0  0  0  0  0  3  0  0  0  0  0  0
  188.0250  176.9780  136.6070 C   0  0  1  0  0  3  0  0  0  0  0  0
  190.6820  176.6170  139.3180 C   0  0  0  0  0  3  0  0  0  0  0  0
  188.1330  177.7350  138.9970 C   0  0  0  0  0  0  0  0  0  0  0  0
  186.8420  178.2680  138.8410 O   0  0  0  0  0  0  0  0  0  0  0  0
  188.7990  177.8530  140.2310 C   0  0  0  0  0  0  0  0  0  0  0  0
  190.0750  177.2810  140.3850 C   0  0  0  0  0  0  0  0  0  0  0  0
  190.8940  176.3870  135.3220 C   0  0  0  0  0  2  0  0  0  0  0  0
  193.5100  173.8290  135.2610 C   0  0  0  0  0  1  0  0  0  0  0  0
  189.6420  176.6340  134.7360 O   0  0  0  0  0  0  0  0  0  0  0  0
  189.9770  172.6310  135.0220 C   0  0  0  0  0  0  0  0  0  0  0  0
  187.6870  173.7400  135.5750 C   0  0  1  0  0  3  0  0  0  0  0  0
  191.6090  175.2440  134.6040 C   0  0  0  0  0  2  0  0  0  0  0  0
  191.3630  172.8520  135.1120 O   0  0  0  0  0  0  0  0  0  0  0  0
  188.8440  174.6200  135.9940 C   0  0  2  0  0  3  0  0  0  0  0  0
  188.6180  176.0590  135.5290 C   0  0  1  0  0  3  0  0  0  0  0  0
  188.9950  173.7440  134.7650 C   0  0  1  0  0  3  0  0  0  0  0  0
  192.0290  174.0590  135.5050 C   0  0  1  0  0  0  0  0  0  0  0  0
  189.5690  171.4380  135.0140 O   0  0  0  0  0  0  0  0  0  0  0  0
  193.0910  174.4530  137.8150 C   0  0  0  0  0  1  0  0  0  0  0  0
  191.8060  174.2660  137.0180 C   0  0  0  0  0  2  0  0  0  0  0  0
  187.5830  172.6180  136.4980 N   0  0  0  0  0  2  0  0  0  0  0  0
  186.4640  171.8090  136.0520 C   0  0  0  0  0  3  0  0  0  0  0  0
  185.5130  172.6740  135.2530 C   0  0  0  0  0  2  0  0  0  0  0  0
  185.1910  172.3250  136.6890 C   0  0  0  0  0  2  0  0  0  0  0  0
  188.1480  178.5620  141.3540 C   0  0  0  0  0  0  0  0  0  0  0  0
  187.5530  179.6450  141.1160 O   0  0  0  0  0  0  0  0  0  0  0  0
  188.2130  178.0600  142.7450 C   0  0  0  0  0  0  0  0  0  0  0  0
  190.9220  175.9430  147.6810 O   0  0  0  0  0  0  0  0  0  0  0  0
  188.2510  177.1600  145.3900 C   0  0  0  0  0  0  0  0  0  0  0  0
  189.9550  177.2540  147.2340 P   0  0  2  0  0  0  0  0  0  0  0  0
  187.1080  176.9500  144.6270 C   0  0  0  0  0  3  0  0  0  0  0  0
  190.4280  177.9350  145.7400 O   0  0  0  0  0  0  0  0  0  0  0  0
  189.8710  178.2980  148.3250 O   0  0  0  0  0  1  0  0  0  0  0  0
  189.3580  178.2670  143.5380 C   0  0  0  0  0  3  0  0  0  0  0  0
  188.4040  176.7650  146.7150 O   0  0  0  0  0  0  0  0  0  0  0  0
  187.0940  177.4050  143.3030 C   0  0  0  0  0  3  0  0  0  0  0  0
  189.3640  177.8070  144.8540 C   0  0  0  0  0  0  0  0  0  0  0  0
  185.7190  175.8840  137.1490 C   0  0  0  0  0  2  0  0  0  0  0  0
  184.2410  175.9110  136.7760 C   0  0  0  0  0  2  0  0  0  0  0  0
  183.3810  175.3380  137.8900 C   0  0  0  0  0  2  0  0  0  0  0  0
  181.1780  177.1550  137.5310 O   0  0  0  0  0  1  0  0  0  0  0  0
  180.6920  174.6880  138.6800 O   0  0  0  0  0  1  0  0  0  0  0  0
  181.3290  174.9340  136.1590 O   0  0  0  0  0  0  0  0  0  0  0  0
  181.6060  175.5190  137.5240 P   0  0  0  0  0  0  0  0  0  0  0  0
  2 43  1  1  0  0  0
  2  4  1  0  0  0  0
  3  5  2  0  0  0  0
  3  8  1  0  0  0  0
  4  9  1  0  0  0  0
  5  7  1  0  0  0  0
  6  2  1  0  0  0  0
  6  3  1  1  0  0  0
  7 11  2  0  0  0  0
  8 10  2  0  0  0  0
  9  8  1  0  0  0  0
 10 11  1  0  0  0  0
 10 30  1  0  0  0  0
 11  1  1  0  0  0  0
 13 22  1  0  0  0  0
 14 12  1  0  0  0  0
 14 20  1  0  0  0  0
 15 18  1  0  0  0  0
 16 19  1  0  0  0  0
 16 26  1  1  0  0  0
 17 12  1  0  0  0  0
 17 22  1  0  0  0  0
 18 22  1  0  0  0  0
 20 19  1  0  0  0  0
 20  6  1  0  0  0  0
 21 15  1  0  0  0  0
 21 16  1  0  0  0  0
 21 19  1  0  0  0  0
 22 25  1  0  0  0  0
 23 15  2  0  0  0  0
 25 24  1  0  0  0  0
 27 26  1  0  0  0  0
 27 29  1  0  0  0  0
 28 27  1  0  0  0  0
 28 29  1  0  0  0  0
 30 32  1  0  0  0  0
 31 30  2  0  0  0  0
 32 41  2  0  0  0  0
 32 39  1  0  0  0  0
 34 40  1  0  0  0  0
 35 33  2  0  0  0  0
 35 38  1  0  0  0  0
 36 34  2  0  0  0  0
 37 35  1  0  0  0  0
 39 42  2  0  0  0  0
 40 35  1  0  0  0  0
 41 36  1  0  0  0  0
 42 34  1  0  0  0  0
 42 37  1  0  0  0  0
 44 43  1  0  0  0  0
 44 45  1  0  0  0  0
 48 49  2  0  0  0  0
 49 46  1  0  0  0  0
 49 45  1  0  0  0  0
 49 47  1  0  0  0  0
M  END
>  <MODEL>
7

>  <REMARK>
 VINA RESULT:      -5.3      3.546      6.816
  Name = 
  10 active torsions:
  status: ('A' for Active; 'I' for Inactive)
    1  A    between atoms: C_1  and  C_9
    2  A    between atoms: C_1  and  C_36
    3  A    between atoms: C_10  and  C_38
    4  A    between atoms: C_11  and  C_16
    5  A    between atoms: C_12  and  N_47
    6  A    between atoms: C_16  and  C_42
    7  A    between atoms: C_18  and  N_47
    8  A    between atoms: C_19  and  C_33
    9  A    between atoms: C_36  and  C_37
   10  A    between atoms: C_37  and  P_43
                            x       y       z     vdW  Elec       q    Type
                         _______ _______ _______ _____ _____    ______ ____

>  <TORSDO>
F 10

$$$$
=
 OpenBabel11062410593D

 49 55  0  0  1  0  0  0  0  0999 V2000
  189.8670  176.9470  139.6840 F   0  0  0  0  0  0  0  0  0  0  0  0
  183.6960  178.6160  138.7720 C   0  0  1  0  0  3  0  0  0  0  0  0
  186.0400  177.7220  138.2470 C   0  0  0  0  0  0  0  0  0  0  0  0
  184.4030  179.7460  139.5200 C   0  0  0  0  0  2  0  0  0  0  0  0
  186.8760  176.8070  137.5980 C   0  0  0  0  0  3  0  0  0  0  0  0
  184.6610  178.0340  137.7240 C   0  0  1  0  0  3  0  0  0  0  0  0
  188.1580  176.5590  138.0850 C   0  0  0  0  0  3  0  0  0  0  0  0
  186.5060  178.4110  139.3840 C   0  0  0  0  0  0  0  0  0  0  0  0
  185.6620  179.3170  140.0500 O   0  0  0  0  0  0  0  0  0  0  0  0
  187.8020  178.1670  139.8720 C   0  0  0  0  0  0  0  0  0  0  0  0
  188.6220  177.2300  139.2180 C   0  0  0  0  0  0  0  0  0  0  0  0
  185.8090  176.1170  135.4360 C   0  0  0  0  0  2  0  0  0  0  0  0
  186.1290  172.5700  134.5940 C   0  0  0  0  0  1  0  0  0  0  0  0
  184.8360  177.1280  135.4050 O   0  0  0  0  0  0  0  0  0  0  0  0
  182.8500  173.6760  136.0060 C   0  0  0  0  0  0  0  0  0  0  0  0
  182.1130  175.7940  137.3300 C   0  0  1  0  0  3  0  0  0  0  0  0
  185.3530  174.9040  134.6290 C   0  0  0  0  0  2  0  0  0  0  0  0
  183.9890  173.0430  135.4790 O   0  0  0  0  0  0  0  0  0  0  0  0
  183.6100  175.7680  137.1150 C   0  0  2  0  0  3  0  0  0  0  0  0
  184.1030  177.1280  136.6170 C   0  0  1  0  0  3  0  0  0  0  0  0
  182.7050  175.1750  136.0530 C   0  0  1  0  0  3  0  0  0  0  0  0
  185.3220  173.5660  135.4070 C   0  0  1  0  0  0  0  0  0  0  0  0
  181.8630  172.9550  136.3150 O   0  0  0  0  0  0  0  0  0  0  0  0
  185.2640  172.6280  137.8020 C   0  0  0  0  0  1  0  0  0  0  0  0
  185.9010  173.6190  136.8360 C   0  0  0  0  0  2  0  0  0  0  0  0
  181.7600  174.8060  138.3400 N   0  0  0  0  0  2  0  0  0  0  0  0
  180.3490  174.9850  138.6290 C   0  0  0  0  0  3  0  0  0  0  0  0
  180.1490  175.0000  140.1290 C   0  0  0  0  0  2  0  0  0  0  0  0
  179.8250  173.7530  139.3370 C   0  0  0  0  0  2  0  0  0  0  0  0
  188.2850  178.8860  141.0720 C   0  0  0  0  0  0  0  0  0  0  0  0
  188.7350  180.0520  140.9320 O   0  0  0  0  0  0  0  0  0  0  0  0
  188.2900  178.2620  142.4140 C   0  0  0  0  0  0  0  0  0  0  0  0
  190.7990  175.8310  147.3100 O   0  0  0  0  0  0  0  0  0  0  0  0
  188.2140  177.1250  144.9650 C   0  0  0  0  0  0  0  0  0  0  0  0
  189.7930  177.1300  146.9190 P   0  0  2  0  0  0  0  0  0  0  0  0
  187.1320  176.9330  144.1130 C   0  0  0  0  0  3  0  0  0  0  0  0
  190.3200  177.9670  145.5260 O   0  0  0  0  0  0  0  0  0  0  0  0
  189.5870  178.0640  148.0900 O   0  0  0  0  0  1  0  0  0  0  0  0
  189.3720  178.4490  143.2960 C   0  0  0  0  0  3  0  0  0  0  0  0
  188.3050  176.6190  146.2570 O   0  0  0  0  0  0  0  0  0  0  0  0
  187.1750  177.5070  142.8360 C   0  0  0  0  0  3  0  0  0  0  0  0
  189.3210  177.8710  144.5630 C   0  0  0  0  0  0  0  0  0  0  0  0
  183.0550  177.6080  139.7370 C   0  0  0  0  0  2  0  0  0  0  0  0
  182.5880  178.2210  141.0510 C   0  0  0  0  0  2  0  0  0  0  0  0
  181.1030  178.5410  141.0140 C   0  0  0  0  0  2  0  0  0  0  0  0
  181.6120  178.6270  143.8460 O   0  0  0  0  0  1  0  0  0  0  0  0
  179.0150  178.2590  142.9730 O   0  0  0  0  0  1  0  0  0  0  0  0
  180.2670  180.5310  142.6610 O   0  0  0  0  0  0  0  0  0  0  0  0
  180.4840  179.0360  142.6540 P   0  0  0  0  0  0  0  0  0  0  0  0
  2  4  1  0  0  0  0
  2 43  1  1  0  0  0
  3  8  1  0  0  0  0
  4  9  1  0  0  0  0
  5  7  1  0  0  0  0
  5  3  2  0  0  0  0
  6  3  1  1  0  0  0
  6  2  1  0  0  0  0
  7 11  2  0  0  0  0
  8 10  2  0  0  0  0
  8  9  1  0  0  0  0
 10 30  1  0  0  0  0
 11  1  1  0  0  0  0
 11 10  1  0  0  0  0
 13 22  1  0  0  0  0
 14 12  1  0  0  0  0
 14 20  1  0  0  0  0
 15 21  1  0  0  0  0
 15 23  2  0  0  0  0
 16 26  1  1  0  0  0
 17 22  1  0  0  0  0
 17 12  1  0  0  0  0
 18 15  1  0  0  0  0
 19 16  1  0  0  0  0
 20 19  1  0  0  0  0
 20  6  1  0  0  0  0
 21 19  1  0  0  0  0
 21 16  1  0  0  0  0
 22 18  1  0  0  0  0
 22 25  1  0  0  0  0
 25 24  1  0  0  0  0
 26 27  1  0  0  0  0
 27 29  1  0  0  0  0
 27 28  1  0  0  0  0
 29 28  1  0  0  0  0
 30 32  1  0  0  0  0
 31 30  2  0  0  0  0
 32 41  2  0  0  0  0
 32 39  1  0  0  0  0
 34 40  1  0  0  0  0
 35 33  2  0  0  0  0
 35 38  1  0  0  0  0
 36 34  2  0  0  0  0
 37 35  1  0  0  0  0
 39 42  2  0  0  0  0
 40 35  1  0  0  0  0
 41 36  1  0  0  0  0
 42 34  1  0  0  0  0
 42 37  1  0  0  0  0
 43 44  1  0  0  0  0
 45 44  1  0  0  0  0
 45 49  1  0  0  0  0
 49 48  2  0  0  0  0
 49 47  1  0  0  0  0
 49 46  1  0  0  0  0
M  END
>  <MODEL>
8

>  <REMARK>
 VINA RESULT:      -5.3      2.053      3.280
  Name = 
  10 active torsions:
  status: ('A' for Active; 'I' for Inactive)
    1  A    between atoms: C_1  and  C_9
    2  A    between atoms: C_1  and  C_36
    3  A    between atoms: C_10  and  C_38
    4  A    between atoms: C_11  and  C_16
    5  A    between atoms: C_12  and  N_47
    6  A    between atoms: C_16  and  C_42
    7  A    between atoms: C_18  and  N_47
    8  A    between atoms: C_19  and  C_33
    9  A    between atoms: C_36  and  C_37
   10  A    between atoms: C_37  and  P_43
                            x       y       z     vdW  Elec       q    Type
                         _______ _______ _______ _____ _____    ______ ____

>  <TORSDO>
F 10

$$$$
=
 OpenBabel11062410593D

 49 55  0  0  1  0  0  0  0  0999 V2000
  190.2000  177.7740  134.8180 F   0  0  0  0  0  0  0  0  0  0  0  0
  184.9740  174.6230  136.9280 C   0  0  1  0  0  3  0  0  0  0  0  0
  186.6040  176.5590  136.5220 C   0  0  0  0  0  0  0  0  0  0  0  0
  186.2110  173.7770  137.2280 C   0  0  0  0  0  2  0  0  0  0  0  0
  186.8450  177.9090  136.2480 C   0  0  0  0  0  3  0  0  0  0  0  0
  185.3180  176.1040  137.1640 C   0  0  1  0  0  3  0  0  0  0  0  0
  188.0560  178.3060  135.6820 C   0  0  0  0  0  3  0  0  0  0  0  0
  187.5990  175.6000  136.2450 C   0  0  0  0  0  0  0  0  0  0  0  0
  187.3530  174.2400  136.5000 O   0  0  0  0  0  0  0  0  0  0  0  0
  188.8240  176.0000  135.6800 C   0  0  0  0  0  0  0  0  0  0  0  0
  189.0410  177.3590  135.3940 C   0  0  0  0  0  0  0  0  0  0  0  0
  182.1910  176.2350  136.5040 C   0  0  0  0  0  2  0  0  0  0  0  0
  178.9340  176.3220  138.1700 C   0  0  0  0  0  1  0  0  0  0  0  0
  183.2470  177.1080  136.1980 O   0  0  0  0  0  0  0  0  0  0  0  0
  181.6310  178.4590  139.6310 C   0  0  0  0  0  0  0  0  0  0  0  0
  184.2230  178.4630  139.3780 C   0  0  1  0  0  3  0  0  0  0  0  0
  180.9600  177.0150  136.9600 C   0  0  0  0  0  2  0  0  0  0  0  0
  180.4860  177.7300  139.2630 O   0  0  0  0  0  0  0  0  0  0  0  0
  183.5990  177.2790  138.6720 C   0  0  2  0  0  3  0  0  0  0  0  0
  184.1790  177.1290  137.2640 C   0  0  1  0  0  3  0  0  0  0  0  0
  182.8330  178.5860  138.7310 C   0  0  1  0  0  3  0  0  0  0  0  0
  180.4110  176.6260  138.3530 C   0  0  1  0  0  0  0  0  0  0  0  0
  181.5820  179.1410  140.6890 O   0  0  0  0  0  0  0  0  0  0  0  0
  180.2030  174.6740  140.0150 C   0  0  0  0  0  1  0  0  0  0  0  0
  181.0860  175.4050  139.0130 C   0  0  0  0  0  2  0  0  0  0  0  0
  184.1720  178.2410  140.8160 N   0  0  0  0  0  2  0  0  0  0  0  0
  185.1680  179.1130  141.4120 C   0  0  0  0  0  3  0  0  0  0  0  0
  186.5490  178.5990  141.0640 C   0  0  0  0  0  2  0  0  0  0  0  0
  185.9670  178.3310  142.4340 C   0  0  0  0  0  2  0  0  0  0  0  0
  189.8620  174.9890  135.3820 C   0  0  0  0  0  0  0  0  0  0  0  0
  189.5770  174.0500  134.5940 O   0  0  0  0  0  0  0  0  0  0  0  0
  191.2010  175.0290  136.0100 C   0  0  0  0  0  0  0  0  0  0  0  0
  196.9770  173.4930  136.6920 O   0  0  0  0  0  1  0  0  0  0  0  0
  193.7100  175.1950  137.2300 C   0  0  0  0  0  0  0  0  0  0  0  0
  196.0650  174.8860  136.4110 P   0  0  2  0  0  0  0  0  0  0  0  0
  192.5750  175.4480  137.9930 C   0  0  0  0  0  3  0  0  0  0  0  0
  194.8310  174.6380  135.2560 O   0  0  0  0  0  0  0  0  0  0  0  0
  196.9330  176.0740  136.0570 O   0  0  0  0  0  0  0  0  0  0  0  0
  192.3640  174.7840  135.2550 C   0  0  0  0  0  3  0  0  0  0  0  0
  195.0140  175.2440  137.7090 O   0  0  0  0  0  0  0  0  0  0  0  0
  191.3210  175.3650  137.3760 C   0  0  0  0  0  3  0  0  0  0  0  0
  193.6080  174.8650  135.8790 C   0  0  0  0  0  0  0  0  0  0  0  0
  184.3650  174.2780  135.5630 C   0  0  0  0  0  2  0  0  0  0  0  0
  184.0670  172.7950  135.3750 C   0  0  0  0  0  2  0  0  0  0  0  0
  182.7460  172.5840  134.6540 C   0  0  0  0  0  2  0  0  0  0  0  0
  180.1050  173.2820  135.5630 O   0  0  0  0  0  0  0  0  0  0  0  0
  181.9540  172.3840  137.4130 O   0  0  0  0  0  1  0  0  0  0  0  0
  180.9310  170.8020  135.6030 O   0  0  0  0  0  1  0  0  0  0  0  0
  181.3970  172.2210  135.8230 P   0  0  0  0  0  0  0  0  0  0  0  0
  1 11  1  0  0  0  0
  2 43  1  6  0  0  0
  2  6  1  0  0  0  0
  2  4  1  0  0  0  0
  5  3  1  0  0  0  0
  6  3  1  6  0  0  0
  6 20  1  0  0  0  0
  7  5  2  0  0  0  0
  8  9  1  0  0  0  0
  8  3  2  0  0  0  0
  9  4  1  0  0  0  0
 10  8  1  0  0  0  0
 11 10  2  0  0  0  0
 11  7  1  0  0  0  0
 12 17  1  0  0  0  0
 13 22  1  0  0  0  0
 14 12  1  0  0  0  0
 14 20  1  0  0  0  0
 15 23  2  0  0  0  0
 16 26  1  1  0  0  0
 17 22  1  0  0  0  0
 18 15  1  0  0  0  0
 19 21  1  0  0  0  0
 19 16  1  0  0  0  0
 20 19  1  0  0  0  0
 21 16  1  0  0  0  0
 21 15  1  0  0  0  0
 22 25  1  0  0  0  0
 22 18  1  0  0  0  0
 25 24  1  0  0  0  0
 26 27  1  0  0  0  0
 27 29  1  0  0  0  0
 28 27  1  0  0  0  0
 28 29  1  0  0  0  0
 30 10  1  0  0  0  0
 30 32  1  0  0  0  0
 31 30  2  0  0  0  0
 32 41  1  0  0  0  0
 34 40  1  0  0  0  0
 34 36  1  0  0  0  0
 35 33  1  0  0  0  0
 35 40  1  0  0  0  0
 37 42  1  0  0  0  0
 37 35  1  0  0  0  0
 38 35  2  0  0  0  0
 39 42  1  0  0  0  0
 39 32  2  0  0  0  0
 41 36  2  0  0  0  0
 42 34  2  0  0  0  0
 44 43  1  0  0  0  0
 45 44  1  0  0  0  0
 45 49  1  0  0  0  0
 46 49  2  0  0  0  0
 48 49  1  0  0  0  0
 49 47  1  0  0  0  0
M  END
>  <MODEL>
9

>  <REMARK>
 VINA RESULT:      -5.3      4.259      6.413
  Name = 
  10 active torsions:
  status: ('A' for Active; 'I' for Inactive)
    1  A    between atoms: C_1  and  C_9
    2  A    between atoms: C_1  and  C_36
    3  A    between atoms: C_10  and  C_38
    4  A    between atoms: C_11  and  C_16
    5  A    between atoms: C_12  and  N_47
    6  A    between atoms: C_16  and  C_42
    7  A    between atoms: C_18  and  N_47
    8  A    between atoms: C_19  and  C_33
    9  A    between atoms: C_36  and  C_37
   10  A    between atoms: C_37  and  P_43
                            x       y       z     vdW  Elec       q    Type
                         _______ _______ _______ _____ _____    ______ ____

>  <TORSDO>
F 10

$$$$
