=
 OpenBabel11062413193D

 30 33  0  0  1  0  0  0  0  0999 V2000
  188.6150  178.4790  139.4440 C   0  0  0  0  0  2  0  0  0  0  0  0
  184.5870  178.6010  140.8700 C   0  0  0  0  0  2  0  0  0  0  0  0
  188.5310  177.1890  145.0320 C   0  0  2  0  0  3  0  0  0  0  0  0
  184.6680  179.3470  145.2400 N   0  0  0  0  0  2  0  0  0  0  0  0
  187.4480  178.3530  138.5080 C   0  0  0  0  0  0  0  0  0  0  0  0
  187.6770  177.9540  137.0910 C   0  0  0  0  0  2  0  0  0  0  0  0
  190.1130  176.7300  138.5180 C   0  0  0  0  0  0  0  0  0  0  0  0
  190.0340  177.1310  140.9160 N   0  0  0  0  0  2  0  0  0  0  0  0
  189.9420  176.8290  144.6410 C   0  0  0  0  0  0  0  0  0  0  0  0
  188.0390  176.4750  137.0350 C   0  0  0  0  0  2  0  0  0  0  0  0
  189.5410  176.2600  137.2020 C   0  0  2  0  0  3  0  0  0  0  0  0
  184.6250  178.0130  142.2690 C   0  0  0  0  0  2  0  0  0  0  0  0
  185.5370  178.8360  143.1650 C   0  0  2  0  0  3  0  0  0  0  0  0
  187.7600  177.9160  143.9010 C   0  0  2  0  0  3  0  0  0  0  0  0
  185.9350  178.6420  140.3370 N   0  0  0  0  0  2  0  0  0  0  0  0
  189.5220  177.1390  142.2530 C   0  0  0  0  0  0  0  0  0  0  0  0
  186.2370  177.9360  144.1540 C   0  0  1  0  0  3  0  0  0  0  0  0
  191.3260  176.8510  138.6030 O   0  0  0  0  0  0  0  0  0  0  0  0
  188.0440  177.2600  142.5350 C   0  0  0  0  0  2  0  0  0  0  0  0
  189.8410  174.9110  137.0140 O   0  0  0  0  0  1  0  0  0  0  0  0
  185.8600  178.5530  145.4750 C   0  0  0  0  0  2  0  0  0  0  0  0
  186.1990  178.4050  138.9610 C   0  0  0  0  0  3  0  0  0  0  0  0
  190.3770  176.8950  143.2430 C   0  0  0  0  0  3  0  0  0  0  0  0
  184.7520  179.8090  143.9140 N   0  0  0  0  0  2  0  0  0  0  0  0
  190.7560  176.4360  145.5170 O   0  0  0  0  0  0  0  0  0  0  0  0
  189.2380  177.1110  139.6930 C   0  0  1  0  0  3  0  0  0  0  0  0
  188.5470  177.9840  146.2610 N   0  0  0  0  0  2  0  0  0  0  0  0
  188.3610  176.1910  147.7570 O   0  0  0  0  0  0  0  0  0  0  0  0
  188.4600  177.4340  147.5810 C   0  0  0  0  0  0  0  0  0  0  0  0
  188.4920  178.3420  148.7560 C   0  0  0  0  0  1  0  0  0  0  0  0
  2 12  1  0  0  0  0
  3 27  1  1  0  0  0
  4 21  1  0  0  0  0
  5 22  2  0  0  0  0
  5  1  1  0  0  0  0
  6  5  1  0  0  0  0
  7 18  2  0  0  0  0
  7 26  1  0  0  0  0
  8 16  1  0  0  0  0
  9  3  1  0  0  0  0
  9 25  2  0  0  0  0
 10  6  1  0  0  0  0
 10 11  1  0  0  0  0
 11 20  1  1  0  0  0
 11  7  1  0  0  0  0
 13 12  1  6  0  0  0
 13 24  1  0  0  0  0
 13 17  1  0  0  0  0
 14 19  1  6  0  0  0
 14 17  1  0  0  0  0
 14  3  1  0  0  0  0
 15  2  1  0  0  0  0
 16 19  1  0  0  0  0
 16 23  2  0  0  0  0
 17 21  1  1  0  0  0
 22 15  1  0  0  0  0
 23  9  1  0  0  0  0
 24  4  1  0  0  0  0
 26  1  1  6  0  0  0
 26  8  1  0  0  0  0
 27 29  1  0  0  0  0
 29 28  2  0  0  0  0
 29 30  1  0  0  0  0
M  END
>  <MODEL>
1

>  <REMARK>
 VINA RESULT:      -9.9      0.000      0.000
  Name = 
  1 active torsions:
  status: ('A' for Active; 'I' for Inactive)
    1  A    between atoms: C_3  and  N_5
                            x       y       z     vdW  Elec       q    Type
                         _______ _______ _______ _____ _____    ______ ____

>  <TORSDO>
F 1

$$$$
=
 OpenBabel11062413193D

 30 33  0  0  1  0  0  0  0  0999 V2000
  188.0610  176.7760  143.9730 C   0  0  0  0  0  2  0  0  0  0  0  0
  184.8050  178.7130  145.9520 C   0  0  0  0  0  2  0  0  0  0  0  0
  184.5590  179.0900  140.0630 C   0  0  2  0  0  3  0  0  0  0  0  0
  181.3800  178.9200  143.1430 N   0  0  0  0  0  2  0  0  0  0  0  0
  188.1590  177.2010  145.4090 C   0  0  1  0  0  3  0  0  0  0  0  0
  189.4760  177.1610  146.1040 C   0  0  0  0  0  2  0  0  0  0  0  0
  190.3000  177.4670  143.1560 C   0  0  0  0  0  0  0  0  0  0  0  0
  188.3580  177.6420  141.7010 N   0  0  0  0  0  2  0  0  0  0  0  0
  185.7600  178.7120  139.2340 C   0  0  0  0  0  0  0  0  0  0  0  0
  190.3570  178.2880  145.5820 C   0  0  0  0  0  2  0  0  0  0  0  0
  191.1420  177.8580  144.3460 C   0  0  2  0  0  3  0  0  0  0  0  0
  184.0750  179.4990  144.8770 C   0  0  0  0  0  2  0  0  0  0  0  0
  183.5650  178.5650  143.7920 C   0  0  2  0  0  3  0  0  0  0  0  0
  184.6390  178.5560  141.5160 C   0  0  2  0  0  3  0  0  0  0  0  0
  185.8990  177.9810  145.3430 N   0  0  0  0  0  0  0  0  0  0  0  0
  187.1150  178.1320  141.1850 C   0  0  0  0  0  0  0  0  0  0  0  0
  183.6250  179.2530  142.4500 C   0  0  1  0  0  3  0  0  0  0  0  0
  190.8420  176.8520  142.2500 O   0  0  0  0  0  0  0  0  0  0  0  0
  186.0620  178.7270  142.0860 C   0  0  0  0  0  2  0  0  0  0  0  0
  192.0290  178.8720  143.9820 O   0  0  0  0  0  1  0  0  0  0  0  0
  182.2010  179.1460  141.9680 C   0  0  0  0  0  2  0  0  0  0  0  0
  187.1350  177.7920  146.0180 C   0  0  0  0  0  3  0  0  0  0  0  0
  186.9720  178.1780  139.8630 C   0  0  0  0  0  3  0  0  0  0  0  0
  182.1770  178.2070  144.0560 N   0  0  0  0  0  2  0  0  0  0  0  0
  185.7420  178.8820  137.9880 O   0  0  0  0  0  0  0  0  0  0  0  0
  188.8160  177.7550  143.0830 C   0  0  1  0  0  3  0  0  0  0  0  0
  183.3370  178.6380  139.3960 N   0  0  0  0  0  2  0  0  0  0  0  0
  182.6610  180.7350  138.6010 O   0  0  0  0  0  0  0  0  0  0  0  0
  182.4370  179.4980  138.6880 C   0  0  0  0  0  0  0  0  0  0  0  0
  181.2280  178.9240  138.0450 C   0  0  0  0  0  1  0  0  0  0  0  0
  3 27  1  6  0  0  0
  3 14  1  0  0  0  0
  4 24  1  0  0  0  0
  5  1  1  6  0  0  0
  5 22  1  0  0  0  0
  5  6  1  0  0  0  0
  7 11  1  0  0  0  0
  8 26  1  0  0  0  0
  9 23  1  0  0  0  0
  9  3  1  0  0  0  0
 10  6  1  0  0  0  0
 11 20  1  6  0  0  0
 11 10  1  0  0  0  0
 12  2  1  0  0  0  0
 13 24  1  0  0  0  0
 13 12  1  1  0  0  0
 14 19  1  1  0  0  0
 14 17  1  0  0  0  0
 15  2  1  0  0  0  0
 15 22  2  0  0  0  0
 16  8  1  0  0  0  0
 16 19  1  0  0  0  0
 17 21  1  6  0  0  0
 17 13  1  0  0  0  0
 18  7  2  0  0  0  0
 21  4  1  0  0  0  0
 23 16  2  0  0  0  0
 25  9  2  0  0  0  0
 26  7  1  0  0  0  0
 26  1  1  1  0  0  0
 28 29  2  0  0  0  0
 29 27  1  0  0  0  0
 30 29  1  0  0  0  0
M  END
>  <MODEL>
2

>  <REMARK>
 VINA RESULT:      -9.0      2.881      6.660
  Name = 
  1 active torsions:
  status: ('A' for Active; 'I' for Inactive)
    1  A    between atoms: C_3  and  N_5
                            x       y       z     vdW  Elec       q    Type
                         _______ _______ _______ _____ _____    ______ ____

>  <TORSDO>
F 1

$$$$
=
 OpenBabel11062413193D

 30 33  0  0  1  0  0  0  0  0999 V2000
  187.6880  176.7480  145.9090 C   0  0  0  0  0  2  0  0  0  0  0  0
  184.4900  179.2220  144.5190 C   0  0  0  0  0  2  0  0  0  0  0  0
  188.6270  178.1820  140.4350 C   0  0  2  0  0  3  0  0  0  0  0  0
  184.2650  178.8740  140.1050 N   0  0  0  0  0  2  0  0  0  0  0  0
  186.8090  177.5030  146.8640 C   0  0  1  0  0  3  0  0  0  0  0  0
  187.1800  177.5820  148.3050 C   0  0  0  0  0  2  0  0  0  0  0  0
  189.9070  177.1420  146.9500 C   0  0  0  0  0  0  0  0  0  0  0  0
  189.6910  177.0330  144.5290 N   0  0  0  0  0  2  0  0  0  0  0  0
  189.9460  177.5730  140.8380 C   0  0  0  0  0  0  0  0  0  0  0  0
  188.3710  178.5190  148.4690 C   0  0  0  0  0  2  0  0  0  0  0  0
  189.6930  177.7760  148.3030 C   0  0  2  0  0  3  0  0  0  0  0  0
  184.9350  179.7530  143.1680 C   0  0  0  0  0  2  0  0  0  0  0  0
  185.1830  178.6050  142.2040 C   0  0  2  0  0  3  0  0  0  0  0  0
  187.5300  178.0110  141.5160 C   0  0  2  0  0  3  0  0  0  0  0  0
  185.5080  178.3260  145.0340 N   0  0  0  0  0  0  0  0  0  0  0  0
  189.3330  177.4290  143.2000 C   0  0  0  0  0  0  0  0  0  0  0  0
  186.3260  178.9470  141.2790 C   0  0  1  0  0  3  0  0  0  0  0  0
  190.7930  176.3070  146.8430 O   0  0  0  0  0  0  0  0  0  0  0  0
  188.1040  178.2610  142.9250 C   0  0  0  0  0  2  0  0  0  0  0  0
  190.7510  178.6390  148.5890 O   0  0  0  0  0  1  0  0  0  0  0  0
  185.7010  178.7800  139.9180 C   0  0  0  0  0  2  0  0  0  0  0  0
  185.8100  178.2590  146.4220 C   0  0  0  0  0  3  0  0  0  0  0  0
  190.1950  177.1610  142.2230 C   0  0  0  0  0  3  0  0  0  0  0  0
  183.9960  178.3720  141.3910 N   0  0  0  0  0  2  0  0  0  0  0  0
  190.8630  177.4390  139.9860 O   0  0  0  0  0  0  0  0  0  0  0  0
  189.0280  177.4570  145.7580 C   0  0  1  0  0  3  0  0  0  0  0  0
  188.2000  177.6280  139.1500 N   0  0  0  0  0  2  0  0  0  0  0  0
  188.9980  179.3780  137.8120 O   0  0  0  0  0  0  0  0  0  0  0  0
  188.4110  178.2660  137.8840 C   0  0  0  0  0  0  0  0  0  0  0  0
  187.9360  177.6040  136.6430 C   0  0  0  0  0  1  0  0  0  0  0  0
  2 15  1  0  0  0  0
  3 27  1  6  0  0  0
  3  9  1  0  0  0  0
  3 14  1  0  0  0  0
  4 24  1  0  0  0  0
  5  1  1  6  0  0  0
  5  6  1  0  0  0  0
  6 10  1  0  0  0  0
  7 11  1  0  0  0  0
  8 26  1  0  0  0  0
  9 23  1  0  0  0  0
 11 10  1  0  0  0  0
 11 20  1  6  0  0  0
 12  2  1  0  0  0  0
 13 12  1  1  0  0  0
 14 19  1  1  0  0  0
 15 22  2  0  0  0  0
 16  8  1  0  0  0  0
 17 21  1  6  0  0  0
 17 14  1  0  0  0  0
 17 13  1  0  0  0  0
 18  7  2  0  0  0  0
 19 16  1  0  0  0  0
 21  4  1  0  0  0  0
 22  5  1  0  0  0  0
 23 16  2  0  0  0  0
 24 13  1  0  0  0  0
 25  9  2  0  0  0  0
 26  1  1  1  0  0  0
 26  7  1  0  0  0  0
 28 29  2  0  0  0  0
 29 27  1  0  0  0  0
 30 29  1  0  0  0  0
M  END
>  <MODEL>
3

>  <REMARK>
 VINA RESULT:      -8.8      1.683      7.060
  Name = 
  1 active torsions:
  status: ('A' for Active; 'I' for Inactive)
    1  A    between atoms: C_3  and  N_5
                            x       y       z     vdW  Elec       q    Type
                         _______ _______ _______ _____ _____    ______ ____

>  <TORSDO>
F 1

$$$$
=
 OpenBabel11062413193D

 30 33  0  0  1  0  0  0  0  0999 V2000
  189.8220  178.6030  144.5300 C   0  0  0  0  0  2  0  0  0  0  0  0
  190.7820  177.2550  140.5890 C   0  0  0  0  0  2  0  0  0  0  0  0
  185.0430  178.4110  141.3630 C   0  0  2  0  0  3  0  0  0  0  0  0
  187.6610  178.7250  137.8040 N   0  0  0  0  0  2  0  0  0  0  0  0
  191.0780  177.8300  144.2510 C   0  0  1  0  0  3  0  0  0  0  0  0
  191.9010  177.3220  145.3850 C   0  0  0  0  0  2  0  0  0  0  0  0
  189.1020  177.5210  146.6450 C   0  0  0  0  0  0  0  0  0  0  0  0
  187.4470  178.2680  145.0260 N   0  0  0  0  0  2  0  0  0  0  0  0
  184.4990  178.6200  142.7540 C   0  0  0  0  0  0  0  0  0  0  0  0
  191.1830  176.1520  146.0450 C   0  0  0  0  0  2  0  0  0  0  0  0
  190.2190  176.6280  147.1280 C   0  0  2  0  0  3  0  0  0  0  0  0
  189.4520  176.9960  139.9040 C   0  0  0  0  0  2  0  0  0  0  0  0
  188.6280  178.2720  139.8490 C   0  0  2  0  0  3  0  0  0  0  0  0
  186.5870  178.5280  141.2980 C   0  0  2  0  0  3  0  0  0  0  0  0
  190.5360  177.7680  141.9230 N   0  0  0  0  0  0  0  0  0  0  0  0
  186.6740  178.2950  143.8200 C   0  0  0  0  0  0  0  0  0  0  0  0
  187.1620  177.9450  139.9890 C   0  0  1  0  0  3  0  0  0  0  0  0
  188.4760  178.1580  147.4800 O   0  0  0  0  0  0  0  0  0  0  0  0
  187.2420  177.8250  142.5040 C   0  0  0  0  0  2  0  0  0  0  0  0
  189.6840  175.5240  147.7920 O   0  0  0  0  0  1  0  0  0  0  0  0
  186.5720  178.5670  138.7500 C   0  0  0  0  0  2  0  0  0  0  0  0
  191.3730  177.4260  143.0190 C   0  0  0  0  0  3  0  0  0  0  0  0
  185.3870  178.6150  143.9200 C   0  0  0  0  0  3  0  0  0  0  0  0
  188.8240  178.9360  138.5660 N   0  0  0  0  0  2  0  0  0  0  0  0
  183.2610  178.7710  142.9270 O   0  0  0  0  0  0  0  0  0  0  0  0
  188.7810  177.6960  145.1760 C   0  0  1  0  0  3  0  0  0  0  0  0
  184.3980  179.3410  140.4350 N   0  0  0  0  0  2  0  0  0  0  0  0
  182.7110  177.8870  139.7100 O   0  0  0  0  0  0  0  0  0  0  0  0
  183.2470  179.0250  139.6440 C   0  0  0  0  0  0  0  0  0  0  0  0
  182.6760  180.0550  138.7390 C   0  0  0  0  0  1  0  0  0  0  0  0
  2 15  1  0  0  0  0
  3 27  1  6  0  0  0
  3  9  1  0  0  0  0
  4 24  1  0  0  0  0
  4 21  1  0  0  0  0
  5 22  1  6  0  0  0
  5  1  1  0  0  0  0
  5  6  1  0  0  0  0
  6 10  1  0  0  0  0
  7 11  1  0  0  0  0
  7 18  2  0  0  0  0
  8 26  1  0  0  0  0
  9 25  2  0  0  0  0
  9 23  1  0  0  0  0
 10 11  1  0  0  0  0
 11 20  1  6  0  0  0
 12  2  1  0  0  0  0
 13 12  1  6  0  0  0
 13 17  1  0  0  0  0
 14  3  1  0  0  0  0
 14 19  1  1  0  0  0
 15 22  2  0  0  0  0
 16 23  2  0  0  0  0
 16  8  1  0  0  0  0
 17 21  1  6  0  0  0
 17 14  1  0  0  0  0
 19 16  1  0  0  0  0
 24 13  1  0  0  0  0
 26  1  1  1  0  0  0
 26  7  1  0  0  0  0
 29 28  2  0  0  0  0
 29 27  1  0  0  0  0
 30 29  1  0  0  0  0
M  END
>  <MODEL>
4

>  <REMARK>
 VINA RESULT:      -8.7      2.754      7.252
  Name = 
  1 active torsions:
  status: ('A' for Active; 'I' for Inactive)
    1  A    between atoms: C_3  and  N_5
                            x       y       z     vdW  Elec       q    Type
                         _______ _______ _______ _____ _____    ______ ____

>  <TORSDO>
F 1

$$$$
=
 OpenBabel11062413193D

 30 33  0  0  1  0  0  0  0  0999 V2000
  188.0630  178.9150  140.9510 C   0  0  0  0  0  2  0  0  0  0  0  0
  185.3660  177.9090  137.7900 C   0  0  0  0  0  2  0  0  0  0  0  0
  182.7220  178.6210  143.0230 C   0  0  2  0  0  3  0  0  0  0  0  0
  181.3200  179.3540  138.8860 N   0  0  0  0  0  2  0  0  0  0  0  0
  188.5430  178.2490  139.6940 C   0  0  1  0  0  3  0  0  0  0  0  0
  189.9340  177.7210  139.6220 C   0  0  0  0  0  2  0  0  0  0  0  0
  189.3600  177.6450  142.6430 C   0  0  0  0  0  0  0  0  0  0  0  0
  187.0970  178.3880  143.1390 N   0  0  0  0  0  2  0  0  0  0  0  0
  183.5510  178.6970  144.2800 C   0  0  0  0  0  0  0  0  0  0  0  0
  190.0410  176.4630  140.4740 C   0  0  0  0  0  2  0  0  0  0  0  0
  190.3820  176.7970  141.9240 C   0  0  2  0  0  3  0  0  0  0  0  0
  184.0370  177.6090  138.4600 C   0  0  0  0  0  2  0  0  0  0  0  0
  183.5410  178.8280  139.2210 C   0  0  2  0  0  3  0  0  0  0  0  0
  183.5580  178.8460  141.7370 C   0  0  2  0  0  3  0  0  0  0  0  0
  186.3250  178.3120  138.8010 N   0  0  0  0  0  0  0  0  0  0  0  0
  185.6670  178.4460  143.0840 C   0  0  0  0  0  0  0  0  0  0  0  0
  182.8070  178.3940  140.4660 C   0  0  1  0  0  3  0  0  0  0  0  0
  189.6950  178.1790  143.6900 O   0  0  0  0  0  0  0  0  0  0  0  0
  184.9090  178.1070  141.8250 C   0  0  0  0  0  2  0  0  0  0  0  0
  190.5980  175.6170  142.6350 O   0  0  0  0  0  1  0  0  0  0  0  0
  181.4650  179.0590  140.2990 C   0  0  0  0  0  2  0  0  0  0  0  0
  187.6970  177.9520  138.7120 C   0  0  0  0  0  3  0  0  0  0  0  0
  185.0150  178.6720  144.2210 C   0  0  0  0  0  3  0  0  0  0  0  0
  182.6160  179.5890  138.3920 N   0  0  0  0  0  2  0  0  0  0  0  0
  182.9840  178.7520  145.4030 O   0  0  0  0  0  0  0  0  0  0  0  0
  187.9770  177.8980  142.0830 C   0  0  1  0  0  3  0  0  0  0  0  0
  181.6090  179.5670  143.1070 N   0  0  0  0  0  2  0  0  0  0  0  0
  179.9450  177.9980  143.6120 O   0  0  0  0  0  0  0  0  0  0  0  0
  180.2560  179.2000  143.4020 C   0  0  0  0  0  0  0  0  0  0  0  0
  179.2100  180.2520  143.4660 C   0  0  0  0  0  1  0  0  0  0  0  0
  2 12  1  0  0  0  0
  2 15  1  0  0  0  0
  3 27  1  1  0  0  0
  3  9  1  0  0  0  0
  4 21  1  0  0  0  0
  5 22  1  1  0  0  0
  5  1  1  0  0  0  0
  6  5  1  0  0  0  0
  6 10  1  0  0  0  0
  7 18  2  0  0  0  0
  9 25  2  0  0  0  0
 10 11  1  0  0  0  0
 11 20  1  1  0  0  0
 11  7  1  0  0  0  0
 13 12  1  6  0  0  0
 13 17  1  0  0  0  0
 14 19  1  1  0  0  0
 14  3  1  0  0  0  0
 16  8  1  0  0  0  0
 16 23  2  0  0  0  0
 17 21  1  6  0  0  0
 17 14  1  0  0  0  0
 19 16  1  0  0  0  0
 22 15  2  0  0  0  0
 23  9  1  0  0  0  0
 24  4  1  0  0  0  0
 24 13  1  0  0  0  0
 26  1  1  6  0  0  0
 26  7  1  0  0  0  0
 26  8  1  0  0  0  0
 27 29  1  0  0  0  0
 29 30  1  0  0  0  0
 29 28  2  0  0  0  0
M  END
>  <MODEL>
5

>  <REMARK>
 VINA RESULT:      -8.6      3.235      5.661
  Name = 
  1 active torsions:
  status: ('A' for Active; 'I' for Inactive)
    1  A    between atoms: C_3  and  N_5
                            x       y       z     vdW  Elec       q    Type
                         _______ _______ _______ _____ _____    ______ ____

>  <TORSDO>
F 1

$$$$
=
 OpenBabel11062413193D

 30 33  0  0  1  0  0  0  0  0999 V2000
  188.6000  176.5530  142.8430 C   0  0  0  0  0  2  0  0  0  0  0  0
  184.7140  178.3180  143.0810 C   0  0  0  0  0  2  0  0  0  0  0  0
  187.0440  178.4400  137.6550 C   0  0  2  0  0  3  0  0  0  0  0  0
  182.8520  178.1560  139.0600 N   0  0  0  0  0  2  0  0  0  0  0  0
  188.0400  177.0420  144.1480 C   0  0  1  0  0  3  0  0  0  0  0  0
  188.9220  177.1280  145.3450 C   0  0  0  0  0  2  0  0  0  0  0  0
  190.9330  177.3770  143.0310 C   0  0  0  0  0  0  0  0  0  0  0  0
  189.8140  177.3480  140.8710 N   0  0  0  0  0  2  0  0  0  0  0  0
  188.5040  178.1210  137.4560 C   0  0  0  0  0  0  0  0  0  0  0  0
  189.8850  178.2960  145.1800 C   0  0  0  0  0  2  0  0  0  0  0  0
  191.1510  177.8770  144.4390 C   0  0  2  0  0  3  0  0  0  0  0  0
  184.4880  179.0040  141.7450 C   0  0  0  0  0  2  0  0  0  0  0  0
  184.5500  177.9920  140.6130 C   0  0  2  0  0  3  0  0  0  0  0  0
  186.5080  177.9720  139.0320 C   0  0  2  0  0  3  0  0  0  0  0  0
  185.9990  177.6470  143.0570 N   0  0  0  0  0  0  0  0  0  0  0  0
  188.8990  177.7220  139.8350 C   0  0  0  0  0  0  0  0  0  0  0  0
  185.1550  178.6280  139.3850 C   0  0  1  0  0  3  0  0  0  0  0  0
  191.8460  176.7680  142.4930 O   0  0  0  0  0  0  0  0  0  0  0  0
  187.5290  178.2720  140.1490 C   0  0  0  0  0  2  0  0  0  0  0  0
  192.0560  178.9390  144.4260 O   0  0  0  0  0  1  0  0  0  0  0  0
  184.0920  178.3960  138.3440 C   0  0  0  0  0  2  0  0  0  0  0  0
  186.8250  177.5780  144.2120 C   0  0  0  0  0  3  0  0  0  0  0  0
  189.3450  177.7040  138.5820 C   0  0  0  0  0  3  0  0  0  0  0  0
  183.2060  177.5420  140.2750 N   0  0  0  0  0  2  0  0  0  0  0  0
  189.0230  178.2390  136.3150 O   0  0  0  0  0  0  0  0  0  0  0  0
  189.6180  177.5500  142.3030 C   0  0  1  0  0  3  0  0  0  0  0  0
  186.2590  177.8720  136.5580 N   0  0  0  0  0  2  0  0  0  0  0  0
  186.7190  175.6230  137.0220 O   0  0  0  0  0  0  0  0  0  0  0  0
  186.1350  176.4700  136.2950 C   0  0  0  0  0  0  0  0  0  0  0  0
  185.3050  176.0100  135.1520 C   0  0  0  0  0  1  0  0  0  0  0  0
  3 27  1  6  0  0  0
  3 14  1  0  0  0  0
  4 24  1  0  0  0  0
  5  1  1  6  0  0  0
  5 22  1  0  0  0  0
  5  6  1  0  0  0  0
  7 11  1  0  0  0  0
  8 26  1  0  0  0  0
  9  3  1  0  0  0  0
  9 23  1  0  0  0  0
 10  6  1  0  0  0  0
 11 20  1  6  0  0  0
 11 10  1  0  0  0  0
 12  2  1  0  0  0  0
 13 12  1  1  0  0  0
 14 17  1  0  0  0  0
 14 19  1  1  0  0  0
 15  2  1  0  0  0  0
 15 22  2  0  0  0  0
 16 19  1  0  0  0  0
 16  8  1  0  0  0  0
 17 21  1  6  0  0  0
 17 13  1  0  0  0  0
 18  7  2  0  0  0  0
 21  4  1  0  0  0  0
 23 16  2  0  0  0  0
 24 13  1  0  0  0  0
 25  9  2  0  0  0  0
 26  1  1  1  0  0  0
 26  7  1  0  0  0  0
 29 27  1  0  0  0  0
 29 28  2  0  0  0  0
 30 29  1  0  0  0  0
M  END
>  <MODEL>
6

>  <REMARK>
 VINA RESULT:      -8.6      2.214      6.789
  Name = 
  1 active torsions:
  status: ('A' for Active; 'I' for Inactive)
    1  A    between atoms: C_3  and  N_5
                            x       y       z     vdW  Elec       q    Type
                         _______ _______ _______ _____ _____    ______ ____

>  <TORSDO>
F 1

$$$$
=
 OpenBabel11062413193D

 30 33  0  0  1  0  0  0  0  0999 V2000
  186.6780  179.4040  141.2990 C   0  0  0  0  0  2  0  0  0  0  0  0
  184.4430  178.4480  144.8150 C   0  0  0  0  0  2  0  0  0  0  0  0
  190.0690  176.6660  145.0270 C   0  0  2  0  0  3  0  0  0  0  0  0
  187.2750  177.9940  148.1960 N   0  0  0  0  0  2  0  0  0  0  0  0
  185.1780  179.3370  141.2800 C   0  0  0  0  0  0  0  0  0  0  0  0
  184.4530  179.3790  139.9790 C   0  0  0  0  0  2  0  0  0  0  0  0
  187.1960  178.2520  139.1630 C   0  0  0  0  0  0  0  0  0  0  0  0
  188.6550  177.9740  141.0900 N   0  0  0  0  0  2  0  0  0  0  0  0
  190.9080  176.6710  143.7740 C   0  0  0  0  0  0  0  0  0  0  0  0
  184.6440  178.0540  139.2520 C   0  0  0  0  0  2  0  0  0  0  0  0
  185.9090  178.0620  138.3980 C   0  0  2  0  0  3  0  0  0  0  0  0
  185.3280  177.5210  145.6290 C   0  0  0  0  0  2  0  0  0  0  0  0
  186.6300  178.2160  145.9930 C   0  0  2  0  0  3  0  0  0  0  0  0
  188.7870  177.5260  144.8960 C   0  0  2  0  0  3  0  0  0  0  0  0
  185.1590  178.8600  143.6230 N   0  0  0  0  0  2  0  0  0  0  0  0
  189.0950  177.5350  142.3800 C   0  0  0  0  0  0  0  0  0  0  0  0
  187.7610  177.2170  146.0080 C   0  0  1  0  0  3  0  0  0  0  0  0
  188.1980  178.5510  138.5300 O   0  0  0  0  0  0  0  0  0  0  0  0
  188.1270  177.3200  143.5170 C   0  0  0  0  0  2  0  0  0  0  0  0
  185.9740  176.8860  137.6520 O   0  0  0  0  0  1  0  0  0  0  0  0
  188.3200  177.3830  147.3970 C   0  0  0  0  0  2  0  0  0  0  0  0
  184.4930  179.0510  142.3820 C   0  0  0  0  0  3  0  0  0  0  0  0
  190.3720  177.1840  142.5100 C   0  0  0  0  0  3  0  0  0  0  0  0
  186.5250  178.8030  147.3230 N   0  0  0  0  0  2  0  0  0  0  0  0
  192.0760  176.2020  143.7980 O   0  0  0  0  0  0  0  0  0  0  0  0
  187.2670  178.1480  140.6710 C   0  0  1  0  0  3  0  0  0  0  0  0
  190.8820  177.0920  146.1670 N   0  0  0  0  0  2  0  0  0  0  0  0
  191.6350  174.9620  146.7850 O   0  0  0  0  0  0  0  0  0  0  0  0
  191.6360  176.2030  147.0000 C   0  0  0  0  0  0  0  0  0  0  0  0
  192.4300  176.7530  148.1280 C   0  0  0  0  0  1  0  0  0  0  0  0
  2 12  1  0  0  0  0
  3 27  1  1  0  0  0
  5  1  1  0  0  0  0
  5 22  2  0  0  0  0
  6  5  1  0  0  0  0
  7 26  1  0  0  0  0
  8 16  1  0  0  0  0
  9 25  2  0  0  0  0
  9  3  1  0  0  0  0
 10  6  1  0  0  0  0
 11 20  1  1  0  0  0
 11  7  1  0  0  0  0
 11 10  1  0  0  0  0
 13 12  1  1  0  0  0
 13 17  1  0  0  0  0
 13 24  1  0  0  0  0
 14 19  1  6  0  0  0
 14  3  1  0  0  0  0
 14 17  1  0  0  0  0
 15  2  1  0  0  0  0
 16 23  2  0  0  0  0
 16 19  1  0  0  0  0
 17 21  1  1  0  0  0
 18  7  2  0  0  0  0
 21  4  1  0  0  0  0
 22 15  1  0  0  0  0
 23  9  1  0  0  0  0
 24  4  1  0  0  0  0
 26  8  1  0  0  0  0
 26  1  1  1  0  0  0
 27 29  1  0  0  0  0
 28 29  2  0  0  0  0
 29 30  1  0  0  0  0
M  END
>  <MODEL>
7

>  <REMARK>
 VINA RESULT:      -8.1      2.079      3.206
  Name = 
  1 active torsions:
  status: ('A' for Active; 'I' for Inactive)
    1  A    between atoms: C_3  and  N_5
                            x       y       z     vdW  Elec       q    Type
                         _______ _______ _______ _____ _____    ______ ____

>  <TORSDO>
F 1

$$$$
=
 OpenBabel11062413193D

 30 33  0  0  1  0  0  0  0  0999 V2000
  184.3440  179.6460  143.0300 C   0  0  0  0  0  2  0  0  0  0  0  0
  184.8490  178.1630  147.0080 C   0  0  0  0  0  2  0  0  0  0  0  0
  189.4050  176.9790  143.4420 C   0  0  2  0  0  3  0  0  0  0  0  0
  189.1890  177.7290  147.8020 N   0  0  0  0  0  2  0  0  0  0  0  0
  183.1690  179.4210  143.9380 C   0  0  0  0  0  0  0  0  0  0  0  0
  181.7860  179.4940  143.3890 C   0  0  0  0  0  2  0  0  0  0  0  0
  183.4370  178.7400  140.9050 C   0  0  0  0  0  0  0  0  0  0  0  0
  185.7910  178.4570  141.4520 N   0  0  0  0  0  2  0  0  0  0  0  0
  189.2680  177.1790  141.9540 C   0  0  0  0  0  0  0  0  0  0  0  0
  181.5160  178.2640  142.5320 C   0  0  0  0  0  2  0  0  0  0  0  0
  181.9610  178.4790  141.0890 C   0  0  2  0  0  3  0  0  0  0  0  0
  186.0760  177.2700  146.9640 C   0  0  0  0  0  2  0  0  0  0  0  0
  187.2960  178.0670  146.5290 C   0  0  2  0  0  3  0  0  0  0  0  0
  188.3010  177.7060  144.2510 C   0  0  2  0  0  3  0  0  0  0  0  0
  184.6430  178.7480  145.6970 N   0  0  0  0  0  2  0  0  0  0  0  0
  186.9570  177.9600  142.1180 C   0  0  0  0  0  0  0  0  0  0  0  0
  188.2130  177.1960  145.7060 C   0  0  1  0  0  3  0  0  0  0  0  0
  183.8080  179.1960  139.8340 O   0  0  0  0  0  0  0  0  0  0  0  0
  186.9270  177.5480  143.5690 C   0  0  0  0  0  2  0  0  0  0  0  0
  181.5780  177.3830  140.3160 O   0  0  0  0  0  1  0  0  0  0  0  0
  189.5170  177.3020  146.4540 C   0  0  0  0  0  2  0  0  0  0  0  0
  183.3390  178.9710  145.1780 C   0  0  0  0  0  3  0  0  0  0  0  0
  188.0410  177.7370  141.3780 C   0  0  0  0  0  3  0  0  0  0  0  0
  188.0340  178.5240  147.7000 N   0  0  0  0  0  2  0  0  0  0  0  0
  190.2040  176.8370  141.1850 O   0  0  0  0  0  0  0  0  0  0  0  0
  184.4440  178.5160  142.0130 C   0  0  1  0  0  3  0  0  0  0  0  0
  190.7410  177.3910  143.8750 N   0  0  0  0  0  2  0  0  0  0  0  0
  190.4350  179.6930  143.5720 O   0  0  0  0  0  0  0  0  0  0  0  0
  191.1940  178.7490  143.9180 C   0  0  0  0  0  0  0  0  0  0  0  0
  192.5730  179.0470  144.3810 C   0  0  0  0  0  1  0  0  0  0  0  0
  1  5  1  0  0  0  0
  3 27  1  1  0  0  0
  3 14  1  0  0  0  0
  5 22  2  0  0  0  0
  6  5  1  0  0  0  0
  7 11  1  0  0  0  0
  7 26  1  0  0  0  0
  8 26  1  0  0  0  0
  8 16  1  0  0  0  0
  9  3  1  0  0  0  0
 10  6  1  0  0  0  0
 11 20  1  6  0  0  0
 11 10  1  0  0  0  0
 12  2  1  0  0  0  0
 13 12  1  1  0  0  0
 13 24  1  0  0  0  0
 14 19  1  6  0  0  0
 14 17  1  0  0  0  0
 15  2  1  0  0  0  0
 16 19  1  0  0  0  0
 17 21  1  1  0  0  0
 17 13  1  0  0  0  0
 18  7  2  0  0  0  0
 21  4  1  0  0  0  0
 22 15  1  0  0  0  0
 23  9  1  0  0  0  0
 23 16  2  0  0  0  0
 24  4  1  0  0  0  0
 25  9  2  0  0  0  0
 26  1  1  1  0  0  0
 27 29  1  0  0  0  0
 28 29  2  0  0  0  0
 29 30  1  0  0  0  0
M  END
>  <MODEL>
8

>  <REMARK>
 VINA RESULT:      -7.6      2.982      5.638
  Name = 
  1 active torsions:
  status: ('A' for Active; 'I' for Inactive)
    1  A    between atoms: C_3  and  N_5
                            x       y       z     vdW  Elec       q    Type
                         _______ _______ _______ _____ _____    ______ ____

>  <TORSDO>
F 1

$$$$
=
 OpenBabel11062413193D

 30 33  0  0  1  0  0  0  0  0999 V2000
  187.0490  176.7470  145.0360 C   0  0  0  0  0  2  0  0  0  0  0  0
  184.1000  179.0280  142.9440 C   0  0  0  0  0  2  0  0  0  0  0  0
  188.9560  177.9480  139.7610 C   0  0  2  0  0  3  0  0  0  0  0  0
  184.7140  178.4570  138.5900 N   0  0  0  0  0  2  0  0  0  0  0  0
  185.9860  177.5130  145.7690 C   0  0  1  0  0  3  0  0  0  0  0  0
  186.0790  177.6770  147.2470 C   0  0  0  0  0  2  0  0  0  0  0  0
  189.0220  177.2750  146.4460 C   0  0  0  0  0  0  0  0  0  0  0  0
  189.2660  177.0400  144.0370 N   0  0  0  0  0  2  0  0  0  0  0  0
  190.1920  177.4100  140.4340 C   0  0  0  0  0  0  0  0  0  0  0  0
  187.1910  178.6650  147.5770 C   0  0  0  0  0  2  0  0  0  0  0  0
  188.5420  177.9650  147.7000 C   0  0  2  0  0  3  0  0  0  0  0  0
  184.7740  179.5090  141.6720 C   0  0  0  0  0  2  0  0  0  0  0  0
  185.2310  178.3260  140.8340 C   0  0  2  0  0  3  0  0  0  0  0  0
  187.6800  177.7880  140.6270 C   0  0  2  0  0  3  0  0  0  0  0  0
  185.0290  178.1970  143.6860 N   0  0  0  0  0  0  0  0  0  0  0  0
  189.1520  177.3580  142.6450 C   0  0  0  0  0  0  0  0  0  0  0  0
  186.5160  178.6660  140.1190 C   0  0  1  0  0  3  0  0  0  0  0  0
  189.9360  176.4700  146.5520 O   0  0  0  0  0  0  0  0  0  0  0  0
  187.9740  178.1290  142.1030 C   0  0  0  0  0  2  0  0  0  0  0  0
  189.5020  178.8810  148.1290 O   0  0  0  0  0  1  0  0  0  0  0  0
  186.1620  178.4100  138.6780 C   0  0  0  0  0  2  0  0  0  0  0  0
  185.0660  178.2090  145.1070 C   0  0  0  0  0  3  0  0  0  0  0  0
  190.1890  177.0760  141.8610 C   0  0  0  0  0  3  0  0  0  0  0  0
  184.2240  178.0090  139.8300 N   0  0  0  0  0  2  0  0  0  0  0  0
  191.2560  177.2700  139.7750 O   0  0  0  0  0  0  0  0  0  0  0  0
  188.3740  177.4990  145.0970 C   0  0  1  0  0  3  0  0  0  0  0  0
  188.7920  177.3170  138.4500 N   0  0  0  0  0  2  0  0  0  0  0  0
  189.3340  179.1980  137.1640 O   0  0  0  0  0  0  0  0  0  0  0  0
  188.9940  177.9860  137.2000 C   0  0  0  0  0  0  0  0  0  0  0  0
  188.8020  177.2390  135.9310 C   0  0  0  0  0  1  0  0  0  0  0  0
  2 15  1  0  0  0  0
  3 27  1  6  0  0  0
  3  9  1  0  0  0  0
  3 14  1  0  0  0  0
  4 21  1  0  0  0  0
  4 24  1  0  0  0  0
  5  1  1  6  0  0  0
  5  6  1  0  0  0  0
  6 10  1  0  0  0  0
  7 18  2  0  0  0  0
  7 11  1  0  0  0  0
  8 26  1  0  0  0  0
  9 23  1  0  0  0  0
 10 11  1  0  0  0  0
 11 20  1  6  0  0  0
 12  2  1  0  0  0  0
 13 12  1  6  0  0  0
 14 19  1  1  0  0  0
 15 22  2  0  0  0  0
 16  8  1  0  0  0  0
 17 21  1  6  0  0  0
 17 14  1  0  0  0  0
 17 13  1  0  0  0  0
 19 16  1  0  0  0  0
 22  5  1  0  0  0  0
 23 16  2  0  0  0  0
 24 13  1  0  0  0  0
 25  9  2  0  0  0  0
 26  1  1  1  0  0  0
 26  7  1  0  0  0  0
 28 29  2  0  0  0  0
 29 27  1  0  0  0  0
 30 29  1  0  0  0  0
M  END
>  <MODEL>
9

>  <REMARK>
 VINA RESULT:      -7.6      1.621      7.032
  Name = 
  1 active torsions:
  status: ('A' for Active; 'I' for Inactive)
    1  A    between atoms: C_3  and  N_5
                            x       y       z     vdW  Elec       q    Type
                         _______ _______ _______ _____ _____    ______ ____

>  <TORSDO>
F 1

$$$$
