=
 OpenBabel11062416393D

 62 66  0  0  1  0  0  0  0  0999 V2000
  190.3070  177.6130  141.7290 O   0  0  0  0  0  0  0  0  0  0  0  0
  186.1360  178.7840  141.9010 C   0  0  1  0  0  3  0  0  0  0  0  0
  185.9420  178.4490  144.7070 C   0  0  0  0  0  2  0  0  0  0  0  0
  183.5590  174.7740  139.0900 O   0  0  0  0  0  1  0  0  0  0  0  0
  189.2300  175.5360  142.3010 C   0  0  0  0  0  2  0  0  0  0  0  0
  191.9380  175.2460  135.1070 O   0  0  0  0  0  1  0  0  0  0  0  0
  179.9850  176.8980  137.5650 O   0  0  0  0  0  1  0  0  0  0  0  0
  182.3760  178.4320  141.0490 C   0  0  1  0  0  3  0  0  0  0  0  0
  182.1760  176.1870  137.1950 C   0  0  0  0  0  2  0  0  0  0  0  0
  188.1730  175.8670  143.3210 C   0  0  0  0  0  3  0  0  0  0  0  0
  181.2850  177.1780  137.9850 C   0  0  2  0  0  0  0  0  0  0  0  0
  191.5410  177.8880  141.1170 C   0  0  0  0  0  2  0  0  0  0  0  0
  187.2650  176.8450  143.2000 C   0  0  0  0  0  0  0  0  0  0  0  0
  191.7110  177.0990  139.8230 C   0  0  0  0  0  2  0  0  0  0  0  0
  181.3780  177.0210  139.4600 N   0  0  0  0  0  0  0  0  0  0  0  0
  185.2480  180.6270  143.2140 F   0  0  0  0  0  0  0  0  0  0  0  0
  186.2990  177.0000  144.3530 C   0  0  0  0  0  2  0  0  0  0  0  0
  188.5900  177.7000  136.5640 C   0  0  0  0  0  0  0  0  0  0  0  0
  187.3490  180.7270  142.4660 F   0  0  0  0  0  0  0  0  0  0  0  0
  187.5990  178.4770  136.5270 O   0  0  0  0  0  0  0  0  0  0  0  0
  190.6900  177.5280  138.7860 C   0  0  0  0  0  2  0  0  0  0  0  0
  190.0190  176.2950  138.1790 C   0  0  1  0  0  3  0  0  0  0  0  0
  184.5950  174.7650  136.6820 O   0  0  0  0  0  0  0  0  0  0  0  0
  187.7400  176.9780  138.8010 C   0  0  0  0  0  1  0  0  0  0  0  0
  190.8760  177.3150  135.5800 C   0  0  0  0  0  2  0  0  0  0  0  0
  189.5540  177.8390  135.5530 O   0  0  0  0  0  0  0  0  0  0  0  0
  188.6090  176.5850  137.6110 C   0  0  1  0  0  0  0  0  0  0  0  0
  188.0090  175.3020  137.0170 C   0  0  0  0  0  2  0  0  0  0  0  0
  186.3910  179.8740  142.9760 C   0  0  0  0  0  0  0  0  0  0  0  0
  190.4800  176.4110  142.4290 C   0  0  2  0  0  3  0  0  0  0  0  0
  190.8090  174.1300  137.4960 O   0  0  0  0  0  1  0  0  0  0  0  0
  183.7050  179.1360  141.3010 C   0  0  0  0  0  2  0  0  0  0  0  0
  182.5850  177.3310  140.1160 N   0  0  0  0  0  2  0  0  0  0  0  0
  186.8900  179.3470  144.1940 O   0  0  0  0  0  0  0  0  0  0  0  0
  186.7370  175.5260  136.4830 O   0  0  0  0  0  0  0  0  0  0  0  0
  190.9830  175.5000  137.2820 C   0  0  1  0  0  3  0  0  0  0  0  0
  190.8640  175.8140  135.7930 C   0  0  2  0  0  3  0  0  0  0  0  0
  181.8660  177.9470  142.2550 O   0  0  0  0  0  1  0  0  0  0  0  0
  184.7350  176.9910  138.3260 O   0  0  0  0  0  0  0  0  0  0  0  0
  183.7900  175.6560  137.8840 P   0  0  2  0  0  0  0  0  0  0  0  0
  187.1970  177.6750  141.9310 C   0  0  0  0  0  2  0  0  0  0  0  0
  185.9080  174.6120  137.1350 C   0  0  0  0  0  2  0  0  0  0  0  0
  184.7310  178.1820  141.8980 C   0  0  0  0  0  2  0  0  0  0  0  0
  178.9740  173.3330  141.3490 C   0  0  0  0  0  2  0  0  0  0  0  0
  180.0660  175.0490  139.9830 C   0  0  0  0  0  3  0  0  0  0  0  0
  179.2820  174.6000  141.1130 C   0  0  0  0  0  0  0  0  0  0  0  0
  180.3590  176.3270  140.2120 C   0  0  0  0  0  0  0  0  0  0  0  0
  178.9310  177.8140  141.4340 O   0  0  0  0  0  1  0  0  0  0  0  0
  179.8590  176.7820  141.5630 C   0  0  1  0  0  3  0  0  0  0  0  0
  179.1870  175.6100  142.1020 N   0  0  0  0  0  2  0  0  0  0  0  0
  180.7100  180.8090  137.4150 C   0  0  0  0  0  0  0  0  0  0  0  0
  179.5760  181.5510  137.7500 O   0  0  0  0  0  1  0  0  0  0  0  0
  180.4960  180.0360  136.1290 C   0  0  2  0  0  3  0  0  0  0  0  0
  181.2270  178.8370  136.1920 O   0  0  0  0  0  0  0  0  0  0  0  0
  180.9420  179.7200  138.4060 C   0  0  0  0  0  2  0  0  0  0  0  0
  181.5570  178.6310  137.5500 C   0  0  1  0  0  3  0  0  0  0  0  0
  181.8340  181.6410  137.3530 O   0  0  0  0  0  1  0  0  0  0  0  0
  180.8520  180.8120  134.8990 C   0  0  0  0  0  3  0  0  0  0  0  0
  180.2080  181.8760  134.5950 N   0  0  0  0  0  2  0  0  0  0  0  0
  191.6570  175.7440  144.6890 C   0  0  0  0  0  1  0  0  0  0  0  0
  190.8350  176.6880  143.9160 N   0  0  0  0  0  2  0  0  0  0  0  0
  191.0090  176.8220  144.6400 O   0  0  0  0  0  0  0  0  0  0  0  0
  1 30  1  0  0  0  0
  2 43  1  1  0  0  0
  2 41  1  0  0  0  0
  2 29  1  0  0  0  0
  5 30  1  0  0  0  0
  5 10  1  0  0  0  0
  8 32  1  0  0  0  0
  8 38  1  1  0  0  0
  9 40  1  0  0  0  0
  9 11  1  0  0  0  0
 11  7  1  6  0  0  0
 11 15  1  0  0  0  0
 12  1  1  0  0  0  0
 13 10  2  0  0  0  0
 13 17  1  0  0  0  0
 14 12  1  0  0  0  0
 15 33  1  0  0  0  0
 15 47  1  0  0  0  0
 17  3  1  0  0  0  0
 18 27  1  0  0  0  0
 19 29  1  0  0  0  0
 20 18  2  0  0  0  0
 21 14  1  0  0  0  0
 22 21  1  6  0  0  0
 23 42  1  0  0  0  0
 23 40  1  0  0  0  0
 25 37  1  0  0  0  0
 26 25  1  0  0  0  0
 26 18  1  0  0  0  0
 27 22  1  0  0  0  0
 27 24  1  1  0  0  0
 28 27  1  0  0  0  0
 29 16  1  0  0  0  0
 29 34  1  0  0  0  0
 30 61  1  1  0  0  0
 32 43  1  0  0  0  0
 33  8  1  0  0  0  0
 34  3  1  0  0  0  0
 35 28  1  0  0  0  0
 35 42  1  0  0  0  0
 36 31  1  6  0  0  0
 36 22  1  0  0  0  0
 37  6  1  6  0  0  0
 37 36  1  0  0  0  0
 40 39  2  1  0  0  0
 40  4  1  0  0  0  0
 41 13  1  0  0  0  0
 45 47  2  0  0  0  0
 45 46  1  0  0  0  0
 46 44  2  0  0  0  0
 46 50  1  0  0  0  0
 47 49  1  0  0  0  0
 49 48  1  6  0  0  0
 49 50  1  0  0  0  0
 51 52  1  0  0  0  0
 51 55  1  0  0  0  0
 53 58  1  6  0  0  0
 53 54  1  0  0  0  0
 53 51  1  0  0  0  0
 54 56  1  0  0  0  0
 56 11  1  0  0  0  0
 56 55  1  1  0  0  0
 57 51  1  0  0  0  0
 59 58  2  0  0  0  0
 61 62  1  0  0  0  0
 62 60  1  0  0  0  0
M  END
>  <MODEL>
1

>  <REMARK>
 VINA RESULT:      -2.2      0.000      0.000
  Name = 
  4 active torsions:
  status: ('A' for Active; 'I' for Inactive)
    1  A    between atoms: C_14  and  C_15
    2  A    between atoms: C_19  and  C_44
    3  A    between atoms: N_23  and  C_24
    4  A    between atoms: N_38  and  C_48
                            x       y       z     vdW  Elec       q    Type
                         _______ _______ _______ _____ _____    ______ ____

>  <TORSDO>
F 4

$$$$
