=
 OpenBabel11062415323D

 37 40  0  0  1  0  0  0  0  0999 V2000
  191.0480  175.5000  137.5570 C   0  0  2  0  0  0  0  0  0  0  0  0
  189.2860  177.4980  141.3820 C   0  0  1  0  0  0  0  0  0  0  0  0
  187.1590  178.8340  140.7820 C   0  0  0  0  0  1  0  0  0  0  0  0
  189.7760  178.6310  142.0100 F   0  0  0  0  0  0  0  0  0  0  0  0
  191.5390  173.2170  135.0650 O   0  0  0  0  0  1  0  0  0  0  0  0
  191.4770  175.6330  138.9160 O   0  0  0  0  0  0  0  0  0  0  0  0
  192.0290  173.6510  136.2970 C   0  0  1  0  0  3  0  0  0  0  0  0
  188.2610  177.9290  140.3180 C   0  0  0  0  0  0  0  0  0  0  0  0
  189.5070  176.7220  138.6280 C   0  0  0  0  0  0  0  0  0  0  0  0
  192.0810  176.0750  136.6110 C   0  0  0  0  0  2  0  0  0  0  0  0
  189.7740  176.2320  137.4620 N   0  0  0  0  0  0  0  0  0  0  0  0
  192.8820  174.8940  136.0950 C   0  0  1  0  0  3  0  0  0  0  0  0
  188.3390  177.5310  139.0150 C   0  0  0  0  0  0  0  0  0  0  0  0
  190.5130  176.3750  139.5620 C   0  0  0  0  0  0  0  0  0  0  0  0
  190.4720  176.7230  140.8390 C   0  0  0  0  0  3  0  0  0  0  0  0
  190.8630  174.0400  137.1910 C   0  0  0  0  0  2  0  0  0  0  0  0
  186.3680  177.0980  137.6830 N   0  0  0  0  0  1  0  0  0  0  0  0
  187.3320  177.9040  137.9870 C   0  0  0  0  0  0  0  0  0  0  0  0
  187.4910  179.0990  137.2280 N   0  0  0  0  0  2  0  0  0  0  0  0
  194.3840  173.6630  137.7050 N   0  0  0  0  0  2  0  0  0  0  0  0
  195.0900  175.6320  136.6670 O   0  0  0  0  0  0  0  0  0  0  0  0
  194.1820  174.7690  136.8260 C   0  0  0  0  0  0  0  0  0  0  0  0
  195.6260  173.4770  138.4380 C   0  0  0  0  0  2  0  0  0  0  0  0
  195.8930  175.3970  140.2040 N   0  0  0  0  0  0  0  0  0  0  0  0
  195.7760  174.5510  139.4220 C   0  0  0  0  0  0  0  0  0  0  0  0
  188.5720  176.6320  142.4190 C   0  0  0  0  0  2  0  0  0  0  0  0
  189.4680  176.1730  143.3920 O   0  0  0  0  0  0  0  0  0  0  0  0
  189.7220  177.2860  144.1990 C   0  0  1  0  0  3  0  0  0  0  0  0
  186.9220  178.1650  144.6430 N   0  0  0  0  0  1  0  0  0  0  0  0
  188.9430  177.2050  145.4330 N   0  0  0  0  0  0  0  0  0  0  0  0
  187.5900  177.5680  145.5740 C   0  0  0  0  0  0  0  0  0  0  0  0
  188.2610  177.0060  147.7050 C   0  0  0  0  0  3  0  0  0  0  0  0
  187.1450  177.5120  146.9110 N   0  0  0  0  0  0  0  0  0  0  0  0
  189.4630  176.8750  146.7490 C   0  0  0  0  0  3  0  0  0  0  0  0
  191.1820  177.3910  144.4980 C   0  0  0  0  0  0  0  0  0  0  0  0
  191.7690  178.5040  144.4280 O   0  0  0  0  0  0  0  0  0  0  0  0
  191.9010  176.2510  144.8320 O   0  0  0  0  0  1  0  0  0  0  0  0
  1 10  1  6  0  0  0
  1  6  1  0  0  0  0
  2  4  1  1  0  0  0
  2 26  1  0  0  0  0
  6 14  1  0  0  0  0
  7  5  1  6  0  0  0
  7 16  1  0  0  0  0
  8  3  1  0  0  0  0
  8  2  1  0  0  0  0
  9 13  1  0  0  0  0
  9 14  1  0  0  0  0
 11  1  1  0  0  0  0
 11  9  2  0  0  0  0
 12  7  1  0  0  0  0
 12 10  1  0  0  0  0
 12 22  1  1  0  0  0
 13  8  2  0  0  0  0
 14 15  2  0  0  0  0
 15  2  1  0  0  0  0
 16  1  1  0  0  0  0
 17 18  1  0  0  0  0
 18 13  1  0  0  0  0
 19 18  2  0  0  0  0
 20 23  1  0  0  0  0
 21 22  2  0  0  0  0
 22 20  1  0  0  0  0
 23 25  1  0  0  0  0
 25 24  3  0  0  0  0
 26 27  1  0  0  0  0
 28 27  1  6  0  0  0
 28 35  1  0  0  0  0
 28 30  1  0  0  0  0
 29 31  1  0  0  0  0
 30 31  1  0  0  0  0
 30 34  1  0  0  0  0
 31 33  2  0  0  0  0
 33 32  1  0  0  0  0
 34 32  2  0  0  0  0
 35 37  1  0  0  0  0
 36 35  2  0  0  0  0
M  END
>  <MODEL>
1

>  <REMARK>
 VINA RESULT:      -7.9      0.000      0.000
  Name = 
  9 active torsions:
  status: ('A' for Active; 'I' for Inactive)
    1  A    between atoms: N_4  and  C_31
    2  A    between atoms: C_5  and  C_35
    3  A    between atoms: N_9  and  C_13
    4  A    between atoms: C_13  and  C_24
    5  A    between atoms: C_20  and  C_29
    6  A    between atoms: C_25  and  C_31
    7  A    between atoms: C_27  and  C_30
    8  A    between atoms: C_31  and  O_36
    9  A    between atoms: C_35  and  O_36
                            x       y       z     vdW  Elec       q    Type
                         _______ _______ _______ _____ _____    ______ ____

>  <TORSDO>
F 9

$$$$
=
 OpenBabel11062415323D

 37 40  0  0  1  0  0  0  0  0999 V2000
  190.7040  176.7430  141.7870 C   0  0  2  0  0  0  0  0  0  0  0  0
  188.2490  177.7600  137.9580 C   0  0  1  0  0  0  0  0  0  0  0  0
  189.6480  177.2510  135.8480 C   0  0  0  0  0  1  0  0  0  0  0  0
  188.0140  179.0270  137.4520 F   0  0  0  0  0  0  0  0  0  0  0  0
  192.0500  174.9300  144.3490 O   0  0  0  0  0  1  0  0  0  0  0  0
  189.4410  177.3660  141.5330 O   0  0  0  0  0  0  0  0  0  0  0  0
  191.0040  175.7920  144.0170 C   0  0  1  0  0  3  0  0  0  0  0  0
  189.5520  177.2180  137.3440 C   0  0  0  0  0  0  0  0  0  0  0  0
  190.4380  176.8340  139.5650 C   0  0  0  0  0  0  0  0  0  0  0  0
  191.6100  177.6690  142.5720 C   0  0  0  0  0  2  0  0  0  0  0  0
  191.2760  176.4360  140.4650 N   0  0  0  0  0  0  0  0  0  0  0  0
  191.5080  177.2270  144.0210 C   0  0  1  0  0  3  0  0  0  0  0  0
  190.5810  176.7400  138.1020 C   0  0  0  0  0  0  0  0  0  0  0  0
  189.2880  177.4030  140.1640 C   0  0  0  0  0  0  0  0  0  0  0  0
  188.2580  177.8620  139.4710 C   0  0  0  0  0  3  0  0  0  0  0  0
  190.5270  175.4800  142.6070 C   0  0  0  0  0  2  0  0  0  0  0  0
  191.8340  174.9900  137.0010 N   0  0  0  0  0  2  0  0  0  0  0  0
  191.8270  176.1730  137.5220 C   0  0  0  0  0  0  0  0  0  0  0  0
  193.0600  176.8740  137.6500 N   0  0  0  0  0  1  0  0  0  0  0  0
  189.7380  177.5420  145.7910 N   0  0  0  0  0  2  0  0  0  0  0  0
  190.5320  179.3520  144.5480 O   0  0  0  0  0  0  0  0  0  0  0  0
  190.5760  178.1130  144.7860 C   0  0  0  0  0  0  0  0  0  0  0  0
  188.8180  178.3480  146.5770 C   0  0  0  0  0  2  0  0  0  0  0  0
  186.3590  177.5450  146.1440 N   0  0  0  0  0  0  0  0  0  0  0  0
  187.4460  177.8990  146.3330 C   0  0  0  0  0  0  0  0  0  0  0  0
  187.0990  176.8440  137.5390 C   0  0  0  0  0  2  0  0  0  0  0  0
  185.9950  177.5900  137.1090 O   0  0  0  0  0  0  0  0  0  0  0  0
  184.9270  177.1290  137.8850 C   0  0  1  0  0  3  0  0  0  0  0  0
  185.0180  179.4290  139.7590 N   0  0  0  0  0  1  0  0  0  0  0  0
  183.9310  178.1850  138.0550 N   0  0  0  0  0  0  0  0  0  0  0  0
  184.0550  179.2990  138.9080 C   0  0  0  0  0  0  0  0  0  0  0  0
  181.9320  179.4770  138.0310 C   0  0  0  0  0  3  0  0  0  0  0  0
  182.8800  180.0760  138.9660 N   0  0  0  0  0  0  0  0  0  0  0  0
  182.5940  178.1940  137.4890 C   0  0  0  0  0  3  0  0  0  0  0  0
  184.3160  175.9170  137.2610 C   0  0  0  0  0  0  0  0  0  0  0  0
  183.8570  174.9910  137.9830 O   0  0  0  0  0  1  0  0  0  0  0  0
  184.2730  175.8000  135.8780 O   0  0  0  0  0  0  0  0  0  0  0  0
  1 10  1  1  0  0  0
  1 16  1  0  0  0  0
  2  4  1  6  0  0  0
  2 15  1  0  0  0  0
  3  8  1  0  0  0  0
  6  1  1  0  0  0  0
  7 12  1  0  0  0  0
  7  5  1  6  0  0  0
  8  2  1  0  0  0  0
  8 13  2  0  0  0  0
  9 14  1  0  0  0  0
  9 11  2  0  0  0  0
 10 12  1  0  0  0  0
 11  1  1  0  0  0  0
 12 22  1  1  0  0  0
 13  9  1  0  0  0  0
 14  6  1  0  0  0  0
 15 14  2  0  0  0  0
 16  7  1  0  0  0  0
 17 18  2  0  0  0  0
 18 19  1  0  0  0  0
 18 13  1  0  0  0  0
 20 23  1  0  0  0  0
 21 22  2  0  0  0  0
 22 20  1  0  0  0  0
 24 25  3  0  0  0  0
 25 23  1  0  0  0  0
 26  2  1  0  0  0  0
 27 26  1  0  0  0  0
 28 27  1  6  0  0  0
 28 30  1  0  0  0  0
 30 31  1  0  0  0  0
 31 33  2  0  0  0  0
 31 29  1  0  0  0  0
 32 33  1  0  0  0  0
 34 32  2  0  0  0  0
 34 30  1  0  0  0  0
 35 28  1  0  0  0  0
 35 36  1  0  0  0  0
 37 35  2  0  0  0  0
M  END
>  <MODEL>
2

>  <REMARK>
 VINA RESULT:      -7.5      3.217      7.793
  Name = 
  9 active torsions:
  status: ('A' for Active; 'I' for Inactive)
    1  A    between atoms: N_4  and  C_31
    2  A    between atoms: C_5  and  C_35
    3  A    between atoms: N_9  and  C_13
    4  A    between atoms: C_13  and  C_24
    5  A    between atoms: C_20  and  C_29
    6  A    between atoms: C_25  and  C_31
    7  A    between atoms: C_27  and  C_30
    8  A    between atoms: C_31  and  O_36
    9  A    between atoms: C_35  and  O_36
                            x       y       z     vdW  Elec       q    Type
                         _______ _______ _______ _____ _____    ______ ____

>  <TORSDO>
F 9

$$$$
=
 OpenBabel11062415323D

 37 40  0  0  1  0  0  0  0  0999 V2000
  182.4770  177.2690  138.9780 C   0  0  2  0  0  0  0  0  0  0  0  0
  184.6140  178.8300  142.8150 C   0  0  1  0  0  0  0  0  0  0  0  0
  182.8690  179.7020  144.5070 C   0  0  0  0  0  1  0  0  0  0  0  0
  185.2850  180.0350  142.9420 F   0  0  0  0  0  0  0  0  0  0  0  0
  180.8450  175.1570  136.8470 O   0  0  0  0  0  1  0  0  0  0  0  0
  183.8400  177.4780  139.3610 O   0  0  0  0  0  0  0  0  0  0  0  0
  182.1020  175.6740  137.1670 C   0  0  1  0  0  3  0  0  0  0  0  0
  183.1360  179.0490  143.1840 C   0  0  0  0  0  0  0  0  0  0  0  0
  182.4670  178.1380  141.0420 C   0  0  0  0  0  0  0  0  0  0  0  0
  182.1460  178.0540  137.7250 C   0  0  0  0  0  2  0  0  0  0  0  0
  181.6630  177.7230  140.1180 N   0  0  0  0  0  0  0  0  0  0  0  0
  182.2430  177.0680  136.5750 C   0  0  1  0  0  3  0  0  0  0  0  0
  182.1090  178.6850  142.3620 C   0  0  0  0  0  0  0  0  0  0  0  0
  183.8160  178.0000  140.6350 C   0  0  0  0  0  0  0  0  0  0  0  0
  184.8440  178.3220  141.4040 C   0  0  0  0  0  3  0  0  0  0  0  0
  182.2200  175.8060  138.6770 C   0  0  0  0  0  2  0  0  0  0  0  0
  180.0640  179.9660  142.5000 N   0  0  0  0  0  2  0  0  0  0  0  0
  180.6770  178.8500  142.7250 C   0  0  0  0  0  0  0  0  0  0  0  0
  179.9960  177.8250  143.4430 N   0  0  0  0  0  1  0  0  0  0  0  0
  184.7600  176.9010  136.5470 N   0  0  0  0  0  2  0  0  0  0  0  0
  183.5790  177.5960  134.6560 O   0  0  0  0  0  0  0  0  0  0  0  0
  183.5480  177.2090  135.8570 C   0  0  0  0  0  0  0  0  0  0  0  0
  186.0600  177.0080  135.9060 C   0  0  0  0  0  2  0  0  0  0  0  0
  187.3980  178.9990  136.9640 N   0  0  0  0  0  0  0  0  0  0  0  0
  186.8050  178.1200  136.4980 C   0  0  0  0  0  0  0  0  0  0  0  0
  185.2170  177.8280  143.7980 C   0  0  0  0  0  2  0  0  0  0  0  0
  186.3290  178.3720  144.4510 O   0  0  0  0  0  0  0  0  0  0  0  0
  186.3130  177.7980  145.7250 C   0  0  1  0  0  3  0  0  0  0  0  0
  188.6850  176.7780  144.2610 N   0  0  0  0  0  1  0  0  0  0  0  0
  187.6760  177.6420  146.2280 N   0  0  0  0  0  0  0  0  0  0  0  0
  188.7860  177.2220  145.4700 C   0  0  0  0  0  0  0  0  0  0  0  0
  189.5980  177.4240  147.6170 C   0  0  0  0  0  3  0  0  0  0  0  0
  189.9440  177.0330  146.2540 N   0  0  0  0  0  0  0  0  0  0  0  0
  188.0910  177.7530  147.6160 C   0  0  0  0  0  3  0  0  0  0  0  0
  185.4940  178.6270  146.6600 C   0  0  0  0  0  0  0  0  0  0  0  0
  185.7940  179.8320  146.8740 O   0  0  0  0  0  0  0  0  0  0  0  0
  184.4080  178.0590  147.3120 O   0  0  0  0  0  1  0  0  0  0  0  0
  1 10  1  6  0  0  0
  1  6  1  0  0  0  0
  1 11  1  0  0  0  0
  2  4  1  1  0  0  0
  2  8  1  0  0  0  0
  2 26  1  0  0  0  0
  6 14  1  0  0  0  0
  7  5  1  1  0  0  0
  7 16  1  0  0  0  0
  8  3  1  0  0  0  0
  9 13  1  0  0  0  0
 11  9  2  0  0  0  0
 12 22  1  1  0  0  0
 12  7  1  0  0  0  0
 12 10  1  0  0  0  0
 13 18  1  0  0  0  0
 13  8  2  0  0  0  0
 14  9  1  0  0  0  0
 14 15  2  0  0  0  0
 15  2  1  0  0  0  0
 16  1  1  0  0  0  0
 17 18  2  0  0  0  0
 18 19  1  0  0  0  0
 21 22  2  0  0  0  0
 22 20  1  0  0  0  0
 23 25  1  0  0  0  0
 23 20  1  0  0  0  0
 25 24  3  0  0  0  0
 26 27  1  0  0  0  0
 28 27  1  6  0  0  0
 28 30  1  0  0  0  0
 28 35  1  0  0  0  0
 29 31  1  0  0  0  0
 30 34  1  0  0  0  0
 31 30  1  0  0  0  0
 31 33  2  0  0  0  0
 33 32  1  0  0  0  0
 34 32  2  0  0  0  0
 35 36  2  0  0  0  0
 35 37  1  0  0  0  0
M  END
>  <MODEL>
3

>  <REMARK>
 VINA RESULT:      -7.4      5.549      7.667
  Name = 
  9 active torsions:
  status: ('A' for Active; 'I' for Inactive)
    1  A    between atoms: N_4  and  C_31
    2  A    between atoms: C_5  and  C_35
    3  A    between atoms: N_9  and  C_13
    4  A    between atoms: C_13  and  C_24
    5  A    between atoms: C_20  and  C_29
    6  A    between atoms: C_25  and  C_31
    7  A    between atoms: C_27  and  C_30
    8  A    between atoms: C_31  and  O_36
    9  A    between atoms: C_35  and  O_36
                            x       y       z     vdW  Elec       q    Type
                         _______ _______ _______ _____ _____    ______ ____

>  <TORSDO>
F 9

$$$$
=
 OpenBabel11062415323D

 37 40  0  0  1  0  0  0  0  0999 V2000
  191.4680  175.1110  136.8490 C   0  0  2  0  0  0  0  0  0  0  0  0
  188.9840  177.8110  139.7240 C   0  0  1  0  0  0  0  0  0  0  0  0
  186.6850  178.3430  138.6730 C   0  0  0  0  0  1  0  0  0  0  0  0
  189.1640  179.1700  139.9260 F   0  0  0  0  0  0  0  0  0  0  0  0
  192.6540  172.3040  135.3070 O   0  0  0  0  0  1  0  0  0  0  0  0
  191.7340  175.7860  138.0820 O   0  0  0  0  0  0  0  0  0  0  0  0
  192.9280  173.2260  136.3190 C   0  0  1  0  0  3  0  0  0  0  0  0
  187.9910  177.6140  138.5640 C   0  0  0  0  0  0  0  0  0  0  0  0
  189.6130  176.2320  137.4120 C   0  0  0  0  0  0  0  0  0  0  0  0
  192.4360  175.5580  135.7740 C   0  0  0  0  0  2  0  0  0  0  0  0
  190.0810  175.4560  136.4910 N   0  0  0  0  0  0  0  0  0  0  0  0
  193.5130  174.4900  135.7090 C   0  0  1  0  0  3  0  0  0  0  0  0
  188.2690  176.8320  137.4810 C   0  0  0  0  0  0  0  0  0  0  0  0
  190.5810  176.4590  138.4200 C   0  0  0  0  0  0  0  0  0  0  0  0
  190.3510  177.1940  139.4970 C   0  0  0  0  0  3  0  0  0  0  0  0
  191.6300  173.6120  137.0090 C   0  0  0  0  0  2  0  0  0  0  0  0
  186.5400  175.5540  136.3760 N   0  0  0  0  0  1  0  0  0  0  0  0
  187.3040  176.5980  136.3750 C   0  0  0  0  0  0  0  0  0  0  0  0
  187.2990  177.4510  135.2350 N   0  0  0  0  0  2  0  0  0  0  0  0
  195.5180  173.9380  137.1370 N   0  0  0  0  0  2  0  0  0  0  0  0
  195.0790  176.1340  136.4760 O   0  0  0  0  0  0  0  0  0  0  0  0
  194.7380  174.9190  136.4530 C   0  0  0  0  0  0  0  0  0  0  0  0
  196.7240  174.2870  137.8710 C   0  0  0  0  0  2  0  0  0  0  0  0
  196.0770  175.1550  140.2600 N   0  0  0  0  0  0  0  0  0  0  0  0
  196.3600  174.7710  139.2040 C   0  0  0  0  0  0  0  0  0  0  0  0
  188.3790  177.2030  140.9880 C   0  0  0  0  0  2  0  0  0  0  0  0
  188.1110  178.1920  141.9420 O   0  0  0  0  0  0  0  0  0  0  0  0
  187.0060  177.7150  142.6530 C   0  0  1  0  0  3  0  0  0  0  0  0
  189.3120  176.6370  144.1800 N   0  0  0  0  0  1  0  0  0  0  0  0
  187.2500  177.8080  144.0910 N   0  0  0  0  0  0  0  0  0  0  0  0
  188.3990  177.3430  144.7590 C   0  0  0  0  0  0  0  0  0  0  0  0
  187.0150  178.0910  146.4430 C   0  0  0  0  0  3  0  0  0  0  0  0
  188.2940  177.4460  146.1620 N   0  0  0  0  0  0  0  0  0  0  0  0
  186.2970  178.2610  145.0890 C   0  0  0  0  0  3  0  0  0  0  0  0
  185.7750  178.4710  142.2720 C   0  0  0  0  0  0  0  0  0  0  0  0
  185.8640  179.6280  141.7810 O   0  0  0  0  0  0  0  0  0  0  0  0
  184.5250  177.9030  142.4820 O   0  0  0  0  0  1  0  0  0  0  0  0
  1 10  1  6  0  0  0
  1 16  1  0  0  0  0
  1  6  1  0  0  0  0
  2  4  1  1  0  0  0
  2 26  1  0  0  0  0
  6 14  1  0  0  0  0
  7  5  1  6  0  0  0
  7 16  1  0  0  0  0
  8  3  1  0  0  0  0
  8  2  1  0  0  0  0
  9 13  1  0  0  0  0
  9 14  1  0  0  0  0
 11  1  1  0  0  0  0
 11  9  2  0  0  0  0
 12 10  1  0  0  0  0
 12  7  1  0  0  0  0
 12 22  1  1  0  0  0
 13  8  2  0  0  0  0
 14 15  2  0  0  0  0
 15  2  1  0  0  0  0
 18 17  1  0  0  0  0
 18 13  1  0  0  0  0
 19 18  2  0  0  0  0
 20 23  1  0  0  0  0
 22 21  2  0  0  0  0
 22 20  1  0  0  0  0
 23 25  1  0  0  0  0
 25 24  3  0  0  0  0
 26 27  1  0  0  0  0
 28 27  1  6  0  0  0
 28 30  1  0  0  0  0
 29 31  1  0  0  0  0
 30 31  1  0  0  0  0
 30 34  1  0  0  0  0
 31 33  2  0  0  0  0
 33 32  1  0  0  0  0
 34 32  2  0  0  0  0
 35 37  1  0  0  0  0
 35 28  1  0  0  0  0
 36 35  2  0  0  0  0
M  END
>  <MODEL>
4

>  <REMARK>
 VINA RESULT:      -7.2      1.827      2.602
  Name = 
  9 active torsions:
  status: ('A' for Active; 'I' for Inactive)
    1  A    between atoms: N_4  and  C_31
    2  A    between atoms: C_5  and  C_35
    3  A    between atoms: N_9  and  C_13
    4  A    between atoms: C_13  and  C_24
    5  A    between atoms: C_20  and  C_29
    6  A    between atoms: C_25  and  C_31
    7  A    between atoms: C_27  and  C_30
    8  A    between atoms: C_31  and  O_36
    9  A    between atoms: C_35  and  O_36
                            x       y       z     vdW  Elec       q    Type
                         _______ _______ _______ _____ _____    ______ ____

>  <TORSDO>
F 9

$$$$
=
 OpenBabel11062415323D

 37 40  0  0  1  0  0  0  0  0999 V2000
  190.5260  176.8230  141.5300 C   0  0  2  0  0  0  0  0  0  0  0  0
  187.9940  178.1630  137.8530 C   0  0  1  0  0  0  0  0  0  0  0  0
  189.1880  177.4910  135.6640 C   0  0  0  0  0  1  0  0  0  0  0  0
  187.8920  179.4530  137.3590 F   0  0  0  0  0  0  0  0  0  0  0  0
  191.7820  174.8420  144.0110 O   0  0  0  0  0  1  0  0  0  0  0  0
  189.3390  177.6030  141.3510 O   0  0  0  0  0  0  0  0  0  0  0  0
  190.8360  175.8310  143.7400 C   0  0  1  0  0  3  0  0  0  0  0  0
  189.1780  177.4630  137.1630 C   0  0  0  0  0  0  0  0  0  0  0  0
  190.1400  176.9590  139.3280 C   0  0  0  0  0  0  0  0  0  0  0  0
  191.5870  177.6230  142.2570 C   0  0  0  0  0  2  0  0  0  0  0  0
  190.9740  176.4530  140.1770 N   0  0  0  0  0  0  0  0  0  0  0  0
  191.5170  177.1900  143.7100 C   0  0  1  0  0  3  0  0  0  0  0  0
  190.1820  176.8550  137.8590 C   0  0  0  0  0  0  0  0  0  0  0  0
  189.1100  177.6660  139.9940 C   0  0  0  0  0  0  0  0  0  0  0  0
  188.1070  178.2560  139.3630 C   0  0  0  0  0  3  0  0  0  0  0  0
  190.2390  175.5890  142.3630 C   0  0  0  0  0  2  0  0  0  0  0  0
  192.4530  176.7180  137.0420 N   0  0  0  0  0  1  0  0  0  0  0  0
  191.3090  176.1380  137.2070 C   0  0  0  0  0  0  0  0  0  0  0  0
  191.1050  174.8490  136.6360 N   0  0  0  0  0  2  0  0  0  0  0  0
  189.8210  177.7150  145.5020 N   0  0  0  0  0  2  0  0  0  0  0  0
  190.9320  179.4220  144.3600 O   0  0  0  0  0  0  0  0  0  0  0  0
  190.7530  178.1840  144.5280 C   0  0  0  0  0  0  0  0  0  0  0  0
  189.0540  178.6270  146.3360 C   0  0  0  0  0  2  0  0  0  0  0  0
  188.2300  177.3670  148.4830 N   0  0  0  0  0  0  0  0  0  0  0  0
  188.5950  177.9210  147.5340 C   0  0  0  0  0  0  0  0  0  0  0  0
  186.7140  177.4030  137.5060 C   0  0  0  0  0  2  0  0  0  0  0  0
  185.7960  177.4600  138.5610 O   0  0  0  0  0  0  0  0  0  0  0  0
  184.6370  178.0020  137.9990 C   0  0  1  0  0  3  0  0  0  0  0  0
  183.0230  177.3570  135.5930 N   0  0  0  0  0  1  0  0  0  0  0  0
  183.6100  176.9720  137.8600 N   0  0  0  0  0  0  0  0  0  0  0  0
  182.9230  176.6550  136.6720 C   0  0  0  0  0  0  0  0  0  0  0  0
  181.9460  175.3210  138.2770 C   0  0  0  0  0  3  0  0  0  0  0  0
  181.8930  175.7120  136.8720 N   0  0  0  0  0  0  0  0  0  0  0  0
  183.0230  176.2010  138.9420 C   0  0  0  0  0  3  0  0  0  0  0  0
  184.1390  179.1410  138.8290 C   0  0  0  0  0  0  0  0  0  0  0  0
  183.0140  179.6580  138.5920 O   0  0  0  0  0  0  0  0  0  0  0  0
  184.9300  179.6450  139.8520 O   0  0  0  0  0  1  0  0  0  0  0  0
  1 10  1  1  0  0  0
  1 16  1  0  0  0  0
  2  4  1  6  0  0  0
  2 15  1  0  0  0  0
  3  8  1  0  0  0  0
  6  1  1  0  0  0  0
  7  5  1  6  0  0  0
  8  2  1  0  0  0  0
  8 13  2  0  0  0  0
  9 14  1  0  0  0  0
  9 11  2  0  0  0  0
 10 12  1  0  0  0  0
 11  1  1  0  0  0  0
 12  7  1  0  0  0  0
 12 22  1  1  0  0  0
 13  9  1  0  0  0  0
 14  6  1  0  0  0  0
 15 14  2  0  0  0  0
 16  7  1  0  0  0  0
 17 18  1  0  0  0  0
 18 13  1  0  0  0  0
 19 18  2  0  0  0  0
 20 23  1  0  0  0  0
 21 22  2  0  0  0  0
 22 20  1  0  0  0  0
 23 25  1  0  0  0  0
 25 24  3  0  0  0  0
 26  2  1  0  0  0  0
 26 27  1  0  0  0  0
 28 27  1  1  0  0  0
 28 35  1  0  0  0  0
 29 31  1  0  0  0  0
 30 28  1  0  0  0  0
 30 34  1  0  0  0  0
 31 33  2  0  0  0  0
 31 30  1  0  0  0  0
 32 34  2  0  0  0  0
 33 32  1  0  0  0  0
 35 37  1  0  0  0  0
 36 35  2  0  0  0  0
M  END
>  <MODEL>
5

>  <REMARK>
 VINA RESULT:      -7.1      3.290      7.772
  Name = 
  9 active torsions:
  status: ('A' for Active; 'I' for Inactive)
    1  A    between atoms: N_4  and  C_31
    2  A    between atoms: C_5  and  C_35
    3  A    between atoms: N_9  and  C_13
    4  A    between atoms: C_13  and  C_24
    5  A    between atoms: C_20  and  C_29
    6  A    between atoms: C_25  and  C_31
    7  A    between atoms: C_27  and  C_30
    8  A    between atoms: C_31  and  O_36
    9  A    between atoms: C_35  and  O_36
                            x       y       z     vdW  Elec       q    Type
                         _______ _______ _______ _____ _____    ______ ____

>  <TORSDO>
F 9

$$$$
=
 OpenBabel11062415323D

 37 40  0  0  1  0  0  0  0  0999 V2000
  182.2030  177.2610  139.1770 C   0  0  2  0  0  0  0  0  0  0  0  0
  184.9620  178.8660  142.5750 C   0  0  1  0  0  0  0  0  0  0  0  0
  183.5310  179.8550  144.4840 C   0  0  0  0  0  1  0  0  0  0  0  0
  185.6810  180.0490  142.5510 F   0  0  0  0  0  0  0  0  0  0  0  0
  180.1940  175.1430  137.4070 O   0  0  0  0  0  1  0  0  0  0  0  0
  183.6150  177.4320  139.3360 O   0  0  0  0  0  0  0  0  0  0  0  0
  181.5000  175.6230  137.5080 C   0  0  1  0  0  3  0  0  0  0  0  0
  183.5670  179.1500  143.1610 C   0  0  0  0  0  0  0  0  0  0  0  0
  182.5430  178.1960  141.1840 C   0  0  0  0  0  0  0  0  0  0  0  0
  181.7050  178.0160  137.9630 C   0  0  0  0  0  2  0  0  0  0  0  0
  181.5920  177.7810  140.4130 N   0  0  0  0  0  0  0  0  0  0  0  0
  181.5900  176.9910  136.8500 C   0  0  1  0  0  3  0  0  0  0  0  0
  182.4140  178.7980  142.5230 C   0  0  0  0  0  0  0  0  0  0  0  0
  183.8070  177.9960  140.5790 C   0  0  0  0  0  0  0  0  0  0  0  0
  184.9520  178.3040  141.1660 C   0  0  0  0  0  3  0  0  0  0  0  0
  181.8570  175.7990  138.9750 C   0  0  0  0  0  2  0  0  0  0  0  0
  180.4270  180.1310  142.8720 N   0  0  0  0  0  2  0  0  0  0  0  0
  181.0610  179.0260  143.0960 C   0  0  0  0  0  0  0  0  0  0  0  0
  180.5000  178.0860  144.0080 N   0  0  0  0  0  1  0  0  0  0  0  0
  183.9060  176.2350  136.1940 N   0  0  0  0  0  2  0  0  0  0  0  0
  182.7650  177.8410  134.9400 O   0  0  0  0  0  0  0  0  0  0  0  0
  182.7710  177.0610  135.9330 C   0  0  0  0  0  0  0  0  0  0  0  0
  185.0820  176.2480  135.3390 C   0  0  0  0  0  2  0  0  0  0  0  0
  186.9310  177.7650  136.4160 N   0  0  0  0  0  0  0  0  0  0  0  0
  186.1140  177.0930  135.9420 C   0  0  0  0  0  0  0  0  0  0  0  0
  185.6790  177.8740  143.4900 C   0  0  0  0  0  2  0  0  0  0  0  0
  186.6160  178.5270  144.3000 O   0  0  0  0  0  0  0  0  0  0  0  0
  187.3180  177.4990  144.9360 C   0  0  1  0  0  3  0  0  0  0  0  0
  188.5980  175.6550  142.9940 N   0  0  0  0  0  1  0  0  0  0  0  0
  188.7110  177.4880  144.4970 N   0  0  0  0  0  0  0  0  0  0  0  0
  189.2550  176.6380  143.5140 C   0  0  0  0  0  0  0  0  0  0  0  0
  191.0620  177.8210  144.3180 C   0  0  0  0  0  3  0  0  0  0  0  0
  190.6550  176.7620  143.3980 N   0  0  0  0  0  0  0  0  0  0  0  0
  189.7980  178.2460  145.0920 C   0  0  0  0  0  3  0  0  0  0  0  0
  187.2290  177.6480  146.4200 C   0  0  0  0  0  0  0  0  0  0  0  0
  186.4830  178.5270  146.9290 O   0  0  0  0  0  0  0  0  0  0  0  0
  187.9890  176.8270  147.2420 O   0  0  0  0  0  1  0  0  0  0  0  0
  1 10  1  6  0  0  0
  1  6  1  0  0  0  0
  1 11  1  0  0  0  0
  2  4  1  6  0  0  0
  2  8  1  0  0  0  0
  2 26  1  0  0  0  0
  6 14  1  0  0  0  0
  7  5  1  1  0  0  0
  7 16  1  0  0  0  0
  8  3  1  0  0  0  0
  9 13  1  0  0  0  0
 11  9  2  0  0  0  0
 12 22  1  6  0  0  0
 12  7  1  0  0  0  0
 12 10  1  0  0  0  0
 13 18  1  0  0  0  0
 13  8  2  0  0  0  0
 14 15  2  0  0  0  0
 14  9  1  0  0  0  0
 15  2  1  0  0  0  0
 16  1  1  0  0  0  0
 17 18  2  0  0  0  0
 18 19  1  0  0  0  0
 21 22  2  0  0  0  0
 22 20  1  0  0  0  0
 23 25  1  0  0  0  0
 23 20  1  0  0  0  0
 25 24  3  0  0  0  0
 26 27  1  0  0  0  0
 28 27  1  6  0  0  0
 28 35  1  0  0  0  0
 29 31  1  0  0  0  0
 30 28  1  0  0  0  0
 30 34  1  0  0  0  0
 31 30  1  0  0  0  0
 32 34  2  0  0  0  0
 33 31  2  0  0  0  0
 33 32  1  0  0  0  0
 35 36  2  0  0  0  0
 35 37  1  0  0  0  0
M  END
>  <MODEL>
6

>  <REMARK>
 VINA RESULT:      -7.1      5.205      7.833
  Name = 
  9 active torsions:
  status: ('A' for Active; 'I' for Inactive)
    1  A    between atoms: N_4  and  C_31
    2  A    between atoms: C_5  and  C_35
    3  A    between atoms: N_9  and  C_13
    4  A    between atoms: C_13  and  C_24
    5  A    between atoms: C_20  and  C_29
    6  A    between atoms: C_25  and  C_31
    7  A    between atoms: C_27  and  C_30
    8  A    between atoms: C_31  and  O_36
    9  A    between atoms: C_35  and  O_36
                            x       y       z     vdW  Elec       q    Type
                         _______ _______ _______ _____ _____    ______ ____

>  <TORSDO>
F 9

$$$$
=
 OpenBabel11062415323D

 37 40  0  0  1  0  0  0  0  0999 V2000
  188.6210  177.4090  142.5930 C   0  0  2  0  0  0  0  0  0  0  0  0
  184.6270  178.5280  140.4650 C   0  0  1  0  0  0  0  0  0  0  0  0
  185.0570  178.9860  137.9600 C   0  0  0  0  0  1  0  0  0  0  0  0
  183.9770  179.7490  140.5390 F   0  0  0  0  0  0  0  0  0  0  0  0
  191.2300  175.5260  143.7350 O   0  0  0  0  0  1  0  0  0  0  0  0
  187.2810  177.6650  143.0280 O   0  0  0  0  0  0  0  0  0  0  0  0
  190.0080  176.0870  144.1070 C   0  0  1  0  0  3  0  0  0  0  0  0
  185.6170  178.5670  139.2870 C   0  0  0  0  0  0  0  0  0  0  0  0
  187.4190  177.9460  140.7810 C   0  0  0  0  0  0  0  0  0  0  0  0
  189.5940  178.3480  143.2750 C   0  0  0  0  0  2  0  0  0  0  0  0
  188.6180  177.6160  141.1350 N   0  0  0  0  0  0  0  0  0  0  0  0
  190.2010  177.5610  144.4230 C   0  0  1  0  0  3  0  0  0  0  0  0
  186.9380  178.2530  139.4230 C   0  0  0  0  0  0  0  0  0  0  0  0
  186.5540  177.9810  141.9020 C   0  0  0  0  0  0  0  0  0  0  0  0
  185.2640  178.2620  141.8160 C   0  0  0  0  0  3  0  0  0  0  0  0
  189.0380  175.9940  142.9400 C   0  0  0  0  0  2  0  0  0  0  0  0
  188.0950  177.1680  137.5990 N   0  0  0  0  0  2  0  0  0  0  0  0
  187.8950  178.2450  138.2860 C   0  0  0  0  0  0  0  0  0  0  0  0
  188.7040  179.3880  138.0210 N   0  0  0  0  0  1  0  0  0  0  0  0
  188.1200  177.8730  145.8150 N   0  0  0  0  0  2  0  0  0  0  0  0
  190.2400  178.2480  146.7200 O   0  0  0  0  0  0  0  0  0  0  0  0
  189.5440  177.9160  145.7210 C   0  0  0  0  0  0  0  0  0  0  0  0
  187.4200  178.1960  147.0480 C   0  0  0  0  0  2  0  0  0  0  0  0
  184.9680  178.9380  146.4850 N   0  0  0  0  0  0  0  0  0  0  0  0
  186.0510  178.6100  146.7360 C   0  0  0  0  0  0  0  0  0  0  0  0
  183.5920  177.4370  140.1920 C   0  0  0  0  0  2  0  0  0  0  0  0
  182.3910  177.9900  139.7320 O   0  0  0  0  0  0  0  0  0  0  0  0
  181.4540  177.6890  140.7250 C   0  0  1  0  0  3  0  0  0  0  0  0
  181.3200  178.6490  143.5310 N   0  0  0  0  0  1  0  0  0  0  0  0
  180.8300  178.9120  141.2230 N   0  0  0  0  0  0  0  0  0  0  0  0
  180.8580  179.3620  142.5570 C   0  0  0  0  0  0  0  0  0  0  0  0
  179.5130  180.8810  141.4650 C   0  0  0  0  0  3  0  0  0  0  0  0
  180.0550  180.5030  142.7660 N   0  0  0  0  0  0  0  0  0  0  0  0
  179.9610  179.7950  140.4660 C   0  0  0  0  0  3  0  0  0  0  0  0
  180.4240  176.7430  140.2000 C   0  0  0  0  0  0  0  0  0  0  0  0
  179.6870  176.0980  140.9920 O   0  0  0  0  0  1  0  0  0  0  0  0
  180.2950  176.5560  138.8300 O   0  0  0  0  0  0  0  0  0  0  0  0
  1 16  1  1  0  0  0
  1  6  1  0  0  0  0
  1 10  1  0  0  0  0
  2  4  1  1  0  0  0
  2 15  1  0  0  0  0
  3  8  1  0  0  0  0
  7  5  1  6  0  0  0
  7 12  1  0  0  0  0
  8 13  2  0  0  0  0
  8  2  1  0  0  0  0
  9 11  2  0  0  0  0
  9 14  1  0  0  0  0
 10 12  1  0  0  0  0
 11  1  1  0  0  0  0
 12 22  1  1  0  0  0
 13  9  1  0  0  0  0
 14  6  1  0  0  0  0
 15 14  2  0  0  0  0
 16  7  1  0  0  0  0
 17 18  2  0  0  0  0
 18 13  1  0  0  0  0
 19 18  1  0  0  0  0
 20 23  1  0  0  0  0
 22 20  1  0  0  0  0
 22 21  2  0  0  0  0
 24 25  3  0  0  0  0
 25 23  1  0  0  0  0
 26  2  1  0  0  0  0
 27 26  1  0  0  0  0
 28 27  1  6  0  0  0
 28 30  1  0  0  0  0
 30 31  1  0  0  0  0
 31 33  2  0  0  0  0
 31 29  1  0  0  0  0
 32 33  1  0  0  0  0
 34 30  1  0  0  0  0
 34 32  2  0  0  0  0
 35 28  1  0  0  0  0
 35 36  1  0  0  0  0
 37 35  2  0  0  0  0
M  END
>  <MODEL>
7

>  <REMARK>
 VINA RESULT:      -7.0      4.630      8.398
  Name = 
  9 active torsions:
  status: ('A' for Active; 'I' for Inactive)
    1  A    between atoms: N_4  and  C_31
    2  A    between atoms: C_5  and  C_35
    3  A    between atoms: N_9  and  C_13
    4  A    between atoms: C_13  and  C_24
    5  A    between atoms: C_20  and  C_29
    6  A    between atoms: C_25  and  C_31
    7  A    between atoms: C_27  and  C_30
    8  A    between atoms: C_31  and  O_36
    9  A    between atoms: C_35  and  O_36
                            x       y       z     vdW  Elec       q    Type
                         _______ _______ _______ _____ _____    ______ ____

>  <TORSDO>
F 9

$$$$
=
 OpenBabel11062415323D

 37 40  0  0  1  0  0  0  0  0999 V2000
  184.3420  178.6420  144.2920 C   0  0  2  0  0  0  0  0  0  0  0  0
  182.1450  178.7110  140.1820 C   0  0  1  0  0  0  0  0  0  0  0  0
  179.5900  178.5800  140.5420 C   0  0  0  0  0  1  0  0  0  0  0  0
  182.0370  177.6520  139.2970 F   0  0  0  0  0  0  0  0  0  0  0  0
  185.7160  179.7490  147.2160 O   0  0  0  0  0  1  0  0  0  0  0  0
  184.7580  178.5970  142.9240 O   0  0  0  0  0  0  0  0  0  0  0  0
  186.0190  179.3970  145.9000 C   0  0  1  0  0  3  0  0  0  0  0  0
  180.9550  178.6600  141.1580 C   0  0  0  0  0  0  0  0  0  0  0  0
  182.4920  178.6550  143.0300 C   0  0  0  0  0  0  0  0  0  0  0  0
  184.8470  177.4290  145.0450 C   0  0  0  0  0  2  0  0  0  0  0  0
  182.8700  178.6750  144.2660 N   0  0  0  0  0  0  0  0  0  0  0  0
  186.0930  177.8820  145.7850 C   0  0  1  0  0  3  0  0  0  0  0  0
  181.1130  178.6730  142.5130 C   0  0  0  0  0  0  0  0  0  0  0  0
  183.6100  178.6190  142.1620 C   0  0  0  0  0  0  0  0  0  0  0  0
  183.5070  178.6230  140.8430 C   0  0  0  0  0  3  0  0  0  0  0  0
  184.9010  179.8690  144.9850 C   0  0  0  0  0  2  0  0  0  0  0  0
  179.3070  179.7500  143.7060 N   0  0  0  0  0  2  0  0  0  0  0  0
  179.9730  178.6680  143.4670 C   0  0  0  0  0  0  0  0  0  0  0  0
  179.6810  177.5010  144.2300 N   0  0  0  0  0  1  0  0  0  0  0  0
  188.6030  177.8970  145.5360 N   0  0  0  0  0  2  0  0  0  0  0  0
  187.2510  176.7430  144.0220 O   0  0  0  0  0  0  0  0  0  0  0  0
  187.3310  177.4660  145.0530 C   0  0  0  0  0  0  0  0  0  0  0  0
  189.8440  177.5210  144.8780 C   0  0  0  0  0  2  0  0  0  0  0  0
  191.6090  176.8120  146.6840 N   0  0  0  0  0  0  0  0  0  0  0  0
  190.8300  177.1280  145.8870 C   0  0  0  0  0  0  0  0  0  0  0  0
  182.0680  180.0180  139.3940 C   0  0  0  0  0  2  0  0  0  0  0  0
  182.0710  179.7740  138.0160 O   0  0  0  0  0  0  0  0  0  0  0  0
  180.7670  180.0580  137.5990 C   0  0  1  0  0  3  0  0  0  0  0  0
  180.1770  182.8610  138.3760 N   0  0  0  0  0  1  0  0  0  0  0  0
  180.7550  181.2400  136.7410 N   0  0  0  0  0  0  0  0  0  0  0  0
  180.5410  182.5640  137.1720 C   0  0  0  0  0  0  0  0  0  0  0  0
  180.6910  182.7220  134.8780 C   0  0  0  0  0  3  0  0  0  0  0  0
  180.4490  183.4790  136.1030 N   0  0  0  0  0  0  0  0  0  0  0  0
  180.8170  181.2410  135.2900 C   0  0  0  0  0  3  0  0  0  0  0  0
  180.1790  178.8810  136.8910 C   0  0  0  0  0  0  0  0  0  0  0  0
  178.9310  178.7130  136.8610 O   0  0  0  0  0  1  0  0  0  0  0  0
  181.0150  177.9540  136.2820 O   0  0  0  0  0  0  0  0  0  0  0  0
  1 16  1  1  0  0  0
  1 10  1  0  0  0  0
  2  4  1  6  0  0  0
  2 15  1  0  0  0  0
  2  8  1  0  0  0  0
  3  8  1  0  0  0  0
  6  1  1  0  0  0  0
  7  5  1  1  0  0  0
  8 13  2  0  0  0  0
  9 11  2  0  0  0  0
 10 12  1  0  0  0  0
 11  1  1  0  0  0  0
 12 22  1  6  0  0  0
 12  7  1  0  0  0  0
 13  9  1  0  0  0  0
 13 18  1  0  0  0  0
 14  6  1  0  0  0  0
 14  9  1  0  0  0  0
 15 14  2  0  0  0  0
 16  7  1  0  0  0  0
 18 17  2  0  0  0  0
 18 19  1  0  0  0  0
 21 22  2  0  0  0  0
 22 20  1  0  0  0  0
 23 20  1  0  0  0  0
 23 25  1  0  0  0  0
 25 24  3  0  0  0  0
 26  2  1  0  0  0  0
 27 26  1  0  0  0  0
 28 35  1  6  0  0  0
 28 27  1  0  0  0  0
 30 31  1  0  0  0  0
 30 28  1  0  0  0  0
 31 29  1  0  0  0  0
 32 34  2  0  0  0  0
 32 33  1  0  0  0  0
 33 31  2  0  0  0  0
 34 30  1  0  0  0  0
 36 35  1  0  0  0  0
 37 35  2  0  0  0  0
M  END
>  <MODEL>
8

>  <REMARK>
 VINA RESULT:      -6.9      6.555     10.891
  Name = 
  9 active torsions:
  status: ('A' for Active; 'I' for Inactive)
    1  A    between atoms: N_4  and  C_31
    2  A    between atoms: C_5  and  C_35
    3  A    between atoms: N_9  and  C_13
    4  A    between atoms: C_13  and  C_24
    5  A    between atoms: C_20  and  C_29
    6  A    between atoms: C_25  and  C_31
    7  A    between atoms: C_27  and  C_30
    8  A    between atoms: C_31  and  O_36
    9  A    between atoms: C_35  and  O_36
                            x       y       z     vdW  Elec       q    Type
                         _______ _______ _______ _____ _____    ______ ____

>  <TORSDO>
F 9

$$$$
=
 OpenBabel11062415323D

 37 40  0  0  1  0  0  0  0  0999 V2000
  188.9920  177.2370  142.9880 C   0  0  2  0  0  0  0  0  0  0  0  0
  184.8870  178.5310  141.1990 C   0  0  1  0  0  0  0  0  0  0  0  0
  185.1610  179.1350  138.7030 C   0  0  0  0  0  1  0  0  0  0  0  0
  184.2630  179.7530  141.3880 F   0  0  0  0  0  0  0  0  0  0  0  0
  191.6400  175.2570  143.8410 O   0  0  0  0  0  1  0  0  0  0  0  0
  187.6880  177.4820  143.5250 O   0  0  0  0  0  0  0  0  0  0  0  0
  190.4540  175.8080  144.3250 C   0  0  1  0  0  3  0  0  0  0  0  0
  185.7980  178.6300  139.9620 C   0  0  0  0  0  0  0  0  0  0  0  0
  187.6840  177.8980  141.2950 C   0  0  0  0  0  0  0  0  0  0  0  0
  190.0230  178.1210  143.6600 C   0  0  0  0  0  2  0  0  0  0  0  0
  188.8980  177.5310  141.5480 N   0  0  0  0  0  0  0  0  0  0  0  0
  190.6900  177.2580  144.7160 C   0  0  1  0  0  3  0  0  0  0  0  0
  187.1200  178.2920  139.9920 C   0  0  0  0  0  0  0  0  0  0  0  0
  186.8950  177.8750  142.4700 C   0  0  0  0  0  0  0  0  0  0  0  0
  185.6060  178.1760  142.4860 C   0  0  0  0  0  3  0  0  0  0  0  0
  189.4090  175.7980  143.2210 C   0  0  0  0  0  2  0  0  0  0  0  0
  187.9730  177.3950  137.9150 N   0  0  0  0  0  2  0  0  0  0  0  0
  188.0020  178.3410  138.7960 C   0  0  0  0  0  0  0  0  0  0  0  0
  188.9840  179.3650  138.6700 N   0  0  0  0  0  1  0  0  0  0  0  0
  188.7660  177.9630  146.1870 N   0  0  0  0  0  2  0  0  0  0  0  0
  190.8410  177.4090  147.1040 O   0  0  0  0  0  0  0  0  0  0  0  0
  190.1250  177.5410  146.0730 C   0  0  0  0  0  0  0  0  0  0  0  0
  188.1530  178.2440  147.4750 C   0  0  0  0  0  2  0  0  0  0  0  0
  185.5810  178.6400  147.1440 N   0  0  0  0  0  0  0  0  0  0  0  0
  186.7170  178.4670  147.2920 C   0  0  0  0  0  0  0  0  0  0  0  0
  183.8190  177.4710  140.9290 C   0  0  0  0  0  2  0  0  0  0  0  0
  182.5370  178.0320  140.9640 O   0  0  0  0  0  0  0  0  0  0  0  0
  181.9630  177.6900  139.7360 C   0  0  1  0  0  3  0  0  0  0  0  0
  181.4110  175.2800  138.0930 N   0  0  0  0  0  1  0  0  0  0  0  0
  180.9070  176.6990  139.9280 N   0  0  0  0  0  0  0  0  0  0  0  0
  180.7320  175.5290  139.1630 C   0  0  0  0  0  0  0  0  0  0  0  0
  178.9310  175.5540  140.6000 C   0  0  0  0  0  3  0  0  0  0  0  0
  179.5490  174.8340  139.4900 N   0  0  0  0  0  0  0  0  0  0  0  0
  179.7820  176.8170  140.8390 C   0  0  0  0  0  3  0  0  0  0  0  0
  181.4310  178.9080  139.0520 C   0  0  0  0  0  0  0  0  0  0  0  0
  181.2430  178.9090  137.8060 O   0  0  0  0  0  0  0  0  0  0  0  0
  181.1640  180.0510  139.7920 O   0  0  0  0  0  1  0  0  0  0  0  0
  1 16  1  1  0  0  0
  1  6  1  0  0  0  0
  1 10  1  0  0  0  0
  2  4  1  1  0  0  0
  2 15  1  0  0  0  0
  3  8  1  0  0  0  0
  7  5  1  6  0  0  0
  7 12  1  0  0  0  0
  8 13  2  0  0  0  0
  8  2  1  0  0  0  0
  9 11  2  0  0  0  0
  9 14  1  0  0  0  0
 10 12  1  0  0  0  0
 11  1  1  0  0  0  0
 12 22  1  1  0  0  0
 13  9  1  0  0  0  0
 14 15  2  0  0  0  0
 14  6  1  0  0  0  0
 16  7  1  0  0  0  0
 17 18  2  0  0  0  0
 18 13  1  0  0  0  0
 19 18  1  0  0  0  0
 20 23  1  0  0  0  0
 22 20  1  0  0  0  0
 22 21  2  0  0  0  0
 24 25  3  0  0  0  0
 25 23  1  0  0  0  0
 26 27  1  0  0  0  0
 26  2  1  0  0  0  0
 28 35  1  1  0  0  0
 28 30  1  0  0  0  0
 28 27  1  0  0  0  0
 29 31  1  0  0  0  0
 30 34  1  0  0  0  0
 31 33  2  0  0  0  0
 31 30  1  0  0  0  0
 32 34  2  0  0  0  0
 33 32  1  0  0  0  0
 35 37  1  0  0  0  0
 36 35  2  0  0  0  0
M  END
>  <MODEL>
9

>  <REMARK>
 VINA RESULT:      -6.7      4.529      8.509
  Name = 
  9 active torsions:
  status: ('A' for Active; 'I' for Inactive)
    1  A    between atoms: N_4  and  C_31
    2  A    between atoms: C_5  and  C_35
    3  A    between atoms: N_9  and  C_13
    4  A    between atoms: C_13  and  C_24
    5  A    between atoms: C_20  and  C_29
    6  A    between atoms: C_25  and  C_31
    7  A    between atoms: C_27  and  C_30
    8  A    between atoms: C_31  and  O_36
    9  A    between atoms: C_35  and  O_36
                            x       y       z     vdW  Elec       q    Type
                         _______ _______ _______ _____ _____    ______ ____

>  <TORSDO>
F 9

$$$$
