=
 OpenBabel11062416243D

 67 75  0  0  1  0  0  0  0  0999 V2000
  186.6030  173.6480  135.1460 C   0  0  0  0  0  2  0  0  0  0  0  0
  184.1270  176.5080  139.2700 C   0  0  0  0  0  2  0  0  0  0  0  0
  187.4050  170.9360  136.1340 F   0  0  0  0  0  0  0  0  0  0  0  0
  189.5440  177.7400  136.5320 N   0  0  0  0  0  2  0  0  0  0  0  0
  185.1190  177.6620  139.3190 C   0  0  2  0  0  0  0  0  0  0  0  0
  188.6500  177.2150  139.3540 N   0  0  0  0  0  0  0  0  0  0  0  0
  189.8110  177.8840  139.6970 C   0  0  0  0  0  0  0  0  0  0  0  0
  186.0360  178.3470  141.7690 C   0  0  0  0  0  2  0  0  0  0  0  0
  189.3440  171.8210  135.3300 N   0  0  0  0  0  0  0  0  0  0  0  0
  184.5060  172.3260  136.2780 C   0  0  0  0  0  1  0  0  0  0  0  0
  188.1490  171.9510  135.7920 C   0  0  0  0  0  0  0  0  0  0  0  0
  188.9940  176.7190  135.6680 N   0  0  0  0  0  2  0  0  0  0  0  0
  184.0650  174.7770  137.5270 C   0  0  1  0  0  3  0  0  0  0  0  0
  184.5600  174.8230  136.0580 C   0  0  2  0  0  3  0  0  0  0  0  0
  187.3990  178.1980  141.1800 C   0  0  0  0  0  0  0  0  0  0  0  0
  189.9700  173.0950  135.1610 C   0  0  0  0  0  2  0  0  0  0  0  0
  188.5490  178.7550  141.7300 C   0  0  0  0  0  3  0  0  0  0  0  0
  190.3310  175.5440  137.4330 C   0  0  1  0  0  3  0  0  0  0  0  0
  183.6550  175.3830  135.1500 F   0  0  0  0  0  0  0  0  0  0  0  0
  185.0380  173.5530  135.4460 C   0  0  1  0  0  3  0  0  0  0  0  0
  190.7810  177.8610  138.7110 C   0  0  0  0  0  3  0  0  0  0  0  0
  190.6230  177.0910  137.3490 C   0  0  2  0  0  3  0  0  0  0  0  0
  187.7510  173.3130  136.1240 C   0  0  1  0  0  3  0  0  0  0  0  0
  188.9490  174.0760  135.6070 C   0  0  1  0  0  3  0  0  0  0  0  0
  184.0300  176.1570  137.8810 N   0  0  0  0  0  2  0  0  0  0  0  0
  186.4220  176.9990  139.2100 O   0  0  0  0  0  0  0  0  0  0  0  0
  184.9280  178.4380  140.6730 C   0  0  0  0  0  2  0  0  0  0  0  0
  189.9120  178.6120  140.9990 C   0  0  0  0  0  2  0  0  0  0  0  0
  182.7400  174.1970  137.7530 C   0  0  0  0  0  1  0  0  0  0  0  0
  187.5000  177.4390  139.9590 C   0  0  0  0  0  0  0  0  0  0  0  0
  189.3500  175.4360  136.2740 C   0  0  2  0  0  3  0  0  0  0  0  0
  192.8030  175.9200  135.4640 O   0  0  0  0  0  0  0  0  0  0  0  0
  191.4860  174.7580  137.0410 N   0  0  0  0  0  2  0  0  0  0  0  0
  192.7380  175.1870  136.4880 C   0  0  0  0  0  0  0  0  0  0  0  0
  194.0980  174.5680  136.9790 C   0  0  1  0  0  3  0  0  0  0  0  0
  193.8680  173.4190  137.7560 O   0  0  0  0  0  0  0  0  0  0  0  0
  195.0820  172.7560  137.9320 C   0  0  0  0  0  1  0  0  0  0  0  0
  195.0370  174.2690  135.7760 C   0  0  0  0  0  2  0  0  0  0  0  0
  198.2320  175.0410  134.8420 C   0  0  0  0  0  1  0  0  0  0  0  0
  195.8160  175.4290  135.3860 N   0  0  0  0  0  2  0  0  0  0  0  0
  197.4540  175.6590  136.9790 O   0  0  0  0  0  0  0  0  0  0  0  0
  197.1760  175.4560  135.7770 C   0  0  0  0  0  0  0  0  0  0  0  0
  184.9960  178.6710  138.1280 C   0  0  0  0  0  2  0  0  0  0  0  0
  184.4940  179.9320  138.3980 O   0  0  0  0  0  0  0  0  0  0  0  0
  183.0820  179.7200  138.4770 C   0  0  0  0  0  2  0  0  0  0  0  0
  181.9130  179.0600  137.5800 C   0  0  0  0  0  2  0  0  0  0  0  0
  179.7550  175.9310  137.9750 N   0  0  1  0  0  0  0  0  0  0  0  0
  179.0120  173.7210  134.5940 C   0  0  0  0  0  3  0  0  0  0  0  0
  179.5910  175.0290  134.6500 N   0  0  0  0  0  0  0  0  0  0  0  0
  180.4020  175.2650  140.4180 C   0  0  0  0  0  2  0  0  0  0  0  0
  180.6500  178.2300  138.0990 C   0  0  2  0  0  3  0  0  0  0  0  0
  178.9320  172.9710  135.6850 C   0  0  0  0  0  3  0  0  0  0  0  0
  180.1700  175.4710  135.7460 C   0  0  0  0  0  0  0  0  0  0  0  0
  180.5810  177.7920  139.6460 C   0  0  2  0  0  3  0  0  0  0  0  0
  180.2310  174.7670  137.0580 C   0  0  2  0  0  3  0  0  0  0  0  0
  180.1340  176.2310  139.4820 C   0  0  0  0  0  0  0  0  0  0  0  0
  180.4500  176.8240  135.9410 N   0  0  0  0  0  2  0  0  0  0  0  0
  179.3020  173.5060  137.0910 C   0  0  0  0  0  2  0  0  0  0  0  0
  178.9310  175.8530  140.4880 C   0  0  0  0  0  2  0  0  0  0  0  0
  180.6500  176.9060  137.3380 C   0  0  2  0  0  3  0  0  0  0  0  0
  180.7570  178.8250  140.8780 C   0  0  2  0  0  3  0  0  0  0  0  0
  181.6750  178.2970  141.9790 C   0  0  0  0  0  2  0  0  0  0  0  0
  182.4470  179.4790  142.5230 C   0  0  0  0  0  1  0  0  0  0  0  0
  179.5840  179.7980  141.1050 N   0  0  0  0  0  0  0  0  0  0  0  0
  179.1230  179.8860  142.5000 C   0  0  0  0  0  1  0  0  0  0  0  0
  179.7980  181.1560  140.6540 C   0  0  0  0  0  2  0  0  0  0  0  0
  179.0720  181.5590  139.4580 O   0  0  0  0  0  1  0  0  0  0  0  0
  1 20  1  0  0  0  0
  2  5  1  0  0  0  0
  4 22  1  0  0  0  0
  5 43  1  6  0  0  0
  5 27  1  0  0  0  0
  6  7  1  0  0  0  0
  6 30  2  0  0  0  0
  7 28  1  0  0  0  0
  9 11  2  0  0  0  0
 11 23  1  0  0  0  0
 11  3  1  0  0  0  0
 12  4  1  0  0  0  0
 13 29  1  6  0  0  0
 13 25  1  0  0  0  0
 14 19  1  6  0  0  0
 14 13  1  0  0  0  0
 15 17  2  0  0  0  0
 15  8  1  0  0  0  0
 16  9  1  0  0  0  0
 18 33  1  6  0  0  0
 20 14  1  0  0  0  0
 20 10  1  1  0  0  0
 21  7  2  0  0  0  0
 22 18  1  0  0  0  0
 22 21  1  1  0  0  0
 23  1  1  6  0  0  0
 24 16  1  1  0  0  0
 24 23  1  0  0  0  0
 24 31  1  0  0  0  0
 25  2  1  0  0  0  0
 26  5  1  0  0  0  0
 26 30  1  0  0  0  0
 27  8  1  0  0  0  0
 28 17  1  0  0  0  0
 30 15  1  0  0  0  0
 31 12  1  6  0  0  0
 31 18  1  0  0  0  0
 32 34  2  0  0  0  0
 34 35  1  0  0  0  0
 34 33  1  0  0  0  0
 35 38  1  6  0  0  0
 35 36  1  0  0  0  0
 36 37  1  0  0  0  0
 39 42  1  0  0  0  0
 40 38  1  0  0  0  0
 40 42  1  0  0  0  0
 42 41  2  0  0  0  0
 43 44  1  0  0  0  0
 44 45  1  0  0  0  0
 46 45  1  0  0  0  0
 47 56  1  1  0  0  0
 48 49  1  0  0  0  0
 48 52  2  0  0  0  0
 49 53  2  0  0  0  0
 50 59  1  0  0  0  0
 51 46  1  1  0  0  0
 51 54  1  0  0  0  0
 52 58  1  0  0  0  0
 53 57  1  0  0  0  0
 53 55  1  0  0  0  0
 54 61  1  1  0  0  0
 55 58  1  6  0  0  0
 55 47  1  0  0  0  0
 56 54  1  0  0  0  0
 56 50  1  0  0  0  0
 56 59  1  0  0  0  0
 60 57  1  6  0  0  0
 60 47  1  0  0  0  0
 60 51  1  0  0  0  0
 61 64  1  0  0  0  0
 61 62  1  1  0  0  0
 62 63  1  0  0  0  0
 64 65  1  0  0  0  0
 66 64  1  0  0  0  0
 67 66  1  0  0  0  0
M  END
>  <MODEL>
1

>  <REMARK>
 VINA RESULT:      -2.8      0.000      0.000
  Name = 
  14 active torsions:
  status: ('A' for Active; 'I' for Inactive)
    1  A    between atoms: C_3  and  C_30
    2  A    between atoms: C_9  and  C_38
    3  A    between atoms: N_13  and  C_49
    4  A    between atoms: O_17  and  C_36
    5  A    between atoms: C_20  and  C_57
    6  A    between atoms: N_23  and  C_37
    7  A    between atoms: C_25  and  C_30
    8  A    between atoms: O_27  and  C_38
    9  A    between atoms: O_27  and  C_39
   10  A    between atoms: C_28  and  N_41
   11  A    between atoms: C_30  and  N_41
   12  A    between atoms: C_36  and  C_49
   13  A    between atoms: C_36  and  C_67
   14  A    between atoms: C_39  and  C_57
                            x       y       z     vdW  Elec       q    Type
                         _______ _______ _______ _____ _____    ______ ____

>  <TORSDO>
F 14

$$$$
=
 OpenBabel11062416243D

 67 75  0  0  1  0  0  0  0  0999 V2000
  186.1750  175.0720  135.1200 C   0  0  0  0  0  2  0  0  0  0  0  0
  183.8140  177.2100  139.7210 C   0  0  0  0  0  2  0  0  0  0  0  0
  186.6350  172.1350  135.4880 F   0  0  0  0  0  0  0  0  0  0  0  0
  189.4610  178.3900  137.4670 N   0  0  0  0  0  2  0  0  0  0  0  0
  184.9190  178.2030  140.0540 C   0  0  2  0  0  0  0  0  0  0  0  0
  188.3760  177.3580  140.0740 N   0  0  0  0  0  0  0  0  0  0  0  0
  189.5830  177.7970  140.5880 C   0  0  0  0  0  0  0  0  0  0  0  0
  185.7790  178.2180  142.6180 C   0  0  0  0  0  2  0  0  0  0  0  0
  188.6950  172.9490  134.9540 N   0  0  0  0  0  0  0  0  0  0  0  0
  183.8960  173.7810  135.8710 C   0  0  0  0  0  1  0  0  0  0  0  0
  187.4980  173.1090  135.4030 C   0  0  0  0  0  0  0  0  0  0  0  0
  188.8500  177.6560  136.3820 N   0  0  0  0  0  2  0  0  0  0  0  0
  183.6560  175.9280  137.6300 C   0  0  1  0  0  3  0  0  0  0  0  0
  184.2260  176.2410  136.2230 C   0  0  2  0  0  3  0  0  0  0  0  0
  187.1470  178.0480  142.0440 C   0  0  0  0  0  0  0  0  0  0  0  0
  189.4600  174.1480  135.0930 C   0  0  0  0  0  2  0  0  0  0  0  0
  188.3210  178.3340  142.7340 C   0  0  0  0  0  3  0  0  0  0  0  0
  189.9650  175.9740  137.8680 C   0  0  1  0  0  3  0  0  0  0  0  0
  183.4320  177.0890  135.4430 F   0  0  0  0  0  0  0  0  0  0  0  0
  184.5960  175.0940  135.3510 C   0  0  1  0  0  3  0  0  0  0  0  0
  190.5930  177.8820  139.6470 C   0  0  0  0  0  3  0  0  0  0  0  0
  190.4230  177.4570  138.1430 C   0  0  2  0  0  3  0  0  0  0  0  0
  187.2310  174.4000  136.0240 C   0  0  1  0  0  3  0  0  0  0  0  0
  188.5280  175.1160  135.7240 C   0  0  1  0  0  3  0  0  0  0  0  0
  183.7500  177.1900  138.2870 N   0  0  0  0  0  2  0  0  0  0  0  0
  186.1480  177.4360  139.8300 O   0  0  0  0  0  0  0  0  0  0  0  0
  184.7440  178.6760  141.5430 C   0  0  0  0  0  2  0  0  0  0  0  0
  189.6950  178.2010  142.0240 C   0  0  0  0  0  2  0  0  0  0  0  0
  182.2670  175.4680  137.6860 C   0  0  0  0  0  1  0  0  0  0  0  0
  187.2280  177.5730  140.6860 C   0  0  0  0  0  0  0  0  0  0  0  0
  189.0370  176.2390  136.6910 C   0  0  2  0  0  3  0  0  0  0  0  0
  192.3840  176.4220  135.8490 O   0  0  0  0  0  0  0  0  0  0  0  0
  191.0480  175.1670  137.3370 N   0  0  0  0  0  2  0  0  0  0  0  0
  192.3050  175.5780  136.7840 C   0  0  0  0  0  0  0  0  0  0  0  0
  193.6370  174.8200  137.1390 C   0  0  1  0  0  3  0  0  0  0  0  0
  194.5770  174.9560  136.1030 O   0  0  0  0  0  0  0  0  0  0  0  0
  194.4360  173.8730  135.2340 C   0  0  0  0  0  1  0  0  0  0  0  0
  194.2080  175.3100  138.5000 C   0  0  0  0  0  2  0  0  0  0  0  0
  196.9540  175.3230  140.5340 C   0  0  0  0  0  1  0  0  0  0  0  0
  195.1580  174.3720  139.0670 N   0  0  0  0  0  2  0  0  0  0  0  0
  197.2110  174.9570  138.2200 O   0  0  0  0  0  0  0  0  0  0  0  0
  196.4900  174.8200  139.2320 C   0  0  0  0  0  0  0  0  0  0  0  0
  184.9630  179.4590  139.1200 C   0  0  0  0  0  2  0  0  0  0  0  0
  183.8170  179.7800  138.4130 O   0  0  0  0  0  0  0  0  0  0  0  0
  182.7950  179.7710  139.4120 C   0  0  0  0  0  2  0  0  0  0  0  0
  181.1820  179.7490  139.4820 C   0  0  0  0  0  2  0  0  0  0  0  0
  179.8460  181.9190  136.6340 N   0  0  1  0  0  0  0  0  0  0  0  0
  179.6450  185.9680  137.2920 C   0  0  0  0  0  3  0  0  0  0  0  0
  179.8900  184.9540  138.2720 N   0  0  0  0  0  0  0  0  0  0  0  0
  180.6470  180.4960  134.5940 C   0  0  0  0  0  2  0  0  0  0  0  0
  180.1590  180.1390  138.3170 C   0  0  2  0  0  3  0  0  0  0  0  0
  179.7540  185.6970  135.9980 C   0  0  0  0  0  3  0  0  0  0  0  0
  180.3500  183.7710  137.9270 C   0  0  0  0  0  0  0  0  0  0  0  0
  180.2060  179.3270  136.9290 C   0  0  2  0  0  3  0  0  0  0  0  0
  180.5860  183.2850  136.5380 C   0  0  2  0  0  3  0  0  0  0  0  0
  180.1490  180.5670  135.8700 C   0  0  0  0  0  0  0  0  0  0  0  0
  180.2950  182.6750  138.7890 N   0  0  0  0  0  2  0  0  0  0  0  0
  179.9900  184.2610  135.4670 C   0  0  0  0  0  2  0  0  0  0  0  0
  179.0780  180.2910  134.6950 C   0  0  0  0  0  2  0  0  0  0  0  0
  180.4760  181.5780  137.9160 C   0  0  2  0  0  3  0  0  0  0  0  0
  180.1320  177.7140  136.8320 C   0  0  2  0  0  3  0  0  0  0  0  0
  180.6160  177.1700  135.4890 C   0  0  0  0  0  2  0  0  0  0  0  0
  179.3880  176.8260  134.6770 C   0  0  0  0  0  1  0  0  0  0  0  0
  179.0680  177.0400  137.7200 N   0  0  0  0  0  0  0  0  0  0  0  0
  178.9310  175.5890  137.5160 C   0  0  0  0  0  1  0  0  0  0  0  0
  179.2180  177.2450  139.1440 C   0  0  0  0  0  2  0  0  0  0  0  0
  179.1080  176.0580  139.9800 O   0  0  0  0  0  1  0  0  0  0  0  0
  1 20  1  0  0  0  0
  2  5  1  0  0  0  0
  4 22  1  0  0  0  0
  5 43  1  6  0  0  0
  5 27  1  0  0  0  0
  6  7  1  0  0  0  0
  6 30  2  0  0  0  0
  7 28  1  0  0  0  0
  9 16  1  0  0  0  0
  9 11  2  0  0  0  0
 11  3  1  0  0  0  0
 11 23  1  0  0  0  0
 12  4  1  0  0  0  0
 13 29  1  6  0  0  0
 13 25  1  0  0  0  0
 14 19  1  6  0  0  0
 14 13  1  0  0  0  0
 15  8  1  0  0  0  0
 15 17  2  0  0  0  0
 18 33  1  6  0  0  0
 18 22  1  0  0  0  0
 20 10  1  1  0  0  0
 20 14  1  0  0  0  0
 21  7  2  0  0  0  0
 22 21  1  1  0  0  0
 23  1  1  6  0  0  0
 24 16  1  1  0  0  0
 24 23  1  0  0  0  0
 24 31  1  0  0  0  0
 25  2  1  0  0  0  0
 26  5  1  0  0  0  0
 26 30  1  0  0  0  0
 27  8  1  0  0  0  0
 28 17  1  0  0  0  0
 30 15  1  0  0  0  0
 31 12  1  6  0  0  0
 31 18  1  0  0  0  0
 32 34  2  0  0  0  0
 34 35  1  0  0  0  0
 34 33  1  0  0  0  0
 35 38  1  1  0  0  0
 36 35  1  0  0  0  0
 37 36  1  0  0  0  0
 38 40  1  0  0  0  0
 40 42  1  0  0  0  0
 41 42  2  0  0  0  0
 42 39  1  0  0  0  0
 44 43  1  0  0  0  0
 44 45  1  0  0  0  0
 45 46  1  0  0  0  0
 47 56  1  6  0  0  0
 47 60  1  0  0  0  0
 48 49  1  0  0  0  0
 50 59  1  0  0  0  0
 50 56  1  0  0  0  0
 51 46  1  1  0  0  0
 52 48  2  0  0  0  0
 53 49  2  0  0  0  0
 53 57  1  0  0  0  0
 54 61  1  6  0  0  0
 54 51  1  0  0  0  0
 55 58  1  6  0  0  0
 55 47  1  0  0  0  0
 55 53  1  0  0  0  0
 56 54  1  0  0  0  0
 58 52  1  0  0  0  0
 59 56  1  0  0  0  0
 60 51  1  0  0  0  0
 60 57  1  1  0  0  0
 61 62  1  6  0  0  0
 61 64  1  0  0  0  0
 63 62  1  0  0  0  0
 64 66  1  0  0  0  0
 65 64  1  0  0  0  0
 66 67  1  0  0  0  0
M  END
>  <MODEL>
2

>  <REMARK>
 VINA RESULT:      -2.8      2.482      4.492
  Name = 
  14 active torsions:
  status: ('A' for Active; 'I' for Inactive)
    1  A    between atoms: C_3  and  C_30
    2  A    between atoms: C_9  and  C_38
    3  A    between atoms: N_13  and  C_49
    4  A    between atoms: O_17  and  C_36
    5  A    between atoms: C_20  and  C_57
    6  A    between atoms: N_23  and  C_37
    7  A    between atoms: C_25  and  C_30
    8  A    between atoms: O_27  and  C_38
    9  A    between atoms: O_27  and  C_39
   10  A    between atoms: C_28  and  N_41
   11  A    between atoms: C_30  and  N_41
   12  A    between atoms: C_36  and  C_49
   13  A    between atoms: C_36  and  C_67
   14  A    between atoms: C_39  and  C_57
                            x       y       z     vdW  Elec       q    Type
                         _______ _______ _______ _____ _____    ______ ____

>  <TORSDO>
F 14

$$$$
=
 OpenBabel11062416243D

 67 75  0  0  1  0  0  0  0  0999 V2000
  183.9050  178.1800  143.1020 C   0  0  0  0  0  2  0  0  0  0  0  0
  185.7850  178.5910  137.8480 C   0  0  0  0  0  2  0  0  0  0  0  0
  183.9840  180.8690  144.4190 F   0  0  0  0  0  0  0  0  0  0  0  0
  188.4000  175.5650  142.5780 N   0  0  0  0  0  2  0  0  0  0  0  0
  186.9620  177.6340  137.9950 C   0  0  2  0  0  0  0  0  0  0  0  0
  189.2620  177.7550  140.7080 N   0  0  0  0  0  0  0  0  0  0  0  0
  190.5410  177.3480  141.0470 C   0  0  0  0  0  0  0  0  0  0  0  0
  189.3390  178.5090  137.0500 C   0  0  0  0  0  2  0  0  0  0  0  0
  185.2010  179.5410  145.8140 N   0  0  0  0  0  0  0  0  0  0  0  0
  182.6020  180.0650  141.6270 C   0  0  0  0  0  1  0  0  0  0  0  0
  184.6980  179.8040  144.6580 C   0  0  0  0  0  0  0  0  0  0  0  0
  187.0960  175.8900  143.1110 N   0  0  0  0  0  2  0  0  0  0  0  0
  184.0130  178.9100  139.5190 C   0  0  1  0  0  3  0  0  0  0  0  0
  183.4950  177.9490  140.6200 C   0  0  2  0  0  3  0  0  0  0  0  0
  189.8760  178.1720  138.4010 C   0  0  0  0  0  0  0  0  0  0  0  0
  186.0390  178.3850  145.7580 C   0  0  0  0  0  2  0  0  0  0  0  0
  191.2260  177.9810  138.6780 C   0  0  0  0  0  3  0  0  0  0  0  0
  188.6210  177.7940  143.6890 C   0  0  1  0  0  3  0  0  0  0  0  0
  182.5420  177.0200  140.1880 F   0  0  0  0  0  0  0  0  0  0  0  0
  182.9580  178.5490  141.8710 C   0  0  1  0  0  3  0  0  0  0  0  0
  190.6150  176.6990  142.2660 C   0  0  0  0  0  3  0  0  0  0  0  0
  189.3840  176.4960  143.2230 C   0  0  2  0  0  3  0  0  0  0  0  0
  185.1580  178.9550  143.5670 C   0  0  1  0  0  3  0  0  0  0  0  0
  185.9830  177.9510  144.3390 C   0  0  1  0  0  3  0  0  0  0  0  0
  184.7470  178.0340  138.6680 N   0  0  0  0  0  2  0  0  0  0  0  0
  187.5410  178.0000  139.2910 O   0  0  0  0  0  0  0  0  0  0  0  0
  187.9470  177.8540  136.7900 C   0  0  0  0  0  2  0  0  0  0  0  0
  191.6790  177.5540  140.0990 C   0  0  0  0  0  2  0  0  0  0  0  0
  182.9980  179.6030  138.7240 C   0  0  0  0  0  1  0  0  0  0  0  0
  188.9140  178.0260  139.4650 C   0  0  0  0  0  0  0  0  0  0  0  0
  187.2000  177.2480  143.6450 C   0  0  2  0  0  3  0  0  0  0  0  0
  188.0020  176.4130  146.4890 O   0  0  0  0  0  0  0  0  0  0  0  0
  188.8780  178.0960  145.0850 N   0  0  0  0  0  2  0  0  0  0  0  0
  188.9360  177.2140  146.2140 C   0  0  0  0  0  0  0  0  0  0  0  0
  190.0540  177.3690  147.3100 C   0  0  1  0  0  3  0  0  0  0  0  0
  189.4800  177.5650  148.5790 O   0  0  0  0  0  0  0  0  0  0  0  0
  188.6670  178.6970  148.5250 C   0  0  0  0  0  1  0  0  0  0  0  0
  191.0170  176.1480  147.2990 C   0  0  0  0  0  2  0  0  0  0  0  0
  193.5420  175.7710  149.5690 C   0  0  0  0  0  1  0  0  0  0  0  0
  192.4020  176.5390  147.4730 N   0  0  0  0  0  2  0  0  0  0  0  0
  192.4590  177.8530  149.3550 O   0  0  0  0  0  0  0  0  0  0  0  0
  192.8390  176.8040  148.7920 C   0  0  0  0  0  0  0  0  0  0  0  0
  186.5600  176.1220  138.0600 C   0  0  0  0  0  2  0  0  0  0  0  0
  185.3320  175.7550  137.5380 O   0  0  0  0  0  0  0  0  0  0  0  0
  185.4590  176.0510  136.1450 C   0  0  0  0  0  2  0  0  0  0  0  0
  185.8410  175.2770  134.7810 C   0  0  0  0  0  2  0  0  0  0  0  0
  189.0520  173.3120  135.4370 N   0  0  1  0  0  0  0  0  0  0  0  0
  192.5980  175.3700  135.1980 C   0  0  0  0  0  3  0  0  0  0  0  0
  191.3110  175.8330  134.7760 N   0  0  0  0  0  0  0  0  0  0  0  0
  188.1400  171.5490  137.1390 C   0  0  0  0  0  2  0  0  0  0  0  0
  186.8370  174.0370  134.6210 C   0  0  2  0  0  3  0  0  0  0  0  0
  192.7080  174.3150  135.9950 C   0  0  0  0  0  3  0  0  0  0  0  0
  190.2060  175.3090  135.2630 C   0  0  0  0  0  0  0  0  0  0  0  0
  186.5010  172.6580  135.3790 C   0  0  2  0  0  3  0  0  0  0  0  0
  190.1140  174.1550  136.2010 C   0  0  2  0  0  3  0  0  0  0  0  0
  187.9640  172.3190  136.0180 C   0  0  0  0  0  0  0  0  0  0  0  0
  188.9660  175.5000  134.6530 N   0  0  0  0  0  2  0  0  0  0  0  0
  191.4930  173.4350  136.3830 C   0  0  0  0  0  2  0  0  0  0  0  0
  188.3710  170.7760  135.7740 C   0  0  0  0  0  2  0  0  0  0  0  0
  188.1770  174.4690  135.2120 C   0  0  2  0  0  3  0  0  0  0  0  0
  185.0830  171.8900  135.2550 C   0  0  2  0  0  3  0  0  0  0  0  0
  184.0730  172.3180  136.3190 C   0  0  0  0  0  2  0  0  0  0  0  0
  184.8480  172.5840  137.5890 C   0  0  0  0  0  1  0  0  0  0  0  0
  185.1360  170.4940  134.6050 N   0  0  0  0  0  0  0  0  0  0  0  0
  186.3470  169.7180  134.9180 C   0  0  0  0  0  1  0  0  0  0  0  0
  184.0090  169.6290  134.8820 C   0  0  0  0  0  2  0  0  0  0  0  0
  183.3910  169.7760  136.1920 O   0  0  0  0  0  1  0  0  0  0  0  0
  2  5  1  0  0  0  0
  2 25  1  0  0  0  0
  3 11  1  0  0  0  0
  4 12  1  0  0  0  0
  4 22  1  0  0  0  0
  5 43  1  1  0  0  0
  5 26  1  0  0  0  0
  6  7  1  0  0  0  0
  7 21  2  0  0  0  0
  8 15  1  0  0  0  0
 11  9  2  0  0  0  0
 13 29  1  6  0  0  0
 13 14  1  0  0  0  0
 14 19  1  6  0  0  0
 14 20  1  0  0  0  0
 15 17  2  0  0  0  0
 15 30  1  0  0  0  0
 16  9  1  0  0  0  0
 17 28  1  0  0  0  0
 18 33  1  1  0  0  0
 20 10  1  6  0  0  0
 20  1  1  0  0  0  0
 22 21  1  6  0  0  0
 22 18  1  0  0  0  0
 23  1  1  1  0  0  0
 23 24  1  0  0  0  0
 23 11  1  0  0  0  0
 24 16  1  1  0  0  0
 25 13  1  0  0  0  0
 26 30  1  0  0  0  0
 27  8  1  0  0  0  0
 27  5  1  0  0  0  0
 28  7  1  0  0  0  0
 30  6  2  0  0  0  0
 31 12  1  1  0  0  0
 31 18  1  0  0  0  0
 31 24  1  0  0  0  0
 33 34  1  0  0  0  0
 34 32  2  0  0  0  0
 34 35  1  0  0  0  0
 35 38  1  1  0  0  0
 35 36  1  0  0  0  0
 37 36  1  0  0  0  0
 38 40  1  0  0  0  0
 40 42  1  0  0  0  0
 42 41  2  0  0  0  0
 42 39  1  0  0  0  0
 44 43  1  0  0  0  0
 45 44  1  0  0  0  0
 46 45  1  0  0  0  0
 47 56  1  1  0  0  0
 47 55  1  0  0  0  0
 48 52  2  0  0  0  0
 49 48  1  0  0  0  0
 49 53  2  0  0  0  0
 51 46  1  1  0  0  0
 51 60  1  0  0  0  0
 51 54  1  0  0  0  0
 52 58  1  0  0  0  0
 53 55  1  0  0  0  0
 54 61  1  6  0  0  0
 54 56  1  0  0  0  0
 55 58  1  6  0  0  0
 56 50  1  0  0  0  0
 57 53  1  0  0  0  0
 59 56  1  0  0  0  0
 59 50  1  0  0  0  0
 60 57  1  6  0  0  0
 60 47  1  0  0  0  0
 61 62  1  1  0  0  0
 62 63  1  0  0  0  0
 64 66  1  0  0  0  0
 64 65  1  0  0  0  0
 64 61  1  0  0  0  0
 66 67  1  0  0  0  0
M  END
>  <MODEL>
3

>  <REMARK>
 VINA RESULT:      -2.1      4.261      9.453
  Name = 
  14 active torsions:
  status: ('A' for Active; 'I' for Inactive)
    1  A    between atoms: C_3  and  C_30
    2  A    between atoms: C_9  and  C_38
    3  A    between atoms: N_13  and  C_49
    4  A    between atoms: O_17  and  C_36
    5  A    between atoms: C_20  and  C_57
    6  A    between atoms: N_23  and  C_37
    7  A    between atoms: C_25  and  C_30
    8  A    between atoms: O_27  and  C_38
    9  A    between atoms: O_27  and  C_39
   10  A    between atoms: C_28  and  N_41
   11  A    between atoms: C_30  and  N_41
   12  A    between atoms: C_36  and  C_49
   13  A    between atoms: C_36  and  C_67
   14  A    between atoms: C_39  and  C_57
                            x       y       z     vdW  Elec       q    Type
                         _______ _______ _______ _____ _____    ______ ____

>  <TORSDO>
F 14

$$$$
=
 OpenBabel11062416243D

 67 75  0  0  1  0  0  0  0  0999 V2000
  184.3640  172.3600  137.1630 C   0  0  0  0  0  2  0  0  0  0  0  0
  189.0310  175.3280  136.3200 C   0  0  0  0  0  2  0  0  0  0  0  0
  182.8450  172.1080  134.5940 F   0  0  0  0  0  0  0  0  0  0  0  0
  184.1110  176.9020  139.7370 N   0  0  0  0  0  2  0  0  0  0  0  0
  188.7110  176.4600  137.2880 C   0  0  2  0  0  0  0  0  0  0  0  0
  185.5620  178.1150  137.4000 N   0  0  0  0  0  0  0  0  0  0  0  0
  184.9880  179.2950  137.8360 C   0  0  0  0  0  0  0  0  0  0  0  0
  189.0410  178.9720  136.3420 C   0  0  0  0  0  2  0  0  0  0  0  0
  181.3330  173.0150  136.0360 N   0  0  0  0  0  0  0  0  0  0  0  0
  185.9280  171.3780  135.1590 C   0  0  0  0  0  1  0  0  0  0  0  0
  182.5450  172.7700  135.6770 C   0  0  0  0  0  0  0  0  0  0  0  0
  183.8490  175.5080  139.4530 N   0  0  0  0  0  2  0  0  0  0  0  0
  187.7650  173.2310  136.1360 C   0  0  1  0  0  3  0  0  0  0  0  0
  186.8860  172.5020  137.1850 C   0  0  2  0  0  3  0  0  0  0  0  0
  187.6380  179.2070  136.7920 C   0  0  0  0  0  0  0  0  0  0  0  0
  181.3000  173.8630  137.1860 C   0  0  0  0  0  2  0  0  0  0  0  0
  187.0910  180.4680  137.0100 C   0  0  0  0  0  3  0  0  0  0  0  0
  182.7990  176.8410  137.6080 C   0  0  1  0  0  3  0  0  0  0  0  0
  187.5900  171.6800  138.0720 F   0  0  0  0  0  0  0  0  0  0  0  0
  185.7360  171.6970  136.6900 C   0  0  1  0  0  3  0  0  0  0  0  0
  183.8390  179.1140  138.5850 C   0  0  0  0  0  3  0  0  0  0  0  0
  183.1920  177.7080  138.8640 C   0  0  2  0  0  3  0  0  0  0  0  0
  183.5750  173.4690  136.4330 C   0  0  1  0  0  3  0  0  0  0  0  0
  182.7280  174.1240  137.5000 C   0  0  1  0  0  3  0  0  0  0  0  0
  188.5050  174.1460  136.9400 N   0  0  0  0  0  2  0  0  0  0  0  0
  187.2950  176.7380  137.0330 O   0  0  0  0  0  0  0  0  0  0  0  0
  189.6510  177.6800  136.9710 C   0  0  0  0  0  2  0  0  0  0  0  0
  185.6450  180.6090  137.5550 C   0  0  0  0  0  2  0  0  0  0  0  0
  188.7020  172.4010  135.3780 C   0  0  0  0  0  1  0  0  0  0  0  0
  186.8240  178.0400  137.0250 C   0  0  0  0  0  0  0  0  0  0  0  0
  183.1960  175.4720  138.1450 C   0  0  2  0  0  3  0  0  0  0  0  0
  180.2670  176.3060  139.4610 O   0  0  0  0  0  0  0  0  0  0  0  0
  181.3600  176.7840  137.4250 N   0  0  0  0  0  2  0  0  0  0  0  0
  180.3100  176.9620  138.3850 C   0  0  0  0  0  0  0  0  0  0  0  0
  179.0250  177.8000  138.0380 C   0  0  1  0  0  3  0  0  0  0  0  0
  178.9320  178.9300  138.8680 O   0  0  0  0  0  0  0  0  0  0  0  0
  180.0450  178.9540  139.7080 C   0  0  0  0  0  1  0  0  0  0  0  0
  179.0070  178.1910  136.5330 C   0  0  0  0  0  2  0  0  0  0  0  0
  180.6260  180.4990  134.6020 C   0  0  0  0  0  1  0  0  0  0  0  0
  179.0410  179.6270  136.3370 N   0  0  0  0  0  2  0  0  0  0  0  0
  181.1680  180.2930  136.8870 O   0  0  0  0  0  0  0  0  0  0  0  0
  180.2880  180.2060  136.0040 C   0  0  0  0  0  0  0  0  0  0  0  0
  188.8590  176.0780  138.7990 C   0  0  0  0  0  2  0  0  0  0  0  0
  188.8410  177.1020  139.7300 O   0  0  0  0  0  0  0  0  0  0  0  0
  189.4830  176.5270  140.8710 C   0  0  0  0  0  2  0  0  0  0  0  0
  189.1710  176.2990  142.4390 C   0  0  0  0  0  2  0  0  0  0  0  0
  186.9560  178.1510  144.9430 N   0  0  1  0  0  0  0  0  0  0  0  0
  183.1690  179.1600  143.7140 C   0  0  0  0  0  3  0  0  0  0  0  0
  184.2350  178.6780  142.8900 N   0  0  0  0  0  0  0  0  0  0  0  0
  187.8850  177.1440  147.1690 C   0  0  0  0  0  2  0  0  0  0  0  0
  188.8470  177.4190  143.5320 C   0  0  2  0  0  3  0  0  0  0  0  0
  183.2310  179.0420  145.0340 C   0  0  0  0  0  3  0  0  0  0  0  0
  185.2370  177.9960  143.4030 C   0  0  0  0  0  0  0  0  0  0  0  0
  189.4320  177.2540  145.0220 C   0  0  2  0  0  3  0  0  0  0  0  0
  185.4660  177.7120  144.8480 C   0  0  2  0  0  3  0  0  0  0  0  0
  188.0960  177.6020  145.8940 C   0  0  0  0  0  0  0  0  0  0  0  0
  186.4280  177.7940  142.7050 N   0  0  0  0  0  2  0  0  0  0  0  0
  184.4980  178.5330  145.7660 C   0  0  0  0  0  2  0  0  0  0  0  0
  188.4250  178.6330  147.0910 C   0  0  0  0  0  2  0  0  0  0  0  0
  187.3320  177.4210  143.7260 C   0  0  2  0  0  3  0  0  0  0  0  0
  190.9950  176.9970  145.3470 C   0  0  2  0  0  3  0  0  0  0  0  0
  191.9270  177.4870  144.2410 C   0  0  0  0  0  2  0  0  0  0  0  0
  191.6590  178.9630  144.0510 C   0  0  0  0  0  1  0  0  0  0  0  0
  191.2940  175.8130  146.2880 N   0  0  0  0  0  0  0  0  0  0  0  0
  192.3950  174.9420  145.8440 C   0  0  0  0  0  1  0  0  0  0  0  0
  191.5700  176.1590  147.6650 C   0  0  0  0  0  2  0  0  0  0  0  0
  191.4820  177.5730  148.0030 O   0  0  0  0  0  1  0  0  0  0  0  0
  2 25  1  0  0  0  0
  2  5  1  0  0  0  0
  3 11  1  0  0  0  0
  5 43  1  1  0  0  0
  6  7  1  0  0  0  0
  7 21  2  0  0  0  0
  8 15  1  0  0  0  0
  8 27  1  0  0  0  0
  9 16  1  0  0  0  0
 11  9  2  0  0  0  0
 11 23  1  0  0  0  0
 12  4  1  0  0  0  0
 13 29  1  1  0  0  0
 13 25  1  0  0  0  0
 13 14  1  0  0  0  0
 14 19  1  6  0  0  0
 15 17  2  0  0  0  0
 15 30  1  0  0  0  0
 17 28  1  0  0  0  0
 18 33  1  1  0  0  0
 18 31  1  0  0  0  0
 18 22  1  0  0  0  0
 20 10  1  6  0  0  0
 20  1  1  0  0  0  0
 20 14  1  0  0  0  0
 22 21  1  6  0  0  0
 22  4  1  0  0  0  0
 23  1  1  1  0  0  0
 23 24  1  0  0  0  0
 24 16  1  6  0  0  0
 24 31  1  0  0  0  0
 26  5  1  0  0  0  0
 27  5  1  0  0  0  0
 28  7  1  0  0  0  0
 30 26  1  0  0  0  0
 30  6  2  0  0  0  0
 31 12  1  1  0  0  0
 33 34  1  0  0  0  0
 34 32  2  0  0  0  0
 35 38  1  6  0  0  0
 35 34  1  0  0  0  0
 35 36  1  0  0  0  0
 36 37  1  0  0  0  0
 39 42  1  0  0  0  0
 40 38  1  0  0  0  0
 42 40  1  0  0  0  0
 42 41  2  0  0  0  0
 43 44  1  0  0  0  0
 44 45  1  0  0  0  0
 45 46  1  0  0  0  0
 47 56  1  1  0  0  0
 48 52  2  0  0  0  0
 49 53  2  0  0  0  0
 49 48  1  0  0  0  0
 51 46  1  6  0  0  0
 51 60  1  0  0  0  0
 51 54  1  0  0  0  0
 52 58  1  0  0  0  0
 53 55  1  0  0  0  0
 54 61  1  1  0  0  0
 54 56  1  0  0  0  0
 55 47  1  0  0  0  0
 55 58  1  1  0  0  0
 56 59  1  0  0  0  0
 56 50  1  0  0  0  0
 57 53  1  0  0  0  0
 59 50  1  0  0  0  0
 60 57  1  6  0  0  0
 60 47  1  0  0  0  0
 61 62  1  6  0  0  0
 61 64  1  0  0  0  0
 63 62  1  0  0  0  0
 64 66  1  0  0  0  0
 65 64  1  0  0  0  0
 66 67  1  0  0  0  0
M  END
>  <MODEL>
4

>  <REMARK>
 VINA RESULT:      -1.9      3.410      9.906
  Name = 
  14 active torsions:
  status: ('A' for Active; 'I' for Inactive)
    1  A    between atoms: C_3  and  C_30
    2  A    between atoms: C_9  and  C_38
    3  A    between atoms: N_13  and  C_49
    4  A    between atoms: O_17  and  C_36
    5  A    between atoms: C_20  and  C_57
    6  A    between atoms: N_23  and  C_37
    7  A    between atoms: C_25  and  C_30
    8  A    between atoms: O_27  and  C_38
    9  A    between atoms: O_27  and  C_39
   10  A    between atoms: C_28  and  N_41
   11  A    between atoms: C_30  and  N_41
   12  A    between atoms: C_36  and  C_49
   13  A    between atoms: C_36  and  C_67
   14  A    between atoms: C_39  and  C_57
                            x       y       z     vdW  Elec       q    Type
                         _______ _______ _______ _____ _____    ______ ____

>  <TORSDO>
F 14

$$$$
=
 OpenBabel11062416243D

 67 75  0  0  1  0  0  0  0  0999 V2000
  183.6450  178.0480  142.9070 C   0  0  0  0  0  2  0  0  0  0  0  0
  185.8530  178.2140  137.7680 C   0  0  0  0  0  2  0  0  0  0  0  0
  183.5120  180.8160  144.0430 F   0  0  0  0  0  0  0  0  0  0  0  0
  188.2780  175.6300  142.8490 N   0  0  0  0  0  2  0  0  0  0  0  0
  187.0590  177.3280  138.0540 C   0  0  2  0  0  0  0  0  0  0  0  0
  189.1640  177.7370  140.8950 N   0  0  0  0  0  0  0  0  0  0  0  0
  190.4340  177.4170  141.3420 C   0  0  0  0  0  0  0  0  0  0  0  0
  189.4530  178.2590  137.2070 C   0  0  0  0  0  2  0  0  0  0  0  0
  184.6920  179.6420  145.5990 N   0  0  0  0  0  0  0  0  0  0  0  0
  182.3600  179.7670  141.2280 C   0  0  0  0  0  1  0  0  0  0  0  0
  184.2560  179.8050  144.3980 C   0  0  0  0  0  0  0  0  0  0  0  0
  186.9280  175.9250  143.2740 N   0  0  0  0  0  2  0  0  0  0  0  0
  183.9600  178.5520  139.2980 C   0  0  1  0  0  3  0  0  0  0  0  0
  183.4130  177.6380  140.4250 C   0  0  2  0  0  3  0  0  0  0  0  0
  189.9120  178.0360  138.6100 C   0  0  0  0  0  0  0  0  0  0  0  0
  185.5840  178.5270  145.6750 C   0  0  0  0  0  2  0  0  0  0  0  0
  191.2480  177.9300  138.9840 C   0  0  0  0  0  3  0  0  0  0  0  0
  188.3220  177.9350  143.8200 C   0  0  1  0  0  3  0  0  0  0  0  0
  182.5340  176.6370  139.9960 F   0  0  0  0  0  0  0  0  0  0  0  0
  182.7670  178.2900  141.5960 C   0  0  1  0  0  3  0  0  0  0  0  0
  190.4560  176.8520  142.6040 C   0  0  0  0  0  3  0  0  0  0  0  0
  189.1730  176.6490  143.4920 C   0  0  2  0  0  3  0  0  0  0  0  0
  184.8270  178.9120  143.3990 C   0  0  1  0  0  3  0  0  0  0  0  0
  185.6430  178.0020  144.2870 C   0  0  1  0  0  3  0  0  0  0  0  0
  184.7880  177.6600  138.5560 N   0  0  0  0  0  2  0  0  0  0  0  0
  187.5320  177.8040  139.3580 O   0  0  0  0  0  0  0  0  0  0  0  0
  188.1120  177.5190  136.9030 C   0  0  0  0  0  2  0  0  0  0  0  0
  191.6230  177.6170  140.4570 C   0  0  0  0  0  2  0  0  0  0  0  0
  182.9700  179.1400  138.3950 C   0  0  0  0  0  1  0  0  0  0  0  0
  188.8880  177.9100  139.6170 C   0  0  0  0  0  0  0  0  0  0  0  0
  186.9340  177.3170  143.7210 C   0  0  2  0  0  3  0  0  0  0  0  0
  188.5280  176.4570  146.6310 O   0  0  0  0  0  0  0  0  0  0  0  0
  188.4720  178.3380  145.2060 N   0  0  0  0  0  2  0  0  0  0  0  0
  188.9770  177.5950  146.3230 C   0  0  0  0  0  0  0  0  0  0  0  0
  189.9430  178.2590  147.3710 C   0  0  1  0  0  3  0  0  0  0  0  0
  189.2120  178.9650  148.3420 O   0  0  0  0  0  0  0  0  0  0  0  0
  188.1000  178.2020  148.6980 C   0  0  0  0  0  1  0  0  0  0  0  0
  190.8770  177.1960  148.0170 C   0  0  0  0  0  2  0  0  0  0  0  0
  191.7260  174.9080  145.6260 C   0  0  0  0  0  1  0  0  0  0  0  0
  192.0040  176.8660  147.1670 N   0  0  0  0  0  2  0  0  0  0  0  0
  192.6670  174.7550  147.7820 O   0  0  0  0  0  0  0  0  0  0  0  0
  192.2200  175.4970  146.8810 C   0  0  0  0  0  0  0  0  0  0  0  0
  186.7230  175.8060  138.1950 C   0  0  0  0  0  2  0  0  0  0  0  0
  185.4100  175.4110  138.0010 O   0  0  0  0  0  0  0  0  0  0  0  0
  185.0930  175.9330  136.7090 C   0  0  0  0  0  2  0  0  0  0  0  0
  185.1150  175.4370  135.1720 C   0  0  0  0  0  2  0  0  0  0  0  0
  186.0460  171.7340  135.0110 N   0  0  1  0  0  0  0  0  0  0  0  0
  190.0400  170.8110  134.7540 C   0  0  0  0  0  3  0  0  0  0  0  0
  189.4500  172.1060  134.5980 N   0  0  0  0  0  0  0  0  0  0  0  0
  184.0860  170.7330  136.4200 C   0  0  0  0  0  2  0  0  0  0  0  0
  184.9880  173.9350  134.6410 C   0  0  2  0  0  3  0  0  0  0  0  0
  189.3510  169.8170  135.3000 C   0  0  0  0  0  3  0  0  0  0  0  0
  188.2660  172.3790  135.1020 C   0  0  0  0  0  0  0  0  0  0  0  0
  183.7550  173.0280  135.1400 C   0  0  2  0  0  3  0  0  0  0  0  0
  187.3560  171.4220  135.7920 C   0  0  2  0  0  3  0  0  0  0  0  0
  184.5460  171.6490  135.5090 C   0  0  0  0  0  0  0  0  0  0  0  0
  187.5330  173.4980  134.7040 N   0  0  0  0  0  2  0  0  0  0  0  0
  187.8470  169.9410  135.6500 C   0  0  0  0  0  2  0  0  0  0  0  0
  183.7890  170.3560  134.9090 C   0  0  0  0  0  2  0  0  0  0  0  0
  186.2230  173.1870  135.1360 C   0  0  2  0  0  3  0  0  0  0  0  0
  182.2080  173.4870  135.0410 C   0  0  2  0  0  3  0  0  0  0  0  0
  182.0400  174.9530  134.6480 C   0  0  0  0  0  2  0  0  0  0  0  0
  182.0730  175.7640  135.9250 C   0  0  0  0  0  1  0  0  0  0  0  0
  181.2200  172.6940  135.9190 N   0  0  0  0  0  0  0  0  0  0  0  0
  181.3580  172.9340  137.3640 C   0  0  0  0  0  1  0  0  0  0  0  0
  179.8190  172.8690  135.6020 C   0  0  0  0  0  2  0  0  0  0  0  0
  179.1640  171.7490  134.9400 O   0  0  0  0  0  1  0  0  0  0  0  0
  2  5  1  0  0  0  0
  2 25  1  0  0  0  0
  3 11  1  0  0  0  0
  4 12  1  0  0  0  0
  4 22  1  0  0  0  0
  5 43  1  1  0  0  0
  5 26  1  0  0  0  0
  6  7  1  0  0  0  0
  7 21  2  0  0  0  0
  8 15  1  0  0  0  0
  9 16  1  0  0  0  0
 11  9  2  0  0  0  0
 13 29  1  6  0  0  0
 13 14  1  0  0  0  0
 14 19  1  6  0  0  0
 14 20  1  0  0  0  0
 15 17  2  0  0  0  0
 15 30  1  0  0  0  0
 17 28  1  0  0  0  0
 18 33  1  1  0  0  0
 20 10  1  6  0  0  0
 20  1  1  0  0  0  0
 22 21  1  6  0  0  0
 22 18  1  0  0  0  0
 23  1  1  1  0  0  0
 23 24  1  0  0  0  0
 23 11  1  0  0  0  0
 24 16  1  1  0  0  0
 25 13  1  0  0  0  0
 26 30  1  0  0  0  0
 27  8  1  0  0  0  0
 27  5  1  0  0  0  0
 28  7  1  0  0  0  0
 30  6  2  0  0  0  0
 31 12  1  1  0  0  0
 31 18  1  0  0  0  0
 31 24  1  0  0  0  0
 33 34  1  0  0  0  0
 34 32  2  0  0  0  0
 34 35  1  0  0  0  0
 35 38  1  1  0  0  0
 35 36  1  0  0  0  0
 36 37  1  0  0  0  0
 39 42  1  0  0  0  0
 40 38  1  0  0  0  0
 42 40  1  0  0  0  0
 42 41  2  0  0  0  0
 44 43  1  0  0  0  0
 45 44  1  0  0  0  0
 46 45  1  0  0  0  0
 47 60  1  0  0  0  0
 47 56  1  1  0  0  0
 47 55  1  0  0  0  0
 48 52  2  0  0  0  0
 49 48  1  0  0  0  0
 49 53  2  0  0  0  0
 51 60  1  0  0  0  0
 51 54  1  0  0  0  0
 51 46  1  1  0  0  0
 52 58  1  0  0  0  0
 53 55  1  0  0  0  0
 54 61  1  6  0  0  0
 54 56  1  0  0  0  0
 55 58  1  6  0  0  0
 56 50  1  0  0  0  0
 57 53  1  0  0  0  0
 59 56  1  0  0  0  0
 59 50  1  0  0  0  0
 60 57  1  6  0  0  0
 61 62  1  1  0  0  0
 61 64  1  0  0  0  0
 62 63  1  0  0  0  0
 64 65  1  0  0  0  0
 66 64  1  0  0  0  0
 67 66  1  0  0  0  0
M  END
>  <MODEL>
5

>  <REMARK>
 VINA RESULT:      -1.8      4.083      8.570
  Name = 
  14 active torsions:
  status: ('A' for Active; 'I' for Inactive)
    1  A    between atoms: C_3  and  C_30
    2  A    between atoms: C_9  and  C_38
    3  A    between atoms: N_13  and  C_49
    4  A    between atoms: O_17  and  C_36
    5  A    between atoms: C_20  and  C_57
    6  A    between atoms: N_23  and  C_37
    7  A    between atoms: C_25  and  C_30
    8  A    between atoms: O_27  and  C_38
    9  A    between atoms: O_27  and  C_39
   10  A    between atoms: C_28  and  N_41
   11  A    between atoms: C_30  and  N_41
   12  A    between atoms: C_36  and  C_49
   13  A    between atoms: C_36  and  C_67
   14  A    between atoms: C_39  and  C_57
                            x       y       z     vdW  Elec       q    Type
                         _______ _______ _______ _____ _____    ______ ____

>  <TORSDO>
F 14

$$$$
=
 OpenBabel11062416243D

 67 75  0  0  1  0  0  0  0  0999 V2000
  180.9530  174.3730  137.8940 C   0  0  0  0  0  2  0  0  0  0  0  0
  185.6950  173.2720  135.1340 C   0  0  0  0  0  2  0  0  0  0  0  0
  178.9690  175.6340  136.0370 F   0  0  0  0  0  0  0  0  0  0  0  0
  184.8450  177.3430  139.7240 N   0  0  0  0  0  2  0  0  0  0  0  0
  186.6110  174.1460  135.9800 C   0  0  2  0  0  0  0  0  0  0  0  0
  185.8350  177.4980  136.8890 N   0  0  0  0  0  0  0  0  0  0  0  0
  186.4500  178.6620  137.3170 C   0  0  0  0  0  0  0  0  0  0  0  0
  188.2720  175.7960  134.6280 C   0  0  0  0  0  2  0  0  0  0  0  0
  179.1370  177.1230  137.7530 N   0  0  0  0  0  0  0  0  0  0  0  0
  180.5800  172.8750  135.6480 C   0  0  0  0  0  1  0  0  0  0  0  0
  179.6060  176.1510  137.0510 C   0  0  0  0  0  0  0  0  0  0  0  0
  183.6050  176.5980  139.7470 N   0  0  0  0  0  2  0  0  0  0  0  0
  183.3620  172.7300  135.6850 C   0  0  1  0  0  3  0  0  0  0  0  0
  182.6450  172.6920  137.0580 C   0  0  2  0  0  3  0  0  0  0  0  0
  187.7060  176.8840  135.4780 C   0  0  0  0  0  0  0  0  0  0  0  0
  180.0940  177.5720  138.7140 C   0  0  0  0  0  2  0  0  0  0  0  0
  188.3230  178.1150  135.6810 C   0  0  0  0  0  3  0  0  0  0  0  0
  183.2720  178.5280  138.1830 C   0  0  1  0  0  3  0  0  0  0  0  0
  182.8030  171.4980  137.7710 F   0  0  0  0  0  0  0  0  0  0  0  0
  181.1920  173.0120  137.0940 C   0  0  1  0  0  3  0  0  0  0  0  0
  185.8490  179.2370  138.4220 C   0  0  0  0  0  3  0  0  0  0  0  0
  184.5460  178.6750  139.0990 C   0  0  2  0  0  3  0  0  0  0  0  0
  180.9970  175.8040  137.3150 C   0  0  1  0  0  3  0  0  0  0  0  0
  181.2780  176.7030  138.4960 C   0  0  1  0  0  3  0  0  0  0  0  0
  184.7380  172.7310  136.0570 N   0  0  0  0  0  2  0  0  0  0  0  0
  185.8320  175.3730  136.1720 O   0  0  0  0  0  0  0  0  0  0  0  0
  187.9550  174.3780  135.1980 C   0  0  0  0  0  2  0  0  0  0  0  0
  187.6940  179.1530  136.6480 C   0  0  0  0  0  2  0  0  0  0  0  0
  183.1150  171.6020  134.7860 C   0  0  0  0  0  1  0  0  0  0  0  0
  186.4510  176.6110  136.1330 C   0  0  0  0  0  0  0  0  0  0  0  0
  182.7360  177.2200  138.7490 C   0  0  2  0  0  3  0  0  0  0  0  0
  183.2330  181.6770  138.6430 O   0  0  0  0  0  0  0  0  0  0  0  0
  182.2680  179.5280  138.4960 N   0  0  0  0  0  2  0  0  0  0  0  0
  182.2820  180.9420  138.2580 C   0  0  0  0  0  0  0  0  0  0  0  0
  181.0050  181.6900  137.7280 C   0  0  1  0  0  3  0  0  0  0  0  0
  180.2570  180.8550  136.8800 O   0  0  0  0  0  0  0  0  0  0  0  0
  179.0720  180.5130  137.5300 C   0  0  0  0  0  1  0  0  0  0  0  0
  180.1460  182.2270  138.9080 C   0  0  0  0  0  2  0  0  0  0  0  0
  179.1640  183.8100  136.0430 C   0  0  0  0  0  1  0  0  0  0  0  0
  179.2270  183.2680  138.4900 N   0  0  0  0  0  2  0  0  0  0  0  0
  180.5240  184.9410  137.6010 O   0  0  0  0  0  0  0  0  0  0  0  0
  179.6280  184.0900  137.4110 C   0  0  0  0  0  0  0  0  0  0  0  0
  186.9360  173.5610  137.3960 C   0  0  0  0  0  2  0  0  0  0  0  0
  188.2660  173.4640  137.7660 O   0  0  0  0  0  0  0  0  0  0  0  0
  188.7210  174.8190  137.7360 C   0  0  0  0  0  2  0  0  0  0  0  0
  189.5660  175.8250  138.6740 C   0  0  0  0  0  2  0  0  0  0  0  0
  193.3550  176.1090  138.2600 N   0  0  1  0  0  0  0  0  0  0  0  0
  194.9600  174.8030  134.7130 C   0  0  0  0  0  3  0  0  0  0  0  0
  193.6230  174.5890  135.1760 N   0  0  0  0  0  0  0  0  0  0  0  0
  193.7930  178.2280  139.7270 C   0  0  0  0  0  2  0  0  0  0  0  0
  191.0880  175.6650  139.1360 C   0  0  2  0  0  3  0  0  0  0  0  0
  195.7330  175.7200  135.2810 C   0  0  0  0  0  3  0  0  0  0  0  0
  193.0830  175.3740  136.0830 C   0  0  0  0  0  0  0  0  0  0  0  0
  191.6920  176.6920  140.2180 C   0  0  2  0  0  3  0  0  0  0  0  0
  193.7620  176.4870  136.8060 C   0  0  2  0  0  3  0  0  0  0  0  0
  193.1130  177.0580  139.5040 C   0  0  0  0  0  0  0  0  0  0  0  0
  191.9300  175.0140  136.7820 N   0  0  0  0  0  2  0  0  0  0  0  0
  195.3080  176.4910  136.5550 C   0  0  0  0  0  2  0  0  0  0  0  0
  194.3360  176.9900  140.5550 C   0  0  0  0  0  2  0  0  0  0  0  0
  191.9500  175.8850  137.8950 C   0  0  2  0  0  3  0  0  0  0  0  0
  191.0010  176.9930  141.6490 C   0  0  2  0  0  3  0  0  0  0  0  0
  189.8050  177.9390  141.5510 C   0  0  0  0  0  2  0  0  0  0  0  0
  188.5690  177.1310  141.8790 C   0  0  0  0  0  1  0  0  0  0  0  0
  191.9260  176.8720  142.8750 N   0  0  0  0  0  0  0  0  0  0  0  0
  192.0070  178.0870  143.7030 C   0  0  0  0  0  1  0  0  0  0  0  0
  191.6360  175.7770  143.7750 C   0  0  0  0  0  2  0  0  0  0  0  0
  191.6450  176.0930  145.1970 O   0  0  0  0  0  1  0  0  0  0  0  0
  2  5  1  0  0  0  0
  2 25  1  0  0  0  0
  3 11  1  0  0  0  0
  4 12  1  0  0  0  0
  5 26  1  0  0  0  0
  5 43  1  1  0  0  0
  6  7  1  0  0  0  0
  7 21  2  0  0  0  0
  8 27  1  0  0  0  0
  8 15  1  0  0  0  0
  9 16  1  0  0  0  0
 11 23  1  0  0  0  0
 11  9  2  0  0  0  0
 13 29  1  6  0  0  0
 13 25  1  0  0  0  0
 13 14  1  0  0  0  0
 14 20  1  0  0  0  0
 14 19  1  6  0  0  0
 15 17  2  0  0  0  0
 15 30  1  0  0  0  0
 17 28  1  0  0  0  0
 18 33  1  1  0  0  0
 18 31  1  0  0  0  0
 18 22  1  0  0  0  0
 20 10  1  6  0  0  0
 20  1  1  0  0  0  0
 22 21  1  6  0  0  0
 22  4  1  0  0  0  0
 23  1  1  1  0  0  0
 23 24  1  0  0  0  0
 24 16  1  6  0  0  0
 24 31  1  0  0  0  0
 27  5  1  0  0  0  0
 28  7  1  0  0  0  0
 30 26  1  0  0  0  0
 30  6  2  0  0  0  0
 31 12  1  1  0  0  0
 34 33  1  0  0  0  0
 34 32  2  0  0  0  0
 35 34  1  0  0  0  0
 35 38  1  1  0  0  0
 36 37  1  0  0  0  0
 36 35  1  0  0  0  0
 39 42  1  0  0  0  0
 40 38  1  0  0  0  0
 42 41  2  0  0  0  0
 42 40  1  0  0  0  0
 43 44  1  0  0  0  0
 45 44  1  0  0  0  0
 45 46  1  0  0  0  0
 47 56  1  1  0  0  0
 48 49  1  0  0  0  0
 48 52  2  0  0  0  0
 49 53  2  0  0  0  0
 50 59  1  0  0  0  0
 51 46  1  6  0  0  0
 51 54  1  0  0  0  0
 52 58  1  0  0  0  0
 53 57  1  0  0  0  0
 53 55  1  0  0  0  0
 54 61  1  1  0  0  0
 55 58  1  1  0  0  0
 55 47  1  0  0  0  0
 56 50  1  0  0  0  0
 56 54  1  0  0  0  0
 56 59  1  0  0  0  0
 60 57  1  6  0  0  0
 60 47  1  0  0  0  0
 60 51  1  0  0  0  0
 61 62  1  6  0  0  0
 61 64  1  0  0  0  0
 62 63  1  0  0  0  0
 64 65  1  0  0  0  0
 64 66  1  0  0  0  0
 66 67  1  0  0  0  0
M  END
>  <MODEL>
6

>  <REMARK>
 VINA RESULT:      -1.3      2.815     11.025
  Name = 
  14 active torsions:
  status: ('A' for Active; 'I' for Inactive)
    1  A    between atoms: C_3  and  C_30
    2  A    between atoms: C_9  and  C_38
    3  A    between atoms: N_13  and  C_49
    4  A    between atoms: O_17  and  C_36
    5  A    between atoms: C_20  and  C_57
    6  A    between atoms: N_23  and  C_37
    7  A    between atoms: C_25  and  C_30
    8  A    between atoms: O_27  and  C_38
    9  A    between atoms: O_27  and  C_39
   10  A    between atoms: C_28  and  N_41
   11  A    between atoms: C_30  and  N_41
   12  A    between atoms: C_36  and  C_49
   13  A    between atoms: C_36  and  C_67
   14  A    between atoms: C_39  and  C_57
                            x       y       z     vdW  Elec       q    Type
                         _______ _______ _______ _____ _____    ______ ____

>  <TORSDO>
F 14

$$$$
=
 OpenBabel11062416243D

 67 75  0  0  1  0  0  0  0  0999 V2000
  190.7680  177.7330  139.5470 C   0  0  0  0  0  2  0  0  0  0  0  0
  187.9140  174.2420  136.2340 C   0  0  0  0  0  2  0  0  0  0  0  0
  191.6070  176.3040  142.0420 F   0  0  0  0  0  0  0  0  0  0  0  0
  185.7900  179.2760  139.1500 N   0  0  0  0  0  2  0  0  0  0  0  0
  186.6120  175.0310  136.2070 C   0  0  2  0  0  0  0  0  0  0  0  0
  185.0630  176.3590  139.1240 N   0  0  0  0  0  0  0  0  0  0  0  0
  183.8340  176.8060  139.5750 C   0  0  0  0  0  0  0  0  0  0  0  0
  184.3520  173.6240  136.6810 C   0  0  0  0  0  2  0  0  0  0  0  0
  190.4570  178.1150  142.8090 N   0  0  0  0  0  0  0  0  0  0  0  0
  192.1090  175.4280  138.9860 C   0  0  0  0  0  1  0  0  0  0  0  0
  190.7380  177.2640  141.8840 C   0  0  0  0  0  0  0  0  0  0  0  0
  187.2190  179.4010  139.3330 N   0  0  0  0  0  2  0  0  0  0  0  0
  190.0380  175.0600  137.1590 C   0  0  1  0  0  3  0  0  0  0  0  0
  190.5510  176.5100  137.3470 C   0  0  2  0  0  3  0  0  0  0  0  0
  184.0660  174.6470  137.7300 C   0  0  0  0  0  0  0  0  0  0  0  0
  189.3840  178.9710  142.4100 C   0  0  0  0  0  2  0  0  0  0  0  0
  182.8040  174.8780  138.2690 C   0  0  0  0  0  3  0  0  0  0  0  0
  186.3420  178.0930  141.2830 C   0  0  1  0  0  3  0  0  0  0  0  0
  191.1440  177.0750  136.2110 F   0  0  0  0  0  0  0  0  0  0  0  0
  191.4770  176.7800  138.4800 C   0  0  1  0  0  3  0  0  0  0  0  0
  183.8840  178.0350  140.2080 C   0  0  0  0  0  3  0  0  0  0  0  0
  185.2160  178.8310  140.4640 C   0  0  2  0  0  3  0  0  0  0  0  0
  189.8630  177.2950  140.7190 C   0  0  1  0  0  3  0  0  0  0  0  0
  189.0210  178.5060  141.0480 C   0  0  1  0  0  3  0  0  0  0  0  0
  188.9520  175.2340  136.2530 N   0  0  0  0  0  2  0  0  0  0  0  0
  186.4360  175.4480  137.6020 O   0  0  0  0  0  0  0  0  0  0  0  0
  185.4610  174.0940  135.6890 C   0  0  0  0  0  2  0  0  0  0  0  0
  182.5920  176.0200  139.2990 C   0  0  0  0  0  2  0  0  0  0  0  0
  190.9830  174.1000  136.5860 C   0  0  0  0  0  1  0  0  0  0  0  0
  185.1800  175.4410  138.1840 C   0  0  0  0  0  0  0  0  0  0  0  0
  187.5530  178.6000  140.5090 C   0  0  2  0  0  3  0  0  0  0  0  0
  184.3640  179.0650  143.5780 O   0  0  0  0  0  0  0  0  0  0  0  0
  186.4790  178.6390  142.6200 N   0  0  0  0  0  2  0  0  0  0  0  0
  185.5430  178.6360  143.7070 C   0  0  0  0  0  0  0  0  0  0  0  0
  186.0070  178.3310  145.1780 C   0  0  1  0  0  3  0  0  0  0  0  0
  184.9520  177.7810  145.9270 O   0  0  0  0  0  0  0  0  0  0  0  0
  184.5290  178.7290  146.8580 C   0  0  0  0  0  1  0  0  0  0  0  0
  187.2580  177.4080  145.1850 C   0  0  0  0  0  2  0  0  0  0  0  0
  190.4590  176.6350  146.0990 C   0  0  0  0  0  1  0  0  0  0  0  0
  188.2810  177.8750  146.1010 N   0  0  0  0  0  2  0  0  0  0  0  0
  188.6730  176.1420  147.5550 O   0  0  0  0  0  0  0  0  0  0  0  0
  189.1310  176.9010  146.6740 C   0  0  0  0  0  0  0  0  0  0  0  0
  186.6580  176.3240  135.3250 C   0  0  0  0  0  2  0  0  0  0  0  0
  186.0390  177.4620  135.8120 O   0  0  0  0  0  0  0  0  0  0  0  0
  184.6470  177.1840  135.6440 C   0  0  0  0  0  2  0  0  0  0  0  0
  183.4190  177.7000  134.7300 C   0  0  0  0  0  2  0  0  0  0  0  0
  180.2510  176.1210  136.1700 N   0  0  1  0  0  0  0  0  0  0  0  0
  179.5130  172.1920  135.2250 C   0  0  0  0  0  3  0  0  0  0  0  0
  180.4950  173.0450  134.6280 N   0  0  0  0  0  0  0  0  0  0  0  0
  180.0720  177.4670  138.4030 C   0  0  0  0  0  2  0  0  0  0  0  0
  181.8620  177.6480  135.0870 C   0  0  2  0  0  3  0  0  0  0  0  0
  178.9350  172.5270  136.3720 C   0  0  0  0  0  3  0  0  0  0  0  0
  180.9430  174.1110  135.2560 C   0  0  0  0  0  0  0  0  0  0  0  0
  181.3080  178.5290  136.3150 C   0  0  2  0  0  3  0  0  0  0  0  0
  180.4630  174.6310  136.5680 C   0  0  2  0  0  3  0  0  0  0  0  0
  180.3780  177.4190  137.0670 C   0  0  0  0  0  0  0  0  0  0  0  0
  181.6410  175.1220  134.5940 N   0  0  0  0  0  2  0  0  0  0  0  0
  179.1600  173.9040  137.0450 C   0  0  0  0  0  2  0  0  0  0  0  0
  178.9320  178.0240  137.4520 C   0  0  0  0  0  2  0  0  0  0  0  0
  181.5500  176.2090  135.4920 C   0  0  2  0  0  3  0  0  0  0  0  0
  181.5730  180.1170  136.4690 C   0  0  2  0  0  3  0  0  0  0  0  0
  182.1490  180.5010  137.8310 C   0  0  0  0  0  2  0  0  0  0  0  0
  181.1310  181.3880  138.5130 C   0  0  0  0  0  1  0  0  0  0  0  0
  180.6810  181.0280  135.6040 N   0  0  0  0  0  0  0  0  0  0  0  0
  179.4250  180.4060  135.1550 C   0  0  0  0  0  1  0  0  0  0  0  0
  180.3240  182.3000  136.1940 C   0  0  0  0  0  2  0  0  0  0  0  0
  179.6850  183.2630  135.3080 O   0  0  0  0  0  1  0  0  0  0  0  0
  2 25  1  0  0  0  0
  4 12  1  0  0  0  0
  4 22  1  0  0  0  0
  5 43  1  6  0  0  0
  5  2  1  0  0  0  0
  5 26  1  0  0  0  0
  6  7  1  0  0  0  0
  7 21  2  0  0  0  0
  8 15  1  0  0  0  0
 11  3  1  0  0  0  0
 11  9  2  0  0  0  0
 13 29  1  6  0  0  0
 13 14  1  0  0  0  0
 14 19  1  6  0  0  0
 14 20  1  0  0  0  0
 15 30  1  0  0  0  0
 15 17  2  0  0  0  0
 16  9  1  0  0  0  0
 17 28  1  0  0  0  0
 18 33  1  1  0  0  0
 20 10  1  1  0  0  0
 20  1  1  0  0  0  0
 22 21  1  6  0  0  0
 22 18  1  0  0  0  0
 23  1  1  6  0  0  0
 23 24  1  0  0  0  0
 23 11  1  0  0  0  0
 24 16  1  1  0  0  0
 25 13  1  0  0  0  0
 26 30  1  0  0  0  0
 27  5  1  0  0  0  0
 27  8  1  0  0  0  0
 28  7  1  0  0  0  0
 30  6  2  0  0  0  0
 31 12  1  1  0  0  0
 31 24  1  0  0  0  0
 31 18  1  0  0  0  0
 32 34  2  0  0  0  0
 33 34  1  0  0  0  0
 34 35  1  0  0  0  0
 35 38  1  6  0  0  0
 35 36  1  0  0  0  0
 36 37  1  0  0  0  0
 38 40  1  0  0  0  0
 39 42  1  0  0  0  0
 40 42  1  0  0  0  0
 42 41  2  0  0  0  0
 43 44  1  0  0  0  0
 45 44  1  0  0  0  0
 46 45  1  0  0  0  0
 47 55  1  0  0  0  0
 47 56  1  1  0  0  0
 48 52  2  0  0  0  0
 49 48  1  0  0  0  0
 49 53  2  0  0  0  0
 51 46  1  1  0  0  0
 51 60  1  0  0  0  0
 51 54  1  0  0  0  0
 52 58  1  0  0  0  0
 53 55  1  0  0  0  0
 54 61  1  6  0  0  0
 54 56  1  0  0  0  0
 55 58  1  6  0  0  0
 56 59  1  0  0  0  0
 56 50  1  0  0  0  0
 57 53  1  0  0  0  0
 59 50  1  0  0  0  0
 60 57  1  6  0  0  0
 60 47  1  0  0  0  0
 61 62  1  1  0  0  0
 62 63  1  0  0  0  0
 64 66  1  0  0  0  0
 64 61  1  0  0  0  0
 65 64  1  0  0  0  0
 67 66  1  0  0  0  0
M  END
>  <MODEL>
7

>  <REMARK>
 VINA RESULT:      -1.0      3.379      7.265
  Name = 
  14 active torsions:
  status: ('A' for Active; 'I' for Inactive)
    1  A    between atoms: C_3  and  C_30
    2  A    between atoms: C_9  and  C_38
    3  A    between atoms: N_13  and  C_49
    4  A    between atoms: O_17  and  C_36
    5  A    between atoms: C_20  and  C_57
    6  A    between atoms: N_23  and  C_37
    7  A    between atoms: C_25  and  C_30
    8  A    between atoms: O_27  and  C_38
    9  A    between atoms: O_27  and  C_39
   10  A    between atoms: C_28  and  N_41
   11  A    between atoms: C_30  and  N_41
   12  A    between atoms: C_36  and  C_49
   13  A    between atoms: C_36  and  C_67
   14  A    between atoms: C_39  and  C_57
                            x       y       z     vdW  Elec       q    Type
                         _______ _______ _______ _____ _____    ______ ____

>  <TORSDO>
F 14

$$$$
=
 OpenBabel11062416243D

 67 75  0  0  1  0  0  0  0  0999 V2000
  190.0490  177.5050  139.5140 C   0  0  0  0  0  2  0  0  0  0  0  0
  186.4660  174.4780  136.4630 C   0  0  0  0  0  2  0  0  0  0  0  0
  191.0970  175.8520  141.7820 F   0  0  0  0  0  0  0  0  0  0  0  0
  185.2200  179.4620  139.9220 N   0  0  0  0  0  2  0  0  0  0  0  0
  185.2480  175.3680  136.6670 C   0  0  2  0  0  0  0  0  0  0  0  0
  184.2420  176.6200  139.8430 N   0  0  0  0  0  0  0  0  0  0  0  0
  183.1310  177.1330  140.4900 C   0  0  0  0  0  0  0  0  0  0  0  0
  182.9600  174.1170  137.3840 C   0  0  0  0  0  2  0  0  0  0  0  0
  190.2290  177.6940  142.8030 N   0  0  0  0  0  0  0  0  0  0  0  0
  191.0910  175.1430  138.6430 C   0  0  0  0  0  1  0  0  0  0  0  0
  190.3020  176.8870  141.8030 C   0  0  0  0  0  0  0  0  0  0  0  0
  186.6650  179.4610  139.9040 N   0  0  0  0  0  2  0  0  0  0  0  0
  188.7620  175.0610  137.1160 C   0  0  1  0  0  3  0  0  0  0  0  0
  189.4220  176.4510  137.3050 C   0  0  2  0  0  3  0  0  0  0  0  0
  182.9140  175.0880  138.5170 C   0  0  0  0  0  0  0  0  0  0  0  0
  189.1900  178.6580  142.6100 C   0  0  0  0  0  2  0  0  0  0  0  0
  181.7640  175.3830  139.2430 C   0  0  0  0  0  3  0  0  0  0  0  0
  185.9560  178.1000  141.8860 C   0  0  1  0  0  3  0  0  0  0  0  0
  189.8990  177.0410  136.1290 F   0  0  0  0  0  0  0  0  0  0  0  0
  190.5160  176.5710  138.3070 C   0  0  1  0  0  3  0  0  0  0  0  0
  183.3770  178.3090  141.1740 C   0  0  0  0  0  3  0  0  0  0  0  0
  184.7970  178.9780  141.2780 C   0  0  2  0  0  3  0  0  0  0  0  0
  189.2810  177.0640  140.7790 C   0  0  1  0  0  3  0  0  0  0  0  0
  188.6020  178.3130  141.2900 C   0  0  1  0  0  3  0  0  0  0  0  0
  187.5800  175.3800  136.3860 N   0  0  0  0  0  2  0  0  0  0  0  0
  185.3040  175.7050  138.0930 O   0  0  0  0  0  0  0  0  0  0  0  0
  183.9580  174.5610  136.2690 C   0  0  0  0  0  2  0  0  0  0  0  0
  181.7990  176.4680  140.3530 C   0  0  0  0  0  2  0  0  0  0  0  0
  189.5300  174.0690  136.3620 C   0  0  0  0  0  1  0  0  0  0  0  0
  184.1460  175.7600  138.8480 C   0  0  0  0  0  0  0  0  0  0  0  0
  187.0870  178.5590  140.9750 C   0  0  2  0  0  3  0  0  0  0  0  0
  184.8370  177.6840  144.8360 O   0  0  0  0  0  0  0  0  0  0  0  0
  186.3240  178.5450  143.2180 N   0  0  0  0  0  2  0  0  0  0  0  0
  186.0180  177.9610  144.4910 C   0  0  0  0  0  0  0  0  0  0  0  0
  187.1060  177.8650  145.6230 C   0  0  1  0  0  3  0  0  0  0  0  0
  186.5390  177.3830  146.8160 O   0  0  0  0  0  0  0  0  0  0  0  0
  186.5190  178.4230  147.7460 C   0  0  0  0  0  1  0  0  0  0  0  0
  188.3070  176.9890  145.1650 C   0  0  0  0  0  2  0  0  0  0  0  0
  191.2880  175.9620  146.4840 C   0  0  0  0  0  1  0  0  0  0  0  0
  189.5820  177.5530  145.5650 N   0  0  0  0  0  2  0  0  0  0  0  0
  189.7670  177.1680  147.8220 O   0  0  0  0  0  0  0  0  0  0  0  0
  190.2290  176.9650  146.6780 C   0  0  0  0  0  0  0  0  0  0  0  0
  185.2840  176.7080  135.8580 C   0  0  0  0  0  2  0  0  0  0  0  0
  184.1360  177.4810  135.8330 O   0  0  0  0  0  0  0  0  0  0  0  0
  184.3360  178.4130  136.8990 C   0  0  0  0  0  2  0  0  0  0  0  0
  183.4410  179.2390  137.9580 C   0  0  0  0  0  2  0  0  0  0  0  0
  180.8810  181.8630  136.8810 N   0  0  1  0  0  0  0  0  0  0  0  0
  181.5190  185.7280  138.1140 C   0  0  0  0  0  3  0  0  0  0  0  0
  182.2030  184.5600  138.5760 N   0  0  0  0  0  0  0  0  0  0  0  0
  180.1430  180.8340  134.5940 C   0  0  0  0  0  2  0  0  0  0  0  0
  181.9680  179.8160  137.7340 C   0  0  2  0  0  3  0  0  0  0  0  0
  180.7970  185.6920  137.0010 C   0  0  0  0  0  3  0  0  0  0  0  0
  182.2420  183.4620  137.8510 C   0  0  0  0  0  0  0  0  0  0  0  0
  181.0860  179.2640  136.5060 C   0  0  2  0  0  3  0  0  0  0  0  0
  181.5430  183.2340  136.5550 C   0  0  2  0  0  3  0  0  0  0  0  0
  180.5260  180.6720  135.9010 C   0  0  0  0  0  0  0  0  0  0  0  0
  182.6100  182.2300  138.3930 N   0  0  0  0  0  2  0  0  0  0  0  0
  180.5220  184.3760  136.2310 C   0  0  0  0  0  2  0  0  0  0  0  0
  178.9420  180.5960  135.6010 C   0  0  0  0  0  2  0  0  0  0  0  0
  182.1180  181.3070  137.4420 C   0  0  2  0  0  3  0  0  0  0  0  0
  180.8110  177.6930  136.2370 C   0  0  2  0  0  3  0  0  0  0  0  0
  180.9110  177.3100  134.7620 C   0  0  0  0  0  2  0  0  0  0  0  0
  181.3460  175.8630  134.7050 C   0  0  0  0  0  1  0  0  0  0  0  0
  179.9080  176.9890  137.2680 N   0  0  0  0  0  0  0  0  0  0  0  0
  179.1620  177.9000  138.1520 C   0  0  0  0  0  1  0  0  0  0  0  0
  178.9420  176.0580  136.7260 C   0  0  0  0  0  2  0  0  0  0  0  0
  178.9810  174.7050  137.2630 O   0  0  0  0  0  1  0  0  0  0  0  0
  2  5  1  0  0  0  0
  3 11  1  0  0  0  0
  4 22  1  0  0  0  0
  5 43  1  6  0  0  0
  5 26  1  0  0  0  0
  6  7  1  0  0  0  0
  7 21  2  0  0  0  0
  8 15  1  0  0  0  0
 11  9  2  0  0  0  0
 12  4  1  0  0  0  0
 13 29  1  6  0  0  0
 13 14  1  0  0  0  0
 14 19  1  6  0  0  0
 14 20  1  0  0  0  0
 15 30  1  0  0  0  0
 15 17  2  0  0  0  0
 16  9  1  0  0  0  0
 17 28  1  0  0  0  0
 18 33  1  1  0  0  0
 20 10  1  1  0  0  0
 20  1  1  0  0  0  0
 22 21  1  6  0  0  0
 22 18  1  0  0  0  0
 23  1  1  6  0  0  0
 23 24  1  0  0  0  0
 23 11  1  0  0  0  0
 24 16  1  1  0  0  0
 25  2  1  0  0  0  0
 25 13  1  0  0  0  0
 26 30  1  0  0  0  0
 27  5  1  0  0  0  0
 27  8  1  0  0  0  0
 28  7  1  0  0  0  0
 30  6  2  0  0  0  0
 31 12  1  1  0  0  0
 31 24  1  0  0  0  0
 31 18  1  0  0  0  0
 33 34  1  0  0  0  0
 34 32  2  0  0  0  0
 34 35  1  0  0  0  0
 35 38  1  6  0  0  0
 35 36  1  0  0  0  0
 36 37  1  0  0  0  0
 38 40  1  0  0  0  0
 39 42  1  0  0  0  0
 40 42  1  0  0  0  0
 42 41  2  0  0  0  0
 44 43  1  0  0  0  0
 44 45  1  0  0  0  0
 45 46  1  0  0  0  0
 47 56  1  6  0  0  0
 47 60  1  0  0  0  0
 48 49  1  0  0  0  0
 50 59  1  0  0  0  0
 50 56  1  0  0  0  0
 51 46  1  6  0  0  0
 52 48  2  0  0  0  0
 53 57  1  0  0  0  0
 53 49  2  0  0  0  0
 54 61  1  1  0  0  0
 54 51  1  0  0  0  0
 55 58  1  1  0  0  0
 55 47  1  0  0  0  0
 55 53  1  0  0  0  0
 56 54  1  0  0  0  0
 58 52  1  0  0  0  0
 59 56  1  0  0  0  0
 60 51  1  0  0  0  0
 60 57  1  1  0  0  0
 61 62  1  6  0  0  0
 61 64  1  0  0  0  0
 63 62  1  0  0  0  0
 64 65  1  0  0  0  0
 66 67  1  0  0  0  0
 66 64  1  0  0  0  0
M  END
>  <MODEL>
8

>  <REMARK>
 VINA RESULT:      -0.9      3.752      7.999
  Name = 
  14 active torsions:
  status: ('A' for Active; 'I' for Inactive)
    1  A    between atoms: C_3  and  C_30
    2  A    between atoms: C_9  and  C_38
    3  A    between atoms: N_13  and  C_49
    4  A    between atoms: O_17  and  C_36
    5  A    between atoms: C_20  and  C_57
    6  A    between atoms: N_23  and  C_37
    7  A    between atoms: C_25  and  C_30
    8  A    between atoms: O_27  and  C_38
    9  A    between atoms: O_27  and  C_39
   10  A    between atoms: C_28  and  N_41
   11  A    between atoms: C_30  and  N_41
   12  A    between atoms: C_36  and  C_49
   13  A    between atoms: C_36  and  C_67
   14  A    between atoms: C_39  and  C_57
                            x       y       z     vdW  Elec       q    Type
                         _______ _______ _______ _____ _____    ______ ____

>  <TORSDO>
F 14

$$$$
