=
 OpenBabel11062417083D

 36 41  0  0  1  0  0  0  0  0999 V2000
  185.6850  177.8660  142.0330 C   0  0  0  0  0  2  0  0  0  0  0  0
  189.2160  176.4720  141.6620 C   0  0  0  0  0  3  0  0  0  0  0  0
  188.2250  177.4810  146.3620 C   0  0  0  0  0  0  0  0  0  0  0  0
  187.0930  178.0060  145.5750 C   0  0  0  0  0  0  0  0  0  0  0  0
  191.2910  177.6140  141.5480 N   0  0  0  0  0  0  0  0  0  0  0  0
  185.8910  178.2220  143.4670 C   0  0  0  0  0  0  0  0  0  0  0  0
  187.7680  176.5310  143.6520 C   0  0  0  0  0  2  0  0  0  0  0  0
  189.8190  178.5830  144.7940 C   0  0  0  0  0  2  0  0  0  0  0  0
  189.9770  177.8520  143.4910 C   0  0  0  0  0  0  0  0  0  0  0  0
  189.4890  177.7120  145.9710 C   0  0  0  0  0  3  0  0  0  0  0  0
  185.1810  179.4860  145.4120 C   0  0  0  0  0  3  0  0  0  0  0  0
  185.0250  179.1430  144.0680 C   0  0  0  0  0  3  0  0  0  0  0  0
  188.9880  177.0130  142.9260 C   0  0  0  0  0  0  0  0  0  0  0  0
  186.2150  178.9210  146.1620 C   0  0  0  0  0  3  0  0  0  0  0  0
  190.3810  176.7890  140.9740 C   0  0  0  0  0  3  0  0  0  0  0  0
  191.0910  178.1310  142.7610 N   0  0  0  0  0  0  0  0  0  0  0  0
  186.9170  177.6280  144.2270 C   0  0  0  0  0  0  0  0  0  0  0  0
  187.9600  177.3140  148.8220 C   0  0  0  0  0  1  0  0  0  0  0  0
  187.9470  176.7450  147.5200 O   0  0  0  0  0  0  0  0  0  0  0  0
  184.9360  178.9150  141.3590 N   0  0  0  0  0  2  0  0  0  0  0  0
  184.4290  180.0980  139.4250 O   0  0  0  0  0  0  0  0  0  0  0  0
  185.0220  179.1190  139.9480 C   0  0  0  0  0  0  0  0  0  0  0  0
  185.8120  178.1940  139.0820 C   0  0  0  0  0  2  0  0  0  0  0  0
  185.5250  174.7260  136.1420 C   0  0  0  0  0  2  0  0  0  0  0  0
  188.0760  176.4770  137.9280 C   0  0  0  0  0  1  0  0  0  0  0  0
  187.9450  178.2060  136.1510 C   0  0  0  0  0  2  0  0  0  0  0  0
  183.8520  177.2130  138.1150 O   0  0  0  0  0  0  0  0  0  0  0  0
  188.8230  176.2430  135.0580 O   0  0  0  0  0  0  0  0  0  0  0  0
  185.7960  176.9530  136.8860 C   0  0  1  0  0  3  0  0  0  0  0  0
  185.0510  177.8870  137.7980 C   0  0  2  0  0  3  0  0  0  0  0  0
  187.3110  176.9660  136.6950 C   0  0  2  0  0  0  0  0  0  0  0  0
  189.0200  177.6370  135.2110 C   0  0  0  0  0  2  0  0  0  0  0  0
  187.0200  174.6380  135.7410 C   0  0  0  0  0  2  0  0  0  0  0  0
  187.5160  176.0680  135.5110 C   0  0  2  0  0  3  0  0  0  0  0  0
  185.3630  175.6380  137.2830 N   0  0  1  0  0  0  0  0  0  0  0  0
  183.9660  175.9060  137.5710 C   0  0  0  0  0  2  0  0  0  0  0  0
  1  6  1  0  0  0  0
  2 13  1  0  0  0  0
  3 19  1  0  0  0  0
  4 14  1  0  0  0  0
  4  3  1  0  0  0  0
  5 16  2  0  0  0  0
  6 12  2  0  0  0  0
  6 17  1  0  0  0  0
  7 17  1  0  0  0  0
  8 10  1  0  0  0  0
  9  8  1  0  0  0  0
 10  3  2  0  0  0  0
 11 14  2  0  0  0  0
 12 11  1  0  0  0  0
 13  9  2  0  0  0  0
 13  7  1  0  0  0  0
 15  5  1  0  0  0  0
 15  2  2  0  0  0  0
 16  9  1  0  0  0  0
 17  4  2  0  0  0  0
 19 18  1  0  0  0  0
 20  1  1  0  0  0  0
 21 22  2  0  0  0  0
 22 20  1  0  0  0  0
 23 22  1  0  0  0  0
 24 35  1  0  0  0  0
 26 31  1  0  0  0  0
 28 32  1  0  0  0  0
 28 34  1  0  0  0  0
 29 35  1  0  0  0  0
 29 30  1  0  0  0  0
 30 27  1  0  0  0  0
 30 23  1  0  0  0  0
 31 29  1  0  0  0  0
 31 25  1  0  0  0  0
 32 26  1  0  0  0  0
 33 24  1  0  0  0  0
 34 33  1  0  0  0  0
 34 31  1  0  0  0  0
 35 36  1  0  0  0  0
 36 27  1  0  0  0  0
M  END
>  <MODEL>
1

>  <REMARK>
 VINA RESULT:      -9.3      0.000      0.000
  Name = 
  5 active torsions:
  status: ('A' for Active; 'I' for Inactive)
    1  A    between atoms: C_2  and  O_29
    2  A    between atoms: C_3  and  C_21
    3  A    between atoms: C_3  and  C_24
    4  A    between atoms: N_5  and  C_8
    5  A    between atoms: C_8  and  C_12
                            x       y       z     vdW  Elec       q    Type
                         _______ _______ _______ _____ _____    ______ ____

>  <TORSDO>
F 5

$$$$
=
 OpenBabel11062417083D

 36 41  0  0  1  0  0  0  0  0999 V2000
  186.5050  177.1270  143.4560 C   0  0  0  0  0  2  0  0  0  0  0  0
  189.6830  176.2910  141.5190 C   0  0  0  0  0  3  0  0  0  0  0  0
  190.6550  176.8770  146.2930 C   0  0  0  0  0  0  0  0  0  0  0  0
  189.2460  177.2730  146.1030 C   0  0  0  0  0  0  0  0  0  0  0  0
  191.3780  177.7290  140.6960 N   0  0  0  0  0  0  0  0  0  0  0  0
  187.2540  177.4280  144.7100 C   0  0  0  0  0  0  0  0  0  0  0  0
  189.2090  176.0240  143.9200 C   0  0  0  0  0  2  0  0  0  0  0  0
  191.3100  178.2870  144.3460 C   0  0  0  0  0  2  0  0  0  0  0  0
  190.9850  177.6630  143.0190 C   0  0  0  0  0  0  0  0  0  0  0  0
  191.6030  177.3130  145.4490 C   0  0  0  0  0  3  0  0  0  0  0  0
  187.2930  178.4630  146.9040 C   0  0  0  0  0  3  0  0  0  0  0  0
  186.6250  178.1760  145.7110 C   0  0  0  0  0  3  0  0  0  0  0  0
  189.9490  176.7200  142.8180 C   0  0  0  0  0  0  0  0  0  0  0  0
  188.6020  178.0150  147.0970 C   0  0  0  0  0  3  0  0  0  0  0  0
  190.4080  176.8130  140.4550 C   0  0  0  0  0  3  0  0  0  0  0  0
  191.6510  178.1420  141.9340 N   0  0  0  0  0  0  0  0  0  0  0  0
  188.5630  176.9500  144.9120 C   0  0  0  0  0  0  0  0  0  0  0  0
  192.3080  175.7790  147.7820 C   0  0  0  0  0  1  0  0  0  0  0  0
  190.9720  176.0440  147.3730 O   0  0  0  0  0  0  0  0  0  0  0  0
  186.5720  178.2610  142.5470 N   0  0  0  0  0  2  0  0  0  0  0  0
  185.5590  179.6420  140.9770 O   0  0  0  0  0  0  0  0  0  0  0  0
  185.4300  178.7170  141.8200 C   0  0  0  0  0  0  0  0  0  0  0  0
  184.0840  178.1080  142.0390 C   0  0  0  0  0  2  0  0  0  0  0  0
  179.5580  178.4410  141.6330 C   0  0  0  0  0  2  0  0  0  0  0  0
  182.2750  176.9670  139.8400 C   0  0  0  0  0  1  0  0  0  0  0  0
  182.6890  179.2220  138.8840 C   0  0  0  0  0  2  0  0  0  0  0  0
  182.5220  179.1510  143.5270 O   0  0  0  0  0  0  0  0  0  0  0  0
  180.5600  178.5340  137.9800 O   0  0  0  0  0  0  0  0  0  0  0  0
  181.8340  178.9970  141.3220 C   0  0  1  0  0  3  0  0  0  0  0  0
  183.0310  179.1960  142.2120 C   0  0  2  0  0  3  0  0  0  0  0  0
  181.9040  178.4530  139.8980 C   0  0  2  0  0  0  0  0  0  0  0  0
  181.8130  179.0900  137.6270 C   0  0  0  0  0  2  0  0  0  0  0  0
  179.4260  177.9980  140.1530 C   0  0  0  0  0  2  0  0  0  0  0  0
  180.5270  178.7110  139.3630 C   0  0  2  0  0  3  0  0  0  0  0  0
  180.9280  178.2010  142.1080 N   0  0  1  0  0  0  0  0  0  0  0  0
  181.1560  178.7750  143.4210 C   0  0  0  0  0  2  0  0  0  0  0  0
  1  6  1  0  0  0  0
  2 13  1  0  0  0  0
  3 19  1  0  0  0  0
  4  3  1  0  0  0  0
  4 14  1  0  0  0  0
  5 16  2  0  0  0  0
  6 17  1  0  0  0  0
  6 12  2  0  0  0  0
  7 17  1  0  0  0  0
  8 10  1  0  0  0  0
  9  8  1  0  0  0  0
 10  3  2  0  0  0  0
 11 14  2  0  0  0  0
 12 11  1  0  0  0  0
 13  9  2  0  0  0  0
 13  7  1  0  0  0  0
 15  5  1  0  0  0  0
 15  2  2  0  0  0  0
 16  9  1  0  0  0  0
 17  4  2  0  0  0  0
 19 18  1  0  0  0  0
 20  1  1  0  0  0  0
 21 22  2  0  0  0  0
 22 23  1  0  0  0  0
 22 20  1  0  0  0  0
 23 30  1  0  0  0  0
 24 35  1  0  0  0  0
 25 31  1  0  0  0  0
 26 31  1  0  0  0  0
 28 34  1  0  0  0  0
 29 35  1  0  0  0  0
 29 30  1  0  0  0  0
 30 27  1  0  0  0  0
 31 29  1  0  0  0  0
 32 28  1  0  0  0  0
 32 26  1  0  0  0  0
 33 24  1  0  0  0  0
 34 31  1  0  0  0  0
 34 33  1  0  0  0  0
 35 36  1  0  0  0  0
 36 27  1  0  0  0  0
M  END
>  <MODEL>
2

>  <REMARK>
 VINA RESULT:      -9.2      3.303      4.743
  Name = 
  5 active torsions:
  status: ('A' for Active; 'I' for Inactive)
    1  A    between atoms: C_2  and  O_29
    2  A    between atoms: C_3  and  C_21
    3  A    between atoms: C_3  and  C_24
    4  A    between atoms: N_5  and  C_8
    5  A    between atoms: C_8  and  C_12
                            x       y       z     vdW  Elec       q    Type
                         _______ _______ _______ _____ _____    ______ ____

>  <TORSDO>
F 5

$$$$
=
 OpenBabel11062417083D

 36 41  0  0  1  0  0  0  0  0999 V2000
  185.8560  177.7120  142.0960 C   0  0  0  0  0  2  0  0  0  0  0  0
  189.4270  176.4150  141.7570 C   0  0  0  0  0  3  0  0  0  0  0  0
  188.3960  177.4770  146.4360 C   0  0  0  0  0  0  0  0  0  0  0  0
  187.2510  177.9550  145.6370 C   0  0  0  0  0  0  0  0  0  0  0  0
  191.4680  177.6130  141.6260 N   0  0  0  0  0  0  0  0  0  0  0  0
  186.0480  178.1000  143.5230 C   0  0  0  0  0  0  0  0  0  0  0  0
  187.9730  176.4670  143.7430 C   0  0  0  0  0  2  0  0  0  0  0  0
  189.9610  178.5970  144.8520 C   0  0  0  0  0  2  0  0  0  0  0  0
  190.1430  177.8480  143.5620 C   0  0  0  0  0  0  0  0  0  0  0  0
  189.6530  177.7380  146.0430 C   0  0  0  0  0  3  0  0  0  0  0  0
  185.2980  179.3770  145.4440 C   0  0  0  0  0  3  0  0  0  0  0  0
  185.1550  179.0050  144.1060 C   0  0  0  0  0  3  0  0  0  0  0  0
  189.1800  176.9700  143.0100 C   0  0  0  0  0  0  0  0  0  0  0  0
  186.3450  178.8560  146.2060 C   0  0  0  0  0  3  0  0  0  0  0  0
  190.5840  176.7520  141.0650 C   0  0  0  0  0  3  0  0  0  0  0  0
  191.2510  178.1460  142.8300 N   0  0  0  0  0  0  0  0  0  0  0  0
  187.0890  177.5490  144.2960 C   0  0  0  0  0  0  0  0  0  0  0  0
  187.9300  177.3720  148.8700 C   0  0  0  0  0  1  0  0  0  0  0  0
  188.1360  176.7540  147.6060 O   0  0  0  0  0  0  0  0  0  0  0  0
  185.6800  178.9000  141.2740 N   0  0  0  0  0  2  0  0  0  0  0  0
  184.4960  180.0630  139.6480 O   0  0  0  0  0  0  0  0  0  0  0  0
  184.5560  179.0610  140.4080 C   0  0  0  0  0  0  0  0  0  0  0  0
  183.4510  178.0570  140.3840 C   0  0  0  0  0  2  0  0  0  0  0  0
  179.0620  176.8350  140.3970 C   0  0  0  0  0  2  0  0  0  0  0  0
  182.1430  175.6230  139.0540 C   0  0  0  0  0  1  0  0  0  0  0  0
  181.8440  177.2810  137.2300 C   0  0  0  0  0  2  0  0  0  0  0  0
  181.6080  179.1140  141.4930 O   0  0  0  0  0  0  0  0  0  0  0  0
  180.0620  175.6830  136.9290 O   0  0  0  0  0  0  0  0  0  0  0  0
  181.0520  177.8560  139.6310 C   0  0  1  0  0  3  0  0  0  0  0  0
  182.1050  178.7530  140.2220 C   0  0  2  0  0  3  0  0  0  0  0  0
  181.3210  176.8130  138.5490 C   0  0  2  0  0  0  0  0  0  0  0  0
  181.0820  176.3830  136.2400 C   0  0  0  0  0  2  0  0  0  0  0  0
  179.1080  175.7970  139.2460 C   0  0  0  0  0  2  0  0  0  0  0  0
  179.9440  176.4030  138.1160 C   0  0  2  0  0  3  0  0  0  0  0  0
  180.4270  177.2330  140.7690 N   0  0  1  0  0  0  0  0  0  0  0  0
  180.4340  178.3430  141.7030 C   0  0  0  0  0  2  0  0  0  0  0  0
  1  6  1  0  0  0  0
  2 13  1  0  0  0  0
  3 19  1  0  0  0  0
  4 14  1  0  0  0  0
  4  3  1  0  0  0  0
  5 16  2  0  0  0  0
  6 12  2  0  0  0  0
  6 17  1  0  0  0  0
  7 17  1  0  0  0  0
  8 10  1  0  0  0  0
  9  8  1  0  0  0  0
 10  3  2  0  0  0  0
 11 14  2  0  0  0  0
 12 11  1  0  0  0  0
 13  9  2  0  0  0  0
 13  7  1  0  0  0  0
 15  5  1  0  0  0  0
 15  2  2  0  0  0  0
 16  9  1  0  0  0  0
 17  4  2  0  0  0  0
 19 18  1  0  0  0  0
 20  1  1  0  0  0  0
 21 22  2  0  0  0  0
 22 20  1  0  0  0  0
 23 22  1  0  0  0  0
 24 35  1  0  0  0  0
 26 31  1  0  0  0  0
 27 36  1  0  0  0  0
 28 34  1  0  0  0  0
 29 30  1  0  0  0  0
 29 35  1  0  0  0  0
 30 23  1  0  0  0  0
 30 27  1  0  0  0  0
 31 25  1  0  0  0  0
 31 29  1  0  0  0  0
 32 28  1  0  0  0  0
 32 26  1  0  0  0  0
 33 24  1  0  0  0  0
 34 31  1  0  0  0  0
 34 33  1  0  0  0  0
 35 36  1  0  0  0  0
M  END
>  <MODEL>
3

>  <REMARK>
 VINA RESULT:      -9.0      3.030      4.139
  Name = 
  5 active torsions:
  status: ('A' for Active; 'I' for Inactive)
    1  A    between atoms: C_2  and  O_29
    2  A    between atoms: C_3  and  C_21
    3  A    between atoms: C_3  and  C_24
    4  A    between atoms: N_5  and  C_8
    5  A    between atoms: C_8  and  C_12
                            x       y       z     vdW  Elec       q    Type
                         _______ _______ _______ _____ _____    ______ ____

>  <TORSDO>
F 5

$$$$
=
 OpenBabel11062417083D

 36 41  0  0  1  0  0  0  0  0999 V2000
  188.8500  178.6310  139.9360 C   0  0  0  0  0  2  0  0  0  0  0  0
  190.8780  176.4310  137.5700 C   0  0  0  0  0  3  0  0  0  0  0  0
  186.2370  176.8330  136.0270 C   0  0  0  0  0  0  0  0  0  0  0  0
  186.2920  177.4710  137.3560 C   0  0  0  0  0  0  0  0  0  0  0  0
  191.0230  174.0670  137.4510 N   0  0  0  0  0  0  0  0  0  0  0  0
  187.5600  178.3010  139.2630 C   0  0  0  0  0  0  0  0  0  0  0  0
  188.7900  177.6620  137.1420 C   0  0  0  0  0  2  0  0  0  0  0  0
  187.4520  174.8550  136.9330 C   0  0  0  0  0  2  0  0  0  0  0  0
  188.9260  175.0870  137.1090 C   0  0  0  0  0  0  0  0  0  0  0  0
  186.8160  175.6390  135.8230 C   0  0  0  0  0  3  0  0  0  0  0  0
  185.1360  178.2550  139.3370 C   0  0  0  0  0  3  0  0  0  0  0  0
  186.3610  178.5380  139.9440 C   0  0  0  0  0  3  0  0  0  0  0  0
  189.5090  176.3590  137.3200 C   0  0  0  0  0  0  0  0  0  0  0  0
  185.1020  177.7200  138.0470 C   0  0  0  0  0  3  0  0  0  0  0  0
  191.6310  175.2640  137.6390 C   0  0  0  0  0  3  0  0  0  0  0  0
  189.7160  173.9830  137.2000 N   0  0  0  0  0  0  0  0  0  0  0  0
  187.5300  177.7890  137.9520 C   0  0  0  0  0  0  0  0  0  0  0  0
  184.2410  177.1730  134.5940 C   0  0  0  0  0  1  0  0  0  0  0  0
  185.5660  177.4990  134.9950 O   0  0  0  0  0  0  0  0  0  0  0  0
  189.4980  177.4140  140.3990 N   0  0  0  0  0  2  0  0  0  0  0  0
  190.1670  176.0300  142.1420 O   0  0  0  0  0  0  0  0  0  0  0  0
  189.5140  177.0420  141.7790 C   0  0  0  0  0  0  0  0  0  0  0  0
  188.7730  177.8410  142.8000 C   0  0  0  0  0  2  0  0  0  0  0  0
  187.7770  177.8450  147.2460 C   0  0  0  0  0  2  0  0  0  0  0  0
  190.5660  178.6360  145.1580 C   0  0  0  0  0  1  0  0  0  0  0  0
  191.0420  176.1990  145.1010 C   0  0  0  0  0  2  0  0  0  0  0  0
  186.6980  177.2960  143.8680 O   0  0  0  0  0  0  0  0  0  0  0  0
  191.4340  176.8660  147.3860 O   0  0  0  0  0  0  0  0  0  0  0  0
  188.5850  177.0280  145.1800 C   0  0  1  0  0  3  0  0  0  0  0  0
  188.0550  176.9190  143.7770 C   0  0  2  0  0  3  0  0  0  0  0  0
  190.0570  177.2390  145.5280 C   0  0  2  0  0  0  0  0  0  0  0  0
  191.9900  176.1330  146.3100 C   0  0  0  0  0  2  0  0  0  0  0  0
  189.2180  177.9640  147.8050 C   0  0  0  0  0  2  0  0  0  0  0  0
  190.0990  176.9980  147.0080 C   0  0  2  0  0  3  0  0  0  0  0  0
  187.7840  178.0560  145.7910 N   0  0  1  0  0  0  0  0  0  0  0  0
  186.4940  177.7630  145.1930 C   0  0  0  0  0  2  0  0  0  0  0  0
  1 20  1  0  0  0  0
  2 15  1  0  0  0  0
  3  4  1  0  0  0  0
  4 17  2  0  0  0  0
  4 14  1  0  0  0  0
  5 15  2  0  0  0  0
  6  1  1  0  0  0  0
  6 12  2  0  0  0  0
  7 13  1  0  0  0  0
  7 17  1  0  0  0  0
  8  9  1  0  0  0  0
  9 16  2  0  0  0  0
  9 13  1  0  0  0  0
 10  3  2  0  0  0  0
 10  8  1  0  0  0  0
 11 12  1  0  0  0  0
 13  2  2  0  0  0  0
 14 11  2  0  0  0  0
 16  5  1  0  0  0  0
 17  6  1  0  0  0  0
 18 19  1  0  0  0  0
 19  3  1  0  0  0  0
 20 22  1  0  0  0  0
 22 21  2  0  0  0  0
 22 23  1  0  0  0  0
 23 30  1  0  0  0  0
 24 33  1  0  0  0  0
 25 31  1  0  0  0  0
 26 31  1  0  0  0  0
 26 32  1  0  0  0  0
 27 36  1  0  0  0  0
 29 31  1  0  0  0  0
 29 35  1  0  0  0  0
 30 27  1  0  0  0  0
 30 29  1  0  0  0  0
 31 34  1  0  0  0  0
 32 28  1  0  0  0  0
 34 28  1  0  0  0  0
 34 33  1  0  0  0  0
 35 24  1  0  0  0  0
 36 35  1  0  0  0  0
M  END
>  <MODEL>
4

>  <REMARK>
 VINA RESULT:      -8.6      2.532      8.529
  Name = 
  5 active torsions:
  status: ('A' for Active; 'I' for Inactive)
    1  A    between atoms: C_2  and  O_29
    2  A    between atoms: C_3  and  C_21
    3  A    between atoms: C_3  and  C_24
    4  A    between atoms: N_5  and  C_8
    5  A    between atoms: C_8  and  C_12
                            x       y       z     vdW  Elec       q    Type
                         _______ _______ _______ _____ _____    ______ ____

>  <TORSDO>
F 5

$$$$
=
 OpenBabel11062417083D

 36 41  0  0  1  0  0  0  0  0999 V2000
  186.3160  179.1470  141.6030 C   0  0  0  0  0  2  0  0  0  0  0  0
  185.7530  178.2450  137.9400 C   0  0  0  0  0  3  0  0  0  0  0  0
  181.4750  178.7110  140.2980 C   0  0  0  0  0  0  0  0  0  0  0  0
  182.5290  178.7960  141.3260 C   0  0  0  0  0  0  0  0  0  0  0  0
  185.3140  176.1350  136.9500 N   0  0  0  0  0  0  0  0  0  0  0  0
  184.8780  178.9650  141.9510 C   0  0  0  0  0  0  0  0  0  0  0  0
  184.2120  179.3180  139.5320 C   0  0  0  0  0  2  0  0  0  0  0  0
  182.5650  176.6770  139.3550 C   0  0  0  0  0  2  0  0  0  0  0  0
  183.7830  176.9800  138.5310 C   0  0  0  0  0  0  0  0  0  0  0  0
  181.5190  177.7530  139.3570 C   0  0  0  0  0  3  0  0  0  0  0  0
  183.1820  178.6370  143.6540 C   0  0  0  0  0  3  0  0  0  0  0  0
  184.5220  178.7950  143.2930 C   0  0  0  0  0  3  0  0  0  0  0  0
  184.5910  178.1290  138.7000 C   0  0  0  0  0  0  0  0  0  0  0  0
  182.1890  178.6340  142.6730 C   0  0  0  0  0  3  0  0  0  0  0  0
  186.1100  177.2270  137.0620 C   0  0  0  0  0  3  0  0  0  0  0  0
  184.1940  176.0150  137.6630 N   0  0  0  0  0  0  0  0  0  0  0  0
  183.8770  178.9910  140.9600 C   0  0  0  0  0  0  0  0  0  0  0  0
  180.4250  180.8280  139.5440 C   0  0  0  0  0  1  0  0  0  0  0  0
  180.4330  179.6450  140.3330 O   0  0  0  0  0  0  0  0  0  0  0  0
  186.9810  177.8550  141.5240 N   0  0  0  0  0  2  0  0  0  0  0  0
  188.3940  176.2610  142.4520 O   0  0  0  0  0  0  0  0  0  0  0  0
  187.7630  177.3390  142.6030 C   0  0  0  0  0  0  0  0  0  0  0  0
  187.8510  178.0630  143.9060 C   0  0  0  0  0  2  0  0  0  0  0  0
  188.6640  177.8750  148.3850 C   0  0  0  0  0  2  0  0  0  0  0  0
  190.4700  178.6320  145.3960 C   0  0  0  0  0  1  0  0  0  0  0  0
  190.7160  176.1810  145.0850 C   0  0  0  0  0  2  0  0  0  0  0  0
  186.3220  177.5700  145.6830 O   0  0  0  0  0  0  0  0  0  0  0  0
  192.0100  176.7000  147.0530 O   0  0  0  0  0  0  0  0  0  0  0  0
  188.5470  177.1310  146.1440 C   0  0  1  0  0  3  0  0  0  0  0  0
  187.5070  177.1270  145.0580 C   0  0  2  0  0  3  0  0  0  0  0  0
  190.0490  177.2460  145.8940 C   0  0  2  0  0  0  0  0  0  0  0  0
  192.0520  175.9990  145.8230 C   0  0  0  0  0  2  0  0  0  0  0  0
  190.2130  177.8870  148.3390 C   0  0  0  0  0  2  0  0  0  0  0  0
  190.6460  176.9230  147.2320 C   0  0  2  0  0  3  0  0  0  0  0  0
  188.1200  178.1650  147.0500 N   0  0  1  0  0  0  0  0  0  0  0  0
  186.6820  177.9730  146.9960 C   0  0  0  0  0  2  0  0  0  0  0  0
  1  6  1  0  0  0  0
  2 13  1  0  0  0  0
  3 19  1  0  0  0  0
  3  4  1  0  0  0  0
  4 14  1  0  0  0  0
  5 15  1  0  0  0  0
  5 16  2  0  0  0  0
  6 12  2  0  0  0  0
  7 17  1  0  0  0  0
  8 10  1  0  0  0  0
  9 13  2  0  0  0  0
  9  8  1  0  0  0  0
 10  3  2  0  0  0  0
 12 11  1  0  0  0  0
 13  7  1  0  0  0  0
 14 11  2  0  0  0  0
 15  2  2  0  0  0  0
 16  9  1  0  0  0  0
 17  4  2  0  0  0  0
 17  6  1  0  0  0  0
 18 19  1  0  0  0  0
 20  1  1  0  0  0  0
 20 22  1  0  0  0  0
 21 22  2  0  0  0  0
 22 23  1  0  0  0  0
 23 30  1  0  0  0  0
 25 31  1  0  0  0  0
 26 32  1  0  0  0  0
 26 31  1  0  0  0  0
 27 36  1  0  0  0  0
 28 34  1  0  0  0  0
 29 35  1  0  0  0  0
 30 27  1  0  0  0  0
 30 29  1  0  0  0  0
 31 29  1  0  0  0  0
 31 34  1  0  0  0  0
 32 28  1  0  0  0  0
 33 24  1  0  0  0  0
 34 33  1  0  0  0  0
 35 24  1  0  0  0  0
 36 35  1  0  0  0  0
M  END
>  <MODEL>
5

>  <REMARK>
 VINA RESULT:      -8.4      2.551      8.391
  Name = 
  5 active torsions:
  status: ('A' for Active; 'I' for Inactive)
    1  A    between atoms: C_2  and  O_29
    2  A    between atoms: C_3  and  C_21
    3  A    between atoms: C_3  and  C_24
    4  A    between atoms: N_5  and  C_8
    5  A    between atoms: C_8  and  C_12
                            x       y       z     vdW  Elec       q    Type
                         _______ _______ _______ _____ _____    ______ ____

>  <TORSDO>
F 5

$$$$
=
 OpenBabel11062417083D

 36 41  0  0  1  0  0  0  0  0999 V2000
  183.9720  178.2180  141.7140 C   0  0  0  0  0  2  0  0  0  0  0  0
  184.9410  178.0110  138.0310 C   0  0  0  0  0  3  0  0  0  0  0  0
  180.6850  180.3910  138.5820 C   0  0  0  0  0  0  0  0  0  0  0  0
  181.0370  179.8510  139.9100 C   0  0  0  0  0  0  0  0  0  0  0  0
  184.2160  176.4970  136.3570 N   0  0  0  0  0  0  0  0  0  0  0  0
  182.6180  178.7610  141.4090 C   0  0  0  0  0  0  0  0  0  0  0  0
  183.4200  179.5880  139.1530 C   0  0  0  0  0  2  0  0  0  0  0  0
  181.1490  178.1660  137.5610 C   0  0  0  0  0  2  0  0  0  0  0  0
  182.6140  177.8740  137.4030 C   0  0  0  0  0  0  0  0  0  0  0  0
  180.7820  179.6180  137.4880 C   0  0  0  0  0  3  0  0  0  0  0  0
  180.3480  179.2040  142.1410 C   0  0  0  0  0  3  0  0  0  0  0  0
  181.6230  178.6910  142.3900 C   0  0  0  0  0  3  0  0  0  0  0  0
  183.6280  178.4400  138.2120 C   0  0  0  0  0  0  0  0  0  0  0  0
  180.0550  179.7800  140.9030 C   0  0  0  0  0  3  0  0  0  0  0  0
  185.2240  177.0240  137.0940 C   0  0  0  0  0  3  0  0  0  0  0  0
  182.9550  176.9040  136.5110 N   0  0  0  0  0  0  0  0  0  0  0  0
  182.3360  179.3660  140.1690 C   0  0  0  0  0  0  0  0  0  0  0  0
  180.7960  182.6590  137.5840 C   0  0  0  0  0  1  0  0  0  0  0  0
  180.2470  181.7180  138.4970 O   0  0  0  0  0  0  0  0  0  0  0  0
  184.3660  178.5840  143.0660 N   0  0  0  0  0  2  0  0  0  0  0  0
  185.9050  178.4990  144.8040 O   0  0  0  0  0  0  0  0  0  0  0  0
  185.6470  178.2420  143.6000 C   0  0  0  0  0  0  0  0  0  0  0  0
  186.6820  177.5780  142.7540 C   0  0  0  0  0  2  0  0  0  0  0  0
  190.4360  177.6090  140.1730 C   0  0  0  0  0  2  0  0  0  0  0  0
  189.3180  176.0750  143.2000 C   0  0  0  0  0  1  0  0  0  0  0  0
  189.8830  178.2120  144.3320 C   0  0  0  0  0  2  0  0  0  0  0  0
  187.0580  178.7100  140.6760 O   0  0  0  0  0  0  0  0  0  0  0  0
  191.9970  177.3020  143.6110 O   0  0  0  0  0  0  0  0  0  0  0  0
  188.9620  178.2460  141.9080 C   0  0  1  0  0  3  0  0  0  0  0  0
  187.5090  178.6190  142.0110 C   0  0  2  0  0  3  0  0  0  0  0  0
  189.7460  177.5330  143.0080 C   0  0  2  0  0  0  0  0  0  0  0  0
  191.3330  177.8780  144.7210 C   0  0  0  0  0  2  0  0  0  0  0  0
  191.4210  176.9800  141.1910 C   0  0  0  0  0  2  0  0  0  0  0  0
  191.1680  177.6470  142.5450 C   0  0  2  0  0  3  0  0  0  0  0  0
  189.0590  177.5050  140.6770 N   0  0  1  0  0  0  0  0  0  0  0  0
  188.1230  178.2510  139.8570 C   0  0  0  0  0  2  0  0  0  0  0  0
  1 20  1  0  0  0  0
  2 13  1  0  0  0  0
  3  4  1  0  0  0  0
  4 17  2  0  0  0  0
  4 14  1  0  0  0  0
  5 16  2  0  0  0  0
  5 15  1  0  0  0  0
  6  1  1  0  0  0  0
  6 12  2  0  0  0  0
  7 17  1  0  0  0  0
  9  8  1  0  0  0  0
  9 13  2  0  0  0  0
 10  8  1  0  0  0  0
 10  3  2  0  0  0  0
 11 12  1  0  0  0  0
 13  7  1  0  0  0  0
 14 11  2  0  0  0  0
 15  2  2  0  0  0  0
 16  9  1  0  0  0  0
 17  6  1  0  0  0  0
 18 19  1  0  0  0  0
 19  3  1  0  0  0  0
 20 22  1  0  0  0  0
 22 21  2  0  0  0  0
 23 22  1  0  0  0  0
 24 35  1  0  0  0  0
 24 33  1  0  0  0  0
 26 32  1  0  0  0  0
 27 30  1  0  0  0  0
 28 32  1  0  0  0  0
 29 30  1  0  0  0  0
 29 31  1  0  0  0  0
 30 23  1  0  0  0  0
 31 25  1  0  0  0  0
 31 26  1  0  0  0  0
 33 34  1  0  0  0  0
 34 31  1  0  0  0  0
 34 28  1  0  0  0  0
 35 29  1  0  0  0  0
 36 27  1  0  0  0  0
 36 35  1  0  0  0  0
M  END
>  <MODEL>
6

>  <REMARK>
 VINA RESULT:      -8.2      3.015      7.771
  Name = 
  5 active torsions:
  status: ('A' for Active; 'I' for Inactive)
    1  A    between atoms: C_2  and  O_29
    2  A    between atoms: C_3  and  C_21
    3  A    between atoms: C_3  and  C_24
    4  A    between atoms: N_5  and  C_8
    5  A    between atoms: C_8  and  C_12
                            x       y       z     vdW  Elec       q    Type
                         _______ _______ _______ _____ _____    ______ ____

>  <TORSDO>
F 5

$$$$
=
 OpenBabel11062417083D

 36 41  0  0  1  0  0  0  0  0999 V2000
  184.7910  178.9660  139.2650 C   0  0  0  0  0  2  0  0  0  0  0  0
  187.3180  177.9600  136.5900 C   0  0  0  0  0  3  0  0  0  0  0  0
  183.4000  175.0070  136.4850 C   0  0  0  0  0  0  0  0  0  0  0  0
  183.2470  175.8610  137.6790 C   0  0  0  0  0  0  0  0  0  0  0  0
  188.9670  176.2570  136.6290 N   0  0  0  0  0  0  0  0  0  0  0  0
  183.9520  177.7540  139.0400 C   0  0  0  0  0  0  0  0  0  0  0  0
  184.9060  177.4830  136.7090 C   0  0  0  0  0  2  0  0  0  0  0  0
  185.7520  174.5150  137.1450 C   0  0  0  0  0  2  0  0  0  0  0  0
  186.7030  175.6400  136.8510 C   0  0  0  0  0  0  0  0  0  0  0  0
  184.5770  174.4210  136.2170 C   0  0  0  0  0  3  0  0  0  0  0  0
  182.2270  176.2490  139.8430 C   0  0  0  0  0  3  0  0  0  0  0  0
  183.0390  177.3700  140.0280 C   0  0  0  0  0  3  0  0  0  0  0  0
  186.3230  177.0000  136.7700 C   0  0  0  0  0  0  0  0  0  0  0  0
  182.3330  175.4950  138.6720 C   0  0  0  0  0  3  0  0  0  0  0  0
  188.6510  177.5710  136.5270 C   0  0  0  0  0  3  0  0  0  0  0  0
  188.0260  175.3260  136.7910 N   0  0  0  0  0  0  0  0  0  0  0  0
  184.0430  177.0140  137.8460 C   0  0  0  0  0  0  0  0  0  0  0  0
  181.6590  175.8890  134.9530 C   0  0  0  0  0  1  0  0  0  0  0  0
  182.2910  174.8230  135.6510 O   0  0  0  0  0  0  0  0  0  0  0  0
  184.6080  179.4580  140.6210 N   0  0  0  0  0  2  0  0  0  0  0  0
  185.1410  179.3710  142.8810 O   0  0  0  0  0  0  0  0  0  0  0  0
  185.4000  178.9840  141.7120 C   0  0  0  0  0  0  0  0  0  0  0  0
  186.5270  178.0300  141.4890 C   0  0  0  0  0  2  0  0  0  0  0  0
  190.9540  176.9800  141.7170 C   0  0  0  0  0  2  0  0  0  0  0  0
  187.9380  176.1170  143.4270 C   0  0  0  0  0  1  0  0  0  0  0  0
  188.2090  178.2360  144.6930 C   0  0  0  0  0  2  0  0  0  0  0  0
  188.3150  178.7760  140.0790 O   0  0  0  0  0  0  0  0  0  0  0  0
  190.0490  176.8420  145.3940 O   0  0  0  0  0  0  0  0  0  0  0  0
  188.9430  178.1210  142.2080 C   0  0  1  0  0  3  0  0  0  0  0  0
  187.8510  178.7800  141.4120 C   0  0  2  0  0  3  0  0  0  0  0  0
  188.7270  177.4250  143.5500 C   0  0  2  0  0  0  0  0  0  0  0  0
  189.0160  177.6810  145.8780 C   0  0  0  0  0  2  0  0  0  0  0  0
  190.9610  176.3140  143.1170 C   0  0  0  0  0  2  0  0  0  0  0  0
  190.1230  177.1950  144.0470 C   0  0  2  0  0  3  0  0  0  0  0  0
  189.5710  177.2160  141.2810 N   0  0  1  0  0  0  0  0  0  0  0  0
  189.5110  178.0110  140.0690 C   0  0  0  0  0  2  0  0  0  0  0  0
  1 20  1  0  0  0  0
  2 13  1  0  0  0  0
  3  4  1  0  0  0  0
  4 17  2  0  0  0  0
  4 14  1  0  0  0  0
  5 16  2  0  0  0  0
  6  1  1  0  0  0  0
  6 12  2  0  0  0  0
  7 13  1  0  0  0  0
  7 17  1  0  0  0  0
  9  8  1  0  0  0  0
 10  3  2  0  0  0  0
 10  8  1  0  0  0  0
 11 12  1  0  0  0  0
 13  9  2  0  0  0  0
 14 11  2  0  0  0  0
 15  2  2  0  0  0  0
 15  5  1  0  0  0  0
 16  9  1  0  0  0  0
 17  6  1  0  0  0  0
 18 19  1  0  0  0  0
 19  3  1  0  0  0  0
 20 22  1  0  0  0  0
 22 21  2  0  0  0  0
 23 22  1  0  0  0  0
 24 33  1  0  0  0  0
 25 31  1  0  0  0  0
 26 32  1  0  0  0  0
 27 30  1  0  0  0  0
 28 32  1  0  0  0  0
 29 31  1  0  0  0  0
 30 23  1  0  0  0  0
 30 29  1  0  0  0  0
 31 34  1  0  0  0  0
 31 26  1  0  0  0  0
 33 34  1  0  0  0  0
 34 28  1  0  0  0  0
 35 24  1  0  0  0  0
 35 29  1  0  0  0  0
 36 27  1  0  0  0  0
 36 35  1  0  0  0  0
M  END
>  <MODEL>
7

>  <REMARK>
 VINA RESULT:      -8.1      2.071      7.754
  Name = 
  5 active torsions:
  status: ('A' for Active; 'I' for Inactive)
    1  A    between atoms: C_2  and  O_29
    2  A    between atoms: C_3  and  C_21
    3  A    between atoms: C_3  and  C_24
    4  A    between atoms: N_5  and  C_8
    5  A    between atoms: C_8  and  C_12
                            x       y       z     vdW  Elec       q    Type
                         _______ _______ _______ _____ _____    ______ ____

>  <TORSDO>
F 5

$$$$
=
 OpenBabel11062417083D

 36 41  0  0  1  0  0  0  0  0999 V2000
  185.6300  177.9970  142.0520 C   0  0  0  0  0  2  0  0  0  0  0  0
  189.1250  176.5560  141.5420 C   0  0  0  0  0  3  0  0  0  0  0  0
  188.2690  177.4110  146.2980 C   0  0  0  0  0  0  0  0  0  0  0  0
  187.1270  177.9840  145.5590 C   0  0  0  0  0  0  0  0  0  0  0  0
  191.2170  177.6650  141.4170 N   0  0  0  0  0  0  0  0  0  0  0  0
  185.8780  178.2970  143.4910 C   0  0  0  0  0  0  0  0  0  0  0  0
  187.7280  176.5680  143.5690 C   0  0  0  0  0  2  0  0  0  0  0  0
  189.8430  178.5410  144.7310 C   0  0  0  0  0  2  0  0  0  0  0  0
  189.9560  177.8560  143.3990 C   0  0  0  0  0  0  0  0  0  0  0  0
  189.5260  177.6350  145.8840 C   0  0  0  0  0  3  0  0  0  0  0  0
  185.2400  179.5020  145.4980 C   0  0  0  0  0  3  0  0  0  0  0  0
  185.0440  179.2100  144.1460 C   0  0  0  0  0  3  0  0  0  0  0  0
  188.9380  177.0550  142.8300 C   0  0  0  0  0  0  0  0  0  0  0  0
  186.2810  178.8930  146.2010 C   0  0  0  0  0  3  0  0  0  0  0  0
  190.2790  176.8770  140.8360 C   0  0  0  0  0  3  0  0  0  0  0  0
  191.0570  178.1420  142.6520 N   0  0  0  0  0  0  0  0  0  0  0  0
  186.9110  177.6590  144.2030 C   0  0  0  0  0  0  0  0  0  0  0  0
  188.0310  177.1680  148.7550 C   0  0  0  0  0  1  0  0  0  0  0  0
  188.0060  176.6390  147.4360 O   0  0  0  0  0  0  0  0  0  0  0  0
  184.2010  177.9770  141.7830 N   0  0  0  0  0  2  0  0  0  0  0  0
  182.4030  178.5380  140.4230 O   0  0  0  0  0  0  0  0  0  0  0  0
  183.6520  178.4920  140.5680 C   0  0  0  0  0  0  0  0  0  0  0  0
  184.5360  178.9850  139.4710 C   0  0  0  0  0  2  0  0  0  0  0  0
  185.9830  176.9950  135.6370 C   0  0  0  0  0  2  0  0  0  0  0  0
  182.8740  177.9770  137.0990 C   0  0  0  0  0  1  0  0  0  0  0  0
  182.9900  175.8790  138.4240 C   0  0  0  0  0  2  0  0  0  0  0  0
  186.7850  178.5370  138.7760 O   0  0  0  0  0  0  0  0  0  0  0  0
  182.7020  175.1670  136.1370 O   0  0  0  0  0  0  0  0  0  0  0  0
  185.1710  177.1590  137.8510 C   0  0  1  0  0  3  0  0  0  0  0  0
  185.5560  177.9190  139.0910 C   0  0  2  0  0  3  0  0  0  0  0  0
  183.7390  176.7740  137.4900 C   0  0  2  0  0  0  0  0  0  0  0  0
  182.2230  174.9650  137.4540 C   0  0  0  0  0  2  0  0  0  0  0  0
  184.6250  176.4340  135.1420 C   0  0  0  0  0  2  0  0  0  0  0  0
  183.9180  175.8150  136.3500 C   0  0  2  0  0  3  0  0  0  0  0  0
  185.7670  177.9030  136.7720 N   0  0  1  0  0  0  0  0  0  0  0  0
  187.0150  178.3020  137.3950 C   0  0  0  0  0  2  0  0  0  0  0  0
  1  6  1  0  0  0  0
  2 13  1  0  0  0  0
  3 19  1  0  0  0  0
  4 14  1  0  0  0  0
  4  3  1  0  0  0  0
  5 16  2  0  0  0  0
  6 12  2  0  0  0  0
  6 17  1  0  0  0  0
  7 17  1  0  0  0  0
  8 10  1  0  0  0  0
  9  8  1  0  0  0  0
 10  3  2  0  0  0  0
 11 14  2  0  0  0  0
 12 11  1  0  0  0  0
 13  9  2  0  0  0  0
 13  7  1  0  0  0  0
 15  5  1  0  0  0  0
 15  2  2  0  0  0  0
 16  9  1  0  0  0  0
 17  4  2  0  0  0  0
 19 18  1  0  0  0  0
 20  1  1  0  0  0  0
 21 22  2  0  0  0  0
 22 20  1  0  0  0  0
 23 22  1  0  0  0  0
 24 35  1  0  0  0  0
 25 31  1  0  0  0  0
 27 30  1  0  0  0  0
 28 34  1  0  0  0  0
 28 32  1  0  0  0  0
 29 30  1  0  0  0  0
 30 23  1  0  0  0  0
 31 29  1  0  0  0  0
 31 26  1  0  0  0  0
 32 26  1  0  0  0  0
 33 24  1  0  0  0  0
 33 34  1  0  0  0  0
 34 31  1  0  0  0  0
 35 36  1  0  0  0  0
 35 29  1  0  0  0  0
 36 27  1  0  0  0  0
M  END
>  <MODEL>
8

>  <REMARK>
 VINA RESULT:      -8.0      1.520      2.659
  Name = 
  5 active torsions:
  status: ('A' for Active; 'I' for Inactive)
    1  A    between atoms: C_2  and  O_29
    2  A    between atoms: C_3  and  C_21
    3  A    between atoms: C_3  and  C_24
    4  A    between atoms: N_5  and  C_8
    5  A    between atoms: C_8  and  C_12
                            x       y       z     vdW  Elec       q    Type
                         _______ _______ _______ _____ _____    ______ ____

>  <TORSDO>
F 5

$$$$
=
 OpenBabel11062417083D

 36 41  0  0  1  0  0  0  0  0999 V2000
  189.7720  176.3330  140.0230 C   0  0  0  0  0  2  0  0  0  0  0  0
  187.0500  175.9270  137.3830 C   0  0  0  0  0  3  0  0  0  0  0  0
  191.5040  175.4410  135.3820 C   0  0  0  0  0  0  0  0  0  0  0  0
  191.7180  175.8770  136.7760 C   0  0  0  0  0  0  0  0  0  0  0  0
  186.2010  177.5030  135.8280 N   0  0  0  0  0  0  0  0  0  0  0  0
  190.8650  176.3470  139.0090 C   0  0  0  0  0  0  0  0  0  0  0  0
  189.3820  175.1410  137.3460 C   0  0  0  0  0  2  0  0  0  0  0  0
  189.8090  177.2420  135.0840 C   0  0  0  0  0  2  0  0  0  0  0  0
  188.4840  176.9280  135.7180 C   0  0  0  0  0  0  0  0  0  0  0  0
  190.5850  176.0480  134.6150 C   0  0  0  0  0  3  0  0  0  0  0  0
  193.1650  176.8720  138.4460 C   0  0  0  0  0  3  0  0  0  0  0  0
  192.1170  176.8590  139.3680 C   0  0  0  0  0  3  0  0  0  0  0  0
  188.3190  176.0580  136.8220 C   0  0  0  0  0  0  0  0  0  0  0  0
  192.9650  176.3850  137.1520 C   0  0  0  0  0  3  0  0  0  0  0  0
  185.9890  176.6680  136.8750 C   0  0  0  0  0  3  0  0  0  0  0  0
  187.4070  177.6320  135.2750 N   0  0  0  0  0  0  0  0  0  0  0  0
  190.6660  175.8280  137.7150 C   0  0  0  0  0  0  0  0  0  0  0  0
  192.3000  173.0930  135.4710 C   0  0  0  0  0  1  0  0  0  0  0  0
  192.2840  174.3890  134.8870 O   0  0  0  0  0  0  0  0  0  0  0  0
  188.9770  177.5470  139.9200 N   0  0  0  0  0  2  0  0  0  0  0  0
  187.9320  179.3590  140.9310 O   0  0  0  0  0  0  0  0  0  0  0  0
  188.7020  178.3710  141.0540 C   0  0  0  0  0  0  0  0  0  0  0  0
  189.3070  178.0760  142.3860 C   0  0  0  0  0  2  0  0  0  0  0  0
  187.5580  177.5040  146.5540 C   0  0  0  0  0  2  0  0  0  0  0  0
  190.6050  178.6730  145.1000 C   0  0  0  0  0  1  0  0  0  0  0  0
  191.2520  176.2870  144.8670 C   0  0  0  0  0  2  0  0  0  0  0  0
  187.1220  177.3060  142.9980 O   0  0  0  0  0  0  0  0  0  0  0  0
  191.1950  176.6970  147.2440 O   0  0  0  0  0  0  0  0  0  0  0  0
  188.7670  176.9780  144.5920 C   0  0  1  0  0  3  0  0  0  0  0  0
  188.4970  177.0090  143.1130 C   0  0  2  0  0  3  0  0  0  0  0  0
  190.1380  177.2190  145.2200 C   0  0  2  0  0  0  0  0  0  0  0  0
  191.9780  176.1250  146.2130 C   0  0  0  0  0  2  0  0  0  0  0  0
  188.8680  177.6270  147.3730 C   0  0  0  0  0  2  0  0  0  0  0  0
  189.9390  176.8070  146.6480 C   0  0  2  0  0  3  0  0  0  0  0  0
  187.8020  177.8860  145.1560 N   0  0  1  0  0  0  0  0  0  0  0  0
  186.6590  177.6020  144.3070 C   0  0  0  0  0  2  0  0  0  0  0  0
  3  4  1  0  0  0  0
  4 14  2  0  0  0  0
  4 17  1  0  0  0  0
  5 15  2  0  0  0  0
  6 12  1  0  0  0  0
  6  1  1  0  0  0  0
  7 17  1  0  0  0  0
  8  9  1  0  0  0  0
  9 13  1  0  0  0  0
 10  8  1  0  0  0  0
 10  3  2  0  0  0  0
 11 12  2  0  0  0  0
 13  7  1  0  0  0  0
 13  2  2  0  0  0  0
 14 11  1  0  0  0  0
 15  2  1  0  0  0  0
 16  9  2  0  0  0  0
 16  5  1  0  0  0  0
 17  6  2  0  0  0  0
 19  3  1  0  0  0  0
 19 18  1  0  0  0  0
 20  1  1  0  0  0  0
 20 22  1  0  0  0  0
 21 22  2  0  0  0  0
 22 23  1  0  0  0  0
 23 30  1  0  0  0  0
 24 33  1  0  0  0  0
 25 31  1  0  0  0  0
 26 31  1  0  0  0  0
 26 32  1  0  0  0  0
 27 30  1  0  0  0  0
 27 36  1  0  0  0  0
 29 35  1  0  0  0  0
 29 31  1  0  0  0  0
 30 29  1  0  0  0  0
 31 34  1  0  0  0  0
 32 28  1  0  0  0  0
 34 28  1  0  0  0  0
 34 33  1  0  0  0  0
 35 24  1  0  0  0  0
 36 35  1  0  0  0  0
M  END
>  <MODEL>
9

>  <REMARK>
 VINA RESULT:      -7.9      2.667      9.016
  Name = 
  5 active torsions:
  status: ('A' for Active; 'I' for Inactive)
    1  A    between atoms: C_2  and  O_29
    2  A    between atoms: C_3  and  C_21
    3  A    between atoms: C_3  and  C_24
    4  A    between atoms: N_5  and  C_8
    5  A    between atoms: C_8  and  C_12
                            x       y       z     vdW  Elec       q    Type
                         _______ _______ _______ _____ _____    ______ ____

>  <TORSDO>
F 5

$$$$
