=
 OpenBabel11062416223D

 29 34  0  0  1  0  0  0  0  0999 V2000
  186.7800  177.9520  146.0290 C   0  0  0  0  0  0  0  0  0  0  0  0
  190.8320  176.8830  147.4140 N   0  0  0  0  0  0  0  0  0  0  0  0
  188.2060  177.2980  138.6970 C   0  0  0  0  0  2  0  0  0  0  0  0
  188.7550  177.3510  144.5790 C   0  0  2  0  0  3  0  0  0  0  0  0
  190.6270  177.7470  142.9860 C   0  0  1  0  0  3  0  0  0  0  0  0
  189.4140  177.9230  140.8570 C   0  0  2  0  0  3  0  0  0  0  0  0
  188.4980  177.0720  147.6430 C   0  0  0  0  0  2  0  0  0  0  0  0
  189.6790  177.0150  145.5100 C   0  0  0  0  0  0  0  0  0  0  0  0
  191.6580  176.7540  146.3490 C   0  0  0  0  0  3  0  0  0  0  0  0
  191.8150  177.3000  140.8140 C   0  0  0  0  0  3  0  0  0  0  0  0
  190.7490  177.7030  141.5180 C   0  0  0  0  0  0  0  0  0  0  0  0
  188.3960  177.7800  141.9970 C   0  0  0  0  0  2  0  0  0  0  0  0
  190.9780  176.8130  145.1890 N   0  0  0  0  0  0  0  0  0  0  0  0
  191.6510  177.0380  139.4090 N   0  0  0  0  0  0  0  0  0  0  0  0
  187.1150  176.9460  147.0880 C   0  0  0  0  0  2  0  0  0  0  0  0
  190.1540  176.8890  137.5580 N   0  0  0  0  0  2  0  0  0  0  0  0
  188.7700  177.0110  137.3630 N   0  0  0  0  0  2  0  0  0  0  0  0
  189.2180  177.2230  143.1530 C   0  0  2  0  0  3  0  0  0  0  0  0
  189.2300  176.8800  139.7500 C   0  0  2  0  0  3  0  0  0  0  0  0
  187.4780  178.0290  144.8880 C   0  0  0  0  0  3  0  0  0  0  0  0
  190.4570  176.8370  138.9270 C   0  0  0  0  0  0  0  0  0  0  0  0
  191.5410  176.8590  143.8330 C   0  0  0  0  0  2  0  0  0  0  0  0
  189.5960  177.0320  146.8910 C   0  0  0  0  0  0  0  0  0  0  0  0
  185.8500  180.0640  146.5540 F   0  0  0  0  0  0  0  0  0  0  0  0
  184.7140  178.2320  147.1630 F   0  0  0  0  0  0  0  0  0  0  0  0
  185.5220  178.7730  146.1750 C   0  0  0  0  0  0  0  0  0  0  0  0
  184.7210  178.8200  144.8730 C   0  0  0  0  0  3  0  0  0  0  0  0
  183.3740  178.6070  145.1040 F   0  0  0  0  0  0  0  0  0  0  0  0
  184.9010  180.0300  144.2270 F   0  0  0  0  0  0  0  0  0  0  0  0
  1 26  1  0  0  0  0
  1 15  1  0  0  0  0
  4 20  1  1  0  0  0
  4  8  1  0  0  0  0
  5 18  1  0  0  0  0
  5 22  1  1  0  0  0
  6 11  1  0  0  0  0
  6 12  1  1  0  0  0
  8 23  2  0  0  0  0
  9  2  2  0  0  0  0
 10 11  2  0  0  0  0
 11  5  1  0  0  0  0
 13  8  1  0  0  0  0
 13  9  1  0  0  0  0
 14 10  1  0  0  0  0
 15  7  1  0  0  0  0
 16 21  1  0  0  0  0
 17 16  1  0  0  0  0
 17  3  1  0  0  0  0
 18 12  1  6  0  0  0
 18  4  1  0  0  0  0
 19  3  1  6  0  0  0
 19  6  1  0  0  0  0
 20  1  2  0  0  0  0
 21 14  2  0  0  0  0
 21 19  1  0  0  0  0
 22 13  1  0  0  0  0
 23  2  1  0  0  0  0
 23  7  1  0  0  0  0
 26 24  1  0  0  0  0
 26 25  1  0  0  0  0
 27 28  1  0  0  0  0
 27 26  1  0  0  0  0
 29 27  1  0  0  0  0
M  END
>  <MODEL>
1

>  <REMARK>
 VINA RESULT:     -10.8      0.000      0.000
  Name = 
  2 active torsions:
  status: ('A' for Active; 'I' for Inactive)
    1  A    between atoms: C_2  and  C_14
    2  A    between atoms: C_6  and  C_14
                            x       y       z     vdW  Elec       q    Type
                         _______ _______ _______ _____ _____    ______ ____

>  <TORSDO>
F 2

$$$$
=
 OpenBabel11062416223D

 29 34  0  0  1  0  0  0  0  0999 V2000
  186.4770  177.9750  143.9750 C   0  0  0  0  0  0  0  0  0  0  0  0
  190.1590  177.3530  146.3280 N   0  0  0  0  0  0  0  0  0  0  0  0
  189.5300  176.5950  137.2680 C   0  0  0  0  0  2  0  0  0  0  0  0
  188.7500  177.3520  143.0750 C   0  0  2  0  0  3  0  0  0  0  0  0
  190.9110  177.6940  141.8880 C   0  0  1  0  0  3  0  0  0  0  0  0
  190.1980  177.5430  139.5420 C   0  0  2  0  0  3  0  0  0  0  0  0
  187.8270  177.4050  146.0210 C   0  0  0  0  0  2  0  0  0  0  0  0
  189.4560  177.1880  144.2190 C   0  0  0  0  0  0  0  0  0  0  0  0
  191.2070  177.1620  145.4920 C   0  0  0  0  0  3  0  0  0  0  0  0
  192.5720  177.0870  140.0990 C   0  0  0  0  0  3  0  0  0  0  0  0
  191.3600  177.4930  140.4980 C   0  0  0  0  0  0  0  0  0  0  0  0
  188.9580  177.4600  140.4430 C   0  0  0  0  0  2  0  0  0  0  0  0
  190.8010  177.0420  144.2140 N   0  0  0  0  0  0  0  0  0  0  0  0
  192.7380  176.6570  138.7350 N   0  0  0  0  0  0  0  0  0  0  0  0
  186.6100  177.1210  145.2000 C   0  0  0  0  0  2  0  0  0  0  0  0
  191.6990  176.1960  136.6390 N   0  0  0  0  0  2  0  0  0  0  0  0
  190.3890  176.1980  136.1350 N   0  0  0  0  0  2  0  0  0  0  0  0
  189.5240  177.0960  141.8100 C   0  0  2  0  0  3  0  0  0  0  0  0
  190.3110  176.3720  138.5620 C   0  0  2  0  0  3  0  0  0  0  0  0
  187.4080  177.9700  143.0120 C   0  0  0  0  0  3  0  0  0  0  0  0
  191.6910  176.3200  138.0360 C   0  0  0  0  0  0  0  0  0  0  0  0
  191.6500  176.9730  143.0170 C   0  0  0  0  0  2  0  0  0  0  0  0
  189.0660  177.3560  145.5350 C   0  0  0  0  0  0  0  0  0  0  0  0
  184.2230  177.8390  143.2690 F   0  0  0  0  0  0  0  0  0  0  0  0
  185.3670  179.7020  142.7850 F   0  0  0  0  0  0  0  0  0  0  0  0
  185.1840  178.7170  143.7420 C   0  0  0  0  0  0  0  0  0  0  0  0
  184.6720  179.3800  145.0220 C   0  0  0  0  0  3  0  0  0  0  0  0
  183.8570  178.5220  145.7390 F   0  0  0  0  0  0  0  0  0  0  0  0
  185.7240  179.8010  145.8150 F   0  0  0  0  0  0  0  0  0  0  0  0
  1 15  1  0  0  0  0
  4 20  1  6  0  0  0
  4  8  1  0  0  0  0
  5 22  1  1  0  0  0
  6 12  1  1  0  0  0
  6 11  1  0  0  0  0
  8 23  2  0  0  0  0
  9  2  2  0  0  0  0
 10 11  2  0  0  0  0
 11  5  1  0  0  0  0
 13  8  1  0  0  0  0
 13  9  1  0  0  0  0
 14 10  1  0  0  0  0
 15  7  1  0  0  0  0
 16 21  1  0  0  0  0
 17 16  1  0  0  0  0
 17  3  1  0  0  0  0
 18 12  1  6  0  0  0
 18  5  1  0  0  0  0
 18  4  1  0  0  0  0
 19  3  1  6  0  0  0
 19  6  1  0  0  0  0
 20  1  2  0  0  0  0
 21 19  1  0  0  0  0
 21 14  2  0  0  0  0
 22 13  1  0  0  0  0
 23  7  1  0  0  0  0
 23  2  1  0  0  0  0
 24 26  1  0  0  0  0
 25 26  1  0  0  0  0
 26  1  1  0  0  0  0
 26 27  1  0  0  0  0
 27 28  1  0  0  0  0
 27 29  1  0  0  0  0
M  END
>  <MODEL>
2

>  <REMARK>
 VINA RESULT:     -10.2      1.226      1.924
  Name = 
  2 active torsions:
  status: ('A' for Active; 'I' for Inactive)
    1  A    between atoms: C_2  and  C_14
    2  A    between atoms: C_6  and  C_14
                            x       y       z     vdW  Elec       q    Type
                         _______ _______ _______ _____ _____    ______ ____

>  <TORSDO>
F 2

$$$$
=
 OpenBabel11062416223D

 29 34  0  0  1  0  0  0  0  0999 V2000
  189.4240  177.4540  146.2900 C   0  0  0  0  0  0  0  0  0  0  0  0
  191.4160  177.0460  142.3730 N   0  0  0  0  0  0  0  0  0  0  0  0
  182.5260  178.6350  143.6000 C   0  0  0  0  0  2  0  0  0  0  0  0
  188.3300  177.6110  144.0240 C   0  0  2  0  0  3  0  0  0  0  0  0
  187.2340  178.7260  142.0860 C   0  0  1  0  0  3  0  0  0  0  0  0
  184.9580  179.0590  142.9500 C   0  0  2  0  0  3  0  0  0  0  0  0
  191.1930  176.6650  144.6850 C   0  0  0  0  0  2  0  0  0  0  0  0
  189.3640  177.3040  143.2040 C   0  0  0  0  0  0  0  0  0  0  0  0
  190.5350  177.3220  141.3830 C   0  0  0  0  0  3  0  0  0  0  0  0
  185.3060  179.0030  140.4940 C   0  0  0  0  0  3  0  0  0  0  0  0
  185.8330  179.0090  141.7250 C   0  0  0  0  0  0  0  0  0  0  0  0
  185.8300  178.4660  144.0650 C   0  0  0  0  0  2  0  0  0  0  0  0
  189.2840  177.4640  141.8630 N   0  0  0  0  0  0  0  0  0  0  0  0
  183.8730  179.0030  140.3600 N   0  0  0  0  0  0  0  0  0  0  0  0
  190.3560  176.3520  145.8830 C   0  0  0  0  0  2  0  0  0  0  0  0
  181.7570  178.9060  141.4570 N   0  0  0  0  0  2  0  0  0  0  0  0
  181.3070  178.7560  142.7770 N   0  0  0  0  0  2  0  0  0  0  0  0
  187.0250  177.8810  143.3230 C   0  0  2  0  0  3  0  0  0  0  0  0
  183.6860  178.2490  142.6840 C   0  0  2  0  0  3  0  0  0  0  0  0
  188.4760  177.9130  145.4630 C   0  0  0  0  0  3  0  0  0  0  0  0
  183.1330  178.6450  141.3720 C   0  0  0  0  0  0  0  0  0  0  0  0
  188.0960  177.9080  141.1220 C   0  0  0  0  0  2  0  0  0  0  0  0
  190.6830  177.0220  143.5070 C   0  0  0  0  0  0  0  0  0  0  0  0
  189.4250  179.3130  147.7540 F   0  0  0  0  0  0  0  0  0  0  0  0
  190.5990  177.5030  148.3520 F   0  0  0  0  0  0  0  0  0  0  0  0
  189.4410  177.9290  147.7230 C   0  0  0  0  0  0  0  0  0  0  0  0
  188.2420  177.3960  148.5110 C   0  0  0  0  0  3  0  0  0  0  0  0
  187.1370  178.2130  148.3560 F   0  0  0  0  0  0  0  0  0  0  0  0
  187.9300  176.1060  148.1220 F   0  0  0  0  0  0  0  0  0  0  0  0
  1 26  1  0  0  0  0
  2 23  1  0  0  0  0
  4 20  1  6  0  0  0
  5 22  1  6  0  0  0
  5 18  1  0  0  0  0
  6 12  1  1  0  0  0
  7 15  1  0  0  0  0
  8 23  2  0  0  0  0
  8  4  1  0  0  0  0
  9 13  1  0  0  0  0
  9  2  2  0  0  0  0
 10 11  2  0  0  0  0
 11  5  1  0  0  0  0
 11  6  1  0  0  0  0
 13  8  1  0  0  0  0
 14 10  1  0  0  0  0
 14 21  2  0  0  0  0
 15  1  1  0  0  0  0
 16 17  1  0  0  0  0
 17  3  1  0  0  0  0
 18  4  1  0  0  0  0
 18 12  1  1  0  0  0
 19  6  1  0  0  0  0
 19  3  1  1  0  0  0
 20  1  2  0  0  0  0
 21 16  1  0  0  0  0
 21 19  1  0  0  0  0
 22 13  1  0  0  0  0
 23  7  1  0  0  0  0
 26 24  1  0  0  0  0
 26 25  1  0  0  0  0
 26 27  1  0  0  0  0
 28 27  1  0  0  0  0
 29 27  1  0  0  0  0
M  END
>  <MODEL>
3

>  <REMARK>
 VINA RESULT:      -9.7      3.489      5.371
  Name = 
  2 active torsions:
  status: ('A' for Active; 'I' for Inactive)
    1  A    between atoms: C_2  and  C_14
    2  A    between atoms: C_6  and  C_14
                            x       y       z     vdW  Elec       q    Type
                         _______ _______ _______ _____ _____    ______ ____

>  <TORSDO>
F 2

$$$$
=
 OpenBabel11062416223D

 29 34  0  0  1  0  0  0  0  0999 V2000
  185.9840  178.3350  144.2690 C   0  0  0  0  0  0  0  0  0  0  0  0
  189.7840  177.1550  146.1770 N   0  0  0  0  0  0  0  0  0  0  0  0
  188.1660  177.0690  137.2090 C   0  0  0  0  0  2  0  0  0  0  0  0
  188.0650  177.5250  143.0990 C   0  0  2  0  0  3  0  0  0  0  0  0
  190.1220  177.7020  141.7070 C   0  0  1  0  0  3  0  0  0  0  0  0
  189.1650  177.7860  139.4460 C   0  0  2  0  0  3  0  0  0  0  0  0
  187.4550  177.4850  146.1250 C   0  0  0  0  0  2  0  0  0  0  0  0
  188.8590  177.2080  144.1500 C   0  0  0  0  0  0  0  0  0  0  0  0
  190.7140  176.9040  145.2250 C   0  0  0  0  0  3  0  0  0  0  0  0
  191.5130  177.0330  139.7200 C   0  0  0  0  0  3  0  0  0  0  0  0
  190.4030  177.5440  140.2680 C   0  0  0  0  0  0  0  0  0  0  0  0
  188.0210  177.7810  140.4690 C   0  0  0  0  0  2  0  0  0  0  0  0
  190.1700  176.9150  143.9930 N   0  0  0  0  0  0  0  0  0  0  0  0
  191.4890  176.6790  138.3260 N   0  0  0  0  0  0  0  0  0  0  0  0
  186.1370  177.3930  145.4250 C   0  0  0  0  0  2  0  0  0  0  0  0
  190.1990  176.4740  136.3300 N   0  0  0  0  0  2  0  0  0  0  0  0
  188.8550  176.6550  135.9710 N   0  0  0  0  0  2  0  0  0  0  0  0
  188.6740  177.2680  141.7460 C   0  0  2  0  0  3  0  0  0  0  0  0
  189.0410  176.6760  138.3980 C   0  0  2  0  0  3  0  0  0  0  0  0
  186.8060  178.2900  143.2130 C   0  0  0  0  0  3  0  0  0  0  0  0
  190.3450  176.5070  137.7250 C   0  0  0  0  0  0  0  0  0  0  0  0
  190.8810  176.8300  142.7100 C   0  0  0  0  0  2  0  0  0  0  0  0
  188.6250  177.3310  145.5070 C   0  0  0  0  0  0  0  0  0  0  0  0
  185.1440  180.4970  143.8010 F   0  0  0  0  0  0  0  0  0  0  0  0
  184.2070  179.3450  145.4770 F   0  0  0  0  0  0  0  0  0  0  0  0
  184.7690  179.2300  144.2160 C   0  0  0  0  0  0  0  0  0  0  0  0
  183.7050  178.6850  143.2630 C   0  0  0  0  0  3  0  0  0  0  0  0
  184.2220  177.6950  142.4460 F   0  0  0  0  0  0  0  0  0  0  0  0
  182.6190  178.1940  143.9650 F   0  0  0  0  0  0  0  0  0  0  0  0
  1 15  1  0  0  0  0
  4 20  1  6  0  0  0
  4  8  1  0  0  0  0
  5 18  1  0  0  0  0
  5 22  1  1  0  0  0
  6 11  1  0  0  0  0
  6 12  1  1  0  0  0
  8 23  2  0  0  0  0
  9  2  2  0  0  0  0
 10 11  2  0  0  0  0
 11  5  1  0  0  0  0
 13  8  1  0  0  0  0
 13  9  1  0  0  0  0
 14 10  1  0  0  0  0
 15  7  1  0  0  0  0
 16 21  1  0  0  0  0
 17 16  1  0  0  0  0
 17  3  1  0  0  0  0
 18 12  1  6  0  0  0
 18  4  1  0  0  0  0
 19  3  1  6  0  0  0
 19  6  1  0  0  0  0
 20  1  2  0  0  0  0
 21 14  2  0  0  0  0
 21 19  1  0  0  0  0
 22 13  1  0  0  0  0
 23  7  1  0  0  0  0
 23  2  1  0  0  0  0
 24 26  1  0  0  0  0
 26  1  1  0  0  0  0
 26 25  1  0  0  0  0
 27 29  1  0  0  0  0
 27 26  1  0  0  0  0
 28 27  1  0  0  0  0
M  END
>  <MODEL>
4

>  <REMARK>
 VINA RESULT:      -9.5      1.314      1.784
  Name = 
  2 active torsions:
  status: ('A' for Active; 'I' for Inactive)
    1  A    between atoms: C_2  and  C_14
    2  A    between atoms: C_6  and  C_14
                            x       y       z     vdW  Elec       q    Type
                         _______ _______ _______ _____ _____    ______ ____

>  <TORSDO>
F 2

$$$$
=
 OpenBabel11062416223D

 29 34  0  0  1  0  0  0  0  0999 V2000
  183.4460  178.6520  140.9510 C   0  0  0  0  0  0  0  0  0  0  0  0
  187.0690  178.3910  138.4440 N   0  0  0  0  0  0  0  0  0  0  0  0
  186.9590  178.1180  147.5530 C   0  0  0  0  0  2  0  0  0  0  0  0
  185.8210  178.4090  141.7630 C   0  0  2  0  0  3  0  0  0  0  0  0
  187.7920  177.2550  142.7550 C   0  0  1  0  0  3  0  0  0  0  0  0
  187.2280  177.3140  145.1450 C   0  0  2  0  0  3  0  0  0  0  0  0
  184.8510  179.0330  138.8990 C   0  0  0  0  0  2  0  0  0  0  0  0
  186.5120  178.4910  140.6000 C   0  0  0  0  0  0  0  0  0  0  0  0
  188.1450  178.1330  139.2240 C   0  0  0  0  0  3  0  0  0  0  0  0
  189.6080  177.0720  144.4870 C   0  0  0  0  0  3  0  0  0  0  0  0
  188.3190  177.1230  144.1250 C   0  0  0  0  0  0  0  0  0  0  0  0
  186.0560  177.8980  144.3450 C   0  0  0  0  0  2  0  0  0  0  0  0
  187.8330  178.2060  140.5320 N   0  0  0  0  0  0  0  0  0  0  0  0
  189.9380  177.2470  145.8760 N   0  0  0  0  0  0  0  0  0  0  0  0
  183.8110  179.5740  139.8260 C   0  0  0  0  0  2  0  0  0  0  0  0
  189.1580  177.7320  148.0770 N   0  0  0  0  0  2  0  0  0  0  0  0
  187.9300  178.0740  148.6640 N   0  0  0  0  0  2  0  0  0  0  0  0
  186.6710  178.2420  142.9940 C   0  0  2  0  0  3  0  0  0  0  0  0
  187.7350  178.2530  146.2440 C   0  0  2  0  0  3  0  0  0  0  0  0
  184.3550  178.2400  141.8440 C   0  0  0  0  0  3  0  0  0  0  0  0
  189.0730  177.8000  146.6790 C   0  0  0  0  0  0  0  0  0  0  0  0
  188.6920  177.8500  141.6690 C   0  0  0  0  0  2  0  0  0  0  0  0
  186.0530  178.6280  139.3030 C   0  0  0  0  0  0  0  0  0  0  0  0
  181.7420  178.2530  142.5440 F   0  0  0  0  0  0  0  0  0  0  0  0
  181.6810  177.0980  140.6260 F   0  0  0  0  0  0  0  0  0  0  0  0
  181.9900  178.3290  141.1840 C   0  0  0  0  0  0  0  0  0  0  0  0
  181.0690  179.3820  140.5640 C   0  0  0  0  0  3  0  0  0  0  0  0
  180.1330  178.7990  139.7280 F   0  0  0  0  0  0  0  0  0  0  0  0
  180.4300  180.1170  141.5460 F   0  0  0  0  0  0  0  0  0  0  0  0
  1 26  1  0  0  0  0
  1 20  2  0  0  0  0
  2  9  2  0  0  0  0
  2 23  1  0  0  0  0
  3 17  1  0  0  0  0
  4 20  1  6  0  0  0
  4 18  1  0  0  0  0
  5 22  1  6  0  0  0
  5 18  1  0  0  0  0
  5 11  1  0  0  0  0
  6 12  1  6  0  0  0
  6 19  1  0  0  0  0
  7 23  1  0  0  0  0
  7 15  1  0  0  0  0
  8  4  1  0  0  0  0
  9 13  1  0  0  0  0
 10 14  1  0  0  0  0
 11 10  2  0  0  0  0
 11  6  1  0  0  0  0
 13  8  1  0  0  0  0
 13 22  1  0  0  0  0
 14 21  2  0  0  0  0
 15  1  1  0  0  0  0
 16 17  1  0  0  0  0
 18 12  1  1  0  0  0
 19 21  1  0  0  0  0
 19  3  1  1  0  0  0
 21 16  1  0  0  0  0
 23  8  2  0  0  0  0
 25 26  1  0  0  0  0
 26 24  1  0  0  0  0
 27 26  1  0  0  0  0
 27 29  1  0  0  0  0
 28 27  1  0  0  0  0
M  END
>  <MODEL>
5

>  <REMARK>
 VINA RESULT:      -9.5      3.149      6.800
  Name = 
  2 active torsions:
  status: ('A' for Active; 'I' for Inactive)
    1  A    between atoms: C_2  and  C_14
    2  A    between atoms: C_6  and  C_14
                            x       y       z     vdW  Elec       q    Type
                         _______ _______ _______ _____ _____    ______ ____

>  <TORSDO>
F 2

$$$$
=
 OpenBabel11062416223D

 29 34  0  0  1  0  0  0  0  0999 V2000
  189.6670  176.9090  145.2000 C   0  0  0  0  0  0  0  0  0  0  0  0
  191.1830  177.1340  141.0610 N   0  0  0  0  0  0  0  0  0  0  0  0
  182.5220  178.4830  143.5590 C   0  0  0  0  0  2  0  0  0  0  0  0
  188.3190  177.4210  143.1310 C   0  0  2  0  0  3  0  0  0  0  0  0
  187.0220  178.8260  141.5360 C   0  0  1  0  0  3  0  0  0  0  0  0
  184.8690  179.0110  142.7030 C   0  0  2  0  0  3  0  0  0  0  0  0
  191.2250  176.3900  143.2930 C   0  0  0  0  0  2  0  0  0  0  0  0
  189.2450  177.2510  142.1570 C   0  0  0  0  0  0  0  0  0  0  0  0
  190.1970  177.5610  140.2370 C   0  0  0  0  0  3  0  0  0  0  0  0
  184.9270  179.3470  140.2450 C   0  0  0  0  0  3  0  0  0  0  0  0
  185.5940  179.1590  141.3920 C   0  0  0  0  0  0  0  0  0  0  0  0
  185.8540  178.2510  143.6000 C   0  0  0  0  0  2  0  0  0  0  0  0
  189.0130  177.6220  140.8770 N   0  0  0  0  0  0  0  0  0  0  0  0
  183.4880  179.3640  140.2830 N   0  0  0  0  0  0  0  0  0  0  0  0
  190.5280  175.8880  144.5170 C   0  0  0  0  0  2  0  0  0  0  0  0
  181.5140  179.0890  141.5910 N   0  0  0  0  0  2  0  0  0  0  0  0
  181.2180  178.7300  142.9150 N   0  0  0  0  0  2  0  0  0  0  0  0
  186.9460  177.7950  142.6400 C   0  0  2  0  0  3  0  0  0  0  0  0
  183.5610  178.2500  142.4630 C   0  0  2  0  0  3  0  0  0  0  0  0
  188.6360  177.4900  144.5730 C   0  0  0  0  0  3  0  0  0  0  0  0
  182.8660  178.8490  141.3050 C   0  0  0  0  0  0  0  0  0  0  0  0
  187.7540  178.1740  140.3600 C   0  0  0  0  0  2  0  0  0  0  0  0
  190.5860  176.9280  142.2550 C   0  0  0  0  0  0  0  0  0  0  0  0
  188.9190  176.4240  147.3920 F   0  0  0  0  0  0  0  0  0  0  0  0
  189.6690  178.4910  146.9690 F   0  0  0  0  0  0  0  0  0  0  0  0
  189.8580  177.1500  146.6770 C   0  0  0  0  0  0  0  0  0  0  0  0
  191.2600  176.7500  147.1410 C   0  0  0  0  0  3  0  0  0  0  0  0
  191.6630  177.5050  148.2290 F   0  0  0  0  0  0  0  0  0  0  0  0
  191.3100  175.4050  147.4580 F   0  0  0  0  0  0  0  0  0  0  0  0
  1 26  1  0  0  0  0
  2 23  1  0  0  0  0
  4 20  1  1  0  0  0
  5 22  1  6  0  0  0
  5 18  1  0  0  0  0
  6 12  1  1  0  0  0
  7 15  1  0  0  0  0
  8 23  2  0  0  0  0
  8  4  1  0  0  0  0
  9 13  1  0  0  0  0
  9  2  2  0  0  0  0
 10 14  1  0  0  0  0
 10 11  2  0  0  0  0
 11  5  1  0  0  0  0
 11  6  1  0  0  0  0
 13  8  1  0  0  0  0
 14 21  2  0  0  0  0
 15  1  1  0  0  0  0
 16 17  1  0  0  0  0
 17  3  1  0  0  0  0
 18  4  1  0  0  0  0
 18 12  1  1  0  0  0
 19  6  1  0  0  0  0
 19  3  1  1  0  0  0
 20  1  2  0  0  0  0
 21 16  1  0  0  0  0
 21 19  1  0  0  0  0
 22 13  1  0  0  0  0
 23  7  1  0  0  0  0
 26 25  1  0  0  0  0
 26 27  1  0  0  0  0
 26 24  1  0  0  0  0
 27 29  1  0  0  0  0
 27 28  1  0  0  0  0
M  END
>  <MODEL>
6

>  <REMARK>
 VINA RESULT:      -9.4      3.876      6.055
  Name = 
  2 active torsions:
  status: ('A' for Active; 'I' for Inactive)
    1  A    between atoms: C_2  and  C_14
    2  A    between atoms: C_6  and  C_14
                            x       y       z     vdW  Elec       q    Type
                         _______ _______ _______ _____ _____    ______ ____

>  <TORSDO>
F 2

$$$$
=
 OpenBabel11062416223D

 29 34  0  0  1  0  0  0  0  0999 V2000
  187.9420  177.7780  146.2110 C   0  0  0  0  0  0  0  0  0  0  0  0
  191.2120  177.3620  143.2770 N   0  0  0  0  0  0  0  0  0  0  0  0
  182.3720  178.1550  141.2060 C   0  0  0  0  0  2  0  0  0  0  0  0
  187.7100  177.7140  143.7010 C   0  0  2  0  0  3  0  0  0  0  0  0
  187.2920  178.6180  141.4190 C   0  0  1  0  0  3  0  0  0  0  0  0
  184.8400  178.7750  141.4090 C   0  0  2  0  0  3  0  0  0  0  0  0
  190.2160  177.0810  145.3900 C   0  0  0  0  0  2  0  0  0  0  0  0
  188.9860  177.4660  143.3190 C   0  0  0  0  0  0  0  0  0  0  0  0
  190.7200  177.5020  142.0230 C   0  0  0  0  0  3  0  0  0  0  0  0
  186.0350  178.6280  139.2390 C   0  0  0  0  0  3  0  0  0  0  0  0
  186.0920  178.7470  140.5730 C   0  0  0  0  0  0  0  0  0  0  0  0
  185.3020  178.3270  142.8020 C   0  0  0  0  0  2  0  0  0  0  0  0
  189.3740  177.5490  142.0260 N   0  0  0  0  0  0  0  0  0  0  0  0
  184.7460  178.4840  138.6170 N   0  0  0  0  0  0  0  0  0  0  0  0
  189.0340  176.7510  146.2440 C   0  0  0  0  0  2  0  0  0  0  0  0
  182.3920  178.2420  138.9150 N   0  0  0  0  0  2  0  0  0  0  0  0
  181.5160  178.1170  140.0040 N   0  0  0  0  0  2  0  0  0  0  0  0
  186.7210  177.8210  142.5710 C   0  0  2  0  0  3  0  0  0  0  0  0
  183.8050  177.8350  140.7840 C   0  0  2  0  0  3  0  0  0  0  0  0
  187.3160  178.1010  145.0720 C   0  0  0  0  0  3  0  0  0  0  0  0
  183.7240  178.1100  139.3350 C   0  0  0  0  0  0  0  0  0  0  0  0
  188.4950  177.8380  140.8850 C   0  0  0  0  0  2  0  0  0  0  0  0
  190.1290  177.3260  144.0840 C   0  0  0  0  0  0  0  0  0  0  0  0
  188.3550  179.1790  148.0730 F   0  0  0  0  0  0  0  0  0  0  0  0
  187.2010  177.2910  148.4130 F   0  0  0  0  0  0  0  0  0  0  0  0
  187.4180  178.3250  147.5170 C   0  0  0  0  0  0  0  0  0  0  0  0
  186.1010  179.0800  147.3270 C   0  0  0  0  0  3  0  0  0  0  0  0
  185.0130  178.2660  147.5940 F   0  0  0  0  0  0  0  0  0  0  0  0
  186.0560  180.2040  148.1310 F   0  0  0  0  0  0  0  0  0  0  0  0
  1 15  1  0  0  0  0
  1 26  1  0  0  0  0
  2 23  1  0  0  0  0
  4 20  1  6  0  0  0
  5 22  1  6  0  0  0
  5 18  1  0  0  0  0
  6 12  1  1  0  0  0
  7 15  1  0  0  0  0
  8  4  1  0  0  0  0
  8 23  2  0  0  0  0
  9 13  1  0  0  0  0
  9  2  2  0  0  0  0
 10 11  2  0  0  0  0
 11  6  1  0  0  0  0
 11  5  1  0  0  0  0
 13  8  1  0  0  0  0
 14 10  1  0  0  0  0
 14 21  2  0  0  0  0
 16 21  1  0  0  0  0
 16 17  1  0  0  0  0
 17  3  1  0  0  0  0
 18 12  1  1  0  0  0
 18  4  1  0  0  0  0
 19  3  1  1  0  0  0
 19  6  1  0  0  0  0
 20  1  2  0  0  0  0
 21 19  1  0  0  0  0
 22 13  1  0  0  0  0
 23  7  1  0  0  0  0
 26 24  1  0  0  0  0
 26 25  1  0  0  0  0
 27 26  1  0  0  0  0
 27 28  1  0  0  0  0
 27 29  1  0  0  0  0
M  END
>  <MODEL>
7

>  <REMARK>
 VINA RESULT:      -9.3      3.051      4.419
  Name = 
  2 active torsions:
  status: ('A' for Active; 'I' for Inactive)
    1  A    between atoms: C_2  and  C_14
    2  A    between atoms: C_6  and  C_14
                            x       y       z     vdW  Elec       q    Type
                         _______ _______ _______ _____ _____    ______ ____

>  <TORSDO>
F 2

$$$$
=
 OpenBabel11062416223D

 29 34  0  0  1  0  0  0  0  0999 V2000
  187.7790  177.8990  138.2690 C   0  0  0  0  0  0  0  0  0  0  0  0
  191.7830  177.1960  139.9860 N   0  0  0  0  0  0  0  0  0  0  0  0
  184.2130  178.7980  144.8030 C   0  0  0  0  0  2  0  0  0  0  0  0
  188.3800  177.8720  140.7180 C   0  0  2  0  0  3  0  0  0  0  0  0
  188.4640  176.9840  143.0420 C   0  0  1  0  0  3  0  0  0  0  0  0
  186.2050  177.5220  143.8420 C   0  0  2  0  0  3  0  0  0  0  0  0
  190.2940  177.8760  138.2950 C   0  0  0  0  0  2  0  0  0  0  0  0
  189.7260  177.7270  140.6620 C   0  0  0  0  0  0  0  0  0  0  0  0
  191.6940  177.1240  141.3350 C   0  0  0  0  0  3  0  0  0  0  0  0
  188.0140  177.1940  145.5080 C   0  0  0  0  0  3  0  0  0  0  0  0
  187.6090  177.1450  144.2320 C   0  0  0  0  0  0  0  0  0  0  0  0
  186.3110  177.9070  142.3600 C   0  0  0  0  0  2  0  0  0  0  0  0
  190.4620  177.4590  141.7650 N   0  0  0  0  0  0  0  0  0  0  0  0
  187.0850  177.6570  146.5050 N   0  0  0  0  0  0  0  0  0  0  0  0
  189.0500  178.5770  137.8530 C   0  0  0  0  0  2  0  0  0  0  0  0
  184.9310  178.5690  146.9690 N   0  0  0  0  0  2  0  0  0  0  0  0
  183.8300  179.0020  146.2140 N   0  0  0  0  0  2  0  0  0  0  0  0
  187.8120  177.9780  142.1070 C   0  0  2  0  0  3  0  0  0  0  0  0
  185.7350  178.6760  144.7330 C   0  0  2  0  0  3  0  0  0  0  0  0
  187.4800  177.6950  139.5580 C   0  0  0  0  0  3  0  0  0  0  0  0
  186.0410  178.3470  146.1410 C   0  0  0  0  0  0  0  0  0  0  0  0
  189.9450  177.3590  143.1360 C   0  0  0  0  0  2  0  0  0  0  0  0
  190.5590  177.5850  139.5680 C   0  0  0  0  0  0  0  0  0  0  0  0
  186.9320  178.4250  136.1220 F   0  0  0  0  0  0  0  0  0  0  0  0
  185.4690  177.8590  137.7200 F   0  0  0  0  0  0  0  0  0  0  0  0
  186.7350  177.6020  137.2190 C   0  0  0  0  0  0  0  0  0  0  0  0
  186.7860  176.1420  136.7660 C   0  0  0  0  0  3  0  0  0  0  0  0
  187.9290  175.5130  137.2270 F   0  0  0  0  0  0  0  0  0  0  0  0
  185.6650  175.4540  137.1930 F   0  0  0  0  0  0  0  0  0  0  0  0
  1 20  2  0  0  0  0
  2  9  2  0  0  0  0
  3 17  1  0  0  0  0
  4 20  1  1  0  0  0
  4 18  1  0  0  0  0
  5 22  1  1  0  0  0
  5 11  1  0  0  0  0
  6 12  1  6  0  0  0
  6 11  1  0  0  0  0
  6 19  1  0  0  0  0
  7 23  1  0  0  0  0
  8  4  1  0  0  0  0
  8 13  1  0  0  0  0
  9 13  1  0  0  0  0
 10 14  1  0  0  0  0
 11 10  2  0  0  0  0
 13 22  1  0  0  0  0
 15  1  1  0  0  0  0
 15  7  1  0  0  0  0
 17 16  1  0  0  0  0
 18 12  1  6  0  0  0
 18  5  1  0  0  0  0
 19  3  1  1  0  0  0
 19 21  1  0  0  0  0
 21 14  2  0  0  0  0
 21 16  1  0  0  0  0
 23  2  1  0  0  0  0
 23  8  2  0  0  0  0
 24 26  1  0  0  0  0
 26 25  1  0  0  0  0
 26  1  1  0  0  0  0
 27 29  1  0  0  0  0
 27 26  1  0  0  0  0
 27 28  1  0  0  0  0
M  END
>  <MODEL>
8

>  <REMARK>
 VINA RESULT:      -9.3      3.803      7.295
  Name = 
  2 active torsions:
  status: ('A' for Active; 'I' for Inactive)
    1  A    between atoms: C_2  and  C_14
    2  A    between atoms: C_6  and  C_14
                            x       y       z     vdW  Elec       q    Type
                         _______ _______ _______ _____ _____    ______ ____

>  <TORSDO>
F 2

$$$$
=
 OpenBabel11062416223D

 29 34  0  0  1  0  0  0  0  0999 V2000
  189.6710  177.2360  146.9560 C   0  0  0  0  0  0  0  0  0  0  0  0
  185.4950  178.5230  147.5750 N   0  0  0  0  0  0  0  0  0  0  0  0
  189.6990  178.0520  139.5020 C   0  0  0  0  0  2  0  0  0  0  0  0
  188.0430  177.9660  145.1730 C   0  0  2  0  0  3  0  0  0  0  0  0
  186.4880  177.6970  143.2470 C   0  0  1  0  0  3  0  0  0  0  0  0
  188.0700  177.4750  141.3820 C   0  0  2  0  0  3  0  0  0  0  0  0
  187.7300  178.1960  148.2360 C   0  0  0  0  0  2  0  0  0  0  0  0
  186.9780  178.3460  145.9200 C   0  0  0  0  0  0  0  0  0  0  0  0
  184.8940  178.7110  146.3770 C   0  0  0  0  0  3  0  0  0  0  0  0
  185.7590  178.2370  140.9010 C   0  0  0  0  0  3  0  0  0  0  0  0
  186.6490  177.7640  141.7840 C   0  0  0  0  0  0  0  0  0  0  0  0
  188.8600  177.5460  142.6960 C   0  0  0  0  0  2  0  0  0  0  0  0
  185.7780  178.6260  145.3640 N   0  0  0  0  0  0  0  0  0  0  0  0
  186.2000  178.5040  139.5570 N   0  0  0  0  0  0  0  0  0  0  0  0
  189.1970  178.2480  147.9550 C   0  0  0  0  0  2  0  0  0  0  0  0
  188.0270  178.5860  138.0260 N   0  0  0  0  0  2  0  0  0  0  0  0
  189.4140  178.3860  138.0930 N   0  0  0  0  0  2  0  0  0  0  0  0
  187.8660  178.1370  143.6880 C   0  0  2  0  0  3  0  0  0  0  0  0
  188.5170  178.5170  140.3530 C   0  0  2  0  0  3  0  0  0  0  0  0
  189.1990  177.2120  145.7020 C   0  0  0  0  0  3  0  0  0  0  0  0
  187.4730  178.6400  139.3140 C   0  0  0  0  0  0  0  0  0  0  0  0
  185.4800  178.6280  143.9260 C   0  0  0  0  0  2  0  0  0  0  0  0
  186.7980  178.3090  147.2910 C   0  0  0  0  0  0  0  0  0  0  0  0
  190.3560  175.1610  147.8640 F   0  0  0  0  0  0  0  0  0  0  0  0
  191.6270  176.9590  148.2710 F   0  0  0  0  0  0  0  0  0  0  0  0
  190.8320  176.3420  147.3190 C   0  0  0  0  0  0  0  0  0  0  0  0
  191.7010  176.0190  146.1020 C   0  0  0  0  0  3  0  0  0  0  0  0
  192.1660  177.1730  145.4970 F   0  0  0  0  0  0  0  0  0  0  0  0
  192.7660  175.2120  146.4570 F   0  0  0  0  0  0  0  0  0  0  0  0
  1 26  1  0  0  0  0
  1 15  1  0  0  0  0
  4 20  1  6  0  0  0
  4  8  1  0  0  0  0
  5 18  1  0  0  0  0
  5 22  1  1  0  0  0
  6 11  1  0  0  0  0
  6 12  1  1  0  0  0
  8 23  2  0  0  0  0
  9  2  2  0  0  0  0
 10 11  2  0  0  0  0
 11  5  1  0  0  0  0
 13  8  1  0  0  0  0
 13  9  1  0  0  0  0
 14 10  1  0  0  0  0
 15  7  1  0  0  0  0
 16 17  1  0  0  0  0
 16 21  1  0  0  0  0
 17  3  1  0  0  0  0
 18 12  1  6  0  0  0
 18  4  1  0  0  0  0
 19  3  1  6  0  0  0
 19  6  1  0  0  0  0
 20  1  2  0  0  0  0
 21 14  2  0  0  0  0
 21 19  1  0  0  0  0
 22 13  1  0  0  0  0
 23  2  1  0  0  0  0
 23  7  1  0  0  0  0
 26 24  1  0  0  0  0
 26 25  1  0  0  0  0
 27 29  1  0  0  0  0
 27 26  1  0  0  0  0
 28 27  1  0  0  0  0
M  END
>  <MODEL>
9

>  <REMARK>
 VINA RESULT:      -9.2      3.390      4.889
  Name = 
  2 active torsions:
  status: ('A' for Active; 'I' for Inactive)
    1  A    between atoms: C_2  and  C_14
    2  A    between atoms: C_6  and  C_14
                            x       y       z     vdW  Elec       q    Type
                         _______ _______ _______ _____ _____    ______ ____

>  <TORSDO>
F 2

$$$$
