=
 OpenBabel11062415063D

 66 73  0  0  1  0  0  0  0  0999 V2000
  184.7740  178.5660  143.8820 C   0  0  0  0  0  0  0  0  0  0  0  0
  184.6030  177.4290  144.4090 O   0  0  0  0  0  0  0  0  0  0  0  0
  184.3150  178.9780  139.2080 C   0  0  0  0  0  2  0  0  0  0  0  0
  185.2850  179.6520  144.6610 N   0  0  0  0  0  2  0  0  0  0  0  0
  185.3460  178.4920  140.2240 C   0  0  0  0  0  2  0  0  0  0  0  0
  182.1380  178.9270  143.0450 O   0  0  0  0  0  0  0  0  0  0  0  0
  184.4040  178.7670  142.5070 N   0  0  0  0  0  0  0  0  0  0  0  0
  185.3370  179.3230  141.5020 C   0  0  1  0  0  3  0  0  0  0  0  0
  182.5740  178.1060  140.8370 C   0  0  2  0  0  3  0  0  0  0  0  0
  183.0080  178.6120  142.1870 C   0  0  0  0  0  0  0  0  0  0  0  0
  182.8920  179.1620  139.7580 C   0  0  2  0  0  3  0  0  0  0  0  0
  185.5490  179.5280  146.0890 C   0  0  0  0  0  2  0  0  0  0  0  0
  186.3730  178.2820  146.3770 C   0  0  0  0  0  2  0  0  0  0  0  0
  187.8330  178.6350  146.5880 C   0  0  0  0  0  2  0  0  0  0  0  0
  189.3330  177.0490  147.9490 C   0  0  1  0  0  3  0  0  0  0  0  0
  188.2760  178.1630  147.9670 C   0  0  2  0  0  3  0  0  0  0  0  0
  187.8720  176.7140  148.1700 C   0  0  0  0  0  2  0  0  0  0  0  0
  189.7490  176.5690  146.5610 C   0  0  0  0  0  2  0  0  0  0  0  0
  192.0610  176.6390  147.1820 O   0  0  0  0  0  1  0  0  0  0  0  0
  191.1450  177.0710  146.2210 C   0  0  1  0  0  3  0  0  0  0  0  0
  191.7350  177.6610  143.9690 O   0  0  0  0  0  1  0  0  0  0  0  0
  191.5660  176.5850  144.8420 C   0  0  0  0  0  2  0  0  0  0  0  0
  181.1240  177.6150  140.8640 C   0  0  0  0  0  2  0  0  0  0  0  0
  182.1810  175.5270  139.9140 N   0  0  0  0  0  1  0  0  0  0  0  0
  181.0570  176.1670  140.5060 C   0  0  0  0  0  0  0  0  0  0  0  0
  180.0000  175.5150  140.7080 O   0  0  0  0  0  0  0  0  0  0  0  0
  181.8800  179.1870  138.6070 C   0  0  0  0  0  2  0  0  0  0  0  0
  182.2460  178.2190  137.4930 C   0  0  2  0  0  3  0  0  0  0  0  0
  182.4730  178.9410  136.3220 O   0  0  0  0  0  1  0  0  0  0  0  0
  181.0890  177.2540  137.2800 C   0  0  0  0  0  2  0  0  0  0  0  0
  180.7280  177.1470  135.8110 C   0  0  2  0  0  3  0  0  0  0  0  0
  179.3330  177.7120  135.5950 C   0  0  0  0  0  2  0  0  0  0  0  0
  179.3990  179.1570  135.1290 C   0  0  0  0  0  2  0  0  0  0  0  0
  178.9330  180.0750  136.2420 C   0  0  0  0  0  2  0  0  0  0  0  0
  180.0280  180.9500  136.6530 N   0  0  0  0  0  2  0  0  0  0  0  0
  179.0440  184.3140  136.6700 C   0  0  0  0  0  2  0  0  0  0  0  0
  179.5050  182.2040  137.1990 C   0  0  2  0  0  3  0  0  0  0  0  0
  178.9310  183.0000  136.1950 O   0  0  0  0  0  0  0  0  0  0  0  0
  180.2960  184.4140  137.5130 C   0  0  0  0  0  2  0  0  0  0  0  0
  180.5800  182.9980  137.9160 C   0  0  0  0  0  2  0  0  0  0  0  0
  180.7650  175.6780  135.4210 C   0  0  0  0  0  2  0  0  0  0  0  0
  181.4090  174.8130  136.5030 C   0  0  1  0  0  3  0  0  0  0  0  0
  179.2940  174.1130  137.8480 C   0  0  0  0  0  2  0  0  0  0  0  0
  180.9890  172.4390  137.2730 O   0  0  0  0  0  1  0  0  0  0  0  0
  179.0890  173.6890  136.3970 C   0  0  0  0  0  2  0  0  0  0  0  0
  180.4740  173.7070  136.9970 C   0  0  0  0  0  0  0  0  0  0  0  0
  182.7760  174.2860  136.0520 C   0  0  0  0  0  2  0  0  0  0  0  0
  184.2410  173.2860  137.6570 O   0  0  0  0  0  0  0  0  0  0  0  0
  183.8490  174.3470  137.1070 C   0  0  0  0  0  0  0  0  0  0  0  0
  184.4620  175.5500  137.4590 O   0  0  0  0  0  0  0  0  0  0  0  0
  187.0200  175.2470  136.0530 O   0  0  0  0  0  0  0  0  0  0  0  0
  184.8910  177.0730  135.3230 O   0  0  0  0  0  1  0  0  0  0  0  0
  187.4270  176.5760  136.2030 C   0  0  1  0  0  3  0  0  0  0  0  0
  185.7340  176.2580  136.5420 P   0  0  0  0  0  0  0  0  0  0  0  0
  186.9310  177.1380  137.3820 O   0  0  0  0  0  0  0  0  0  0  0  0
  186.7760  179.5690  142.0010 C   0  0  0  0  0  2  0  0  0  0  0  0
  189.3790  176.0910  141.8250 C   0  0  0  0  0  3  0  0  0  0  0  0
  188.7000  178.9100  139.7170 N   0  0  0  0  0  0  0  0  0  0  0  0
  189.3320  177.0580  140.8240 C   0  0  0  0  0  0  0  0  0  0  0  0
  188.5290  178.1400  140.8970 C   0  0  0  0  0  0  0  0  0  0  0  0
  189.6550  178.2820  138.8770 N   0  0  0  0  0  0  0  0  0  0  0  0
  187.6980  177.4090  143.0200 C   0  0  0  0  0  3  0  0  0  0  0  0
  188.5430  176.2790  142.9420 C   0  0  0  0  0  3  0  0  0  0  0  0
  190.0220  177.1210  139.5930 N   0  0  0  0  0  0  0  0  0  0  0  0
  191.0130  176.1680  139.1250 C   0  0  0  0  0  1  0  0  0  0  0  0
  187.6920  178.3750  141.9890 C   0  0  0  0  0  0  0  0  0  0  0  0
  1  2  2  0  0  0  0
  1  4  1  0  0  0  0
  3 11  1  0  0  0  0
  3  5  1  0  0  0  0
  4 12  1  0  0  0  0
  5  8  1  0  0  0  0
  7  1  1  0  0  0  0
  8 56  1  1  0  0  0
  8  7  1  0  0  0  0
  9 23  1  1  0  0  0
  9 10  1  0  0  0  0
 10  7  1  0  0  0  0
 10  6  2  0  0  0  0
 11 27  1  6  0  0  0
 11  9  1  0  0  0  0
 12 13  1  0  0  0  0
 13 14  1  0  0  0  0
 15 18  1  6  0  0  0
 15 16  1  0  0  0  0
 15 17  1  0  0  0  0
 16 14  1  6  0  0  0
 16 17  1  0  0  0  0
 20 18  1  0  0  0  0
 20 19  1  1  0  0  0
 21 22  1  0  0  0  0
 22 20  1  0  0  0  0
 24 25  1  0  0  0  0
 25 26  2  0  0  0  0
 25 23  1  0  0  0  0
 28 29  1  6  0  0  0
 28 27  1  0  0  0  0
 30 28  1  0  0  0  0
 31 41  1  1  0  0  0
 31 30  1  0  0  0  0
 32 31  1  0  0  0  0
 33 32  1  0  0  0  0
 33 34  1  0  0  0  0
 34 35  1  0  0  0  0
 36 39  1  0  0  0  0
 37 35  1  6  0  0  0
 37 40  1  0  0  0  0
 38 36  1  0  0  0  0
 38 37  1  0  0  0  0
 39 40  1  0  0  0  0
 42 41  1  6  0  0  0
 42 46  1  0  0  0  0
 45 46  1  0  0  0  0
 45 43  1  0  0  0  0
 46 44  1  0  0  0  0
 46 43  1  0  0  0  0
 47 42  1  0  0  0  0
 47 49  1  0  0  0  0
 49 50  1  0  0  0  0
 49 48  2  0  0  0  0
 51 54  1  0  0  0  0
 52 54  1  0  0  0  0
 53 51  1  1  0  0  0
 53 54  1  0  0  0  0
 53 55  1  0  0  0  0
 54 55  1  0  0  0  0
 54 50  1  0  0  0  0
 57 63  1  0  0  0  0
 58 60  1  0  0  0  0
 59 60  1  0  0  0  0
 59 57  2  0  0  0  0
 60 66  2  0  0  0  0
 61 64  1  0  0  0  0
 61 58  2  0  0  0  0
 63 62  2  0  0  0  0
 64 59  1  0  0  0  0
 65 64  1  0  0  0  0
 66 56  1  0  0  0  0
 66 62  1  0  0  0  0
M  END
>  <MODEL>
1

>  <REMARK>
 VINA RESULT:      -5.0      0.000      0.000
  Name = 
  27 active torsions:
  status: ('A' for Active; 'I' for Inactive)
    1  A    between atoms: C_2  and  C_19
    2  A    between atoms: C_2  and  C_60
    3  A    between atoms: C_10  and  C_45
    4  A    between atoms: C_10  and  C_51
    5  A    between atoms: C_12  and  C_30
    6  A    between atoms: C_14  and  C_17
    7  A    between atoms: C_14  and  C_46
    8  A    between atoms: C_15  and  C_21
    9  A    between atoms: C_15  and  C_60
   10  A    between atoms: C_17  and  N_64
   11  A    between atoms: C_19  and  O_55
   12  A    between atoms: C_21  and  C_46
   13  A    between atoms: C_21  and  C_65
   14  A    between atoms: N_22  and  C_51
   15  A    between atoms: C_27  and  N_64
   16  A    between atoms: C_29  and  C_53
   17  A    between atoms: C_30  and  C_63
   18  A    between atoms: C_32  and  C_47
   19  A    between atoms: C_32  and  C_62
   20  A    between atoms: C_34  and  C_40
   21  A    between atoms: C_34  and  C_65
   22  A    between atoms: P_38  and  O_55
   23  A    between atoms: C_40  and  C_66
   24  A    between atoms: C_42  and  C_45
   25  A    between atoms: C_49  and  C_53
   26  A    between atoms: C_52  and  C_60
   27  A    between atoms: C_56  and  C_63
                            x       y       z     vdW  Elec       q    Type
                         _______ _______ _______ _____ _____    ______ ____

>  <TORSDO>
F 27

$$$$
=
 OpenBabel11062415063D

 66 73  0  0  1  0  0  0  0  0999 V2000
  189.2420  177.2810  142.1750 C   0  0  0  0  0  0  0  0  0  0  0  0
  189.1720  176.1210  142.6710 O   0  0  0  0  0  0  0  0  0  0  0  0
  185.8480  178.6810  139.2170 C   0  0  0  0  0  2  0  0  0  0  0  0
  190.4210  178.0720  142.3550 N   0  0  0  0  0  2  0  0  0  0  0  0
  187.1030  177.8110  139.1980 C   0  0  0  0  0  2  0  0  0  0  0  0
  186.9930  178.3130  143.4620 O   0  0  0  0  0  0  0  0  0  0  0  0
  188.1070  177.8170  141.4720 N   0  0  0  0  0  0  0  0  0  0  0  0
  188.2030  178.3610  140.0990 C   0  0  1  0  0  3  0  0  0  0  0  0
  185.5470  177.8690  141.6030 C   0  0  2  0  0  3  0  0  0  0  0  0
  186.9040  178.0070  142.2410 C   0  0  0  0  0  0  0  0  0  0  0  0
  185.3170  179.0310  140.6150 C   0  0  2  0  0  3  0  0  0  0  0  0
  191.5430  177.6220  143.1700 C   0  0  0  0  0  2  0  0  0  0  0  0
  191.2770  177.8890  144.6440 C   0  0  0  0  0  2  0  0  0  0  0  0
  190.7640  176.6420  145.3370 C   0  0  0  0  0  2  0  0  0  0  0  0
  189.5150  177.0600  147.5470 C   0  0  1  0  0  3  0  0  0  0  0  0
  190.8620  176.8230  146.8470 C   0  0  2  0  0  3  0  0  0  0  0  0
  190.4270  178.2270  147.2260 C   0  0  0  0  0  2  0  0  0  0  0  0
  188.3010  177.1090  146.6240 C   0  0  0  0  0  2  0  0  0  0  0  0
  187.4010  177.8620  148.7110 O   0  0  0  0  0  1  0  0  0  0  0  0
  187.0610  177.5300  147.3980 C   0  0  1  0  0  3  0  0  0  0  0  0
  185.0010  178.6660  146.9150 O   0  0  0  0  0  1  0  0  0  0  0  0
  186.3820  178.7110  146.7200 C   0  0  0  0  0  2  0  0  0  0  0  0
  184.4520  177.6790  142.6560 C   0  0  0  0  0  2  0  0  0  0  0  0
  182.6410  179.3180  143.3020 N   0  0  0  0  0  1  0  0  0  0  0  0
  184.0250  178.9990  143.2080 C   0  0  0  0  0  0  0  0  0  0  0  0
  184.8870  179.8400  143.5730 O   0  0  0  0  0  0  0  0  0  0  0  0
  183.8540  179.4800  140.5260 C   0  0  0  0  0  2  0  0  0  0  0  0
  183.3650  179.5830  139.0900 C   0  0  2  0  0  3  0  0  0  0  0  0
  183.0630  180.9140  138.8080 O   0  0  0  0  0  1  0  0  0  0  0  0
  182.1130  178.7330  138.9340 C   0  0  0  0  0  2  0  0  0  0  0  0
  181.6610  178.6850  137.4870 C   0  0  2  0  0  3  0  0  0  0  0  0
  180.8290  179.9200  137.1810 C   0  0  0  0  0  2  0  0  0  0  0  0
  180.9210  180.2850  135.7080 C   0  0  0  0  0  2  0  0  0  0  0  0
  179.8540  181.3050  135.3670 C   0  0  0  0  0  2  0  0  0  0  0  0
  180.4790  182.5780  135.0150 N   0  0  0  0  0  2  0  0  0  0  0  0
  179.5090  184.4740  137.7990 C   0  0  0  0  0  2  0  0  0  0  0  0
  180.6420  183.4160  136.2050 C   0  0  2  0  0  3  0  0  0  0  0  0
  179.5620  183.2670  137.0890 O   0  0  0  0  0  0  0  0  0  0  0  0
  179.9890  185.5860  136.8920 C   0  0  0  0  0  2  0  0  0  0  0  0
  180.7980  184.8810  135.8460 C   0  0  0  0  0  2  0  0  0  0  0  0
  180.8260  177.4290  137.2940 C   0  0  0  0  0  2  0  0  0  0  0  0
  181.6040  176.3270  136.5780 C   0  0  1  0  0  3  0  0  0  0  0  0
  184.0930  177.0770  136.4480 C   0  0  0  0  0  2  0  0  0  0  0  0
  182.5120  177.7720  134.7090 O   0  0  0  0  0  1  0  0  0  0  0  0
  183.8990  175.9200  135.4730 C   0  0  0  0  0  2  0  0  0  0  0  0
  182.7680  176.8790  135.7510 C   0  0  0  0  0  0  0  0  0  0  0  0
  182.0310  175.2250  137.5530 C   0  0  0  0  0  2  0  0  0  0  0  0
  179.8340  174.3520  137.9180 O   0  0  0  0  0  0  0  0  0  0  0  0
  181.0450  174.0960  137.6940 C   0  0  0  0  0  0  0  0  0  0  0  0
  181.4300  172.7640  137.5340 O   0  0  0  0  0  0  0  0  0  0  0  0
  183.2780  170.6660  136.6450 O   0  0  0  0  0  0  0  0  0  0  0  0
  182.2570  172.8280  135.0080 O   0  0  0  0  0  1  0  0  0  0  0  0
  184.3060  171.5310  136.2600 C   0  0  1  0  0  3  0  0  0  0  0  0
  182.7440  172.2830  136.5330 P   0  0  0  0  0  0  0  0  0  0  0  0
  184.3230  172.6910  137.0380 O   0  0  0  0  0  0  0  0  0  0  0  0
  189.5830  178.2160  139.4250 C   0  0  0  0  0  2  0  0  0  0  0  0
  189.7140  176.6470  135.3720 C   0  0  0  0  0  3  0  0  0  0  0  0
  190.8210  175.5440  138.5990 N   0  0  0  0  0  0  0  0  0  0  0  0
  190.2390  175.9680  136.4690 C   0  0  0  0  0  0  0  0  0  0  0  0
  190.1800  176.4600  137.7250 C   0  0  0  0  0  0  0  0  0  0  0  0
  191.2930  174.4320  137.8560 N   0  0  0  0  0  0  0  0  0  0  0  0
  189.0460  178.4130  136.9310 C   0  0  0  0  0  3  0  0  0  0  0  0
  189.1050  177.8930  135.6180 C   0  0  0  0  0  3  0  0  0  0  0  0
  190.9230  174.7330  136.5260 N   0  0  0  0  0  0  0  0  0  0  0  0
  191.1810  173.8520  135.4010 C   0  0  0  0  0  1  0  0  0  0  0  0
  189.5770  177.6840  138.0180 C   0  0  0  0  0  0  0  0  0  0  0  0
  1  4  1  0  0  0  0
  1  2  2  0  0  0  0
  3 11  1  0  0  0  0
  4 12  1  0  0  0  0
  5  3  1  0  0  0  0
  5  8  1  0  0  0  0
  7  1  1  0  0  0  0
  7 10  1  0  0  0  0
  8 56  1  6  0  0  0
  8  7  1  0  0  0  0
  9 10  1  0  0  0  0
  9 23  1  1  0  0  0
 10  6  2  0  0  0  0
 11 27  1  6  0  0  0
 11  9  1  0  0  0  0
 12 13  1  0  0  0  0
 13 14  1  0  0  0  0
 15 18  1  6  0  0  0
 16 14  1  6  0  0  0
 16 17  1  0  0  0  0
 16 15  1  0  0  0  0
 17 15  1  0  0  0  0
 18 20  1  0  0  0  0
 20 19  1  1  0  0  0
 22 21  1  0  0  0  0
 22 20  1  0  0  0  0
 23 25  1  0  0  0  0
 25 24  1  0  0  0  0
 25 26  2  0  0  0  0
 28 29  1  1  0  0  0
 28 27  1  0  0  0  0
 30 28  1  0  0  0  0
 31 32  1  1  0  0  0
 31 30  1  0  0  0  0
 33 32  1  0  0  0  0
 34 33  1  0  0  0  0
 35 34  1  0  0  0  0
 37 35  1  6  0  0  0
 37 38  1  0  0  0  0
 38 36  1  0  0  0  0
 39 36  1  0  0  0  0
 40 37  1  0  0  0  0
 40 39  1  0  0  0  0
 41 31  1  0  0  0  0
 42 41  1  1  0  0  0
 42 47  1  0  0  0  0
 44 46  1  0  0  0  0
 45 46  1  0  0  0  0
 45 43  1  0  0  0  0
 46 43  1  0  0  0  0
 46 42  1  0  0  0  0
 47 49  1  0  0  0  0
 49 48  2  0  0  0  0
 50 49  1  0  0  0  0
 52 54  1  0  0  0  0
 53 54  1  0  0  0  0
 53 51  1  1  0  0  0
 53 55  1  0  0  0  0
 54 51  1  0  0  0  0
 54 55  1  0  0  0  0
 54 50  1  0  0  0  0
 57 63  2  0  0  0  0
 57 59  1  0  0  0  0
 59 64  1  0  0  0  0
 59 60  2  0  0  0  0
 60 66  1  0  0  0  0
 60 58  1  0  0  0  0
 61 58  2  0  0  0  0
 62 66  2  0  0  0  0
 63 62  1  0  0  0  0
 64 61  1  0  0  0  0
 65 64  1  0  0  0  0
 66 56  1  0  0  0  0
M  END
>  <MODEL>
2

>  <REMARK>
 VINA RESULT:      -4.5      2.178      4.287
  Name = 
  27 active torsions:
  status: ('A' for Active; 'I' for Inactive)
    1  A    between atoms: C_2  and  C_19
    2  A    between atoms: C_2  and  C_60
    3  A    between atoms: C_10  and  C_45
    4  A    between atoms: C_10  and  C_51
    5  A    between atoms: C_12  and  C_30
    6  A    between atoms: C_14  and  C_17
    7  A    between atoms: C_14  and  C_46
    8  A    between atoms: C_15  and  C_21
    9  A    between atoms: C_15  and  C_60
   10  A    between atoms: C_17  and  N_64
   11  A    between atoms: C_19  and  O_55
   12  A    between atoms: C_21  and  C_46
   13  A    between atoms: C_21  and  C_65
   14  A    between atoms: N_22  and  C_51
   15  A    between atoms: C_27  and  N_64
   16  A    between atoms: C_29  and  C_53
   17  A    between atoms: C_30  and  C_63
   18  A    between atoms: C_32  and  C_47
   19  A    between atoms: C_32  and  C_62
   20  A    between atoms: C_34  and  C_40
   21  A    between atoms: C_34  and  C_65
   22  A    between atoms: P_38  and  O_55
   23  A    between atoms: C_40  and  C_66
   24  A    between atoms: C_42  and  C_45
   25  A    between atoms: C_49  and  C_53
   26  A    between atoms: C_52  and  C_60
   27  A    between atoms: C_56  and  C_63
                            x       y       z     vdW  Elec       q    Type
                         _______ _______ _______ _____ _____    ______ ____

>  <TORSDO>
F 27

$$$$
=
 OpenBabel11062415063D

 66 73  0  0  1  0  0  0  0  0999 V2000
  180.1950  178.3490  138.2930 C   0  0  0  0  0  0  0  0  0  0  0  0
  179.0200  177.8910  138.2030 O   0  0  0  0  0  0  0  0  0  0  0  0
  183.8100  175.3270  138.1290 C   0  0  0  0  0  2  0  0  0  0  0  0
  180.4100  179.7220  138.6300 N   0  0  0  0  0  2  0  0  0  0  0  0
  182.7670  175.8190  139.1300 C   0  0  0  0  0  2  0  0  0  0  0  0
  180.9880  177.6930  135.7000 O   0  0  0  0  0  0  0  0  0  0  0  0
  181.3100  177.4870  138.0020 N   0  0  0  0  0  0  0  0  0  0  0  0
  182.4360  177.2950  138.9430 C   0  0  1  0  0  3  0  0  0  0  0  0
  181.9990  175.6290  136.3760 C   0  0  2  0  0  3  0  0  0  0  0  0
  181.3990  176.9810  136.6560 C   0  0  0  0  0  0  0  0  0  0  0  0
  183.5150  175.6630  136.6590 C   0  0  2  0  0  3  0  0  0  0  0  0
  179.3100  180.6620  138.8030 C   0  0  0  0  0  2  0  0  0  0  0  0
  178.9310  181.2970  137.4740 C   0  0  0  0  0  2  0  0  0  0  0  0
  180.0320  181.1040  136.4480 C   0  0  0  0  0  2  0  0  0  0  0  0
  180.3730  183.2230  135.0310 C   0  0  1  0  0  3  0  0  0  0  0  0
  179.6780  181.8610  135.1740 C   0  0  2  0  0  3  0  0  0  0  0  0
  178.9410  183.1410  135.5240 C   0  0  0  0  0  2  0  0  0  0  0  0
  181.2770  183.6180  136.1950 C   0  0  0  0  0  2  0  0  0  0  0  0
  181.1340  185.8440  135.3260 O   0  0  0  0  0  1  0  0  0  0  0  0
  181.1270  185.1000  136.5060 C   0  0  1  0  0  3  0  0  0  0  0  0
  180.0680  186.2290  138.3430 O   0  0  0  0  0  1  0  0  0  0  0  0
  179.8410  185.3560  137.2780 C   0  0  0  0  0  2  0  0  0  0  0  0
  181.6050  175.1210  134.9860 C   0  0  0  0  0  2  0  0  0  0  0  0
  179.2920  174.1690  135.3390 N   0  0  0  0  0  1  0  0  0  0  0  0
  180.6780  173.9560  135.1000 C   0  0  0  0  0  0  0  0  0  0  0  0
  181.1240  172.7830  135.0070 O   0  0  0  0  0  0  0  0  0  0  0  0
  184.3320  174.7530  135.7350 C   0  0  0  0  0  2  0  0  0  0  0  0
  185.4360  174.0160  136.4760 C   0  0  2  0  0  3  0  0  0  0  0  0
  184.8720  172.9670  137.2020 O   0  0  0  0  0  1  0  0  0  0  0  0
  186.1220  174.9830  137.4290 C   0  0  0  0  0  2  0  0  0  0  0  0
  187.5090  175.3470  136.9360 C   0  0  2  0  0  3  0  0  0  0  0  0
  188.0880  174.1750  136.1600 C   0  0  0  0  0  2  0  0  0  0  0  0
  188.6410  174.6330  134.8200 C   0  0  0  0  0  2  0  0  0  0  0  0
  190.0960  175.0260  134.9750 C   0  0  0  0  0  2  0  0  0  0  0  0
  190.7770  174.0710  135.8460 N   0  0  0  0  0  2  0  0  0  0  0  0
  193.9140  174.2820  137.3970 C   0  0  0  0  0  2  0  0  0  0  0  0
  192.1860  174.4370  136.0050 C   0  0  2  0  0  3  0  0  0  0  0  0
  192.8550  173.5410  136.8530 O   0  0  0  0  0  0  0  0  0  0  0  0
  193.4770  175.7260  137.5160 C   0  0  0  0  0  2  0  0  0  0  0  0
  192.3460  175.8480  136.5390 C   0  0  0  0  0  2  0  0  0  0  0  0
  188.3760  175.6530  138.1480 C   0  0  0  0  0  2  0  0  0  0  0  0
  188.9160  177.0810  138.1210 C   0  0  1  0  0  3  0  0  0  0  0  0
  188.7050  179.2480  136.6950 C   0  0  0  0  0  2  0  0  0  0  0  0
  186.6920  178.1520  137.5600 O   0  0  0  0  0  1  0  0  0  0  0  0
  188.3710  178.0610  135.7970 C   0  0  0  0  0  2  0  0  0  0  0  0
  188.0500  178.0150  137.2710 C   0  0  0  0  0  0  0  0  0  0  0  0
  189.1550  177.6110  139.5390 C   0  0  0  0  0  2  0  0  0  0  0  0
  191.5050  177.3130  139.8760 O   0  0  0  0  0  0  0  0  0  0  0  0
  190.3420  177.0060  140.2420 C   0  0  0  0  0  0  0  0  0  0  0  0
  190.1870  176.1450  141.3290 O   0  0  0  0  0  0  0  0  0  0  0  0
  188.6140  176.4540  143.7870 O   0  0  0  0  0  0  0  0  0  0  0  0
  191.4790  176.0410  143.6500 O   0  0  0  0  0  1  0  0  0  0  0  0
  189.3040  177.5730  144.2620 C   0  0  1  0  0  3  0  0  0  0  0  0
  190.0840  176.6980  142.9550 P   0  0  0  0  0  0  0  0  0  0  0  0
  189.7940  178.3600  143.2160 O   0  0  0  0  0  0  0  0  0  0  0  0
  182.2830  177.9950  140.3080 C   0  0  0  0  0  2  0  0  0  0  0  0
  185.9070  179.1270  142.4280 C   0  0  0  0  0  3  0  0  0  0  0  0
  182.5050  178.4380  143.3270 N   0  0  0  0  0  0  0  0  0  0  0  0
  184.6870  178.9140  143.0650 C   0  0  0  0  0  0  0  0  0  0  0  0
  183.5720  178.5490  142.3970 C   0  0  0  0  0  0  0  0  0  0  0  0
  182.9790  178.7400  144.6290 N   0  0  0  0  0  0  0  0  0  0  0  0
  184.7760  178.5710  140.3280 C   0  0  0  0  0  3  0  0  0  0  0  0
  185.9430  178.9480  141.0310 C   0  0  0  0  0  3  0  0  0  0  0  0
  184.3440  179.0440  144.4290 N   0  0  0  0  0  0  0  0  0  0  0  0
  185.2560  179.3910  145.5050 C   0  0  0  0  0  1  0  0  0  0  0  0
  183.5630  178.3490  141.0160 C   0  0  0  0  0  0  0  0  0  0  0  0
  1  4  1  0  0  0  0
  2  1  2  0  0  0  0
  3  5  1  0  0  0  0
  4 12  1  0  0  0  0
  6 10  2  0  0  0  0
  7  1  1  0  0  0  0
  7  8  1  0  0  0  0
  8  5  1  0  0  0  0
  8 56  1  1  0  0  0
  9 23  1  6  0  0  0
  9 10  1  0  0  0  0
  9 11  1  0  0  0  0
 10  7  1  0  0  0  0
 11 27  1  6  0  0  0
 11  3  1  0  0  0  0
 13 12  1  0  0  0  0
 14 13  1  0  0  0  0
 15 16  1  0  0  0  0
 15 17  1  0  0  0  0
 15 18  1  1  0  0  0
 16 17  1  0  0  0  0
 16 14  1  1  0  0  0
 18 20  1  0  0  0  0
 20 19  1  6  0  0  0
 20 22  1  0  0  0  0
 22 21  1  0  0  0  0
 23 25  1  0  0  0  0
 25 24  1  0  0  0  0
 26 25  2  0  0  0  0
 27 28  1  0  0  0  0
 28 29  1  1  0  0  0
 28 30  1  0  0  0  0
 31 32  1  1  0  0  0
 31 30  1  0  0  0  0
 31 41  1  0  0  0  0
 33 34  1  0  0  0  0
 33 32  1  0  0  0  0
 34 35  1  0  0  0  0
 36 39  1  0  0  0  0
 37 35  1  1  0  0  0
 37 40  1  0  0  0  0
 37 38  1  0  0  0  0
 38 36  1  0  0  0  0
 40 39  1  0  0  0  0
 42 41  1  1  0  0  0
 42 47  1  0  0  0  0
 43 46  1  0  0  0  0
 45 43  1  0  0  0  0
 45 46  1  0  0  0  0
 46 44  1  0  0  0  0
 46 42  1  0  0  0  0
 47 49  1  0  0  0  0
 48 49  2  0  0  0  0
 49 50  1  0  0  0  0
 50 54  1  0  0  0  0
 51 53  1  0  0  0  0
 53 55  1  6  0  0  0
 54 55  1  0  0  0  0
 54 52  1  0  0  0  0
 54 51  1  0  0  0  0
 54 53  1  0  0  0  0
 56 66  1  0  0  0  0
 57 59  1  0  0  0  0
 58 61  2  0  0  0  0
 59 64  1  0  0  0  0
 60 59  2  0  0  0  0
 60 58  1  0  0  0  0
 62 66  2  0  0  0  0
 62 63  1  0  0  0  0
 63 57  2  0  0  0  0
 64 61  1  0  0  0  0
 64 65  1  0  0  0  0
 66 60  1  0  0  0  0
M  END
>  <MODEL>
3

>  <REMARK>
 VINA RESULT:      -4.0      2.692     10.005
  Name = 
  27 active torsions:
  status: ('A' for Active; 'I' for Inactive)
    1  A    between atoms: C_2  and  C_19
    2  A    between atoms: C_2  and  C_60
    3  A    between atoms: C_10  and  C_45
    4  A    between atoms: C_10  and  C_51
    5  A    between atoms: C_12  and  C_30
    6  A    between atoms: C_14  and  C_17
    7  A    between atoms: C_14  and  C_46
    8  A    between atoms: C_15  and  C_21
    9  A    between atoms: C_15  and  C_60
   10  A    between atoms: C_17  and  N_64
   11  A    between atoms: C_19  and  O_55
   12  A    between atoms: C_21  and  C_46
   13  A    between atoms: C_21  and  C_65
   14  A    between atoms: N_22  and  C_51
   15  A    between atoms: C_27  and  N_64
   16  A    between atoms: C_29  and  C_53
   17  A    between atoms: C_30  and  C_63
   18  A    between atoms: C_32  and  C_47
   19  A    between atoms: C_32  and  C_62
   20  A    between atoms: C_34  and  C_40
   21  A    between atoms: C_34  and  C_65
   22  A    between atoms: P_38  and  O_55
   23  A    between atoms: C_40  and  C_66
   24  A    between atoms: C_42  and  C_45
   25  A    between atoms: C_49  and  C_53
   26  A    between atoms: C_52  and  C_60
   27  A    between atoms: C_56  and  C_63
                            x       y       z     vdW  Elec       q    Type
                         _______ _______ _______ _____ _____    ______ ____

>  <TORSDO>
F 27

$$$$
=
 OpenBabel11062415063D

 66 73  0  0  1  0  0  0  0  0999 V2000
  188.2480  176.9810  136.9030 C   0  0  0  0  0  0  0  0  0  0  0  0
  189.0710  176.0960  137.2720 O   0  0  0  0  0  0  0  0  0  0  0  0
  184.6640  178.0660  139.7690 C   0  0  0  0  0  2  0  0  0  0  0  0
  188.2940  177.4980  135.5700 N   0  0  0  0  0  2  0  0  0  0  0  0
  185.0480  176.9770  138.7690 C   0  0  0  0  0  2  0  0  0  0  0  0
  188.9070  178.8600  138.8570 O   0  0  0  0  0  0  0  0  0  0  0  0
  187.2990  177.5000  137.8520 N   0  0  0  0  0  0  0  0  0  0  0  0
  185.8430  177.5280  137.5890 C   0  0  1  0  0  3  0  0  0  0  0  0
  187.1390  178.1710  140.3210 C   0  0  2  0  0  3  0  0  0  0  0  0
  187.8410  178.1990  138.9890 C   0  0  0  0  0  0  0  0  0  0  0  0
  185.8200  178.9660  140.2310 C   0  0  2  0  0  3  0  0  0  0  0  0
  189.3220  177.0980  134.6160 C   0  0  0  0  0  2  0  0  0  0  0  0
  189.4750  175.5850  134.5940 C   0  0  0  0  0  2  0  0  0  0  0  0
  190.9390  175.1880  134.5960 C   0  0  0  0  0  2  0  0  0  0  0  0
  192.4540  173.9090  136.2340 C   0  0  1  0  0  3  0  0  0  0  0  0
  191.1280  173.9480  135.4590 C   0  0  2  0  0  3  0  0  0  0  0  0
  192.3000  173.1330  134.9410 C   0  0  0  0  0  2  0  0  0  0  0  0
  193.3840  175.0950  135.9950 C   0  0  0  0  0  2  0  0  0  0  0  0
  194.5430  175.4350  138.0620 O   0  0  0  0  0  1  0  0  0  0  0  0
  194.6800  174.9200  136.7710 C   0  0  1  0  0  3  0  0  0  0  0  0
  195.2570  173.0440  138.1550 O   0  0  0  0  0  1  0  0  0  0  0  0
  195.0720  173.4510  136.8340 C   0  0  0  0  0  2  0  0  0  0  0  0
  188.0790  178.5910  141.4560 C   0  0  0  0  0  2  0  0  0  0  0  0
  188.6630  176.2600  142.2350 N   0  0  0  0  0  1  0  0  0  0  0  0
  189.0840  177.5190  141.7220 C   0  0  0  0  0  0  0  0  0  0  0  0
  190.3060  177.7340  141.5150 O   0  0  0  0  0  0  0  0  0  0  0  0
  185.4440  179.6800  141.5340 C   0  0  0  0  0  2  0  0  0  0  0  0
  185.5340  178.7650  142.7440 C   0  0  2  0  0  3  0  0  0  0  0  0
  184.9060  177.5560  142.4460 O   0  0  0  0  0  1  0  0  0  0  0  0
  184.8310  179.4290  143.9180 C   0  0  0  0  0  2  0  0  0  0  0  0
  184.0340  178.4190  144.7220 C   0  0  2  0  0  3  0  0  0  0  0  0
  182.5570  178.7750  144.6500 C   0  0  0  0  0  2  0  0  0  0  0  0
  182.1460  179.0960  143.2220 C   0  0  0  0  0  2  0  0  0  0  0  0
  180.6500  179.3330  143.1630 C   0  0  0  0  0  2  0  0  0  0  0  0
  180.3370  180.2480  142.0680 N   0  0  0  0  0  2  0  0  0  0  0  0
  180.2460  179.8400  138.5870 C   0  0  0  0  0  2  0  0  0  0  0  0
  180.5580  179.5960  140.7750 C   0  0  2  0  0  3  0  0  0  0  0  0
  180.6490  180.5350  139.7360 O   0  0  0  0  0  0  0  0  0  0  0  0
  179.2210  178.8020  138.9890 C   0  0  0  0  0  2  0  0  0  0  0  0
  179.4640  178.5950  140.4540 C   0  0  0  0  0  2  0  0  0  0  0  0
  184.5170  178.4750  146.1620 C   0  0  0  0  0  2  0  0  0  0  0  0
  186.0320  178.6420  146.2530 C   0  0  1  0  0  3  0  0  0  0  0  0
  186.8870  178.1860  148.6690 C   0  0  0  0  0  2  0  0  0  0  0  0
  185.9120  180.3630  148.1060 O   0  0  0  0  0  1  0  0  0  0  0  0
  187.9400  179.0220  147.9480 C   0  0  0  0  0  2  0  0  0  0  0  0
  186.4780  179.1860  147.6130 C   0  0  0  0  0  0  0  0  0  0  0  0
  186.7580  177.3520  145.8570 C   0  0  0  0  0  2  0  0  0  0  0  0
  188.5090  178.4360  144.6380 O   0  0  0  0  0  0  0  0  0  0  0  0
  188.2000  177.5390  145.4640 C   0  0  0  0  0  0  0  0  0  0  0  0
  189.2190  176.7740  146.0330 O   0  0  0  0  0  0  0  0  0  0  0  0
  191.3340  178.2500  144.6340 O   0  0  0  0  0  0  0  0  0  0  0  0
  191.7000  176.5650  146.9630 O   0  0  0  0  0  1  0  0  0  0  0  0
  192.1130  177.1300  144.3250 C   0  0  1  0  0  3  0  0  0  0  0  0
  190.8610  176.8750  145.5280 P   0  0  0  0  0  0  0  0  0  0  0  0
  191.3280  175.9890  144.1460 O   0  0  0  0  0  0  0  0  0  0  0  0
  185.3950  176.8610  136.2730 C   0  0  0  0  0  2  0  0  0  0  0  0
  181.2020  175.7870  135.8680 C   0  0  0  0  0  3  0  0  0  0  0  0
  184.2580  174.0330  136.5280 N   0  0  0  0  0  0  0  0  0  0  0  0
  182.2030  174.8580  136.1410 C   0  0  0  0  0  0  0  0  0  0  0  0
  183.4990  175.2060  136.2780 C   0  0  0  0  0  0  0  0  0  0  0  0
  183.3950  172.9080  136.5530 N   0  0  0  0  0  0  0  0  0  0  0  0
  182.9500  177.5000  135.8720 C   0  0  0  0  0  3  0  0  0  0  0  0
  181.5920  177.1330  135.7330 C   0  0  0  0  0  3  0  0  0  0  0  0
  182.1190  173.4560  136.2970 N   0  0  0  0  0  0  0  0  0  0  0  0
  180.8990  172.6680  136.2550 C   0  0  0  0  0  1  0  0  0  0  0  0
  183.9320  176.5280  136.1650 C   0  0  0  0  0  0  0  0  0  0  0  0
  1  2  2  0  0  0  0
  1  7  1  0  0  0  0
  3 11  1  0  0  0  0
  4  1  1  0  0  0  0
  5  3  1  0  0  0  0
  6 10  2  0  0  0  0
  7 10  1  0  0  0  0
  8 56  1  6  0  0  0
  8  7  1  0  0  0  0
  8  5  1  0  0  0  0
  9 23  1  1  0  0  0
 10  9  1  0  0  0  0
 11  9  1  0  0  0  0
 11 27  1  1  0  0  0
 12  4  1  0  0  0  0
 13 14  1  0  0  0  0
 13 12  1  0  0  0  0
 15 18  1  6  0  0  0
 16 14  1  6  0  0  0
 16 15  1  0  0  0  0
 17 16  1  0  0  0  0
 17 15  1  0  0  0  0
 18 20  1  0  0  0  0
 20 22  1  0  0  0  0
 20 19  1  1  0  0  0
 22 21  1  0  0  0  0
 23 25  1  0  0  0  0
 25 24  1  0  0  0  0
 26 25  2  0  0  0  0
 27 28  1  0  0  0  0
 28 29  1  6  0  0  0
 28 30  1  0  0  0  0
 31 30  1  6  0  0  0
 31 41  1  0  0  0  0
 32 31  1  0  0  0  0
 33 32  1  0  0  0  0
 34 33  1  0  0  0  0
 35 34  1  0  0  0  0
 36 39  1  0  0  0  0
 36 38  1  0  0  0  0
 37 35  1  1  0  0  0
 38 37  1  0  0  0  0
 39 40  1  0  0  0  0
 40 37  1  0  0  0  0
 41 42  1  0  0  0  0
 42 47  1  1  0  0  0
 42 46  1  0  0  0  0
 45 43  1  0  0  0  0
 46 45  1  0  0  0  0
 46 44  1  0  0  0  0
 46 43  1  0  0  0  0
 48 49  2  0  0  0  0
 49 47  1  0  0  0  0
 49 50  1  0  0  0  0
 51 54  1  0  0  0  0
 53 55  1  6  0  0  0
 53 51  1  0  0  0  0
 53 54  1  0  0  0  0
 54 50  1  0  0  0  0
 54 52  1  0  0  0  0
 55 54  1  0  0  0  0
 57 59  1  0  0  0  0
 58 61  2  0  0  0  0
 59 60  2  0  0  0  0
 59 64  1  0  0  0  0
 60 58  1  0  0  0  0
 62 66  2  0  0  0  0
 63 57  2  0  0  0  0
 63 62  1  0  0  0  0
 64 61  1  0  0  0  0
 65 64  1  0  0  0  0
 66 56  1  0  0  0  0
 66 60  1  0  0  0  0
M  END
>  <MODEL>
4

>  <REMARK>
 VINA RESULT:      -3.9      3.179      9.300
  Name = 
  27 active torsions:
  status: ('A' for Active; 'I' for Inactive)
    1  A    between atoms: C_2  and  C_19
    2  A    between atoms: C_2  and  C_60
    3  A    between atoms: C_10  and  C_45
    4  A    between atoms: C_10  and  C_51
    5  A    between atoms: C_12  and  C_30
    6  A    between atoms: C_14  and  C_17
    7  A    between atoms: C_14  and  C_46
    8  A    between atoms: C_15  and  C_21
    9  A    between atoms: C_15  and  C_60
   10  A    between atoms: C_17  and  N_64
   11  A    between atoms: C_19  and  O_55
   12  A    between atoms: C_21  and  C_46
   13  A    between atoms: C_21  and  C_65
   14  A    between atoms: N_22  and  C_51
   15  A    between atoms: C_27  and  N_64
   16  A    between atoms: C_29  and  C_53
   17  A    between atoms: C_30  and  C_63
   18  A    between atoms: C_32  and  C_47
   19  A    between atoms: C_32  and  C_62
   20  A    between atoms: C_34  and  C_40
   21  A    between atoms: C_34  and  C_65
   22  A    between atoms: P_38  and  O_55
   23  A    between atoms: C_40  and  C_66
   24  A    between atoms: C_42  and  C_45
   25  A    between atoms: C_49  and  C_53
   26  A    between atoms: C_52  and  C_60
   27  A    between atoms: C_56  and  C_63
                            x       y       z     vdW  Elec       q    Type
                         _______ _______ _______ _____ _____    ______ ____

>  <TORSDO>
F 27

$$$$
=
 OpenBabel11062415063D

 66 73  0  0  1  0  0  0  0  0999 V2000
  182.4370  178.2340  137.8420 C   0  0  0  0  0  0  0  0  0  0  0  0
  182.5320  179.4910  137.9250 O   0  0  0  0  0  0  0  0  0  0  0  0
  185.2380  175.9560  134.8100 C   0  0  0  0  0  2  0  0  0  0  0  0
  181.3750  177.5450  138.5080 N   0  0  0  0  0  2  0  0  0  0  0  0
  183.9510  176.7780  134.7910 C   0  0  0  0  0  2  0  0  0  0  0  0
  184.9650  177.6580  138.8710 O   0  0  0  0  0  0  0  0  0  0  0  0
  183.4370  177.4990  137.1140 N   0  0  0  0  0  0  0  0  0  0  0  0
  183.0980  176.5460  136.0340 C   0  0  1  0  0  3  0  0  0  0  0  0
  185.9680  177.4830  136.7010 C   0  0  2  0  0  3  0  0  0  0  0  0
  184.7820  177.5600  137.6260 C   0  0  0  0  0  0  0  0  0  0  0  0
  186.0660  176.0670  136.0990 C   0  0  2  0  0  3  0  0  0  0  0  0
  180.4170  178.2340  139.3640 C   0  0  0  0  0  2  0  0  0  0  0  0
  181.0120  178.4870  140.7410 C   0  0  0  0  0  2  0  0  0  0  0  0
  180.0670  178.0230  141.8330 C   0  0  0  0  0  2  0  0  0  0  0  0
  180.8700  179.4470  143.8190 C   0  0  1  0  0  3  0  0  0  0  0  0
  179.7730  179.1820  142.7770 C   0  0  2  0  0  3  0  0  0  0  0  0
  179.6270  178.6660  144.1970 C   0  0  0  0  0  2  0  0  0  0  0  0
  182.0600  178.4940  143.7690 C   0  0  0  0  0  2  0  0  0  0  0  0
  183.5420  179.0930  145.5510 O   0  0  0  0  0  1  0  0  0  0  0  0
  183.3360  179.2150  144.1760 C   0  0  1  0  0  3  0  0  0  0  0  0
  184.6760  179.2930  142.1840 O   0  0  0  0  0  1  0  0  0  0  0  0
  184.5310  178.6570  143.4180 C   0  0  0  0  0  2  0  0  0  0  0  0
  187.2410  177.9950  137.3820 C   0  0  0  0  0  2  0  0  0  0  0  0
  188.0230  178.6280  135.0650 N   0  0  0  0  0  1  0  0  0  0  0  0
  187.9970  178.8960  136.4620 C   0  0  0  0  0  0  0  0  0  0  0  0
  188.6290  179.8820  136.9230 O   0  0  0  0  0  0  0  0  0  0  0  0
  187.5060  175.6080  135.8420 C   0  0  0  0  0  2  0  0  0  0  0  0
  187.9610  174.5460  136.8290 C   0  0  2  0  0  3  0  0  0  0  0  0
  186.8610  174.1090  137.5650 O   0  0  0  0  0  1  0  0  0  0  0  0
  188.9920  175.1550  137.7680 C   0  0  0  0  0  2  0  0  0  0  0  0
  190.3130  175.3820  137.0580 C   0  0  2  0  0  3  0  0  0  0  0  0
  191.2220  174.1870  137.2960 C   0  0  0  0  0  2  0  0  0  0  0  0
  192.3160  174.1200  136.2430 C   0  0  0  0  0  2  0  0  0  0  0  0
  193.5350  173.4250  136.8160 C   0  0  0  0  0  2  0  0  0  0  0  0
  194.6150  173.4280  135.8320 N   0  0  0  0  0  2  0  0  0  0  0  0
  197.0530  174.2590  138.2100 C   0  0  0  0  0  2  0  0  0  0  0  0
  195.9180  173.4030  136.5010 C   0  0  2  0  0  3  0  0  0  0  0  0
  195.8030  173.7290  137.8610 O   0  0  0  0  0  0  0  0  0  0  0  0
  197.6350  174.9550  136.9990 C   0  0  0  0  0  2  0  0  0  0  0  0
  196.9090  174.3420  135.8400 C   0  0  0  0  0  2  0  0  0  0  0  0
  190.9450  176.6420  137.6290 C   0  0  0  0  0  2  0  0  0  0  0  0
  190.7290  176.7600  139.1360 C   0  0  1  0  0  3  0  0  0  0  0  0
  193.3040  176.3820  139.1890 C   0  0  0  0  0  2  0  0  0  0  0  0
  192.0510  176.5730  141.2860 O   0  0  0  0  0  1  0  0  0  0  0  0
  193.0400  177.8580  139.4680 C   0  0  0  0  0  2  0  0  0  0  0  0
  192.0480  176.8110  139.9110 C   0  0  0  0  0  0  0  0  0  0  0  0
  189.7910  177.9240  139.4730 C   0  0  0  0  0  2  0  0  0  0  0  0
  188.1180  177.2220  141.0320 O   0  0  0  0  0  0  0  0  0  0  0  0
  189.1850  177.8620  140.8510 C   0  0  0  0  0  0  0  0  0  0  0  0
  189.8050  178.4560  141.9500 O   0  0  0  0  0  0  0  0  0  0  0  0
  189.6750  176.2490  143.8790 O   0  0  0  0  0  0  0  0  0  0  0  0
  190.5850  178.9410  144.4450 O   0  0  0  0  0  1  0  0  0  0  0  0
  188.8150  176.8890  144.7750 C   0  0  1  0  0  3  0  0  0  0  0  0
  189.5590  177.9220  143.5670 P   0  0  0  0  0  0  0  0  0  0  0  0
  187.9520  177.7720  144.1220 O   0  0  0  0  0  0  0  0  0  0  0  0
  181.6030  176.4740  135.6610 C   0  0  0  0  0  2  0  0  0  0  0  0
  179.5290  172.7870  136.6640 C   0  0  0  0  0  3  0  0  0  0  0  0
  182.4650  173.6670  134.8040 N   0  0  0  0  0  0  0  0  0  0  0  0
  180.6940  172.8220  135.9020 C   0  0  0  0  0  0  0  0  0  0  0  0
  181.3360  173.9730  135.6090 C   0  0  0  0  0  0  0  0  0  0  0  0
  182.5310  172.2670  134.5940 N   0  0  0  0  0  0  0  0  0  0  0  0
  179.6950  175.2240  136.8210 C   0  0  0  0  0  3  0  0  0  0  0  0
  179.0280  174.0170  137.1300 C   0  0  0  0  0  3  0  0  0  0  0  0
  181.4040  171.7680  135.2840 N   0  0  0  0  0  0  0  0  0  0  0  0
  181.0730  170.3570  135.3690 C   0  0  0  0  0  1  0  0  0  0  0  0
  180.8840  175.2140  136.0580 C   0  0  0  0  0  0  0  0  0  0  0  0
  1  2  2  0  0  0  0
  1  4  1  0  0  0  0
  3 11  1  0  0  0  0
  4 12  1  0  0  0  0
  5  3  1  0  0  0  0
  5  8  1  0  0  0  0
  7 10  1  0  0  0  0
  7  1  1  0  0  0  0
  8 56  1  6  0  0  0
  8  7  1  0  0  0  0
  9 23  1  1  0  0  0
  9 10  1  0  0  0  0
 10  6  2  0  0  0  0
 11 27  1  6  0  0  0
 11  9  1  0  0  0  0
 12 13  1  0  0  0  0
 13 14  1  0  0  0  0
 15 18  1  6  0  0  0
 15 17  1  0  0  0  0
 16 14  1  6  0  0  0
 16 15  1  0  0  0  0
 16 17  1  0  0  0  0
 18 20  1  0  0  0  0
 20 19  1  1  0  0  0
 21 22  1  0  0  0  0
 22 20  1  0  0  0  0
 24 25  1  0  0  0  0
 25 26  2  0  0  0  0
 25 23  1  0  0  0  0
 27 28  1  0  0  0  0
 28 29  1  1  0  0  0
 28 30  1  0  0  0  0
 31 32  1  1  0  0  0
 31 41  1  0  0  0  0
 31 30  1  0  0  0  0
 33 34  1  0  0  0  0
 33 32  1  0  0  0  0
 35 34  1  0  0  0  0
 37 35  1  6  0  0  0
 37 38  1  0  0  0  0
 38 36  1  0  0  0  0
 39 36  1  0  0  0  0
 40 37  1  0  0  0  0
 40 39  1  0  0  0  0
 42 41  1  6  0  0  0
 42 47  1  0  0  0  0
 42 46  1  0  0  0  0
 43 45  1  0  0  0  0
 43 46  1  0  0  0  0
 45 46  1  0  0  0  0
 46 44  1  0  0  0  0
 47 49  1  0  0  0  0
 49 48  2  0  0  0  0
 49 50  1  0  0  0  0
 50 54  1  0  0  0  0
 53 51  1  6  0  0  0
 54 51  1  0  0  0  0
 54 55  1  0  0  0  0
 54 52  1  0  0  0  0
 54 53  1  0  0  0  0
 55 53  1  0  0  0  0
 56 66  1  0  0  0  0
 57 63  1  0  0  0  0
 58 60  1  0  0  0  0
 59 57  2  0  0  0  0
 60 59  1  0  0  0  0
 60 66  2  0  0  0  0
 61 58  2  0  0  0  0
 61 64  1  0  0  0  0
 62 63  2  0  0  0  0
 64 65  1  0  0  0  0
 64 59  1  0  0  0  0
 66 62  1  0  0  0  0
M  END
>  <MODEL>
5

>  <REMARK>
 VINA RESULT:      -3.6      3.448     10.562
  Name = 
  27 active torsions:
  status: ('A' for Active; 'I' for Inactive)
    1  A    between atoms: C_2  and  C_19
    2  A    between atoms: C_2  and  C_60
    3  A    between atoms: C_10  and  C_45
    4  A    between atoms: C_10  and  C_51
    5  A    between atoms: C_12  and  C_30
    6  A    between atoms: C_14  and  C_17
    7  A    between atoms: C_14  and  C_46
    8  A    between atoms: C_15  and  C_21
    9  A    between atoms: C_15  and  C_60
   10  A    between atoms: C_17  and  N_64
   11  A    between atoms: C_19  and  O_55
   12  A    between atoms: C_21  and  C_46
   13  A    between atoms: C_21  and  C_65
   14  A    between atoms: N_22  and  C_51
   15  A    between atoms: C_27  and  N_64
   16  A    between atoms: C_29  and  C_53
   17  A    between atoms: C_30  and  C_63
   18  A    between atoms: C_32  and  C_47
   19  A    between atoms: C_32  and  C_62
   20  A    between atoms: C_34  and  C_40
   21  A    between atoms: C_34  and  C_65
   22  A    between atoms: P_38  and  O_55
   23  A    between atoms: C_40  and  C_66
   24  A    between atoms: C_42  and  C_45
   25  A    between atoms: C_49  and  C_53
   26  A    between atoms: C_52  and  C_60
   27  A    between atoms: C_56  and  C_63
                            x       y       z     vdW  Elec       q    Type
                         _______ _______ _______ _____ _____    ______ ____

>  <TORSDO>
F 27

$$$$
=
 OpenBabel11062415063D

 66 73  0  0  1  0  0  0  0  0999 V2000
  184.9560  173.1190  136.0810 C   0  0  0  0  0  0  0  0  0  0  0  0
  185.1410  172.1750  136.9010 O   0  0  0  0  0  0  0  0  0  0  0  0
  186.4660  177.4360  137.2300 C   0  0  0  0  0  2  0  0  0  0  0  0
  184.1380  172.9200  134.9240 N   0  0  0  0  0  2  0  0  0  0  0  0
  185.2930  176.5080  137.5380 C   0  0  0  0  0  2  0  0  0  0  0  0
  187.6470  173.5570  135.4900 O   0  0  0  0  0  0  0  0  0  0  0  0
  185.6170  174.3790  136.2960 N   0  0  0  0  0  0  0  0  0  0  0  0
  184.8880  175.6660  136.3330 C   0  0  1  0  0  3  0  0  0  0  0  0
  187.8630  175.3200  137.0980 C   0  0  2  0  0  3  0  0  0  0  0  0
  187.0570  174.3660  136.2570 C   0  0  0  0  0  0  0  0  0  0  0  0
  187.6790  176.7590  136.5730 C   0  0  2  0  0  3  0  0  0  0  0  0
  183.5570  171.6230  134.5970 C   0  0  0  0  0  2  0  0  0  0  0  0
  182.0550  171.6320  134.8340 C   0  0  0  0  0  2  0  0  0  0  0  0
  181.6480  170.5140  135.7750 C   0  0  0  0  0  2  0  0  0  0  0  0
  180.4200  171.8990  137.5610 C   0  0  1  0  0  3  0  0  0  0  0  0
  181.6390  171.0330  137.2070 C   0  0  2  0  0  3  0  0  0  0  0  0
  181.7430  172.5480  137.2070 C   0  0  0  0  0  2  0  0  0  0  0  0
  179.4310  172.1290  136.4220 C   0  0  0  0  0  2  0  0  0  0  0  0
  179.4220  174.2430  137.5450 O   0  0  0  0  0  1  0  0  0  0  0  0
  178.9670  173.5780  136.4050 C   0  0  1  0  0  3  0  0  0  0  0  0
  179.3190  175.6680  135.2750 O   0  0  0  0  0  1  0  0  0  0  0  0
  179.4650  174.2850  135.1540 C   0  0  0  0  0  2  0  0  0  0  0  0
  189.3150  174.8540  137.2340 C   0  0  0  0  0  2  0  0  0  0  0  0
  189.9570  174.9360  134.7930 N   0  0  0  0  0  1  0  0  0  0  0  0
  189.7650  174.1780  135.9810 C   0  0  0  0  0  0  0  0  0  0  0  0
  189.9560  172.9340  135.9680 O   0  0  0  0  0  0  0  0  0  0  0  0
  188.9260  177.6360  136.7390 C   0  0  0  0  0  2  0  0  0  0  0  0
  188.8990  178.4440  138.0250 C   0  0  2  0  0  3  0  0  0  0  0  0
  188.8630  179.8010  137.7080 O   0  0  0  0  0  1  0  0  0  0  0  0
  190.1590  178.1410  138.8240 C   0  0  0  0  0  2  0  0  0  0  0  0
  189.8230  177.4930  140.1530 C   0  0  2  0  0  3  0  0  0  0  0  0
  188.3360  177.6550  140.4270 C   0  0  0  0  0  2  0  0  0  0  0  0
  188.0570  177.6590  141.9210 C   0  0  0  0  0  2  0  0  0  0  0  0
  186.9630  178.6600  142.2340 C   0  0  0  0  0  2  0  0  0  0  0  0
  185.7630  177.9590  142.6820 N   0  0  0  0  0  2  0  0  0  0  0  0
  183.3310  179.8320  144.3760 C   0  0  0  0  0  2  0  0  0  0  0  0
  184.6520  178.8980  142.8500 C   0  0  2  0  0  3  0  0  0  0  0  0
  184.6670  179.4880  144.1230 O   0  0  0  0  0  0  0  0  0  0  0  0
  182.4370  178.8240  143.6870 C   0  0  0  0  0  2  0  0  0  0  0  0
  183.3090  178.2300  142.6210 C   0  0  0  0  0  2  0  0  0  0  0  0
  190.6330  178.1890  141.2360 C   0  0  0  0  0  2  0  0  0  0  0  0
  191.6250  177.2420  141.9070 C   0  0  1  0  0  3  0  0  0  0  0  0
  191.7270  176.5860  144.4240 C   0  0  0  0  0  2  0  0  0  0  0  0
  190.3050  175.3160  142.8850 O   0  0  0  0  0  1  0  0  0  0  0  0
  190.4370  177.3660  144.1940 C   0  0  0  0  0  2  0  0  0  0  0  0
  191.0090  176.5020  143.0980 C   0  0  0  0  0  0  0  0  0  0  0  0
  192.2720  176.3000  140.8860 C   0  0  0  0  0  2  0  0  0  0  0  0
  194.2450  177.5790  140.4440 O   0  0  0  0  0  0  0  0  0  0  0  0
  193.2610  176.9610  139.9630 C   0  0  0  0  0  0  0  0  0  0  0  0
  193.1430  176.8660  138.5750 O   0  0  0  0  0  0  0  0  0  0  0  0
  195.4080  175.0230  138.2810 O   0  0  0  0  0  0  0  0  0  0  0  0
  192.7240  174.5820  137.2820 O   0  0  0  0  0  1  0  0  0  0  0  0
  195.3920  174.9960  136.8830 C   0  0  1  0  0  3  0  0  0  0  0  0
  193.9640  175.6730  137.6450 P   0  0  0  0  0  0  0  0  0  0  0  0
  194.9380  176.2030  136.3480 O   0  0  0  0  0  0  0  0  0  0  0  0
  183.3520  175.5590  136.2350 C   0  0  0  0  0  2  0  0  0  0  0  0
  181.0180  179.1300  137.0760 C   0  0  0  0  0  3  0  0  0  0  0  0
  181.9340  176.1670  138.8760 N   0  0  0  0  0  0  0  0  0  0  0  0
  181.2140  178.1120  138.0060 C   0  0  0  0  0  0  0  0  0  0  0  0
  181.9520  177.0140  137.7370 C   0  0  0  0  0  0  0  0  0  0  0  0
  181.1560  176.7670  139.8990 N   0  0  0  0  0  0  0  0  0  0  0  0
  182.3970  177.8260  135.5290 C   0  0  0  0  0  3  0  0  0  0  0  0
  181.6270  178.9760  135.8160 C   0  0  0  0  0  3  0  0  0  0  0  0
  180.7110  177.9760  139.3200 N   0  0  0  0  0  0  0  0  0  0  0  0
  179.8920  178.9490  140.0190 C   0  0  0  0  0  1  0  0  0  0  0  0
  182.5830  176.8240  136.5070 C   0  0  0  0  0  0  0  0  0  0  0  0
  1  7  1  0  0  0  0
  1  2  2  0  0  0  0
  3  5  1  0  0  0  0
  4  1  1  0  0  0  0
  6 10  2  0  0  0  0
  7  8  1  0  0  0  0
  8 56  1  1  0  0  0
  8  5  1  0  0  0  0
  9 23  1  6  0  0  0
 10  7  1  0  0  0  0
 10  9  1  0  0  0  0
 11 27  1  1  0  0  0
 11  9  1  0  0  0  0
 11  3  1  0  0  0  0
 12 13  1  0  0  0  0
 12  4  1  0  0  0  0
 13 14  1  0  0  0  0
 15 18  1  6  0  0  0
 16 14  1  6  0  0  0
 16 17  1  0  0  0  0
 16 15  1  0  0  0  0
 17 15  1  0  0  0  0
 20 18  1  0  0  0  0
 20 19  1  1  0  0  0
 22 21  1  0  0  0  0
 22 20  1  0  0  0  0
 24 25  1  0  0  0  0
 25 23  1  0  0  0  0
 26 25  2  0  0  0  0
 27 28  1  0  0  0  0
 28 29  1  6  0  0  0
 28 30  1  0  0  0  0
 31 30  1  6  0  0  0
 31 32  1  0  0  0  0
 31 41  1  0  0  0  0
 32 33  1  0  0  0  0
 33 34  1  0  0  0  0
 34 35  1  0  0  0  0
 37 35  1  1  0  0  0
 37 38  1  0  0  0  0
 38 36  1  0  0  0  0
 39 36  1  0  0  0  0
 40 37  1  0  0  0  0
 40 39  1  0  0  0  0
 41 42  1  0  0  0  0
 42 47  1  6  0  0  0
 42 46  1  0  0  0  0
 44 46  1  0  0  0  0
 45 43  1  0  0  0  0
 46 45  1  0  0  0  0
 46 43  1  0  0  0  0
 49 48  2  0  0  0  0
 49 47  1  0  0  0  0
 50 49  1  0  0  0  0
 52 54  1  0  0  0  0
 53 55  1  6  0  0  0
 53 54  1  0  0  0  0
 53 51  1  0  0  0  0
 54 51  1  0  0  0  0
 54 50  1  0  0  0  0
 55 54  1  0  0  0  0
 56 66  1  0  0  0  0
 57 59  1  0  0  0  0
 58 61  2  0  0  0  0
 59 64  1  0  0  0  0
 60 59  2  0  0  0  0
 60 58  1  0  0  0  0
 62 63  1  0  0  0  0
 62 66  2  0  0  0  0
 63 57  2  0  0  0  0
 64 61  1  0  0  0  0
 64 65  1  0  0  0  0
 66 60  1  0  0  0  0
M  END
>  <MODEL>
6

>  <REMARK>
 VINA RESULT:      -2.7      3.154     10.536
  Name = 
  27 active torsions:
  status: ('A' for Active; 'I' for Inactive)
    1  A    between atoms: C_2  and  C_19
    2  A    between atoms: C_2  and  C_60
    3  A    between atoms: C_10  and  C_45
    4  A    between atoms: C_10  and  C_51
    5  A    between atoms: C_12  and  C_30
    6  A    between atoms: C_14  and  C_17
    7  A    between atoms: C_14  and  C_46
    8  A    between atoms: C_15  and  C_21
    9  A    between atoms: C_15  and  C_60
   10  A    between atoms: C_17  and  N_64
   11  A    between atoms: C_19  and  O_55
   12  A    between atoms: C_21  and  C_46
   13  A    between atoms: C_21  and  C_65
   14  A    between atoms: N_22  and  C_51
   15  A    between atoms: C_27  and  N_64
   16  A    between atoms: C_29  and  C_53
   17  A    between atoms: C_30  and  C_63
   18  A    between atoms: C_32  and  C_47
   19  A    between atoms: C_32  and  C_62
   20  A    between atoms: C_34  and  C_40
   21  A    between atoms: C_34  and  C_65
   22  A    between atoms: P_38  and  O_55
   23  A    between atoms: C_40  and  C_66
   24  A    between atoms: C_42  and  C_45
   25  A    between atoms: C_49  and  C_53
   26  A    between atoms: C_52  and  C_60
   27  A    between atoms: C_56  and  C_63
                            x       y       z     vdW  Elec       q    Type
                         _______ _______ _______ _____ _____    ______ ____

>  <TORSDO>
F 27

$$$$
=
 OpenBabel11062415063D

 66 73  0  0  1  0  0  0  0  0999 V2000
  190.2210  177.2540  139.7290 C   0  0  0  0  0  0  0  0  0  0  0  0
  191.2860  177.6540  139.1770 O   0  0  0  0  0  0  0  0  0  0  0  0
  186.1490  177.7490  137.4040 C   0  0  0  0  0  2  0  0  0  0  0  0
  190.2310  176.8420  141.0990 N   0  0  0  0  0  2  0  0  0  0  0  0
  187.1130  178.5990  138.2290 C   0  0  0  0  0  2  0  0  0  0  0  0
  189.6970  175.1800  137.9380 O   0  0  0  0  0  0  0  0  0  0  0  0
  189.0140  177.1690  138.9520 N   0  0  0  0  0  0  0  0  0  0  0  0
  187.7490  177.8120  139.3710 C   0  0  1  0  0  3  0  0  0  0  0  0
  188.2170  176.5130  136.6040 C   0  0  2  0  0  3  0  0  0  0  0  0
  189.0220  176.2430  137.8480 C   0  0  0  0  0  0  0  0  0  0  0  0
  186.7120  176.4020  136.9240 C   0  0  2  0  0  3  0  0  0  0  0  0
  191.4560  176.7860  141.8860 C   0  0  0  0  0  2  0  0  0  0  0  0
  191.2530  175.9480  143.1390 C   0  0  0  0  0  2  0  0  0  0  0  0
  192.0430  176.5130  144.3040 C   0  0  0  0  0  2  0  0  0  0  0  0
  190.5590  178.2190  145.5290 C   0  0  1  0  0  3  0  0  0  0  0  0
  191.6760  177.9780  144.5030 C   0  0  2  0  0  3  0  0  0  0  0  0
  190.2490  178.2190  144.0450 C   0  0  0  0  0  2  0  0  0  0  0  0
  189.9710  176.9600  146.1600 C   0  0  0  0  0  2  0  0  0  0  0  0
  191.5090  177.2940  147.9650 O   0  0  0  0  0  1  0  0  0  0  0  0
  190.1830  176.9720  147.6670 C   0  0  1  0  0  3  0  0  0  0  0  0
  187.9670  177.8910  147.7700 O   0  0  0  0  0  1  0  0  0  0  0  0
  189.2420  177.9660  148.3320 C   0  0  0  0  0  2  0  0  0  0  0  0
  188.7010  175.6570  135.4300 C   0  0  0  0  0  2  0  0  0  0  0  0
  189.9800  173.4990  135.7230 N   0  0  0  0  0  1  0  0  0  0  0  0
  188.7560  174.2180  135.8210 C   0  0  0  0  0  0  0  0  0  0  0  0
  187.7160  173.6320  136.2200 O   0  0  0  0  0  0  0  0  0  0  0  0
  185.8750  175.8670  135.7570 C   0  0  0  0  0  2  0  0  0  0  0  0
  184.3890  175.8390  136.0750 C   0  0  2  0  0  3  0  0  0  0  0  0
  183.6880  176.4200  135.0190 O   0  0  0  0  0  1  0  0  0  0  0  0
  184.1420  176.6350  137.3480 C   0  0  0  0  0  2  0  0  0  0  0  0
  182.6640  176.9120  137.5430 C   0  0  2  0  0  3  0  0  0  0  0  0
  181.8550  175.8780  136.7740 C   0  0  0  0  0  2  0  0  0  0  0  0
  181.2160  174.8760  137.7220 C   0  0  0  0  0  2  0  0  0  0  0  0
  182.1950  173.7580  138.0200 C   0  0  0  0  0  2  0  0  0  0  0  0
  182.2680  172.8470  136.8800 N   0  0  0  0  0  2  0  0  0  0  0  0
  180.0220  170.3890  135.7830 C   0  0  0  0  0  2  0  0  0  0  0  0
  181.2380  171.8110  136.9850 C   0  0  2  0  0  3  0  0  0  0  0  0
  181.3220  170.8960  135.9240 O   0  0  0  0  0  0  0  0  0  0  0  0
  179.0390  171.4720  136.1730 C   0  0  0  0  0  2  0  0  0  0  0  0
  179.8430  172.4050  137.0280 C   0  0  0  0  0  2  0  0  0  0  0  0
  182.3710  178.3070  137.0130 C   0  0  0  0  0  2  0  0  0  0  0  0
  181.8100  179.2250  138.0960 C   0  0  1  0  0  3  0  0  0  0  0  0
  180.8790  180.4890  136.0200 C   0  0  0  0  0  2  0  0  0  0  0  0
  181.3060  181.7060  138.1030 O   0  0  0  0  0  1  0  0  0  0  0  0
  179.7180  180.2410  136.9780 C   0  0  0  0  0  2  0  0  0  0  0  0
  181.1130  180.4570  137.5120 C   0  0  0  0  0  0  0  0  0  0  0  0
  180.9290  178.4500  139.0810 C   0  0  0  0  0  2  0  0  0  0  0  0
  182.1670  177.4420  140.8630 O   0  0  0  0  0  0  0  0  0  0  0  0
  181.4530  178.4090  140.4930 C   0  0  0  0  0  0  0  0  0  0  0  0
  181.2080  179.4450  141.3940 O   0  0  0  0  0  0  0  0  0  0  0  0
  180.9370  179.2350  144.3090 O   0  0  0  0  0  0  0  0  0  0  0  0
  179.0180  180.4550  142.5120 O   0  0  0  0  0  1  0  0  0  0  0  0
  179.7390  178.5150  144.2920 C   0  0  1  0  0  3  0  0  0  0  0  0
  180.1930  179.2670  142.7730 P   0  0  0  0  0  0  0  0  0  0  0  0
  179.6420  177.6990  143.1620 O   0  0  0  0  0  0  0  0  0  0  0  0
  187.8370  178.6770  140.6450 C   0  0  0  0  0  2  0  0  0  0  0  0
  186.3660  176.9780  144.3670 C   0  0  0  0  0  3  0  0  0  0  0  0
  185.4860  179.7550  142.2770 N   0  0  0  0  0  0  0  0  0  0  0  0
  185.8010  178.1000  143.7660 C   0  0  0  0  0  0  0  0  0  0  0  0
  186.2580  178.6090  142.6030 C   0  0  0  0  0  0  0  0  0  0  0  0
  184.5030  179.9630  143.2780 N   0  0  0  0  0  0  0  0  0  0  0  0
  187.9410  176.9110  142.4940 C   0  0  0  0  0  3  0  0  0  0  0  0
  187.4570  176.3770  143.7100 C   0  0  0  0  0  3  0  0  0  0  0  0
  184.7330  178.9180  144.2000 N   0  0  0  0  0  0  0  0  0  0  0  0
  183.9350  178.7090  145.3950 C   0  0  0  0  0  1  0  0  0  0  0  0
  187.3280  178.0420  141.9100 C   0  0  0  0  0  0  0  0  0  0  0  0
  1  4  1  0  0  0  0
  2  1  2  0  0  0  0
  3  5  1  0  0  0  0
  4 12  1  0  0  0  0
  5  8  1  0  0  0  0
  7  8  1  0  0  0  0
  7  1  1  0  0  0  0
  8 56  1  1  0  0  0
  9 23  1  6  0  0  0
  9 11  1  0  0  0  0
  9 10  1  0  0  0  0
 10  6  2  0  0  0  0
 10  7  1  0  0  0  0
 11 27  1  6  0  0  0
 11  3  1  0  0  0  0
 12 13  1  0  0  0  0
 13 14  1  0  0  0  0
 15 18  1  1  0  0  0
 16 14  1  1  0  0  0
 16 15  1  0  0  0  0
 17 16  1  0  0  0  0
 17 15  1  0  0  0  0
 18 20  1  0  0  0  0
 20 19  1  6  0  0  0
 20 22  1  0  0  0  0
 21 22  1  0  0  0  0
 23 25  1  0  0  0  0
 24 25  1  0  0  0  0
 25 26  2  0  0  0  0
 27 28  1  0  0  0  0
 28 29  1  6  0  0  0
 28 30  1  0  0  0  0
 30 31  1  0  0  0  0
 31 32  1  6  0  0  0
 32 33  1  0  0  0  0
 33 34  1  0  0  0  0
 35 34  1  0  0  0  0
 36 38  1  0  0  0  0
 36 39  1  0  0  0  0
 37 35  1  6  0  0  0
 37 40  1  0  0  0  0
 38 37  1  0  0  0  0
 39 40  1  0  0  0  0
 41 31  1  0  0  0  0
 42 41  1  6  0  0  0
 42 47  1  0  0  0  0
 43 45  1  0  0  0  0
 43 46  1  0  0  0  0
 45 46  1  0  0  0  0
 46 42  1  0  0  0  0
 46 44  1  0  0  0  0
 47 49  1  0  0  0  0
 49 48  2  0  0  0  0
 49 50  1  0  0  0  0
 50 54  1  0  0  0  0
 52 54  1  0  0  0  0
 53 55  1  6  0  0  0
 53 51  1  0  0  0  0
 54 55  1  0  0  0  0
 54 53  1  0  0  0  0
 54 51  1  0  0  0  0
 56 66  1  0  0  0  0
 58 60  1  0  0  0  0
 58 61  2  0  0  0  0
 59 64  1  0  0  0  0
 59 57  1  0  0  0  0
 60 59  2  0  0  0  0
 61 64  1  0  0  0  0
 62 63  1  0  0  0  0
 63 57  2  0  0  0  0
 64 65  1  0  0  0  0
 66 62  2  0  0  0  0
 66 60  1  0  0  0  0
M  END
>  <MODEL>
7

>  <REMARK>
 VINA RESULT:      -2.7      2.558      6.968
  Name = 
  27 active torsions:
  status: ('A' for Active; 'I' for Inactive)
    1  A    between atoms: C_2  and  C_19
    2  A    between atoms: C_2  and  C_60
    3  A    between atoms: C_10  and  C_45
    4  A    between atoms: C_10  and  C_51
    5  A    between atoms: C_12  and  C_30
    6  A    between atoms: C_14  and  C_17
    7  A    between atoms: C_14  and  C_46
    8  A    between atoms: C_15  and  C_21
    9  A    between atoms: C_15  and  C_60
   10  A    between atoms: C_17  and  N_64
   11  A    between atoms: C_19  and  O_55
   12  A    between atoms: C_21  and  C_46
   13  A    between atoms: C_21  and  C_65
   14  A    between atoms: N_22  and  C_51
   15  A    between atoms: C_27  and  N_64
   16  A    between atoms: C_29  and  C_53
   17  A    between atoms: C_30  and  C_63
   18  A    between atoms: C_32  and  C_47
   19  A    between atoms: C_32  and  C_62
   20  A    between atoms: C_34  and  C_40
   21  A    between atoms: C_34  and  C_65
   22  A    between atoms: P_38  and  O_55
   23  A    between atoms: C_40  and  C_66
   24  A    between atoms: C_42  and  C_45
   25  A    between atoms: C_49  and  C_53
   26  A    between atoms: C_52  and  C_60
   27  A    between atoms: C_56  and  C_63
                            x       y       z     vdW  Elec       q    Type
                         _______ _______ _______ _____ _____    ______ ____

>  <TORSDO>
F 27

$$$$
=
 OpenBabel11062415063D

 66 73  0  0  1  0  0  0  0  0999 V2000
  185.0300  178.1820  142.2150 C   0  0  0  0  0  0  0  0  0  0  0  0
  184.1450  177.3060  141.9980 O   0  0  0  0  0  0  0  0  0  0  0  0
  189.0460  177.9910  139.7510 C   0  0  0  0  0  2  0  0  0  0  0  0
  184.8940  179.0880  143.3140 N   0  0  0  0  0  2  0  0  0  0  0  0
  188.4010  177.3050  140.9540 C   0  0  0  0  0  2  0  0  0  0  0  0
  184.8700  179.4160  139.7180 O   0  0  0  0  0  0  0  0  0  0  0  0
  186.1480  178.2920  141.3150 N   0  0  0  0  0  0  0  0  0  0  0  0
  187.5520  178.2650  141.7810 C   0  0  1  0  0  3  0  0  0  0  0  0
  186.6920  178.1480  138.8140 C   0  0  2  0  0  3  0  0  0  0  0  0
  185.8460  178.6510  139.9530 C   0  0  0  0  0  0  0  0  0  0  0  0
  188.0860  178.8060  138.8710 C   0  0  2  0  0  3  0  0  0  0  0  0
  183.7150  179.1000  144.1710 C   0  0  0  0  0  2  0  0  0  0  0  0
  182.5330  179.7290  143.4500 C   0  0  0  0  0  2  0  0  0  0  0  0
  181.4350  178.7090  143.2160 C   0  0  0  0  0  2  0  0  0  0  0  0
  179.9800  178.4910  141.1070 C   0  0  1  0  0  3  0  0  0  0  0  0
  180.3480  179.3240  142.3440 C   0  0  2  0  0  3  0  0  0  0  0  0
  180.9180  179.6760  140.9820 C   0  0  0  0  0  2  0  0  0  0  0  0
  180.7780  177.2030  140.9270 C   0  0  0  0  0  2  0  0  0  0  0  0
  179.8730  177.4250  138.7220 O   0  0  0  0  0  1  0  0  0  0  0  0
  180.3700  176.5000  139.6410 C   0  0  1  0  0  3  0  0  0  0  0  0
  181.5640  175.8770  137.6520 O   0  0  0  0  0  1  0  0  0  0  0  0
  181.5530  175.7530  139.0420 C   0  0  0  0  0  2  0  0  0  0  0  0
  185.9600  178.2810  137.4750 C   0  0  0  0  0  2  0  0  0  0  0  0
  184.9740  176.0840  138.2360 N   0  0  0  0  0  1  0  0  0  0  0  0
  185.0560  177.1140  137.2570 C   0  0  0  0  0  0  0  0  0  0  0  0
  184.3790  177.0270  136.2000 O   0  0  0  0  0  0  0  0  0  0  0  0
  188.7090  179.0440  137.4910 C   0  0  0  0  0  2  0  0  0  0  0  0
  189.0220  177.7470  136.7650 C   0  0  2  0  0  3  0  0  0  0  0  0
  188.2400  177.6710  135.6130 O   0  0  0  0  0  1  0  0  0  0  0  0
  188.6930  176.5770  137.6810 C   0  0  0  0  0  2  0  0  0  0  0  0
  189.7220  175.4710  137.5490 C   0  0  2  0  0  3  0  0  0  0  0  0
  190.9740  175.8570  138.3210 C   0  0  0  0  0  2  0  0  0  0  0  0
  192.2140  175.6970  137.4570 C   0  0  0  0  0  2  0  0  0  0  0  0
  193.3530  175.1510  138.2950 C   0  0  0  0  0  2  0  0  0  0  0  0
  193.9140  173.9640  137.6550 N   0  0  0  0  0  2  0  0  0  0  0  0
  196.7980  174.2480  139.6280 C   0  0  0  0  0  2  0  0  0  0  0  0
  195.1230  173.5260  138.3560 C   0  0  2  0  0  3  0  0  0  0  0  0
  195.4110  174.3570  139.4500 O   0  0  0  0  0  0  0  0  0  0  0  0
  197.4390  174.0150  138.2780 C   0  0  0  0  0  2  0  0  0  0  0  0
  196.3250  173.4780  137.4310 C   0  0  0  0  0  2  0  0  0  0  0  0
  190.0470  175.3020  136.0730 C   0  0  0  0  0  2  0  0  0  0  0  0
  189.0360  174.4060  135.3610 C   0  0  1  0  0  3  0  0  0  0  0  0
  191.0230  172.7740  134.9580 C   0  0  0  0  0  2  0  0  0  0  0  0
  188.7210  172.0090  134.6100 O   0  0  0  0  0  1  0  0  0  0  0  0
  190.4090  172.4400  136.3130 C   0  0  0  0  0  2  0  0  0  0  0  0
  189.5450  172.9710  135.1960 C   0  0  0  0  0  0  0  0  0  0  0  0
  187.6600  174.4810  136.0300 C   0  0  0  0  0  2  0  0  0  0  0  0
  185.7770  174.9840  134.6440 O   0  0  0  0  0  0  0  0  0  0  0  0
  186.5090  174.0900  135.1410 C   0  0  0  0  0  0  0  0  0  0  0  0
  186.2590  172.7580  134.8110 O   0  0  0  0  0  0  0  0  0  0  0  0
  183.4180  172.0220  134.8360 O   0  0  0  0  0  0  0  0  0  0  0  0
  185.6260  170.2830  135.5440 O   0  0  0  0  0  1  0  0  0  0  0  0
  183.3690  171.6770  136.1890 C   0  0  1  0  0  3  0  0  0  0  0  0
  184.9770  171.8450  135.5070 P   0  0  0  0  0  0  0  0  0  0  0  0
  184.2710  172.4290  136.9470 O   0  0  0  0  0  0  0  0  0  0  0  0
  187.7440  178.0000  143.2880 C   0  0  0  0  0  2  0  0  0  0  0  0
  191.8030  177.3830  144.7210 C   0  0  0  0  0  3  0  0  0  0  0  0
  188.5110  177.1410  146.1220 N   0  0  0  0  0  0  0  0  0  0  0  0
  190.6770  177.2010  145.5200 C   0  0  0  0  0  0  0  0  0  0  0  0
  189.4210  177.3820  145.0590 C   0  0  0  0  0  0  0  0  0  0  0  0
  189.2320  176.7890  147.2910 N   0  0  0  0  0  0  0  0  0  0  0  0
  190.2730  177.9680  142.9010 C   0  0  0  0  0  3  0  0  0  0  0  0
  191.5870  177.7730  143.3850 C   0  0  0  0  0  3  0  0  0  0  0  0
  190.5830  176.8460  146.8850 N   0  0  0  0  0  0  0  0  0  0  0  0
  191.6990  176.5300  147.7580 C   0  0  0  0  0  1  0  0  0  0  0  0
  189.1580  177.7570  143.7420 C   0  0  0  0  0  0  0  0  0  0  0  0
  1  4  1  0  0  0  0
  2  1  2  0  0  0  0
  3  5  1  0  0  0  0
  4 12  1  0  0  0  0
  5  8  1  0  0  0  0
  6 10  2  0  0  0  0
  7  8  1  0  0  0  0
  7  1  1  0  0  0  0
  8 56  1  1  0  0  0
  9 23  1  6  0  0  0
  9 11  1  0  0  0  0
  9 10  1  0  0  0  0
 10  7  1  0  0  0  0
 11 27  1  6  0  0  0
 11  3  1  0  0  0  0
 13 12  1  0  0  0  0
 14 13  1  0  0  0  0
 15 18  1  1  0  0  0
 15 16  1  0  0  0  0
 16 14  1  1  0  0  0
 17 15  1  0  0  0  0
 17 16  1  0  0  0  0
 20 19  1  6  0  0  0
 20 18  1  0  0  0  0
 21 22  1  0  0  0  0
 22 20  1  0  0  0  0
 25 23  1  0  0  0  0
 25 24  1  0  0  0  0
 26 25  2  0  0  0  0
 28 29  1  6  0  0  0
 28 27  1  0  0  0  0
 28 30  1  0  0  0  0
 31 41  1  6  0  0  0
 31 30  1  0  0  0  0
 31 32  1  0  0  0  0
 33 34  1  0  0  0  0
 33 32  1  0  0  0  0
 35 34  1  0  0  0  0
 37 35  1  6  0  0  0
 37 38  1  0  0  0  0
 38 36  1  0  0  0  0
 39 36  1  0  0  0  0
 40 39  1  0  0  0  0
 40 37  1  0  0  0  0
 42 47  1  1  0  0  0
 42 41  1  0  0  0  0
 43 46  1  0  0  0  0
 43 45  1  0  0  0  0
 44 46  1  0  0  0  0
 46 42  1  0  0  0  0
 46 45  1  0  0  0  0
 48 49  2  0  0  0  0
 49 47  1  0  0  0  0
 50 49  1  0  0  0  0
 50 54  1  0  0  0  0
 51 54  1  0  0  0  0
 53 51  1  6  0  0  0
 53 55  1  0  0  0  0
 54 52  1  0  0  0  0
 54 53  1  0  0  0  0
 54 55  1  0  0  0  0
 56 66  1  0  0  0  0
 57 59  1  0  0  0  0
 58 61  2  0  0  0  0
 59 64  1  0  0  0  0
 60 59  2  0  0  0  0
 60 58  1  0  0  0  0
 62 63  1  0  0  0  0
 62 66  2  0  0  0  0
 63 57  2  0  0  0  0
 64 61  1  0  0  0  0
 64 65  1  0  0  0  0
 66 60  1  0  0  0  0
M  END
>  <MODEL>
8

>  <REMARK>
 VINA RESULT:      -2.6      3.356      9.146
  Name = 
  27 active torsions:
  status: ('A' for Active; 'I' for Inactive)
    1  A    between atoms: C_2  and  C_19
    2  A    between atoms: C_2  and  C_60
    3  A    between atoms: C_10  and  C_45
    4  A    between atoms: C_10  and  C_51
    5  A    between atoms: C_12  and  C_30
    6  A    between atoms: C_14  and  C_17
    7  A    between atoms: C_14  and  C_46
    8  A    between atoms: C_15  and  C_21
    9  A    between atoms: C_15  and  C_60
   10  A    between atoms: C_17  and  N_64
   11  A    between atoms: C_19  and  O_55
   12  A    between atoms: C_21  and  C_46
   13  A    between atoms: C_21  and  C_65
   14  A    between atoms: N_22  and  C_51
   15  A    between atoms: C_27  and  N_64
   16  A    between atoms: C_29  and  C_53
   17  A    between atoms: C_30  and  C_63
   18  A    between atoms: C_32  and  C_47
   19  A    between atoms: C_32  and  C_62
   20  A    between atoms: C_34  and  C_40
   21  A    between atoms: C_34  and  C_65
   22  A    between atoms: P_38  and  O_55
   23  A    between atoms: C_40  and  C_66
   24  A    between atoms: C_42  and  C_45
   25  A    between atoms: C_49  and  C_53
   26  A    between atoms: C_52  and  C_60
   27  A    between atoms: C_56  and  C_63
                            x       y       z     vdW  Elec       q    Type
                         _______ _______ _______ _____ _____    ______ ____

>  <TORSDO>
F 27

$$$$
=
 OpenBabel11062415063D

 66 73  0  0  1  0  0  0  0  0999 V2000
  189.8450  177.1840  141.3430 C   0  0  0  0  0  0  0  0  0  0  0  0
  189.4370  176.4640  142.2980 O   0  0  0  0  0  0  0  0  0  0  0  0
  187.3280  177.2820  137.3570 C   0  0  0  0  0  2  0  0  0  0  0  0
  191.1360  177.7980  141.4020 N   0  0  0  0  0  2  0  0  0  0  0  0
  188.3370  176.3750  138.0580 C   0  0  0  0  0  2  0  0  0  0  0  0
  187.7330  179.0060  141.3980 O   0  0  0  0  0  0  0  0  0  0  0  0
  188.9770  177.4210  140.2200 N   0  0  0  0  0  0  0  0  0  0  0  0
  189.3930  177.1660  138.8230 C   0  0  1  0  0  3  0  0  0  0  0  0
  186.5070  177.8580  139.6900 C   0  0  2  0  0  3  0  0  0  0  0  0
  187.7520  178.1300  140.4900 C   0  0  0  0  0  0  0  0  0  0  0  0
  186.6960  178.3650  138.2450 C   0  0  2  0  0  3  0  0  0  0  0  0
  191.9940  177.6930  142.5770 C   0  0  0  0  0  2  0  0  0  0  0  0
  191.4440  178.5330  143.7200 C   0  0  0  0  0  2  0  0  0  0  0  0
  190.7730  177.6580  144.7610 C   0  0  0  0  0  2  0  0  0  0  0  0
  188.9990  177.8030  146.6180 C   0  0  1  0  0  3  0  0  0  0  0  0
  189.5270  178.3590  145.2870 C   0  0  2  0  0  3  0  0  0  0  0  0
  188.3600  177.3890  145.3070 C   0  0  0  0  0  2  0  0  0  0  0  0
  189.7800  176.6210  147.1860 C   0  0  0  0  0  2  0  0  0  0  0  0
  191.3550  177.8860  148.4710 O   0  0  0  0  0  1  0  0  0  0  0  0
  191.2380  177.0000  147.3990 C   0  0  1  0  0  3  0  0  0  0  0  0
  193.1770  176.0630  148.4620 O   0  0  0  0  0  1  0  0  0  0  0  0
  192.0820  175.7600  147.6520 C   0  0  0  0  0  2  0  0  0  0  0  0
  185.2570  178.3760  140.4070 C   0  0  0  0  0  2  0  0  0  0  0  0
  185.5990  177.7050  142.8180 N   0  0  0  0  0  1  0  0  0  0  0  0
  185.5760  178.7230  141.8240 C   0  0  0  0  0  0  0  0  0  0  0  0
  185.8050  179.9180  142.1460 O   0  0  0  0  0  0  0  0  0  0  0  0
  185.4050  178.8860  137.6040 C   0  0  0  0  0  2  0  0  0  0  0  0
  184.3290  177.8160  137.5160 C   0  0  2  0  0  3  0  0  0  0  0  0
  184.9140  176.6160  137.1130 O   0  0  0  0  0  1  0  0  0  0  0  0
  183.2890  178.2440  136.4910 C   0  0  0  0  0  2  0  0  0  0  0  0
  182.1640  177.2320  136.3960 C   0  0  2  0  0  3  0  0  0  0  0  0
  182.2790  176.4780  135.0800 C   0  0  0  0  0  2  0  0  0  0  0  0
  182.5930  175.0110  135.3220 C   0  0  0  0  0  2  0  0  0  0  0  0
  181.9510  174.5580  136.6170 C   0  0  0  0  0  2  0  0  0  0  0  0
  181.2310  173.3050  136.4020 N   0  0  0  0  0  2  0  0  0  0  0  0
  183.9460  171.0910  136.5290 C   0  0  0  0  0  2  0  0  0  0  0  0
  182.0290  172.1680  136.8640 C   0  0  2  0  0  3  0  0  0  0  0  0
  183.3980  172.3770  136.6390 O   0  0  0  0  0  0  0  0  0  0  0  0
  182.9020  170.1750  135.9280 C   0  0  0  0  0  2  0  0  0  0  0  0
  181.6030  170.8720  136.1990 C   0  0  0  0  0  2  0  0  0  0  0  0
  180.8450  177.9860  136.4540 C   0  0  0  0  0  2  0  0  0  0  0  0
  180.8000  178.9730  137.6180 C   0  0  1  0  0  3  0  0  0  0  0  0
  179.9460  181.4150  137.9060 C   0  0  0  0  0  2  0  0  0  0  0  0
  180.9670  180.7170  135.7910 O   0  0  0  0  0  1  0  0  0  0  0  0
  181.4620  181.4260  138.0680 C   0  0  0  0  0  2  0  0  0  0  0  0
  180.8020  180.4300  137.1470 C   0  0  0  0  0  0  0  0  0  0  0  0
  179.6440  178.6550  138.5730 C   0  0  0  0  0  2  0  0  0  0  0  0
  181.0520  177.6910  140.2500 O   0  0  0  0  0  0  0  0  0  0  0  0
  180.0580  178.4210  140.0020 C   0  0  0  0  0  0  0  0  0  0  0  0
  179.3960  179.0350  141.0650 O   0  0  0  0  0  0  0  0  0  0  0  0
  179.7010  177.4570  143.5200 O   0  0  0  0  0  0  0  0  0  0  0  0
  181.5290  179.5010  142.5810 O   0  0  0  0  0  1  0  0  0  0  0  0
  179.7230  178.5480  144.3930 C   0  0  1  0  0  3  0  0  0  0  0  0
  179.9400  178.9310  142.6940 P   0  0  0  0  0  0  0  0  0  0  0  0
  178.9550  179.6100  143.9110 O   0  0  0  0  0  0  0  0  0  0  0  0
  190.7840  176.5210  138.6550 C   0  0  0  0  0  2  0  0  0  0  0  0
  192.3050  176.1360  134.5990 C   0  0  0  0  0  3  0  0  0  0  0  0
  193.6640  175.8170  137.9020 N   0  0  0  0  0  0  0  0  0  0  0  0
  193.0940  175.9410  135.7300 C   0  0  0  0  0  0  0  0  0  0  0  0
  192.6060  176.0500  136.9840 C   0  0  0  0  0  0  0  0  0  0  0  0
  194.8580  175.5450  137.1880 N   0  0  0  0  0  0  0  0  0  0  0  0
  190.4370  176.5790  136.1200 C   0  0  0  0  0  3  0  0  0  0  0  0
  190.9500  176.4590  134.8080 C   0  0  0  0  0  3  0  0  0  0  0  0
  194.4710  175.6410  135.8330 N   0  0  0  0  0  0  0  0  0  0  0  0
  195.3740  175.4100  134.7200 C   0  0  0  0  0  1  0  0  0  0  0  0
  191.2690  176.3580  137.2400 C   0  0  0  0  0  0  0  0  0  0  0  0
  1  4  1  0  0  0  0
  1  2  2  0  0  0  0
  3  5  1  0  0  0  0
  3 11  1  0  0  0  0
  4 12  1  0  0  0  0
  5  8  1  0  0  0  0
  7 10  1  0  0  0  0
  7  1  1  0  0  0  0
  8 56  1  1  0  0  0
  8  7  1  0  0  0  0
  9 23  1  1  0  0  0
  9 10  1  0  0  0  0
 10  6  2  0  0  0  0
 11 27  1  6  0  0  0
 11  9  1  0  0  0  0
 12 13  1  0  0  0  0
 13 14  1  0  0  0  0
 15 18  1  6  0  0  0
 16 14  1  6  0  0  0
 16 17  1  0  0  0  0
 16 15  1  0  0  0  0
 17 15  1  0  0  0  0
 18 20  1  0  0  0  0
 20 22  1  0  0  0  0
 20 19  1  1  0  0  0
 22 21  1  0  0  0  0
 23 25  1  0  0  0  0
 25 26  2  0  0  0  0
 25 24  1  0  0  0  0
 28 29  1  6  0  0  0
 28 27  1  0  0  0  0
 30 28  1  0  0  0  0
 31 32  1  6  0  0  0
 31 41  1  0  0  0  0
 31 30  1  0  0  0  0
 32 33  1  0  0  0  0
 33 34  1  0  0  0  0
 35 34  1  0  0  0  0
 36 38  1  0  0  0  0
 37 35  1  6  0  0  0
 38 37  1  0  0  0  0
 39 40  1  0  0  0  0
 39 36  1  0  0  0  0
 40 37  1  0  0  0  0
 42 41  1  6  0  0  0
 42 47  1  0  0  0  0
 43 45  1  0  0  0  0
 44 46  1  0  0  0  0
 46 42  1  0  0  0  0
 46 43  1  0  0  0  0
 46 45  1  0  0  0  0
 47 49  1  0  0  0  0
 49 48  2  0  0  0  0
 49 50  1  0  0  0  0
 50 54  1  0  0  0  0
 52 54  1  0  0  0  0
 53 51  1  6  0  0  0
 54 51  1  0  0  0  0
 54 55  1  0  0  0  0
 54 53  1  0  0  0  0
 55 53  1  0  0  0  0
 57 63  2  0  0  0  0
 57 59  1  0  0  0  0
 59 64  1  0  0  0  0
 59 60  2  0  0  0  0
 60 66  1  0  0  0  0
 60 58  1  0  0  0  0
 61 58  2  0  0  0  0
 62 66  2  0  0  0  0
 63 62  1  0  0  0  0
 64 61  1  0  0  0  0
 65 64  1  0  0  0  0
 66 56  1  0  0  0  0
M  END
>  <MODEL>
9

>  <REMARK>
 VINA RESULT:      -2.5      2.873      6.725
  Name = 
  27 active torsions:
  status: ('A' for Active; 'I' for Inactive)
    1  A    between atoms: C_2  and  C_19
    2  A    between atoms: C_2  and  C_60
    3  A    between atoms: C_10  and  C_45
    4  A    between atoms: C_10  and  C_51
    5  A    between atoms: C_12  and  C_30
    6  A    between atoms: C_14  and  C_17
    7  A    between atoms: C_14  and  C_46
    8  A    between atoms: C_15  and  C_21
    9  A    between atoms: C_15  and  C_60
   10  A    between atoms: C_17  and  N_64
   11  A    between atoms: C_19  and  O_55
   12  A    between atoms: C_21  and  C_46
   13  A    between atoms: C_21  and  C_65
   14  A    between atoms: N_22  and  C_51
   15  A    between atoms: C_27  and  N_64
   16  A    between atoms: C_29  and  C_53
   17  A    between atoms: C_30  and  C_63
   18  A    between atoms: C_32  and  C_47
   19  A    between atoms: C_32  and  C_62
   20  A    between atoms: C_34  and  C_40
   21  A    between atoms: C_34  and  C_65
   22  A    between atoms: P_38  and  O_55
   23  A    between atoms: C_40  and  C_66
   24  A    between atoms: C_42  and  C_45
   25  A    between atoms: C_49  and  C_53
   26  A    between atoms: C_52  and  C_60
   27  A    between atoms: C_56  and  C_63
                            x       y       z     vdW  Elec       q    Type
                         _______ _______ _______ _____ _____    ______ ____

>  <TORSDO>
F 27

$$$$
