=
 OpenBabel11062412313D

 33 38  0  0  1  0  0  0  0  0999 V2000
  185.7540  178.5850  142.0850 C   0  0  0  0  0  0  0  0  0  0  0  0
  183.8030  178.3350  140.6540 C   0  0  0  0  0  0  0  0  0  0  0  0
  183.5560  178.7700  143.0580 C   0  0  0  0  0  0  0  0  0  0  0  0
  182.7420  178.9650  144.1740 C   0  0  0  0  0  3  0  0  0  0  0  0
  187.2420  178.6130  142.1190 C   0  0  2  0  0  3  0  0  0  0  0  0
  181.5750  178.4870  141.7000 C   0  0  0  0  0  3  0  0  0  0  0  0
  184.9430  178.8000  143.2020 C   0  0  0  0  0  3  0  0  0  0  0  0
  187.7300  178.0750  140.7730 C   0  0  0  0  0  2  0  0  0  0  0  0
  185.2020  178.3800  140.8360 C   0  0  0  0  0  0  0  0  0  0  0  0
  181.3560  178.9170  144.0260 C   0  0  0  0  0  3  0  0  0  0  0  0
  182.9740  178.5320  141.7890 C   0  0  0  0  0  0  0  0  0  0  0  0
  186.4080  178.2650  139.5240 S   0  0  0  0  0  0  0  0  0  0  0  0
  180.8060  178.6790  142.8060 N   0  0  0  0  0  0  0  0  0  0  0  0
  191.4980  177.9990  143.4450 C   0  0  0  0  0  2  0  0  0  0  0  0
  189.1550  177.7550  146.2490 C   0  0  1  0  0  3  0  0  0  0  0  0
  187.0800  176.8940  143.7740 O   0  0  0  0  0  0  0  0  0  0  0  0
  189.3350  175.7060  147.5070 F   0  0  0  0  0  0  0  0  0  0  0  0
  189.7100  177.3740  144.8780 C   0  0  1  0  0  3  0  0  0  0  0  0
  192.1490  176.2760  147.9270 O   0  0  0  0  0  0  0  0  0  0  0  0
  190.1870  178.4540  142.8040 C   0  0  0  0  0  2  0  0  0  0  0  0
  187.7840  177.5120  146.3360 O   0  0  0  0  0  1  0  0  0  0  0  0
  191.3970  176.7680  147.0460 C   0  0  0  0  0  0  0  0  0  0  0  0
  189.9150  176.9530  147.3420 C   0  0  1  0  0  3  0  0  0  0  0  0
  189.1270  178.0250  143.7160 N   0  0  0  0  0  0  0  0  0  0  0  0
  191.9340  177.0840  145.7510 N   0  0  0  0  0  2  0  0  0  0  0  0
  187.7950  177.7880  143.2430 C   0  0  0  0  0  0  0  0  0  0  0  0
  191.1070  177.9090  144.8940 C   0  0  1  0  0  3  0  0  0  0  0  0
  183.1300  176.7990  138.7990 C   0  0  0  0  0  3  0  0  0  0  0  0
  182.5870  176.5760  137.5300 C   0  0  0  0  0  3  0  0  0  0  0  0
  183.2270  178.1010  139.3100 C   0  0  0  0  0  0  0  0  0  0  0  0
  182.1350  177.6560  136.7650 C   0  0  0  0  0  3  0  0  0  0  0  0
  182.2270  178.9570  137.2690 C   0  0  0  0  0  3  0  0  0  0  0  0
  182.7710  179.1790  138.5370 C   0  0  0  0  0  3  0  0  0  0  0  0
  1  5  1  0  0  0  0
  1  7  1  0  0  0  0
  2  9  1  0  0  0  0
  2 11  2  0  0  0  0
  3  7  2  0  0  0  0
  3  4  1  0  0  0  0
  5 26  1  1  0  0  0
  6 11  1  0  0  0  0
  6 13  2  0  0  0  0
  8  5  1  0  0  0  0
  9  1  2  0  0  0  0
 10  4  2  0  0  0  0
 11  3  1  0  0  0  0
 12  8  1  0  0  0  0
 12  9  1  0  0  0  0
 13 10  1  0  0  0  0
 15 21  1  6  0  0  0
 15 23  1  0  0  0  0
 18 24  1  6  0  0  0
 18 27  1  0  0  0  0
 18 15  1  0  0  0  0
 20 14  1  0  0  0  0
 20 24  1  0  0  0  0
 22 23  1  0  0  0  0
 22 19  2  0  0  0  0
 23 17  1  6  0  0  0
 25 22  1  0  0  0  0
 26 24  1  0  0  0  0
 26 16  2  0  0  0  0
 27 14  1  6  0  0  0
 27 25  1  0  0  0  0
 28 30  1  0  0  0  0
 29 28  2  0  0  0  0
 30  2  1  0  0  0  0
 31 32  2  0  0  0  0
 31 29  1  0  0  0  0
 32 33  1  0  0  0  0
 33 30  2  0  0  0  0
M  END
>  <MODEL>
1

>  <REMARK>
 VINA RESULT:      -9.6      0.000      0.000
  Name = 
  2 active torsions:
  status: ('A' for Active; 'I' for Inactive)
    1  A    between atoms: C_4  and  C_18
    2  A    between atoms: C_11  and  C_30
                            x       y       z     vdW  Elec       q    Type
                         _______ _______ _______ _____ _____    ______ ____

>  <TORSDO>
F 2

$$$$
=
 OpenBabel11062412313D

 33 38  0  0  1  0  0  0  0  0999 V2000
  189.3520  177.8960  142.1260 C   0  0  0  0  0  0  0  0  0  0  0  0
  187.9950  177.9080  144.1450 C   0  0  0  0  0  0  0  0  0  0  0  0
  190.3810  177.3350  144.2340 C   0  0  0  0  0  0  0  0  0  0  0  0
  191.5050  176.9500  144.9640 C   0  0  0  0  0  3  0  0  0  0  0  0
  189.3530  178.1470  140.6590 C   0  0  2  0  0  3  0  0  0  0  0  0
  189.0780  177.2840  146.2710 C   0  0  0  0  0  3  0  0  0  0  0  0
  190.4860  177.5300  142.8560 C   0  0  0  0  0  3  0  0  0  0  0  0
  187.8910  178.2560  140.2240 C   0  0  0  0  0  2  0  0  0  0  0  0
  188.1400  178.1030  142.7550 C   0  0  0  0  0  0  0  0  0  0  0  0
  191.3890  176.7410  146.3380 C   0  0  0  0  0  3  0  0  0  0  0  0
  189.1370  177.5160  144.8880 C   0  0  0  0  0  0  0  0  0  0  0  0
  186.8570  178.6990  141.6650 S   0  0  0  0  0  0  0  0  0  0  0  0
  190.1900  176.9080  146.9570 N   0  0  0  0  0  0  0  0  0  0  0  0
  189.2040  177.1080  136.2830 C   0  0  0  0  0  2  0  0  0  0  0  0
  192.4310  176.2310  137.7760 C   0  0  1  0  0  3  0  0  0  0  0  0
  190.5360  176.0730  140.5260 O   0  0  0  0  0  0  0  0  0  0  0  0
  193.0690  173.9270  137.4570 F   0  0  0  0  0  0  0  0  0  0  0  0
  190.9080  176.1920  137.6600 C   0  0  1  0  0  3  0  0  0  0  0  0
  192.7730  174.3000  134.5940 O   0  0  0  0  0  0  0  0  0  0  0  0
  189.0960  177.7440  137.6690 C   0  0  0  0  0  2  0  0  0  0  0  0
  192.8530  176.0090  139.0870 O   0  0  0  0  0  1  0  0  0  0  0  0
  192.2880  175.0170  135.5080 C   0  0  0  0  0  0  0  0  0  0  0  0
  193.0370  175.1600  136.8270 C   0  0  1  0  0  3  0  0  0  0  0  0
  190.1510  177.1280  138.4740 N   0  0  0  0  0  0  0  0  0  0  0  0
  191.0040  175.6330  135.3200 N   0  0  0  0  0  2  0  0  0  0  0  0
  190.0440  177.0520  139.9010 C   0  0  0  0  0  0  0  0  0  0  0  0
  190.6410  176.6680  136.2670 C   0  0  1  0  0  3  0  0  0  0  0  0
  186.5890  178.1510  146.1990 C   0  0  0  0  0  3  0  0  0  0  0  0
  185.3520  178.3540  146.8190 C   0  0  0  0  0  3  0  0  0  0  0  0
  186.6840  178.1220  144.8000 C   0  0  0  0  0  0  0  0  0  0  0  0
  184.2030  178.5290  146.0420 C   0  0  0  0  0  3  0  0  0  0  0  0
  184.2900  178.5020  144.6480 C   0  0  0  0  0  3  0  0  0  0  0  0
  185.5260  178.2990  144.0280 C   0  0  0  0  0  3  0  0  0  0  0  0
  1  9  2  0  0  0  0
  1  7  1  0  0  0  0
  2 30  1  0  0  0  0
  2 11  2  0  0  0  0
  3 11  1  0  0  0  0
  3  4  1  0  0  0  0
  4 10  2  0  0  0  0
  5 26  1  6  0  0  0
  5  1  1  0  0  0  0
  6 13  2  0  0  0  0
  7  3  2  0  0  0  0
  8  5  1  0  0  0  0
  8 12  1  0  0  0  0
  9  2  1  0  0  0  0
 10 13  1  0  0  0  0
 11  6  1  0  0  0  0
 12  9  1  0  0  0  0
 14 20  1  0  0  0  0
 15 21  1  1  0  0  0
 18 15  1  0  0  0  0
 18 24  1  1  0  0  0
 19 22  2  0  0  0  0
 20 24  1  0  0  0  0
 22 23  1  0  0  0  0
 23 17  1  1  0  0  0
 23 15  1  0  0  0  0
 24 26  1  0  0  0  0
 25 22  1  0  0  0  0
 25 27  1  0  0  0  0
 26 16  2  0  0  0  0
 27 14  1  1  0  0  0
 27 18  1  0  0  0  0
 28 29  1  0  0  0  0
 30 28  2  0  0  0  0
 31 29  2  0  0  0  0
 32 31  1  0  0  0  0
 33 32  2  0  0  0  0
 33 30  1  0  0  0  0
M  END
>  <MODEL>
2

>  <REMARK>
 VINA RESULT:      -8.3      4.682      7.974
  Name = 
  2 active torsions:
  status: ('A' for Active; 'I' for Inactive)
    1  A    between atoms: C_4  and  C_18
    2  A    between atoms: C_11  and  C_30
                            x       y       z     vdW  Elec       q    Type
                         _______ _______ _______ _____ _____    ______ ____

>  <TORSDO>
F 2

$$$$
=
 OpenBabel11062412313D

 33 38  0  0  1  0  0  0  0  0999 V2000
  183.9130  178.8020  141.8970 C   0  0  0  0  0  0  0  0  0  0  0  0
  185.7210  178.4480  143.4860 C   0  0  0  0  0  0  0  0  0  0  0  0
  186.1520  178.4650  141.0690 C   0  0  0  0  0  0  0  0  0  0  0  0
  187.0390  178.3490  139.9980 C   0  0  0  0  0  3  0  0  0  0  0  0
  182.4570  179.0750  141.7520 C   0  0  2  0  0  3  0  0  0  0  0  0
  187.9870  178.0620  142.5930 C   0  0  0  0  0  3  0  0  0  0  0  0
  184.8000  178.7060  140.8230 C   0  0  0  0  0  3  0  0  0  0  0  0
  181.8190  178.8370  143.1220 C   0  0  0  0  0  2  0  0  0  0  0  0
  184.3620  178.7000  143.1990 C   0  0  0  0  0  0  0  0  0  0  0  0
  188.3860  178.0910  140.2520 C   0  0  0  0  0  3  0  0  0  0  0  0
  186.6230  178.3280  142.3980 C   0  0  0  0  0  0  0  0  0  0  0  0
  183.0940  178.9900  144.4230 S   0  0  0  0  0  0  0  0  0  0  0  0
  188.8280  177.9520  141.5300 N   0  0  0  0  0  0  0  0  0  0  0  0
  181.1790  180.0040  137.5390 C   0  0  0  0  0  2  0  0  0  0  0  0
  182.1870  176.5030  137.9090 C   0  0  1  0  0  3  0  0  0  0  0  0
  181.2780  177.1100  141.0690 O   0  0  0  0  0  0  0  0  0  0  0  0
  180.5190  174.9170  137.1890 F   0  0  0  0  0  0  0  0  0  0  0  0
  181.3650  177.7450  138.2490 C   0  0  1  0  0  3  0  0  0  0  0  0
  180.4830  176.2190  134.5960 O   0  0  0  0  0  0  0  0  0  0  0  0
  181.7670  179.9900  138.9500 C   0  0  0  0  0  2  0  0  0  0  0  0
  182.3070  175.6500  139.0070 O   0  0  0  0  0  1  0  0  0  0  0  0
  180.9130  176.6940  135.6780 C   0  0  0  0  0  0  0  0  0  0  0  0
  181.5130  175.7610  136.7220 C   0  0  1  0  0  3  0  0  0  0  0  0
  181.8370  178.5820  139.3390 N   0  0  0  0  0  0  0  0  0  0  0  0
  180.7700  178.0980  135.9430 N   0  0  0  0  0  2  0  0  0  0  0  0
  181.8200  178.1940  140.7190 C   0  0  0  0  0  0  0  0  0  0  0  0
  181.5380  178.6270  137.0530 C   0  0  1  0  0  3  0  0  0  0  0  0
  187.1380  177.3630  145.2370 C   0  0  0  0  0  3  0  0  0  0  0  0
  187.5760  177.2480  146.5600 C   0  0  0  0  0  3  0  0  0  0  0  0
  186.1830  178.3270  144.8880 C   0  0  0  0  0  0  0  0  0  0  0  0
  187.0590  178.0990  147.5420 C   0  0  0  0  0  3  0  0  0  0  0  0
  186.1070  179.0640  147.2010 C   0  0  0  0  0  3  0  0  0  0  0  0
  185.6700  179.1780  145.8790 C   0  0  0  0  0  3  0  0  0  0  0  0
  1  9  1  0  0  0  0
  2 30  1  0  0  0  0
  3 11  1  0  0  0  0
  4 10  1  0  0  0  0
  4  3  2  0  0  0  0
  5 26  1  6  0  0  0
  5  1  1  0  0  0  0
  5  8  1  0  0  0  0
  7  3  1  0  0  0  0
  7  1  2  0  0  0  0
  8 12  1  0  0  0  0
  9  2  2  0  0  0  0
  9 12  1  0  0  0  0
 10 13  2  0  0  0  0
 11  6  2  0  0  0  0
 11  2  1  0  0  0  0
 13  6  1  0  0  0  0
 14 20  1  0  0  0  0
 15 18  1  0  0  0  0
 15 21  1  1  0  0  0
 18 24  1  1  0  0  0
 19 22  2  0  0  0  0
 20 24  1  0  0  0  0
 22 25  1  0  0  0  0
 22 23  1  0  0  0  0
 23 17  1  1  0  0  0
 23 15  1  0  0  0  0
 24 26  1  0  0  0  0
 25 27  1  0  0  0  0
 26 16  2  0  0  0  0
 27 14  1  1  0  0  0
 27 18  1  0  0  0  0
 28 29  1  0  0  0  0
 29 31  2  0  0  0  0
 30 28  2  0  0  0  0
 30 33  1  0  0  0  0
 32 31  1  0  0  0  0
 33 32  2  0  0  0  0
M  END
>  <MODEL>
3

>  <REMARK>
 VINA RESULT:      -8.2      4.360      9.358
  Name = 
  2 active torsions:
  status: ('A' for Active; 'I' for Inactive)
    1  A    between atoms: C_4  and  C_18
    2  A    between atoms: C_11  and  C_30
                            x       y       z     vdW  Elec       q    Type
                         _______ _______ _______ _____ _____    ______ ____

>  <TORSDO>
F 2

$$$$
=
 OpenBabel11062412313D

 33 38  0  0  1  0  0  0  0  0999 V2000
  185.8680  178.5460  140.5170 C   0  0  0  0  0  0  0  0  0  0  0  0
  188.0760  177.9860  141.3710 C   0  0  0  0  0  0  0  0  0  0  0  0
  187.6680  178.1680  138.9570 C   0  0  0  0  0  0  0  0  0  0  0  0
  188.1310  178.0920  137.6430 C   0  0  0  0  0  3  0  0  0  0  0  0
  184.4710  178.8980  140.8920 C   0  0  2  0  0  3  0  0  0  0  0  0
  189.8750  177.5620  139.7380 C   0  0  0  0  0  3  0  0  0  0  0  0
  186.3330  178.4910  139.2000 C   0  0  0  0  0  3  0  0  0  0  0  0
  184.3180  178.5860  142.3820 C   0  0  0  0  0  2  0  0  0  0  0  0
  186.7210  178.3230  141.5800 C   0  0  0  0  0  0  0  0  0  0  0  0
  189.4630  177.7520  137.4070 C   0  0  0  0  0  3  0  0  0  0  0  0
  188.5480  177.9070  140.0360 C   0  0  0  0  0  0  0  0  0  0  0  0
  185.9640  178.5780  143.1770 S   0  0  0  0  0  0  0  0  0  0  0  0
  190.2990  177.4950  138.4480 N   0  0  0  0  0  0  0  0  0  0  0  0
  181.4530  180.3410  137.8830 C   0  0  0  0  0  2  0  0  0  0  0  0
  182.5910  176.9410  137.1380 C   0  0  1  0  0  3  0  0  0  0  0  0
  183.1520  176.9570  140.4340 O   0  0  0  0  0  0  0  0  0  0  0  0
  180.8090  175.3310  136.9260 F   0  0  0  0  0  0  0  0  0  0  0  0
  181.9780  178.0290  138.0180 C   0  0  1  0  0  3  0  0  0  0  0  0
  179.6100  177.0100  134.8860 O   0  0  0  0  0  0  0  0  0  0  0  0
  182.6020  180.1660  138.8770 C   0  0  0  0  0  2  0  0  0  0  0  0
  183.1990  175.9440  137.9020 O   0  0  0  0  0  1  0  0  0  0  0  0
  180.4630  177.3510  135.7460 C   0  0  0  0  0  0  0  0  0  0  0  0
  181.4800  176.3300  136.2410 C   0  0  1  0  0  3  0  0  0  0  0  0
  182.8640  178.7280  138.9330 N   0  0  0  0  0  0  0  0  0  0  0  0
  180.4220  178.6760  136.2990 N   0  0  0  0  0  2  0  0  0  0  0  0
  183.4630  178.1300  140.0900 C   0  0  0  0  0  0  0  0  0  0  0  0
  181.5890  179.0990  137.0470 C   0  0  1  0  0  3  0  0  0  0  0  0
  189.6930  178.7910  143.1000 C   0  0  0  0  0  3  0  0  0  0  0  0
  190.5400  178.5570  144.1870 C   0  0  0  0  0  3  0  0  0  0  0  0
  188.9730  177.7360  142.5220 C   0  0  0  0  0  0  0  0  0  0  0  0
  190.6720  177.2640  144.7040 C   0  0  0  0  0  3  0  0  0  0  0  0
  189.9560  176.2080  144.1340 C   0  0  0  0  0  3  0  0  0  0  0  0
  189.1100  176.4420  143.0470 C   0  0  0  0  0  3  0  0  0  0  0  0
  1  5  1  0  0  0  0
  1  9  1  0  0  0  0
  2  9  2  0  0  0  0
  2 30  1  0  0  0  0
  3  7  1  0  0  0  0
  3 11  1  0  0  0  0
  4  3  2  0  0  0  0
  5 26  1  6  0  0  0
  5  8  1  0  0  0  0
  6 11  2  0  0  0  0
  7  1  2  0  0  0  0
  8 12  1  0  0  0  0
  9 12  1  0  0  0  0
 10  4  1  0  0  0  0
 10 13  2  0  0  0  0
 11  2  1  0  0  0  0
 13  6  1  0  0  0  0
 14 20  1  0  0  0  0
 15 21  1  1  0  0  0
 15 18  1  0  0  0  0
 18 24  1  1  0  0  0
 19 22  2  0  0  0  0
 20 24  1  0  0  0  0
 22 23  1  0  0  0  0
 22 25  1  0  0  0  0
 23 17  1  1  0  0  0
 23 15  1  0  0  0  0
 24 26  1  0  0  0  0
 25 27  1  0  0  0  0
 26 16  2  0  0  0  0
 27 14  1  1  0  0  0
 27 18  1  0  0  0  0
 28 29  1  0  0  0  0
 29 31  2  0  0  0  0
 30 33  1  0  0  0  0
 30 28  2  0  0  0  0
 32 31  1  0  0  0  0
 33 32  2  0  0  0  0
M  END
>  <MODEL>
4

>  <REMARK>
 VINA RESULT:      -8.0      4.216      9.610
  Name = 
  2 active torsions:
  status: ('A' for Active; 'I' for Inactive)
    1  A    between atoms: C_4  and  C_18
    2  A    between atoms: C_11  and  C_30
                            x       y       z     vdW  Elec       q    Type
                         _______ _______ _______ _____ _____    ______ ____

>  <TORSDO>
F 2

$$$$
=
 OpenBabel11062412313D

 33 38  0  0  1  0  0  0  0  0999 V2000
  185.5050  178.6280  141.5320 C   0  0  0  0  0  0  0  0  0  0  0  0
  187.3820  178.0260  142.9590 C   0  0  0  0  0  0  0  0  0  0  0  0
  187.6580  178.2190  140.5270 C   0  0  0  0  0  0  0  0  0  0  0  0
  188.4650  178.1360  139.3910 C   0  0  0  0  0  3  0  0  0  0  0  0
  184.0650  179.0040  141.5100 C   0  0  2  0  0  3  0  0  0  0  0  0
  189.5540  177.5730  141.8830 C   0  0  0  0  0  3  0  0  0  0  0  0
  186.3140  178.5660  140.3950 C   0  0  0  0  0  3  0  0  0  0  0  0
  183.5010  178.6930  142.8980 C   0  0  0  0  0  2  0  0  0  0  0  0
  186.0280  178.3870  142.7880 C   0  0  0  0  0  0  0  0  0  0  0  0
  189.8050  177.7730  139.5300 C   0  0  0  0  0  3  0  0  0  0  0  0
  188.2020  177.9410  141.8050 C   0  0  0  0  0  0  0  0  0  0  0  0
  184.8640  178.6540  144.1160 S   0  0  0  0  0  0  0  0  0  0  0  0
  190.3160  177.4990  140.7590 N   0  0  0  0  0  0  0  0  0  0  0  0
  181.3190  180.5240  138.2860 C   0  0  0  0  0  2  0  0  0  0  0  0
  183.0420  177.4580  137.2650 C   0  0  1  0  0  3  0  0  0  0  0  0
  183.1250  177.0120  140.5780 O   0  0  0  0  0  0  0  0  0  0  0  0
  181.5650  175.6930  136.5450 F   0  0  0  0  0  0  0  0  0  0  0  0
  182.1560  178.3040  138.1780 C   0  0  1  0  0  3  0  0  0  0  0  0
  180.4290  177.5160  134.5940 O   0  0  0  0  0  0  0  0  0  0  0  0
  182.3300  180.3360  139.4180 C   0  0  0  0  0  2  0  0  0  0  0  0
  183.6770  176.4350  137.9700 O   0  0  0  0  0  1  0  0  0  0  0  0
  181.0930  177.8180  135.6200 C   0  0  0  0  0  0  0  0  0  0  0  0
  182.1700  176.8660  136.1240 C   0  0  1  0  0  3  0  0  0  0  0  0
  182.7920  178.9530  139.3140 N   0  0  0  0  0  0  0  0  0  0  0  0
  180.7790  179.0210  136.3390 N   0  0  0  0  0  2  0  0  0  0  0  0
  183.3040  178.2550  140.4560 C   0  0  0  0  0  0  0  0  0  0  0  0
  181.7530  179.4590  137.3180 C   0  0  1  0  0  3  0  0  0  0  0  0
  187.0640  177.3810  145.3540 C   0  0  0  0  0  3  0  0  0  0  0  0
  187.5740  177.1280  146.6320 C   0  0  0  0  0  3  0  0  0  0  0  0
  187.9220  177.7590  144.3110 C   0  0  0  0  0  0  0  0  0  0  0  0
  188.9450  177.2510  146.8730 C   0  0  0  0  0  3  0  0  0  0  0  0
  189.8060  177.6260  145.8380 C   0  0  0  0  0  3  0  0  0  0  0  0
  189.2970  177.8790  144.5620 C   0  0  0  0  0  3  0  0  0  0  0  0
  1  9  1  0  0  0  0
  2 30  1  0  0  0  0
  3 11  1  0  0  0  0
  4 10  1  0  0  0  0
  4  3  2  0  0  0  0
  5 26  1  6  0  0  0
  5  1  1  0  0  0  0
  5  8  1  0  0  0  0
  7  3  1  0  0  0  0
  7  1  2  0  0  0  0
  8 12  1  0  0  0  0
  9  2  2  0  0  0  0
  9 12  1  0  0  0  0
 10 13  2  0  0  0  0
 11  6  2  0  0  0  0
 11  2  1  0  0  0  0
 13  6  1  0  0  0  0
 14 20  1  0  0  0  0
 15 21  1  1  0  0  0
 15 18  1  0  0  0  0
 18 24  1  1  0  0  0
 19 22  2  0  0  0  0
 22 23  1  0  0  0  0
 22 25  1  0  0  0  0
 23 17  1  1  0  0  0
 23 15  1  0  0  0  0
 24 20  1  0  0  0  0
 24 26  1  0  0  0  0
 25 27  1  0  0  0  0
 26 16  2  0  0  0  0
 27 18  1  0  0  0  0
 27 14  1  1  0  0  0
 28 29  1  0  0  0  0
 29 31  2  0  0  0  0
 30 33  1  0  0  0  0
 30 28  2  0  0  0  0
 32 31  1  0  0  0  0
 33 32  2  0  0  0  0
M  END
>  <MODEL>
5

>  <REMARK>
 VINA RESULT:      -7.9      3.969      9.452
  Name = 
  2 active torsions:
  status: ('A' for Active; 'I' for Inactive)
    1  A    between atoms: C_4  and  C_18
    2  A    between atoms: C_11  and  C_30
                            x       y       z     vdW  Elec       q    Type
                         _______ _______ _______ _____ _____    ______ ____

>  <TORSDO>
F 2

$$$$
=
 OpenBabel11062412313D

 33 38  0  0  1  0  0  0  0  0999 V2000
  188.6740  178.0550  141.4460 C   0  0  0  0  0  0  0  0  0  0  0  0
  187.0260  178.1400  143.2330 C   0  0  0  0  0  0  0  0  0  0  0  0
  189.3790  177.6270  143.7110 C   0  0  0  0  0  0  0  0  0  0  0  0
  190.3860  177.3070  144.6230 C   0  0  0  0  0  3  0  0  0  0  0  0
  188.8930  178.2300  139.9840 C   0  0  2  0  0  3  0  0  0  0  0  0
  187.7840  177.6520  145.5290 C   0  0  0  0  0  3  0  0  0  0  0  0
  189.6890  177.7530  142.3570 C   0  0  0  0  0  3  0  0  0  0  0  0
  187.5120  178.2830  139.3280 C   0  0  0  0  0  2  0  0  0  0  0  0
  187.3770  178.2670  141.8720 C   0  0  0  0  0  0  0  0  0  0  0  0
  190.0660  177.1670  145.9730 C   0  0  0  0  0  3  0  0  0  0  0  0
  188.0480  177.8130  144.1600 C   0  0  0  0  0  0  0  0  0  0  0  0
  186.2650  178.7760  140.5710 S   0  0  0  0  0  0  0  0  0  0  0  0
  188.7850  177.3370  146.3940 N   0  0  0  0  0  0  0  0  0  0  0  0
  189.0540  176.6560  135.7710 C   0  0  0  0  0  2  0  0  0  0  0  0
  192.2580  176.2450  137.4960 C   0  0  1  0  0  3  0  0  0  0  0  0
  190.2420  176.2630  140.1620 O   0  0  0  0  0  0  0  0  0  0  0  0
  193.0930  173.9820  137.4970 F   0  0  0  0  0  0  0  0  0  0  0  0
  190.7520  176.0620  137.3230 C   0  0  1  0  0  3  0  0  0  0  0  0
  192.9180  173.9770  134.6000 O   0  0  0  0  0  0  0  0  0  0  0  0
  188.8250  177.4450  137.0610 C   0  0  0  0  0  2  0  0  0  0  0  0
  192.6280  176.2220  138.8420 O   0  0  0  0  0  1  0  0  0  0  0  0
  192.3310  174.7560  135.3950 C   0  0  0  0  0  0  0  0  0  0  0  0
  192.9960  175.1220  136.7160 C   0  0  1  0  0  3  0  0  0  0  0  0
  189.8810  177.0230  137.9790 N   0  0  0  0  0  0  0  0  0  0  0  0
  191.0140  175.2330  135.0780 N   0  0  0  0  0  2  0  0  0  0  0  0
  189.7070  177.1140  139.3990 C   0  0  0  0  0  0  0  0  0  0  0  0
  190.5210  176.3410  135.8710 C   0  0  1  0  0  3  0  0  0  0  0  0
  184.5780  178.2910  142.7450 C   0  0  0  0  0  3  0  0  0  0  0  0
  183.2580  178.4950  143.1570 C   0  0  0  0  0  3  0  0  0  0  0  0
  185.6280  178.3580  143.6710 C   0  0  0  0  0  0  0  0  0  0  0  0
  182.9810  178.7680  144.5000 C   0  0  0  0  0  3  0  0  0  0  0  0
  184.0220  178.8350  145.4300 C   0  0  0  0  0  3  0  0  0  0  0  0
  185.3420  178.6310  145.0170 C   0  0  0  0  0  3  0  0  0  0  0  0
  1  9  2  0  0  0  0
  1  7  1  0  0  0  0
  2 30  1  0  0  0  0
  2 11  2  0  0  0  0
  3 11  1  0  0  0  0
  3  4  1  0  0  0  0
  4 10  2  0  0  0  0
  5 26  1  6  0  0  0
  5  1  1  0  0  0  0
  6 13  2  0  0  0  0
  7  3  2  0  0  0  0
  8  5  1  0  0  0  0
  8 12  1  0  0  0  0
  9  2  1  0  0  0  0
 10 13  1  0  0  0  0
 11  6  1  0  0  0  0
 12  9  1  0  0  0  0
 14 20  1  0  0  0  0
 15 21  1  1  0  0  0
 18 15  1  0  0  0  0
 18 24  1  1  0  0  0
 19 22  2  0  0  0  0
 20 24  1  0  0  0  0
 22 23  1  0  0  0  0
 23 15  1  0  0  0  0
 23 17  1  1  0  0  0
 24 26  1  0  0  0  0
 25 22  1  0  0  0  0
 25 27  1  0  0  0  0
 26 16  2  0  0  0  0
 27 14  1  1  0  0  0
 27 18  1  0  0  0  0
 28 29  2  0  0  0  0
 28 30  1  0  0  0  0
 29 31  1  0  0  0  0
 30 33  2  0  0  0  0
 31 32  2  0  0  0  0
 33 32  1  0  0  0  0
M  END
>  <MODEL>
6

>  <REMARK>
 VINA RESULT:      -7.9      4.718      7.489
  Name = 
  2 active torsions:
  status: ('A' for Active; 'I' for Inactive)
    1  A    between atoms: C_4  and  C_18
    2  A    between atoms: C_11  and  C_30
                            x       y       z     vdW  Elec       q    Type
                         _______ _______ _______ _____ _____    ______ ____

>  <TORSDO>
F 2

$$$$
=
 OpenBabel11062412313D

 33 38  0  0  1  0  0  0  0  0999 V2000
  188.9700  177.5270  140.1010 C   0  0  0  0  0  0  0  0  0  0  0  0
  188.9360  176.6800  137.8210 C   0  0  0  0  0  0  0  0  0  0  0  0
  186.9820  177.8250  138.7690 C   0  0  0  0  0  0  0  0  0  0  0  0
  185.6740  178.2930  138.6390 C   0  0  0  0  0  3  0  0  0  0  0  0
  189.7980  177.6870  141.3270 C   0  0  2  0  0  3  0  0  0  0  0  0
  186.8670  176.9670  136.5100 C   0  0  0  0  0  3  0  0  0  0  0  0
  187.6670  178.0140  139.9690 C   0  0  0  0  0  3  0  0  0  0  0  0
  191.0290  176.7960  141.1540 C   0  0  0  0  0  2  0  0  0  0  0  0
  189.6010  176.8950  139.0470 C   0  0  0  0  0  0  0  0  0  0  0  0
  184.9900  178.0860  137.4410 C   0  0  0  0  0  3  0  0  0  0  0  0
  187.6060  177.1530  137.6880 C   0  0  0  0  0  0  0  0  0  0  0  0
  191.3050  176.4750  139.3760 S   0  0  0  0  0  0  0  0  0  0  0  0
  185.5930  177.4320  136.4130 N   0  0  0  0  0  0  0  0  0  0  0  0
  191.1980  177.4060  145.5950 C   0  0  0  0  0  2  0  0  0  0  0  0
  187.6560  178.3110  145.3860 C   0  0  1  0  0  3  0  0  0  0  0  0
  187.9440  176.7010  142.4710 O   0  0  0  0  0  0  0  0  0  0  0  0
  186.1930  176.8570  146.6350 F   0  0  0  0  0  0  0  0  0  0  0  0
  188.8730  177.4300  145.1110 C   0  0  1  0  0  3  0  0  0  0  0  0
  187.7630  177.4110  149.0120 O   0  0  0  0  0  0  0  0  0  0  0  0
  191.0210  177.6550  144.0970 C   0  0  0  0  0  2  0  0  0  0  0  0
  186.6880  178.1790  144.3890 O   0  0  0  0  0  1  0  0  0  0  0  0
  188.1110  177.5810  147.8140 C   0  0  0  0  0  0  0  0  0  0  0  0
  187.0590  177.9290  146.7690 C   0  0  1  0  0  3  0  0  0  0  0  0
  189.5790  177.6380  143.8570 N   0  0  0  0  0  0  0  0  0  0  0  0
  189.4820  177.3770  147.4390 N   0  0  0  0  0  2  0  0  0  0  0  0
  189.0470  177.3060  142.5680 C   0  0  0  0  0  0  0  0  0  0  0  0
  189.8730  177.8690  146.1330 C   0  0  1  0  0  3  0  0  0  0  0  0
  189.6780  174.5880  136.6670 C   0  0  0  0  0  3  0  0  0  0  0  0
  190.3260  173.9350  135.6150 C   0  0  0  0  0  3  0  0  0  0  0  0
  189.6240  175.9890  136.7060 C   0  0  0  0  0  0  0  0  0  0  0  0
  190.9240  174.6790  134.5940 C   0  0  0  0  0  3  0  0  0  0  0  0
  190.8720  176.0760  134.6240 C   0  0  0  0  0  3  0  0  0  0  0  0
  190.2250  176.7290  135.6770 C   0  0  0  0  0  3  0  0  0  0  0  0
  1  5  1  0  0  0  0
  2  9  1  0  0  0  0
  3  7  2  0  0  0  0
  4  3  1  0  0  0  0
  5 26  1  1  0  0  0
  6 11  1  0  0  0  0
  7  1  1  0  0  0  0
  8  5  1  0  0  0  0
  9 12  1  0  0  0  0
  9  1  2  0  0  0  0
 10  4  2  0  0  0  0
 11  2  2  0  0  0  0
 11  3  1  0  0  0  0
 12  8  1  0  0  0  0
 13  6  2  0  0  0  0
 13 10  1  0  0  0  0
 15 21  1  6  0  0  0
 15 23  1  0  0  0  0
 16 26  2  0  0  0  0
 18 24  1  6  0  0  0
 18 15  1  0  0  0  0
 18 27  1  0  0  0  0
 20 14  1  0  0  0  0
 22 19  2  0  0  0  0
 23 17  1  6  0  0  0
 23 22  1  0  0  0  0
 24 20  1  0  0  0  0
 25 22  1  0  0  0  0
 26 24  1  0  0  0  0
 27 14  1  6  0  0  0
 27 25  1  0  0  0  0
 28 30  1  0  0  0  0
 29 28  2  0  0  0  0
 30  2  1  0  0  0  0
 31 32  2  0  0  0  0
 31 29  1  0  0  0  0
 32 33  1  0  0  0  0
 33 30  2  0  0  0  0
M  END
>  <MODEL>
7

>  <REMARK>
 VINA RESULT:      -7.9      3.788      5.365
  Name = 
  2 active torsions:
  status: ('A' for Active; 'I' for Inactive)
    1  A    between atoms: C_4  and  C_18
    2  A    between atoms: C_11  and  C_30
                            x       y       z     vdW  Elec       q    Type
                         _______ _______ _______ _____ _____    ______ ____

>  <TORSDO>
F 2

$$$$
=
 OpenBabel11062412313D

 33 38  0  0  1  0  0  0  0  0999 V2000
  190.1950  177.2230  139.8000 C   0  0  0  0  0  0  0  0  0  0  0  0
  190.9020  176.1540  137.7320 C   0  0  0  0  0  0  0  0  0  0  0  0
  188.5560  176.7870  138.0860 C   0  0  0  0  0  0  0  0  0  0  0  0
  187.2370  176.8410  137.6350 C   0  0  0  0  0  3  0  0  0  0  0  0
  190.6530  177.7500  141.1140 C   0  0  2  0  0  3  0  0  0  0  0  0
  189.1830  175.6870  136.0260 C   0  0  0  0  0  3  0  0  0  0  0  0
  188.8770  177.2970  139.3440 C   0  0  0  0  0  3  0  0  0  0  0  0
  192.0770  177.2380  141.3300 C   0  0  0  0  0  2  0  0  0  0  0  0
  191.1910  176.6870  139.0060 C   0  0  0  0  0  0  0  0  0  0  0  0
  186.9200  176.3150  136.3830 C   0  0  0  0  0  3  0  0  0  0  0  0
  189.5610  176.2080  137.2730 C   0  0  0  0  0  0  0  0  0  0  0  0
  192.8250  176.8140  139.7160 S   0  0  0  0  0  0  0  0  0  0  0  0
  187.8890  175.7520  135.6130 N   0  0  0  0  0  0  0  0  0  0  0  0
  191.5400  177.2660  145.4990 C   0  0  0  0  0  2  0  0  0  0  0  0
  188.0420  178.1770  144.9160 C   0  0  1  0  0  3  0  0  0  0  0  0
  188.6830  176.7090  141.9820 O   0  0  0  0  0  0  0  0  0  0  0  0
  186.4510  176.6630  145.9130 F   0  0  0  0  0  0  0  0  0  0  0  0
  189.2890  177.3120  144.7450 C   0  0  1  0  0  3  0  0  0  0  0  0
  187.7260  177.1040  148.4820 O   0  0  0  0  0  0  0  0  0  0  0  0
  191.5400  177.5860  144.0040 C   0  0  0  0  0  2  0  0  0  0  0  0
  187.2000  178.0920  143.8070 O   0  0  0  0  0  1  0  0  0  0  0  0
  188.2110  177.3320  147.3440 C   0  0  0  0  0  0  0  0  0  0  0  0
  187.2880  177.7280  146.1990 C   0  0  1  0  0  3  0  0  0  0  0  0
  190.1360  177.5790  143.5950 N   0  0  0  0  0  0  0  0  0  0  0  0
  189.6190  177.1470  147.1240 N   0  0  0  0  0  2  0  0  0  0  0  0
  189.7620  177.3090  142.2380 C   0  0  0  0  0  0  0  0  0  0  0  0
  190.1580  177.7020  145.8980 C   0  0  1  0  0  3  0  0  0  0  0  0
  192.2950  174.2090  137.0050 C   0  0  0  0  0  3  0  0  0  0  0  0
  193.3120  173.6570  136.2200 C   0  0  0  0  0  3  0  0  0  0  0  0
  191.9790  175.5710  136.9000 C   0  0  0  0  0  0  0  0  0  0  0  0
  194.0180  174.4650  135.3230 C   0  0  0  0  0  3  0  0  0  0  0  0
  193.7070  175.8220  135.2120 C   0  0  0  0  0  3  0  0  0  0  0  0
  192.6910  176.3740  135.9970 C   0  0  0  0  0  3  0  0  0  0  0  0
  1  5  1  0  0  0  0
  2  9  1  0  0  0  0
  3  7  2  0  0  0  0
  4  3  1  0  0  0  0
  5  8  1  0  0  0  0
  5 26  1  1  0  0  0
  6 11  1  0  0  0  0
  7  1  1  0  0  0  0
  9 12  1  0  0  0  0
  9  1  2  0  0  0  0
 10  4  2  0  0  0  0
 11  2  2  0  0  0  0
 11  3  1  0  0  0  0
 12  8  1  0  0  0  0
 13  6  2  0  0  0  0
 13 10  1  0  0  0  0
 15 21  1  6  0  0  0
 15 23  1  0  0  0  0
 16 26  2  0  0  0  0
 18 24  1  6  0  0  0
 18 15  1  0  0  0  0
 18 27  1  0  0  0  0
 20 14  1  0  0  0  0
 22 19  2  0  0  0  0
 23 17  1  6  0  0  0
 23 22  1  0  0  0  0
 24 20  1  0  0  0  0
 25 22  1  0  0  0  0
 26 24  1  0  0  0  0
 27 14  1  6  0  0  0
 27 25  1  0  0  0  0
 29 28  2  0  0  0  0
 30 28  1  0  0  0  0
 30  2  1  0  0  0  0
 31 29  1  0  0  0  0
 32 31  2  0  0  0  0
 32 33  1  0  0  0  0
 33 30  2  0  0  0  0
M  END
>  <MODEL>
8

>  <REMARK>
 VINA RESULT:      -7.4      4.532      6.851
  Name = 
  2 active torsions:
  status: ('A' for Active; 'I' for Inactive)
    1  A    between atoms: C_4  and  C_18
    2  A    between atoms: C_11  and  C_30
                            x       y       z     vdW  Elec       q    Type
                         _______ _______ _______ _____ _____    ______ ____

>  <TORSDO>
F 2

$$$$
=
 OpenBabel11062412313D

 33 38  0  0  1  0  0  0  0  0999 V2000
  187.8110  177.2360  143.3420 C   0  0  0  0  0  0  0  0  0  0  0  0
  187.4810  177.8610  145.6700 C   0  0  0  0  0  0  0  0  0  0  0  0
  185.6470  178.0340  144.0460 C   0  0  0  0  0  0  0  0  0  0  0  0
  184.3260  178.3660  143.7450 C   0  0  0  0  0  3  0  0  0  0  0  0
  188.7840  176.6950  142.3540 C   0  0  2  0  0  3  0  0  0  0  0  0
  185.2650  178.7150  146.3350 C   0  0  0  0  0  3  0  0  0  0  0  0
  186.4840  177.5490  143.0400 C   0  0  0  0  0  3  0  0  0  0  0  0
  190.1640  176.7450  143.0120 C   0  0  0  0  0  2  0  0  0  0  0  0
  188.2950  177.3660  144.6290 C   0  0  0  0  0  0  0  0  0  0  0  0
  183.5010  178.8670  144.7520 C   0  0  0  0  0  3  0  0  0  0  0  0
  186.1380  178.2000  145.3650 C   0  0  0  0  0  0  0  0  0  0  0  0
  189.9720  176.7830  144.8300 S   0  0  0  0  0  0  0  0  0  0  0  0
  183.9820  179.0320  146.0120 N   0  0  0  0  0  0  0  0  0  0  0  0
  191.1450  176.0830  138.5730 C   0  0  0  0  0  2  0  0  0  0  0  0
  187.8890  177.6190  137.9040 C   0  0  1  0  0  3  0  0  0  0  0  0
  188.3010  178.6470  141.0590 O   0  0  0  0  0  0  0  0  0  0  0  0
  188.0110  179.6870  136.6690 F   0  0  0  0  0  0  0  0  0  0  0  0
  189.2610  177.5280  138.5700 C   0  0  1  0  0  3  0  0  0  0  0  0
  189.4860  178.2950  134.5940 O   0  0  0  0  0  0  0  0  0  0  0  0
  190.4610  175.9830  139.9360 C   0  0  0  0  0  2  0  0  0  0  0  0
  186.9790  178.3210  138.6960 O   0  0  0  0  0  1  0  0  0  0  0  0
  189.3230  177.9280  135.7860 C   0  0  0  0  0  0  0  0  0  0  0  0
  188.0450  178.3100  136.5210 C   0  0  1  0  0  3  0  0  0  0  0  0
  189.3270  176.9050  139.8820 N   0  0  0  0  0  0  0  0  0  0  0  0
  190.3720  177.2140  136.4590 N   0  0  0  0  0  2  0  0  0  0  0  0
  188.7850  177.4820  141.0770 C   0  0  0  0  0  0  0  0  0  0  0  0
  190.0160  176.5690  137.7070 C   0  0  1  0  0  3  0  0  0  0  0  0
  189.3440  178.4240  147.2400 C   0  0  0  0  0  3  0  0  0  0  0  0
  189.8540  178.5620  148.5340 C   0  0  0  0  0  3  0  0  0  0  0  0
  188.0200  178.0070  147.0410 C   0  0  0  0  0  0  0  0  0  0  0  0
  189.0430  178.2840  149.6380 C   0  0  0  0  0  3  0  0  0  0  0  0
  187.7220  177.8680  149.4480 C   0  0  0  0  0  3  0  0  0  0  0  0
  187.2120  177.7300  148.1540 C   0  0  0  0  0  3  0  0  0  0  0  0
  1  9  1  0  0  0  0
  2 30  1  0  0  0  0
  3 11  1  0  0  0  0
  4  3  2  0  0  0  0
  4 10  1  0  0  0  0
  5 26  1  6  0  0  0
  5  8  1  0  0  0  0
  5  1  1  0  0  0  0
  7  1  2  0  0  0  0
  7  3  1  0  0  0  0
  8 12  1  0  0  0  0
  9 12  1  0  0  0  0
  9  2  2  0  0  0  0
 10 13  2  0  0  0  0
 11  2  1  0  0  0  0
 11  6  2  0  0  0  0
 13  6  1  0  0  0  0
 14 20  1  0  0  0  0
 15 18  1  0  0  0  0
 15 21  1  1  0  0  0
 16 26  2  0  0  0  0
 18 24  1  1  0  0  0
 19 22  2  0  0  0  0
 22 25  1  0  0  0  0
 22 23  1  0  0  0  0
 23 17  1  1  0  0  0
 23 15  1  0  0  0  0
 24 20  1  0  0  0  0
 24 26  1  0  0  0  0
 25 27  1  0  0  0  0
 27 18  1  0  0  0  0
 27 14  1  1  0  0  0
 28 29  1  0  0  0  0
 29 31  2  0  0  0  0
 30 28  2  0  0  0  0
 30 33  1  0  0  0  0
 32 31  1  0  0  0  0
 33 32  2  0  0  0  0
M  END
>  <MODEL>
9

>  <REMARK>
 VINA RESULT:      -7.1      4.306      7.939
  Name = 
  2 active torsions:
  status: ('A' for Active; 'I' for Inactive)
    1  A    between atoms: C_4  and  C_18
    2  A    between atoms: C_11  and  C_30
                            x       y       z     vdW  Elec       q    Type
                         _______ _______ _______ _____ _____    ______ ____

>  <TORSDO>
F 2

$$$$
