=
 OpenBabel11062414113D

 32 35  0  0  0  0  0  0  0  0999 V2000
  183.6080  178.9990  145.1390 C   0  0  0  0  0  2  0  0  0  0  0  0
  181.6920  178.7530  142.0420 C   0  0  0  0  0  0  0  0  0  0  0  0
  187.8800  177.5360  142.3850 C   0  0  0  0  0  0  0  0  0  0  0  0
  185.0140  179.0730  145.6460 C   0  0  0  0  0  2  0  0  0  0  0  0
  185.6430  178.2620  143.3220 C   0  0  0  0  0  0  0  0  0  0  0  0
  187.8360  176.6370  144.6960 C   0  0  0  0  0  3  0  0  0  0  0  0
  185.9400  178.2700  144.7760 C   0  0  0  0  0  0  0  0  0  0  0  0
  186.9230  177.5730  145.3680 C   0  0  0  0  0  0  0  0  0  0  0  0
  187.0650  177.6590  146.7510 O   0  0  0  0  0  1  0  0  0  0  0  0
  186.7170  178.1860  142.3160 C   0  0  0  0  0  3  0  0  0  0  0  0
  181.9940  178.8740  143.4070 C   0  0  0  0  0  0  0  0  0  0  0  0
  184.0310  178.3970  141.5490 C   0  0  0  0  0  3  0  0  0  0  0  0
  188.2180  176.6470  143.4560 N   0  0  0  0  0  2  0  0  0  0  0  0
  182.7120  178.5290  141.1200 C   0  0  0  0  0  3  0  0  0  0  0  0
  180.9670  179.1120  144.3210 O   0  0  0  0  0  1  0  0  0  0  0  0
  184.3670  178.4940  142.9120 C   0  0  0  0  0  0  0  0  0  0  0  0
  183.3290  178.7800  143.8450 C   0  0  0  0  0  0  0  0  0  0  0  0
  190.5760  177.7170  139.0480 C   0  0  0  0  0  3  0  0  0  0  0  0
  190.0480  176.9610  141.2840 C   0  0  0  0  0  3  0  0  0  0  0  0
  189.3350  178.3670  138.9670 C   0  0  0  0  0  0  0  0  0  0  0  0
  190.9310  177.0170  140.2030 C   0  0  0  0  0  3  0  0  0  0  0  0
  188.8010  177.6030  141.2240 C   0  0  0  0  0  0  0  0  0  0  0  0
  188.4580  178.3070  140.0550 C   0  0  0  0  0  3  0  0  0  0  0  0
  188.9460  179.0800  137.8260 O   0  0  0  0  0  0  0  0  0  0  0  0
  188.2710  178.5000  136.7120 C   0  0  0  0  0  0  0  0  0  0  0  0
  189.1720  178.3210  135.6810 F   0  0  0  0  0  0  0  0  0  0  0  0
  187.7410  177.2720  137.0650 F   0  0  0  0  0  0  0  0  0  0  0  0
  187.2580  179.3390  136.2820 F   0  0  0  0  0  0  0  0  0  0  0  0
  180.2810  178.8540  141.5550 C   0  0  0  0  0  2  0  0  0  0  0  0
  179.6120  181.0930  142.0250 O   0  0  0  0  0  0  0  0  0  0  0  0
  180.0230  180.6350  139.7860 N   0  0  0  0  0  1  0  0  0  0  0  0
  179.9630  180.2540  141.1560 C   0  0  0  0  0  0  0  0  0  0  0  0
  1  4  1  0  0  0  0
  2 11  1  0  0  0  0
  3 13  1  0  0  0  0
  5  7  2  0  0  0  0
  6  8  2  0  0  0  0
  7  8  1  0  0  0  0
  7  4  1  0  0  0  0
  8  9  1  0  0  0  0
 10  3  2  0  0  0  0
 10  5  1  0  0  0  0
 11 17  2  0  0  0  0
 11 15  1  0  0  0  0
 12 16  2  0  0  0  0
 13  6  1  0  0  0  0
 14 12  1  0  0  0  0
 14  2  2  0  0  0  0
 16  5  1  0  0  0  0
 16 17  1  0  0  0  0
 17  1  1  0  0  0  0
 18 21  1  0  0  0  0
 20 18  2  0  0  0  0
 20 23  1  0  0  0  0
 21 19  2  0  0  0  0
 22 19  1  0  0  0  0
 22  3  1  0  0  0  0
 23 22  2  0  0  0  0
 24 20  1  0  0  0  0
 25 27  1  0  0  0  0
 25 24  1  0  0  0  0
 26 25  1  0  0  0  0
 28 25  1  0  0  0  0
 29  2  1  0  0  0  0
 31 32  1  0  0  0  0
 32 29  1  0  0  0  0
 32 30  2  0  0  0  0
M  END
>  <MODEL>
1

>  <REMARK>
 VINA RESULT:      -9.8      0.000      0.000
  Name = 
  5 active torsions:
  status: ('A' for Active; 'I' for Inactive)
    1  A    between atoms: C_2  and  C_3
    2  A    between atoms: C_2  and  C_32
    3  A    between atoms: C_4  and  C_18
    4  A    between atoms: C_9  and  O_31
    5  A    between atoms: C_15  and  O_31
                            x       y       z     vdW  Elec       q    Type
                         _______ _______ _______ _____ _____    ______ ____

>  <TORSDO>
F 5

$$$$
=
 OpenBabel11062414113D

 32 35  0  0  0  0  0  0  0  0999 V2000
  189.6740  176.9360  144.7580 C   0  0  0  0  0  2  0  0  0  0  0  0
  190.1830  177.4370  141.1780 C   0  0  0  0  0  0  0  0  0  0  0  0
  184.7130  178.6480  144.0940 C   0  0  0  0  0  0  0  0  0  0  0  0
  188.5900  176.8260  145.7850 C   0  0  0  0  0  2  0  0  0  0  0  0
  187.1070  177.8350  143.9850 C   0  0  0  0  0  0  0  0  0  0  0  0
  185.7210  179.3460  146.2500 C   0  0  0  0  0  3  0  0  0  0  0  0
  187.4230  177.7040  145.4290 C   0  0  0  0  0  0  0  0  0  0  0  0
  186.7910  178.3530  146.4210 C   0  0  0  0  0  0  0  0  0  0  0  0
  187.2170  178.1490  147.7310 O   0  0  0  0  0  1  0  0  0  0  0  0
  185.7230  178.0020  143.5100 C   0  0  0  0  0  3  0  0  0  0  0  0
  190.4540  177.2010  142.5350 C   0  0  0  0  0  0  0  0  0  0  0  0
  187.8600  177.8450  141.7060 C   0  0  0  0  0  3  0  0  0  0  0  0
  184.8710  179.4440  145.2760 N   0  0  0  0  0  2  0  0  0  0  0  0
  188.8860  177.7430  140.7700 C   0  0  0  0  0  3  0  0  0  0  0  0
  191.7520  176.8810  142.9330 O   0  0  0  0  0  1  0  0  0  0  0  0
  188.1000  177.6330  143.0760 C   0  0  0  0  0  0  0  0  0  0  0  0
  189.4140  177.2640  143.4830 C   0  0  0  0  0  0  0  0  0  0  0  0
  180.8930  178.7480  142.1360 C   0  0  0  0  0  3  0  0  0  0  0  0
  182.2190  178.7850  144.1580 C   0  0  0  0  0  3  0  0  0  0  0  0
  182.0610  178.6460  141.3640 C   0  0  0  0  0  0  0  0  0  0  0  0
  180.9730  178.8170  143.5280 C   0  0  0  0  0  3  0  0  0  0  0  0
  183.3990  178.6850  143.4060 C   0  0  0  0  0  0  0  0  0  0  0  0
  183.3040  178.6140  142.0040 C   0  0  0  0  0  3  0  0  0  0  0  0
  182.0200  178.5730  139.9660 O   0  0  0  0  0  0  0  0  0  0  0  0
  182.1450  179.7000  139.1010 C   0  0  0  0  0  0  0  0  0  0  0  0
  181.8620  179.3100  137.8070 F   0  0  0  0  0  0  0  0  0  0  0  0
  181.2520  180.6880  139.4790 F   0  0  0  0  0  0  0  0  0  0  0  0
  183.4360  180.1950  139.1500 F   0  0  0  0  0  0  0  0  0  0  0  0
  191.2720  177.3720  140.1550 C   0  0  0  0  0  2  0  0  0  0  0  0
  190.7980  175.4160  138.8780 O   0  0  0  0  0  0  0  0  0  0  0  0
  190.3720  177.4260  137.7970 N   0  0  0  0  0  1  0  0  0  0  0  0
  190.7960  176.6730  138.9270 C   0  0  0  0  0  0  0  0  0  0  0  0
  1  4  1  0  0  0  0
  2 11  1  0  0  0  0
  3 13  1  0  0  0  0
  5  7  2  0  0  0  0
  6  8  2  0  0  0  0
  7  4  1  0  0  0  0
  7  8  1  0  0  0  0
  8  9  1  0  0  0  0
 10  5  1  0  0  0  0
 10  3  2  0  0  0  0
 11 15  1  0  0  0  0
 11 17  2  0  0  0  0
 12 16  2  0  0  0  0
 13  6  1  0  0  0  0
 14  2  2  0  0  0  0
 14 12  1  0  0  0  0
 16 17  1  0  0  0  0
 16  5  1  0  0  0  0
 17  1  1  0  0  0  0
 18 21  1  0  0  0  0
 20 23  1  0  0  0  0
 20 18  2  0  0  0  0
 21 19  2  0  0  0  0
 22  3  1  0  0  0  0
 22 19  1  0  0  0  0
 23 22  2  0  0  0  0
 24 20  1  0  0  0  0
 25 28  1  0  0  0  0
 25 27  1  0  0  0  0
 25 24  1  0  0  0  0
 26 25  1  0  0  0  0
 29  2  1  0  0  0  0
 30 32  2  0  0  0  0
 31 32  1  0  0  0  0
 32 29  1  0  0  0  0
M  END
>  <MODEL>
2

>  <REMARK>
 VINA RESULT:      -9.7      2.939      7.300
  Name = 
  5 active torsions:
  status: ('A' for Active; 'I' for Inactive)
    1  A    between atoms: C_2  and  C_3
    2  A    between atoms: C_2  and  C_32
    3  A    between atoms: C_4  and  C_18
    4  A    between atoms: C_9  and  O_31
    5  A    between atoms: C_15  and  O_31
                            x       y       z     vdW  Elec       q    Type
                         _______ _______ _______ _____ _____    ______ ____

>  <TORSDO>
F 5

$$$$
=
 OpenBabel11062414113D

 32 35  0  0  0  0  0  0  0  0999 V2000
  186.9360  177.4260  145.9500 C   0  0  0  0  0  2  0  0  0  0  0  0
  190.5220  177.2340  146.6010 C   0  0  0  0  0  0  0  0  0  0  0  0
  188.0900  177.8900  140.8090 C   0  0  0  0  0  0  0  0  0  0  0  0
  185.9370  177.3190  144.8400 C   0  0  0  0  0  2  0  0  0  0  0  0
  187.9540  177.5860  143.3180 C   0  0  0  0  0  0  0  0  0  0  0  0
  186.1240  179.2310  141.5070 C   0  0  0  0  0  3  0  0  0  0  0  0
  186.5110  177.8390  143.5510 C   0  0  0  0  0  0  0  0  0  0  0  0
  185.7070  178.5420  142.7360 C   0  0  0  0  0  0  0  0  0  0  0  0
  184.3750  178.7190  143.1010 O   0  0  0  0  0  1  0  0  0  0  0  0
  188.4880  177.3560  141.9640 C   0  0  0  0  0  2  0  0  0  0  0  0
  189.1410  177.3590  146.8170 C   0  0  0  0  0  0  0  0  0  0  0  0
  190.1570  177.2570  144.2120 C   0  0  0  0  0  3  0  0  0  0  0  0
  187.1160  178.9380  140.7250 N   0  0  0  0  0  0  0  0  0  0  0  0
  191.0210  177.1700  145.3010 C   0  0  0  0  0  3  0  0  0  0  0  0
  188.6500  177.4080  148.1210 O   0  0  0  0  0  1  0  0  0  0  0  0
  188.7700  177.4020  144.3920 C   0  0  0  0  0  0  0  0  0  0  0  0
  188.2580  177.4090  145.7220 C   0  0  0  0  0  0  0  0  0  0  0  0
  190.1150  176.7820  137.1890 C   0  0  0  0  0  3  0  0  0  0  0  0
  188.2470  177.8260  138.3160 C   0  0  0  0  0  3  0  0  0  0  0  0
  190.6850  176.4490  138.4270 C   0  0  0  0  0  0  0  0  0  0  0  0
  188.9000  177.4670  137.1340 C   0  0  0  0  0  3  0  0  0  0  0  0
  188.8010  177.5050  139.5650 C   0  0  0  0  0  0  0  0  0  0  0  0
  190.0250  176.8120  139.6050 C   0  0  0  0  0  3  0  0  0  0  0  0
  191.9010  175.7610  138.5200 O   0  0  0  0  0  0  0  0  0  0  0  0
  193.1820  176.3850  138.4510 C   0  0  0  0  0  0  0  0  0  0  0  0
  193.3050  177.0320  137.2370 F   0  0  0  0  0  0  0  0  0  0  0  0
  193.3130  177.3120  139.4710 F   0  0  0  0  0  0  0  0  0  0  0  0
  194.1800  175.4320  138.5550 F   0  0  0  0  0  0  0  0  0  0  0  0
  191.4770  177.1750  147.7500 C   0  0  0  0  0  2  0  0  0  0  0  0
  191.5110  174.8010  147.5490 O   0  0  0  0  0  0  0  0  0  0  0  0
  193.5310  175.7670  148.1630 N   0  0  0  0  0  1  0  0  0  0  0  0
  192.1580  175.8500  147.8000 C   0  0  0  0  0  0  0  0  0  0  0  0
  2 11  1  0  0  0  0
  2 29  1  0  0  0  0
  3 10  1  0  0  0  0
  4  1  1  0  0  0  0
  5  7  2  0  0  0  0
  5 16  1  0  0  0  0
  6  8  2  0  0  0  0
  7  4  1  0  0  0  0
  8  9  1  0  0  0  0
  8  7  1  0  0  0  0
 10  5  1  0  0  0  0
 11 15  1  0  0  0  0
 12 16  2  0  0  0  0
 12 14  1  0  0  0  0
 13  3  2  0  0  0  0
 13  6  1  0  0  0  0
 14  2  2  0  0  0  0
 16 17  1  0  0  0  0
 17  1  1  0  0  0  0
 17 11  2  0  0  0  0
 18 20  1  0  0  0  0
 19 22  2  0  0  0  0
 20 24  1  0  0  0  0
 20 23  2  0  0  0  0
 21 18  2  0  0  0  0
 21 19  1  0  0  0  0
 22 23  1  0  0  0  0
 22  3  1  0  0  0  0
 25 24  1  0  0  0  0
 25 28  1  0  0  0  0
 25 27  1  0  0  0  0
 26 25  1  0  0  0  0
 29 32  1  0  0  0  0
 30 32  2  0  0  0  0
 32 31  1  0  0  0  0
M  END
>  <MODEL>
3

>  <REMARK>
 VINA RESULT:      -9.4      3.462      7.108
  Name = 
  5 active torsions:
  status: ('A' for Active; 'I' for Inactive)
    1  A    between atoms: C_2  and  C_3
    2  A    between atoms: C_2  and  C_32
    3  A    between atoms: C_4  and  C_18
    4  A    between atoms: C_9  and  O_31
    5  A    between atoms: C_15  and  O_31
                            x       y       z     vdW  Elec       q    Type
                         _______ _______ _______ _____ _____    ______ ____

>  <TORSDO>
F 5

$$$$
=
 OpenBabel11062414113D

 32 35  0  0  0  0  0  0  0  0999 V2000
  186.8510  178.2410  145.7950 C   0  0  0  0  0  2  0  0  0  0  0  0
  183.6890  178.6070  144.0080 C   0  0  0  0  0  0  0  0  0  0  0  0
  189.1290  177.1560  141.1460 C   0  0  0  0  0  0  0  0  0  0  0  0
  188.3290  178.1800  145.5640 C   0  0  0  0  0  2  0  0  0  0  0  0
  187.6940  177.7740  143.1380 C   0  0  0  0  0  0  0  0  0  0  0  0
  190.0780  175.8640  143.0390 C   0  0  0  0  0  3  0  0  0  0  0  0
  188.6390  177.5150  144.2520 C   0  0  0  0  0  0  0  0  0  0  0  0
  189.7000  176.6940  144.1920 C   0  0  0  0  0  0  0  0  0  0  0  0
  190.4850  176.5300  145.3310 O   0  0  0  0  0  1  0  0  0  0  0  0
  188.1520  177.8430  141.7390 C   0  0  0  0  0  3  0  0  0  0  0  0
  184.6090  178.4750  145.0590 C   0  0  0  0  0  0  0  0  0  0  0  0
  185.4640  178.2700  142.4030 C   0  0  0  0  0  3  0  0  0  0  0  0
  189.8300  176.0810  141.7850 N   0  0  0  0  0  2  0  0  0  0  0  0
  184.1230  178.5180  142.6860 C   0  0  0  0  0  3  0  0  0  0  0  0
  184.1680  178.5800  146.3780 O   0  0  0  0  0  1  0  0  0  0  0  0
  186.4100  178.1140  143.4320 C   0  0  0  0  0  0  0  0  0  0  0  0
  185.9730  178.2630  144.7800 C   0  0  0  0  0  0  0  0  0  0  0  0
  189.8730  177.8780  136.9790 C   0  0  0  0  0  3  0  0  0  0  0  0
  188.7710  178.4680  139.0500 C   0  0  0  0  0  3  0  0  0  0  0  0
  190.5070  176.8000  137.6160 C   0  0  0  0  0  0  0  0  0  0  0  0
  189.0070  178.7080  137.6940 C   0  0  0  0  0  3  0  0  0  0  0  0
  189.3970  177.3970  139.7070 C   0  0  0  0  0  0  0  0  0  0  0  0
  190.2650  176.5670  138.9740 C   0  0  0  0  0  3  0  0  0  0  0  0
  191.3800  175.9460  136.9310 O   0  0  0  0  0  0  0  0  0  0  0  0
  192.7820  175.8650  137.1820 C   0  0  0  0  0  0  0  0  0  0  0  0
  193.4500  175.7470  135.9780 F   0  0  0  0  0  0  0  0  0  0  0  0
  193.2160  177.0090  137.8270 F   0  0  0  0  0  0  0  0  0  0  0  0
  193.0610  174.7560  137.9610 F   0  0  0  0  0  0  0  0  0  0  0  0
  182.2370  178.8360  144.2820 C   0  0  0  0  0  2  0  0  0  0  0  0
  181.6050  178.2860  142.0510 O   0  0  0  0  0  0  0  0  0  0  0  0
  180.6950  180.2570  142.8770 N   0  0  0  0  0  1  0  0  0  0  0  0
  181.4970  179.0890  143.0130 C   0  0  0  0  0  0  0  0  0  0  0  0
  2 29  1  0  0  0  0
  2 11  1  0  0  0  0
  3 10  2  0  0  0  0
  3 13  1  0  0  0  0
  4  1  1  0  0  0  0
  5 16  1  0  0  0  0
  5  7  2  0  0  0  0
  6  8  2  0  0  0  0
  7  4  1  0  0  0  0
  8  7  1  0  0  0  0
  8  9  1  0  0  0  0
 10  5  1  0  0  0  0
 11 15  1  0  0  0  0
 12 14  1  0  0  0  0
 12 16  2  0  0  0  0
 13  6  1  0  0  0  0
 14  2  2  0  0  0  0
 16 17  1  0  0  0  0
 17 11  2  0  0  0  0
 17  1  1  0  0  0  0
 18 20  2  0  0  0  0
 18 21  1  0  0  0  0
 19 22  1  0  0  0  0
 20 23  1  0  0  0  0
 21 19  2  0  0  0  0
 22  3  1  0  0  0  0
 23 22  2  0  0  0  0
 24 25  1  0  0  0  0
 24 20  1  0  0  0  0
 25 27  1  0  0  0  0
 25 28  1  0  0  0  0
 26 25  1  0  0  0  0
 30 32  2  0  0  0  0
 31 32  1  0  0  0  0
 32 29  1  0  0  0  0
M  END
>  <MODEL>
4

>  <REMARK>
 VINA RESULT:      -9.2      2.435      3.414
  Name = 
  5 active torsions:
  status: ('A' for Active; 'I' for Inactive)
    1  A    between atoms: C_2  and  C_3
    2  A    between atoms: C_2  and  C_32
    3  A    between atoms: C_4  and  C_18
    4  A    between atoms: C_9  and  O_31
    5  A    between atoms: C_15  and  O_31
                            x       y       z     vdW  Elec       q    Type
                         _______ _______ _______ _____ _____    ______ ____

>  <TORSDO>
F 5

$$$$
=
 OpenBabel11062414113D

 32 35  0  0  0  0  0  0  0  0999 V2000
  187.0930  177.4840  146.9300 C   0  0  0  0  0  2  0  0  0  0  0  0
  190.5750  177.3070  145.8470 C   0  0  0  0  0  0  0  0  0  0  0  0
  185.8080  178.7050  141.9460 C   0  0  0  0  0  0  0  0  0  0  0  0
  185.6970  177.5060  146.3910 C   0  0  0  0  0  2  0  0  0  0  0  0
  186.8130  178.0450  144.1730 C   0  0  0  0  0  0  0  0  0  0  0  0
  184.4260  179.8750  143.6390 C   0  0  0  0  0  3  0  0  0  0  0  0
  185.6430  178.2200  145.0690 C   0  0  0  0  0  0  0  0  0  0  0  0
  184.5850  179.0070  144.8140 C   0  0  0  0  0  0  0  0  0  0  0  0
  183.5710  179.0920  145.7650 O   0  0  0  0  0  1  0  0  0  0  0  0
  186.6660  178.0240  142.7070 C   0  0  0  0  0  2  0  0  0  0  0  0
  189.4480  177.3600  146.6810 C   0  0  0  0  0  0  0  0  0  0  0  0
  189.1680  177.6580  143.9130 C   0  0  0  0  0  3  0  0  0  0  0  0
  184.9430  179.7250  142.4600 N   0  0  0  0  0  0  0  0  0  0  0  0
  190.4280  177.4430  144.4680 C   0  0  0  0  0  3  0  0  0  0  0  0
  189.6040  177.2100  148.0590 O   0  0  0  0  0  1  0  0  0  0  0  0
  188.0190  177.7350  144.7220 C   0  0  0  0  0  0  0  0  0  0  0  0
  188.1660  177.5390  146.1260 C   0  0  0  0  0  0  0  0  0  0  0  0
  185.9270  178.1730  137.6870 C   0  0  0  0  0  3  0  0  0  0  0  0
  184.7340  178.8100  139.6920 C   0  0  0  0  0  3  0  0  0  0  0  0
  187.0660  177.8750  138.4500 C   0  0  0  0  0  0  0  0  0  0  0  0
  184.7650  178.6380  138.3060 C   0  0  0  0  0  3  0  0  0  0  0  0
  185.8630  178.5200  140.4740 C   0  0  0  0  0  0  0  0  0  0  0  0
  187.0250  178.0500  139.8370 C   0  0  0  0  0  3  0  0  0  0  0  0
  188.2470  177.4050  137.8640 O   0  0  0  0  0  0  0  0  0  0  0  0
  189.4210  178.1950  137.6830 C   0  0  0  0  0  0  0  0  0  0  0  0
  190.1130  178.2550  138.8770 F   0  0  0  0  0  0  0  0  0  0  0  0
  190.2340  177.6230  136.7200 F   0  0  0  0  0  0  0  0  0  0  0  0
  189.0750  179.4780  137.2990 F   0  0  0  0  0  0  0  0  0  0  0  0
  191.9440  177.1150  146.4160 C   0  0  0  0  0  2  0  0  0  0  0  0
  192.1490  174.8130  145.8330 O   0  0  0  0  0  0  0  0  0  0  0  0
  192.4030  175.2840  148.0920 N   0  0  0  0  0  1  0  0  0  0  0  0
  192.1790  175.6800  146.7440 C   0  0  0  0  0  0  0  0  0  0  0  0
  2 29  1  0  0  0  0
  2 11  1  0  0  0  0
  3 13  2  0  0  0  0
  3 10  1  0  0  0  0
  4  1  1  0  0  0  0
  5 16  1  0  0  0  0
  5  7  2  0  0  0  0
  6  8  2  0  0  0  0
  7  4  1  0  0  0  0
  8  7  1  0  0  0  0
  8  9  1  0  0  0  0
 10  5  1  0  0  0  0
 11 15  1  0  0  0  0
 12 14  1  0  0  0  0
 12 16  2  0  0  0  0
 13  6  1  0  0  0  0
 14  2  2  0  0  0  0
 16 17  1  0  0  0  0
 17 11  2  0  0  0  0
 17  1  1  0  0  0  0
 18 21  2  0  0  0  0
 18 20  1  0  0  0  0
 19 22  2  0  0  0  0
 20 23  2  0  0  0  0
 21 19  1  0  0  0  0
 22  3  1  0  0  0  0
 23 22  1  0  0  0  0
 24 20  1  0  0  0  0
 25 24  1  0  0  0  0
 25 26  1  0  0  0  0
 27 25  1  0  0  0  0
 28 25  1  0  0  0  0
 29 32  1  0  0  0  0
 30 32  2  0  0  0  0
 32 31  1  0  0  0  0
M  END
>  <MODEL>
5

>  <REMARK>
 VINA RESULT:      -9.2      2.818      6.798
  Name = 
  5 active torsions:
  status: ('A' for Active; 'I' for Inactive)
    1  A    between atoms: C_2  and  C_3
    2  A    between atoms: C_2  and  C_32
    3  A    between atoms: C_4  and  C_18
    4  A    between atoms: C_9  and  O_31
    5  A    between atoms: C_15  and  O_31
                            x       y       z     vdW  Elec       q    Type
                         _______ _______ _______ _____ _____    ______ ____

>  <TORSDO>
F 5

$$$$
=
 OpenBabel11062414113D

 32 35  0  0  0  0  0  0  0  0999 V2000
  188.1750  177.3940  138.3410 C   0  0  0  0  0  2  0  0  0  0  0  0
  185.2970  178.9840  139.9260 C   0  0  0  0  0  0  0  0  0  0  0  0
  190.4900  177.2880  143.0960 C   0  0  0  0  0  0  0  0  0  0  0  0
  189.4170  176.6250  138.6660 C   0  0  0  0  0  2  0  0  0  0  0  0
  189.0340  177.4660  141.0330 C   0  0  0  0  0  0  0  0  0  0  0  0
  192.0740  177.7010  141.2320 C   0  0  0  0  0  3  0  0  0  0  0  0
  190.0000  177.0780  139.9750 C   0  0  0  0  0  0  0  0  0  0  0  0
  191.3360  177.1600  140.0820 C   0  0  0  0  0  0  0  0  0  0  0  0
  192.1180  176.7830  138.9930 O   0  0  0  0  0  1  0  0  0  0  0  0
  189.3190  177.2360  142.4600 C   0  0  0  0  0  3  0  0  0  0  0  0
  186.1690  178.5090  138.9340 C   0  0  0  0  0  0  0  0  0  0  0  0
  186.8880  178.3590  141.6340 C   0  0  0  0  0  3  0  0  0  0  0  0
  191.6990  177.7390  142.4730 N   0  0  0  0  0  2  0  0  0  0  0  0
  185.6550  178.8940  141.2700 C   0  0  0  0  0  3  0  0  0  0  0  0
  185.7960  178.5920  137.5930 O   0  0  0  0  0  1  0  0  0  0  0  0
  187.7950  177.8910  140.6650 C   0  0  0  0  0  0  0  0  0  0  0  0
  187.4010  177.9330  139.2960 C   0  0  0  0  0  0  0  0  0  0  0  0
  190.6080  176.5110  147.3170 C   0  0  0  0  0  3  0  0  0  0  0  0
  191.7140  176.6190  145.1690 C   0  0  0  0  0  3  0  0  0  0  0  0
  189.4020  176.9140  146.7240 C   0  0  0  0  0  0  0  0  0  0  0  0
  191.7590  176.3630  146.5410 C   0  0  0  0  0  3  0  0  0  0  0  0
  190.5190  177.0260  144.5560 C   0  0  0  0  0  0  0  0  0  0  0  0
  189.3660  177.1680  145.3490 C   0  0  0  0  0  3  0  0  0  0  0  0
  188.2270  177.0710  147.4690 O   0  0  0  0  0  0  0  0  0  0  0  0
  187.9650  178.1800  148.3280 C   0  0  0  0  0  0  0  0  0  0  0  0
  189.0940  178.9730  148.3980 F   0  0  0  0  0  0  0  0  0  0  0  0
  186.9170  178.9320  147.8240 F   0  0  0  0  0  0  0  0  0  0  0  0
  187.6500  177.7320  149.5980 F   0  0  0  0  0  0  0  0  0  0  0  0
  183.9820  179.5970  139.5630 C   0  0  0  0  0  2  0  0  0  0  0  0
  182.1210  178.8820  140.8700 O   0  0  0  0  0  0  0  0  0  0  0  0
  182.6550  177.5050  139.0790 N   0  0  0  0  0  1  0  0  0  0  0  0
  182.8630  178.6630  139.8780 C   0  0  0  0  0  0  0  0  0  0  0  0
  1  4  1  0  0  0  0
  1 17  1  0  0  0  0
  2 14  1  0  0  0  0
  3 22  1  0  0  0  0
  4  7  1  0  0  0  0
  5 10  1  0  0  0  0
  6 13  1  0  0  0  0
  7  8  1  0  0  0  0
  7  5  2  0  0  0  0
  8  6  2  0  0  0  0
  9  8  1  0  0  0  0
 10  3  2  0  0  0  0
 11 17  1  0  0  0  0
 11  2  2  0  0  0  0
 13  3  1  0  0  0  0
 14 12  2  0  0  0  0
 15 11  1  0  0  0  0
 16  5  1  0  0  0  0
 16 12  1  0  0  0  0
 17 16  2  0  0  0  0
 19 21  1  0  0  0  0
 20 18  1  0  0  0  0
 20 24  1  0  0  0  0
 21 18  2  0  0  0  0
 22 19  2  0  0  0  0
 22 23  1  0  0  0  0
 23 20  2  0  0  0  0
 24 25  1  0  0  0  0
 25 26  1  0  0  0  0
 25 28  1  0  0  0  0
 27 25  1  0  0  0  0
 29 32  1  0  0  0  0
 29  2  1  0  0  0  0
 31 32  1  0  0  0  0
 32 30  2  0  0  0  0
M  END
>  <MODEL>
6

>  <REMARK>
 VINA RESULT:      -9.1      4.372      7.034
  Name = 
  5 active torsions:
  status: ('A' for Active; 'I' for Inactive)
    1  A    between atoms: C_2  and  C_3
    2  A    between atoms: C_2  and  C_32
    3  A    between atoms: C_4  and  C_18
    4  A    between atoms: C_9  and  O_31
    5  A    between atoms: C_15  and  O_31
                            x       y       z     vdW  Elec       q    Type
                         _______ _______ _______ _____ _____    ______ ____

>  <TORSDO>
F 5

$$$$
=
 OpenBabel11062414113D

 32 35  0  0  0  0  0  0  0  0999 V2000
  187.5930  178.2620  146.3600 C   0  0  0  0  0  2  0  0  0  0  0  0
  184.3240  178.4270  144.7420 C   0  0  0  0  0  0  0  0  0  0  0  0
  189.6420  176.9920  141.6510 C   0  0  0  0  0  0  0  0  0  0  0  0
  189.0560  178.2350  146.0470 C   0  0  0  0  0  2  0  0  0  0  0  0
  188.3010  177.6740  143.6870 C   0  0  0  0  0  0  0  0  0  0  0  0
  190.7400  175.8390  143.5530 C   0  0  0  0  0  3  0  0  0  0  0  0
  189.3160  177.5090  144.7570 C   0  0  0  0  0  0  0  0  0  0  0  0
  190.4000  176.7190  144.6790 C   0  0  0  0  0  0  0  0  0  0  0  0
  191.2520  176.6440  145.7780 O   0  0  0  0  0  1  0  0  0  0  0  0
  188.6770  177.6800  142.2620 C   0  0  0  0  0  3  0  0  0  0  0  0
  185.3060  178.3830  145.7440 C   0  0  0  0  0  0  0  0  0  0  0  0
  186.0170  178.0580  143.0570 C   0  0  0  0  0  3  0  0  0  0  0  0
  190.4150  175.9780  142.3050 N   0  0  0  0  0  2  0  0  0  0  0  0
  184.6860  178.2780  143.4050 C   0  0  0  0  0  3  0  0  0  0  0  0
  184.9370  178.5460  147.0790 O   0  0  0  0  0  1  0  0  0  0  0  0
  187.0240  177.9890  144.0370 C   0  0  0  0  0  0  0  0  0  0  0  0
  186.6590  178.1990  145.3980 C   0  0  0  0  0  0  0  0  0  0  0  0
  190.1930  177.4730  137.4200 C   0  0  0  0  0  3  0  0  0  0  0  0
  190.9370  176.6010  139.5500 C   0  0  0  0  0  3  0  0  0  0  0  0
  189.0700  178.0440  138.0380 C   0  0  0  0  0  0  0  0  0  0  0  0
  191.1230  176.7540  138.1750 C   0  0  0  0  0  3  0  0  0  0  0  0
  189.8200  177.1620  140.1880 C   0  0  0  0  0  0  0  0  0  0  0  0
  188.8920  177.8860  139.4160 C   0  0  0  0  0  3  0  0  0  0  0  0
  188.1180  178.7720  137.3150 O   0  0  0  0  0  0  0  0  0  0  0  0
  186.8910  178.2280  136.8320 C   0  0  0  0  0  0  0  0  0  0  0  0
  186.7010  178.6320  135.5250 F   0  0  0  0  0  0  0  0  0  0  0  0
  186.9360  176.8460  136.8730 F   0  0  0  0  0  0  0  0  0  0  0  0
  185.8350  178.6840  137.6000 F   0  0  0  0  0  0  0  0  0  0  0  0
  182.8830  178.6240  145.0880 C   0  0  0  0  0  2  0  0  0  0  0  0
  182.3950  180.1270  143.3030 O   0  0  0  0  0  0  0  0  0  0  0  0
  181.0240  178.2560  143.4200 N   0  0  0  0  0  1  0  0  0  0  0  0
  182.1090  179.0500  143.8870 C   0  0  0  0  0  0  0  0  0  0  0  0
  2 29  1  0  0  0  0
  2 11  1  0  0  0  0
  3 10  2  0  0  0  0
  3 13  1  0  0  0  0
  4  1  1  0  0  0  0
  5 16  1  0  0  0  0
  5  7  2  0  0  0  0
  6  8  2  0  0  0  0
  7  4  1  0  0  0  0
  8  7  1  0  0  0  0
  8  9  1  0  0  0  0
 10  5  1  0  0  0  0
 11 15  1  0  0  0  0
 12 14  1  0  0  0  0
 12 16  2  0  0  0  0
 13  6  1  0  0  0  0
 14  2  2  0  0  0  0
 16 17  1  0  0  0  0
 17 11  2  0  0  0  0
 17  1  1  0  0  0  0
 18 20  2  0  0  0  0
 18 21  1  0  0  0  0
 19 22  1  0  0  0  0
 20 23  1  0  0  0  0
 21 19  2  0  0  0  0
 22  3  1  0  0  0  0
 23 22  2  0  0  0  0
 24 20  1  0  0  0  0
 25 27  1  0  0  0  0
 25 24  1  0  0  0  0
 25 28  1  0  0  0  0
 26 25  1  0  0  0  0
 30 32  2  0  0  0  0
 31 32  1  0  0  0  0
 32 29  1  0  0  0  0
M  END
>  <MODEL>
7

>  <REMARK>
 VINA RESULT:      -9.0      1.855      3.049
  Name = 
  5 active torsions:
  status: ('A' for Active; 'I' for Inactive)
    1  A    between atoms: C_2  and  C_3
    2  A    between atoms: C_2  and  C_32
    3  A    between atoms: C_4  and  C_18
    4  A    between atoms: C_9  and  O_31
    5  A    between atoms: C_15  and  O_31
                            x       y       z     vdW  Elec       q    Type
                         _______ _______ _______ _____ _____    ______ ____

>  <TORSDO>
F 5

$$$$
=
 OpenBabel11062414113D

 32 35  0  0  0  0  0  0  0  0999 V2000
  183.8660  178.9930  144.8970 C   0  0  0  0  0  2  0  0  0  0  0  0
  181.7280  178.6370  141.9590 C   0  0  0  0  0  0  0  0  0  0  0  0
  187.9620  177.6290  141.8420 C   0  0  0  0  0  0  0  0  0  0  0  0
  185.3040  179.1200  145.2930 C   0  0  0  0  0  2  0  0  0  0  0  0
  185.7810  178.2950  142.9380 C   0  0  0  0  0  0  0  0  0  0  0  0
  188.1260  176.7640  144.1610 C   0  0  0  0  0  3  0  0  0  0  0  0
  186.1870  178.3350  144.3650 C   0  0  0  0  0  0  0  0  0  0  0  0
  187.2360  177.6790  144.8890 C   0  0  0  0  0  0  0  0  0  0  0  0
  187.4790  177.7920  146.2550 O   0  0  0  0  0  1  0  0  0  0  0  0
  186.7770  178.2380  141.8540 C   0  0  0  0  0  3  0  0  0  0  0  0
  182.1290  178.7890  143.2950 C   0  0  0  0  0  0  0  0  0  0  0  0
  184.0340  178.3500  141.2930 C   0  0  0  0  0  3  0  0  0  0  0  0
  188.4110  176.7680  142.8960 N   0  0  0  0  0  2  0  0  0  0  0  0
  182.6830  178.4320  140.9640 C   0  0  0  0  0  3  0  0  0  0  0  0
  181.1680  179.0070  144.2820 O   0  0  0  0  0  1  0  0  0  0  0  0
  184.4690  178.4780  142.6250 C   0  0  0  0  0  0  0  0  0  0  0  0
  183.4960  178.7450  143.6310 C   0  0  0  0  0  0  0  0  0  0  0  0
  190.3250  177.8580  138.2640 C   0  0  0  0  0  3  0  0  0  0  0  0
  188.2090  178.1240  139.4050 C   0  0  0  0  0  3  0  0  0  0  0  0
  190.9250  177.4370  139.4610 C   0  0  0  0  0  0  0  0  0  0  0  0
  188.9720  178.1990  138.2370 C   0  0  0  0  0  3  0  0  0  0  0  0
  188.7900  177.7070  140.6130 C   0  0  0  0  0  0  0  0  0  0  0  0
  190.1540  177.3640  140.6250 C   0  0  0  0  0  3  0  0  0  0  0  0
  192.2790  177.0850  139.5250 O   0  0  0  0  0  0  0  0  0  0  0  0
  192.9560  176.3170  138.5320 C   0  0  0  0  0  0  0  0  0  0  0  0
  194.1030  175.7790  139.0810 F   0  0  0  0  0  0  0  0  0  0  0  0
  192.1420  175.2870  138.0930 F   0  0  0  0  0  0  0  0  0  0  0  0
  193.3040  177.1240  137.4640 F   0  0  0  0  0  0  0  0  0  0  0  0
  180.2820  178.6840  141.5810 C   0  0  0  0  0  2  0  0  0  0  0  0
  179.9060  180.3050  139.8740 O   0  0  0  0  0  0  0  0  0  0  0  0
  179.5880  181.0660  142.0450 N   0  0  0  0  0  1  0  0  0  0  0  0
  179.9090  180.0460  141.1050 C   0  0  0  0  0  0  0  0  0  0  0  0
  1  4  1  0  0  0  0
  2 11  1  0  0  0  0
  3 10  2  0  0  0  0
  3 13  1  0  0  0  0
  5  7  2  0  0  0  0
  6  8  2  0  0  0  0
  7  8  1  0  0  0  0
  7  4  1  0  0  0  0
  8  9  1  0  0  0  0
 10  5  1  0  0  0  0
 11 17  2  0  0  0  0
 11 15  1  0  0  0  0
 12 16  2  0  0  0  0
 13  6  1  0  0  0  0
 14 12  1  0  0  0  0
 14  2  2  0  0  0  0
 16  5  1  0  0  0  0
 16 17  1  0  0  0  0
 17  1  1  0  0  0  0
 18 20  1  0  0  0  0
 19 22  2  0  0  0  0
 20 24  1  0  0  0  0
 20 23  2  0  0  0  0
 21 18  2  0  0  0  0
 21 19  1  0  0  0  0
 22 23  1  0  0  0  0
 22  3  1  0  0  0  0
 25 26  1  0  0  0  0
 25 24  1  0  0  0  0
 27 25  1  0  0  0  0
 28 25  1  0  0  0  0
 29  2  1  0  0  0  0
 30 32  2  0  0  0  0
 32 29  1  0  0  0  0
 32 31  1  0  0  0  0
M  END
>  <MODEL>
8

>  <REMARK>
 VINA RESULT:      -9.0      2.020      2.486
  Name = 
  5 active torsions:
  status: ('A' for Active; 'I' for Inactive)
    1  A    between atoms: C_2  and  C_3
    2  A    between atoms: C_2  and  C_32
    3  A    between atoms: C_4  and  C_18
    4  A    between atoms: C_9  and  O_31
    5  A    between atoms: C_15  and  O_31
                            x       y       z     vdW  Elec       q    Type
                         _______ _______ _______ _____ _____    ______ ____

>  <TORSDO>
F 5

$$$$
=
 OpenBabel11062414113D

 32 35  0  0  0  0  0  0  0  0999 V2000
  182.5630  179.1600  143.8730 C   0  0  0  0  0  2  0  0  0  0  0  0
  182.0950  178.0240  140.4350 C   0  0  0  0  0  0  0  0  0  0  0  0
  187.6260  177.6840  143.4650 C   0  0  0  0  0  0  0  0  0  0  0  0
  183.6350  179.5140  144.8560 C   0  0  0  0  0  2  0  0  0  0  0  0
  185.1840  178.3100  143.2410 C   0  0  0  0  0  0  0  0  0  0  0  0
  186.6610  177.3010  145.7180 C   0  0  0  0  0  3  0  0  0  0  0  0
  184.8570  178.6650  144.6450 C   0  0  0  0  0  0  0  0  0  0  0  0
  185.5290  178.2370  145.7260 C   0  0  0  0  0  0  0  0  0  0  0  0
  185.0880  178.6330  146.9860 O   0  0  0  0  0  1  0  0  0  0  0  0
  186.5780  178.1550  142.7890 C   0  0  0  0  0  3  0  0  0  0  0  0
  181.8070  178.4700  141.7350 C   0  0  0  0  0  0  0  0  0  0  0  0
  184.4390  177.8630  141.0040 C   0  0  0  0  0  3  0  0  0  0  0  0
  187.5180  177.0930  144.7660 N   0  0  0  0  0  2  0  0  0  0  0  0
  183.4100  177.7370  140.0730 C   0  0  0  0  0  3  0  0  0  0  0  0
  180.4900  178.7680  142.0840 O   0  0  0  0  0  1  0  0  0  0  0  0
  184.1830  178.2890  142.3200 C   0  0  0  0  0  0  0  0  0  0  0  0
  182.8460  178.6370  142.6700 C   0  0  0  0  0  0  0  0  0  0  0  0
  191.4470  177.5040  141.5160 C   0  0  0  0  0  3  0  0  0  0  0  0
  190.1180  177.8700  143.5030 C   0  0  0  0  0  3  0  0  0  0  0  0
  190.2830  177.2480  140.7750 C   0  0  0  0  0  0  0  0  0  0  0  0
  191.3640  177.8140  142.8740 C   0  0  0  0  0  3  0  0  0  0  0  0
  188.9410  177.6150  142.7820 C   0  0  0  0  0  0  0  0  0  0  0  0
  189.0400  177.3060  141.4120 C   0  0  0  0  0  3  0  0  0  0  0  0
  190.3280  176.9350  139.4110 O   0  0  0  0  0  0  0  0  0  0  0  0
  189.5370  177.5800  138.4150 C   0  0  0  0  0  0  0  0  0  0  0  0
  190.1670  177.4620  137.1910 F   0  0  0  0  0  0  0  0  0  0  0  0
  188.2910  176.9820  138.3390 F   0  0  0  0  0  0  0  0  0  0  0  0
  189.3930  178.9220  138.7180 F   0  0  0  0  0  0  0  0  0  0  0  0
  181.0060  177.8430  139.4260 C   0  0  0  0  0  2  0  0  0  0  0  0
  181.0060  175.8900  138.0600 O   0  0  0  0  0  0  0  0  0  0  0  0
  180.1870  175.5890  140.2120 N   0  0  0  0  0  1  0  0  0  0  0  0
  180.7510  176.3950  139.1840 C   0  0  0  0  0  0  0  0  0  0  0  0
  1  4  1  0  0  0  0
  2 11  1  0  0  0  0
  3 13  1  0  0  0  0
  5  7  2  0  0  0  0
  6  8  2  0  0  0  0
  7  4  1  0  0  0  0
  7  8  1  0  0  0  0
  8  9  1  0  0  0  0
 10  5  1  0  0  0  0
 10  3  2  0  0  0  0
 11 15  1  0  0  0  0
 11 17  2  0  0  0  0
 12 16  2  0  0  0  0
 13  6  1  0  0  0  0
 14  2  2  0  0  0  0
 14 12  1  0  0  0  0
 16 17  1  0  0  0  0
 16  5  1  0  0  0  0
 17  1  1  0  0  0  0
 18 21  1  0  0  0  0
 20 23  1  0  0  0  0
 20 18  2  0  0  0  0
 21 19  2  0  0  0  0
 22  3  1  0  0  0  0
 22 19  1  0  0  0  0
 23 22  2  0  0  0  0
 24 20  1  0  0  0  0
 25 28  1  0  0  0  0
 25 24  1  0  0  0  0
 26 25  1  0  0  0  0
 27 25  1  0  0  0  0
 29  2  1  0  0  0  0
 30 32  2  0  0  0  0
 32 29  1  0  0  0  0
 32 31  1  0  0  0  0
M  END
>  <MODEL>
9

>  <REMARK>
 VINA RESULT:      -8.9      2.174      2.478
  Name = 
  5 active torsions:
  status: ('A' for Active; 'I' for Inactive)
    1  A    between atoms: C_2  and  C_3
    2  A    between atoms: C_2  and  C_32
    3  A    between atoms: C_4  and  C_18
    4  A    between atoms: C_9  and  O_31
    5  A    between atoms: C_15  and  O_31
                            x       y       z     vdW  Elec       q    Type
                         _______ _______ _______ _____ _____    ______ ____

>  <TORSDO>
F 5

$$$$
