=
 OpenBabel11062414113D

 32 34  0  0  1  0  0  0  0  0999 V2000
  189.9150  177.0770  147.7150 N   0  0  0  0  0  0  0  0  0  0  0  0
  191.3400  177.1100  145.7170 N   0  0  0  0  0  0  0  0  0  0  0  0
  189.5900  177.6860  144.1470 C   0  0  1  0  0  3  0  0  0  0  0  0
  187.7890  177.7610  146.0380 C   0  0  0  0  0  0  0  0  0  0  0  0
  187.5830  177.5910  147.4200 C   0  0  0  0  0  3  0  0  0  0  0  0
  190.1030  177.2400  146.3820 C   0  0  0  0  0  0  0  0  0  0  0  0
  188.6700  177.2450  148.2470 C   0  0  0  0  0  3  0  0  0  0  0  0
  189.0810  177.5680  145.5420 C   0  0  0  0  0  0  0  0  0  0  0  0
  191.1000  177.3900  144.3000 C   0  0  0  0  0  3  0  0  0  0  0  0
  185.8270  179.0410  145.4450 N   0  0  0  0  0  0  0  0  0  0  0  0
  186.6890  178.1260  145.1350 C   0  0  0  0  0  3  0  0  0  0  0  0
  184.7470  179.3750  144.5320 C   0  0  2  0  0  3  0  0  0  0  0  0
  182.6260  179.4190  142.8730 O   0  0  0  0  0  0  0  0  0  0  0  0
  182.4330  178.5360  143.9540 C   0  0  0  0  0  2  0  0  0  0  0  0
  183.4230  178.8410  145.0820 C   0  0  0  0  0  2  0  0  0  0  0  0
  183.8350  179.0870  142.2010 C   0  0  1  0  0  3  0  0  0  0  0  0
  185.0220  178.8030  143.1410 C   0  0  0  0  0  2  0  0  0  0  0  0
  183.6430  177.9510  141.2370 C   0  0  0  0  0  3  0  0  0  0  0  0
  183.3070  178.1180  139.9520 C   0  0  0  0  0  0  0  0  0  0  0  0
  183.1450  176.9120  139.0900 C   0  0  0  0  0  1  0  0  0  0  0  0
  184.3450  180.0580  139.0770 O   0  0  0  0  0  1  0  0  0  0  0  0
  183.1090  179.4760  139.3530 C   0  0  0  0  0  2  0  0  0  0  0  0
  188.9470  176.6240  143.2670 C   0  0  0  0  0  2  0  0  0  0  0  0
  188.1280  177.2590  142.1530 C   0  0  0  0  0  2  0  0  0  0  0  0
  190.0550  176.8940  140.8490 O   0  0  0  0  0  0  0  0  0  0  0  0
  188.9530  177.4180  140.9070 C   0  0  0  0  0  0  0  0  0  0  0  0
  187.1110  178.5620  139.8960 O   0  0  0  0  0  1  0  0  0  0  0  0
  188.4540  178.2130  139.7350 C   0  0  2  0  0  3  0  0  0  0  0  0
  188.6350  177.4220  138.4480 C   0  0  0  0  0  2  0  0  0  0  0  0
  188.9590  178.3350  137.3170 C   0  0  0  0  0  0  0  0  0  0  0  0
  189.0100  179.7070  137.5250 O   0  0  0  0  0  1  0  0  0  0  0  0
  189.1600  177.8660  136.1670 O   0  0  0  0  0  0  0  0  0  0  0  0
  1  7  1  0  0  0  0
  2  6  1  0  0  0  0
  3 23  1  6  0  0  0
  3  9  1  0  0  0  0
  3  8  1  0  0  0  0
  4  5  1  0  0  0  0
  5  7  2  0  0  0  0
  6  1  2  0  0  0  0
  8  4  2  0  0  0  0
  8  6  1  0  0  0  0
  9  2  2  0  0  0  0
 11 10  2  0  0  0  0
 11  4  1  0  0  0  0
 12 15  1  0  0  0  0
 12 10  1  1  0  0  0
 13 14  1  0  0  0  0
 14 15  1  0  0  0  0
 16 18  1  1  0  0  0
 16 13  1  0  0  0  0
 16 17  1  0  0  0  0
 17 12  1  0  0  0  0
 19 18  2  0  0  0  0
 20 19  1  0  0  0  0
 21 22  1  0  0  0  0
 22 19  1  0  0  0  0
 24 23  1  0  0  0  0
 25 26  2  0  0  0  0
 26 24  1  0  0  0  0
 28 27  1  1  0  0  0
 28 26  1  0  0  0  0
 29 28  1  0  0  0  0
 30 31  1  0  0  0  0
 30 29  1  0  0  0  0
 32 30  2  0  0  0  0
M  END
>  <MODEL>
1

>  <REMARK>
 VINA RESULT:      -8.6      0.000      0.000
  Name = 
  10 active torsions:
  status: ('A' for Active; 'I' for Inactive)
    1  A    between atoms: C_3  and  N_24
    2  A    between atoms: C_4  and  C_21
    3  A    between atoms: C_6  and  C_17
    4  A    between atoms: C_6  and  C_18
    5  A    between atoms: C_9  and  C_18
    6  A    between atoms: C_10  and  C_26
    7  A    between atoms: C_14  and  C_28
    8  A    between atoms: C_16  and  C_23
    9  A    between atoms: C_17  and  C_29
   10  A    between atoms: C_21  and  C_29
                            x       y       z     vdW  Elec       q    Type
                         _______ _______ _______ _____ _____    ______ ____

>  <TORSDO>
F 10

$$$$
=
 OpenBabel11062414113D

 32 34  0  0  1  0  0  0  0  0999 V2000
  185.3530  178.7630  147.0810 N   0  0  0  0  0  0  0  0  0  0  0  0
  183.5160  179.1460  145.4990 N   0  0  0  0  0  0  0  0  0  0  0  0
  184.6870  178.3630  143.5300 C   0  0  1  0  0  3  0  0  0  0  0  0
  186.8340  177.8110  144.9120 C   0  0  0  0  0  0  0  0  0  0  0  0
  187.3940  177.8390  146.2030 C   0  0  0  0  0  3  0  0  0  0  0  0
  184.8230  178.7350  145.8320 C   0  0  0  0  0  0  0  0  0  0  0  0
  186.6290  178.3240  147.2810 C   0  0  0  0  0  3  0  0  0  0  0  0
  185.5270  178.2810  144.7570 C   0  0  0  0  0  0  0  0  0  0  0  0
  183.3480  178.9280  144.0610 C   0  0  0  0  0  3  0  0  0  0  0  0
  188.8740  177.4390  143.6730 N   0  0  0  0  0  0  0  0  0  0  0  0
  187.5890  177.3110  143.7560 C   0  0  0  0  0  3  0  0  0  0  0  0
  189.5920  176.9380  142.5120 C   0  0  2  0  0  3  0  0  0  0  0  0
  191.0900  176.5710  140.3040 O   0  0  0  0  0  0  0  0  0  0  0  0
  191.6730  177.5000  141.1900 C   0  0  0  0  0  2  0  0  0  0  0  0
  191.0580  177.3710  142.5870 C   0  0  0  0  0  2  0  0  0  0  0  0
  189.7620  176.9800  140.0000 C   0  0  1  0  0  3  0  0  0  0  0  0
  188.9470  177.4430  141.2210 C   0  0  0  0  0  2  0  0  0  0  0  0
  189.7340  178.0250  138.9210 C   0  0  0  0  0  3  0  0  0  0  0  0
  188.8330  178.0430  137.9300 C   0  0  0  0  0  0  0  0  0  0  0  0
  188.9060  179.1340  136.9160 C   0  0  0  0  0  1  0  0  0  0  0  0
  186.5010  177.6360  137.9000 O   0  0  0  0  0  1  0  0  0  0  0  0
  187.7480  177.0180  137.8230 C   0  0  0  0  0  2  0  0  0  0  0  0
  185.3010  179.3450  142.5430 C   0  0  0  0  0  2  0  0  0  0  0  0
  185.4590  178.7110  141.1690 C   0  0  0  0  0  2  0  0  0  0  0  0
  184.4190  179.9560  139.4620 O   0  0  0  0  0  0  0  0  0  0  0  0
  184.2970  179.0600  140.2830 C   0  0  0  0  0  0  0  0  0  0  0  0
  182.9580  177.2150  139.5570 O   0  0  0  0  0  1  0  0  0  0  0  0
  182.9850  178.3360  140.3910 C   0  0  2  0  0  3  0  0  0  0  0  0
  181.8380  179.2710  140.0410 C   0  0  0  0  0  2  0  0  0  0  0  0
  180.8750  179.3580  141.1720 C   0  0  0  0  0  0  0  0  0  0  0  0
  180.5760  178.2260  141.9180 O   0  0  0  0  0  1  0  0  0  0  0  0
  180.3090  180.4500  141.4360 O   0  0  0  0  0  0  0  0  0  0  0  0
  1  7  1  0  0  0  0
  2  6  1  0  0  0  0
  3 23  1  6  0  0  0
  3  9  1  0  0  0  0
  3  8  1  0  0  0  0
  4  5  1  0  0  0  0
  5  7  2  0  0  0  0
  6  1  2  0  0  0  0
  8  4  2  0  0  0  0
  8  6  1  0  0  0  0
  9  2  2  0  0  0  0
 10 11  2  0  0  0  0
 11  4  1  0  0  0  0
 12 15  1  0  0  0  0
 12 10  1  1  0  0  0
 13 14  1  0  0  0  0
 14 15  1  0  0  0  0
 16 18  1  6  0  0  0
 16 13  1  0  0  0  0
 16 17  1  0  0  0  0
 17 12  1  0  0  0  0
 19 18  2  0  0  0  0
 20 19  1  0  0  0  0
 22 21  1  0  0  0  0
 22 19  1  0  0  0  0
 24 23  1  0  0  0  0
 25 26  2  0  0  0  0
 26 28  1  0  0  0  0
 26 24  1  0  0  0  0
 28 27  1  6  0  0  0
 29 28  1  0  0  0  0
 29 30  1  0  0  0  0
 30 32  2  0  0  0  0
 30 31  1  0  0  0  0
M  END
>  <MODEL>
2

>  <REMARK>
 VINA RESULT:      -8.6      1.861      6.237
  Name = 
  10 active torsions:
  status: ('A' for Active; 'I' for Inactive)
    1  A    between atoms: C_3  and  N_24
    2  A    between atoms: C_4  and  C_21
    3  A    between atoms: C_6  and  C_17
    4  A    between atoms: C_6  and  C_18
    5  A    between atoms: C_9  and  C_18
    6  A    between atoms: C_10  and  C_26
    7  A    between atoms: C_14  and  C_28
    8  A    between atoms: C_16  and  C_23
    9  A    between atoms: C_17  and  C_29
   10  A    between atoms: C_21  and  C_29
                            x       y       z     vdW  Elec       q    Type
                         _______ _______ _______ _____ _____    ______ ____

>  <TORSDO>
F 10

$$$$
=
 OpenBabel11062414113D

 32 34  0  0  1  0  0  0  0  0999 V2000
  185.1780  178.8170  146.9390 N   0  0  0  0  0  0  0  0  0  0  0  0
  183.3530  179.1590  145.3320 N   0  0  0  0  0  0  0  0  0  0  0  0
  184.5500  178.3530  143.3890 C   0  0  1  0  0  3  0  0  0  0  0  0
  186.6870  177.8410  144.8010 C   0  0  0  0  0  0  0  0  0  0  0  0
  187.2340  177.8950  146.0960 C   0  0  0  0  0  3  0  0  0  0  0  0
  184.6600  178.7640  145.6860 C   0  0  0  0  0  0  0  0  0  0  0  0
  186.4550  178.3910  147.1590 C   0  0  0  0  0  3  0  0  0  0  0  0
  185.3780  178.2980  144.6250 C   0  0  0  0  0  0  0  0  0  0  0  0
  183.2010  178.9160  143.8960 C   0  0  0  0  0  3  0  0  0  0  0  0
  188.7410  177.4740  143.5840 N   0  0  0  0  0  0  0  0  0  0  0  0
  187.4580  177.3270  143.6610 C   0  0  0  0  0  3  0  0  0  0  0  0
  189.4750  176.9590  142.4390 C   0  0  2  0  0  3  0  0  0  0  0  0
  191.0030  176.5660  140.2560 O   0  0  0  0  0  0  0  0  0  0  0  0
  191.5750  177.5030  141.1400 C   0  0  0  0  0  2  0  0  0  0  0  0
  190.9400  177.3900  142.5290 C   0  0  0  0  0  2  0  0  0  0  0  0
  189.6800  176.9720  139.9280 C   0  0  1  0  0  3  0  0  0  0  0  0
  188.8490  177.4500  141.1330 C   0  0  0  0  0  2  0  0  0  0  0  0
  189.6680  178.0050  138.8380 C   0  0  0  0  0  3  0  0  0  0  0  0
  188.7860  178.0100  137.8310 C   0  0  0  0  0  0  0  0  0  0  0  0
  188.8740  179.0900  136.8060 C   0  0  0  0  0  1  0  0  0  0  0  0
  186.4550  177.5940  137.7760 O   0  0  0  0  0  1  0  0  0  0  0  0
  187.7060  176.9800  137.7150 C   0  0  0  0  0  2  0  0  0  0  0  0
  185.1660  179.3240  142.3920 C   0  0  0  0  0  2  0  0  0  0  0  0
  185.3440  178.6680  141.0300 C   0  0  0  0  0  2  0  0  0  0  0  0
  184.5390  180.1580  139.3950 O   0  0  0  0  0  0  0  0  0  0  0  0
  184.3080  179.1610  140.0600 C   0  0  0  0  0  0  0  0  0  0  0  0
  181.9970  179.0640  140.6690 O   0  0  0  0  0  1  0  0  0  0  0  0
  182.9910  178.4580  139.8980 C   0  0  2  0  0  3  0  0  0  0  0  0
  183.1260  176.9930  140.2830 C   0  0  0  0  0  2  0  0  0  0  0  0
  182.3010  176.1400  139.3850 C   0  0  0  0  0  0  0  0  0  0  0  0
  180.9430  175.9830  139.6310 O   0  0  0  0  0  1  0  0  0  0  0  0
  182.8380  175.5380  138.4200 O   0  0  0  0  0  0  0  0  0  0  0  0
  1  7  1  0  0  0  0
  2  6  1  0  0  0  0
  3 23  1  6  0  0  0
  3  9  1  0  0  0  0
  3  8  1  0  0  0  0
  4  5  1  0  0  0  0
  5  7  2  0  0  0  0
  6  1  2  0  0  0  0
  8  4  2  0  0  0  0
  8  6  1  0  0  0  0
  9  2  2  0  0  0  0
 10 11  2  0  0  0  0
 11  4  1  0  0  0  0
 12 15  1  0  0  0  0
 12 10  1  1  0  0  0
 13 14  1  0  0  0  0
 14 15  1  0  0  0  0
 16 18  1  6  0  0  0
 16 13  1  0  0  0  0
 16 17  1  0  0  0  0
 17 12  1  0  0  0  0
 19 18  2  0  0  0  0
 20 19  1  0  0  0  0
 22 21  1  0  0  0  0
 22 19  1  0  0  0  0
 24 23  1  0  0  0  0
 25 26  2  0  0  0  0
 26 24  1  0  0  0  0
 28 26  1  0  0  0  0
 28 29  1  0  0  0  0
 28 27  1  1  0  0  0
 30 31  1  0  0  0  0
 30 29  1  0  0  0  0
 32 30  2  0  0  0  0
M  END
>  <MODEL>
3

>  <REMARK>
 VINA RESULT:      -8.5      1.918      5.980
  Name = 
  10 active torsions:
  status: ('A' for Active; 'I' for Inactive)
    1  A    between atoms: C_3  and  N_24
    2  A    between atoms: C_4  and  C_21
    3  A    between atoms: C_6  and  C_17
    4  A    between atoms: C_6  and  C_18
    5  A    between atoms: C_9  and  C_18
    6  A    between atoms: C_10  and  C_26
    7  A    between atoms: C_14  and  C_28
    8  A    between atoms: C_16  and  C_23
    9  A    between atoms: C_17  and  C_29
   10  A    between atoms: C_21  and  C_29
                            x       y       z     vdW  Elec       q    Type
                         _______ _______ _______ _____ _____    ______ ____

>  <TORSDO>
F 10

$$$$
=
 OpenBabel11062414113D

 32 34  0  0  1  0  0  0  0  0999 V2000
  187.1340  178.2800  147.9320 N   0  0  0  0  0  0  0  0  0  0  0  0
  184.9510  178.6190  146.8610 N   0  0  0  0  0  0  0  0  0  0  0  0
  185.6390  177.9700  144.6330 C   0  0  1  0  0  3  0  0  0  0  0  0
  188.0800  177.4860  145.4270 C   0  0  0  0  0  0  0  0  0  0  0  0
  188.9360  177.4990  146.5430 C   0  0  0  0  0  3  0  0  0  0  0  0
  186.3160  178.2680  146.8490 C   0  0  0  0  0  0  0  0  0  0  0  0
  188.4380  177.9030  147.7970 C   0  0  0  0  0  3  0  0  0  0  0  0
  186.7560  177.8900  145.6150 C   0  0  0  0  0  0  0  0  0  0  0  0
  184.4470  178.4440  145.4980 C   0  0  0  0  0  3  0  0  0  0  0  0
  189.7850  177.2150  143.7360 N   0  0  0  0  0  0  0  0  0  0  0  0
  188.5510  177.0680  144.1000 C   0  0  0  0  0  3  0  0  0  0  0  0
  190.2190  176.7960  142.4130 C   0  0  2  0  0  3  0  0  0  0  0  0
  191.1560  176.5890  139.8970 O   0  0  0  0  0  0  0  0  0  0  0  0
  191.9090  177.4980  140.6690 C   0  0  0  0  0  2  0  0  0  0  0  0
  191.6480  177.2810  142.1620 C   0  0  0  0  0  2  0  0  0  0  0  0
  189.7840  176.9590  139.9380 C   0  0  1  0  0  3  0  0  0  0  0  0
  189.2710  177.3340  141.3410 C   0  0  0  0  0  2  0  0  0  0  0  0
  189.4710  178.0510  138.9540 C   0  0  0  0  0  3  0  0  0  0  0  0
  189.0220  177.8240  137.7130 C   0  0  0  0  0  0  0  0  0  0  0  0
  188.7460  178.9900  136.8270 C   0  0  0  0  0  1  0  0  0  0  0  0
  187.4650  176.0530  137.4960 O   0  0  0  0  0  1  0  0  0  0  0  0
  188.7720  176.4400  137.1990 C   0  0  0  0  0  2  0  0  0  0  0  0
  185.9500  179.0180  143.5740 C   0  0  0  0  0  2  0  0  0  0  0  0
  184.7830  179.1860  142.6120 C   0  0  0  0  0  2  0  0  0  0  0  0
  186.4350  178.9780  140.9470 O   0  0  0  0  0  0  0  0  0  0  0  0
  185.2400  179.0410  141.1880 C   0  0  0  0  0  0  0  0  0  0  0  0
  184.3150  180.1410  139.2750 O   0  0  0  0  0  1  0  0  0  0  0  0
  184.2570  178.9820  140.0530 C   0  0  2  0  0  3  0  0  0  0  0  0
  182.8470  178.7860  140.5890 C   0  0  0  0  0  2  0  0  0  0  0  0
  182.3180  177.4540  140.1860 C   0  0  0  0  0  0  0  0  0  0  0  0
  180.9770  177.1520  140.3810 O   0  0  0  0  0  1  0  0  0  0  0  0
  183.0910  176.5910  139.6960 O   0  0  0  0  0  0  0  0  0  0  0  0
  3 23  1  6  0  0  0
  3  9  1  0  0  0  0
  3  8  1  0  0  0  0
  4  8  2  0  0  0  0
  4  5  1  0  0  0  0
  5  7  2  0  0  0  0
  6  2  1  0  0  0  0
  6  1  2  0  0  0  0
  7  1  1  0  0  0  0
  8  6  1  0  0  0  0
  9  2  2  0  0  0  0
 10 11  2  0  0  0  0
 11  4  1  0  0  0  0
 12 10  1  1  0  0  0
 13 16  1  0  0  0  0
 13 14  1  0  0  0  0
 14 15  1  0  0  0  0
 15 12  1  0  0  0  0
 16 18  1  6  0  0  0
 16 17  1  0  0  0  0
 17 12  1  0  0  0  0
 19 18  2  0  0  0  0
 20 19  1  0  0  0  0
 22 21  1  0  0  0  0
 22 19  1  0  0  0  0
 24 23  1  0  0  0  0
 25 26  2  0  0  0  0
 26 24  1  0  0  0  0
 28 27  1  1  0  0  0
 28 29  1  0  0  0  0
 28 26  1  0  0  0  0
 30 31  1  0  0  0  0
 30 29  1  0  0  0  0
 32 30  2  0  0  0  0
M  END
>  <MODEL>
4

>  <REMARK>
 VINA RESULT:      -8.2      1.754      5.746
  Name = 
  10 active torsions:
  status: ('A' for Active; 'I' for Inactive)
    1  A    between atoms: C_3  and  N_24
    2  A    between atoms: C_4  and  C_21
    3  A    between atoms: C_6  and  C_17
    4  A    between atoms: C_6  and  C_18
    5  A    between atoms: C_9  and  C_18
    6  A    between atoms: C_10  and  C_26
    7  A    between atoms: C_14  and  C_28
    8  A    between atoms: C_16  and  C_23
    9  A    between atoms: C_17  and  C_29
   10  A    between atoms: C_21  and  C_29
                            x       y       z     vdW  Elec       q    Type
                         _______ _______ _______ _____ _____    ______ ____

>  <TORSDO>
F 10

$$$$
=
 OpenBabel11062414113D

 32 34  0  0  1  0  0  0  0  0999 V2000
  184.9170  178.6250  146.5950 N   0  0  0  0  0  0  0  0  0  0  0  0
  187.2890  177.9920  146.6390 N   0  0  0  0  0  0  0  0  0  0  0  0
  187.5530  177.7690  144.2440 C   0  0  1  0  0  3  0  0  0  0  0  0
  185.0630  178.4300  143.8120 C   0  0  0  0  0  0  0  0  0  0  0  0
  183.8580  178.7950  144.4410 C   0  0  0  0  0  3  0  0  0  0  0  0
  186.0740  178.2710  145.9800 C   0  0  0  0  0  0  0  0  0  0  0  0
  183.8080  178.8870  145.8450 C   0  0  0  0  0  3  0  0  0  0  0  0
  186.1690  178.1630  144.6250 C   0  0  0  0  0  0  0  0  0  0  0  0
  188.2780  177.6780  145.6070 C   0  0  0  0  0  3  0  0  0  0  0  0
  184.3980  179.0010  141.5610 N   0  0  0  0  0  0  0  0  0  0  0  0
  185.1680  178.3240  142.3510 C   0  0  0  0  0  3  0  0  0  0  0  0
  184.5230  178.8710  140.1190 C   0  0  2  0  0  3  0  0  0  0  0  0
  184.8040  178.0550  137.5680 O   0  0  0  0  0  0  0  0  0  0  0  0
  184.0220  177.1600  138.3260 C   0  0  0  0  0  2  0  0  0  0  0  0
  183.5200  177.8340  139.6060 C   0  0  0  0  0  2  0  0  0  0  0  0
  186.0540  178.2550  138.2160 C   0  0  1  0  0  3  0  0  0  0  0  0
  185.9490  178.4750  139.7360 C   0  0  0  0  0  2  0  0  0  0  0  0
  187.0240  177.1500  137.9090 C   0  0  0  0  0  3  0  0  0  0  0  0
  188.2060  177.3460  137.3100 C   0  0  0  0  0  0  0  0  0  0  0  0
  189.0850  176.1690  137.0590 C   0  0  0  0  0  1  0  0  0  0  0  0
  189.0400  179.4400  138.0370 O   0  0  0  0  0  1  0  0  0  0  0  0
  188.6760  178.7090  136.9070 C   0  0  0  0  0  2  0  0  0  0  0  0
  187.5410  176.3990  143.5790 C   0  0  0  0  0  2  0  0  0  0  0  0
  188.9350  176.0050  143.1140 C   0  0  0  0  0  2  0  0  0  0  0  0
  188.6920  177.2060  141.1040 O   0  0  0  0  0  0  0  0  0  0  0  0
  189.4250  176.9370  142.0430 C   0  0  0  0  0  0  0  0  0  0  0  0
  191.4820  177.3470  140.8930 O   0  0  0  0  0  1  0  0  0  0  0  0
  190.8010  177.5380  142.0970 C   0  0  2  0  0  3  0  0  0  0  0  0
  191.5940  176.9320  143.2440 C   0  0  0  0  0  2  0  0  0  0  0  0
  191.7030  177.9010  144.3700 C   0  0  0  0  0  0  0  0  0  0  0  0
  191.8780  177.4390  145.6680 O   0  0  0  0  0  1  0  0  0  0  0  0
  191.6090  179.1350  144.1500 O   0  0  0  0  0  0  0  0  0  0  0  0
  3 23  1  1  0  0  0
  3  8  1  0  0  0  0
  3  9  1  0  0  0  0
  4  5  1  0  0  0  0
  4  8  2  0  0  0  0
  5  7  2  0  0  0  0
  6  1  2  0  0  0  0
  6  2  1  0  0  0  0
  7  1  1  0  0  0  0
  8  6  1  0  0  0  0
  9  2  2  0  0  0  0
 10 11  2  0  0  0  0
 11  4  1  0  0  0  0
 12 10  1  1  0  0  0
 13 16  1  0  0  0  0
 13 14  1  0  0  0  0
 14 15  1  0  0  0  0
 15 12  1  0  0  0  0
 16 18  1  1  0  0  0
 16 17  1  0  0  0  0
 17 12  1  0  0  0  0
 19 18  2  0  0  0  0
 20 19  1  0  0  0  0
 22 19  1  0  0  0  0
 22 21  1  0  0  0  0
 24 23  1  0  0  0  0
 25 26  2  0  0  0  0
 26 28  1  0  0  0  0
 26 24  1  0  0  0  0
 28 27  1  6  0  0  0
 28 29  1  0  0  0  0
 29 30  1  0  0  0  0
 30 31  1  0  0  0  0
 32 30  2  0  0  0  0
M  END
>  <MODEL>
5

>  <REMARK>
 VINA RESULT:      -8.2      2.033      4.931
  Name = 
  10 active torsions:
  status: ('A' for Active; 'I' for Inactive)
    1  A    between atoms: C_3  and  N_24
    2  A    between atoms: C_4  and  C_21
    3  A    between atoms: C_6  and  C_17
    4  A    between atoms: C_6  and  C_18
    5  A    between atoms: C_9  and  C_18
    6  A    between atoms: C_10  and  C_26
    7  A    between atoms: C_14  and  C_28
    8  A    between atoms: C_16  and  C_23
    9  A    between atoms: C_17  and  C_29
   10  A    between atoms: C_21  and  C_29
                            x       y       z     vdW  Elec       q    Type
                         _______ _______ _______ _____ _____    ______ ____

>  <TORSDO>
F 10

$$$$
=
 OpenBabel11062414113D

 32 34  0  0  1  0  0  0  0  0999 V2000
  185.6880  178.2480  147.0350 N   0  0  0  0  0  0  0  0  0  0  0  0
  188.0250  177.5350  146.8010 N   0  0  0  0  0  0  0  0  0  0  0  0
  188.0930  177.6250  144.3830 C   0  0  1  0  0  3  0  0  0  0  0  0
  185.6080  178.4200  144.2480 C   0  0  0  0  0  0  0  0  0  0  0  0
  184.4730  178.7370  145.0170 C   0  0  0  0  0  3  0  0  0  0  0  0
  186.7760  177.9400  146.2860 C   0  0  0  0  0  0  0  0  0  0  0  0
  184.5360  178.6430  146.4210 C   0  0  0  0  0  3  0  0  0  0  0  0
  186.7610  178.0110  144.9250 C   0  0  0  0  0  0  0  0  0  0  0  0
  188.9170  177.3290  145.6580 C   0  0  0  0  0  3  0  0  0  0  0  0
  184.5160  178.7880  142.1260 N   0  0  0  0  0  0  0  0  0  0  0  0
  185.5950  178.5070  142.7820 C   0  0  0  0  0  3  0  0  0  0  0  0
  184.5340  178.8610  140.6740 C   0  0  2  0  0  3  0  0  0  0  0  0
  184.6070  178.4110  138.0200 O   0  0  0  0  0  0  0  0  0  0  0  0
  183.8530  177.4340  138.7010 C   0  0  0  0  0  2  0  0  0  0  0  0
  183.4650  177.9290  140.0970 C   0  0  0  0  0  2  0  0  0  0  0  0
  185.9050  178.4900  138.5940 C   0  0  1  0  0  3  0  0  0  0  0  0
  185.9160  178.4940  140.1340 C   0  0  0  0  0  2  0  0  0  0  0  0
  186.8160  177.4200  138.0630 C   0  0  0  0  0  3  0  0  0  0  0  0
  187.8370  177.6610  137.2310 C   0  0  0  0  0  0  0  0  0  0  0  0
  188.6730  176.5150  136.7720 C   0  0  0  0  0  1  0  0  0  0  0  0
  189.0190  179.6610  137.6880 O   0  0  0  0  0  1  0  0  0  0  0  0
  188.1740  179.0430  136.7660 C   0  0  0  0  0  2  0  0  0  0  0  0
  187.9690  176.3570  143.5490 C   0  0  0  0  0  2  0  0  0  0  0  0
  188.7620  176.4750  142.2550 C   0  0  0  0  0  2  0  0  0  0  0  0
  190.5490  175.1510  143.0250 O   0  0  0  0  0  0  0  0  0  0  0  0
  190.2190  176.1990  142.4930 C   0  0  0  0  0  0  0  0  0  0  0  0
  191.3020  178.2770  142.9750 O   0  0  0  0  0  1  0  0  0  0  0  0
  191.2780  177.1890  142.0990 C   0  0  2  0  0  3  0  0  0  0  0  0
  191.0410  177.6720  140.6770 C   0  0  0  0  0  2  0  0  0  0  0  0
  192.0700  177.1110  139.7590 C   0  0  0  0  0  0  0  0  0  0  0  0
  193.4120  177.4120  139.9540 O   0  0  0  0  0  1  0  0  0  0  0  0
  191.7240  176.3880  138.7900 O   0  0  0  0  0  0  0  0  0  0  0  0
  3 23  1  6  0  0  0
  3  8  1  0  0  0  0
  3  9  1  0  0  0  0
  4  8  2  0  0  0  0
  4  5  1  0  0  0  0
  5  7  2  0  0  0  0
  6  2  1  0  0  0  0
  6  1  2  0  0  0  0
  7  1  1  0  0  0  0
  8  6  1  0  0  0  0
  9  2  2  0  0  0  0
 10 11  2  0  0  0  0
 11  4  1  0  0  0  0
 12 10  1  1  0  0  0
 13 16  1  0  0  0  0
 13 14  1  0  0  0  0
 14 15  1  0  0  0  0
 15 12  1  0  0  0  0
 16 18  1  1  0  0  0
 16 17  1  0  0  0  0
 17 12  1  0  0  0  0
 19 18  2  0  0  0  0
 20 19  1  0  0  0  0
 22 19  1  0  0  0  0
 22 21  1  0  0  0  0
 24 26  1  0  0  0  0
 24 23  1  0  0  0  0
 26 25  2  0  0  0  0
 28 26  1  0  0  0  0
 28 27  1  1  0  0  0
 29 28  1  0  0  0  0
 30 31  1  0  0  0  0
 30 29  1  0  0  0  0
 32 30  2  0  0  0  0
M  END
>  <MODEL>
6

>  <REMARK>
 VINA RESULT:      -7.8      1.976      4.055
  Name = 
  10 active torsions:
  status: ('A' for Active; 'I' for Inactive)
    1  A    between atoms: C_3  and  N_24
    2  A    between atoms: C_4  and  C_21
    3  A    between atoms: C_6  and  C_17
    4  A    between atoms: C_6  and  C_18
    5  A    between atoms: C_9  and  C_18
    6  A    between atoms: C_10  and  C_26
    7  A    between atoms: C_14  and  C_28
    8  A    between atoms: C_16  and  C_23
    9  A    between atoms: C_17  and  C_29
   10  A    between atoms: C_21  and  C_29
                            x       y       z     vdW  Elec       q    Type
                         _______ _______ _______ _____ _____    ______ ____

>  <TORSDO>
F 10

$$$$
=
 OpenBabel11062414113D

 32 34  0  0  1  0  0  0  0  0999 V2000
  183.8980  178.5030  143.9520 N   0  0  0  0  0  0  0  0  0  0  0  0
  185.5960  177.9990  145.6520 N   0  0  0  0  0  0  0  0  0  0  0  0
  187.4870  177.9630  144.1410 C   0  0  1  0  0  3  0  0  0  0  0  0
  185.9750  178.5150  142.0840 C   0  0  0  0  0  0  0  0  0  0  0  0
  184.6500  178.7680  141.6820 C   0  0  0  0  0  3  0  0  0  0  0  0
  185.1780  178.2580  144.3300 C   0  0  0  0  0  0  0  0  0  0  0  0
  183.6190  178.7560  142.6410 C   0  0  0  0  0  3  0  0  0  0  0  0
  186.2080  178.2520  143.4370 C   0  0  0  0  0  0  0  0  0  0  0  0
  187.0480  177.8150  145.6170 C   0  0  0  0  0  3  0  0  0  0  0  0
  186.8910  178.3550  139.8540 N   0  0  0  0  0  0  0  0  0  0  0  0
  187.0860  178.5200  141.1230 C   0  0  0  0  0  3  0  0  0  0  0  0
  188.0120  178.3600  138.9290 C   0  0  2  0  0  3  0  0  0  0  0  0
  189.8300  177.8860  136.9990 O   0  0  0  0  0  0  0  0  0  0  0  0
  188.5170  177.6100  136.5680 C   0  0  0  0  0  2  0  0  0  0  0  0
  187.4940  178.2790  137.4910 C   0  0  0  0  0  2  0  0  0  0  0  0
  190.0980  177.1570  138.1900 C   0  0  1  0  0  3  0  0  0  0  0  0
  188.9600  177.1970  139.2260 C   0  0  0  0  0  2  0  0  0  0  0  0
  190.4950  175.7380  137.8970 C   0  0  0  0  0  3  0  0  0  0  0  0
  191.7270  175.3750  137.5180 C   0  0  0  0  0  0  0  0  0  0  0  0
  192.0010  173.9330  137.2570 C   0  0  0  0  0  1  0  0  0  0  0  0
  193.5730  176.4380  138.5520 O   0  0  0  0  0  1  0  0  0  0  0  0
  192.8370  176.3680  137.3700 C   0  0  0  0  0  2  0  0  0  0  0  0
  188.0680  176.6460  143.6460 C   0  0  0  0  0  2  0  0  0  0  0  0
  189.3430  176.8770  142.8480 C   0  0  0  0  0  2  0  0  0  0  0  0
  191.1750  175.4810  143.3370 O   0  0  0  0  0  0  0  0  0  0  0  0
  190.5530  176.4840  143.6480 C   0  0  0  0  0  0  0  0  0  0  0  0
  191.8870  178.3070  144.4350 O   0  0  0  0  0  1  0  0  0  0  0  0
  191.0080  177.2950  144.8280 C   0  0  2  0  0  3  0  0  0  0  0  0
  191.6760  176.3970  145.8570 C   0  0  0  0  0  2  0  0  0  0  0  0
  191.2200  176.7490  147.2290 C   0  0  0  0  0  0  0  0  0  0  0  0
  189.8650  176.7500  147.5320 O   0  0  0  0  0  0  0  0  0  0  0  0
  192.0590  177.0730  148.1080 O   0  0  0  0  0  1  0  0  0  0  0  0
  1  6  2  0  0  0  0
  3 23  1  6  0  0  0
  3  9  1  0  0  0  0
  4  8  2  0  0  0  0
  5  4  1  0  0  0  0
  5  7  2  0  0  0  0
  6  2  1  0  0  0  0
  7  1  1  0  0  0  0
  8  3  1  0  0  0  0
  8  6  1  0  0  0  0
  9  2  2  0  0  0  0
 10 11  2  0  0  0  0
 11  4  1  0  0  0  0
 12 17  1  0  0  0  0
 12 10  1  1  0  0  0
 13 16  1  0  0  0  0
 14 13  1  0  0  0  0
 14 15  1  0  0  0  0
 15 12  1  0  0  0  0
 16 18  1  6  0  0  0
 16 17  1  0  0  0  0
 19 18  2  0  0  0  0
 20 19  1  0  0  0  0
 22 19  1  0  0  0  0
 22 21  1  0  0  0  0
 24 23  1  0  0  0  0
 24 26  1  0  0  0  0
 25 26  2  0  0  0  0
 26 28  1  0  0  0  0
 28 27  1  6  0  0  0
 28 29  1  0  0  0  0
 29 30  1  0  0  0  0
 30 31  2  0  0  0  0
 30 32  1  0  0  0  0
M  END
>  <MODEL>
7

>  <REMARK>
 VINA RESULT:      -7.8      2.970      7.269
  Name = 
  10 active torsions:
  status: ('A' for Active; 'I' for Inactive)
    1  A    between atoms: C_3  and  N_24
    2  A    between atoms: C_4  and  C_21
    3  A    between atoms: C_6  and  C_17
    4  A    between atoms: C_6  and  C_18
    5  A    between atoms: C_9  and  C_18
    6  A    between atoms: C_10  and  C_26
    7  A    between atoms: C_14  and  C_28
    8  A    between atoms: C_16  and  C_23
    9  A    between atoms: C_17  and  C_29
   10  A    between atoms: C_21  and  C_29
                            x       y       z     vdW  Elec       q    Type
                         _______ _______ _______ _____ _____    ______ ____

>  <TORSDO>
F 10

$$$$
=
 OpenBabel11062414113D

 32 34  0  0  1  0  0  0  0  0999 V2000
  181.0890  179.3320  141.9940 N   0  0  0  0  0  0  0  0  0  0  0  0
  182.2810  178.8900  139.8940 N   0  0  0  0  0  0  0  0  0  0  0  0
  184.3910  178.2720  140.9060 C   0  0  1  0  0  3  0  0  0  0  0  0
  183.4470  178.6280  143.3160 C   0  0  0  0  0  0  0  0  0  0  0  0
  182.3040  179.0050  144.0440 C   0  0  0  0  0  3  0  0  0  0  0  0
  182.1970  178.9700  141.2990 C   0  0  0  0  0  0  0  0  0  0  0  0
  181.1270  179.3570  143.3580 C   0  0  0  0  0  3  0  0  0  0  0  0
  183.3610  178.6270  141.9200 C   0  0  0  0  0  0  0  0  0  0  0  0
  183.6360  178.4410  139.5660 C   0  0  0  0  0  3  0  0  0  0  0  0
  184.7330  177.9480  145.2440 N   0  0  0  0  0  0  0  0  0  0  0  0
  184.6980  178.2480  143.9860 C   0  0  0  0  0  3  0  0  0  0  0  0
  185.9880  177.5810  145.8800 C   0  0  2  0  0  3  0  0  0  0  0  0
  188.4260  177.4780  147.0200 O   0  0  0  0  0  0  0  0  0  0  0  0
  187.7080  178.6280  147.4090 C   0  0  0  0  0  2  0  0  0  0  0  0
  186.2150  178.4560  147.1150 C   0  0  0  0  0  2  0  0  0  0  0  0
  188.4860  177.4170  145.6000 C   0  0  1  0  0  3  0  0  0  0  0  0
  187.1510  177.7240  144.8970 C   0  0  0  0  0  2  0  0  0  0  0  0
  189.5820  178.2850  145.0510 C   0  0  0  0  0  3  0  0  0  0  0  0
  190.7940  177.8240  144.7150 C   0  0  0  0  0  0  0  0  0  0  0  0
  191.8010  178.7840  144.1780 C   0  0  0  0  0  1  0  0  0  0  0  0
  191.6650  175.9070  143.6320 O   0  0  0  0  0  1  0  0  0  0  0  0
  191.1580  176.3780  144.8430 C   0  0  0  0  0  2  0  0  0  0  0  0
  185.5480  179.2590  140.9690 C   0  0  0  0  0  2  0  0  0  0  0  0
  186.8500  178.5530  141.3190 C   0  0  0  0  0  2  0  0  0  0  0  0
  187.2210  178.6180  138.9950 O   0  0  0  0  0  0  0  0  0  0  0  0
  187.6450  178.2530  140.0810 C   0  0  0  0  0  0  0  0  0  0  0  0
  189.5740  177.6960  141.3810 O   0  0  0  0  0  1  0  0  0  0  0  0
  188.9460  177.5060  140.1480 C   0  0  2  0  0  3  0  0  0  0  0  0
  189.8660  177.9500  139.0220 C   0  0  0  0  0  2  0  0  0  0  0  0
  190.3530  176.7730  138.2520 C   0  0  0  0  0  0  0  0  0  0  0  0
  190.7550  175.6250  138.9210 O   0  0  0  0  0  1  0  0  0  0  0  0
  190.4280  176.8280  136.9980 O   0  0  0  0  0  0  0  0  0  0  0  0
  1  7  1  0  0  0  0
  2  6  1  0  0  0  0
  3 23  1  6  0  0  0
  3  8  1  0  0  0  0
  4 11  1  0  0  0  0
  4  5  1  0  0  0  0
  6  8  1  0  0  0  0
  6  1  2  0  0  0  0
  7  5  2  0  0  0  0
  8  4  2  0  0  0  0
  9  2  2  0  0  0  0
  9  3  1  0  0  0  0
 11 10  2  0  0  0  0
 12 10  1  6  0  0  0
 12 15  1  0  0  0  0
 13 14  1  0  0  0  0
 15 14  1  0  0  0  0
 16 18  1  6  0  0  0
 16 13  1  0  0  0  0
 17 16  1  0  0  0  0
 17 12  1  0  0  0  0
 19 22  1  0  0  0  0
 19 18  2  0  0  0  0
 20 19  1  0  0  0  0
 21 22  1  0  0  0  0
 23 24  1  0  0  0  0
 25 26  2  0  0  0  0
 26 28  1  0  0  0  0
 26 24  1  0  0  0  0
 28 27  1  1  0  0  0
 29 28  1  0  0  0  0
 30 31  1  0  0  0  0
 30 29  1  0  0  0  0
 32 30  2  0  0  0  0
M  END
>  <MODEL>
8

>  <REMARK>
 VINA RESULT:      -7.6      2.377      6.438
  Name = 
  10 active torsions:
  status: ('A' for Active; 'I' for Inactive)
    1  A    between atoms: C_3  and  N_24
    2  A    between atoms: C_4  and  C_21
    3  A    between atoms: C_6  and  C_17
    4  A    between atoms: C_6  and  C_18
    5  A    between atoms: C_9  and  C_18
    6  A    between atoms: C_10  and  C_26
    7  A    between atoms: C_14  and  C_28
    8  A    between atoms: C_16  and  C_23
    9  A    between atoms: C_17  and  C_29
   10  A    between atoms: C_21  and  C_29
                            x       y       z     vdW  Elec       q    Type
                         _______ _______ _______ _____ _____    ______ ____

>  <TORSDO>
F 10

$$$$
=
 OpenBabel11062414113D

 32 34  0  0  1  0  0  0  0  0999 V2000
  181.6670  178.8970  144.3320 N   0  0  0  0  0  0  0  0  0  0  0  0
  183.8370  179.0950  145.4630 N   0  0  0  0  0  0  0  0  0  0  0  0
  185.1970  178.9230  143.4680 C   0  0  1  0  0  3  0  0  0  0  0  0
  183.0920  178.7030  141.9370 C   0  0  0  0  0  0  0  0  0  0  0  0
  181.6850  178.6560  141.9380 C   0  0  0  0  0  3  0  0  0  0  0  0
  183.0230  178.9380  144.3220 C   0  0  0  0  0  0  0  0  0  0  0  0
  180.9870  178.7560  143.1570 C   0  0  0  0  0  3  0  0  0  0  0  0
  183.7410  178.8390  143.1680 C   0  0  0  0  0  0  0  0  0  0  0  0
  185.2270  179.1090  145.0040 C   0  0  0  0  0  3  0  0  0  0  0  0
  183.2960  178.3840  139.5510 N   0  0  0  0  0  0  0  0  0  0  0  0
  183.8650  178.6080  140.6920 C   0  0  0  0  0  3  0  0  0  0  0  0
  184.0890  178.2910  138.3370 C   0  0  2  0  0  3  0  0  0  0  0  0
  185.5980  177.5480  136.2330 O   0  0  0  0  0  0  0  0  0  0  0  0
  184.6360  176.5720  136.5650 C   0  0  0  0  0  2  0  0  0  0  0  0
  183.5380  177.1750  137.4460 C   0  0  0  0  0  2  0  0  0  0  0  0
  186.3790  177.8500  137.3830 C   0  0  1  0  0  3  0  0  0  0  0  0
  185.5590  178.0340  138.6730 C   0  0  0  0  0  2  0  0  0  0  0  0
  187.4740  176.8440  137.5930 C   0  0  0  0  0  3  0  0  0  0  0  0
  188.7760  177.1580  137.6120 C   0  0  0  0  0  0  0  0  0  0  0  0
  189.7720  176.0710  137.8310 C   0  0  0  0  0  1  0  0  0  0  0  0
  189.0920  179.2720  138.6310 O   0  0  0  0  0  1  0  0  0  0  0  0
  189.2560  178.5660  137.4400 C   0  0  0  0  0  2  0  0  0  0  0  0
  185.8820  177.6150  143.0980 C   0  0  0  0  0  2  0  0  0  0  0  0
  187.2490  177.5080  143.7590 C   0  0  0  0  0  2  0  0  0  0  0  0
  188.0830  177.6350  141.5610 O   0  0  0  0  0  0  0  0  0  0  0  0
  188.3320  177.3740  142.7280 C   0  0  0  0  0  0  0  0  0  0  0  0
  189.9680  175.6320  142.6140 O   0  0  0  0  0  1  0  0  0  0  0  0
  189.7140  176.9170  143.0990 C   0  0  2  0  0  3  0  0  0  0  0  0
  189.8880  176.9450  144.6100 C   0  0  0  0  0  2  0  0  0  0  0  0
  191.2090  177.5280  144.9710 C   0  0  0  0  0  0  0  0  0  0  0  0
  191.8400  178.4090  144.1020 O   0  0  0  0  0  0  0  0  0  0  0  0
  191.7690  177.2030  146.0490 O   0  0  0  0  0  1  0  0  0  0  0  0
  3 23  1  1  0  0  0
  3  9  1  0  0  0  0
  4  5  1  0  0  0  0
  4  8  2  0  0  0  0
  5  7  2  0  0  0  0
  6  1  2  0  0  0  0
  6  2  1  0  0  0  0
  7  1  1  0  0  0  0
  8  3  1  0  0  0  0
  8  6  1  0  0  0  0
  9  2  2  0  0  0  0
 10 11  2  0  0  0  0
 11  4  1  0  0  0  0
 12 17  1  0  0  0  0
 12 10  1  1  0  0  0
 13 14  1  0  0  0  0
 13 16  1  0  0  0  0
 14 15  1  0  0  0  0
 15 12  1  0  0  0  0
 16 18  1  1  0  0  0
 16 17  1  0  0  0  0
 18 19  2  0  0  0  0
 19 20  1  0  0  0  0
 22 19  1  0  0  0  0
 22 21  1  0  0  0  0
 23 24  1  0  0  0  0
 25 26  2  0  0  0  0
 26 28  1  0  0  0  0
 26 24  1  0  0  0  0
 28 27  1  1  0  0  0
 28 29  1  0  0  0  0
 29 30  1  0  0  0  0
 30 32  1  0  0  0  0
 31 30  2  0  0  0  0
M  END
>  <MODEL>
9

>  <REMARK>
 VINA RESULT:      -7.4      2.767      6.450
  Name = 
  10 active torsions:
  status: ('A' for Active; 'I' for Inactive)
    1  A    between atoms: C_3  and  N_24
    2  A    between atoms: C_4  and  C_21
    3  A    between atoms: C_6  and  C_17
    4  A    between atoms: C_6  and  C_18
    5  A    between atoms: C_9  and  C_18
    6  A    between atoms: C_10  and  C_26
    7  A    between atoms: C_14  and  C_28
    8  A    between atoms: C_16  and  C_23
    9  A    between atoms: C_17  and  C_29
   10  A    between atoms: C_21  and  C_29
                            x       y       z     vdW  Elec       q    Type
                         _______ _______ _______ _____ _____    ______ ____

>  <TORSDO>
F 10

$$$$
