=
 OpenBabel11062413503D

 52 57  0  0  1  0  0  0  0  0999 V2000
  185.4090  178.2800  138.0110 C   0  0  0  0  0  2  0  0  0  0  0  0
  188.3300  176.8720  137.4280 C   0  0  0  0  0  0  0  0  0  0  0  0
  187.4880  178.9410  136.7950 C   0  0  0  0  0  2  0  0  0  0  0  0
  188.7650  175.6650  137.2740 N   0  0  0  0  0  2  0  0  0  0  0  0
  186.8880  178.5860  138.1650 C   0  0  2  0  0  3  0  0  0  0  0  0
  187.6140  177.3240  138.6410 C   0  0  2  0  0  3  0  0  0  0  0  0
  188.2120  177.7650  136.3440 N   0  0  0  0  0  2  0  0  0  0  0  0
  188.5870  177.6560  139.7270 C   0  0  0  0  0  0  0  0  0  0  0  0
  189.6100  178.3360  139.4500 O   0  0  0  0  0  0  0  0  0  0  0  0
  188.3610  177.1970  141.0670 N   0  0  0  0  0  2  0  0  0  0  0  0
  189.2530  177.4580  142.1930 C   0  0  1  0  0  3  0  0  0  0  0  0
  191.1870  178.6060  143.8570 C   0  0  1  0  0  3  0  0  0  0  0  0
  188.7330  176.7850  143.4770 C   0  0  1  0  0  3  0  0  0  0  0  0
  190.6980  177.0780  141.8390 C   0  0  0  0  0  2  0  0  0  0  0  0
  189.7860  176.5650  144.5750 C   0  0  0  0  0  2  0  0  0  0  0  0
  192.1660  179.4570  144.3340 F   0  0  0  0  0  0  0  0  0  0  0  0
  191.7610  177.7000  142.7630 C   0  0  0  0  0  2  0  0  0  0  0  0
  190.5380  177.8280  145.0140 C   0  0  1  0  0  3  0  0  0  0  0  0
  191.5000  177.4700  145.9430 F   0  0  0  0  0  0  0  0  0  0  0  0
  185.5250  178.8000  143.5810 C   0  0  0  0  0  3  0  0  0  0  0  0
  187.4890  177.4370  143.9980 C   0  0  0  0  0  0  0  0  0  0  0  0
  187.1090  177.3120  145.3420 C   0  0  0  0  0  3  0  0  0  0  0  0
  186.6920  178.1820  143.1210 C   0  0  0  0  0  3  0  0  0  0  0  0
  185.1490  178.6720  144.9210 C   0  0  0  0  0  0  0  0  0  0  0  0
  183.9880  179.2820  145.3760 O   0  0  0  0  0  1  0  0  0  0  0  0
  185.9410  177.9280  145.8010 C   0  0  0  0  0  3  0  0  0  0  0  0
  184.6010  178.9960  139.0860 C   0  0  0  0  0  2  0  0  0  0  0  0
  183.4550  178.1430  139.6300 C   0  0  1  0  0  3  0  0  0  0  0  0
  183.7820  177.5360  140.9900 C   0  0  0  0  0  1  0  0  0  0  0  0
  182.0960  178.8560  139.5730 C   0  0  2  0  0  3  0  0  0  0  0  0
  181.3250  178.8180  140.8900 C   0  0  0  0  0  1  0  0  0  0  0  0
  181.2550  178.4110  138.3610 C   0  0  2  0  0  3  0  0  0  0  0  0
  178.9940  176.3950  137.4500 O   0  0  0  0  0  1  0  0  0  0  0  0
  180.7070  177.5780  135.3280 C   0  0  0  0  0  2  0  0  0  0  0  0
  181.3320  175.9320  137.6800 C   0  0  2  0  0  3  0  0  0  0  0  0
  180.0440  175.6810  136.8640 C   0  0  0  0  0  0  0  0  0  0  0  0
  179.7290  174.3210  136.8960 O   0  0  0  0  0  1  0  0  0  0  0  0
  182.0540  177.7230  136.0270 C   0  0  0  0  0  2  0  0  0  0  0  0
  180.2320  176.1310  135.4040 C   0  0  1  0  0  3  0  0  0  0  0  0
  181.9700  177.3320  137.5110 C   0  0  1  0  0  3  0  0  0  0  0  0
  178.9550  175.9680  134.5950 C   0  0  0  0  0  1  0  0  0  0  0  0
  183.5590  175.3830  137.5240 C   0  0  0  0  0  1  0  0  0  0  0  0
  182.2650  174.8690  137.6960 O   0  0  0  0  0  0  0  0  0  0  0  0
  179.1620  181.4020  137.5180 C   0  0  0  0  0  2  0  0  0  0  0  0
  181.4290  180.9080  137.9170 C   0  0  0  0  0  2  0  0  0  0  0  0
  179.2630  179.9100  137.7410 C   0  0  0  0  0  2  0  0  0  0  0  0
  180.7270  179.6180  137.5570 C   0  0  2  0  0  3  0  0  0  0  0  0
  180.4770  182.0010  137.7530 N   0  0  0  0  0  0  0  0  0  0  0  0
  180.8480  182.7080  136.5360 C   0  0  0  0  0  2  0  0  0  0  0  0
  180.0660  185.0220  136.9130 C   0  0  0  0  0  2  0  0  0  0  0  0
  181.2850  184.1230  136.8720 C   0  0  0  0  0  3  0  0  0  0  0  0
  180.9700  185.0270  135.6980 C   0  0  0  0  0  2  0  0  0  0  0  0
  1 27  1  0  0  0  0
  2  6  1  0  0  0  0
  3  5  1  0  0  0  0
  4  2  2  0  0  0  0
  5  1  1  6  0  0  0
  5  6  1  0  0  0  0
  6  8  1  1  0  0  0
  7  3  1  0  0  0  0
  7  2  1  0  0  0  0
  8 10  1  0  0  0  0
  9  8  2  0  0  0  0
 11 10  1  6  0  0  0
 11 13  1  0  0  0  0
 12 16  1  1  0  0  0
 12 18  1  0  0  0  0
 13 21  1  1  0  0  0
 13 15  1  0  0  0  0
 14 11  1  0  0  0  0
 14 17  1  0  0  0  0
 15 18  1  0  0  0  0
 17 12  1  0  0  0  0
 18 19  1  1  0  0  0
 20 24  1  0  0  0  0
 21 22  2  0  0  0  0
 22 26  1  0  0  0  0
 23 20  2  0  0  0  0
 23 21  1  0  0  0  0
 24 25  1  0  0  0  0
 24 26  2  0  0  0  0
 27 28  1  0  0  0  0
 28 29  1  1  0  0  0
 30 28  1  0  0  0  0
 30 31  1  1  0  0  0
 32 30  1  1  0  0  0
 34 39  1  0  0  0  0
 34 38  1  0  0  0  0
 35 43  1  6  0  0  0
 36 37  1  0  0  0  0
 36 33  1  0  0  0  0
 36 35  1  0  0  0  0
 38 40  1  0  0  0  0
 39 41  1  6  0  0  0
 39 36  1  0  0  0  0
 40 35  1  0  0  0  0
 40 32  1  1  0  0  0
 42 43  1  0  0  0  0
 44 46  1  0  0  0  0
 44 48  1  0  0  0  0
 47 46  1  0  0  0  0
 47 45  1  0  0  0  0
 47 32  1  1  0  0  0
 48 45  1  0  0  0  0
 49 51  1  0  0  0  0
 49 48  1  0  0  0  0
 51 50  1  0  0  0  0
 52 51  1  0  0  0  0
 52 50  1  0  0  0  0
M  END
>  <MODEL>
1

>  <REMARK>
 VINA RESULT:      -8.5      0.000      0.000
  Name = 
  13 active torsions:
  status: ('A' for Active; 'I' for Inactive)
    1  A    between atoms: C_1  and  C_45
    2  A    between atoms: C_1  and  C_47
    3  A    between atoms: C_2  and  N_51
    4  A    between atoms: C_8  and  C_49
    5  A    between atoms: C_9  and  C_13
    6  A    between atoms: C_10  and  C_14
    7  A    between atoms: C_10  and  C_43
    8  A    between atoms: C_14  and  C_47
    9  A    between atoms: C_16  and  O_35
   10  A    between atoms: C_22  and  C_43
   11  A    between atoms: N_26  and  C_28
   12  A    between atoms: C_28  and  C_46
   13  A    between atoms: C_33  and  C_43
                            x       y       z     vdW  Elec       q    Type
                         _______ _______ _______ _____ _____    ______ ____

>  <TORSDO>
F 13

$$$$
=
 OpenBabel11062413503D

 52 57  0  0  1  0  0  0  0  0999 V2000
  186.0980  177.6990  137.3530 C   0  0  0  0  0  2  0  0  0  0  0  0
  189.1910  176.5640  137.2520 C   0  0  0  0  0  0  0  0  0  0  0  0
  188.2680  178.5330  136.4380 C   0  0  0  0  0  2  0  0  0  0  0  0
  189.7520  175.4020  137.2020 N   0  0  0  0  0  2  0  0  0  0  0  0
  187.5040  178.1460  137.7150 C   0  0  2  0  0  3  0  0  0  0  0  0
  188.2620  176.9670  138.3320 C   0  0  2  0  0  3  0  0  0  0  0  0
  189.1560  177.4240  136.1350 N   0  0  0  0  0  2  0  0  0  0  0  0
  189.0270  177.4080  139.5390 C   0  0  0  0  0  0  0  0  0  0  0  0
  190.0390  178.1430  139.3920 O   0  0  0  0  0  0  0  0  0  0  0  0
  188.6150  176.9920  140.8490 N   0  0  0  0  0  2  0  0  0  0  0  0
  189.2980  177.3580  142.0860 C   0  0  1  0  0  3  0  0  0  0  0  0
  190.9640  178.6250  143.9420 C   0  0  1  0  0  3  0  0  0  0  0  0
  188.4990  176.8890  143.3160 C   0  0  1  0  0  3  0  0  0  0  0  0
  190.7520  176.8660  142.0690 C   0  0  0  0  0  2  0  0  0  0  0  0
  189.3090  176.7690  144.6170 C   0  0  0  0  0  2  0  0  0  0  0  0
  191.8950  179.4850  144.4920 F   0  0  0  0  0  0  0  0  0  0  0  0
  191.6660  177.5540  143.1000 C   0  0  0  0  0  2  0  0  0  0  0  0
  190.0550  178.0420  145.0370 C   0  0  1  0  0  3  0  0  0  0  0  0
  190.7980  177.7660  146.1710 F   0  0  0  0  0  0  0  0  0  0  0  0
  185.4290  178.9670  142.5280 C   0  0  0  0  0  3  0  0  0  0  0  0
  187.2300  177.6640  143.5020 C   0  0  0  0  0  0  0  0  0  0  0  0
  186.6480  177.8190  144.7680 C   0  0  0  0  0  3  0  0  0  0  0  0
  186.6150  178.2400  142.3840 C   0  0  0  0  0  3  0  0  0  0  0  0
  184.8530  179.1190  143.7920 C   0  0  0  0  0  0  0  0  0  0  0  0
  183.6730  179.8360  143.9340 O   0  0  0  0  0  1  0  0  0  0  0  0
  185.4630  178.5440  144.9110 C   0  0  0  0  0  3  0  0  0  0  0  0
  185.1520  177.9110  138.5270 C   0  0  0  0  0  2  0  0  0  0  0  0
  183.7260  178.2380  138.0830 C   0  0  1  0  0  3  0  0  0  0  0  0
  183.3610  177.5610  136.7660 C   0  0  0  0  0  1  0  0  0  0  0  0
  182.6890  178.0360  139.1990 C   0  0  2  0  0  3  0  0  0  0  0  0
  183.2150  177.2420  140.3920 C   0  0  0  0  0  1  0  0  0  0  0  0
  181.3470  177.5050  138.6570 C   0  0  2  0  0  3  0  0  0  0  0  0
  181.7280  180.4940  137.6980 O   0  0  0  0  0  1  0  0  0  0  0  0
  179.1420  179.1730  137.0630 C   0  0  0  0  0  2  0  0  0  0  0  0
  180.4980  179.7380  139.6070 C   0  0  2  0  0  3  0  0  0  0  0  0
  180.5680  180.7450  138.4370 C   0  0  0  0  0  0  0  0  0  0  0  0
  180.6370  182.0450  138.9440 O   0  0  0  0  0  1  0  0  0  0  0  0
  178.9310  178.2550  138.2620 C   0  0  0  0  0  2  0  0  0  0  0  0
  179.3300  180.6120  137.5320 C   0  0  1  0  0  3  0  0  0  0  0  0
  180.1330  178.2850  139.2180 C   0  0  1  0  0  3  0  0  0  0  0  0
  179.4100  181.5360  136.3290 C   0  0  0  0  0  1  0  0  0  0  0  0
  180.3250  179.4810  141.8850 C   0  0  0  0  0  1  0  0  0  0  0  0
  179.8540  180.2030  140.7780 O   0  0  0  0  0  0  0  0  0  0  0  0
  179.7980  174.1450  139.2430 C   0  0  0  0  0  2  0  0  0  0  0  0
  180.8670  175.2970  137.4920 C   0  0  0  0  0  2  0  0  0  0  0  0
  180.2250  175.4890  139.7870 C   0  0  0  0  0  2  0  0  0  0  0  0
  181.2440  175.9700  138.7910 C   0  0  2  0  0  3  0  0  0  0  0  0
  180.0910  174.1040  137.8100 N   0  0  0  0  0  0  0  0  0  0  0  0
  180.9620  172.9590  137.5850 C   0  0  0  0  0  2  0  0  0  0  0  0
  182.3710  172.1180  135.7360 C   0  0  0  0  0  2  0  0  0  0  0  0
  182.0540  173.3260  136.5960 C   0  0  0  0  0  3  0  0  0  0  0  0
  183.2830  172.4890  136.8870 C   0  0  0  0  0  2  0  0  0  0  0  0
  1 27  1  0  0  0  0
  2  6  1  0  0  0  0
  3  5  1  0  0  0  0
  4  2  2  0  0  0  0
  5  1  1  6  0  0  0
  5  6  1  0  0  0  0
  6  8  1  1  0  0  0
  7  3  1  0  0  0  0
  7  2  1  0  0  0  0
  8 10  1  0  0  0  0
  9  8  2  0  0  0  0
 11 10  1  6  0  0  0
 11 13  1  0  0  0  0
 12 16  1  1  0  0  0
 12 18  1  0  0  0  0
 13 21  1  1  0  0  0
 13 15  1  0  0  0  0
 14 11  1  0  0  0  0
 14 17  1  0  0  0  0
 15 18  1  0  0  0  0
 17 12  1  0  0  0  0
 18 19  1  1  0  0  0
 20 24  1  0  0  0  0
 21 22  2  0  0  0  0
 22 26  1  0  0  0  0
 23 20  2  0  0  0  0
 23 21  1  0  0  0  0
 24 25  1  0  0  0  0
 24 26  2  0  0  0  0
 28 29  1  6  0  0  0
 28 27  1  0  0  0  0
 28 30  1  0  0  0  0
 30 31  1  1  0  0  0
 32 30  1  1  0  0  0
 33 36  1  0  0  0  0
 34 39  1  0  0  0  0
 34 38  1  0  0  0  0
 35 43  1  1  0  0  0
 36 37  1  0  0  0  0
 36 35  1  0  0  0  0
 38 40  1  0  0  0  0
 39 41  1  6  0  0  0
 39 36  1  0  0  0  0
 40 32  1  6  0  0  0
 40 35  1  0  0  0  0
 43 42  1  0  0  0  0
 44 46  1  0  0  0  0
 45 48  1  0  0  0  0
 45 47  1  0  0  0  0
 47 32  1  6  0  0  0
 47 46  1  0  0  0  0
 48 44  1  0  0  0  0
 49 48  1  0  0  0  0
 50 51  1  0  0  0  0
 50 52  1  0  0  0  0
 51 52  1  0  0  0  0
 51 49  1  0  0  0  0
M  END
>  <MODEL>
2

>  <REMARK>
 VINA RESULT:      -8.5      2.267      4.610
  Name = 
  13 active torsions:
  status: ('A' for Active; 'I' for Inactive)
    1  A    between atoms: C_1  and  C_45
    2  A    between atoms: C_1  and  C_47
    3  A    between atoms: C_2  and  N_51
    4  A    between atoms: C_8  and  C_49
    5  A    between atoms: C_9  and  C_13
    6  A    between atoms: C_10  and  C_14
    7  A    between atoms: C_10  and  C_43
    8  A    between atoms: C_14  and  C_47
    9  A    between atoms: C_16  and  O_35
   10  A    between atoms: C_22  and  C_43
   11  A    between atoms: N_26  and  C_28
   12  A    between atoms: C_28  and  C_46
   13  A    between atoms: C_33  and  C_43
                            x       y       z     vdW  Elec       q    Type
                         _______ _______ _______ _____ _____    ______ ____

>  <TORSDO>
F 13

$$$$
=
 OpenBabel11062413503D

 52 57  0  0  1  0  0  0  0  0999 V2000
  185.8060  177.2030  137.4110 C   0  0  0  0  0  2  0  0  0  0  0  0
  189.0650  177.2260  136.9290 C   0  0  0  0  0  0  0  0  0  0  0  0
  187.4620  178.8600  136.5440 C   0  0  0  0  0  2  0  0  0  0  0  0
  189.9660  176.3480  136.6340 N   0  0  0  0  0  2  0  0  0  0  0  0
  187.0190  178.0430  137.7690 C   0  0  2  0  0  3  0  0  0  0  0  0
  188.1870  177.1140  138.1150 C   0  0  2  0  0  3  0  0  0  0  0  0
  188.6230  178.1830  135.9940 N   0  0  0  0  0  2  0  0  0  0  0  0
  188.8990  177.5980  139.3380 C   0  0  0  0  0  0  0  0  0  0  0  0
  189.7280  178.5410  139.2350 O   0  0  0  0  0  0  0  0  0  0  0  0
  188.6450  176.9900  140.6120 N   0  0  0  0  0  2  0  0  0  0  0  0
  189.2940  177.3810  141.8590 C   0  0  1  0  0  3  0  0  0  0  0  0
  190.8940  178.7000  143.7380 C   0  0  1  0  0  3  0  0  0  0  0  0
  188.4800  176.9070  143.0770 C   0  0  1  0  0  3  0  0  0  0  0  0
  190.7580  176.9190  141.8780 C   0  0  0  0  0  2  0  0  0  0  0  0
  189.2640  176.8160  144.3960 C   0  0  0  0  0  2  0  0  0  0  0  0
  191.7960  179.5840  144.3000 F   0  0  0  0  0  0  0  0  0  0  0  0
  191.6360  177.6360  142.9210 C   0  0  0  0  0  2  0  0  0  0  0  0
  189.9750  178.1080  144.8190 C   0  0  1  0  0  3  0  0  0  0  0  0
  190.6990  177.8570  145.9710 F   0  0  0  0  0  0  0  0  0  0  0  0
  185.3100  178.2980  144.6220 C   0  0  0  0  0  3  0  0  0  0  0  0
  187.1910  177.6570  143.2290 C   0  0  0  0  0  0  0  0  0  0  0  0
  186.6560  178.4070  142.1720 C   0  0  0  0  0  3  0  0  0  0  0  0
  186.5140  177.6070  144.4520 C   0  0  0  0  0  3  0  0  0  0  0  0
  184.7800  179.0450  143.5660 C   0  0  0  0  0  0  0  0  0  0  0  0
  183.5870  179.7350  143.7350 O   0  0  0  0  0  1  0  0  0  0  0  0
  185.4530  179.0990  142.3410 C   0  0  0  0  0  3  0  0  0  0  0  0
  184.5700  177.7100  138.1430 C   0  0  0  0  0  2  0  0  0  0  0  0
  183.3110  177.6630  137.2780 C   0  0  1  0  0  3  0  0  0  0  0  0
  183.5030  176.8140  136.0250 C   0  0  0  0  0  1  0  0  0  0  0  0
  182.0450  177.3200  138.0780 C   0  0  2  0  0  3  0  0  0  0  0  0
  181.2440  176.1590  137.4960 C   0  0  0  0  0  1  0  0  0  0  0  0
  181.1870  178.5670  138.3720 C   0  0  2  0  0  3  0  0  0  0  0  0
  181.6700  178.7700  141.4900 O   0  0  0  0  0  1  0  0  0  0  0  0
  179.4100  180.3300  140.3520 C   0  0  0  0  0  2  0  0  0  0  0  0
  180.0120  177.4540  140.3700 C   0  0  2  0  0  3  0  0  0  0  0  0
  180.3450  178.3360  141.5950 C   0  0  0  0  0  0  0  0  0  0  0  0
  180.2160  177.5800  142.7630 O   0  0  0  0  0  1  0  0  0  0  0  0
  178.9310  179.4410  139.2100 C   0  0  0  0  0  2  0  0  0  0  0  0
  179.4000  179.5490  141.6620 C   0  0  1  0  0  3  0  0  0  0  0  0
  179.8330  178.2100  139.0320 C   0  0  1  0  0  3  0  0  0  0  0  0
  179.7530  180.4760  142.8130 C   0  0  0  0  0  1  0  0  0  0  0  0
  179.6960  175.1830  140.5270 C   0  0  0  0  0  1  0  0  0  0  0  0
  179.0600  176.4320  140.5910 O   0  0  0  0  0  0  0  0  0  0  0  0
  179.6350  180.3360  135.4570 C   0  0  0  0  0  2  0  0  0  0  0  0
  180.6630  180.8960  137.4990 C   0  0  0  0  0  2  0  0  0  0  0  0
  180.0850  179.0450  136.1010 C   0  0  0  0  0  2  0  0  0  0  0  0
  181.0790  179.4890  137.1380 C   0  0  2  0  0  3  0  0  0  0  0  0
  179.8890  181.4380  136.3870 N   0  0  0  0  0  0  0  0  0  0  0  0
  180.7470  182.3900  135.6970 C   0  0  0  0  0  2  0  0  0  0  0  0
  181.1150  184.8340  135.7430 C   0  0  0  0  0  2  0  0  0  0  0  0
  180.0670  183.7450  135.6290 C   0  0  0  0  0  3  0  0  0  0  0  0
  180.2710  184.4660  136.9450 C   0  0  0  0  0  2  0  0  0  0  0  0
  1 27  1  0  0  0  0
  2  6  1  0  0  0  0
  3  5  1  0  0  0  0
  4  2  2  0  0  0  0
  5  1  1  6  0  0  0
  5  6  1  0  0  0  0
  6  8  1  1  0  0  0
  7  3  1  0  0  0  0
  7  2  1  0  0  0  0
  8 10  1  0  0  0  0
  9  8  2  0  0  0  0
 11 10  1  6  0  0  0
 11 14  1  0  0  0  0
 11 13  1  0  0  0  0
 12 16  1  1  0  0  0
 12 18  1  0  0  0  0
 13 21  1  1  0  0  0
 13 15  1  0  0  0  0
 14 17  1  0  0  0  0
 15 18  1  0  0  0  0
 17 12  1  0  0  0  0
 18 19  1  1  0  0  0
 21 23  2  0  0  0  0
 22 26  2  0  0  0  0
 22 21  1  0  0  0  0
 23 20  1  0  0  0  0
 24 25  1  0  0  0  0
 24 20  2  0  0  0  0
 26 24  1  0  0  0  0
 28 29  1  6  0  0  0
 28 30  1  0  0  0  0
 28 27  1  0  0  0  0
 30 31  1  6  0  0  0
 32 30  1  6  0  0  0
 33 36  1  0  0  0  0
 34 39  1  0  0  0  0
 35 43  1  1  0  0  0
 35 36  1  0  0  0  0
 36 39  1  0  0  0  0
 36 37  1  0  0  0  0
 38 34  1  0  0  0  0
 39 41  1  1  0  0  0
 40 32  1  1  0  0  0
 40 38  1  0  0  0  0
 40 35  1  0  0  0  0
 42 43  1  0  0  0  0
 44 46  1  0  0  0  0
 44 48  1  0  0  0  0
 46 47  1  0  0  0  0
 47 45  1  0  0  0  0
 47 32  1  1  0  0  0
 48 45  1  0  0  0  0
 49 48  1  0  0  0  0
 50 52  1  0  0  0  0
 51 49  1  0  0  0  0
 51 50  1  0  0  0  0
 51 52  1  0  0  0  0
M  END
>  <MODEL>
3

>  <REMARK>
 VINA RESULT:      -8.5      1.618      3.064
  Name = 
  13 active torsions:
  status: ('A' for Active; 'I' for Inactive)
    1  A    between atoms: C_1  and  C_45
    2  A    between atoms: C_1  and  C_47
    3  A    between atoms: C_2  and  N_51
    4  A    between atoms: C_8  and  C_49
    5  A    between atoms: C_9  and  C_13
    6  A    between atoms: C_10  and  C_14
    7  A    between atoms: C_10  and  C_43
    8  A    between atoms: C_14  and  C_47
    9  A    between atoms: C_16  and  O_35
   10  A    between atoms: C_22  and  C_43
   11  A    between atoms: N_26  and  C_28
   12  A    between atoms: C_28  and  C_46
   13  A    between atoms: C_33  and  C_43
                            x       y       z     vdW  Elec       q    Type
                         _______ _______ _______ _____ _____    ______ ____

>  <TORSDO>
F 13

$$$$
=
 OpenBabel11062413503D

 52 57  0  0  1  0  0  0  0  0999 V2000
  183.1920  179.3880  139.2970 C   0  0  0  0  0  2  0  0  0  0  0  0
  184.2520  178.9070  142.3790 C   0  0  0  0  0  0  0  0  0  0  0  0
  183.1820  177.4730  140.9000 C   0  0  0  0  0  2  0  0  0  0  0  0
  184.3990  179.6370  143.4350 N   0  0  0  0  0  2  0  0  0  0  0  0
  184.0670  178.4250  140.0790 C   0  0  2  0  0  3  0  0  0  0  0  0
  184.9050  179.2160  141.0880 C   0  0  2  0  0  3  0  0  0  0  0  0
  183.2200  177.9530  142.2710 N   0  0  0  0  0  2  0  0  0  0  0  0
  186.3200  178.7290  141.0910 C   0  0  0  0  0  0  0  0  0  0  0  0
  186.9670  178.7100  140.0100 O   0  0  0  0  0  0  0  0  0  0  0  0
  186.9280  178.2820  142.3110 N   0  0  0  0  0  2  0  0  0  0  0  0
  188.2950  177.7800  142.4180 C   0  0  1  0  0  3  0  0  0  0  0  0
  191.0830  177.5830  142.3070 C   0  0  1  0  0  3  0  0  0  0  0  0
  188.3840  176.6350  143.4430 C   0  0  1  0  0  3  0  0  0  0  0  0
  188.8480  177.4130  141.0330 C   0  0  0  0  0  2  0  0  0  0  0  0
  189.6080  175.7170  143.2980 C   0  0  0  0  0  2  0  0  0  0  0  0
  192.4110  177.8990  142.0870 F   0  0  0  0  0  0  0  0  0  0  0  0
  190.3820  177.2920  140.9760 C   0  0  0  0  0  2  0  0  0  0  0  0
  190.9630  176.4350  143.3230 C   0  0  1  0  0  3  0  0  0  0  0  0
  191.9620  175.5020  143.1040 F   0  0  0  0  0  0  0  0  0  0  0  0
  189.1590  177.7250  146.9900 C   0  0  0  0  0  3  0  0  0  0  0  0
  188.1900  177.1130  144.8500 C   0  0  0  0  0  0  0  0  0  0  0  0
  186.9140  177.3990  145.3540 C   0  0  0  0  0  3  0  0  0  0  0  0
  189.3110  177.2780  145.6730 C   0  0  0  0  0  3  0  0  0  0  0  0
  187.8850  178.0090  147.4870 C   0  0  0  0  0  0  0  0  0  0  0  0
  187.7350  178.4570  148.7930 O   0  0  0  0  0  1  0  0  0  0  0  0
  186.7620  177.8470  146.6690 C   0  0  0  0  0  3  0  0  0  0  0  0
  183.1590  179.0050  137.8230 C   0  0  0  0  0  2  0  0  0  0  0  0
  182.2130  177.8380  137.5380 C   0  0  1  0  0  3  0  0  0  0  0  0
  180.7640  178.1750  137.8750 C   0  0  0  0  0  1  0  0  0  0  0  0
  182.4060  177.2370  136.1380 C   0  0  2  0  0  3  0  0  0  0  0  0
  181.1250  177.1780  135.3110 C   0  0  0  0  0  1  0  0  0  0  0  0
  183.1670  175.8970  136.1800 C   0  0  2  0  0  3  0  0  0  0  0  0
  181.8290  173.2440  135.0950 O   0  0  0  0  0  1  0  0  0  0  0  0
  184.1390  172.9530  136.9440 C   0  0  0  0  0  2  0  0  0  0  0  0
  181.5150  174.2410  137.2490 C   0  0  2  0  0  3  0  0  0  0  0  0
  181.6590  172.9280  136.4470 C   0  0  0  0  0  0  0  0  0  0  0  0
  180.4950  172.1680  136.5820 O   0  0  0  0  0  1  0  0  0  0  0  0
  183.9790  174.1530  137.8710 C   0  0  0  0  0  2  0  0  0  0  0  0
  182.8650  172.1150  136.9500 C   0  0  1  0  0  3  0  0  0  0  0  0
  182.8160  175.0580  137.4340 C   0  0  1  0  0  3  0  0  0  0  0  0
  183.0780  170.8550  136.1270 C   0  0  0  0  0  1  0  0  0  0  0  0
  179.5550  174.9400  138.2250 C   0  0  0  0  0  1  0  0  0  0  0  0
  180.7100  174.1640  138.4090 O   0  0  0  0  0  0  0  0  0  0  0  0
  186.3540  177.5790  135.1580 C   0  0  0  0  0  2  0  0  0  0  0  0
  185.3820  176.7160  137.1200 C   0  0  0  0  0  2  0  0  0  0  0  0
  185.0240  176.9730  134.7700 C   0  0  0  0  0  2  0  0  0  0  0  0
  184.6790  176.0900  135.9370 C   0  0  2  0  0  3  0  0  0  0  0  0
  186.4910  177.5180  136.6140 N   0  0  0  0  0  0  0  0  0  0  0  0
  187.7130  176.7800  136.8980 C   0  0  0  0  0  2  0  0  0  0  0  0
  190.0790  177.3630  137.3110 C   0  0  0  0  0  2  0  0  0  0  0  0
  188.9130  177.5370  136.3580 C   0  0  0  0  0  3  0  0  0  0  0  0
  189.2720  178.6450  137.3270 C   0  0  0  0  0  2  0  0  0  0  0  0
  2  4  2  0  0  0  0
  3  7  1  0  0  0  0
  5  1  1  1  0  0  0
  5  3  1  0  0  0  0
  5  6  1  0  0  0  0
  6  8  1  1  0  0  0
  6  2  1  0  0  0  0
  7  2  1  0  0  0  0
  8 10  1  0  0  0  0
  9  8  2  0  0  0  0
 11 10  1  6  0  0  0
 11 13  1  0  0  0  0
 12 16  1  6  0  0  0
 12 18  1  0  0  0  0
 13 21  1  1  0  0  0
 14 11  1  0  0  0  0
 15 18  1  0  0  0  0
 15 13  1  0  0  0  0
 17 14  1  0  0  0  0
 17 12  1  0  0  0  0
 18 19  1  6  0  0  0
 20 24  1  0  0  0  0
 21 22  2  0  0  0  0
 21 23  1  0  0  0  0
 22 26  1  0  0  0  0
 23 20  2  0  0  0  0
 24 25  1  0  0  0  0
 26 24  2  0  0  0  0
 27  1  1  0  0  0  0
 28 27  1  0  0  0  0
 28 29  1  6  0  0  0
 30 31  1  1  0  0  0
 30 28  1  0  0  0  0
 32 30  1  1  0  0  0
 33 36  1  0  0  0  0
 34 39  1  0  0  0  0
 34 38  1  0  0  0  0
 35 40  1  0  0  0  0
 35 43  1  1  0  0  0
 36 37  1  0  0  0  0
 36 39  1  0  0  0  0
 36 35  1  0  0  0  0
 39 41  1  6  0  0  0
 40 32  1  6  0  0  0
 40 38  1  0  0  0  0
 42 43  1  0  0  0  0
 44 48  1  0  0  0  0
 46 44  1  0  0  0  0
 46 47  1  0  0  0  0
 47 32  1  1  0  0  0
 47 45  1  0  0  0  0
 48 49  1  0  0  0  0
 48 45  1  0  0  0  0
 50 52  1  0  0  0  0
 51 49  1  0  0  0  0
 51 50  1  0  0  0  0
 51 52  1  0  0  0  0
M  END
>  <MODEL>
4

>  <REMARK>
 VINA RESULT:      -8.4      2.665      5.160
  Name = 
  13 active torsions:
  status: ('A' for Active; 'I' for Inactive)
    1  A    between atoms: C_1  and  C_45
    2  A    between atoms: C_1  and  C_47
    3  A    between atoms: C_2  and  N_51
    4  A    between atoms: C_8  and  C_49
    5  A    between atoms: C_9  and  C_13
    6  A    between atoms: C_10  and  C_14
    7  A    between atoms: C_10  and  C_43
    8  A    between atoms: C_14  and  C_47
    9  A    between atoms: C_16  and  O_35
   10  A    between atoms: C_22  and  C_43
   11  A    between atoms: N_26  and  C_28
   12  A    between atoms: C_28  and  C_46
   13  A    between atoms: C_33  and  C_43
                            x       y       z     vdW  Elec       q    Type
                         _______ _______ _______ _____ _____    ______ ____

>  <TORSDO>
F 13

$$$$
=
 OpenBabel11062413503D

 52 57  0  0  1  0  0  0  0  0999 V2000
  190.5570  176.1680  140.1090 C   0  0  0  0  0  2  0  0  0  0  0  0
  191.4790  176.2300  143.2730 C   0  0  0  0  0  0  0  0  0  0  0  0
  191.4070  177.9170  141.6780 C   0  0  0  0  0  2  0  0  0  0  0  0
  192.0150  175.3960  144.1000 N   0  0  0  0  0  2  0  0  0  0  0  0
  190.2580  176.9380  141.3830 C   0  0  2  0  0  3  0  0  0  0  0  0
  190.2100  175.9600  142.5610 C   0  0  2  0  0  3  0  0  0  0  0  0
  192.2020  177.3140  142.7330 N   0  0  0  0  0  2  0  0  0  0  0  0
  189.0420  176.2610  143.4460 C   0  0  0  0  0  0  0  0  0  0  0  0
  188.0850  175.4440  143.5020 O   0  0  0  0  0  0  0  0  0  0  0  0
  189.0110  177.4710  144.2160 N   0  0  0  0  0  2  0  0  0  0  0  0
  187.9170  177.8610  145.0990 C   0  0  1  0  0  3  0  0  0  0  0  0
  186.3600  179.2300  146.9790 C   0  0  1  0  0  3  0  0  0  0  0  0
  186.5810  177.2610  144.6220 C   0  0  1  0  0  3  0  0  0  0  0  0
  188.2550  177.5320  146.5600 C   0  0  0  0  0  2  0  0  0  0  0  0
  185.4790  177.1790  145.6900 C   0  0  0  0  0  2  0  0  0  0  0  0
  185.9570  180.1640  147.9150 F   0  0  0  0  0  0  0  0  0  0  0  0
  187.3890  178.2750  147.5940 C   0  0  0  0  0  2  0  0  0  0  0  0
  185.1430  178.5090  146.3780 C   0  0  1  0  0  3  0  0  0  0  0  0
  184.1990  178.2710  147.3620 F   0  0  0  0  0  0  0  0  0  0  0  0
  184.2790  178.8540  142.0660 C   0  0  0  0  0  3  0  0  0  0  0  0
  186.0990  177.8860  143.3480 C   0  0  0  0  0  0  0  0  0  0  0  0
  186.9650  178.0950  142.2650 C   0  0  0  0  0  3  0  0  0  0  0  0
  184.7560  178.2670  143.2430 C   0  0  0  0  0  3  0  0  0  0  0  0
  185.1460  179.0610  140.9900 C   0  0  0  0  0  0  0  0  0  0  0  0
  184.6740  179.6470  139.8230 O   0  0  0  0  0  1  0  0  0  0  0  0
  186.4880  178.6820  141.0900 C   0  0  0  0  0  3  0  0  0  0  0  0
  190.5410  177.1000  138.9050 C   0  0  0  0  0  2  0  0  0  0  0  0
  189.8210  176.4950  137.7000 C   0  0  1  0  0  3  0  0  0  0  0  0
  188.5870  177.2970  137.3010 C   0  0  0  0  0  1  0  0  0  0  0  0
  190.7680  176.1800  136.5320 C   0  0  2  0  0  3  0  0  0  0  0  0
  190.3970  176.8880  135.2310 C   0  0  0  0  0  1  0  0  0  0  0  0
  190.9950  174.6650  136.3580 C   0  0  2  0  0  3  0  0  0  0  0  0
  193.4860  175.2150  138.2280 O   0  0  0  0  0  1  0  0  0  0  0  0
  193.3180  172.5490  136.9230 C   0  0  0  0  0  2  0  0  0  0  0  0
  193.4370  175.2760  135.8350 C   0  0  2  0  0  3  0  0  0  0  0  0
  194.2440  174.8960  137.0970 C   0  0  0  0  0  0  0  0  0  0  0  0
  195.4290  175.6350  137.1340 O   0  0  0  0  0  1  0  0  0  0  0  0
  192.6520  172.8710  135.5890 C   0  0  0  0  0  2  0  0  0  0  0  0
  194.5760  173.3930  137.0960 C   0  0  1  0  0  3  0  0  0  0  0  0
  192.2440  174.3500  135.4990 C   0  0  1  0  0  3  0  0  0  0  0  0
  195.3020  172.9750  138.3640 C   0  0  0  0  0  1  0  0  0  0  0  0
  194.4940  177.0330  134.7960 C   0  0  0  0  0  1  0  0  0  0  0  0
  194.2040  175.6630  134.7110 O   0  0  0  0  0  0  0  0  0  0  0  0
  188.7700  171.8750  135.2210 C   0  0  0  0  0  2  0  0  0  0  0  0
  188.9570  173.3220  137.0680 C   0  0  0  0  0  2  0  0  0  0  0  0
  189.9180  172.8160  134.9380 C   0  0  0  0  0  2  0  0  0  0  0  0
  189.7060  173.9420  135.9110 C   0  0  2  0  0  3  0  0  0  0  0  0
  188.2810  172.1250  136.5780 N   0  0  0  0  0  0  0  0  0  0  0  0
  186.8660  172.4500  136.4700 C   0  0  0  0  0  2  0  0  0  0  0  0
  185.2890  174.0170  137.5510 C   0  0  0  0  0  2  0  0  0  0  0  0
  186.6360  173.8980  136.8650 C   0  0  0  0  0  3  0  0  0  0  0  0
  185.4410  174.4320  136.1020 C   0  0  0  0  0  2  0  0  0  0  0  0
  2  4  2  0  0  0  0
  3  7  1  0  0  0  0
  5  1  1  6  0  0  0
  5  3  1  0  0  0  0
  5  6  1  0  0  0  0
  6  2  1  0  0  0  0
  6  8  1  1  0  0  0
  7  2  1  0  0  0  0
  8  9  2  0  0  0  0
  8 10  1  0  0  0  0
 11 10  1  6  0  0  0
 11 14  1  0  0  0  0
 12 17  1  0  0  0  0
 12 16  1  1  0  0  0
 13 21  1  6  0  0  0
 13 11  1  0  0  0  0
 13 15  1  0  0  0  0
 14 17  1  0  0  0  0
 15 18  1  0  0  0  0
 18 12  1  0  0  0  0
 18 19  1  1  0  0  0
 20 23  1  0  0  0  0
 22 21  1  0  0  0  0
 23 21  2  0  0  0  0
 24 26  1  0  0  0  0
 24 20  2  0  0  0  0
 25 24  1  0  0  0  0
 26 22  2  0  0  0  0
 27  1  1  0  0  0  0
 28 29  1  6  0  0  0
 28 27  1  0  0  0  0
 30 31  1  6  0  0  0
 30 28  1  0  0  0  0
 32 30  1  6  0  0  0
 34 39  1  0  0  0  0
 35 43  1  6  0  0  0
 35 36  1  0  0  0  0
 36 37  1  0  0  0  0
 36 33  1  0  0  0  0
 38 34  1  0  0  0  0
 39 36  1  0  0  0  0
 39 41  1  1  0  0  0
 40 38  1  0  0  0  0
 40 35  1  0  0  0  0
 40 32  1  1  0  0  0
 43 42  1  0  0  0  0
 44 48  1  0  0  0  0
 46 44  1  0  0  0  0
 46 47  1  0  0  0  0
 47 32  1  1  0  0  0
 47 45  1  0  0  0  0
 48 45  1  0  0  0  0
 49 48  1  0  0  0  0
 49 51  1  0  0  0  0
 51 50  1  0  0  0  0
 52 51  1  0  0  0  0
 52 50  1  0  0  0  0
M  END
>  <MODEL>
5

>  <REMARK>
 VINA RESULT:      -7.2      4.856      9.304
  Name = 
  13 active torsions:
  status: ('A' for Active; 'I' for Inactive)
    1  A    between atoms: C_1  and  C_45
    2  A    between atoms: C_1  and  C_47
    3  A    between atoms: C_2  and  N_51
    4  A    between atoms: C_8  and  C_49
    5  A    between atoms: C_9  and  C_13
    6  A    between atoms: C_10  and  C_14
    7  A    between atoms: C_10  and  C_43
    8  A    between atoms: C_14  and  C_47
    9  A    between atoms: C_16  and  O_35
   10  A    between atoms: C_22  and  C_43
   11  A    between atoms: N_26  and  C_28
   12  A    between atoms: C_28  and  C_46
   13  A    between atoms: C_33  and  C_43
                            x       y       z     vdW  Elec       q    Type
                         _______ _______ _______ _____ _____    ______ ____

>  <TORSDO>
F 13

$$$$
=
 OpenBabel11062413503D

 52 57  0  0  1  0  0  0  0  0999 V2000
  186.4070  179.0840  141.7280 C   0  0  0  0  0  2  0  0  0  0  0  0
  189.3610  178.1640  142.8620 C   0  0  0  0  0  0  0  0  0  0  0  0
  187.2490  177.2670  143.2210 C   0  0  0  0  0  2  0  0  0  0  0  0
  190.4680  178.7600  143.1590 N   0  0  0  0  0  2  0  0  0  0  0  0
  187.2820  177.8450  141.7960 C   0  0  2  0  0  3  0  0  0  0  0  0
  188.7350  178.2420  141.5230 C   0  0  2  0  0  3  0  0  0  0  0  0
  188.4950  177.6630  143.8550 N   0  0  0  0  0  2  0  0  0  0  0  0
  189.3800  177.2660  140.5900 C   0  0  0  0  0  0  0  0  0  0  0  0
  189.9270  176.2340  141.0610 O   0  0  0  0  0  0  0  0  0  0  0  0
  189.3800  177.5090  139.1760 N   0  0  0  0  0  2  0  0  0  0  0  0
  189.9890  176.6270  138.1860 C   0  0  1  0  0  3  0  0  0  0  0  0
  191.3460  174.4970  136.9830 C   0  0  1  0  0  3  0  0  0  0  0  0
  189.3710  176.8510  136.7930 C   0  0  1  0  0  3  0  0  0  0  0  0
  191.5190  176.7570  138.2100 C   0  0  0  0  0  2  0  0  0  0  0  0
  190.2260  176.3680  135.6100 C   0  0  0  0  0  2  0  0  0  0  0  0
  192.0520  173.3200  136.8170 F   0  0  0  0  0  0  0  0  0  0  0  0
  192.2650  175.5910  137.5370 C   0  0  0  0  0  2  0  0  0  0  0  0
  190.6460  174.8940  135.6730 C   0  0  1  0  0  3  0  0  0  0  0  0
  191.4690  174.6230  134.5940 F   0  0  0  0  0  0  0  0  0  0  0  0
  186.3500  174.5760  137.0420 C   0  0  0  0  0  3  0  0  0  0  0  0
  187.9550  176.3650  136.7130 C   0  0  0  0  0  0  0  0  0  0  0  0
  186.9240  177.1980  136.2560 C   0  0  0  0  0  3  0  0  0  0  0  0
  187.6630  175.0540  137.1060 C   0  0  0  0  0  3  0  0  0  0  0  0
  185.3250  175.4090  136.5860 C   0  0  0  0  0  0  0  0  0  0  0  0
  184.0210  174.9350  136.5270 O   0  0  0  0  0  1  0  0  0  0  0  0
  185.6120  176.7200  136.1930 C   0  0  0  0  0  3  0  0  0  0  0  0
  185.1660  178.8160  140.8880 C   0  0  0  0  0  2  0  0  0  0  0  0
  183.9740  178.3530  141.7260 C   0  0  1  0  0  3  0  0  0  0  0  0
  183.5990  179.3640  142.8040 C   0  0  0  0  0  1  0  0  0  0  0  0
  182.7880  177.8790  140.8720 C   0  0  2  0  0  3  0  0  0  0  0  0
  183.2000  177.2010  139.5680 C   0  0  0  0  0  1  0  0  0  0  0  0
  181.7320  178.9850  140.6780 C   0  0  2  0  0  3  0  0  0  0  0  0
  181.2960  178.6250  143.7900 O   0  0  0  0  0  1  0  0  0  0  0  0
  179.3130  180.2760  142.3130 C   0  0  0  0  0  2  0  0  0  0  0  0
  180.1510  177.4740  142.0300 C   0  0  2  0  0  3  0  0  0  0  0  0
  180.0410  178.1250  143.4270 C   0  0  0  0  0  0  0  0  0  0  0  0
  179.6590  177.1610  144.3630 O   0  0  0  0  0  1  0  0  0  0  0  0
  179.2600  179.5950  140.9490 C   0  0  0  0  0  2  0  0  0  0  0  0
  179.0070  179.2650  143.4130 C   0  0  1  0  0  3  0  0  0  0  0  0
  180.2860  178.4560  140.8430 C   0  0  1  0  0  3  0  0  0  0  0  0
  178.9340  179.9760  144.7550 C   0  0  0  0  0  1  0  0  0  0  0  0
  179.5700  175.8220  140.5410 C   0  0  0  0  0  1  0  0  0  0  0  0
  179.2740  176.3900  141.7890 O   0  0  0  0  0  0  0  0  0  0  0  0
  181.4460  179.9960  137.0830 C   0  0  0  0  0  2  0  0  0  0  0  0
  180.9860  180.9140  139.2010 C   0  0  0  0  0  2  0  0  0  0  0  0
  181.9000  178.9890  138.1150 C   0  0  0  0  0  2  0  0  0  0  0  0
  181.9800  179.7910  139.3850 C   0  0  2  0  0  3  0  0  0  0  0  0
  180.7810  181.1050  137.7690 N   0  0  0  0  0  0  0  0  0  0  0  0
  181.4880  182.3230  137.3980 C   0  0  0  0  0  2  0  0  0  0  0  0
  180.6750  184.2180  136.0350 C   0  0  0  0  0  2  0  0  0  0  0  0
  180.5190  183.4910  137.3560 C   0  0  0  0  0  3  0  0  0  0  0  0
  181.3080  184.7820  137.2900 C   0  0  0  0  0  2  0  0  0  0  0  0
  2  4  2  0  0  0  0
  2  7  1  0  0  0  0
  3  7  1  0  0  0  0
  5  1  1  1  0  0  0
  5  3  1  0  0  0  0
  6  8  1  6  0  0  0
  6  5  1  0  0  0  0
  6  2  1  0  0  0  0
  8  9  2  0  0  0  0
 10  8  1  0  0  0  0
 11 14  1  0  0  0  0
 11 10  1  1  0  0  0
 12 16  1  6  0  0  0
 12 17  1  0  0  0  0
 13 21  1  1  0  0  0
 13 11  1  0  0  0  0
 15 18  1  0  0  0  0
 15 13  1  0  0  0  0
 17 14  1  0  0  0  0
 18 19  1  6  0  0  0
 18 12  1  0  0  0  0
 20 23  1  0  0  0  0
 21 23  2  0  0  0  0
 22 21  1  0  0  0  0
 24 20  2  0  0  0  0
 25 24  1  0  0  0  0
 26 22  2  0  0  0  0
 26 24  1  0  0  0  0
 27 28  1  0  0  0  0
 27  1  1  0  0  0  0
 28 29  1  6  0  0  0
 30 31  1  6  0  0  0
 30 28  1  0  0  0  0
 32 30  1  6  0  0  0
 34 39  1  0  0  0  0
 35 43  1  6  0  0  0
 35 36  1  0  0  0  0
 36 33  1  0  0  0  0
 36 37  1  0  0  0  0
 38 34  1  0  0  0  0
 39 36  1  0  0  0  0
 39 41  1  1  0  0  0
 40 32  1  1  0  0  0
 40 38  1  0  0  0  0
 40 35  1  0  0  0  0
 42 43  1  0  0  0  0
 44 48  1  0  0  0  0
 44 46  1  0  0  0  0
 45 47  1  0  0  0  0
 46 47  1  0  0  0  0
 47 32  1  1  0  0  0
 48 45  1  0  0  0  0
 49 48  1  0  0  0  0
 50 52  1  0  0  0  0
 50 51  1  0  0  0  0
 51 49  1  0  0  0  0
 52 51  1  0  0  0  0
M  END
>  <MODEL>
6

>  <REMARK>
 VINA RESULT:      -7.2      3.098      6.099
  Name = 
  13 active torsions:
  status: ('A' for Active; 'I' for Inactive)
    1  A    between atoms: C_1  and  C_45
    2  A    between atoms: C_1  and  C_47
    3  A    between atoms: C_2  and  N_51
    4  A    between atoms: C_8  and  C_49
    5  A    between atoms: C_9  and  C_13
    6  A    between atoms: C_10  and  C_14
    7  A    between atoms: C_10  and  C_43
    8  A    between atoms: C_14  and  C_47
    9  A    between atoms: C_16  and  O_35
   10  A    between atoms: C_22  and  C_43
   11  A    between atoms: N_26  and  C_28
   12  A    between atoms: C_28  and  C_46
   13  A    between atoms: C_33  and  C_43
                            x       y       z     vdW  Elec       q    Type
                         _______ _______ _______ _____ _____    ______ ____

>  <TORSDO>
F 13

$$$$
=
 OpenBabel11062413503D

 52 57  0  0  1  0  0  0  0  0999 V2000
  185.1110  176.8360  137.8080 C   0  0  0  0  0  2  0  0  0  0  0  0
  188.1820  177.3010  136.7090 C   0  0  0  0  0  0  0  0  0  0  0  0
  186.3720  178.7510  136.8170 C   0  0  0  0  0  2  0  0  0  0  0  0
  189.0900  176.5690  136.1540 N   0  0  0  0  0  2  0  0  0  0  0  0
  186.2770  177.7870  138.0110 C   0  0  2  0  0  3  0  0  0  0  0  0
  187.5810  176.9840  138.0240 C   0  0  2  0  0  3  0  0  0  0  0  0
  187.4600  178.2700  135.9830 N   0  0  0  0  0  2  0  0  0  0  0  0
  188.4740  177.4500  139.1290 C   0  0  0  0  0  0  0  0  0  0  0  0
  189.3720  178.2980  138.8810 O   0  0  0  0  0  0  0  0  0  0  0  0
  188.3130  176.9300  140.4570 N   0  0  0  0  0  2  0  0  0  0  0  0
  189.1370  177.3120  141.6000 C   0  0  1  0  0  3  0  0  0  0  0  0
  191.0230  178.5890  143.2250 C   0  0  1  0  0  3  0  0  0  0  0  0
  188.4740  176.8870  142.9240 C   0  0  1  0  0  3  0  0  0  0  0  0
  190.5710  176.7910  141.4330 C   0  0  0  0  0  2  0  0  0  0  0  0
  189.4240  176.7810  144.1280 C   0  0  0  0  0  2  0  0  0  0  0  0
  192.0250  179.4420  143.6460 F   0  0  0  0  0  0  0  0  0  0  0  0
  191.6070  177.4850  142.3370 C   0  0  0  0  0  2  0  0  0  0  0  0
  190.2340  178.0480  144.4290 C   0  0  1  0  0  3  0  0  0  0  0  0
  191.0950  177.7840  145.4800 F   0  0  0  0  0  0  0  0  0  0  0  0
  185.5250  178.3310  144.8160 C   0  0  0  0  0  3  0  0  0  0  0  0
  187.2470  177.6910  143.2310 C   0  0  0  0  0  0  0  0  0  0  0  0
  186.6720  178.5380  142.2730 C   0  0  0  0  0  3  0  0  0  0  0  0
  186.6690  177.5920  144.5020 C   0  0  0  0  0  3  0  0  0  0  0  0
  184.9550  179.1750  143.8580 C   0  0  0  0  0  0  0  0  0  0  0  0
  183.8210  179.9130  144.1710 O   0  0  0  0  0  1  0  0  0  0  0  0
  185.5290  179.2780  142.5870 C   0  0  0  0  0  3  0  0  0  0  0  0
  183.8810  177.5950  137.3270 C   0  0  0  0  0  2  0  0  0  0  0  0
  183.3680  177.0940  135.9770 C   0  0  1  0  0  3  0  0  0  0  0  0
  183.4580  175.5770  135.8530 C   0  0  0  0  0  1  0  0  0  0  0  0
  181.9950  177.6720  135.6030 C   0  0  2  0  0  3  0  0  0  0  0  0
  182.0650  178.8390  134.6220 C   0  0  0  0  0  1  0  0  0  0  0  0
  181.1330  177.9710  136.8460 C   0  0  2  0  0  3  0  0  0  0  0  0
  181.8900  175.4710  138.6280 O   0  0  0  0  0  1  0  0  0  0  0  0
  179.4800  177.0270  139.4090 C   0  0  0  0  0  2  0  0  0  0  0  0
  180.1860  175.5820  136.9490 C   0  0  2  0  0  3  0  0  0  0  0  0
  180.5960  175.0290  138.3320 C   0  0  0  0  0  0  0  0  0  0  0  0
  180.6020  173.6330  138.2930 O   0  0  0  0  0  1  0  0  0  0  0  0
  178.9320  177.4920  138.0640 C   0  0  0  0  0  2  0  0  0  0  0  0
  179.6180  175.5080  139.4200 C   0  0  1  0  0  3  0  0  0  0  0  0
  179.8580  177.0940  136.9040 C   0  0  1  0  0  3  0  0  0  0  0  0
  180.0410  175.0430  140.8040 C   0  0  0  0  0  1  0  0  0  0  0  0
  178.9880  175.4130  134.9950 C   0  0  0  0  0  1  0  0  0  0  0  0
  179.2960  174.7740  136.2050 O   0  0  0  0  0  0  0  0  0  0  0  0
  179.5430  181.1320  138.0770 C   0  0  0  0  0  2  0  0  0  0  0  0
  181.6420  180.0730  138.1810 C   0  0  0  0  0  2  0  0  0  0  0  0
  179.4470  179.8640  137.2590 C   0  0  0  0  0  2  0  0  0  0  0  0
  180.8810  179.4850  137.0160 C   0  0  2  0  0  3  0  0  0  0  0  0
  180.8530  181.1720  138.7280 N   0  0  0  0  0  0  0  0  0  0  0  0
  181.5010  182.4070  138.3110 C   0  0  0  0  0  2  0  0  0  0  0  0
  181.3750  183.9180  136.3590 C   0  0  0  0  0  2  0  0  0  0  0  0
  180.5640  183.2100  137.4270 C   0  0  0  0  0  3  0  0  0  0  0  0
  180.8900  184.6820  137.5730 C   0  0  0  0  0  2  0  0  0  0  0  0
  2  6  1  0  0  0  0
  3  5  1  0  0  0  0
  4  2  2  0  0  0  0
  5  1  1  6  0  0  0
  5  6  1  0  0  0  0
  6  8  1  1  0  0  0
  7  2  1  0  0  0  0
  7  3  1  0  0  0  0
  8 10  1  0  0  0  0
  9  8  2  0  0  0  0
 11 10  1  6  0  0  0
 11 13  1  0  0  0  0
 12 16  1  1  0  0  0
 12 18  1  0  0  0  0
 13 21  1  1  0  0  0
 13 15  1  0  0  0  0
 14 11  1  0  0  0  0
 14 17  1  0  0  0  0
 15 18  1  0  0  0  0
 17 12  1  0  0  0  0
 18 19  1  1  0  0  0
 21 23  2  0  0  0  0
 22 26  2  0  0  0  0
 22 21  1  0  0  0  0
 23 20  1  0  0  0  0
 24 25  1  0  0  0  0
 24 20  2  0  0  0  0
 26 24  1  0  0  0  0
 27  1  1  0  0  0  0
 28 29  1  1  0  0  0
 28 27  1  0  0  0  0
 30 31  1  1  0  0  0
 30 28  1  0  0  0  0
 32 30  1  6  0  0  0
 34 39  1  0  0  0  0
 35 43  1  1  0  0  0
 35 36  1  0  0  0  0
 36 33  1  0  0  0  0
 36 39  1  0  0  0  0
 37 36  1  0  0  0  0
 38 34  1  0  0  0  0
 39 41  1  1  0  0  0
 40 32  1  1  0  0  0
 40 35  1  0  0  0  0
 40 38  1  0  0  0  0
 42 43  1  0  0  0  0
 44 48  1  0  0  0  0
 45 48  1  0  0  0  0
 46 44  1  0  0  0  0
 47 32  1  1  0  0  0
 47 46  1  0  0  0  0
 47 45  1  0  0  0  0
 49 48  1  0  0  0  0
 50 51  1  0  0  0  0
 50 52  1  0  0  0  0
 51 52  1  0  0  0  0
 51 49  1  0  0  0  0
M  END
>  <MODEL>
7

>  <REMARK>
 VINA RESULT:      -7.0      1.255      2.491
  Name = 
  13 active torsions:
  status: ('A' for Active; 'I' for Inactive)
    1  A    between atoms: C_1  and  C_45
    2  A    between atoms: C_1  and  C_47
    3  A    between atoms: C_2  and  N_51
    4  A    between atoms: C_8  and  C_49
    5  A    between atoms: C_9  and  C_13
    6  A    between atoms: C_10  and  C_14
    7  A    between atoms: C_10  and  C_43
    8  A    between atoms: C_14  and  C_47
    9  A    between atoms: C_16  and  O_35
   10  A    between atoms: C_22  and  C_43
   11  A    between atoms: N_26  and  C_28
   12  A    between atoms: C_28  and  C_46
   13  A    between atoms: C_33  and  C_43
                            x       y       z     vdW  Elec       q    Type
                         _______ _______ _______ _____ _____    ______ ____

>  <TORSDO>
F 13

$$$$
=
 OpenBabel11062413503D

 52 57  0  0  1  0  0  0  0  0999 V2000
  185.6600  177.0630  137.8420 C   0  0  0  0  0  2  0  0  0  0  0  0
  188.8560  177.1890  137.0490 C   0  0  0  0  0  0  0  0  0  0  0  0
  187.1890  178.7990  136.9010 C   0  0  0  0  0  2  0  0  0  0  0  0
  189.7410  176.3490  136.6260 N   0  0  0  0  0  2  0  0  0  0  0  0
  186.8850  177.9150  138.1220 C   0  0  2  0  0  3  0  0  0  0  0  0
  188.1000  177.0010  138.3070 C   0  0  2  0  0  3  0  0  0  0  0  0
  188.3040  178.1770  136.2080 N   0  0  0  0  0  2  0  0  0  0  0  0
  188.9180  177.4470  139.4770 C   0  0  0  0  0  0  0  0  0  0  0  0
  189.9640  178.1190  139.2770 O   0  0  0  0  0  0  0  0  0  0  0  0
  188.5190  177.1040  140.8120 N   0  0  0  0  0  2  0  0  0  0  0  0
  189.2520  177.4810  142.0170 C   0  0  1  0  0  3  0  0  0  0  0  0
  190.9470  178.8020  143.8080 C   0  0  1  0  0  3  0  0  0  0  0  0
  188.5590  176.9320  143.2790 C   0  0  1  0  0  3  0  0  0  0  0  0
  190.7290  177.0810  141.9010 C   0  0  0  0  0  2  0  0  0  0  0  0
  189.4520  176.8290  144.5250 C   0  0  0  0  0  2  0  0  0  0  0  0
  191.8570  179.7030  144.3280 F   0  0  0  0  0  0  0  0  0  0  0  0
  191.6600  177.7980  142.8960 C   0  0  0  0  0  2  0  0  0  0  0  0
  190.1440  178.1350  144.9370 C   0  0  1  0  0  3  0  0  0  0  0  0
  190.9690  177.8760  146.0180 F   0  0  0  0  0  0  0  0  0  0  0  0
  185.3190  178.8220  142.7310 C   0  0  0  0  0  3  0  0  0  0  0  0
  187.2590  177.6210  143.5610 C   0  0  0  0  0  0  0  0  0  0  0  0
  186.7540  177.7200  144.8650 C   0  0  0  0  0  3  0  0  0  0  0  0
  186.5370  178.1740  142.4960 C   0  0  0  0  0  3  0  0  0  0  0  0
  184.8200  178.9170  144.0320 C   0  0  0  0  0  0  0  0  0  0  0  0
  183.6090  179.5560  144.2650 O   0  0  0  0  0  1  0  0  0  0  0  0
  185.5370  178.3660  145.0990 C   0  0  0  0  0  3  0  0  0  0  0  0
  184.9680  177.5240  136.5660 C   0  0  0  0  0  2  0  0  0  0  0  0
  184.3490  176.3690  135.7810 C   0  0  1  0  0  3  0  0  0  0  0  0
  184.6080  175.0180  136.4390 C   0  0  0  0  0  1  0  0  0  0  0  0
  182.8770  176.6140  135.4130 C   0  0  2  0  0  3  0  0  0  0  0  0
  182.5980  178.0220  134.8960 C   0  0  0  0  0  1  0  0  0  0  0  0
  181.9160  176.1740  136.5350 C   0  0  2  0  0  3  0  0  0  0  0  0
  179.4100  177.3440  138.0690 O   0  0  0  0  0  1  0  0  0  0  0  0
  180.9140  175.1430  139.3860 C   0  0  0  0  0  2  0  0  0  0  0  0
  181.7160  177.8260  138.4950 C   0  0  2  0  0  3  0  0  0  0  0  0
  180.3170  177.5850  139.1060 C   0  0  0  0  0  0  0  0  0  0  0  0
  179.9070  178.7260  139.7990 O   0  0  0  0  0  1  0  0  0  0  0  0
  182.3490  175.4040  138.9390 C   0  0  0  0  0  2  0  0  0  0  0  0
  180.3460  176.3830  140.0670 C   0  0  1  0  0  3  0  0  0  0  0  0
  182.4300  176.5700  137.9410 C   0  0  1  0  0  3  0  0  0  0  0  0
  178.9660  176.0730  140.6240 C   0  0  0  0  0  1  0  0  0  0  0  0
  183.0230  179.7130  138.3720 C   0  0  0  0  0  1  0  0  0  0  0  0
  182.5600  178.6980  139.2230 O   0  0  0  0  0  0  0  0  0  0  0  0
  179.8570  173.1910  135.5910 C   0  0  0  0  0  2  0  0  0  0  0  0
  181.9750  174.0860  135.0880 C   0  0  0  0  0  2  0  0  0  0  0  0
  180.0300  174.4340  136.4340 C   0  0  0  0  0  2  0  0  0  0  0  0
  181.5110  174.6910  136.3920 C   0  0  2  0  0  3  0  0  0  0  0  0
  181.0050  173.0710  134.6900 N   0  0  0  0  0  0  0  0  0  0  0  0
  181.6170  171.7750  134.9470 C   0  0  0  0  0  2  0  0  0  0  0  0
  183.6520  170.6040  135.7180 C   0  0  0  0  0  2  0  0  0  0  0  0
  183.0260  171.9640  135.4800 C   0  0  0  0  0  3  0  0  0  0  0  0
  183.1010  171.3990  136.8830 C   0  0  0  0  0  2  0  0  0  0  0  0
  2  6  1  0  0  0  0
  3  5  1  0  0  0  0
  4  2  2  0  0  0  0
  5  1  1  6  0  0  0
  5  6  1  0  0  0  0
  6  8  1  1  0  0  0
  7  3  1  0  0  0  0
  7  2  1  0  0  0  0
  8 10  1  0  0  0  0
  9  8  2  0  0  0  0
 11 10  1  6  0  0  0
 11 13  1  0  0  0  0
 12 16  1  1  0  0  0
 12 18  1  0  0  0  0
 13 21  1  1  0  0  0
 13 15  1  0  0  0  0
 14 11  1  0  0  0  0
 14 17  1  0  0  0  0
 15 18  1  0  0  0  0
 17 12  1  0  0  0  0
 18 19  1  1  0  0  0
 20 24  1  0  0  0  0
 21 22  2  0  0  0  0
 22 26  1  0  0  0  0
 23 20  2  0  0  0  0
 23 21  1  0  0  0  0
 24 25  1  0  0  0  0
 24 26  2  0  0  0  0
 27  1  1  0  0  0  0
 28 29  1  1  0  0  0
 28 27  1  0  0  0  0
 30 31  1  1  0  0  0
 30 28  1  0  0  0  0
 32 30  1  6  0  0  0
 33 36  1  0  0  0  0
 34 39  1  0  0  0  0
 35 36  1  0  0  0  0
 35 43  1  1  0  0  0
 36 37  1  0  0  0  0
 36 39  1  0  0  0  0
 38 34  1  0  0  0  0
 39 41  1  6  0  0  0
 40 32  1  6  0  0  0
 40 35  1  0  0  0  0
 40 38  1  0  0  0  0
 42 43  1  0  0  0  0
 44 46  1  0  0  0  0
 45 47  1  0  0  0  0
 47 46  1  0  0  0  0
 47 32  1  6  0  0  0
 48 49  1  0  0  0  0
 48 45  1  0  0  0  0
 48 44  1  0  0  0  0
 49 51  1  0  0  0  0
 50 52  1  0  0  0  0
 51 50  1  0  0  0  0
 51 52  1  0  0  0  0
M  END
>  <MODEL>
8

>  <REMARK>
 VINA RESULT:      -6.9      2.479      4.953
  Name = 
  13 active torsions:
  status: ('A' for Active; 'I' for Inactive)
    1  A    between atoms: C_1  and  C_45
    2  A    between atoms: C_1  and  C_47
    3  A    between atoms: C_2  and  N_51
    4  A    between atoms: C_8  and  C_49
    5  A    between atoms: C_9  and  C_13
    6  A    between atoms: C_10  and  C_14
    7  A    between atoms: C_10  and  C_43
    8  A    between atoms: C_14  and  C_47
    9  A    between atoms: C_16  and  O_35
   10  A    between atoms: C_22  and  C_43
   11  A    between atoms: N_26  and  C_28
   12  A    between atoms: C_28  and  C_46
   13  A    between atoms: C_33  and  C_43
                            x       y       z     vdW  Elec       q    Type
                         _______ _______ _______ _____ _____    ______ ____

>  <TORSDO>
F 13

$$$$
=
 OpenBabel11062413503D

 52 57  0  0  1  0  0  0  0  0999 V2000
  186.8380  178.6290  141.0700 C   0  0  0  0  0  2  0  0  0  0  0  0
  189.6010  178.1440  142.7980 C   0  0  0  0  0  0  0  0  0  0  0  0
  187.5500  177.0570  142.8760 C   0  0  0  0  0  2  0  0  0  0  0  0
  190.5740  178.8810  143.2180 N   0  0  0  0  0  2  0  0  0  0  0  0
  187.7940  177.5040  141.4250 C   0  0  2  0  0  3  0  0  0  0  0  0
  189.2310  178.0320  141.3700 C   0  0  2  0  0  3  0  0  0  0  0  0
  188.6150  177.6420  143.6720 N   0  0  0  0  0  2  0  0  0  0  0  0
  190.1240  177.0530  140.6760 C   0  0  0  0  0  0  0  0  0  0  0  0
  190.5560  176.0550  141.3120 O   0  0  0  0  0  0  0  0  0  0  0  0
  190.4890  177.2530  139.3030 N   0  0  0  0  0  2  0  0  0  0  0  0
  191.3600  176.3650  138.5410 C   0  0  1  0  0  3  0  0  0  0  0  0
  193.2660  174.4340  137.8580 C   0  0  1  0  0  3  0  0  0  0  0  0
  190.8120  176.1400  137.1190 C   0  0  1  0  0  3  0  0  0  0  0  0
  192.8100  176.8690  138.5710 C   0  0  0  0  0  2  0  0  0  0  0  0
  191.8420  175.6510  136.0880 C   0  0  0  0  0  2  0  0  0  0  0  0
  194.2400  173.4590  137.9670 F   0  0  0  0  0  0  0  0  0  0  0  0
  193.8580  175.8100  138.1820 C   0  0  0  0  0  2  0  0  0  0  0  0
  192.5920  174.3700  136.4780 C   0  0  1  0  0  3  0  0  0  0  0  0
  193.5330  174.0950  135.5020 F   0  0  0  0  0  0  0  0  0  0  0  0
  187.1390  175.2120  137.2170 C   0  0  0  0  0  3  0  0  0  0  0  0
  189.5610  175.3150  137.1150 C   0  0  0  0  0  0  0  0  0  0  0  0
  189.6090  173.9180  137.0040 C   0  0  0  0  0  3  0  0  0  0  0  0
  188.3220  175.9580  137.2200 C   0  0  0  0  0  3  0  0  0  0  0  0
  187.1910  173.8200  137.1060 C   0  0  0  0  0  0  0  0  0  0  0  0
  186.0160  173.0810  137.0990 O   0  0  0  0  0  1  0  0  0  0  0  0
  188.4260  173.1730  137.0000 C   0  0  0  0  0  3  0  0  0  0  0  0
  186.0970  178.3120  139.7770 C   0  0  0  0  0  2  0  0  0  0  0  0
  184.5990  178.0990  139.9920 C   0  0  1  0  0  3  0  0  0  0  0  0
  184.1400  178.5710  141.3680 C   0  0  0  0  0  1  0  0  0  0  0  0
  183.7440  178.6310  138.8320 C   0  0  2  0  0  3  0  0  0  0  0  0
  183.7370  180.1530  138.7190 C   0  0  0  0  0  1  0  0  0  0  0  0
  182.3320  178.0120  138.8180 C   0  0  2  0  0  3  0  0  0  0  0  0
  183.8260  175.3690  137.9330 O   0  0  0  0  0  1  0  0  0  0  0  0
  180.8610  175.3950  137.7330 C   0  0  0  0  0  2  0  0  0  0  0  0
  182.9370  177.0710  136.5030 C   0  0  2  0  0  3  0  0  0  0  0  0
  183.1690  175.5570  136.7130 C   0  0  0  0  0  0  0  0  0  0  0  0
  183.9810  175.0630  135.6900 O   0  0  0  0  0  1  0  0  0  0  0  0
  180.5610  176.8480  137.3800 C   0  0  0  0  0  2  0  0  0  0  0  0
  181.8290  174.7990  136.7180 C   0  0  1  0  0  3  0  0  0  0  0  0
  181.8350  177.7080  137.3830 C   0  0  1  0  0  3  0  0  0  0  0  0
  182.0200  173.3180  137.0010 C   0  0  0  0  0  1  0  0  0  0  0  0
  181.9390  178.4890  134.9940 C   0  0  0  0  0  1  0  0  0  0  0  0
  182.9280  177.5080  135.1570 O   0  0  0  0  0  0  0  0  0  0  0  0
  179.1920  179.8180  139.7720 C   0  0  0  0  0  2  0  0  0  0  0  0
  180.4190  177.9430  140.4900 C   0  0  0  0  0  2  0  0  0  0  0  0
  180.4330  179.7390  138.9130 C   0  0  0  0  0  2  0  0  0  0  0  0
  181.3440  178.8240  139.6830 C   0  0  2  0  0  3  0  0  0  0  0  0
  179.1480  178.6410  140.6420 N   0  0  0  0  0  0  0  0  0  0  0  0
  179.0900  179.1260  142.0140 C   0  0  0  0  0  2  0  0  0  0  0  0
  179.6780  178.6290  144.3630 C   0  0  0  0  0  2  0  0  0  0  0  0
  179.8820  178.2020  142.9220 C   0  0  0  0  0  3  0  0  0  0  0  0
  180.9500  179.0080  143.6330 C   0  0  0  0  0  2  0  0  0  0  0  0
  2  4  2  0  0  0  0
  2  7  1  0  0  0  0
  3  7  1  0  0  0  0
  5  1  1  1  0  0  0
  5  3  1  0  0  0  0
  6  8  1  6  0  0  0
  6  5  1  0  0  0  0
  6  2  1  0  0  0  0
  8  9  2  0  0  0  0
 10  8  1  0  0  0  0
 11 14  1  0  0  0  0
 11 10  1  6  0  0  0
 12 16  1  6  0  0  0
 12 17  1  0  0  0  0
 13 21  1  1  0  0  0
 13 11  1  0  0  0  0
 15 18  1  0  0  0  0
 15 13  1  0  0  0  0
 17 14  1  0  0  0  0
 18 19  1  6  0  0  0
 18 12  1  0  0  0  0
 20 23  1  0  0  0  0
 21 23  2  0  0  0  0
 22 21  1  0  0  0  0
 24 20  2  0  0  0  0
 25 24  1  0  0  0  0
 26 22  2  0  0  0  0
 26 24  1  0  0  0  0
 27 28  1  0  0  0  0
 27  1  1  0  0  0  0
 28 29  1  1  0  0  0
 30 31  1  1  0  0  0
 30 28  1  0  0  0  0
 32 30  1  6  0  0  0
 35 43  1  6  0  0  0
 35 36  1  0  0  0  0
 35 40  1  0  0  0  0
 36 39  1  0  0  0  0
 36 33  1  0  0  0  0
 37 36  1  0  0  0  0
 38 40  1  0  0  0  0
 38 34  1  0  0  0  0
 39 41  1  1  0  0  0
 39 34  1  0  0  0  0
 40 32  1  1  0  0  0
 42 43  1  0  0  0  0
 44 48  1  0  0  0  0
 45 48  1  0  0  0  0
 46 47  1  0  0  0  0
 46 44  1  0  0  0  0
 47 32  1  6  0  0  0
 47 45  1  0  0  0  0
 48 49  1  0  0  0  0
 49 51  1  0  0  0  0
 51 52  1  0  0  0  0
 51 50  1  0  0  0  0
 52 50  1  0  0  0  0
M  END
>  <MODEL>
9

>  <REMARK>
 VINA RESULT:      -6.7      3.362      5.956
  Name = 
  13 active torsions:
  status: ('A' for Active; 'I' for Inactive)
    1  A    between atoms: C_1  and  C_45
    2  A    between atoms: C_1  and  C_47
    3  A    between atoms: C_2  and  N_51
    4  A    between atoms: C_8  and  C_49
    5  A    between atoms: C_9  and  C_13
    6  A    between atoms: C_10  and  C_14
    7  A    between atoms: C_10  and  C_43
    8  A    between atoms: C_14  and  C_47
    9  A    between atoms: C_16  and  O_35
   10  A    between atoms: C_22  and  C_43
   11  A    between atoms: N_26  and  C_28
   12  A    between atoms: C_28  and  C_46
   13  A    between atoms: C_33  and  C_43
                            x       y       z     vdW  Elec       q    Type
                         _______ _______ _______ _____ _____    ______ ____

>  <TORSDO>
F 13

$$$$
