=
 OpenBabel11062414023D

 49 50  0  0  1  0  0  0  0  0999 V2000
  190.8020  176.9010  146.2770 C   0  0  0  0  0  2  0  0  0  0  0  0
  187.7550  177.7450  143.9110 S   0  0  0  0  0  0  0  0  0  0  0  0
  190.5020  177.0820  143.3830 C   0  0  2  0  0  3  0  0  0  0  0  0
  189.4770  177.2490  145.6690 C   0  0  0  0  0  0  0  0  0  0  0  0
  188.2990  177.5540  146.3650 C   0  0  0  0  0  0  0  0  0  0  0  0
  188.2060  177.5970  147.8530 C   0  0  0  0  0  1  0  0  0  0  0  0
  191.4850  176.2940  144.0260 O   0  0  0  0  0  0  0  0  0  0  0  0
  189.3230  177.2680  144.2950 C   0  0  0  0  0  0  0  0  0  0  0  0
  191.8970  176.9780  145.1940 C   0  0  0  0  0  2  0  0  0  0  0  0
  187.2330  177.8460  145.5120 C   0  0  0  0  0  0  0  0  0  0  0  0
  190.0690  176.4040  142.0920 C   0  0  0  0  0  2  0  0  0  0  0  0
  191.0570  176.6750  140.9680 C   0  0  2  0  0  3  0  0  0  0  0  0
  191.7080  177.8940  141.1730 O   0  0  0  0  0  1  0  0  0  0  0  0
  190.3420  176.6470  139.6080 C   0  0  2  0  0  3  0  0  0  0  0  0
  190.9160  175.6210  138.6230 C   0  0  0  0  0  2  0  0  0  0  0  0
  192.1760  176.0690  138.1430 O   0  0  0  0  0  0  0  0  0  0  0  0
  192.5050  176.0360  136.7870 C   0  0  0  0  0  0  0  0  0  0  0  0
  191.6200  175.8540  135.9100 O   0  0  0  0  0  0  0  0  0  0  0  0
  193.9280  176.2050  136.3810 C   0  0  0  0  0  2  0  0  0  0  0  0
  195.6260  174.3790  136.8170 C   0  0  0  0  0  0  0  0  0  0  0  0
  195.6960  174.0950  135.5900 O   0  0  0  0  0  0  0  0  0  0  0  0
  196.4310  173.6040  137.8000 C   0  0  0  0  0  1  0  0  0  0  0  0
  194.7960  175.4510  137.2730 N   0  0  0  0  0  2  0  0  0  0  0  0
  190.1040  177.9220  139.0390 O   0  0  0  0  0  0  0  0  0  0  0  0
  188.7370  178.0530  138.7220 C   0  0  1  0  0  3  0  0  0  0  0  0
  188.0530  178.6280  139.7930 O   0  0  0  0  0  1  0  0  0  0  0  0
  188.5570  178.9020  137.4650 C   0  0  0  0  0  2  0  0  0  0  0  0
  188.5700  178.0530  136.2050 C   0  0  0  0  0  1  0  0  0  0  0  0
  185.8610  178.2510  145.9290 C   0  0  0  0  0  2  0  0  0  0  0  0
  184.9660  178.0130  144.8850 O   0  0  0  0  0  0  0  0  0  0  0  0
  184.5490  179.2840  144.4910 C   0  0  0  0  0  2  0  0  0  0  0  0
  183.8060  179.1950  143.1690 C   0  0  2  0  0  3  0  0  0  0  0  0
  182.6280  178.4660  143.3450 O   0  0  0  0  0  0  0  0  0  0  0  0
  181.6160  179.4240  143.4380 C   0  0  0  0  0  2  0  0  0  0  0  0
  180.5650  179.1090  142.4880 N   0  0  0  0  0  2  0  0  0  0  0  0
  179.3680  179.7970  142.9440 C   0  0  0  0  0  2  0  0  0  0  0  0
  178.9310  179.2240  144.2800 C   0  0  0  0  0  1  0  0  0  0  0  0
  184.6970  178.4910  142.1580 C   0  0  0  0  0  2  0  0  0  0  0  0
  184.3970  178.9780  140.7500 C   0  0  0  0  0  2  0  0  0  0  0  0
  183.3640  178.0870  140.0660 C   0  0  0  0  0  2  0  0  0  0  0  0
  183.9810  177.2890  138.9120 C   0  0  2  0  0  3  0  0  0  0  0  0
  184.8950  178.2200  138.1210 C   0  0  0  0  0  1  0  0  0  0  0  0
  182.9290  176.7380  138.0450 N   0  0  0  0  0  0  0  0  0  0  0  0
  183.0290  175.2790  138.0580 C   0  0  0  0  0  2  0  0  0  0  0  0
  183.3810  175.1580  135.7150 O   0  0  0  0  0  1  0  0  0  0  0  0
  183.9420  174.8160  136.9410 C   0  0  0  0  0  2  0  0  0  0  0  0
  181.6340  177.0340  138.6480 C   0  0  0  0  0  2  0  0  0  0  0  0
  180.8970  175.7420  138.9430 C   0  0  0  0  0  2  0  0  0  0  0  0
  180.1830  175.8680  140.2700 C   0  0  0  0  0  1  0  0  0  0  0  0
  2  8  1  0  0  0  0
  2 10  1  0  0  0  0
  3 11  1  6  0  0  0
  3  7  1  0  0  0  0
  3  8  1  0  0  0  0
  4  1  1  0  0  0  0
  4  5  1  0  0  0  0
  5  6  1  0  0  0  0
  7  9  1  0  0  0  0
  8  4  2  0  0  0  0
  9  1  1  0  0  0  0
 10 29  1  0  0  0  0
 10  5  2  0  0  0  0
 12 13  1  1  0  0  0
 12 11  1  0  0  0  0
 14 15  1  6  0  0  0
 14 12  1  0  0  0  0
 16 15  1  0  0  0  0
 17 16  1  0  0  0  0
 18 17  2  0  0  0  0
 19 17  1  0  0  0  0
 19 23  1  0  0  0  0
 20 23  1  0  0  0  0
 20 22  1  0  0  0  0
 21 20  2  0  0  0  0
 24 14  1  0  0  0  0
 25 24  1  0  0  0  0
 25 26  1  1  0  0  0
 27 25  1  0  0  0  0
 28 27  1  0  0  0  0
 30 29  1  0  0  0  0
 31 30  1  0  0  0  0
 32 38  1  6  0  0  0
 32 33  1  0  0  0  0
 32 31  1  0  0  0  0
 33 34  1  0  0  0  0
 35 36  1  0  0  0  0
 35 34  1  0  0  0  0
 36 37  1  0  0  0  0
 39 38  1  0  0  0  0
 40 39  1  0  0  0  0
 41 42  1  6  0  0  0
 41 40  1  0  0  0  0
 43 44  1  0  0  0  0
 43 47  1  0  0  0  0
 43 41  1  0  0  0  0
 45 46  1  0  0  0  0
 46 44  1  0  0  0  0
 47 48  1  0  0  0  0
 48 49  1  0  0  0  0
M  END
>  <MODEL>
1

>  <REMARK>
 VINA RESULT:      -5.7      0.000      0.000
  Name = 
  28 active torsions:
  status: ('A' for Active; 'I' for Inactive)
    1  A    between atoms: O_1  and  C_19
    2  A    between atoms: O_1  and  C_27
    3  A    between atoms: C_3  and  C_5
    4  A    between atoms: C_3  and  N_39
    5  A    between atoms: C_4  and  O_34
    6  A    between atoms: C_4  and  C_47
    7  A    between atoms: C_5  and  C_18
    8  A    between atoms: C_6  and  C_33
    9  A    between atoms: C_6  and  C_44
   10  A    between atoms: C_8  and  N_24
   11  A    between atoms: C_9  and  C_33
   12  A    between atoms: C_12  and  C_21
   13  A    between atoms: C_17  and  C_19
   14  A    between atoms: C_17  and  O_36
   15  A    between atoms: C_18  and  C_37
   16  A    between atoms: C_19  and  C_37
   17  A    between atoms: C_21  and  N_39
   18  A    between atoms: C_22  and  C_25
   19  A    between atoms: C_22  and  N_43
   20  A    between atoms: C_23  and  O_36
   21  A    between atoms: C_23  and  C_42
   22  A    between atoms: N_24  and  C_27
   23  A    between atoms: C_25  and  O_46
   24  A    between atoms: C_32  and  C_40
   25  A    between atoms: O_34  and  C_44
   26  A    between atoms: N_39  and  C_40
   27  A    between atoms: C_44  and  C_49
   28  A    between atoms: O_46  and  C_49
                            x       y       z     vdW  Elec       q    Type
                         _______ _______ _______ _____ _____    ______ ____

>  <TORSDO>
F 28

$$$$
=
 OpenBabel11062414023D

 49 50  0  0  1  0  0  0  0  0999 V2000
  182.4100  178.9660  143.6330 C   0  0  0  0  0  2  0  0  0  0  0  0
  184.8810  178.6870  140.5650 S   0  0  0  0  0  0  0  0  0  0  0  0
  182.0140  178.8130  140.7490 C   0  0  2  0  0  3  0  0  0  0  0  0
  183.5850  178.8670  142.7070 C   0  0  0  0  0  0  0  0  0  0  0  0
  184.9340  178.7980  143.0820 C   0  0  0  0  0  0  0  0  0  0  0  0
  185.3980  178.7900  144.5000 C   0  0  0  0  0  1  0  0  0  0  0  0
  181.0920  179.4080  141.6410 O   0  0  0  0  0  0  0  0  0  0  0  0
  183.3950  178.8630  141.3370 C   0  0  0  0  0  0  0  0  0  0  0  0
  181.1160  178.6710  142.8490 C   0  0  0  0  0  2  0  0  0  0  0  0
  185.7910  178.7030  141.9850 C   0  0  0  0  0  0  0  0  0  0  0  0
  181.9810  179.5470  139.4170 C   0  0  0  0  0  2  0  0  0  0  0  0
  180.7960  179.1050  138.5720 C   0  0  2  0  0  3  0  0  0  0  0  0
  180.0250  178.1680  139.2650 O   0  0  0  0  0  1  0  0  0  0  0  0
  181.2770  178.5450  137.2250 C   0  0  2  0  0  3  0  0  0  0  0  0
  182.6960  177.9650  137.2610 C   0  0  0  0  0  2  0  0  0  0  0  0
  182.6580  176.5830  136.9310 O   0  0  0  0  0  0  0  0  0  0  0  0
  182.7820  175.5880  137.9010 C   0  0  0  0  0  0  0  0  0  0  0  0
  182.9520  175.8820  139.1140 O   0  0  0  0  0  0  0  0  0  0  0  0
  182.7280  174.1580  137.4850 C   0  0  0  0  0  2  0  0  0  0  0  0
  184.0780  173.7770  135.3790 C   0  0  0  0  0  0  0  0  0  0  0  0
  183.1280  174.1700  134.6500 O   0  0  0  0  0  0  0  0  0  0  0  0
  185.3460  173.3150  134.7520 C   0  0  0  0  0  1  0  0  0  0  0  0
  183.9600  173.7880  136.8040 N   0  0  0  0  0  2  0  0  0  0  0  0
  181.0250  179.3850  136.1120 O   0  0  0  0  0  0  0  0  0  0  0  0
  180.1770  180.4420  136.4990 C   0  0  1  0  0  3  0  0  0  0  0  0
  180.9160  181.6190  136.6320 O   0  0  0  0  0  1  0  0  0  0  0  0
  179.0600  180.6350  135.4760 C   0  0  0  0  0  2  0  0  0  0  0  0
  178.9310  182.0880  135.0510 C   0  0  0  0  0  1  0  0  0  0  0  0
  187.2740  178.5690  142.0380 C   0  0  0  0  0  2  0  0  0  0  0  0
  187.7960  178.6270  140.7450 O   0  0  0  0  0  0  0  0  0  0  0  0
  188.5290  177.4480  140.6150 C   0  0  0  0  0  2  0  0  0  0  0  0
  189.9060  177.7570  140.0520 C   0  0  2  0  0  3  0  0  0  0  0  0
  189.8790  177.6250  138.6610 O   0  0  0  0  0  0  0  0  0  0  0  0
  189.0600  176.5230  138.4140 C   0  0  0  0  0  2  0  0  0  0  0  0
  188.3310  176.7310  137.1760 N   0  0  0  0  0  2  0  0  0  0  0  0
  188.7130  178.0430  136.6800 C   0  0  0  0  0  2  0  0  0  0  0  0
  187.4820  178.9250  136.5780 C   0  0  0  0  0  1  0  0  0  0  0  0
  190.9030  176.7720  140.6400 C   0  0  0  0  0  2  0  0  0  0  0  0
  191.4350  177.2780  141.9710 C   0  0  0  0  0  2  0  0  0  0  0  0
  190.7850  176.5430  143.1390 C   0  0  0  0  0  2  0  0  0  0  0  0
  190.0850  177.5120  144.0980 C   0  0  2  0  0  3  0  0  0  0  0  0
  190.8030  178.8560  144.0280 C   0  0  0  0  0  1  0  0  0  0  0  0
  190.1050  176.9850  145.4710 N   0  0  0  0  0  0  0  0  0  0  0  0
  191.4960  176.7950  145.8780 C   0  0  0  0  0  2  0  0  0  0  0  0
  192.5250  176.6170  148.0090 O   0  0  0  0  0  1  0  0  0  0  0  0
  191.5500  176.0470  147.1940 C   0  0  0  0  0  2  0  0  0  0  0  0
  189.5850  178.0120  146.3650 C   0  0  0  0  0  2  0  0  0  0  0  0
  188.1690  177.6650  146.7800 C   0  0  0  0  0  2  0  0  0  0  0  0
  188.1040  177.5530  148.2870 C   0  0  0  0  0  1  0  0  0  0  0  0
  2  8  1  0  0  0  0
  2 10  1  0  0  0  0
  3 11  1  6  0  0  0
  3  8  1  0  0  0  0
  3  7  1  0  0  0  0
  4  5  1  0  0  0  0
  4  1  1  0  0  0  0
  5  6  1  0  0  0  0
  7  9  1  0  0  0  0
  8  4  2  0  0  0  0
  9  1  1  0  0  0  0
 10 29  1  0  0  0  0
 10  5  2  0  0  0  0
 12 13  1  1  0  0  0
 12 11  1  0  0  0  0
 14 15  1  1  0  0  0
 14 12  1  0  0  0  0
 16 15  1  0  0  0  0
 16 17  1  0  0  0  0
 17 18  2  0  0  0  0
 19 17  1  0  0  0  0
 20 23  1  0  0  0  0
 21 20  2  0  0  0  0
 22 20  1  0  0  0  0
 23 19  1  0  0  0  0
 24 25  1  0  0  0  0
 24 14  1  0  0  0  0
 25 26  1  6  0  0  0
 27 25  1  0  0  0  0
 28 27  1  0  0  0  0
 30 29  1  0  0  0  0
 31 30  1  0  0  0  0
 32 31  1  1  0  0  0
 32 38  1  0  0  0  0
 33 32  1  0  0  0  0
 34 33  1  0  0  0  0
 35 34  1  0  0  0  0
 36 35  1  0  0  0  0
 37 36  1  0  0  0  0
 38 39  1  0  0  0  0
 39 40  1  0  0  0  0
 40 41  1  0  0  0  0
 41 42  1  1  0  0  0
 41 43  1  0  0  0  0
 43 44  1  0  0  0  0
 43 47  1  0  0  0  0
 44 46  1  0  0  0  0
 46 45  1  0  0  0  0
 47 48  1  0  0  0  0
 48 49  1  0  0  0  0
M  END
>  <MODEL>
2

>  <REMARK>
 VINA RESULT:      -5.6      3.171      9.537
  Name = 
  28 active torsions:
  status: ('A' for Active; 'I' for Inactive)
    1  A    between atoms: O_1  and  C_19
    2  A    between atoms: O_1  and  C_27
    3  A    between atoms: C_3  and  C_5
    4  A    between atoms: C_3  and  N_39
    5  A    between atoms: C_4  and  O_34
    6  A    between atoms: C_4  and  C_47
    7  A    between atoms: C_5  and  C_18
    8  A    between atoms: C_6  and  C_33
    9  A    between atoms: C_6  and  C_44
   10  A    between atoms: C_8  and  N_24
   11  A    between atoms: C_9  and  C_33
   12  A    between atoms: C_12  and  C_21
   13  A    between atoms: C_17  and  C_19
   14  A    between atoms: C_17  and  O_36
   15  A    between atoms: C_18  and  C_37
   16  A    between atoms: C_19  and  C_37
   17  A    between atoms: C_21  and  N_39
   18  A    between atoms: C_22  and  C_25
   19  A    between atoms: C_22  and  N_43
   20  A    between atoms: C_23  and  O_36
   21  A    between atoms: C_23  and  C_42
   22  A    between atoms: N_24  and  C_27
   23  A    between atoms: C_25  and  O_46
   24  A    between atoms: C_32  and  C_40
   25  A    between atoms: O_34  and  C_44
   26  A    between atoms: N_39  and  C_40
   27  A    between atoms: C_44  and  C_49
   28  A    between atoms: O_46  and  C_49
                            x       y       z     vdW  Elec       q    Type
                         _______ _______ _______ _____ _____    ______ ____

>  <TORSDO>
F 28

$$$$
=
 OpenBabel11062414023D

 49 50  0  0  1  0  0  0  0  0999 V2000
  183.7320  179.2320  144.6090 C   0  0  0  0  0  2  0  0  0  0  0  0
  187.0080  177.3830  143.4090 S   0  0  0  0  0  0  0  0  0  0  0  0
  184.6730  178.3080  142.0100 C   0  0  2  0  0  3  0  0  0  0  0  0
  185.0600  178.5480  144.4790 C   0  0  0  0  0  0  0  0  0  0  0  0
  185.9440  178.2460  145.5240 C   0  0  0  0  0  0  0  0  0  0  0  0
  185.6650  178.5540  146.9570 C   0  0  0  0  0  1  0  0  0  0  0  0
  183.7540  179.3690  142.1850 O   0  0  0  0  0  0  0  0  0  0  0  0
  185.5320  178.1730  143.2350 C   0  0  0  0  0  0  0  0  0  0  0  0
  182.9390  179.0610  143.2990 C   0  0  0  0  0  2  0  0  0  0  0  0
  187.0970  177.5970  145.0800 C   0  0  0  0  0  0  0  0  0  0  0  0
  185.5370  178.5770  140.7870 C   0  0  0  0  0  2  0  0  0  0  0  0
  184.6860  178.7810  139.5440 C   0  0  2  0  0  3  0  0  0  0  0  0
  184.1860  180.0850  139.5030 O   0  0  0  0  0  1  0  0  0  0  0  0
  183.5500  177.7470  139.4960 C   0  0  2  0  0  3  0  0  0  0  0  0
  183.4810  176.9570  138.1830 C   0  0  0  0  0  2  0  0  0  0  0  0
  183.6440  175.5710  138.4480 O   0  0  0  0  0  0  0  0  0  0  0  0
  184.2170  174.7030  137.5180 C   0  0  0  0  0  0  0  0  0  0  0  0
  183.9310  173.4770  137.5130 O   0  0  0  0  0  0  0  0  0  0  0  0
  185.1930  175.2410  136.5290 C   0  0  0  0  0  2  0  0  0  0  0  0
  186.9510  173.5660  135.8140 C   0  0  0  0  0  0  0  0  0  0  0  0
  187.7040  173.8850  136.7730 O   0  0  0  0  0  0  0  0  0  0  0  0
  187.3950  172.5320  134.8410 C   0  0  0  0  0  1  0  0  0  0  0  0
  185.6650  174.1730  135.6600 N   0  0  0  0  0  2  0  0  0  0  0  0
  182.2960  178.2260  139.9480 O   0  0  0  0  0  0  0  0  0  0  0  0
  181.2590  177.5000  139.3280 C   0  0  1  0  0  3  0  0  0  0  0  0
  180.7230  176.5750  140.2250 O   0  0  0  0  0  1  0  0  0  0  0  0
  180.1660  178.4440  138.8300 C   0  0  0  0  0  2  0  0  0  0  0  0
  180.6900  179.4070  137.7790 C   0  0  0  0  0  1  0  0  0  0  0  0
  188.2110  177.1010  145.9360 C   0  0  0  0  0  2  0  0  0  0  0  0
  189.0450  178.1650  146.2810 O   0  0  0  0  0  0  0  0  0  0  0  0
  190.0100  178.1860  145.2740 C   0  0  0  0  0  2  0  0  0  0  0  0
  190.8340  176.9110  145.3210 C   0  0  2  0  0  3  0  0  0  0  0  0
  191.8590  177.0550  146.2590 O   0  0  0  0  0  0  0  0  0  0  0  0
  191.6620  176.0210  147.1770 C   0  0  0  0  0  2  0  0  0  0  0  0
  192.8110  175.9360  148.0610 N   0  0  0  0  0  2  0  0  0  0  0  0
  192.6650  176.9980  149.0430 C   0  0  0  0  0  2  0  0  0  0  0  0
  193.8110  176.9330  150.0350 C   0  0  0  0  0  1  0  0  0  0  0  0
  191.4300  176.6660  143.9450 C   0  0  0  0  0  2  0  0  0  0  0  0
  190.3350  176.5760  142.8950 C   0  0  0  0  0  2  0  0  0  0  0  0
  190.9230  176.3790  141.5000 C   0  0  0  0  0  2  0  0  0  0  0  0
  190.4040  177.4300  140.5140 C   0  0  2  0  0  3  0  0  0  0  0  0
  189.3780  178.2990  141.2370 C   0  0  0  0  0  1  0  0  0  0  0  0
  189.7980  176.7830  139.3410 N   0  0  0  0  0  0  0  0  0  0  0  0
  188.5230  177.4370  139.0520 C   0  0  0  0  0  2  0  0  0  0  0  0
  187.5370  178.3450  137.0940 O   0  0  0  0  0  1  0  0  0  0  0  0
  188.1380  177.1990  137.6060 C   0  0  0  0  0  2  0  0  0  0  0  0
  190.6380  177.0580  138.1800 C   0  0  0  0  0  2  0  0  0  0  0  0
  191.5510  175.8770  137.9140 C   0  0  0  0  0  2  0  0  0  0  0  0
  192.9900  176.3150  138.0740 C   0  0  0  0  0  1  0  0  0  0  0  0
  2 10  1  0  0  0  0
  3 11  1  6  0  0  0
  3  7  1  0  0  0  0
  3  8  1  0  0  0  0
  4  1  1  0  0  0  0
  4  5  1  0  0  0  0
  5  6  1  0  0  0  0
  7  9  1  0  0  0  0
  8  2  1  0  0  0  0
  8  4  2  0  0  0  0
  9  1  1  0  0  0  0
 10  5  2  0  0  0  0
 10 29  1  0  0  0  0
 12 13  1  1  0  0  0
 12 11  1  0  0  0  0
 14 15  1  6  0  0  0
 14 12  1  0  0  0  0
 14 24  1  0  0  0  0
 15 16  1  0  0  0  0
 17 16  1  0  0  0  0
 18 17  2  0  0  0  0
 19 17  1  0  0  0  0
 20 21  2  0  0  0  0
 22 20  1  0  0  0  0
 23 20  1  0  0  0  0
 23 19  1  0  0  0  0
 25 24  1  0  0  0  0
 25 26  1  1  0  0  0
 27 25  1  0  0  0  0
 28 27  1  0  0  0  0
 29 30  1  0  0  0  0
 31 32  1  0  0  0  0
 31 30  1  0  0  0  0
 32 38  1  6  0  0  0
 32 33  1  0  0  0  0
 33 34  1  0  0  0  0
 34 35  1  0  0  0  0
 35 36  1  0  0  0  0
 36 37  1  0  0  0  0
 39 38  1  0  0  0  0
 40 39  1  0  0  0  0
 41 42  1  1  0  0  0
 41 40  1  0  0  0  0
 43 41  1  0  0  0  0
 44 43  1  0  0  0  0
 45 46  1  0  0  0  0
 46 44  1  0  0  0  0
 47 43  1  0  0  0  0
 48 49  1  0  0  0  0
 48 47  1  0  0  0  0
M  END
>  <MODEL>
3

>  <REMARK>
 VINA RESULT:      -5.4      2.997      8.115
  Name = 
  28 active torsions:
  status: ('A' for Active; 'I' for Inactive)
    1  A    between atoms: O_1  and  C_19
    2  A    between atoms: O_1  and  C_27
    3  A    between atoms: C_3  and  C_5
    4  A    between atoms: C_3  and  N_39
    5  A    between atoms: C_4  and  O_34
    6  A    between atoms: C_4  and  C_47
    7  A    between atoms: C_5  and  C_18
    8  A    between atoms: C_6  and  C_33
    9  A    between atoms: C_6  and  C_44
   10  A    between atoms: C_8  and  N_24
   11  A    between atoms: C_9  and  C_33
   12  A    between atoms: C_12  and  C_21
   13  A    between atoms: C_17  and  C_19
   14  A    between atoms: C_17  and  O_36
   15  A    between atoms: C_18  and  C_37
   16  A    between atoms: C_19  and  C_37
   17  A    between atoms: C_21  and  N_39
   18  A    between atoms: C_22  and  C_25
   19  A    between atoms: C_22  and  N_43
   20  A    between atoms: C_23  and  O_36
   21  A    between atoms: C_23  and  C_42
   22  A    between atoms: N_24  and  C_27
   23  A    between atoms: C_25  and  O_46
   24  A    between atoms: C_32  and  C_40
   25  A    between atoms: O_34  and  C_44
   26  A    between atoms: N_39  and  C_40
   27  A    between atoms: C_44  and  C_49
   28  A    between atoms: O_46  and  C_49
                            x       y       z     vdW  Elec       q    Type
                         _______ _______ _______ _____ _____    ______ ____

>  <TORSDO>
F 28

$$$$
=
 OpenBabel11062414023D

 49 50  0  0  1  0  0  0  0  0999 V2000
  188.9380  176.6520  144.2340 C   0  0  0  0  0  2  0  0  0  0  0  0
  187.1690  178.5540  141.2590 S   0  0  0  0  0  0  0  0  0  0  0  0
  189.7540  177.3220  141.5160 C   0  0  2  0  0  3  0  0  0  0  0  0
  188.0120  177.3990  143.3230 C   0  0  0  0  0  0  0  0  0  0  0  0
  186.7350  177.8790  143.6480 C   0  0  0  0  0  0  0  0  0  0  0  0
  186.1150  177.7250  144.9960 C   0  0  0  0  0  1  0  0  0  0  0  0
  190.2770  176.2310  142.2510 O   0  0  0  0  0  0  0  0  0  0  0  0
  188.3770  177.6560  142.0140 C   0  0  0  0  0  0  0  0  0  0  0  0
  190.3480  176.6150  143.6110 C   0  0  0  0  0  2  0  0  0  0  0  0
  186.1250  178.5440  142.5850 C   0  0  0  0  0  0  0  0  0  0  0  0
  189.7100  176.9670  140.0380 C   0  0  0  0  0  2  0  0  0  0  0  0
  191.0660  176.4880  139.5440 C   0  0  2  0  0  3  0  0  0  0  0  0
  192.0300  177.4830  139.7240 O   0  0  0  0  0  1  0  0  0  0  0  0
  190.9790  176.0560  138.0720 C   0  0  2  0  0  3  0  0  0  0  0  0
  191.9700  174.9520  137.6860 C   0  0  0  0  0  2  0  0  0  0  0  0
  193.2210  175.5300  137.3400 O   0  0  0  0  0  0  0  0  0  0  0  0
  194.1490  174.8590  136.5410 C   0  0  0  0  0  0  0  0  0  0  0  0
  194.4180  173.6450  136.7400 O   0  0  0  0  0  0  0  0  0  0  0  0
  194.8390  175.6030  135.4500 C   0  0  0  0  0  2  0  0  0  0  0  0
  197.3480  175.2770  135.4230 C   0  0  0  0  0  0  0  0  0  0  0  0
  197.5220  176.2330  136.2270 O   0  0  0  0  0  0  0  0  0  0  0  0
  198.5250  174.5360  134.8940 C   0  0  0  0  0  1  0  0  0  0  0  0
  196.0310  174.8820  135.0290 N   0  0  0  0  0  2  0  0  0  0  0  0
  190.9170  177.1260  137.1450 O   0  0  0  0  0  0  0  0  0  0  0  0
  189.6690  177.1140  136.4900 C   0  0  1  0  0  3  0  0  0  0  0  0
  189.0210  178.3360  136.6810 O   0  0  0  0  0  1  0  0  0  0  0  0
  189.8480  176.8410  134.9980 C   0  0  0  0  0  2  0  0  0  0  0  0
  189.6090  175.3790  134.6610 C   0  0  0  0  0  1  0  0  0  0  0  0
  184.7920  179.2090  142.6130 C   0  0  0  0  0  2  0  0  0  0  0  0
  183.7880  178.2480  142.4840 O   0  0  0  0  0  0  0  0  0  0  0  0
  183.6810  178.0430  141.1090 C   0  0  0  0  0  2  0  0  0  0  0  0
  182.3840  178.6460  140.5970 C   0  0  2  0  0  3  0  0  0  0  0  0
  181.3280  177.7690  140.8580 O   0  0  0  0  0  0  0  0  0  0  0  0
  180.1740  178.5470  140.7610 C   0  0  0  0  0  2  0  0  0  0  0  0
  179.2230  178.1280  141.7740 N   0  0  0  0  0  2  0  0  0  0  0  0
  179.6900  178.6730  143.0380 C   0  0  0  0  0  2  0  0  0  0  0  0
  179.7340  180.1870  142.9540 C   0  0  0  0  0  1  0  0  0  0  0  0
  182.5090  178.8650  139.0980 C   0  0  0  0  0  2  0  0  0  0  0  0
  183.4680  177.8570  138.4870 C   0  0  0  0  0  2  0  0  0  0  0  0
  182.9310  177.3160  137.1650 C   0  0  0  0  0  2  0  0  0  0  0  0
  182.8960  175.7840  137.1540 C   0  0  2  0  0  3  0  0  0  0  0  0
  182.5060  175.3040  138.5490 C   0  0  0  0  0  1  0  0  0  0  0  0
  184.2060  175.2400  136.7670 N   0  0  0  0  0  0  0  0  0  0  0  0
  184.0460  173.8240  136.4410 C   0  0  0  0  0  2  0  0  0  0  0  0
  185.4390  173.0600  138.2050 O   0  0  0  0  0  1  0  0  0  0  0  0
  185.3010  173.0640  136.8200 C   0  0  0  0  0  2  0  0  0  0  0  0
  184.6160  175.8730  135.5190 C   0  0  0  0  0  2  0  0  0  0  0  0
  186.0180  176.4320  135.6610 C   0  0  0  0  0  2  0  0  0  0  0  0
  186.1960  177.5820  134.6950 C   0  0  0  0  0  1  0  0  0  0  0  0
  2  8  1  0  0  0  0
  2 10  1  0  0  0  0
  3 11  1  6  0  0  0
  3  8  1  0  0  0  0
  3  7  1  0  0  0  0
  4  5  1  0  0  0  0
  4  1  1  0  0  0  0
  5  6  1  0  0  0  0
  7  9  1  0  0  0  0
  8  4  2  0  0  0  0
  9  1  1  0  0  0  0
 10 29  1  0  0  0  0
 10  5  2  0  0  0  0
 12 13  1  6  0  0  0
 12 11  1  0  0  0  0
 14 15  1  6  0  0  0
 14 12  1  0  0  0  0
 16 15  1  0  0  0  0
 17 18  2  0  0  0  0
 17 16  1  0  0  0  0
 19 17  1  0  0  0  0
 20 21  2  0  0  0  0
 22 20  1  0  0  0  0
 23 20  1  0  0  0  0
 23 19  1  0  0  0  0
 24 14  1  0  0  0  0
 25 26  1  6  0  0  0
 25 24  1  0  0  0  0
 27 25  1  0  0  0  0
 28 27  1  0  0  0  0
 30 29  1  0  0  0  0
 31 30  1  0  0  0  0
 32 38  1  6  0  0  0
 32 33  1  0  0  0  0
 32 31  1  0  0  0  0
 34 33  1  0  0  0  0
 34 35  1  0  0  0  0
 35 36  1  0  0  0  0
 37 36  1  0  0  0  0
 39 38  1  0  0  0  0
 40 39  1  0  0  0  0
 41 40  1  0  0  0  0
 41 42  1  1  0  0  0
 43 41  1  0  0  0  0
 44 43  1  0  0  0  0
 44 46  1  0  0  0  0
 46 45  1  0  0  0  0
 47 48  1  0  0  0  0
 47 43  1  0  0  0  0
 49 48  1  0  0  0  0
M  END
>  <MODEL>
4

>  <REMARK>
 VINA RESULT:      -5.2      1.952      3.103
  Name = 
  28 active torsions:
  status: ('A' for Active; 'I' for Inactive)
    1  A    between atoms: O_1  and  C_19
    2  A    between atoms: O_1  and  C_27
    3  A    between atoms: C_3  and  C_5
    4  A    between atoms: C_3  and  N_39
    5  A    between atoms: C_4  and  O_34
    6  A    between atoms: C_4  and  C_47
    7  A    between atoms: C_5  and  C_18
    8  A    between atoms: C_6  and  C_33
    9  A    between atoms: C_6  and  C_44
   10  A    between atoms: C_8  and  N_24
   11  A    between atoms: C_9  and  C_33
   12  A    between atoms: C_12  and  C_21
   13  A    between atoms: C_17  and  C_19
   14  A    between atoms: C_17  and  O_36
   15  A    between atoms: C_18  and  C_37
   16  A    between atoms: C_19  and  C_37
   17  A    between atoms: C_21  and  N_39
   18  A    between atoms: C_22  and  C_25
   19  A    between atoms: C_22  and  N_43
   20  A    between atoms: C_23  and  O_36
   21  A    between atoms: C_23  and  C_42
   22  A    between atoms: N_24  and  C_27
   23  A    between atoms: C_25  and  O_46
   24  A    between atoms: C_32  and  C_40
   25  A    between atoms: O_34  and  C_44
   26  A    between atoms: N_39  and  C_40
   27  A    between atoms: C_44  and  C_49
   28  A    between atoms: O_46  and  C_49
                            x       y       z     vdW  Elec       q    Type
                         _______ _______ _______ _____ _____    ______ ____

>  <TORSDO>
F 28

$$$$
=
 OpenBabel11062414023D

 49 50  0  0  1  0  0  0  0  0999 V2000
  189.3400  177.1290  144.9610 C   0  0  0  0  0  2  0  0  0  0  0  0
  187.0630  178.2650  141.9410 S   0  0  0  0  0  0  0  0  0  0  0  0
  189.8780  177.7210  142.1580 C   0  0  2  0  0  3  0  0  0  0  0  0
  188.2300  177.5440  144.0440 C   0  0  0  0  0  0  0  0  0  0  0  0
  186.8860  177.7300  144.3980 C   0  0  0  0  0  0  0  0  0  0  0  0
  186.3660  177.5570  145.7850 C   0  0  0  0  0  1  0  0  0  0  0  0
  190.6750  176.8610  142.9500 O   0  0  0  0  0  0  0  0  0  0  0  0
  188.4780  177.7580  142.7000 C   0  0  0  0  0  0  0  0  0  0  0  0
  190.6940  177.3750  144.2670 C   0  0  0  0  0  2  0  0  0  0  0  0
  186.0970  178.1280  143.3180 C   0  0  0  0  0  0  0  0  0  0  0  0
  189.8730  177.2300  140.7180 C   0  0  0  0  0  2  0  0  0  0  0  0
  191.2570  176.7740  140.2850 C   0  0  2  0  0  3  0  0  0  0  0  0
  192.1710  177.8260  140.3860 O   0  0  0  0  0  1  0  0  0  0  0  0
  191.2140  176.2080  138.8570 C   0  0  2  0  0  3  0  0  0  0  0  0
  192.4410  176.5610  138.0090 C   0  0  0  0  0  2  0  0  0  0  0  0
  193.4570  175.5870  138.2070 O   0  0  0  0  0  0  0  0  0  0  0  0
  194.2070  175.0760  137.1460 C   0  0  0  0  0  0  0  0  0  0  0  0
  193.8850  175.3110  135.9520 O   0  0  0  0  0  0  0  0  0  0  0  0
  195.3950  174.2260  137.4400 C   0  0  0  0  0  2  0  0  0  0  0  0
  195.7900  171.7380  137.6790 C   0  0  0  0  0  0  0  0  0  0  0  0
  196.9620  171.8390  137.2260 O   0  0  0  0  0  0  0  0  0  0  0  0
  195.2580  170.4010  138.0580 C   0  0  0  0  0  1  0  0  0  0  0  0
  194.9700  172.8970  137.8530 N   0  0  0  0  0  2  0  0  0  0  0  0
  189.9780  176.3880  138.1880 O   0  0  0  0  0  0  0  0  0  0  0  0
  190.2070  176.5660  136.8090 C   0  0  1  0  0  3  0  0  0  0  0  0
  189.8990  175.3910  136.1210 O   0  0  0  0  0  1  0  0  0  0  0  0
  189.3720  177.7250  136.2710 C   0  0  0  0  0  2  0  0  0  0  0  0
  188.9490  178.6760  137.3780 C   0  0  0  0  0  1  0  0  0  0  0  0
  184.6430  178.4520  143.3640 C   0  0  0  0  0  2  0  0  0  0  0  0
  184.0190  177.9650  142.2150 O   0  0  0  0  0  0  0  0  0  0  0  0
  182.8710  178.7470  142.0890 C   0  0  0  0  0  2  0  0  0  0  0  0
  182.2600  178.5470  140.7130 C   0  0  2  0  0  3  0  0  0  0  0  0
  181.1550  177.6970  140.8140 O   0  0  0  0  0  0  0  0  0  0  0  0
  180.0740  178.5350  141.0950 C   0  0  0  0  0  2  0  0  0  0  0  0
  179.3520  178.0220  142.2450 N   0  0  0  0  0  2  0  0  0  0  0  0
  178.9310  179.1750  143.0240 C   0  0  0  0  0  2  0  0  0  0  0  0
  179.1930  178.9170  144.4960 C   0  0  0  0  0  1  0  0  0  0  0  0
  183.3050  177.9210  139.8040 C   0  0  0  0  0  2  0  0  0  0  0  0
  182.6540  177.3410  138.5600 C   0  0  0  0  0  2  0  0  0  0  0  0
  183.2210  175.9620  138.2320 C   0  0  0  0  0  2  0  0  0  0  0  0
  183.9710  175.9620  136.8960 C   0  0  2  0  0  3  0  0  0  0  0  0
  183.4430  177.1180  136.0510 C   0  0  0  0  0  1  0  0  0  0  0  0
  183.7810  174.6820  136.1970 N   0  0  0  0  0  0  0  0  0  0  0  0
  184.7880  174.5720  135.1420 C   0  0  0  0  0  2  0  0  0  0  0  0
  186.8850  175.6450  134.8550 O   0  0  0  0  0  1  0  0  0  0  0  0
  186.1670  174.8230  135.7180 C   0  0  0  0  0  2  0  0  0  0  0  0
  184.0870  173.6010  137.1270 C   0  0  0  0  0  2  0  0  0  0  0  0
  183.0310  172.5180  137.0230 C   0  0  0  0  0  2  0  0  0  0  0  0
  183.6860  171.2240  136.5970 C   0  0  0  0  0  1  0  0  0  0  0  0
  2  8  1  0  0  0  0
  2 10  1  0  0  0  0
  3 11  1  6  0  0  0
  3  8  1  0  0  0  0
  3  7  1  0  0  0  0
  4  5  1  0  0  0  0
  4  1  1  0  0  0  0
  5  6  1  0  0  0  0
  7  9  1  0  0  0  0
  8  4  2  0  0  0  0
  9  1  1  0  0  0  0
 10 29  1  0  0  0  0
 10  5  2  0  0  0  0
 12 13  1  6  0  0  0
 12 11  1  0  0  0  0
 14 15  1  6  0  0  0
 14 12  1  0  0  0  0
 15 16  1  0  0  0  0
 17 19  1  0  0  0  0
 17 16  1  0  0  0  0
 18 17  2  0  0  0  0
 19 23  1  0  0  0  0
 20 23  1  0  0  0  0
 20 22  1  0  0  0  0
 21 20  2  0  0  0  0
 24 14  1  0  0  0  0
 25 26  1  6  0  0  0
 25 24  1  0  0  0  0
 27 25  1  0  0  0  0
 27 28  1  0  0  0  0
 30 29  1  0  0  0  0
 31 30  1  0  0  0  0
 32 38  1  6  0  0  0
 32 33  1  0  0  0  0
 32 31  1  0  0  0  0
 33 34  1  0  0  0  0
 34 35  1  0  0  0  0
 35 36  1  0  0  0  0
 36 37  1  0  0  0  0
 39 38  1  0  0  0  0
 40 39  1  0  0  0  0
 41 42  1  6  0  0  0
 41 40  1  0  0  0  0
 43 41  1  0  0  0  0
 43 47  1  0  0  0  0
 44 46  1  0  0  0  0
 44 43  1  0  0  0  0
 45 46  1  0  0  0  0
 48 47  1  0  0  0  0
 49 48  1  0  0  0  0
M  END
>  <MODEL>
5

>  <REMARK>
 VINA RESULT:      -5.2      1.852      2.752
  Name = 
  28 active torsions:
  status: ('A' for Active; 'I' for Inactive)
    1  A    between atoms: O_1  and  C_19
    2  A    between atoms: O_1  and  C_27
    3  A    between atoms: C_3  and  C_5
    4  A    between atoms: C_3  and  N_39
    5  A    between atoms: C_4  and  O_34
    6  A    between atoms: C_4  and  C_47
    7  A    between atoms: C_5  and  C_18
    8  A    between atoms: C_6  and  C_33
    9  A    between atoms: C_6  and  C_44
   10  A    between atoms: C_8  and  N_24
   11  A    between atoms: C_9  and  C_33
   12  A    between atoms: C_12  and  C_21
   13  A    between atoms: C_17  and  C_19
   14  A    between atoms: C_17  and  O_36
   15  A    between atoms: C_18  and  C_37
   16  A    between atoms: C_19  and  C_37
   17  A    between atoms: C_21  and  N_39
   18  A    between atoms: C_22  and  C_25
   19  A    between atoms: C_22  and  N_43
   20  A    between atoms: C_23  and  O_36
   21  A    between atoms: C_23  and  C_42
   22  A    between atoms: N_24  and  C_27
   23  A    between atoms: C_25  and  O_46
   24  A    between atoms: C_32  and  C_40
   25  A    between atoms: O_34  and  C_44
   26  A    between atoms: N_39  and  C_40
   27  A    between atoms: C_44  and  C_49
   28  A    between atoms: O_46  and  C_49
                            x       y       z     vdW  Elec       q    Type
                         _______ _______ _______ _____ _____    ______ ____

>  <TORSDO>
F 28

$$$$
=
 OpenBabel11062414023D

 49 50  0  0  1  0  0  0  0  0999 V2000
  188.8820  176.6990  144.2100 C   0  0  0  0  0  2  0  0  0  0  0  0
  187.4820  178.4480  140.9580 S   0  0  0  0  0  0  0  0  0  0  0  0
  190.0110  177.2270  141.5740 C   0  0  2  0  0  3  0  0  0  0  0  0
  188.0730  177.4000  143.1610 C   0  0  0  0  0  0  0  0  0  0  0  0
  186.7710  177.8980  143.3120 C   0  0  0  0  0  0  0  0  0  0  0  0
  185.9980  177.8140  144.5850 C   0  0  0  0  0  1  0  0  0  0  0  0
  190.4370  176.1750  142.4190 O   0  0  0  0  0  0  0  0  0  0  0  0
  188.5880  177.5880  141.8920 C   0  0  0  0  0  0  0  0  0  0  0  0
  190.3540  176.6280  143.7560 C   0  0  0  0  0  2  0  0  0  0  0  0
  186.2920  178.5090  142.1520 C   0  0  0  0  0  0  0  0  0  0  0  0
  190.1340  176.7960  140.1210 C   0  0  0  0  0  2  0  0  0  0  0  0
  191.5780  176.4890  139.7560 C   0  0  2  0  0  3  0  0  0  0  0  0
  192.3830  177.6130  139.9610 O   0  0  0  0  0  1  0  0  0  0  0  0
  191.6720  175.9930  138.3050 C   0  0  2  0  0  3  0  0  0  0  0  0
  192.7970  176.6470  137.4940 C   0  0  0  0  0  2  0  0  0  0  0  0
  193.9760  175.8600  137.5890 O   0  0  0  0  0  0  0  0  0  0  0  0
  194.4590  175.1180  136.5100 C   0  0  0  0  0  0  0  0  0  0  0  0
  193.7500  174.9250  135.4880 O   0  0  0  0  0  0  0  0  0  0  0  0
  195.8280  174.5360  136.5840 C   0  0  0  0  0  2  0  0  0  0  0  0
  196.4160  174.3590  139.0390 C   0  0  0  0  0  0  0  0  0  0  0  0
  195.7850  173.2730  139.1540 O   0  0  0  0  0  0  0  0  0  0  0  0
  197.0850  174.9520  140.2290 C   0  0  0  0  0  1  0  0  0  0  0  0
  196.5140  175.0180  137.7740 N   0  0  0  0  0  2  0  0  0  0  0  0
  190.4320  175.9270  137.6230 O   0  0  0  0  0  0  0  0  0  0  0  0
  190.4230  174.8100  136.7630 C   0  0  1  0  0  3  0  0  0  0  0  0
  190.0410  173.6690  137.4700 O   0  0  0  0  0  1  0  0  0  0  0  0
  189.4730  175.0430  135.5900 C   0  0  0  0  0  2  0  0  0  0  0  0
  189.3820  176.5150  135.2240 C   0  0  0  0  0  1  0  0  0  0  0  0
  184.9690  179.1760  141.9930 C   0  0  0  0  0  2  0  0  0  0  0  0
  183.9510  178.2310  142.1160 O   0  0  0  0  0  0  0  0  0  0  0  0
  183.6760  177.8460  140.8040 C   0  0  0  0  0  2  0  0  0  0  0  0
  183.5740  179.0760  139.9170 C   0  0  2  0  0  3  0  0  0  0  0  0
  182.2310  179.4400  139.7810 O   0  0  0  0  0  0  0  0  0  0  0  0
  182.2110  180.3810  138.7500 C   0  0  0  0  0  2  0  0  0  0  0  0
  180.8730  180.4580  138.1930 N   0  0  0  0  0  2  0  0  0  0  0  0
  180.9620  179.9850  136.8210 C   0  0  0  0  0  2  0  0  0  0  0  0
  180.6410  181.1240  135.8700 C   0  0  0  0  0  1  0  0  0  0  0  0
  184.1530  178.7400  138.5530 C   0  0  0  0  0  2  0  0  0  0  0  0
  183.7220  177.3510  138.1140 C   0  0  0  0  0  2  0  0  0  0  0  0
  183.6870  177.2380  136.5930 C   0  0  0  0  0  2  0  0  0  0  0  0
  184.9250  176.5180  136.0500 C   0  0  2  0  0  3  0  0  0  0  0  0
  185.3040  177.1550  134.7160 C   0  0  0  0  0  1  0  0  0  0  0  0
  184.6550  175.0830  135.8800 N   0  0  0  0  0  0  0  0  0  0  0  0
  183.8070  174.9040  134.7020 C   0  0  0  0  0  2  0  0  0  0  0  0
  182.6540  173.7190  136.4040 O   0  0  0  0  0  1  0  0  0  0  0  0
  182.5630  174.1250  135.0760 C   0  0  0  0  0  2  0  0  0  0  0  0
  185.9080  174.4140  135.5500 C   0  0  0  0  0  2  0  0  0  0  0  0
  186.2780  173.4410  136.6530 C   0  0  0  0  0  2  0  0  0  0  0  0
  186.1350  172.0270  136.1370 C   0  0  0  0  0  1  0  0  0  0  0  0
  2  8  1  0  0  0  0
  2 10  1  0  0  0  0
  3 11  1  6  0  0  0
  3  8  1  0  0  0  0
  3  7  1  0  0  0  0
  4  5  1  0  0  0  0
  4  1  1  0  0  0  0
  5  6  1  0  0  0  0
  7  9  1  0  0  0  0
  8  4  2  0  0  0  0
  9  1  1  0  0  0  0
 10  5  2  0  0  0  0
 12 13  1  6  0  0  0
 12 11  1  0  0  0  0
 14 15  1  6  0  0  0
 14 12  1  0  0  0  0
 15 16  1  0  0  0  0
 17 19  1  0  0  0  0
 17 16  1  0  0  0  0
 18 17  2  0  0  0  0
 19 23  1  0  0  0  0
 20 21  2  0  0  0  0
 20 22  1  0  0  0  0
 23 20  1  0  0  0  0
 24 14  1  0  0  0  0
 25 26  1  1  0  0  0
 25 24  1  0  0  0  0
 27 25  1  0  0  0  0
 28 27  1  0  0  0  0
 29 30  1  0  0  0  0
 29 10  1  0  0  0  0
 31 30  1  0  0  0  0
 32 38  1  6  0  0  0
 32 31  1  0  0  0  0
 33 32  1  0  0  0  0
 34 33  1  0  0  0  0
 35 34  1  0  0  0  0
 36 35  1  0  0  0  0
 37 36  1  0  0  0  0
 39 38  1  0  0  0  0
 40 39  1  0  0  0  0
 41 42  1  6  0  0  0
 41 40  1  0  0  0  0
 43 41  1  0  0  0  0
 44 46  1  0  0  0  0
 44 43  1  0  0  0  0
 46 45  1  0  0  0  0
 47 43  1  0  0  0  0
 47 48  1  0  0  0  0
 49 48  1  0  0  0  0
M  END
>  <MODEL>
6

>  <REMARK>
 VINA RESULT:      -5.2      2.467      3.758
  Name = 
  28 active torsions:
  status: ('A' for Active; 'I' for Inactive)
    1  A    between atoms: O_1  and  C_19
    2  A    between atoms: O_1  and  C_27
    3  A    between atoms: C_3  and  C_5
    4  A    between atoms: C_3  and  N_39
    5  A    between atoms: C_4  and  O_34
    6  A    between atoms: C_4  and  C_47
    7  A    between atoms: C_5  and  C_18
    8  A    between atoms: C_6  and  C_33
    9  A    between atoms: C_6  and  C_44
   10  A    between atoms: C_8  and  N_24
   11  A    between atoms: C_9  and  C_33
   12  A    between atoms: C_12  and  C_21
   13  A    between atoms: C_17  and  C_19
   14  A    between atoms: C_17  and  O_36
   15  A    between atoms: C_18  and  C_37
   16  A    between atoms: C_19  and  C_37
   17  A    between atoms: C_21  and  N_39
   18  A    between atoms: C_22  and  C_25
   19  A    between atoms: C_22  and  N_43
   20  A    between atoms: C_23  and  O_36
   21  A    between atoms: C_23  and  C_42
   22  A    between atoms: N_24  and  C_27
   23  A    between atoms: C_25  and  O_46
   24  A    between atoms: C_32  and  C_40
   25  A    between atoms: O_34  and  C_44
   26  A    between atoms: N_39  and  C_40
   27  A    between atoms: C_44  and  C_49
   28  A    between atoms: O_46  and  C_49
                            x       y       z     vdW  Elec       q    Type
                         _______ _______ _______ _____ _____    ______ ____

>  <TORSDO>
F 28

$$$$
=
 OpenBabel11062414023D

 49 50  0  0  1  0  0  0  0  0999 V2000
  182.0520  179.0250  144.2340 C   0  0  0  0  0  2  0  0  0  0  0  0
  184.5410  178.3470  141.2440 S   0  0  0  0  0  0  0  0  0  0  0  0
  181.6990  178.7630  141.3530 C   0  0  2  0  0  3  0  0  0  0  0  0
  183.2290  178.7640  143.3430 C   0  0  0  0  0  0  0  0  0  0  0  0
  184.5570  178.5830  143.7540 C   0  0  0  0  0  0  0  0  0  0  0  0
  184.9900  178.6030  145.1810 C   0  0  0  0  0  1  0  0  0  0  0  0
  180.8230  179.4910  142.1920 O   0  0  0  0  0  0  0  0  0  0  0  0
  183.0660  178.7080  141.9710 C   0  0  0  0  0  0  0  0  0  0  0  0
  180.7510  178.8190  143.4350 C   0  0  0  0  0  2  0  0  0  0  0  0
  185.4210  178.3480  142.6840 C   0  0  0  0  0  0  0  0  0  0  0  0
  181.7640  179.4260  139.9850 C   0  0  0  0  0  2  0  0  0  0  0  0
  180.5420  179.0840  139.1470 C   0  0  2  0  0  3  0  0  0  0  0  0
  180.2280  177.7280  139.2730 O   0  0  0  0  0  1  0  0  0  0  0  0
  180.7760  179.4680  137.6770 C   0  0  2  0  0  3  0  0  0  0  0  0
  181.3120  178.3220  136.8110 C   0  0  0  0  0  2  0  0  0  0  0  0
  182.7100  178.1750  137.0210 O   0  0  0  0  0  0  0  0  0  0  0  0
  183.2840  176.9420  137.3330 C   0  0  0  0  0  0  0  0  0  0  0  0
  183.3520  176.5410  138.5250 O   0  0  0  0  0  0  0  0  0  0  0  0
  183.8380  176.1010  136.2350 C   0  0  0  0  0  2  0  0  0  0  0  0
  183.6810  173.5940  136.5480 C   0  0  0  0  0  0  0  0  0  0  0  0
  182.6690  173.5230  135.8000 O   0  0  0  0  0  0  0  0  0  0  0  0
  184.2120  172.3610  137.1900 C   0  0  0  0  0  1  0  0  0  0  0  0
  184.3390  174.8440  136.7710 N   0  0  0  0  0  2  0  0  0  0  0  0
  181.4510  180.6990  137.4890 O   0  0  0  0  0  0  0  0  0  0  0  0
  180.5150  181.7160  137.2150 C   0  0  1  0  0  3  0  0  0  0  0  0
  180.7860  182.8360  138.0020 O   0  0  0  0  0  1  0  0  0  0  0  0
  180.5480  182.0930  135.7350 C   0  0  0  0  0  2  0  0  0  0  0  0
  180.7810  183.5810  135.5380 C   0  0  0  0  0  1  0  0  0  0  0  0
  186.8830  178.0720  142.7790 C   0  0  0  0  0  2  0  0  0  0  0  0
  187.4570  178.1460  141.5100 O   0  0  0  0  0  0  0  0  0  0  0  0
  188.7790  178.5170  141.7500 C   0  0  0  0  0  2  0  0  0  0  0  0
  189.6160  177.2840  142.0440 C   0  0  2  0  0  3  0  0  0  0  0  0
  189.4090  176.8870  143.3680 O   0  0  0  0  0  0  0  0  0  0  0  0
  190.4340  177.4940  144.0960 C   0  0  0  0  0  2  0  0  0  0  0  0
  189.8850  178.0790  145.3050 N   0  0  0  0  0  2  0  0  0  0  0  0
  189.2550  176.9980  146.0460 C   0  0  0  0  0  2  0  0  0  0  0  0
  188.0970  177.5470  146.8580 C   0  0  0  0  0  1  0  0  0  0  0  0
  191.0810  177.6300  141.8380 C   0  0  0  0  0  2  0  0  0  0  0  0
  191.4990  177.3550  140.4030 C   0  0  0  0  0  2  0  0  0  0  0  0
  190.4080  176.6040  139.6440 C   0  0  0  0  0  2  0  0  0  0  0  0
  190.6070  176.6980  138.1280 C   0  0  2  0  0  3  0  0  0  0  0  0
  189.2650  177.0450  137.4900 C   0  0  0  0  0  1  0  0  0  0  0  0
  191.1200  175.4270  137.5950 N   0  0  0  0  0  0  0  0  0  0  0  0
  190.1740  174.9220  136.6010 C   0  0  0  0  0  2  0  0  0  0  0  0
  189.1810  172.9210  135.8000 O   0  0  0  0  0  1  0  0  0  0  0  0
  189.8500  173.4700  136.8900 C   0  0  0  0  0  2  0  0  0  0  0  0
  192.3430  175.7010  136.8500 C   0  0  0  0  0  2  0  0  0  0  0  0
  193.5350  175.6650  137.7870 C   0  0  0  0  0  2  0  0  0  0  0  0
  194.4740  174.5610  137.3570 C   0  0  0  0  0  1  0  0  0  0  0  0
  2  8  1  0  0  0  0
  2 10  1  0  0  0  0
  3 11  1  6  0  0  0
  3  8  1  0  0  0  0
  3  7  1  0  0  0  0
  4  5  1  0  0  0  0
  4  1  1  0  0  0  0
  5  6  1  0  0  0  0
  7  9  1  0  0  0  0
  8  4  2  0  0  0  0
  9  1  1  0  0  0  0
 10 29  1  0  0  0  0
 10  5  2  0  0  0  0
 12 13  1  6  0  0  0
 12 11  1  0  0  0  0
 14 15  1  1  0  0  0
 14 12  1  0  0  0  0
 15 16  1  0  0  0  0
 16 17  1  0  0  0  0
 17 18  2  0  0  0  0
 19 23  1  0  0  0  0
 19 17  1  0  0  0  0
 20 23  1  0  0  0  0
 20 22  1  0  0  0  0
 21 20  2  0  0  0  0
 24 14  1  0  0  0  0
 25 24  1  0  0  0  0
 25 26  1  1  0  0  0
 27 25  1  0  0  0  0
 28 27  1  0  0  0  0
 30 31  1  0  0  0  0
 30 29  1  0  0  0  0
 32 31  1  1  0  0  0
 32 33  1  0  0  0  0
 33 34  1  0  0  0  0
 34 35  1  0  0  0  0
 35 36  1  0  0  0  0
 36 37  1  0  0  0  0
 38 32  1  0  0  0  0
 39 38  1  0  0  0  0
 40 39  1  0  0  0  0
 41 42  1  6  0  0  0
 41 40  1  0  0  0  0
 43 41  1  0  0  0  0
 44 46  1  0  0  0  0
 44 43  1  0  0  0  0
 45 46  1  0  0  0  0
 47 43  1  0  0  0  0
 47 48  1  0  0  0  0
 49 48  1  0  0  0  0
M  END
>  <MODEL>
7

>  <REMARK>
 VINA RESULT:      -5.1      3.190      8.936
  Name = 
  28 active torsions:
  status: ('A' for Active; 'I' for Inactive)
    1  A    between atoms: O_1  and  C_19
    2  A    between atoms: O_1  and  C_27
    3  A    between atoms: C_3  and  C_5
    4  A    between atoms: C_3  and  N_39
    5  A    between atoms: C_4  and  O_34
    6  A    between atoms: C_4  and  C_47
    7  A    between atoms: C_5  and  C_18
    8  A    between atoms: C_6  and  C_33
    9  A    between atoms: C_6  and  C_44
   10  A    between atoms: C_8  and  N_24
   11  A    between atoms: C_9  and  C_33
   12  A    between atoms: C_12  and  C_21
   13  A    between atoms: C_17  and  C_19
   14  A    between atoms: C_17  and  O_36
   15  A    between atoms: C_18  and  C_37
   16  A    between atoms: C_19  and  C_37
   17  A    between atoms: C_21  and  N_39
   18  A    between atoms: C_22  and  C_25
   19  A    between atoms: C_22  and  N_43
   20  A    between atoms: C_23  and  O_36
   21  A    between atoms: C_23  and  C_42
   22  A    between atoms: N_24  and  C_27
   23  A    between atoms: C_25  and  O_46
   24  A    between atoms: C_32  and  C_40
   25  A    between atoms: O_34  and  C_44
   26  A    between atoms: N_39  and  C_40
   27  A    between atoms: C_44  and  C_49
   28  A    between atoms: O_46  and  C_49
                            x       y       z     vdW  Elec       q    Type
                         _______ _______ _______ _____ _____    ______ ____

>  <TORSDO>
F 28

$$$$
=
 OpenBabel11062414023D

 49 50  0  0  1  0  0  0  0  0999 V2000
  190.9890  176.3240  145.6420 C   0  0  0  0  0  2  0  0  0  0  0  0
  187.9140  178.0290  143.8420 S   0  0  0  0  0  0  0  0  0  0  0  0
  190.3790  176.9250  142.8550 C   0  0  2  0  0  3  0  0  0  0  0  0
  189.7000  176.9940  145.2710 C   0  0  0  0  0  0  0  0  0  0  0  0
  188.7050  177.4280  146.1590 C   0  0  0  0  0  0  0  0  0  0  0  0
  188.8070  177.2980  147.6410 C   0  0  0  0  0  1  0  0  0  0  0  0
  191.2490  175.8890  143.2670 O   0  0  0  0  0  0  0  0  0  0  0  0
  189.3850  177.2160  143.9430 C   0  0  0  0  0  0  0  0  0  0  0  0
  191.9340  176.3280  144.4240 C   0  0  0  0  0  2  0  0  0  0  0  0
  187.6260  178.0230  145.5050 C   0  0  0  0  0  0  0  0  0  0  0  0
  189.6600  176.5120  141.5800 C   0  0  0  0  0  2  0  0  0  0  0  0
  189.8340  177.5520  140.4850 C   0  0  2  0  0  3  0  0  0  0  0  0
  188.6810  178.3310  140.3640 O   0  0  0  0  0  1  0  0  0  0  0  0
  190.1920  176.8740  139.1530 C   0  0  2  0  0  3  0  0  0  0  0  0
  191.6750  176.5090  139.0180 C   0  0  0  0  0  2  0  0  0  0  0  0
  192.1080  176.7430  137.6850 O   0  0  0  0  0  0  0  0  0  0  0  0
  193.2400  176.1220  137.1560 C   0  0  0  0  0  0  0  0  0  0  0  0
  194.2510  175.8980  137.8720 O   0  0  0  0  0  0  0  0  0  0  0  0
  193.2510  175.7360  135.7170 C   0  0  0  0  0  2  0  0  0  0  0  0
  193.2750  173.2310  135.3600 C   0  0  0  0  0  0  0  0  0  0  0  0
  194.5330  173.1910  135.4360 O   0  0  0  0  0  0  0  0  0  0  0  0
  192.5120  171.9790  135.1050 C   0  0  0  0  0  1  0  0  0  0  0  0
  192.5700  174.4630  135.5360 N   0  0  0  0  0  2  0  0  0  0  0  0
  189.6450  177.5000  138.0060 O   0  0  0  0  0  0  0  0  0  0  0  0
  188.7780  176.6070  137.3470 C   0  0  1  0  0  3  0  0  0  0  0  0
  187.5680  176.5210  138.0380 O   0  0  0  0  0  1  0  0  0  0  0  0
  188.5310  177.0600  135.9090 C   0  0  0  0  0  2  0  0  0  0  0  0
  189.7860  176.9460  135.0600 C   0  0  0  0  0  1  0  0  0  0  0  0
  186.4290  178.6280  146.1550 C   0  0  0  0  0  2  0  0  0  0  0  0
  185.2980  177.8710  145.8480 O   0  0  0  0  0  0  0  0  0  0  0  0
  184.3590  178.8110  145.4230 C   0  0  0  0  0  2  0  0  0  0  0  0
  183.7300  178.3580  144.1170 C   0  0  2  0  0  3  0  0  0  0  0  0
  184.7230  178.2300  143.1420 O   0  0  0  0  0  0  0  0  0  0  0  0
  184.8120  179.4870  142.5430 C   0  0  0  0  0  2  0  0  0  0  0  0
  185.5290  179.3740  141.2870 N   0  0  0  0  0  2  0  0  0  0  0  0
  184.7350  178.5100  140.4270 C   0  0  0  0  0  2  0  0  0  0  0  0
  184.9080  178.9350  138.9810 C   0  0  0  0  0  1  0  0  0  0  0  0
  182.7150  179.4010  143.6790 C   0  0  0  0  0  2  0  0  0  0  0  0
  181.9930  178.9500  142.4200 C   0  0  0  0  0  2  0  0  0  0  0  0
  180.5350  178.6100  142.7130 C   0  0  0  0  0  2  0  0  0  0  0  0
  179.7600  178.2910  141.4300 C   0  0  2  0  0  3  0  0  0  0  0  0
  179.6170  176.7760  141.3210 C   0  0  0  0  0  1  0  0  0  0  0  0
  180.4630  178.8300  140.2550 N   0  0  0  0  0  0  0  0  0  0  0  0
  180.7940  177.7220  139.3600 C   0  0  0  0  0  2  0  0  0  0  0  0
  180.5730  176.9670  137.1210 O   0  0  0  0  0  1  0  0  0  0  0  0
  180.1030  177.9150  138.0250 C   0  0  0  0  0  2  0  0  0  0  0  0
  179.5300  179.6610  139.5020 C   0  0  0  0  0  2  0  0  0  0  0  0
  179.9470  181.1160  139.5950 C   0  0  0  0  0  2  0  0  0  0  0  0
  181.2410  181.3120  138.8380 C   0  0  0  0  0  1  0  0  0  0  0  0
  2  8  1  0  0  0  0
  2 10  1  0  0  0  0
  3 11  1  6  0  0  0
  3  7  1  0  0  0  0
  3  8  1  0  0  0  0
  4  1  1  0  0  0  0
  4  5  1  0  0  0  0
  5  6  1  0  0  0  0
  7  9  1  0  0  0  0
  8  4  2  0  0  0  0
  9  1  1  0  0  0  0
 10 29  1  0  0  0  0
 10  5  2  0  0  0  0
 12 13  1  6  0  0  0
 12 11  1  0  0  0  0
 14 15  1  6  0  0  0
 14 12  1  0  0  0  0
 16 15  1  0  0  0  0
 17 16  1  0  0  0  0
 17 18  2  0  0  0  0
 19 17  1  0  0  0  0
 20 21  2  0  0  0  0
 20 23  1  0  0  0  0
 22 20  1  0  0  0  0
 23 19  1  0  0  0  0
 24 14  1  0  0  0  0
 25 24  1  0  0  0  0
 25 26  1  1  0  0  0
 27 25  1  0  0  0  0
 28 27  1  0  0  0  0
 30 29  1  0  0  0  0
 31 30  1  0  0  0  0
 32 38  1  6  0  0  0
 32 31  1  0  0  0  0
 33 32  1  0  0  0  0
 34 33  1  0  0  0  0
 35 34  1  0  0  0  0
 36 35  1  0  0  0  0
 37 36  1  0  0  0  0
 39 40  1  0  0  0  0
 39 38  1  0  0  0  0
 41 42  1  6  0  0  0
 41 40  1  0  0  0  0
 43 41  1  0  0  0  0
 44 43  1  0  0  0  0
 45 46  1  0  0  0  0
 46 44  1  0  0  0  0
 47 48  1  0  0  0  0
 47 43  1  0  0  0  0
 49 48  1  0  0  0  0
M  END
>  <MODEL>
8

>  <REMARK>
 VINA RESULT:      -4.8      1.937      3.147
  Name = 
  28 active torsions:
  status: ('A' for Active; 'I' for Inactive)
    1  A    between atoms: O_1  and  C_19
    2  A    between atoms: O_1  and  C_27
    3  A    between atoms: C_3  and  C_5
    4  A    between atoms: C_3  and  N_39
    5  A    between atoms: C_4  and  O_34
    6  A    between atoms: C_4  and  C_47
    7  A    between atoms: C_5  and  C_18
    8  A    between atoms: C_6  and  C_33
    9  A    between atoms: C_6  and  C_44
   10  A    between atoms: C_8  and  N_24
   11  A    between atoms: C_9  and  C_33
   12  A    between atoms: C_12  and  C_21
   13  A    between atoms: C_17  and  C_19
   14  A    between atoms: C_17  and  O_36
   15  A    between atoms: C_18  and  C_37
   16  A    between atoms: C_19  and  C_37
   17  A    between atoms: C_21  and  N_39
   18  A    between atoms: C_22  and  C_25
   19  A    between atoms: C_22  and  N_43
   20  A    between atoms: C_23  and  O_36
   21  A    between atoms: C_23  and  C_42
   22  A    between atoms: N_24  and  C_27
   23  A    between atoms: C_25  and  O_46
   24  A    between atoms: C_32  and  C_40
   25  A    between atoms: O_34  and  C_44
   26  A    between atoms: N_39  and  C_40
   27  A    between atoms: C_44  and  C_49
   28  A    between atoms: O_46  and  C_49
                            x       y       z     vdW  Elec       q    Type
                         _______ _______ _______ _____ _____    ______ ____

>  <TORSDO>
F 28

$$$$
=
 OpenBabel11062414023D

 49 50  0  0  1  0  0  0  0  0999 V2000
  190.5470  177.1440  137.8330 C   0  0  0  0  0  2  0  0  0  0  0  0
  187.6270  177.8790  140.3870 S   0  0  0  0  0  0  0  0  0  0  0  0
  190.3120  176.9120  140.7290 C   0  0  2  0  0  3  0  0  0  0  0  0
  189.2710  177.5140  138.5260 C   0  0  0  0  0  0  0  0  0  0  0  0
  188.0890  177.9520  137.9110 C   0  0  0  0  0  0  0  0  0  0  0  0
  187.9290  178.0900  136.4340 C   0  0  0  0  0  1  0  0  0  0  0  0
  191.5390  177.0970  140.0490 O   0  0  0  0  0  0  0  0  0  0  0  0
  189.1860  177.4670  139.9050 C   0  0  0  0  0  0  0  0  0  0  0  0
  191.4670  176.3990  138.8210 C   0  0  0  0  0  2  0  0  0  0  0  0
  187.0700  178.2090  138.8290 C   0  0  0  0  0  0  0  0  0  0  0  0
  190.3690  177.6050  142.0820 C   0  0  0  0  0  2  0  0  0  0  0  0
  190.5630  176.6030  143.2090 C   0  0  2  0  0  3  0  0  0  0  0  0
  190.0940  175.3430  142.8270 O   0  0  0  0  0  1  0  0  0  0  0  0
  189.8670  177.0930  144.4880 C   0  0  2  0  0  3  0  0  0  0  0  0
  188.8160  178.1840  144.2480 C   0  0  0  0  0  2  0  0  0  0  0  0
  187.5330  177.5910  144.1020 O   0  0  0  0  0  0  0  0  0  0  0  0
  186.5570  177.6880  145.0940 C   0  0  0  0  0  0  0  0  0  0  0  0
  186.5580  176.9080  146.0830 O   0  0  0  0  0  0  0  0  0  0  0  0
  185.4920  178.7210  144.9670 C   0  0  0  0  0  2  0  0  0  0  0  0
  183.4830  178.7260  143.4280 C   0  0  0  0  0  0  0  0  0  0  0  0
  182.6930  178.9140  144.3930 O   0  0  0  0  0  0  0  0  0  0  0  0
  182.9420  178.5870  142.0490 C   0  0  0  0  0  1  0  0  0  0  0  0
  184.8950  178.6640  143.6410 N   0  0  0  0  0  2  0  0  0  0  0  0
  190.7410  177.3620  145.5700 O   0  0  0  0  0  0  0  0  0  0  0  0
  190.1110  177.0230  146.7840 C   0  0  1  0  0  3  0  0  0  0  0  0
  191.0620  176.5770  147.7040 O   0  0  0  0  0  1  0  0  0  0  0  0
  189.3550  178.2230  147.3500 C   0  0  0  0  0  2  0  0  0  0  0  0
  188.5160  177.8410  148.5580 C   0  0  0  0  0  1  0  0  0  0  0  0
  185.6820  178.6430  138.5030 C   0  0  0  0  0  2  0  0  0  0  0  0
  185.0300  177.6310  137.7970 O   0  0  0  0  0  0  0  0  0  0  0  0
  183.8400  177.4350  138.4970 C   0  0  0  0  0  2  0  0  0  0  0  0
  182.6670  177.4500  137.5310 C   0  0  2  0  0  3  0  0  0  0  0  0
  181.6970  178.3450  137.9910 O   0  0  0  0  0  0  0  0  0  0  0  0
  180.4820  177.6730  137.8480 C   0  0  0  0  0  2  0  0  0  0  0  0
  179.4830  178.2950  138.6970 N   0  0  0  0  0  2  0  0  0  0  0  0
  179.9930  178.2360  140.0580 C   0  0  0  0  0  2  0  0  0  0  0  0
  178.9900  177.5250  140.9460 C   0  0  0  0  0  1  0  0  0  0  0  0
  182.0780  176.0500  137.4610 C   0  0  0  0  0  2  0  0  0  0  0  0
  183.1290  175.0090  137.8070 C   0  0  0  0  0  2  0  0  0  0  0  0
  183.4220  174.1030  136.6140 C   0  0  0  0  0  2  0  0  0  0  0  0
  184.8750  174.2360  136.1480 C   0  0  2  0  0  3  0  0  0  0  0  0
  184.9610  175.4100  135.1770 C   0  0  0  0  0  1  0  0  0  0  0  0
  185.3240  172.9940  135.4990 N   0  0  0  0  0  0  0  0  0  0  0  0
  186.1990  172.2750  136.4230 C   0  0  0  0  0  2  0  0  0  0  0  0
  188.5280  172.3340  135.9690 O   0  0  0  0  0  1  0  0  0  0  0  0
  187.5000  173.0320  136.5960 C   0  0  0  0  0  2  0  0  0  0  0  0
  184.1670  172.1250  135.3180 C   0  0  0  0  0  2  0  0  0  0  0  0
  184.5200  170.7080  135.7240 C   0  0  0  0  0  2  0  0  0  0  0  0
  183.2820  169.8440  135.6410 C   0  0  0  0  0  1  0  0  0  0  0  0
  1  4  1  0  0  0  0
  1  9  1  0  0  0  0
  3 11  1  1  0  0  0
  4  8  2  0  0  0  0
  5  4  1  0  0  0  0
  5 10  2  0  0  0  0
  6  5  1  0  0  0  0
  7  3  1  0  0  0  0
  8  2  1  0  0  0  0
  8  3  1  0  0  0  0
  9  7  1  0  0  0  0
 10  2  1  0  0  0  0
 11 12  1  0  0  0  0
 12 13  1  6  0  0  0
 12 14  1  0  0  0  0
 14 15  1  6  0  0  0
 14 24  1  0  0  0  0
 16 15  1  0  0  0  0
 16 17  1  0  0  0  0
 17 18  2  0  0  0  0
 19 17  1  0  0  0  0
 20 23  1  0  0  0  0
 20 21  2  0  0  0  0
 22 20  1  0  0  0  0
 23 19  1  0  0  0  0
 24 25  1  0  0  0  0
 25 27  1  0  0  0  0
 25 26  1  1  0  0  0
 27 28  1  0  0  0  0
 29 10  1  0  0  0  0
 30 31  1  0  0  0  0
 30 29  1  0  0  0  0
 32 38  1  1  0  0  0
 32 33  1  0  0  0  0
 32 31  1  0  0  0  0
 34 33  1  0  0  0  0
 34 35  1  0  0  0  0
 35 36  1  0  0  0  0
 36 37  1  0  0  0  0
 38 39  1  0  0  0  0
 40 39  1  0  0  0  0
 41 42  1  6  0  0  0
 41 40  1  0  0  0  0
 43 41  1  0  0  0  0
 43 44  1  0  0  0  0
 44 46  1  0  0  0  0
 45 46  1  0  0  0  0
 47 43  1  0  0  0  0
 47 48  1  0  0  0  0
 49 48  1  0  0  0  0
M  END
>  <MODEL>
9

>  <REMARK>
 VINA RESULT:      -4.8      2.871      7.771
  Name = 
  28 active torsions:
  status: ('A' for Active; 'I' for Inactive)
    1  A    between atoms: O_1  and  C_19
    2  A    between atoms: O_1  and  C_27
    3  A    between atoms: C_3  and  C_5
    4  A    between atoms: C_3  and  N_39
    5  A    between atoms: C_4  and  O_34
    6  A    between atoms: C_4  and  C_47
    7  A    between atoms: C_5  and  C_18
    8  A    between atoms: C_6  and  C_33
    9  A    between atoms: C_6  and  C_44
   10  A    between atoms: C_8  and  N_24
   11  A    between atoms: C_9  and  C_33
   12  A    between atoms: C_12  and  C_21
   13  A    between atoms: C_17  and  C_19
   14  A    between atoms: C_17  and  O_36
   15  A    between atoms: C_18  and  C_37
   16  A    between atoms: C_19  and  C_37
   17  A    between atoms: C_21  and  N_39
   18  A    between atoms: C_22  and  C_25
   19  A    between atoms: C_22  and  N_43
   20  A    between atoms: C_23  and  O_36
   21  A    between atoms: C_23  and  C_42
   22  A    between atoms: N_24  and  C_27
   23  A    between atoms: C_25  and  O_46
   24  A    between atoms: C_32  and  C_40
   25  A    between atoms: O_34  and  C_44
   26  A    between atoms: N_39  and  C_40
   27  A    between atoms: C_44  and  C_49
   28  A    between atoms: O_46  and  C_49
                            x       y       z     vdW  Elec       q    Type
                         _______ _______ _______ _____ _____    ______ ____

>  <TORSDO>
F 28

$$$$
