=
 OpenBabel11062414143D

 60 65  0  0  1  0  0  0  0  0999 V2000
  184.1250  177.1570  135.8730 C   0  0  1  0  0  3  0  0  0  0  0  0
  179.3080  177.3090  137.0530 C   0  0  0  0  0  1  0  0  0  0  0  0
  182.0920  176.9610  139.5060 O   0  0  0  0  0  0  0  0  0  0  0  0
  182.5240  179.1240  138.4650 C   0  0  2  0  0  0  0  0  0  0  0  0
  182.4230  180.6070  138.8190 C   0  0  0  0  0  1  0  0  0  0  0  0
  180.7630  176.8100  139.0500 C   0  0  2  0  0  3  0  0  0  0  0  0
  183.9220  178.9050  137.8590 C   0  0  0  0  0  2  0  0  0  0  0  0
  181.4140  178.7100  137.4070 C   0  0  1  0  0  0  0  0  0  0  0  0
  182.8250  176.9700  136.6540 C   0  0  1  0  0  3  0  0  0  0  0  0
  180.2780  177.8940  138.0680 C   0  0  1  0  0  3  0  0  0  0  0  0
  184.0770  177.4770  137.3520 C   0  0  1  0  0  0  0  0  0  0  0  0
  180.8090  179.8630  136.8920 O   0  0  0  0  0  1  0  0  0  0  0  0
  181.9530  178.0160  136.2840 O   0  0  0  0  0  0  0  0  0  0  0  0
  184.6320  176.5330  138.2190 O   0  0  0  0  0  1  0  0  0  0  0  0
  182.3530  178.3170  139.7900 C   0  0  2  0  0  3  0  0  0  0  0  0
  183.5450  178.4610  140.7690 C   0  0  1  0  0  3  0  0  0  0  0  0
  185.7360  178.3890  140.4370 C   0  0  0  0  0  1  0  0  0  0  0  0
  184.5980  179.1500  140.1590 O   0  0  0  0  0  0  0  0  0  0  0  0
  183.1990  179.1290  142.1100 C   0  0  1  0  0  3  0  0  0  0  0  0
  182.4130  178.2000  143.0300 C   0  0  0  0  0  2  0  0  0  0  0  0
  181.3820  178.9780  143.8240 C   0  0  0  0  0  2  0  0  0  0  0  0
  179.7310  178.5190  143.2830 S   0  0  0  0  0  3  0  0  0  0  0  0
  179.1360  179.9470  142.5700 O   0  0  0  0  0  1  0  0  0  0  0  0
  178.9340  178.4180  144.5810 O   0  0  0  0  0  1  0  0  0  0  0  0
  184.3580  179.5940  142.7420 O   0  0  0  0  0  0  0  0  0  0  0  0
  185.3520  179.2620  144.8700 C   0  0  0  0  0  2  0  0  0  0  0  0
  184.6770  178.6130  143.6820 C   0  0  2  0  0  3  0  0  0  0  0  0
  186.1850  178.5370  143.8340 C   0  0  2  0  0  3  0  0  0  0  0  0
  186.5520  177.1660  144.3580 C   0  0  0  0  0  2  0  0  0  0  0  0
  188.8800  176.8610  145.1430 C   0  0  0  0  0  1  0  0  0  0  0  0
  187.9650  176.8210  143.9330 C   0  0  0  0  0  2  0  0  0  0  0  0
  179.7850  176.5790  140.2010 C   0  0  0  0  0  2  0  0  0  0  0  0
  178.9930  174.5230  140.1220 C   0  0  0  0  0  1  0  0  0  0  0  0
  179.9600  175.3070  140.7510 O   0  0  0  0  0  0  0  0  0  0  0  0
  184.7180  175.8830  135.6490 O   0  0  0  0  0  0  0  0  0  0  0  0
  186.7360  176.5850  134.8200 O   0  0  0  0  0  0  0  0  0  0  0  0
  186.0940  175.7120  135.4660 C   0  0  0  0  0  0  0  0  0  0  0  0
  186.8200  174.5320  136.0430 C   0  0  1  0  0  3  0  0  0  0  0  0
  185.9370  173.4680  136.2220 O   0  0  0  0  0  1  0  0  0  0  0  0
  187.9560  174.0990  135.1330 C   0  0  0  0  0  2  0  0  0  0  0  0
  189.2780  174.6040  135.6870 C   0  0  1  0  0  3  0  0  0  0  0  0
  190.3610  173.5390  135.6890 C   0  0  1  0  0  0  0  0  0  0  0  0
  190.0110  172.2580  135.2640 O   0  0  0  0  0  1  0  0  0  0  0  0
  190.3440  174.5720  134.5940 C   0  0  0  0  0  2  0  0  0  0  0  0
  191.4700  173.6880  136.7120 C   0  0  0  0  0  2  0  0  0  0  0  0
  192.3760  174.6700  136.2890 O   0  0  0  0  0  0  0  0  0  0  0  0
  193.0690  175.0410  137.4440 C   0  0  1  0  0  3  0  0  0  0  0  0
  194.4270  174.7690  137.2780 O   0  0  0  0  0  0  0  0  0  0  0  0
  194.7550  175.3200  136.0390 C   0  0  0  0  0  2  0  0  0  0  0  0
  196.0950  174.7740  135.5840 C   0  0  0  0  0  2  0  0  0  0  0  0
  196.7850  174.0460  136.7210 C   0  0  0  0  0  2  0  0  0  0  0  0
  197.7920  173.1440  136.1940 N   0  0  0  0  0  1  0  0  0  0  0  0
  192.8870  176.5330  137.7000 C   0  0  0  0  0  2  0  0  0  0  0  0
  190.4390  177.0710  137.7690 C   0  0  0  0  0  3  0  0  0  0  0  0
  189.2680  177.3460  138.4820 C   0  0  0  0  0  0  0  0  0  0  0  0
  188.0600  177.6190  137.7840 N   0  0  0  0  0  1  0  0  0  0  0  0
  191.6300  176.8060  138.4540 C   0  0  0  0  0  0  0  0  0  0  0  0
  189.2860  177.3570  139.8790 C   0  0  0  0  0  3  0  0  0  0  0  0
  190.4740  177.0930  140.5650 C   0  0  0  0  0  3  0  0  0  0  0  0
  191.6460  176.8190  139.8530 C   0  0  0  0  0  3  0  0  0  0  0  0
  1 35  1  1  0  0  0
  1  9  1  0  0  0  0
  1 11  1  0  0  0  0
  3 15  1  0  0  0  0
  4  5  1  1  0  0  0
  4 15  1  0  0  0  0
  6  3  1  0  0  0  0
  6 32  1  1  0  0  0
  7  4  1  0  0  0  0
  8 12  1  6  0  0  0
  8 10  1  0  0  0  0
  8  4  1  0  0  0  0
  9 13  1  6  0  0  0
  9 11  1  0  0  0  0
 10  2  1  6  0  0  0
 10  6  1  0  0  0  0
 11  7  1  0  0  0  0
 11 14  1  1  0  0  0
 13  8  1  0  0  0  0
 15 16  1  1  0  0  0
 16 18  1  6  0  0  0
 16 19  1  0  0  0  0
 18 17  1  0  0  0  0
 19 25  1  0  0  0  0
 19 20  1  1  0  0  0
 20 21  1  0  0  0  0
 22 21  1  0  0  0  0
 22 24  1  0  0  0  0
 23 22  1  0  0  0  0
 27 25  1  6  0  0  0
 27 28  1  0  0  0  0
 27 26  1  0  0  0  0
 28 29  1  1  0  0  0
 28 26  1  0  0  0  0
 31 29  1  0  0  0  0
 31 30  1  0  0  0  0
 32 34  1  0  0  0  0
 33 34  1  0  0  0  0
 36 37  2  0  0  0  0
 37 35  1  0  0  0  0
 37 38  1  0  0  0  0
 38 39  1  6  0  0  0
 40 38  1  0  0  0  0
 41 40  1  6  0  0  0
 41 42  1  0  0  0  0
 42 43  1  6  0  0  0
 42 45  1  0  0  0  0
 44 41  1  0  0  0  0
 44 42  1  0  0  0  0
 46 45  1  0  0  0  0
 46 47  1  0  0  0  0
 47 53  1  6  0  0  0
 48 47  1  0  0  0  0
 49 48  1  0  0  0  0
 50 49  1  0  0  0  0
 50 51  1  0  0  0  0
 52 51  1  0  0  0  0
 53 57  1  0  0  0  0
 54 57  2  0  0  0  0
 54 55  1  0  0  0  0
 55 58  2  0  0  0  0
 56 55  1  0  0  0  0
 57 60  1  0  0  0  0
 58 59  1  0  0  0  0
 60 59  2  0  0  0  0
M  END
>  <MODEL>
1

>  <REMARK>
 VINA RESULT:      -4.7      0.000      0.000
  Name = 
  26 active torsions:
  status: ('A' for Active; 'I' for Inactive)
    1  A    between atoms: O_1  and  C_15
    2  A    between atoms: O_1  and  C_48
    3  A    between atoms: C_3  and  O_23
    4  A    between atoms: S_6  and  C_39
    5  A    between atoms: C_10  and  C_37
    6  A    between atoms: C_13  and  C_60
    7  A    between atoms: C_14  and  C_33
    8  A    between atoms: C_14  and  C_48
    9  A    between atoms: C_15  and  C_34
   10  A    between atoms: C_16  and  C_38
   11  A    between atoms: C_16  and  C_54
   12  A    between atoms: C_17  and  C_55
   13  A    between atoms: O_19  and  C_25
   14  A    between atoms: O_19  and  C_32
   15  A    between atoms: O_20  and  C_48
   16  A    between atoms: O_20  and  C_55
   17  A    between atoms: O_23  and  C_49
   18  A    between atoms: C_24  and  C_37
   19  A    between atoms: C_24  and  C_49
   20  A    between atoms: C_32  and  C_50
   21  A    between atoms: C_32  and  C_51
   22  A    between atoms: C_34  and  C_36
   23  A    between atoms: C_39  and  C_51
   24  A    between atoms: O_43  and  C_50
   25  A    between atoms: O_47  and  C_60
   26  A    between atoms: C_50  and  C_58
                            x       y       z     vdW  Elec       q    Type
                         _______ _______ _______ _____ _____    ______ ____

>  <TORSDO>
F 26

$$$$
=
 OpenBabel11062414143D

 60 65  0  0  1  0  0  0  0  0999 V2000
  186.3500  178.5770  143.8580 C   0  0  1  0  0  3  0  0  0  0  0  0
  189.8790  176.0280  146.2380 C   0  0  0  0  0  1  0  0  0  0  0  0
  189.5450  176.2510  142.5330 O   0  0  0  0  0  0  0  0  0  0  0  0
  189.9180  178.5650  143.2070 C   0  0  2  0  0  0  0  0  0  0  0  0
  191.0310  179.6110  143.1500 C   0  0  0  0  0  1  0  0  0  0  0  0
  189.9470  175.6500  143.7470 C   0  0  2  0  0  3  0  0  0  0  0  0
  188.6380  179.2500  142.6940 C   0  0  0  0  0  2  0  0  0  0  0  0
  189.6880  178.0520  144.6930 C   0  0  1  0  0  0  0  0  0  0  0  0
  187.4460  177.5500  144.1390 C   0  0  1  0  0  3  0  0  0  0  0  0
  190.2610  176.6290  144.8940 C   0  0  1  0  0  3  0  0  0  0  0  0
  187.4350  178.3260  142.8320 C   0  0  1  0  0  0  0  0  0  0  0  0
  190.3870  178.8770  145.5830 O   0  0  0  0  0  1  0  0  0  0  0  0
  188.3220  178.1130  145.0930 O   0  0  0  0  0  0  0  0  0  0  0  0
  187.0920  177.5320  141.7350 O   0  0  0  0  0  1  0  0  0  0  0  0
  190.3380  177.3870  142.2740 C   0  0  2  0  0  3  0  0  0  0  0  0
  190.3200  177.7450  140.7670 C   0  0  1  0  0  3  0  0  0  0  0  0
  192.4530  177.2800  141.1580 C   0  0  0  0  0  1  0  0  0  0  0  0
  191.6160  178.0120  140.3120 O   0  0  0  0  0  0  0  0  0  0  0  0
  189.6630  176.6900  139.8620 C   0  0  1  0  0  3  0  0  0  0  0  0
  189.0450  177.3090  138.6110 C   0  0  0  0  0  2  0  0  0  0  0  0
  187.7170  177.9620  138.9370 C   0  0  0  0  0  2  0  0  0  0  0  0
  186.7130  178.0640  137.4500 S   0  0  0  0  0  3  0  0  0  0  0  0
  185.1260  178.2110  138.0520 O   0  0  0  0  0  1  0  0  0  0  0  0
  186.7440  176.6460  136.8880 O   0  0  0  0  0  1  0  0  0  0  0  0
  190.5820  175.6910  139.5230 O   0  0  0  0  0  0  0  0  0  0  0  0
  190.9450  174.4830  137.5130 C   0  0  0  0  0  2  0  0  0  0  0  0
  190.7980  175.8460  138.1520 C   0  0  2  0  0  3  0  0  0  0  0  0
  192.1760  175.3180  137.7990 C   0  0  2  0  0  3  0  0  0  0  0  0
  192.6360  175.9810  136.5200 C   0  0  0  0  0  2  0  0  0  0  0  0
  194.6290  174.7280  137.2880 C   0  0  0  0  0  1  0  0  0  0  0  0
  194.1420  175.8540  136.3950 C   0  0  0  0  0  2  0  0  0  0  0  0
  191.0530  174.6160  143.5360 C   0  0  0  0  0  2  0  0  0  0  0  0
  192.6570  173.8730  144.8530 C   0  0  0  0  0  1  0  0  0  0  0  0
  192.2300  175.0150  144.1750 O   0  0  0  0  0  0  0  0  0  0  0  0
  185.1530  177.8930  143.5080 O   0  0  0  0  0  0  0  0  0  0  0  0
  183.3510  179.0400  144.3380 O   0  0  0  0  0  0  0  0  0  0  0  0
  183.9310  178.5510  143.3310 C   0  0  0  0  0  0  0  0  0  0  0  0
  183.3180  178.7070  141.9710 C   0  0  1  0  0  3  0  0  0  0  0  0
  183.6990  177.6480  141.1490 O   0  0  0  0  0  1  0  0  0  0  0  0
  181.8020  178.7550  142.0640 C   0  0  0  0  0  2  0  0  0  0  0  0
  181.1920  178.2860  140.7530 C   0  0  1  0  0  3  0  0  0  0  0  0
  179.9720  177.4040  140.9540 C   0  0  1  0  0  0  0  0  0  0  0  0
  179.6110  177.0850  142.2640 O   0  0  0  0  0  1  0  0  0  0  0  0
  179.7830  178.8550  140.6050 C   0  0  0  0  0  2  0  0  0  0  0  0
  179.6490  176.4170  139.8500 C   0  0  0  0  0  2  0  0  0  0  0  0
  180.8280  175.8080  139.3990 O   0  0  0  0  0  0  0  0  0  0  0  0
  180.7210  175.8050  138.0060 C   0  0  1  0  0  3  0  0  0  0  0  0
  179.9930  176.9210  137.5930 O   0  0  0  0  0  0  0  0  0  0  0  0
  180.1620  176.9680  136.2090 C   0  0  0  0  0  2  0  0  0  0  0  0
  178.9310  177.5840  135.5720 C   0  0  0  0  0  2  0  0  0  0  0  0
  179.3160  178.7770  134.7180 C   0  0  0  0  0  2  0  0  0  0  0  0
  180.3970  179.5090  135.3500 N   0  0  0  0  0  1  0  0  0  0  0  0
  182.1100  175.8560  137.3800 C   0  0  0  0  0  2  0  0  0  0  0  0
  184.1030  174.3490  137.5940 C   0  0  0  0  0  3  0  0  0  0  0  0
  184.6890  173.0820  137.5320 C   0  0  0  0  0  0  0  0  0  0  0  0
  186.0780  172.9280  137.7910 N   0  0  0  0  0  1  0  0  0  0  0  0
  182.7370  174.5030  137.3360 C   0  0  0  0  0  0  0  0  0  0  0  0
  183.9110  171.9660  137.2100 C   0  0  0  0  0  3  0  0  0  0  0  0
  182.5460  172.1180  136.9510 C   0  0  0  0  0  3  0  0  0  0  0  0
  181.9600  173.3850  137.0130 C   0  0  0  0  0  3  0  0  0  0  0  0
  1 35  1  6  0  0  0
  1  9  1  0  0  0  0
  3  6  1  0  0  0  0
  4  5  1  1  0  0  0
  4  8  1  0  0  0  0
  6 32  1  6  0  0  0
  6 10  1  0  0  0  0
  7 11  1  0  0  0  0
  7  4  1  0  0  0  0
  8 10  1  0  0  0  0
  8 13  1  0  0  0  0
  8 12  1  1  0  0  0
  9 13  1  1  0  0  0
 10  2  1  1  0  0  0
 11 14  1  6  0  0  0
 11  1  1  0  0  0  0
 11  9  1  0  0  0  0
 15 16  1  6  0  0  0
 15  3  1  0  0  0  0
 15  4  1  0  0  0  0
 16 18  1  6  0  0  0
 18 17  1  0  0  0  0
 19 20  1  6  0  0  0
 19 16  1  0  0  0  0
 20 21  1  0  0  0  0
 22 23  1  0  0  0  0
 22 21  1  0  0  0  0
 24 22  1  0  0  0  0
 25 19  1  0  0  0  0
 26 28  1  0  0  0  0
 26 27  1  0  0  0  0
 27 25  1  1  0  0  0
 28 29  1  6  0  0  0
 28 27  1  0  0  0  0
 31 29  1  0  0  0  0
 31 30  1  0  0  0  0
 32 34  1  0  0  0  0
 34 33  1  0  0  0  0
 37 35  1  0  0  0  0
 37 36  2  0  0  0  0
 38 39  1  6  0  0  0
 38 40  1  0  0  0  0
 38 37  1  0  0  0  0
 41 42  1  0  0  0  0
 41 40  1  1  0  0  0
 42 43  1  1  0  0  0
 44 41  1  0  0  0  0
 44 42  1  0  0  0  0
 45 42  1  0  0  0  0
 46 45  1  0  0  0  0
 47 53  1  6  0  0  0
 47 46  1  0  0  0  0
 48 47  1  0  0  0  0
 49 48  1  0  0  0  0
 50 49  1  0  0  0  0
 51 52  1  0  0  0  0
 51 50  1  0  0  0  0
 55 54  1  0  0  0  0
 55 56  1  0  0  0  0
 57 53  1  0  0  0  0
 57 54  2  0  0  0  0
 58 55  2  0  0  0  0
 59 60  2  0  0  0  0
 59 58  1  0  0  0  0
 60 57  1  0  0  0  0
M  END
>  <MODEL>
2

>  <REMARK>
 VINA RESULT:      -4.2      3.236     10.553
  Name = 
  26 active torsions:
  status: ('A' for Active; 'I' for Inactive)
    1  A    between atoms: O_1  and  C_15
    2  A    between atoms: O_1  and  C_48
    3  A    between atoms: C_3  and  O_23
    4  A    between atoms: S_6  and  C_39
    5  A    between atoms: C_10  and  C_37
    6  A    between atoms: C_13  and  C_60
    7  A    between atoms: C_14  and  C_33
    8  A    between atoms: C_14  and  C_48
    9  A    between atoms: C_15  and  C_34
   10  A    between atoms: C_16  and  C_38
   11  A    between atoms: C_16  and  C_54
   12  A    between atoms: C_17  and  C_55
   13  A    between atoms: O_19  and  C_25
   14  A    between atoms: O_19  and  C_32
   15  A    between atoms: O_20  and  C_48
   16  A    between atoms: O_20  and  C_55
   17  A    between atoms: O_23  and  C_49
   18  A    between atoms: C_24  and  C_37
   19  A    between atoms: C_24  and  C_49
   20  A    between atoms: C_32  and  C_50
   21  A    between atoms: C_32  and  C_51
   22  A    between atoms: C_34  and  C_36
   23  A    between atoms: C_39  and  C_51
   24  A    between atoms: O_43  and  C_50
   25  A    between atoms: O_47  and  C_60
   26  A    between atoms: C_50  and  C_58
                            x       y       z     vdW  Elec       q    Type
                         _______ _______ _______ _____ _____    ______ ____

>  <TORSDO>
F 26

$$$$
=
 OpenBabel11062414143D

 60 65  0  0  1  0  0  0  0  0999 V2000
  186.4060  178.5780  143.8290 C   0  0  1  0  0  3  0  0  0  0  0  0
  189.8740  175.9980  146.2640 C   0  0  0  0  0  1  0  0  0  0  0  0
  189.6510  176.2940  142.5560 O   0  0  0  0  0  0  0  0  0  0  0  0
  189.9910  178.5960  143.2870 C   0  0  2  0  0  0  0  0  0  0  0  0
  191.1010  179.6470  143.2840 C   0  0  0  0  0  1  0  0  0  0  0  0
  190.0190  175.6700  143.7690 C   0  0  2  0  0  3  0  0  0  0  0  0
  188.7240  179.2850  142.7490 C   0  0  0  0  0  2  0  0  0  0  0  0
  189.7200  178.0520  144.7540 C   0  0  1  0  0  0  0  0  0  0  0  0
  187.4980  177.5510  144.1230 C   0  0  1  0  0  3  0  0  0  0  0  0
  190.2930  176.6270  144.9450 C   0  0  1  0  0  3  0  0  0  0  0  0
  187.5230  178.3520  142.8320 C   0  0  1  0  0  0  0  0  0  0  0  0
  190.3870  178.8620  145.6810 O   0  0  0  0  0  1  0  0  0  0  0  0
  188.3410  178.0980  145.1140 O   0  0  0  0  0  0  0  0  0  0  0  0
  187.2170  177.5790  141.7090 O   0  0  0  0  0  1  0  0  0  0  0  0
  190.4460  177.4390  142.3440 C   0  0  2  0  0  3  0  0  0  0  0  0
  190.4710  177.8270  140.8440 C   0  0  1  0  0  3  0  0  0  0  0  0
  192.5620  177.2700  141.3340 C   0  0  0  0  0  1  0  0  0  0  0  0
  191.7900  177.9610  140.3960 O   0  0  0  0  0  0  0  0  0  0  0  0
  189.7080  176.8660  139.9170 C   0  0  1  0  0  3  0  0  0  0  0  0
  189.1540  177.5760  138.6850 C   0  0  0  0  0  2  0  0  0  0  0  0
  187.6990  177.2110  138.4650 C   0  0  0  0  0  2  0  0  0  0  0  0
  187.2030  177.6780  136.8020 S   0  0  0  0  0  3  0  0  0  0  0  0
  187.3820  179.3720  136.7960 O   0  0  0  0  0  1  0  0  0  0  0  0
  185.6890  177.4860  136.8030 O   0  0  0  0  0  1  0  0  0  0  0  0
  190.5190  175.7880  139.5490 O   0  0  0  0  0  0  0  0  0  0  0  0
  190.5160  174.5930  137.4990 C   0  0  0  0  0  2  0  0  0  0  0  0
  190.7150  175.9310  138.1740 C   0  0  2  0  0  3  0  0  0  0  0  0
  191.9170  175.1090  137.7500 C   0  0  2  0  0  3  0  0  0  0  0  0
  192.4740  175.6870  136.4680 C   0  0  0  0  0  2  0  0  0  0  0  0
  194.5500  176.6310  135.5060 C   0  0  0  0  0  1  0  0  0  0  0  0
  193.9880  175.6350  136.5020 C   0  0  0  0  0  2  0  0  0  0  0  0
  191.1360  174.6460  143.5710 C   0  0  0  0  0  2  0  0  0  0  0  0
  192.5780  173.8330  145.0270 C   0  0  0  0  0  1  0  0  0  0  0  0
  192.2640  174.9930  144.3200 O   0  0  0  0  0  0  0  0  0  0  0  0
  185.2230  177.8960  143.4300 O   0  0  0  0  0  0  0  0  0  0  0  0
  183.8550  179.1250  142.0630 O   0  0  0  0  0  0  0  0  0  0  0  0
  184.0170  178.5580  143.1780 C   0  0  0  0  0  0  0  0  0  0  0  0
  182.9110  178.5830  144.1920 C   0  0  1  0  0  3  0  0  0  0  0  0
  183.3920  179.0560  145.4120 O   0  0  0  0  0  1  0  0  0  0  0  0
  181.7670  179.4650  143.7220 C   0  0  0  0  0  2  0  0  0  0  0  0
  181.2670  178.9800  142.3710 C   0  0  1  0  0  3  0  0  0  0  0  0
  179.9560  178.2200  142.4680 C   0  0  1  0  0  0  0  0  0  0  0  0
  179.4230  178.0060  143.7390 O   0  0  0  0  0  1  0  0  0  0  0  0
  179.9430  179.6610  142.0350 C   0  0  0  0  0  2  0  0  0  0  0  0
  179.6680  177.2060  141.3780 C   0  0  0  0  0  2  0  0  0  0  0  0
  180.7280  177.1830  140.4620 O   0  0  0  0  0  0  0  0  0  0  0  0
  180.1380  177.4460  139.2230 C   0  0  1  0  0  3  0  0  0  0  0  0
  181.0470  178.1220  138.4100 O   0  0  0  0  0  0  0  0  0  0  0  0
  180.6690  179.4630  138.4870 C   0  0  0  0  0  2  0  0  0  0  0  0
  181.9110  180.3340  138.5370 C   0  0  0  0  0  2  0  0  0  0  0  0
  183.1590  179.4850  138.3960 C   0  0  0  0  0  2  0  0  0  0  0  0
  184.2480  180.0760  139.1520 N   0  0  0  0  0  1  0  0  0  0  0  0
  179.7440  176.1370  138.5490 C   0  0  0  0  0  2  0  0  0  0  0  0
  182.0270  175.1850  138.1330 C   0  0  0  0  0  3  0  0  0  0  0  0
  183.0310  174.7570  137.2600 C   0  0  0  0  0  0  0  0  0  0  0  0
  184.2650  174.2790  137.7780 N   0  0  0  0  0  1  0  0  0  0  0  0
  180.8120  175.6580  137.6240 C   0  0  0  0  0  0  0  0  0  0  0  0
  182.8240  174.8020  135.8780 C   0  0  0  0  0  3  0  0  0  0  0  0
  181.6120  175.2750  135.3690 C   0  0  0  0  0  3  0  0  0  0  0  0
  180.6080  175.7050  136.2410 C   0  0  0  0  0  3  0  0  0  0  0  0
  1 35  1  6  0  0  0
  1  9  1  0  0  0  0
  3  6  1  0  0  0  0
  4  5  1  1  0  0  0
  4  8  1  0  0  0  0
  6 32  1  6  0  0  0
  6 10  1  0  0  0  0
  7 11  1  0  0  0  0
  7  4  1  0  0  0  0
  8 10  1  0  0  0  0
  8 13  1  0  0  0  0
  8 12  1  1  0  0  0
  9 13  1  1  0  0  0
 10  2  1  1  0  0  0
 11 14  1  6  0  0  0
 11  1  1  0  0  0  0
 11  9  1  0  0  0  0
 15 16  1  6  0  0  0
 15  3  1  0  0  0  0
 15  4  1  0  0  0  0
 16 18  1  6  0  0  0
 18 17  1  0  0  0  0
 19 20  1  6  0  0  0
 19 16  1  0  0  0  0
 21 20  1  0  0  0  0
 22 24  1  0  0  0  0
 22 21  1  0  0  0  0
 23 22  1  0  0  0  0
 25 19  1  0  0  0  0
 26 28  1  0  0  0  0
 26 27  1  0  0  0  0
 27 25  1  1  0  0  0
 28 29  1  6  0  0  0
 28 27  1  0  0  0  0
 29 31  1  0  0  0  0
 30 31  1  0  0  0  0
 32 34  1  0  0  0  0
 34 33  1  0  0  0  0
 36 37  2  0  0  0  0
 37 35  1  0  0  0  0
 37 38  1  0  0  0  0
 38 39  1  1  0  0  0
 40 38  1  0  0  0  0
 41 42  1  0  0  0  0
 41 40  1  1  0  0  0
 42 43  1  1  0  0  0
 44 41  1  0  0  0  0
 44 42  1  0  0  0  0
 45 42  1  0  0  0  0
 46 45  1  0  0  0  0
 47 53  1  6  0  0  0
 47 46  1  0  0  0  0
 48 49  1  0  0  0  0
 48 47  1  0  0  0  0
 49 50  1  0  0  0  0
 51 50  1  0  0  0  0
 51 52  1  0  0  0  0
 55 56  1  0  0  0  0
 55 54  2  0  0  0  0
 57 54  1  0  0  0  0
 57 53  1  0  0  0  0
 58 55  1  0  0  0  0
 59 58  2  0  0  0  0
 59 60  1  0  0  0  0
 60 57  2  0  0  0  0
M  END
>  <MODEL>
3

>  <REMARK>
 VINA RESULT:      -4.1      3.135     10.716
  Name = 
  26 active torsions:
  status: ('A' for Active; 'I' for Inactive)
    1  A    between atoms: O_1  and  C_15
    2  A    between atoms: O_1  and  C_48
    3  A    between atoms: C_3  and  O_23
    4  A    between atoms: S_6  and  C_39
    5  A    between atoms: C_10  and  C_37
    6  A    between atoms: C_13  and  C_60
    7  A    between atoms: C_14  and  C_33
    8  A    between atoms: C_14  and  C_48
    9  A    between atoms: C_15  and  C_34
   10  A    between atoms: C_16  and  C_38
   11  A    between atoms: C_16  and  C_54
   12  A    between atoms: C_17  and  C_55
   13  A    between atoms: O_19  and  C_25
   14  A    between atoms: O_19  and  C_32
   15  A    between atoms: O_20  and  C_48
   16  A    between atoms: O_20  and  C_55
   17  A    between atoms: O_23  and  C_49
   18  A    between atoms: C_24  and  C_37
   19  A    between atoms: C_24  and  C_49
   20  A    between atoms: C_32  and  C_50
   21  A    between atoms: C_32  and  C_51
   22  A    between atoms: C_34  and  C_36
   23  A    between atoms: C_39  and  C_51
   24  A    between atoms: O_43  and  C_50
   25  A    between atoms: O_47  and  C_60
   26  A    between atoms: C_50  and  C_58
                            x       y       z     vdW  Elec       q    Type
                         _______ _______ _______ _____ _____    ______ ____

>  <TORSDO>
F 26

$$$$
=
 OpenBabel11062414143D

 60 65  0  0  1  0  0  0  0  0999 V2000
  186.2040  178.5240  143.1810 C   0  0  1  0  0  3  0  0  0  0  0  0
  189.4580  176.1000  146.0360 C   0  0  0  0  0  1  0  0  0  0  0  0
  189.6120  176.2850  142.3170 O   0  0  0  0  0  0  0  0  0  0  0  0
  189.8250  178.6150  143.0080 C   0  0  2  0  0  0  0  0  0  0  0  0
  190.9060  179.6930  143.0880 C   0  0  0  0  0  1  0  0  0  0  0  0
  189.8670  175.7050  143.5800 C   0  0  2  0  0  3  0  0  0  0  0  0
  188.6060  179.2570  142.3220 C   0  0  0  0  0  2  0  0  0  0  0  0
  189.4160  178.1060  144.4560 C   0  0  1  0  0  0  0  0  0  0  0  0
  187.2820  177.5330  143.6160 C   0  0  1  0  0  3  0  0  0  0  0  0
  189.9970  176.7020  144.7480 C   0  0  1  0  0  3  0  0  0  0  0  0
  187.4230  178.2980  142.3100 C   0  0  1  0  0  0  0  0  0  0  0  0
  189.9660  178.9580  145.4210 O   0  0  0  0  0  1  0  0  0  0  0  0
  188.0070  178.1290  144.6710 O   0  0  0  0  0  0  0  0  0  0  0  0
  187.2520  177.4860  141.1870 O   0  0  0  0  0  1  0  0  0  0  0  0
  190.4000  177.4430  142.1520 C   0  0  2  0  0  3  0  0  0  0  0  0
  190.5720  177.7890  140.6520 C   0  0  1  0  0  3  0  0  0  0  0  0
  192.5860  177.2770  141.4260 C   0  0  0  0  0  1  0  0  0  0  0  0
  191.9240  177.7670  140.2970 O   0  0  0  0  0  0  0  0  0  0  0  0
  189.7720  176.8960  139.6890 C   0  0  1  0  0  3  0  0  0  0  0  0
  189.3600  177.6420  138.4230 C   0  0  0  0  0  2  0  0  0  0  0  0
  187.8730  177.4880  138.1700 C   0  0  0  0  0  2  0  0  0  0  0  0
  187.4930  177.9760  136.4830 S   0  0  0  0  0  3  0  0  0  0  0  0
  185.8480  177.5660  136.3130 O   0  0  0  0  0  1  0  0  0  0  0  0
  188.2050  176.9300  135.6290 O   0  0  0  0  0  1  0  0  0  0  0  0
  190.4940  175.7400  139.3760 O   0  0  0  0  0  0  0  0  0  0  0  0
  190.6250  174.5330  137.3370 C   0  0  0  0  0  2  0  0  0  0  0  0
  190.8150  175.8670  138.0230 C   0  0  2  0  0  3  0  0  0  0  0  0
  192.0180  174.9970  137.7090 C   0  0  2  0  0  3  0  0  0  0  0  0
  192.7070  175.5460  136.4800 C   0  0  0  0  0  2  0  0  0  0  0  0
  194.5280  174.7640  137.9630 C   0  0  0  0  0  1  0  0  0  0  0  0
  194.2090  175.5050  136.6780 C   0  0  0  0  0  2  0  0  0  0  0  0
  191.0200  174.7040  143.5290 C   0  0  0  0  0  2  0  0  0  0  0  0
  192.5310  174.0910  145.0130 C   0  0  0  0  0  1  0  0  0  0  0  0
  192.1210  175.1820  144.2460 O   0  0  0  0  0  0  0  0  0  0  0  0
  185.0840  177.8010  142.6830 O   0  0  0  0  0  0  0  0  0  0  0  0
  183.5180  178.6040  141.2150 O   0  0  0  0  0  0  0  0  0  0  0  0
  183.8530  178.4080  142.4150 C   0  0  0  0  0  0  0  0  0  0  0  0
  182.9170  178.8000  143.5210 C   0  0  1  0  0  3  0  0  0  0  0  0
  183.0280  180.1660  143.7780 O   0  0  0  0  0  1  0  0  0  0  0  0
  181.4800  178.4690  143.1550 C   0  0  0  0  0  2  0  0  0  0  0  0
  180.8210  179.6810  142.5160 C   0  0  1  0  0  3  0  0  0  0  0  0
  179.6710  179.3090  141.5960 C   0  0  1  0  0  0  0  0  0  0  0  0
  179.4110  177.9520  141.4000 O   0  0  0  0  0  1  0  0  0  0  0  0
  179.3740  179.7930  142.9890 C   0  0  0  0  0  2  0  0  0  0  0  0
  179.3420  180.2810  140.4810 C   0  0  0  0  0  2  0  0  0  0  0  0
  180.3880  181.2010  140.3310 O   0  0  0  0  0  0  0  0  0  0  0  0
  180.6330  181.2460  138.9560 C   0  0  1  0  0  3  0  0  0  0  0  0
  180.8430  182.5690  138.5650 O   0  0  0  0  0  0  0  0  0  0  0  0
  179.7030  182.9130  137.8370 C   0  0  0  0  0  2  0  0  0  0  0  0
  179.6410  184.4210  137.6820 C   0  0  0  0  0  2  0  0  0  0  0  0
  180.7760  184.9100  136.8020 C   0  0  0  0  0  2  0  0  0  0  0  0
  182.0510  184.5360  137.3850 N   0  0  0  0  0  1  0  0  0  0  0  0
  181.8740  180.4250  138.6240 C   0  0  0  0  0  2  0  0  0  0  0  0
  181.7340  177.9640  138.1640 C   0  0  0  0  0  3  0  0  0  0  0  0
  181.4430  176.8950  137.3110 C   0  0  0  0  0  0  0  0  0  0  0  0
  181.6400  175.5600  137.7550 N   0  0  0  0  0  1  0  0  0  0  0  0
  181.5440  179.2800  137.7270 C   0  0  0  0  0  0  0  0  0  0  0  0
  180.9610  177.1390  136.0220 C   0  0  0  0  0  3  0  0  0  0  0  0
  180.7720  178.4520  135.5840 C   0  0  0  0  0  3  0  0  0  0  0  0
  181.0640  179.5220  136.4350 C   0  0  0  0  0  3  0  0  0  0  0  0
  1 35  1  6  0  0  0
  1  9  1  0  0  0  0
  3  6  1  0  0  0  0
  4  5  1  1  0  0  0
  4  8  1  0  0  0  0
  6 32  1  6  0  0  0
  6 10  1  0  0  0  0
  7  4  1  0  0  0  0
  8 13  1  0  0  0  0
  8 10  1  0  0  0  0
  8 12  1  1  0  0  0
  9 13  1  1  0  0  0
 10  2  1  1  0  0  0
 11 14  1  6  0  0  0
 11  7  1  0  0  0  0
 11  1  1  0  0  0  0
 11  9  1  0  0  0  0
 15 16  1  6  0  0  0
 15  3  1  0  0  0  0
 15  4  1  0  0  0  0
 16 18  1  6  0  0  0
 18 17  1  0  0  0  0
 19 20  1  6  0  0  0
 19 16  1  0  0  0  0
 21 20  1  0  0  0  0
 22 21  1  0  0  0  0
 23 22  1  0  0  0  0
 24 22  1  0  0  0  0
 25 19  1  0  0  0  0
 26 28  1  0  0  0  0
 26 27  1  0  0  0  0
 27 25  1  1  0  0  0
 28 29  1  6  0  0  0
 28 27  1  0  0  0  0
 29 31  1  0  0  0  0
 31 30  1  0  0  0  0
 32 34  1  0  0  0  0
 34 33  1  0  0  0  0
 36 37  2  0  0  0  0
 37 35  1  0  0  0  0
 37 38  1  0  0  0  0
 38 39  1  6  0  0  0
 40 38  1  0  0  0  0
 41 44  1  0  0  0  0
 41 40  1  1  0  0  0
 42 43  1  6  0  0  0
 42 41  1  0  0  0  0
 42 44  1  0  0  0  0
 45 42  1  0  0  0  0
 46 45  1  0  0  0  0
 47 53  1  1  0  0  0
 47 46  1  0  0  0  0
 48 47  1  0  0  0  0
 49 48  1  0  0  0  0
 50 49  1  0  0  0  0
 51 52  1  0  0  0  0
 51 50  1  0  0  0  0
 55 56  1  0  0  0  0
 55 54  2  0  0  0  0
 57 54  1  0  0  0  0
 57 53  1  0  0  0  0
 58 55  1  0  0  0  0
 59 58  2  0  0  0  0
 59 60  1  0  0  0  0
 60 57  2  0  0  0  0
M  END
>  <MODEL>
4

>  <REMARK>
 VINA RESULT:      -4.1      3.527     11.124
  Name = 
  26 active torsions:
  status: ('A' for Active; 'I' for Inactive)
    1  A    between atoms: O_1  and  C_15
    2  A    between atoms: O_1  and  C_48
    3  A    between atoms: C_3  and  O_23
    4  A    between atoms: S_6  and  C_39
    5  A    between atoms: C_10  and  C_37
    6  A    between atoms: C_13  and  C_60
    7  A    between atoms: C_14  and  C_33
    8  A    between atoms: C_14  and  C_48
    9  A    between atoms: C_15  and  C_34
   10  A    between atoms: C_16  and  C_38
   11  A    between atoms: C_16  and  C_54
   12  A    between atoms: C_17  and  C_55
   13  A    between atoms: O_19  and  C_25
   14  A    between atoms: O_19  and  C_32
   15  A    between atoms: O_20  and  C_48
   16  A    between atoms: O_20  and  C_55
   17  A    between atoms: O_23  and  C_49
   18  A    between atoms: C_24  and  C_37
   19  A    between atoms: C_24  and  C_49
   20  A    between atoms: C_32  and  C_50
   21  A    between atoms: C_32  and  C_51
   22  A    between atoms: C_34  and  C_36
   23  A    between atoms: C_39  and  C_51
   24  A    between atoms: O_43  and  C_50
   25  A    between atoms: O_47  and  C_60
   26  A    between atoms: C_50  and  C_58
                            x       y       z     vdW  Elec       q    Type
                         _______ _______ _______ _____ _____    ______ ____

>  <TORSDO>
F 26

$$$$
=
 OpenBabel11062414143D

 60 65  0  0  1  0  0  0  0  0999 V2000
  180.4710  175.9230  140.7520 C   0  0  1  0  0  3  0  0  0  0  0  0
  178.9460  178.1020  136.5640 C   0  0  0  0  0  1  0  0  0  0  0  0
  182.4710  177.1460  137.3050 O   0  0  0  0  0  0  0  0  0  0  0  0
  181.2880  175.0130  137.3370 C   0  0  2  0  0  0  0  0  0  0  0  0
  181.1530  173.7640  136.4670 C   0  0  0  0  0  1  0  0  0  0  0  0
  181.4560  177.8980  136.6710 C   0  0  2  0  0  3  0  0  0  0  0  0
  181.5590  174.5280  138.7730 C   0  0  0  0  0  2  0  0  0  0  0  0
  179.9560  175.8780  137.3100 C   0  0  1  0  0  0  0  0  0  0  0  0
  180.4980  176.7220  139.4500 C   0  0  1  0  0  3  0  0  0  0  0  0
  180.1270  177.1510  136.4460 C   0  0  1  0  0  3  0  0  0  0  0  0
  181.5820  175.6990  139.7460 C   0  0  1  0  0  0  0  0  0  0  0  0
  178.9330  175.1380  136.7040 O   0  0  0  0  0  1  0  0  0  0  0  0
  179.4840  176.2070  138.6140 O   0  0  0  0  0  0  0  0  0  0  0  0
  182.8170  176.2870  140.0310 O   0  0  0  0  0  1  0  0  0  0  0  0
  182.4940  175.8360  136.7850 C   0  0  2  0  0  3  0  0  0  0  0  0
  183.8710  175.1670  137.0250 C   0  0  1  0  0  3  0  0  0  0  0  0
  184.3470  173.0040  137.1470 C   0  0  0  0  0  1  0  0  0  0  0  0
  183.9960  174.0120  136.2460 O   0  0  0  0  0  0  0  0  0  0  0  0
  185.0820  176.0840  136.7870 C   0  0  1  0  0  3  0  0  0  0  0  0
  184.7970  177.5290  137.1870 C   0  0  0  0  0  2  0  0  0  0  0  0
  185.6970  177.9550  138.3290 C   0  0  0  0  0  2  0  0  0  0  0  0
  184.6980  178.6060  139.6750 S   0  0  0  0  0  3  0  0  0  0  0  0
  183.7030  179.7580  138.9090 O   0  0  0  0  0  1  0  0  0  0  0  0
  185.6740  179.4620  140.4760 O   0  0  0  0  0  1  0  0  0  0  0  0
  186.2090  175.5940  137.4550 O   0  0  0  0  0  0  0  0  0  0  0  0
  187.9620  174.0780  136.9450 C   0  0  0  0  0  2  0  0  0  0  0  0
  187.0930  175.2110  136.4450 C   0  0  2  0  0  3  0  0  0  0  0  0
  188.5160  175.4870  136.8930 C   0  0  2  0  0  3  0  0  0  0  0  0
  189.3910  175.6340  135.6680 C   0  0  0  0  0  2  0  0  0  0  0  0
  188.8090  177.8270  134.6760 C   0  0  0  0  0  1  0  0  0  0  0  0
  189.8230  177.0800  135.5230 C   0  0  0  0  0  2  0  0  0  0  0  0
  181.9610  178.5930  135.4070 C   0  0  0  0  0  2  0  0  0  0  0  0
  181.1610  180.4790  136.2210 C   0  0  0  0  0  1  0  0  0  0  0  0
  181.1450  179.6780  135.0790 O   0  0  0  0  0  0  0  0  0  0  0  0
  180.9120  176.7570  141.8170 O   0  0  0  0  0  0  0  0  0  0  0  0
  179.1340  177.9360  142.6530 O   0  0  0  0  0  0  0  0  0  0  0  0
  180.2850  177.9650  142.1380 C   0  0  0  0  0  0  0  0  0  0  0  0
  180.9630  179.2840  141.9100 C   0  0  1  0  0  3  0  0  0  0  0  0
  180.0190  180.2600  141.5970 O   0  0  0  0  0  1  0  0  0  0  0  0
  181.7430  179.7110  143.1430 C   0  0  0  0  0  2  0  0  0  0  0  0
  182.6110  178.5610  143.6240 C   0  0  1  0  0  3  0  0  0  0  0  0
  184.0410  178.9840  143.9120 C   0  0  1  0  0  0  0  0  0  0  0  0
  184.3910  180.3080  143.6460 O   0  0  0  0  0  1  0  0  0  0  0  0
  183.0740  178.8250  145.0540 C   0  0  0  0  0  2  0  0  0  0  0  0
  185.1090  177.9130  143.8050 C   0  0  0  0  0  2  0  0  0  0  0  0
  186.3780  178.5080  143.8110 O   0  0  0  0  0  0  0  0  0  0  0  0
  187.2100  177.5760  144.4370 C   0  0  1  0  0  3  0  0  0  0  0  0
  186.5150  176.9600  145.4780 O   0  0  0  0  0  0  0  0  0  0  0  0
  186.9900  177.5730  146.6380 C   0  0  0  0  0  2  0  0  0  0  0  0
  187.8480  176.5900  147.4120 C   0  0  0  0  0  2  0  0  0  0  0  0
  189.2030  177.1970  147.7210 C   0  0  0  0  0  2  0  0  0  0  0  0
  189.4910  178.2660  146.7820 N   0  0  0  0  0  1  0  0  0  0  0  0
  187.6470  176.5160  143.4330 C   0  0  0  0  0  2  0  0  0  0  0  0
  189.2540  176.9170  141.5500 C   0  0  0  0  0  3  0  0  0  0  0  0
  190.5490  177.1480  141.0770 C   0  0  0  0  0  0  0  0  0  0  0  0
  190.7820  177.2780  139.6810 N   0  0  0  0  0  1  0  0  0  0  0  0
  189.0230  176.7850  142.9240 C   0  0  0  0  0  0  0  0  0  0  0  0
  191.6150  177.2470  141.9760 C   0  0  0  0  0  3  0  0  0  0  0  0
  191.3860  177.1150  143.3480 C   0  0  0  0  0  3  0  0  0  0  0  0
  190.0920  176.8820  143.8210 C   0  0  0  0  0  3  0  0  0  0  0  0
  1 35  1  1  0  0  0
  4  5  1  6  0  0  0
  4  7  1  0  0  0  0
  6 32  1  6  0  0  0
  6  3  1  0  0  0  0
  7 11  1  0  0  0  0
  8 12  1  6  0  0  0
  8  4  1  0  0  0  0
  8 13  1  0  0  0  0
  9 13  1  6  0  0  0
  9 11  1  0  0  0  0
  9  1  1  0  0  0  0
 10  2  1  1  0  0  0
 10  6  1  0  0  0  0
 10  8  1  0  0  0  0
 11 14  1  1  0  0  0
 11  1  1  0  0  0  0
 15 16  1  1  0  0  0
 15  3  1  0  0  0  0
 15  4  1  0  0  0  0
 16 18  1  6  0  0  0
 18 17  1  0  0  0  0
 19 16  1  0  0  0  0
 19 20  1  1  0  0  0
 19 25  1  0  0  0  0
 20 21  1  0  0  0  0
 21 22  1  0  0  0  0
 22 24  1  0  0  0  0
 23 22  1  0  0  0  0
 27 28  1  0  0  0  0
 27 26  1  0  0  0  0
 27 25  1  1  0  0  0
 28 29  1  6  0  0  0
 28 26  1  0  0  0  0
 30 31  1  0  0  0  0
 31 29  1  0  0  0  0
 34 32  1  0  0  0  0
 34 33  1  0  0  0  0
 35 37  1  0  0  0  0
 37 36  2  0  0  0  0
 38 39  1  1  0  0  0
 38 37  1  0  0  0  0
 38 40  1  0  0  0  0
 41 40  1  6  0  0  0
 41 42  1  0  0  0  0
 41 44  1  0  0  0  0
 42 43  1  6  0  0  0
 42 44  1  0  0  0  0
 45 46  1  0  0  0  0
 45 42  1  0  0  0  0
 46 47  1  0  0  0  0
 47 53  1  6  0  0  0
 47 48  1  0  0  0  0
 48 49  1  0  0  0  0
 49 50  1  0  0  0  0
 50 51  1  0  0  0  0
 52 51  1  0  0  0  0
 54 57  1  0  0  0  0
 55 54  2  0  0  0  0
 55 58  1  0  0  0  0
 56 55  1  0  0  0  0
 57 53  1  0  0  0  0
 57 60  2  0  0  0  0
 58 59  2  0  0  0  0
 59 60  1  0  0  0  0
M  END
>  <MODEL>
5

>  <REMARK>
 VINA RESULT:      -4.0      3.123      8.065
  Name = 
  26 active torsions:
  status: ('A' for Active; 'I' for Inactive)
    1  A    between atoms: O_1  and  C_15
    2  A    between atoms: O_1  and  C_48
    3  A    between atoms: C_3  and  O_23
    4  A    between atoms: S_6  and  C_39
    5  A    between atoms: C_10  and  C_37
    6  A    between atoms: C_13  and  C_60
    7  A    between atoms: C_14  and  C_33
    8  A    between atoms: C_14  and  C_48
    9  A    between atoms: C_15  and  C_34
   10  A    between atoms: C_16  and  C_38
   11  A    between atoms: C_16  and  C_54
   12  A    between atoms: C_17  and  C_55
   13  A    between atoms: O_19  and  C_25
   14  A    between atoms: O_19  and  C_32
   15  A    between atoms: O_20  and  C_48
   16  A    between atoms: O_20  and  C_55
   17  A    between atoms: O_23  and  C_49
   18  A    between atoms: C_24  and  C_37
   19  A    between atoms: C_24  and  C_49
   20  A    between atoms: C_32  and  C_50
   21  A    between atoms: C_32  and  C_51
   22  A    between atoms: C_34  and  C_36
   23  A    between atoms: C_39  and  C_51
   24  A    between atoms: O_43  and  C_50
   25  A    between atoms: O_47  and  C_60
   26  A    between atoms: C_50  and  C_58
                            x       y       z     vdW  Elec       q    Type
                         _______ _______ _______ _____ _____    ______ ____

>  <TORSDO>
F 26

$$$$
=
 OpenBabel11062414143D

 60 65  0  0  1  0  0  0  0  0999 V2000
  186.7860  178.4820  143.7700 C   0  0  1  0  0  3  0  0  0  0  0  0
  190.2070  175.8890  146.2580 C   0  0  0  0  0  1  0  0  0  0  0  0
  190.0180  176.1520  142.5450 O   0  0  0  0  0  0  0  0  0  0  0  0
  190.3770  178.4570  143.2580 C   0  0  2  0  0  0  0  0  0  0  0  0
  191.4970  179.4970  143.2550 C   0  0  0  0  0  1  0  0  0  0  0  0
  190.3700  175.5360  143.7670 C   0  0  2  0  0  3  0  0  0  0  0  0
  189.1210  179.1540  142.7030 C   0  0  0  0  0  2  0  0  0  0  0  0
  190.0870  177.9300  144.7280 C   0  0  1  0  0  0  0  0  0  0  0  0
  187.8660  177.4460  144.0820 C   0  0  1  0  0  3  0  0  0  0  0  0
  190.6440  176.5010  144.9360 C   0  0  1  0  0  3  0  0  0  0  0  0
  187.9100  178.2350  142.7840 C   0  0  1  0  0  0  0  0  0  0  0  0
  190.7550  178.7410  145.6530 O   0  0  0  0  0  1  0  0  0  0  0  0
  188.7060  177.9940  145.0750 O   0  0  0  0  0  0  0  0  0  0  0  0
  187.6050  177.4550  141.6660 O   0  0  0  0  0  1  0  0  0  0  0  0
  190.8270  177.2870  142.3290 C   0  0  2  0  0  3  0  0  0  0  0  0
  190.8690  177.6600  140.8260 C   0  0  1  0  0  3  0  0  0  0  0  0
  192.9360  176.9120  141.1180 C   0  0  0  0  0  1  0  0  0  0  0  0
  192.1900  177.8550  140.4080 O   0  0  0  0  0  0  0  0  0  0  0  0
  190.1760  176.6540  139.8920 C   0  0  1  0  0  3  0  0  0  0  0  0
  189.4830  177.3420  138.7200 C   0  0  0  0  0  2  0  0  0  0  0  0
  188.3730  176.4700  138.1670 C   0  0  0  0  0  2  0  0  0  0  0  0
  187.1140  177.5030  137.4080 S   0  0  0  0  0  3  0  0  0  0  0  0
  186.7510  178.6420  138.6220 O   0  0  0  0  0  1  0  0  0  0  0  0
  185.8750  176.6130  137.3820 O   0  0  0  0  0  1  0  0  0  0  0  0
  191.0870  175.6940  139.4400 O   0  0  0  0  0  0  0  0  0  0  0  0
  191.3880  174.6530  137.3290 C   0  0  0  0  0  2  0  0  0  0  0  0
  191.2500  175.9590  138.0800 C   0  0  2  0  0  3  0  0  0  0  0  0
  192.6200  175.4790  137.6360 C   0  0  2  0  0  3  0  0  0  0  0  0
  193.0270  176.2470  136.3990 C   0  0  0  0  0  2  0  0  0  0  0  0
  194.6730  174.4430  135.9900 C   0  0  0  0  0  1  0  0  0  0  0  0
  193.5790  175.2880  135.3630 C   0  0  0  0  0  2  0  0  0  0  0  0
  191.4780  174.4990  143.5880 C   0  0  0  0  0  2  0  0  0  0  0  0
  192.6430  173.3930  145.0990 C   0  0  0  0  0  1  0  0  0  0  0  0
  192.4730  174.6670  144.5550 O   0  0  0  0  0  0  0  0  0  0  0  0
  185.6000  177.8080  143.3670 O   0  0  0  0  0  0  0  0  0  0  0  0
  183.6380  178.5010  144.3250 O   0  0  0  0  0  0  0  0  0  0  0  0
  184.3580  178.4460  143.2920 C   0  0  0  0  0  0  0  0  0  0  0  0
  183.8830  179.0860  142.0200 C   0  0  1  0  0  3  0  0  0  0  0  0
  184.9720  179.5400  141.2770 O   0  0  0  0  0  1  0  0  0  0  0  0
  183.0780  178.1020  141.1880 C   0  0  0  0  0  2  0  0  0  0  0  0
  181.9350  178.8280  140.4970 C   0  0  1  0  0  3  0  0  0  0  0  0
  182.1200  178.9180  138.9930 C   0  0  1  0  0  0  0  0  0  0  0  0
  183.2990  178.4060  138.4520 O   0  0  0  0  0  1  0  0  0  0  0  0
  181.2030  177.8700  139.5620 C   0  0  0  0  0  2  0  0  0  0  0  0
  181.4360  180.0720  138.2850 C   0  0  0  0  0  2  0  0  0  0  0  0
  181.5290  179.8980  136.8980 O   0  0  0  0  0  0  0  0  0  0  0  0
  180.2720  180.2580  136.4040 C   0  0  1  0  0  3  0  0  0  0  0  0
  180.3770  181.4580  135.7000 O   0  0  0  0  0  0  0  0  0  0  0  0
  179.2120  182.1600  136.0130 C   0  0  0  0  0  2  0  0  0  0  0  0
  179.5760  183.5640  136.4590 C   0  0  0  0  0  2  0  0  0  0  0  0
  180.9710  183.9260  135.9860 C   0  0  0  0  0  2  0  0  0  0  0  0
  181.5370  184.9460  136.8490 N   0  0  0  0  0  1  0  0  0  0  0  0
  179.7530  179.1740  135.4680 C   0  0  0  0  0  2  0  0  0  0  0  0
  181.1670  177.1370  135.8440 C   0  0  0  0  0  3  0  0  0  0  0  0
  181.3460  175.8540  136.3690 C   0  0  0  0  0  0  0  0  0  0  0  0
  182.5720  175.1670  136.1620 N   0  0  0  0  0  1  0  0  0  0  0  0
  179.9590  177.8140  136.0440 C   0  0  0  0  0  0  0  0  0  0  0  0
  180.3180  175.2450  137.0960 C   0  0  0  0  0  3  0  0  0  0  0  0
  179.1110  175.9190  137.2960 C   0  0  0  0  0  3  0  0  0  0  0  0
  178.9310  177.2020  136.7690 C   0  0  0  0  0  3  0  0  0  0  0  0
  1 35  1  6  0  0  0
  1  9  1  0  0  0  0
  3  6  1  0  0  0  0
  4  5  1  1  0  0  0
  4  8  1  0  0  0  0
  6 32  1  6  0  0  0
  6 10  1  0  0  0  0
  7 11  1  0  0  0  0
  7  4  1  0  0  0  0
  8 10  1  0  0  0  0
  8 13  1  0  0  0  0
  8 12  1  1  0  0  0
  9 13  1  1  0  0  0
 10  2  1  1  0  0  0
 11 14  1  6  0  0  0
 11  1  1  0  0  0  0
 11  9  1  0  0  0  0
 15 16  1  6  0  0  0
 15  3  1  0  0  0  0
 15  4  1  0  0  0  0
 16 18  1  6  0  0  0
 18 17  1  0  0  0  0
 19 20  1  6  0  0  0
 19 16  1  0  0  0  0
 21 20  1  0  0  0  0
 22 21  1  0  0  0  0
 22 23  1  0  0  0  0
 24 22  1  0  0  0  0
 25 19  1  0  0  0  0
 26 28  1  0  0  0  0
 26 27  1  0  0  0  0
 27 25  1  1  0  0  0
 28 29  1  6  0  0  0
 28 27  1  0  0  0  0
 31 30  1  0  0  0  0
 31 29  1  0  0  0  0
 32 34  1  0  0  0  0
 34 33  1  0  0  0  0
 37 35  1  0  0  0  0
 37 36  2  0  0  0  0
 38 39  1  6  0  0  0
 38 37  1  0  0  0  0
 40 38  1  0  0  0  0
 41 40  1  1  0  0  0
 42 43  1  6  0  0  0
 42 44  1  0  0  0  0
 42 41  1  0  0  0  0
 44 41  1  0  0  0  0
 45 42  1  0  0  0  0
 46 45  1  0  0  0  0
 47 53  1  6  0  0  0
 47 46  1  0  0  0  0
 48 49  1  0  0  0  0
 48 47  1  0  0  0  0
 49 50  1  0  0  0  0
 51 50  1  0  0  0  0
 51 52  1  0  0  0  0
 53 57  1  0  0  0  0
 54 57  2  0  0  0  0
 54 55  1  0  0  0  0
 55 58  2  0  0  0  0
 56 55  1  0  0  0  0
 57 60  1  0  0  0  0
 58 59  1  0  0  0  0
 60 59  2  0  0  0  0
M  END
>  <MODEL>
6

>  <REMARK>
 VINA RESULT:      -3.3      3.402     11.035
  Name = 
  26 active torsions:
  status: ('A' for Active; 'I' for Inactive)
    1  A    between atoms: O_1  and  C_15
    2  A    between atoms: O_1  and  C_48
    3  A    between atoms: C_3  and  O_23
    4  A    between atoms: S_6  and  C_39
    5  A    between atoms: C_10  and  C_37
    6  A    between atoms: C_13  and  C_60
    7  A    between atoms: C_14  and  C_33
    8  A    between atoms: C_14  and  C_48
    9  A    between atoms: C_15  and  C_34
   10  A    between atoms: C_16  and  C_38
   11  A    between atoms: C_16  and  C_54
   12  A    between atoms: C_17  and  C_55
   13  A    between atoms: O_19  and  C_25
   14  A    between atoms: O_19  and  C_32
   15  A    between atoms: O_20  and  C_48
   16  A    between atoms: O_20  and  C_55
   17  A    between atoms: O_23  and  C_49
   18  A    between atoms: C_24  and  C_37
   19  A    between atoms: C_24  and  C_49
   20  A    between atoms: C_32  and  C_50
   21  A    between atoms: C_32  and  C_51
   22  A    between atoms: C_34  and  C_36
   23  A    between atoms: C_39  and  C_51
   24  A    between atoms: O_43  and  C_50
   25  A    between atoms: O_47  and  C_60
   26  A    between atoms: C_50  and  C_58
                            x       y       z     vdW  Elec       q    Type
                         _______ _______ _______ _____ _____    ______ ____

>  <TORSDO>
F 26

$$$$
=
 OpenBabel11062414143D

 60 65  0  0  1  0  0  0  0  0999 V2000
  191.7120  176.7140  138.7310 C   0  0  1  0  0  3  0  0  0  0  0  0
  196.1560  174.5090  138.7950 C   0  0  0  0  0  1  0  0  0  0  0  0
  193.0560  173.0110  137.3680 O   0  0  0  0  0  0  0  0  0  0  0  0
  193.3950  175.0080  136.0090 C   0  0  2  0  0  0  0  0  0  0  0  0
  193.8490  175.3690  134.5950 C   0  0  0  0  0  1  0  0  0  0  0  0
  194.3440  172.9750  137.9490 C   0  0  2  0  0  3  0  0  0  0  0  0
  192.0960  175.7900  136.2730 C   0  0  0  0  0  2  0  0  0  0  0  0
  194.4910  175.4170  137.0850 C   0  0  1  0  0  0  0  0  0  0  0  0
  192.7800  175.6220  138.7030 C   0  0  1  0  0  3  0  0  0  0  0  0
  195.2480  174.1780  137.6210 C   0  0  1  0  0  3  0  0  0  0  0  0
  191.6290  175.5980  137.7100 C   0  0  1  0  0  0  0  0  0  0  0  0
  195.4590  176.2260  136.4770 O   0  0  0  0  0  1  0  0  0  0  0  0
  193.9520  176.1880  138.1560 O   0  0  0  0  0  0  0  0  0  0  0  0
  190.7140  174.5750  137.9690 O   0  0  0  0  0  1  0  0  0  0  0  0
  193.1410  173.4690  136.0370 C   0  0  2  0  0  3  0  0  0  0  0  0
  191.9050  173.0240  135.2160 C   0  0  1  0  0  3  0  0  0  0  0  0
  193.1080  171.2630  134.6060 C   0  0  0  0  0  1  0  0  0  0  0  0
  191.8610  171.6290  135.1170 O   0  0  0  0  0  0  0  0  0  0  0  0
  190.5590  173.5460  135.7450 C   0  0  1  0  0  3  0  0  0  0  0  0
  189.7320  174.2150  134.6500 C   0  0  0  0  0  2  0  0  0  0  0  0
  190.0200  175.7020  134.5960 C   0  0  0  0  0  2  0  0  0  0  0  0
  188.5110  176.6220  134.9240 S   0  0  0  0  0  3  0  0  0  0  0  0
  188.4670  176.7200  136.6240 O   0  0  0  0  0  1  0  0  0  0  0  0
  187.3980  175.6280  134.6020 O   0  0  0  0  0  1  0  0  0  0  0  0
  189.8360  172.5150  136.3560 O   0  0  0  0  0  0  0  0  0  0  0  0
  187.7640  172.1000  137.4340 C   0  0  0  0  0  2  0  0  0  0  0  0
  188.5510  173.0290  136.5370 C   0  0  2  0  0  3  0  0  0  0  0  0
  187.5390  172.0710  135.9360 C   0  0  2  0  0  3  0  0  0  0  0  0
  186.2790  172.8410  135.6060 C   0  0  0  0  0  2  0  0  0  0  0  0
  183.9500  172.4740  134.8490 C   0  0  0  0  0  1  0  0  0  0  0  0
  185.0810  171.9160  135.6940 C   0  0  0  0  0  2  0  0  0  0  0  0
  195.0400  171.6350  137.7140 C   0  0  0  0  0  2  0  0  0  0  0  0
  196.9820  170.6940  137.2630 C   0  0  0  0  0  1  0  0  0  0  0  0
  196.1990  171.8060  136.9530 O   0  0  0  0  0  0  0  0  0  0  0  0
  190.8300  176.4710  139.8210 O   0  0  0  0  0  0  0  0  0  0  0  0
  190.2880  177.5780  141.7520 O   0  0  0  0  0  0  0  0  0  0  0  0
  190.1670  177.4980  140.5000 C   0  0  0  0  0  0  0  0  0  0  0  0
  189.3440  178.5160  139.7660 C   0  0  1  0  0  3  0  0  0  0  0  0
  189.5100  178.3640  138.3900 O   0  0  0  0  0  1  0  0  0  0  0  0
  187.8720  178.3750  140.1170 C   0  0  0  0  0  2  0  0  0  0  0  0
  187.6640  178.6810  141.5910 C   0  0  1  0  0  3  0  0  0  0  0  0
  186.2120  178.5600  142.0180 C   0  0  1  0  0  0  0  0  0  0  0  0
  185.2700  178.2620  141.0340 O   0  0  0  0  0  1  0  0  0  0  0  0
  187.1640  177.4330  142.3140 C   0  0  0  0  0  2  0  0  0  0  0  0
  185.7770  179.3810  143.2160 C   0  0  0  0  0  2  0  0  0  0  0  0
  184.3980  179.2370  143.4130 O   0  0  0  0  0  0  0  0  0  0  0  0
  184.2440  179.1030  144.7960 C   0  0  1  0  0  3  0  0  0  0  0  0
  182.8890  179.1750  145.1210 O   0  0  0  0  0  0  0  0  0  0  0  0
  182.2590  179.5900  143.9470 C   0  0  0  0  0  2  0  0  0  0  0  0
  181.4490  178.4410  143.3770 C   0  0  0  0  0  2  0  0  0  0  0  0
  180.2970  178.9680  142.5440 C   0  0  0  0  0  2  0  0  0  0  0  0
  180.3460  178.3920  141.2120 N   0  0  0  0  0  1  0  0  0  0  0  0
  184.7950  177.7560  145.2490 C   0  0  0  0  0  2  0  0  0  0  0  0
  187.2820  177.4840  145.4220 C   0  0  0  0  0  3  0  0  0  0  0  0
  188.4790  177.6170  146.1300 C   0  0  0  0  0  0  0  0  0  0  0  0
  189.6990  177.1750  145.5520 N   0  0  0  0  0  1  0  0  0  0  0  0
  186.0790  177.9160  145.9910 C   0  0  0  0  0  0  0  0  0  0  0  0
  188.4770  178.1820  147.4090 C   0  0  0  0  0  3  0  0  0  0  0  0
  187.2760  178.6130  147.9790 C   0  0  0  0  0  3  0  0  0  0  0  0
  186.0780  178.4790  147.2720 C   0  0  0  0  0  3  0  0  0  0  0  0
  1 35  1  1  0  0  0
  3  6  1  0  0  0  0
  4  5  1  6  0  0  0
  4 15  1  0  0  0  0
  4  7  1  0  0  0  0
  4  8  1  0  0  0  0
  6 32  1  6  0  0  0
  7 11  1  0  0  0  0
  8 12  1  6  0  0  0
  8 10  1  0  0  0  0
  8 13  1  0  0  0  0
  9 13  1  6  0  0  0
  9  1  1  0  0  0  0
 10  6  1  0  0  0  0
 10  2  1  1  0  0  0
 11 14  1  1  0  0  0
 11  9  1  0  0  0  0
 11  1  1  0  0  0  0
 15 16  1  6  0  0  0
 15  3  1  0  0  0  0
 16 18  1  1  0  0  0
 16 19  1  0  0  0  0
 17 18  1  0  0  0  0
 19 20  1  6  0  0  0
 19 25  1  0  0  0  0
 21 20  1  0  0  0  0
 21 22  1  0  0  0  0
 22 23  1  0  0  0  0
 24 22  1  0  0  0  0
 27 25  1  6  0  0  0
 27 26  1  0  0  0  0
 28 29  1  1  0  0  0
 28 27  1  0  0  0  0
 28 26  1  0  0  0  0
 29 31  1  0  0  0  0
 30 31  1  0  0  0  0
 34 33  1  0  0  0  0
 34 32  1  0  0  0  0
 35 37  1  0  0  0  0
 37 36  2  0  0  0  0
 38 39  1  6  0  0  0
 38 40  1  0  0  0  0
 38 37  1  0  0  0  0
 41 40  1  6  0  0  0
 41 42  1  0  0  0  0
 41 44  1  0  0  0  0
 42 43  1  6  0  0  0
 42 44  1  0  0  0  0
 42 45  1  0  0  0  0
 45 46  1  0  0  0  0
 46 47  1  0  0  0  0
 47 48  1  0  0  0  0
 47 53  1  6  0  0  0
 49 48  1  0  0  0  0
 50 49  1  0  0  0  0
 51 50  1  0  0  0  0
 52 51  1  0  0  0  0
 53 57  1  0  0  0  0
 54 57  2  0  0  0  0
 54 55  1  0  0  0  0
 55 58  2  0  0  0  0
 56 55  1  0  0  0  0
 57 60  1  0  0  0  0
 58 59  1  0  0  0  0
 60 59  2  0  0  0  0
M  END
>  <MODEL>
7

>  <REMARK>
 VINA RESULT:      -3.2      3.960     11.737
  Name = 
  26 active torsions:
  status: ('A' for Active; 'I' for Inactive)
    1  A    between atoms: O_1  and  C_15
    2  A    between atoms: O_1  and  C_48
    3  A    between atoms: C_3  and  O_23
    4  A    between atoms: S_6  and  C_39
    5  A    between atoms: C_10  and  C_37
    6  A    between atoms: C_13  and  C_60
    7  A    between atoms: C_14  and  C_33
    8  A    between atoms: C_14  and  C_48
    9  A    between atoms: C_15  and  C_34
   10  A    between atoms: C_16  and  C_38
   11  A    between atoms: C_16  and  C_54
   12  A    between atoms: C_17  and  C_55
   13  A    between atoms: O_19  and  C_25
   14  A    between atoms: O_19  and  C_32
   15  A    between atoms: O_20  and  C_48
   16  A    between atoms: O_20  and  C_55
   17  A    between atoms: O_23  and  C_49
   18  A    between atoms: C_24  and  C_37
   19  A    between atoms: C_24  and  C_49
   20  A    between atoms: C_32  and  C_50
   21  A    between atoms: C_32  and  C_51
   22  A    between atoms: C_34  and  C_36
   23  A    between atoms: C_39  and  C_51
   24  A    between atoms: O_43  and  C_50
   25  A    between atoms: O_47  and  C_60
   26  A    between atoms: C_50  and  C_58
                            x       y       z     vdW  Elec       q    Type
                         _______ _______ _______ _____ _____    ______ ____

>  <TORSDO>
F 26

$$$$
=
 OpenBabel11062414143D

 60 65  0  0  1  0  0  0  0  0999 V2000
  186.6670  178.5380  144.7250 C   0  0  1  0  0  3  0  0  0  0  0  0
  190.2080  175.6270  146.6240 C   0  0  0  0  0  1  0  0  0  0  0  0
  189.7170  176.2870  142.9900 O   0  0  0  0  0  0  0  0  0  0  0  0
  190.2000  178.4960  143.9050 C   0  0  2  0  0  0  0  0  0  0  0  0
  191.3460  179.5080  143.9150 C   0  0  0  0  0  1  0  0  0  0  0  0
  190.1510  175.5380  144.1060 C   0  0  2  0  0  3  0  0  0  0  0  0
  188.9230  179.2730  143.5360 C   0  0  0  0  0  2  0  0  0  0  0  0
  190.0190  177.8210  145.3320 C   0  0  1  0  0  0  0  0  0  0  0  0
  187.7380  177.4530  144.8330 C   0  0  1  0  0  3  0  0  0  0  0  0
  190.5500  176.3680  145.3410 C   0  0  1  0  0  3  0  0  0  0  0  0
  187.6960  178.3750  143.6260 C   0  0  1  0  0  0  0  0  0  0  0  0
  190.7850  178.5160  146.2750 O   0  0  0  0  0  1  0  0  0  0  0  0
  188.6750  177.8760  145.8020 O   0  0  0  0  0  0  0  0  0  0  0  0
  187.2770  177.7240  142.4630 O   0  0  0  0  0  1  0  0  0  0  0  0
  190.5370  177.4220  142.8240 C   0  0  2  0  0  3  0  0  0  0  0  0
  190.4640  177.9530  141.3710 C   0  0  1  0  0  3  0  0  0  0  0  0
  192.6200  177.4350  141.4270 C   0  0  0  0  0  1  0  0  0  0  0  0
  191.7230  178.3920  140.9470 O   0  0  0  0  0  0  0  0  0  0  0  0
  189.8960  176.9550  140.3480 C   0  0  1  0  0  3  0  0  0  0  0  0
  188.4090  177.1810  140.0890 C   0  0  0  0  0  2  0  0  0  0  0  0
  188.1990  177.9070  138.7750 C   0  0  0  0  0  2  0  0  0  0  0  0
  186.4560  177.8750  138.3400 S   0  0  0  0  0  3  0  0  0  0  0  0
  186.4330  178.4920  136.7520 O   0  0  0  0  0  1  0  0  0  0  0  0
  185.8510  179.0080  139.1640 O   0  0  0  0  0  1  0  0  0  0  0  0
  190.6240  177.0040  139.1550 O   0  0  0  0  0  0  0  0  0  0  0  0
  192.0090  175.5090  137.9390 C   0  0  0  0  0  2  0  0  0  0  0  0
  190.7380  175.6750  138.7430 C   0  0  2  0  0  3  0  0  0  0  0  0
  190.6760  175.6130  137.2280 C   0  0  2  0  0  3  0  0  0  0  0  0
  190.2200  174.2310  136.8170 C   0  0  0  0  0  2  0  0  0  0  0  0
  191.3920  172.9870  135.0250 C   0  0  0  0  0  1  0  0  0  0  0  0
  191.4260  173.3730  136.4930 C   0  0  0  0  0  2  0  0  0  0  0  0
  191.2100  174.5040  143.7250 C   0  0  0  0  0  2  0  0  0  0  0  0
  192.7310  173.6630  145.0820 C   0  0  0  0  0  1  0  0  0  0  0  0
  192.4330  174.8010  144.3320 O   0  0  0  0  0  0  0  0  0  0  0  0
  185.4320  177.9340  144.3570 O   0  0  0  0  0  0  0  0  0  0  0  0
  183.7440  179.0430  145.4390 O   0  0  0  0  0  0  0  0  0  0  0  0
  184.2230  178.6360  144.3460 C   0  0  0  0  0  0  0  0  0  0  0  0
  183.5040  178.9360  143.0630 C   0  0  1  0  0  3  0  0  0  0  0  0
  184.0060  178.1370  142.0360 O   0  0  0  0  0  1  0  0  0  0  0  0
  182.0120  178.6930  143.2100 C   0  0  0  0  0  2  0  0  0  0  0  0
  181.3000  179.0810  141.9250 C   0  0  1  0  0  3  0  0  0  0  0  0
  179.9130  178.4730  141.8140 C   0  0  1  0  0  0  0  0  0  0  0  0
  179.5000  177.6100  142.8290 O   0  0  0  0  0  1  0  0  0  0  0  0
  180.0570  179.9050  142.2500 C   0  0  0  0  0  2  0  0  0  0  0  0
  179.3630  178.2660  140.4160 C   0  0  0  0  0  2  0  0  0  0  0  0
  180.2470  177.4730  139.6720 O   0  0  0  0  0  0  0  0  0  0  0  0
  180.6440  178.2820  138.6040 C   0  0  1  0  0  3  0  0  0  0  0  0
  180.9360  177.4810  137.4990 O   0  0  0  0  0  0  0  0  0  0  0  0
  182.3040  177.2250  137.5930 C   0  0  0  0  0  2  0  0  0  0  0  0
  182.7770  176.5440  136.3220 C   0  0  0  0  0  2  0  0  0  0  0  0
  183.9300  175.6060  136.6220 C   0  0  0  0  0  2  0  0  0  0  0  0
  183.4580  174.4690  137.3910 N   0  0  0  0  0  1  0  0  0  0  0  0
  179.5210  179.2450  138.2390 C   0  0  0  0  0  2  0  0  0  0  0  0
  179.5660  181.2810  136.7760 C   0  0  0  0  0  3  0  0  0  0  0  0
  180.0830  182.5370  136.4450 C   0  0  0  0  0  0  0  0  0  0  0  0
  179.5890  183.2310  135.3080 N   0  0  0  0  0  1  0  0  0  0  0  0
  180.0530  180.5950  137.8940 C   0  0  0  0  0  0  0  0  0  0  0  0
  181.0870  183.1090  137.2310 C   0  0  0  0  0  3  0  0  0  0  0  0
  181.5760  182.4250  138.3470 C   0  0  0  0  0  3  0  0  0  0  0  0
  181.0600  181.1680  138.6770 C   0  0  0  0  0  3  0  0  0  0  0  0
  1 35  1  6  0  0  0
  1  9  1  0  0  0  0
  3  6  1  0  0  0  0
  4  5  1  1  0  0  0
  4  8  1  0  0  0  0
  6 32  1  6  0  0  0
  6 10  1  0  0  0  0
  7 11  1  0  0  0  0
  7  4  1  0  0  0  0
  8 10  1  0  0  0  0
  8 13  1  0  0  0  0
  8 12  1  1  0  0  0
  9 13  1  1  0  0  0
 10  2  1  1  0  0  0
 11 14  1  6  0  0  0
 11  1  1  0  0  0  0
 11  9  1  0  0  0  0
 15 16  1  6  0  0  0
 15  3  1  0  0  0  0
 15  4  1  0  0  0  0
 16 18  1  6  0  0  0
 18 17  1  0  0  0  0
 19 20  1  6  0  0  0
 19 16  1  0  0  0  0
 21 20  1  0  0  0  0
 22 21  1  0  0  0  0
 22 24  1  0  0  0  0
 23 22  1  0  0  0  0
 25 19  1  0  0  0  0
 26 27  1  0  0  0  0
 27 25  1  6  0  0  0
 28 29  1  1  0  0  0
 28 26  1  0  0  0  0
 28 27  1  0  0  0  0
 30 31  1  0  0  0  0
 31 29  1  0  0  0  0
 32 34  1  0  0  0  0
 34 33  1  0  0  0  0
 37 35  1  0  0  0  0
 37 36  2  0  0  0  0
 38 39  1  6  0  0  0
 38 40  1  0  0  0  0
 38 37  1  0  0  0  0
 41 44  1  0  0  0  0
 41 40  1  1  0  0  0
 42 41  1  0  0  0  0
 42 44  1  0  0  0  0
 42 43  1  1  0  0  0
 45 42  1  0  0  0  0
 46 45  1  0  0  0  0
 47 53  1  6  0  0  0
 47 46  1  0  0  0  0
 48 49  1  0  0  0  0
 48 47  1  0  0  0  0
 50 51  1  0  0  0  0
 50 49  1  0  0  0  0
 51 52  1  0  0  0  0
 54 57  1  0  0  0  0
 55 54  2  0  0  0  0
 55 58  1  0  0  0  0
 56 55  1  0  0  0  0
 57 53  1  0  0  0  0
 57 60  2  0  0  0  0
 58 59  2  0  0  0  0
 59 60  1  0  0  0  0
M  END
>  <MODEL>
8

>  <REMARK>
 VINA RESULT:      -3.1      3.353     10.802
  Name = 
  26 active torsions:
  status: ('A' for Active; 'I' for Inactive)
    1  A    between atoms: O_1  and  C_15
    2  A    between atoms: O_1  and  C_48
    3  A    between atoms: C_3  and  O_23
    4  A    between atoms: S_6  and  C_39
    5  A    between atoms: C_10  and  C_37
    6  A    between atoms: C_13  and  C_60
    7  A    between atoms: C_14  and  C_33
    8  A    between atoms: C_14  and  C_48
    9  A    between atoms: C_15  and  C_34
   10  A    between atoms: C_16  and  C_38
   11  A    between atoms: C_16  and  C_54
   12  A    between atoms: C_17  and  C_55
   13  A    between atoms: O_19  and  C_25
   14  A    between atoms: O_19  and  C_32
   15  A    between atoms: O_20  and  C_48
   16  A    between atoms: O_20  and  C_55
   17  A    between atoms: O_23  and  C_49
   18  A    between atoms: C_24  and  C_37
   19  A    between atoms: C_24  and  C_49
   20  A    between atoms: C_32  and  C_50
   21  A    between atoms: C_32  and  C_51
   22  A    between atoms: C_34  and  C_36
   23  A    between atoms: C_39  and  C_51
   24  A    between atoms: O_43  and  C_50
   25  A    between atoms: O_47  and  C_60
   26  A    between atoms: C_50  and  C_58
                            x       y       z     vdW  Elec       q    Type
                         _______ _______ _______ _____ _____    ______ ____

>  <TORSDO>
F 26

$$$$
=
 OpenBabel11062414143D

 60 65  0  0  1  0  0  0  0  0999 V2000
  186.1690  177.5650  139.3530 C   0  0  1  0  0  3  0  0  0  0  0  0
  181.5520  179.0100  140.4510 C   0  0  0  0  0  1  0  0  0  0  0  0
  182.8090  178.3320  137.0090 O   0  0  0  0  0  0  0  0  0  0  0  0
  183.0480  176.1800  138.1320 C   0  0  2  0  0  0  0  0  0  0  0  0
  182.3750  174.8080  138.1350 C   0  0  0  0  0  1  0  0  0  0  0  0
  181.9600  178.9340  137.9650 C   0  0  2  0  0  3  0  0  0  0  0  0
  184.5630  175.9320  138.0130 C   0  0  0  0  0  2  0  0  0  0  0  0
  182.7410  176.9720  139.4740 C   0  0  1  0  0  0  0  0  0  0  0  0
  184.7690  178.1560  139.2010 C   0  0  1  0  0  3  0  0  0  0  0  0
  181.7130  178.1050  139.2400 C   0  0  1  0  0  3  0  0  0  0  0  0
  185.3370  177.2380  138.1310 C   0  0  1  0  0  0  0  0  0  0  0  0
  182.1530  176.1050  140.4020 O   0  0  0  0  0  1  0  0  0  0  0  0
  183.9190  177.4750  140.0990 O   0  0  0  0  0  0  0  0  0  0  0  0
  185.6580  177.9160  136.9520 O   0  0  0  0  0  1  0  0  0  0  0  0
  182.5070  176.9600  136.8930 C   0  0  2  0  0  3  0  0  0  0  0  0
  182.9960  176.3960  135.5360 C   0  0  1  0  0  3  0  0  0  0  0  0
  183.5180  178.3410  134.6050 C   0  0  0  0  0  1  0  0  0  0  0  0
  184.0780  177.1430  135.0570 O   0  0  0  0  0  0  0  0  0  0  0  0
  183.3680  174.9040  135.5540 C   0  0  1  0  0  3  0  0  0  0  0  0
  182.3540  174.0500  134.7980 C   0  0  0  0  0  2  0  0  0  0  0  0
  180.9420  174.3700  135.2490 C   0  0  0  0  0  2  0  0  0  0  0  0
  179.9940  172.8500  135.3890 S   0  0  0  0  0  3  0  0  0  0  0  0
  178.9490  173.1540  136.7000 O   0  0  0  0  0  1  0  0  0  0  0  0
  180.9910  171.8460  135.9600 O   0  0  0  0  0  1  0  0  0  0  0  0
  184.6580  174.7120  135.0490 O   0  0  0  0  0  0  0  0  0  0  0  0
  184.4810  172.7700  136.4010 C   0  0  0  0  0  2  0  0  0  0  0  0
  184.8440  173.3280  135.0430 C   0  0  2  0  0  3  0  0  0  0  0  0
  185.9360  172.9660  136.0320 C   0  0  2  0  0  3  0  0  0  0  0  0
  186.5330  171.6350  135.6310 C   0  0  0  0  0  2  0  0  0  0  0  0
  188.4340  173.2210  135.6220 C   0  0  0  0  0  1  0  0  0  0  0  0
  188.0410  171.7560  135.5550 C   0  0  0  0  0  2  0  0  0  0  0  0
  180.6650  179.4490  137.3380 C   0  0  0  0  0  2  0  0  0  0  0  0
  179.5150  181.2210  137.9670 C   0  0  0  0  0  1  0  0  0  0  0  0
  180.6670  180.8440  137.2760 O   0  0  0  0  0  0  0  0  0  0  0  0
  187.1320  178.5700  139.0580 O   0  0  0  0  0  0  0  0  0  0  0  0
  188.6690  179.4870  140.4890 O   0  0  0  0  0  0  0  0  0  0  0  0
  188.4030  178.5930  139.6410 C   0  0  0  0  0  0  0  0  0  0  0  0
  189.4390  177.5620  139.2990 C   0  0  1  0  0  3  0  0  0  0  0  0
  190.6800  178.1720  139.1210 O   0  0  0  0  0  1  0  0  0  0  0  0
  189.5420  176.5150  140.3950 C   0  0  0  0  0  2  0  0  0  0  0  0
  188.9900  177.0770  141.6950 C   0  0  1  0  0  3  0  0  0  0  0  0
  189.4120  176.2710  142.9100 C   0  0  1  0  0  0  0  0  0  0  0  0
  190.1670  175.1180  142.6930 O   0  0  0  0  0  1  0  0  0  0  0  0
  190.1380  177.5480  142.5840 C   0  0  0  0  0  2  0  0  0  0  0  0
  188.5020  176.3270  144.1220 C   0  0  0  0  0  2  0  0  0  0  0  0
  189.0910  177.1130  145.1210 O   0  0  0  0  0  0  0  0  0  0  0  0
  188.1410  177.1660  146.1440 C   0  0  1  0  0  3  0  0  0  0  0  0
  188.7370  176.8030  147.3510 O   0  0  0  0  0  0  0  0  0  0  0  0
  190.1080  176.9360  147.1290 C   0  0  0  0  0  2  0  0  0  0  0  0
  190.8020  175.6300  147.4660 C   0  0  0  0  0  2  0  0  0  0  0  0
  192.2820  175.7170  147.1450 C   0  0  0  0  0  2  0  0  0  0  0  0
  193.0340  176.0040  148.3520 N   0  0  0  0  0  1  0  0  0  0  0  0
  187.5910  178.5830  146.2660 C   0  0  0  0  0  2  0  0  0  0  0  0
  185.9780  178.9750  144.3860 C   0  0  0  0  0  3  0  0  0  0  0  0
  184.6720  179.0790  143.8980 C   0  0  0  0  0  0  0  0  0  0  0  0
  184.4480  179.3880  142.5300 N   0  0  0  0  0  1  0  0  0  0  0  0
  186.2000  178.6740  145.7340 C   0  0  0  0  0  0  0  0  0  0  0  0
  183.5860  178.8830  144.7570 C   0  0  0  0  0  3  0  0  0  0  0  0
  183.8070  178.5830  146.1050 C   0  0  0  0  0  3  0  0  0  0  0  0
  185.1120  178.4800  146.5930 C   0  0  0  0  0  3  0  0  0  0  0  0
  1 35  1  6  0  0  0
  3  6  1  0  0  0  0
  4  5  1  1  0  0  0
  4  8  1  0  0  0  0
  6 32  1  6  0  0  0
  6 10  1  0  0  0  0
  7 11  1  0  0  0  0
  7  4  1  0  0  0  0
  8 13  1  0  0  0  0
  8 12  1  1  0  0  0
  9  1  1  0  0  0  0
  9 13  1  1  0  0  0
 10  8  1  0  0  0  0
 10  2  1  1  0  0  0
 11 14  1  6  0  0  0
 11  9  1  0  0  0  0
 11  1  1  0  0  0  0
 15 16  1  6  0  0  0
 15  3  1  0  0  0  0
 15  4  1  0  0  0  0
 16 18  1  1  0  0  0
 16 19  1  0  0  0  0
 17 18  1  0  0  0  0
 19 20  1  6  0  0  0
 20 21  1  0  0  0  0
 21 22  1  0  0  0  0
 22 24  1  0  0  0  0
 22 23  1  0  0  0  0
 25 19  1  0  0  0  0
 27 25  1  1  0  0  0
 27 28  1  0  0  0  0
 27 26  1  0  0  0  0
 28 29  1  6  0  0  0
 28 26  1  0  0  0  0
 31 30  1  0  0  0  0
 31 29  1  0  0  0  0
 34 32  1  0  0  0  0
 34 33  1  0  0  0  0
 35 37  1  0  0  0  0
 37 36  2  0  0  0  0
 38 39  1  1  0  0  0
 38 37  1  0  0  0  0
 38 40  1  0  0  0  0
 41 40  1  6  0  0  0
 41 44  1  0  0  0  0
 41 42  1  0  0  0  0
 42 43  1  6  0  0  0
 42 45  1  0  0  0  0
 44 42  1  0  0  0  0
 45 46  1  0  0  0  0
 46 47  1  0  0  0  0
 47 53  1  1  0  0  0
 47 48  1  0  0  0  0
 49 48  1  0  0  0  0
 49 50  1  0  0  0  0
 51 50  1  0  0  0  0
 51 52  1  0  0  0  0
 54 57  1  0  0  0  0
 55 54  2  0  0  0  0
 55 58  1  0  0  0  0
 56 55  1  0  0  0  0
 57 53  1  0  0  0  0
 57 60  2  0  0  0  0
 58 59  2  0  0  0  0
 59 60  1  0  0  0  0
M  END
>  <MODEL>
9

>  <REMARK>
 VINA RESULT:      -3.0      3.759      7.862
  Name = 
  26 active torsions:
  status: ('A' for Active; 'I' for Inactive)
    1  A    between atoms: O_1  and  C_15
    2  A    between atoms: O_1  and  C_48
    3  A    between atoms: C_3  and  O_23
    4  A    between atoms: S_6  and  C_39
    5  A    between atoms: C_10  and  C_37
    6  A    between atoms: C_13  and  C_60
    7  A    between atoms: C_14  and  C_33
    8  A    between atoms: C_14  and  C_48
    9  A    between atoms: C_15  and  C_34
   10  A    between atoms: C_16  and  C_38
   11  A    between atoms: C_16  and  C_54
   12  A    between atoms: C_17  and  C_55
   13  A    between atoms: O_19  and  C_25
   14  A    between atoms: O_19  and  C_32
   15  A    between atoms: O_20  and  C_48
   16  A    between atoms: O_20  and  C_55
   17  A    between atoms: O_23  and  C_49
   18  A    between atoms: C_24  and  C_37
   19  A    between atoms: C_24  and  C_49
   20  A    between atoms: C_32  and  C_50
   21  A    between atoms: C_32  and  C_51
   22  A    between atoms: C_34  and  C_36
   23  A    between atoms: C_39  and  C_51
   24  A    between atoms: O_43  and  C_50
   25  A    between atoms: O_47  and  C_60
   26  A    between atoms: C_50  and  C_58
                            x       y       z     vdW  Elec       q    Type
                         _______ _______ _______ _____ _____    ______ ____

>  <TORSDO>
F 26

$$$$
