=
 OpenBabel11062413313D

 28 32  0  0  1  0  0  0  0  0999 V2000
  187.7590  177.6400  146.1370 C   0  0  0  0  0  3  0  0  0  0  0  0
  183.3560  179.0190  144.2260 C   0  0  0  0  0  3  0  0  0  0  0  0
  184.0520  178.4940  143.1380 C   0  0  0  0  0  0  0  0  0  0  0  0
  185.3470  178.0100  143.3210 C   0  0  0  0  0  3  0  0  0  0  0  0
  185.7590  178.6370  146.9330 C   0  0  0  0  0  3  0  0  0  0  0  0
  185.2000  178.5880  145.6590 C   0  0  0  0  0  0  0  0  0  0  0  0
  187.0140  178.1660  147.1440 N   0  0  0  0  0  0  0  0  0  0  0  0
  183.9400  179.0570  145.4530 N   0  0  0  0  0  0  0  0  0  0  0  0
  187.2590  177.5600  144.8260 C   0  0  0  0  0  0  0  0  0  0  0  0
  185.9480  178.0480  144.5870 C   0  0  0  0  0  0  0  0  0  0  0  0
  183.4410  178.4360  141.8540 N   0  0  0  0  0  0  0  0  0  0  0  0
  181.5860  178.5320  138.6380 C   0  0  0  0  0  2  0  0  0  0  0  0
  180.5470  179.1280  139.5840 C   0  0  0  0  0  2  0  0  0  0  0  0
  181.1520  179.0720  140.9790 C   0  0  0  0  0  2  0  0  0  0  0  0
  182.9930  177.6870  140.6390 C   0  0  2  0  0  3  0  0  0  0  0  0
  182.9090  178.5120  139.3890 C   0  0  2  0  0  0  0  0  0  0  0  0
  182.6420  179.0500  140.7480 C   0  0  2  0  0  0  0  0  0  0  0  0
  184.1930  179.0430  138.7740 C   0  0  0  0  0  2  0  0  0  0  0  0
  184.3060  180.4150  139.0040 O   0  0  0  0  0  1  0  0  0  0  0  0
  189.1910  177.7300  143.1770 N   0  0  0  0  0  2  0  0  0  0  0  0
  187.9500  175.7770  143.4140 O   0  0  0  0  0  0  0  0  0  0  0  0
  188.1380  176.9700  143.7810 C   0  0  0  0  0  0  0  0  0  0  0  0
  190.0430  177.2100  142.1160 C   0  0  1  0  0  3  0  0  0  0  0  0
  188.2740  178.4180  140.6670 C   0  0  0  0  0  1  0  0  0  0  0  0
  190.3120  177.6370  139.8000 O   0  0  0  0  0  0  0  0  0  0  0  0
  189.5990  177.7450  140.7850 C   0  0  0  0  0  0  0  0  0  0  0  0
  191.4880  177.5950  142.3990 C   0  0  0  0  0  2  0  0  0  0  0  0
  191.5790  178.4100  143.6760 C   0  0  0  0  0  1  0  0  0  0  0  0
  1  7  1  0  0  0  0
  2  8  1  0  0  0  0
  3  4  1  0  0  0  0
  3  2  2  0  0  0  0
  4 10  2  0  0  0  0
  5  7  2  0  0  0  0
  6  5  1  0  0  0  0
  8  6  2  0  0  0  0
  9  1  2  0  0  0  0
 10  9  1  0  0  0  0
 10  6  1  0  0  0  0
 11  3  1  0  0  0  0
 12 16  1  0  0  0  0
 12 13  1  0  0  0  0
 13 14  1  0  0  0  0
 15 17  1  0  0  0  0
 15 11  1  1  0  0  0
 16 18  1  6  0  0  0
 16 15  1  0  0  0  0
 16 17  1  0  0  0  0
 17 14  1  1  0  0  0
 17 11  1  0  0  0  0
 18 19  1  0  0  0  0
 20 22  1  0  0  0  0
 21 22  2  0  0  0  0
 22  9  1  0  0  0  0
 23 27  1  1  0  0  0
 23 20  1  0  0  0  0
 24 26  1  0  0  0  0
 25 26  2  0  0  0  0
 26 23  1  0  0  0  0
 27 28  1  0  0  0  0
M  END
>  <MODEL>
1

>  <REMARK>
 VINA RESULT:      -8.6      0.000      0.000
  Name = 
  6 active torsions:
  status: ('A' for Active; 'I' for Inactive)
    1  A    between atoms: C_1  and  C_23
    2  A    between atoms: C_6  and  N_9
    3  A    between atoms: C_7  and  N_8
    4  A    between atoms: C_7  and  C_14
    5  A    between atoms: C_7  and  C_27
    6  A    between atoms: C_25  and  C_26
                            x       y       z     vdW  Elec       q    Type
                         _______ _______ _______ _____ _____    ______ ____

>  <TORSDO>
F 6

$$$$
=
 OpenBabel11062413313D

 28 32  0  0  1  0  0  0  0  0999 V2000
  192.0680  177.4120  141.3590 C   0  0  0  0  0  3  0  0  0  0  0  0
  187.2190  178.1350  140.4030 C   0  0  0  0  0  3  0  0  0  0  0  0
  187.3250  178.3090  141.7830 C   0  0  0  0  0  0  0  0  0  0  0  0
  188.5690  178.1690  142.3970 C   0  0  0  0  0  3  0  0  0  0  0  0
  190.6540  177.3940  139.4530 C   0  0  0  0  0  3  0  0  0  0  0  0
  189.5470  177.6950  140.2430 C   0  0  0  0  0  0  0  0  0  0  0  0
  191.8790  177.2610  140.0220 N   0  0  0  0  0  0  0  0  0  0  0  0
  188.3220  177.8340  139.6690 N   0  0  0  0  0  0  0  0  0  0  0  0
  190.9960  177.7160  142.2160 C   0  0  0  0  0  0  0  0  0  0  0  0
  189.7070  177.8590  141.6390 C   0  0  0  0  0  0  0  0  0  0  0  0
  186.1780  178.6400  142.5560 N   0  0  0  0  0  0  0  0  0  0  0  0
  182.9810  179.2940  144.3290 C   0  0  0  0  0  2  0  0  0  0  0  0
  182.4640  178.7650  142.9940 C   0  0  0  0  0  2  0  0  0  0  0  0
  183.6870  178.5300  142.1200 C   0  0  0  0  0  2  0  0  0  0  0  0
  185.3510  179.6110  143.3390 C   0  0  2  0  0  3  0  0  0  0  0  0
  184.4700  178.9860  144.3800 C   0  0  2  0  0  0  0  0  0  0  0  0
  184.8190  178.3260  143.0960 C   0  0  2  0  0  0  0  0  0  0  0  0
  185.1160  178.3300  145.5880 C   0  0  0  0  0  2  0  0  0  0  0  0
  184.7900  179.0320  146.7500 O   0  0  0  0  0  1  0  0  0  0  0  0
  191.1030  176.7780  144.5800 N   0  0  0  0  0  2  0  0  0  0  0  0
  191.6980  178.9760  144.1050 O   0  0  0  0  0  0  0  0  0  0  0  0
  191.2860  177.8660  143.6670 C   0  0  0  0  0  0  0  0  0  0  0  0
  191.3260  176.8940  146.0150 C   0  0  1  0  0  3  0  0  0  0  0  0
  188.7470  177.0790  145.9810 C   0  0  0  0  0  1  0  0  0  0  0  0
  190.0330  177.5640  147.8850 O   0  0  0  0  0  0  0  0  0  0  0  0
  190.0360  177.2080  146.7170 C   0  0  0  0  0  0  0  0  0  0  0  0
  191.9240  175.5950  146.5360 C   0  0  0  0  0  2  0  0  0  0  0  0
  192.6040  175.8230  147.8730 C   0  0  0  0  0  1  0  0  0  0  0  0
  1  9  1  0  0  0  0
  2  3  1  0  0  0  0
  3  4  2  0  0  0  0
  3 11  1  0  0  0  0
  5  7  1  0  0  0  0
  5  6  2  0  0  0  0
  6 10  1  0  0  0  0
  7  1  2  0  0  0  0
  8  6  1  0  0  0  0
  8  2  2  0  0  0  0
  9 22  1  0  0  0  0
 10  9  2  0  0  0  0
 10  4  1  0  0  0  0
 11 17  1  0  0  0  0
 12 16  1  0  0  0  0
 13 12  1  0  0  0  0
 14 13  1  0  0  0  0
 15 11  1  1  0  0  0
 15 16  1  0  0  0  0
 16 18  1  1  0  0  0
 17 14  1  6  0  0  0
 17 15  1  0  0  0  0
 17 16  1  0  0  0  0
 18 19  1  0  0  0  0
 20 23  1  0  0  0  0
 22 21  2  0  0  0  0
 22 20  1  0  0  0  0
 23 27  1  1  0  0  0
 23 26  1  0  0  0  0
 24 26  1  0  0  0  0
 26 25  2  0  0  0  0
 27 28  1  0  0  0  0
M  END
>  <MODEL>
2

>  <REMARK>
 VINA RESULT:      -8.6      2.931      5.566
  Name = 
  6 active torsions:
  status: ('A' for Active; 'I' for Inactive)
    1  A    between atoms: C_1  and  C_23
    2  A    between atoms: C_6  and  N_9
    3  A    between atoms: C_7  and  N_8
    4  A    between atoms: C_7  and  C_14
    5  A    between atoms: C_7  and  C_27
    6  A    between atoms: C_25  and  C_26
                            x       y       z     vdW  Elec       q    Type
                         _______ _______ _______ _____ _____    ______ ____

>  <TORSDO>
F 6

$$$$
=
 OpenBabel11062413313D

 28 32  0  0  1  0  0  0  0  0999 V2000
  189.5230  176.8700  145.8870 C   0  0  0  0  0  3  0  0  0  0  0  0
  184.9680  178.8510  146.4040 C   0  0  0  0  0  3  0  0  0  0  0  0
  185.0470  178.5240  145.0510 C   0  0  0  0  0  0  0  0  0  0  0  0
  186.2130  177.9430  144.5530 C   0  0  0  0  0  3  0  0  0  0  0  0
  188.2210  177.7890  147.6440 C   0  0  0  0  0  3  0  0  0  0  0  0
  187.1680  178.0350  146.7670 C   0  0  0  0  0  0  0  0  0  0  0  0
  189.3650  177.2180  147.1910 N   0  0  0  0  0  0  0  0  0  0  0  0
  186.0210  178.6030  147.2260 N   0  0  0  0  0  0  0  0  0  0  0  0
  188.5030  177.0890  144.9460 C   0  0  0  0  0  0  0  0  0  0  0  0
  187.2990  177.6860  145.4020 C   0  0  0  0  0  0  0  0  0  0  0  0
  183.9420  178.7650  144.1870 N   0  0  0  0  0  0  0  0  0  0  0  0
  181.2290  179.1620  141.6820 C   0  0  0  0  0  2  0  0  0  0  0  0
  182.3320  178.5620  140.8150 C   0  0  0  0  0  2  0  0  0  0  0  0
  183.5560  178.4220  141.7090 C   0  0  0  0  0  2  0  0  0  0  0  0
  182.9250  179.6720  143.5690 C   0  0  2  0  0  3  0  0  0  0  0  0
  181.6620  178.9910  143.1300 C   0  0  2  0  0  0  0  0  0  0  0  0
  182.9980  178.3400  143.1080 C   0  0  2  0  0  0  0  0  0  0  0  0
  180.7330  178.4190  144.1880 C   0  0  0  0  0  2  0  0  0  0  0  0
  179.5620  177.9450  143.5940 O   0  0  0  0  0  1  0  0  0  0  0  0
  189.4180  177.5520  142.6160 N   0  0  0  0  0  2  0  0  0  0  0  0
  188.3710  175.5430  143.1460 O   0  0  0  0  0  0  0  0  0  0  0  0
  188.7540  176.6790  143.5390 C   0  0  0  0  0  0  0  0  0  0  0  0
  189.6410  177.2130  141.2170 C   0  0  1  0  0  3  0  0  0  0  0  0
  187.4870  178.5890  140.8270 C   0  0  0  0  0  1  0  0  0  0  0  0
  189.1790  178.3890  139.2110 O   0  0  0  0  0  0  0  0  0  0  0  0
  188.7990  178.0850  140.3310 C   0  0  0  0  0  0  0  0  0  0  0  0
  191.1180  177.3760  140.8910 C   0  0  0  0  0  2  0  0  0  0  0  0
  191.9490  177.3490  142.1620 C   0  0  0  0  0  1  0  0  0  0  0  0
  1  7  1  0  0  0  0
  2  8  1  0  0  0  0
  3  2  2  0  0  0  0
  4  3  1  0  0  0  0
  4 10  2  0  0  0  0
  6  8  2  0  0  0  0
  6  5  1  0  0  0  0
  7  5  2  0  0  0  0
  9 10  1  0  0  0  0
  9  1  2  0  0  0  0
 10  6  1  0  0  0  0
 11  3  1  0  0  0  0
 12 16  1  0  0  0  0
 13 12  1  0  0  0  0
 13 14  1  0  0  0  0
 15 11  1  1  0  0  0
 16 15  1  0  0  0  0
 16 18  1  1  0  0  0
 17 14  1  6  0  0  0
 17 16  1  0  0  0  0
 17 15  1  0  0  0  0
 17 11  1  0  0  0  0
 19 18  1  0  0  0  0
 20 22  1  0  0  0  0
 21 22  2  0  0  0  0
 22  9  1  0  0  0  0
 23 27  1  6  0  0  0
 23 20  1  0  0  0  0
 25 26  2  0  0  0  0
 26 24  1  0  0  0  0
 26 23  1  0  0  0  0
 27 28  1  0  0  0  0
M  END
>  <MODEL>
3

>  <REMARK>
 VINA RESULT:      -8.3      1.826      2.768
  Name = 
  6 active torsions:
  status: ('A' for Active; 'I' for Inactive)
    1  A    between atoms: C_1  and  C_23
    2  A    between atoms: C_6  and  N_9
    3  A    between atoms: C_7  and  N_8
    4  A    between atoms: C_7  and  C_14
    5  A    between atoms: C_7  and  C_27
    6  A    between atoms: C_25  and  C_26
                            x       y       z     vdW  Elec       q    Type
                         _______ _______ _______ _____ _____    ______ ____

>  <TORSDO>
F 6

$$$$
=
 OpenBabel11062413313D

 28 32  0  0  1  0  0  0  0  0999 V2000
  187.2050  178.1080  138.2880 C   0  0  0  0  0  3  0  0  0  0  0  0
  190.5180  177.0860  141.8830 C   0  0  0  0  0  3  0  0  0  0  0  0
  189.4040  177.5660  142.5710 C   0  0  0  0  0  0  0  0  0  0  0  0
  188.2720  177.9570  141.8560 C   0  0  0  0  0  3  0  0  0  0  0  0
  189.4190  177.2650  138.4180 C   0  0  0  0  0  3  0  0  0  0  0  0
  189.4040  177.3740  139.8060 C   0  0  0  0  0  0  0  0  0  0  0  0
  188.3300  177.6300  137.6950 N   0  0  0  0  0  0  0  0  0  0  0  0
  190.4960  177.0020  140.5270 N   0  0  0  0  0  0  0  0  0  0  0  0
  187.1210  178.2460  139.6840 C   0  0  0  0  0  0  0  0  0  0  0  0
  188.2500  177.8690  140.4560 C   0  0  0  0  0  0  0  0  0  0  0  0
  189.4130  177.6410  143.9920 N   0  0  0  0  0  0  0  0  0  0  0  0
  189.0860  177.6930  147.6910 C   0  0  0  0  0  2  0  0  0  0  0  0
  187.6260  177.5240  147.2770 C   0  0  0  0  0  2  0  0  0  0  0  0
  187.6000  177.5720  145.7570 C   0  0  0  0  0  2  0  0  0  0  0  0
  189.7440  178.3390  145.2730 C   0  0  2  0  0  3  0  0  0  0  0  0
  189.9290  177.4300  146.4530 C   0  0  2  0  0  0  0  0  0  0  0  0
  188.9870  177.1500  145.3390 C   0  0  2  0  0  0  0  0  0  0  0  0
  191.1260  176.4950  146.4760 C   0  0  0  0  0  2  0  0  0  0  0  0
  191.9840  176.8370  147.5230 O   0  0  0  0  0  1  0  0  0  0  0  0
  185.3620  178.3250  141.5230 N   0  0  0  0  0  2  0  0  0  0  0  0
  185.1930  179.6360  139.6090 O   0  0  0  0  0  0  0  0  0  0  0  0
  185.8530  178.7760  140.2550 C   0  0  0  0  0  0  0  0  0  0  0  0
  184.1020  178.7780  142.0980 C   0  0  1  0  0  3  0  0  0  0  0  0
  181.5880  178.7420  141.4960 C   0  0  0  0  0  1  0  0  0  0  0  0
  183.1090  177.1380  140.7040 O   0  0  0  0  0  0  0  0  0  0  0  0
  182.9460  178.1410  141.3810 C   0  0  0  0  0  0  0  0  0  0  0  0
  184.0760  178.4350  143.5800 C   0  0  0  0  0  2  0  0  0  0  0  0
  184.5830  179.6050  144.4040 C   0  0  0  0  0  1  0  0  0  0  0  0
  1  9  1  0  0  0  0
  2  3  1  0  0  0  0
  3 11  1  0  0  0  0
  4  3  2  0  0  0  0
  5  6  2  0  0  0  0
  6 10  1  0  0  0  0
  6  8  1  0  0  0  0
  7  1  2  0  0  0  0
  7  5  1  0  0  0  0
  8  2  2  0  0  0  0
  9 22  1  0  0  0  0
  9 10  2  0  0  0  0
 10  4  1  0  0  0  0
 11 17  1  0  0  0  0
 13 12  1  0  0  0  0
 14 13  1  0  0  0  0
 15 11  1  6  0  0  0
 15 17  1  0  0  0  0
 15 16  1  0  0  0  0
 16 18  1  1  0  0  0
 16 12  1  0  0  0  0
 17 14  1  1  0  0  0
 17 16  1  0  0  0  0
 18 19  1  0  0  0  0
 20 23  1  0  0  0  0
 21 22  2  0  0  0  0
 22 20  1  0  0  0  0
 23 27  1  1  0  0  0
 25 26  2  0  0  0  0
 26 24  1  0  0  0  0
 26 23  1  0  0  0  0
 27 28  1  0  0  0  0
M  END
>  <MODEL>
4

>  <REMARK>
 VINA RESULT:      -8.0      2.368      7.861
  Name = 
  6 active torsions:
  status: ('A' for Active; 'I' for Inactive)
    1  A    between atoms: C_1  and  C_23
    2  A    between atoms: C_6  and  N_9
    3  A    between atoms: C_7  and  N_8
    4  A    between atoms: C_7  and  C_14
    5  A    between atoms: C_7  and  C_27
    6  A    between atoms: C_25  and  C_26
                            x       y       z     vdW  Elec       q    Type
                         _______ _______ _______ _____ _____    ______ ____

>  <TORSDO>
F 6

$$$$
=
 OpenBabel11062413313D

 28 32  0  0  1  0  0  0  0  0999 V2000
  183.8870  178.7230  145.4290 C   0  0  0  0  0  3  0  0  0  0  0  0
  188.6320  177.5510  144.4030 C   0  0  0  0  0  3  0  0  0  0  0  0
  188.0210  177.6300  143.1520 C   0  0  0  0  0  0  0  0  0  0  0  0
  186.6640  177.9410  143.0700 C   0  0  0  0  0  3  0  0  0  0  0  0
  185.8760  178.3150  146.6550 C   0  0  0  0  0  3  0  0  0  0  0  0
  186.5820  178.0840  145.4780 C   0  0  0  0  0  0  0  0  0  0  0  0
  184.5570  178.6280  146.6070 N   0  0  0  0  0  0  0  0  0  0  0  0
  187.9060  177.7760  145.5300 N   0  0  0  0  0  0  0  0  0  0  0  0
  184.5350  178.5010  144.2030 C   0  0  0  0  0  0  0  0  0  0  0  0
  185.9160  178.1740  144.2330 C   0  0  0  0  0  0  0  0  0  0  0  0
  188.7780  177.4120  141.9680 N   0  0  0  0  0  0  0  0  0  0  0  0
  190.5440  177.1180  138.7140 C   0  0  0  0  0  2  0  0  0  0  0  0
  189.3050  177.9050  138.2960 C   0  0  0  0  0  2  0  0  0  0  0  0
  188.4340  178.0290  139.5360 C   0  0  0  0  0  2  0  0  0  0  0  0
  189.4520  176.5120  140.9800 C   0  0  2  0  0  3  0  0  0  0  0  0
  190.5910  177.1410  140.2340 C   0  0  2  0  0  0  0  0  0  0  0  0
  189.3940  177.8920  140.6920 C   0  0  2  0  0  0  0  0  0  0  0  0
  191.8550  177.5030  140.9960 C   0  0  0  0  0  2  0  0  0  0  0  0
  192.9580  177.4770  140.1400 O   0  0  0  0  0  1  0  0  0  0  0  0
  184.2180  178.1330  141.7040 N   0  0  0  0  0  2  0  0  0  0  0  0
  182.5990  179.1840  143.0030 O   0  0  0  0  0  0  0  0  0  0  0  0
  183.7310  178.6270  142.9570 C   0  0  0  0  0  0  0  0  0  0  0  0
  183.4880  178.2790  140.4510 C   0  0  1  0  0  3  0  0  0  0  0  0
  184.9910  178.0830  138.3560 C   0  0  0  0  0  1  0  0  0  0  0  0
  184.5560  180.1290  139.4250 O   0  0  0  0  0  0  0  0  0  0  0  0
  184.3610  178.9240  139.4140 C   0  0  0  0  0  0  0  0  0  0  0  0
  183.0150  176.9100  139.9850 C   0  0  0  0  0  2  0  0  0  0  0  0
  181.6050  176.9970  139.4290 C   0  0  0  0  0  1  0  0  0  0  0  0
  1  7  1  0  0  0  0
  2  8  1  0  0  0  0
  3  2  2  0  0  0  0
  4  3  1  0  0  0  0
  4 10  2  0  0  0  0
  6  8  2  0  0  0  0
  6  5  1  0  0  0  0
  7  5  2  0  0  0  0
  9 10  1  0  0  0  0
  9  1  2  0  0  0  0
 10  6  1  0  0  0  0
 11  3  1  0  0  0  0
 12 16  1  0  0  0  0
 13 12  1  0  0  0  0
 13 14  1  0  0  0  0
 15 11  1  1  0  0  0
 16 17  1  0  0  0  0
 16 15  1  0  0  0  0
 16 18  1  1  0  0  0
 17 14  1  6  0  0  0
 17 15  1  0  0  0  0
 17 11  1  0  0  0  0
 19 18  1  0  0  0  0
 20 22  1  0  0  0  0
 22 21  2  0  0  0  0
 22  9  1  0  0  0  0
 23 27  1  6  0  0  0
 23 20  1  0  0  0  0
 24 26  1  0  0  0  0
 26 25  2  0  0  0  0
 26 23  1  0  0  0  0
 28 27  1  0  0  0  0
M  END
>  <MODEL>
5

>  <REMARK>
 VINA RESULT:      -7.9      1.850      6.187
  Name = 
  6 active torsions:
  status: ('A' for Active; 'I' for Inactive)
    1  A    between atoms: C_1  and  C_23
    2  A    between atoms: C_6  and  N_9
    3  A    between atoms: C_7  and  N_8
    4  A    between atoms: C_7  and  C_14
    5  A    between atoms: C_7  and  C_27
    6  A    between atoms: C_25  and  C_26
                            x       y       z     vdW  Elec       q    Type
                         _______ _______ _______ _____ _____    ______ ____

>  <TORSDO>
F 6

$$$$
=
 OpenBabel11062413313D

 28 32  0  0  1  0  0  0  0  0999 V2000
  185.9620  178.2090  146.2150 C   0  0  0  0  0  3  0  0  0  0  0  0
  185.5770  178.7690  141.2670 C   0  0  0  0  0  3  0  0  0  0  0  0
  186.8880  178.3330  141.4610 C   0  0  0  0  0  0  0  0  0  0  0  0
  187.3410  178.0800  142.7550 C   0  0  0  0  0  3  0  0  0  0  0  0
  184.2920  178.8820  144.6710 C   0  0  0  0  0  3  0  0  0  0  0  0
  185.1700  178.7000  143.6060 C   0  0  0  0  0  0  0  0  0  0  0  0
  184.7020  178.6350  145.9410 N   0  0  0  0  0  0  0  0  0  0  0  0
  184.7530  178.9440  142.3340 N   0  0  0  0  0  0  0  0  0  0  0  0
  186.9010  178.0050  145.1900 C   0  0  0  0  0  0  0  0  0  0  0  0
  186.4900  178.2580  143.8560 C   0  0  0  0  0  0  0  0  0  0  0  0
  187.7510  178.1340  140.3480 N   0  0  0  0  0  0  0  0  0  0  0  0
  190.1950  177.3620  137.6600 C   0  0  0  0  0  2  0  0  0  0  0  0
  190.9230  176.8000  138.8780 C   0  0  0  0  0  2  0  0  0  0  0  0
  190.0590  177.1270  140.0870 C   0  0  0  0  0  2  0  0  0  0  0  0
  188.5400  178.6420  139.1830 C   0  0  2  0  0  3  0  0  0  0  0  0
  188.7620  177.6390  138.0900 C   0  0  2  0  0  0  0  0  0  0  0  0
  188.6660  177.2800  139.5290 C   0  0  2  0  0  0  0  0  0  0  0  0
  187.5700  177.1690  137.2730 C   0  0  0  0  0  2  0  0  0  0  0  0
  187.2570  175.8470  137.5930 O   0  0  0  0  0  1  0  0  0  0  0  0
  189.3470  177.5620  144.6420 N   0  0  0  0  0  2  0  0  0  0  0  0
  188.4590  177.1030  146.7430 O   0  0  0  0  0  0  0  0  0  0  0  0
  188.2600  177.5370  145.5740 C   0  0  0  0  0  0  0  0  0  0  0  0
  190.6810  177.0680  144.9580 C   0  0  1  0  0  3  0  0  0  0  0  0
  190.1740  175.6290  142.8700 C   0  0  0  0  0  1  0  0  0  0  0  0
  192.0550  175.2790  144.2310 O   0  0  0  0  0  0  0  0  0  0  0  0
  191.0480  175.9400  144.0370 C   0  0  0  0  0  0  0  0  0  0  0  0
  191.6800  178.2090  144.8410 C   0  0  0  0  0  2  0  0  0  0  0  0
  191.1190  179.3180  143.9680 C   0  0  0  0  0  1  0  0  0  0  0  0
  2  3  2  0  0  0  0
  2  8  1  0  0  0  0
  3  4  1  0  0  0  0
  4 10  2  0  0  0  0
  5  7  2  0  0  0  0
  6 10  1  0  0  0  0
  6  5  1  0  0  0  0
  7  1  1  0  0  0  0
  8  6  2  0  0  0  0
  9 22  1  0  0  0  0
  9  1  2  0  0  0  0
 10  9  1  0  0  0  0
 11  3  1  0  0  0  0
 12 16  1  0  0  0  0
 12 13  1  0  0  0  0
 13 14  1  0  0  0  0
 15 17  1  0  0  0  0
 15 11  1  6  0  0  0
 16 18  1  6  0  0  0
 16 15  1  0  0  0  0
 16 17  1  0  0  0  0
 17 14  1  1  0  0  0
 17 11  1  0  0  0  0
 18 19  1  0  0  0  0
 20 23  1  0  0  0  0
 20 22  1  0  0  0  0
 22 21  2  0  0  0  0
 23 27  1  6  0  0  0
 24 26  1  0  0  0  0
 26 25  2  0  0  0  0
 26 23  1  0  0  0  0
 28 27  1  0  0  0  0
M  END
>  <MODEL>
6

>  <REMARK>
 VINA RESULT:      -7.7      2.703      4.679
  Name = 
  6 active torsions:
  status: ('A' for Active; 'I' for Inactive)
    1  A    between atoms: C_1  and  C_23
    2  A    between atoms: C_6  and  N_9
    3  A    between atoms: C_7  and  N_8
    4  A    between atoms: C_7  and  C_14
    5  A    between atoms: C_7  and  C_27
    6  A    between atoms: C_25  and  C_26
                            x       y       z     vdW  Elec       q    Type
                         _______ _______ _______ _____ _____    ______ ____

>  <TORSDO>
F 6

$$$$
=
 OpenBabel11062413313D

 28 32  0  0  1  0  0  0  0  0999 V2000
  186.7150  178.6620  137.6500 C   0  0  0  0  0  3  0  0  0  0  0  0
  189.3690  177.4970  141.7180 C   0  0  0  0  0  3  0  0  0  0  0  0
  188.0990  177.7940  142.2110 C   0  0  0  0  0  0  0  0  0  0  0  0
  187.0900  178.1720  141.3250 C   0  0  0  0  0  3  0  0  0  0  0  0
  188.9410  177.9990  138.1380 C   0  0  0  0  0  3  0  0  0  0  0  0
  188.6490  177.9390  139.4980 C   0  0  0  0  0  0  0  0  0  0  0  0
  187.9770  178.3560  137.2510 N   0  0  0  0  0  0  0  0  0  0  0  0
  189.6160  177.5760  140.3840 N   0  0  0  0  0  0  0  0  0  0  0  0
  186.3510  178.6230  139.0060 C   0  0  0  0  0  0  0  0  0  0  0  0
  187.3450  178.2520  139.9480 C   0  0  0  0  0  0  0  0  0  0  0  0
  187.8280  177.6980  143.6040 N   0  0  0  0  0  0  0  0  0  0  0  0
  187.4820  177.5660  147.3000 C   0  0  0  0  0  2  0  0  0  0  0  0
  189.0000  177.6360  147.1580 C   0  0  0  0  0  2  0  0  0  0  0  0
  189.2960  177.6110  145.6660 C   0  0  0  0  0  2  0  0  0  0  0  0
  187.2260  177.0060  144.7860 C   0  0  2  0  0  3  0  0  0  0  0  0
  186.8940  177.9070  145.9390 C   0  0  2  0  0  0  0  0  0  0  0  0
  188.0380  178.1360  145.0190 C   0  0  2  0  0  0  0  0  0  0  0  0
  185.7780  178.9250  145.7750 C   0  0  0  0  0  2  0  0  0  0  0  0
  184.7330  178.6390  146.6550 O   0  0  0  0  0  1  0  0  0  0  0  0
  184.0810  178.0190  139.9890 N   0  0  0  0  0  2  0  0  0  0  0  0
  184.5110  180.1250  139.0970 O   0  0  0  0  0  0  0  0  0  0  0  0
  184.9490  178.9710  139.3600 C   0  0  0  0  0  0  0  0  0  0  0  0
  182.6880  178.2990  140.3080 C   0  0  1  0  0  3  0  0  0  0  0  0
  180.4100  177.0850  140.4720 C   0  0  0  0  0  1  0  0  0  0  0  0
  182.3230  176.0830  139.5490 O   0  0  0  0  0  0  0  0  0  0  0  0
  181.8460  177.0780  140.0700 C   0  0  0  0  0  0  0  0  0  0  0  0
  182.5860  178.7530  141.7560 C   0  0  0  0  0  2  0  0  0  0  0  0
  183.7790  178.2560  142.5530 C   0  0  0  0  0  1  0  0  0  0  0  0
  1  9  1  0  0  0  0
  2  3  1  0  0  0  0
  3 11  1  0  0  0  0
  4  3  2  0  0  0  0
  5  6  2  0  0  0  0
  6 10  1  0  0  0  0
  6  8  1  0  0  0  0
  7  1  2  0  0  0  0
  7  5  1  0  0  0  0
  8  2  2  0  0  0  0
  9 22  1  0  0  0  0
  9 10  2  0  0  0  0
 10  4  1  0  0  0  0
 11 17  1  0  0  0  0
 13 12  1  0  0  0  0
 14 13  1  0  0  0  0
 15 11  1  6  0  0  0
 15 17  1  0  0  0  0
 15 16  1  0  0  0  0
 16 18  1  6  0  0  0
 16 12  1  0  0  0  0
 17 14  1  1  0  0  0
 17 16  1  0  0  0  0
 18 19  1  0  0  0  0
 20 23  1  0  0  0  0
 21 22  2  0  0  0  0
 22 20  1  0  0  0  0
 23 27  1  1  0  0  0
 25 26  2  0  0  0  0
 26 23  1  0  0  0  0
 26 24  1  0  0  0  0
 27 28  1  0  0  0  0
M  END
>  <MODEL>
7

>  <REMARK>
 VINA RESULT:      -7.6      2.362      7.615
  Name = 
  6 active torsions:
  status: ('A' for Active; 'I' for Inactive)
    1  A    between atoms: C_1  and  C_23
    2  A    between atoms: C_6  and  N_9
    3  A    between atoms: C_7  and  N_8
    4  A    between atoms: C_7  and  C_14
    5  A    between atoms: C_7  and  C_27
    6  A    between atoms: C_25  and  C_26
                            x       y       z     vdW  Elec       q    Type
                         _______ _______ _______ _____ _____    ______ ____

>  <TORSDO>
F 6

$$$$
=
 OpenBabel11062413313D

 28 32  0  0  1  0  0  0  0  0999 V2000
  188.6970  177.3910  146.3390 C   0  0  0  0  0  3  0  0  0  0  0  0
  191.4390  177.0960  142.1750 C   0  0  0  0  0  3  0  0  0  0  0  0
  190.1230  177.1550  141.7150 C   0  0  0  0  0  0  0  0  0  0  0  0
  189.0790  177.2390  142.6350 C   0  0  0  0  0  3  0  0  0  0  0  0
  190.9990  177.2400  145.7850 C   0  0  0  0  0  3  0  0  0  0  0  0
  190.6940  177.2070  144.4270 C   0  0  0  0  0  0  0  0  0  0  0  0
  190.0040  177.3300  146.7040 N   0  0  0  0  0  0  0  0  0  0  0  0
  191.6950  177.1210  143.5090 N   0  0  0  0  0  0  0  0  0  0  0  0
  188.3170  177.3620  144.9870 C   0  0  0  0  0  0  0  0  0  0  0  0
  189.3430  177.2670  144.0120 C   0  0  0  0  0  0  0  0  0  0  0  0
  189.8490  177.1440  140.3190 N   0  0  0  0  0  0  0  0  0  0  0  0
  189.1660  177.4980  136.6850 C   0  0  0  0  0  2  0  0  0  0  0  0
  188.9550  178.9340  137.1570 C   0  0  0  0  0  2  0  0  0  0  0  0
  189.1230  178.9220  138.6690 C   0  0  0  0  0  2  0  0  0  0  0  0
  189.1010  176.6390  139.1260 C   0  0  2  0  0  3  0  0  0  0  0  0
  189.8430  176.7530  137.8270 C   0  0  2  0  0  0  0  0  0  0  0  0
  189.9910  177.7190  138.9460 C   0  0  2  0  0  0  0  0  0  0  0  0
  191.0760  175.8920  137.6080 C   0  0  0  0  0  2  0  0  0  0  0  0
  192.2310  176.6290  137.8740 O   0  0  0  0  0  1  0  0  0  0  0  0
  186.3980  177.9970  143.4400 N   0  0  0  0  0  2  0  0  0  0  0  0
  186.0260  176.9940  145.5060 O   0  0  0  0  0  0  0  0  0  0  0  0
  186.8650  177.4330  144.6710 C   0  0  0  0  0  0  0  0  0  0  0  0
  184.9850  178.1340  143.1100 C   0  0  1  0  0  3  0  0  0  0  0  0
  183.1210  178.9070  144.7270 C   0  0  0  0  0  1  0  0  0  0  0  0
  184.8510  180.3230  144.0080 O   0  0  0  0  0  0  0  0  0  0  0  0
  184.3570  179.2080  143.9510 C   0  0  0  0  0  0  0  0  0  0  0  0
  184.8450  178.4550  141.6290 C   0  0  0  0  0  2  0  0  0  0  0  0
  186.1980  178.7920  141.0290 C   0  0  0  0  0  1  0  0  0  0  0  0
  1  7  1  0  0  0  0
  2  8  1  0  0  0  0
  3  2  2  0  0  0  0
  3  4  1  0  0  0  0
  4 10  2  0  0  0  0
  5  7  2  0  0  0  0
  6  5  1  0  0  0  0
  8  6  2  0  0  0  0
  9  1  2  0  0  0  0
 10  6  1  0  0  0  0
 10  9  1  0  0  0  0
 11  3  1  0  0  0  0
 12 13  1  0  0  0  0
 12 16  1  0  0  0  0
 13 14  1  0  0  0  0
 15 11  1  1  0  0  0
 16 18  1  6  0  0  0
 16 17  1  0  0  0  0
 16 15  1  0  0  0  0
 17 14  1  6  0  0  0
 17 15  1  0  0  0  0
 17 11  1  0  0  0  0
 18 19  1  0  0  0  0
 20 22  1  0  0  0  0
 22  9  1  0  0  0  0
 22 21  2  0  0  0  0
 23 27  1  6  0  0  0
 23 20  1  0  0  0  0
 23 26  1  0  0  0  0
 26 25  2  0  0  0  0
 26 24  1  0  0  0  0
 28 27  1  0  0  0  0
M  END
>  <MODEL>
8

>  <REMARK>
 VINA RESULT:      -7.6      2.639      6.255
  Name = 
  6 active torsions:
  status: ('A' for Active; 'I' for Inactive)
    1  A    between atoms: C_1  and  C_23
    2  A    between atoms: C_6  and  N_9
    3  A    between atoms: C_7  and  N_8
    4  A    between atoms: C_7  and  C_14
    5  A    between atoms: C_7  and  C_27
    6  A    between atoms: C_25  and  C_26
                            x       y       z     vdW  Elec       q    Type
                         _______ _______ _______ _____ _____    ______ ____

>  <TORSDO>
F 6

$$$$
=
 OpenBabel11062413313D

 28 32  0  0  1  0  0  0  0  0999 V2000
  185.5350  178.6810  138.6470 C   0  0  0  0  0  3  0  0  0  0  0  0
  186.3430  178.3040  143.5610 C   0  0  0  0  0  3  0  0  0  0  0  0
  187.5890  178.0470  142.9890 C   0  0  0  0  0  0  0  0  0  0  0  0
  187.7220  178.0670  141.6010 C   0  0  0  0  0  3  0  0  0  0  0  0
  184.2570  178.8870  140.6360 C   0  0  0  0  0  3  0  0  0  0  0  0
  185.3770  178.6000  141.4120 C   0  0  0  0  0  0  0  0  0  0  0  0
  184.3580  178.9210  139.2830 N   0  0  0  0  0  0  0  0  0  0  0  0
  185.2720  178.5710  142.7680 N   0  0  0  0  0  0  0  0  0  0  0  0
  186.7040  178.3850  139.3670 C   0  0  0  0  0  0  0  0  0  0  0  0
  186.6180  178.3440  140.7830 C   0  0  0  0  0  0  0  0  0  0  0  0
  188.7170  177.7820  143.8130 N   0  0  0  0  0  0  0  0  0  0  0  0
  191.4220  176.9300  146.2120 C   0  0  0  0  0  2  0  0  0  0  0  0
  190.1910  176.7670  147.1000 C   0  0  0  0  0  2  0  0  0  0  0  0
  188.9920  177.1730  146.2550 C   0  0  0  0  0  2  0  0  0  0  0  0
  190.0250  178.1760  144.4250 C   0  0  2  0  0  3  0  0  0  0  0  0
  190.9230  177.0270  144.7780 C   0  0  2  0  0  0  0  0  0  0  0  0
  189.4390  176.9570  144.8310 C   0  0  2  0  0  0  0  0  0  0  0  0
  191.5240  176.1950  143.6580 C   0  0  0  0  0  2  0  0  0  0  0  0
  192.0720  175.0180  144.1720 O   0  0  0  0  0  1  0  0  0  0  0  0
  188.3510  176.8080  138.2350 N   0  0  0  0  0  2  0  0  0  0  0  0
  188.6770  179.1110  138.2570 O   0  0  0  0  0  0  0  0  0  0  0  0
  187.9520  178.1360  138.5960 C   0  0  0  0  0  0  0  0  0  0  0  0
  189.5880  176.5120  137.5250 C   0  0  1  0  0  3  0  0  0  0  0  0
  190.8350  176.6320  139.7880 C   0  0  0  0  0  1  0  0  0  0  0  0
  191.2630  174.9700  138.1850 O   0  0  0  0  0  0  0  0  0  0  0  0
  190.6130  175.9620  138.4750 C   0  0  0  0  0  0  0  0  0  0  0  0
  189.3000  175.5220  136.4070 C   0  0  0  0  0  2  0  0  0  0  0  0
  188.5450  176.2010  135.2780 C   0  0  0  0  0  1  0  0  0  0  0  0
  1  7  2  0  0  0  0
  1  9  1  0  0  0  0
  3  2  1  0  0  0  0
  3 11  1  0  0  0  0
  4  3  2  0  0  0  0
  5  6  2  0  0  0  0
  6  8  1  0  0  0  0
  7  5  1  0  0  0  0
  8  2  2  0  0  0  0
  9 10  2  0  0  0  0
 10  6  1  0  0  0  0
 10  4  1  0  0  0  0
 11 17  1  0  0  0  0
 12 13  1  0  0  0  0
 14 13  1  0  0  0  0
 15 11  1  6  0  0  0
 15 16  1  0  0  0  0
 15 17  1  0  0  0  0
 16 18  1  6  0  0  0
 16 17  1  0  0  0  0
 16 12  1  0  0  0  0
 17 14  1  1  0  0  0
 18 19  1  0  0  0  0
 20 22  1  0  0  0  0
 21 22  2  0  0  0  0
 22  9  1  0  0  0  0
 23 27  1  6  0  0  0
 23 20  1  0  0  0  0
 23 26  1  0  0  0  0
 25 26  2  0  0  0  0
 26 24  1  0  0  0  0
 28 27  1  0  0  0  0
M  END
>  <MODEL>
9

>  <REMARK>
 VINA RESULT:      -7.5      2.761      7.116
  Name = 
  6 active torsions:
  status: ('A' for Active; 'I' for Inactive)
    1  A    between atoms: C_1  and  C_23
    2  A    between atoms: C_6  and  N_9
    3  A    between atoms: C_7  and  N_8
    4  A    between atoms: C_7  and  C_14
    5  A    between atoms: C_7  and  C_27
    6  A    between atoms: C_25  and  C_26
                            x       y       z     vdW  Elec       q    Type
                         _______ _______ _______ _____ _____    ______ ____

>  <TORSDO>
F 6

$$$$
