=
 OpenBabel11062413543D

 25 29  0  0  0  0  0  0  0  0999 V2000
  184.4370  178.4010  143.1420 C   0  0  0  0  0  0  0  0  0  0  0  0
  184.5390  178.8140  145.9040 N   0  0  0  0  0  0  0  0  0  0  0  0
  189.4460  177.0230  145.8040 C   0  0  0  0  0  3  0  0  0  0  0  0
  184.3950  178.2810  141.6670 C   0  0  0  0  0  0  0  0  0  0  0  0
  183.0880  177.6960  139.7000 C   0  0  0  0  0  0  0  0  0  0  0  0
  188.7900  177.5070  146.9600 C   0  0  0  0  0  3  0  0  0  0  0  0
  185.5320  177.9920  143.8960 C   0  0  0  0  0  0  0  0  0  0  0  0
  184.1430  178.0820  138.8720 C   0  0  0  0  0  3  0  0  0  0  0  0
  186.8000  177.8260  145.6780 C   0  0  0  0  0  0  0  0  0  0  0  0
  183.3920  178.9670  143.8210 N   0  0  0  0  0  0  0  0  0  0  0  0
  185.4720  178.6700  140.8230 C   0  0  0  0  0  0  0  0  0  0  0  0
  189.5890  176.3250  143.1020 S   0  0  0  0  0  0  0  0  0  0  0  0
  181.9400  177.2260  139.1560 F   0  0  0  0  0  0  0  0  0  0  0  0
  187.4330  177.3470  144.5480 C   0  0  0  0  0  0  0  0  0  0  0  0
  188.3000  177.7130  141.1540 C   0  0  0  0  0  2  0  0  0  0  0  0
  185.3240  178.5740  139.4320 C   0  0  0  0  0  3  0  0  0  0  0  0
  188.7630  176.9350  144.5760 C   0  0  0  0  0  0  0  0  0  0  0  0
  186.7260  179.3040  141.3730 C   0  0  0  0  0  2  0  0  0  0  0  0
  183.4360  179.1710  145.1780 C   0  0  0  0  0  3  0  0  0  0  0  0
  183.2110  177.8060  141.0860 C   0  0  0  0  0  3  0  0  0  0  0  0
  187.4460  177.9240  146.9070 C   0  0  0  0  0  3  0  0  0  0  0  0
  185.5620  178.2250  145.2430 C   0  0  0  0  0  0  0  0  0  0  0  0
  186.6490  177.4280  143.4930 O   0  0  0  0  0  0  0  0  0  0  0  0
  189.4090  177.8880  142.1810 C   0  0  0  0  0  2  0  0  0  0  0  0
  187.8750  178.9470  140.6440 O   0  0  0  0  0  0  0  0  0  0  0  0
  1 10  2  0  0  0  0
  1  7  1  0  0  0  0
  3  6  1  0  0  0  0
  4  1  1  0  0  0  0
  5 20  2  0  0  0  0
  7 22  2  0  0  0  0
  8 16  2  0  0  0  0
  8  5  1  0  0  0  0
  9 21  1  0  0  0  0
 10 19  1  0  0  0  0
 11 18  1  0  0  0  0
 11  4  2  0  0  0  0
 12 17  1  0  0  0  0
 13  5  1  0  0  0  0
 14 17  1  0  0  0  0
 14  9  2  0  0  0  0
 15 24  1  0  0  0  0
 16 11  1  0  0  0  0
 17  3  2  0  0  0  0
 19  2  2  0  0  0  0
 20  4  1  0  0  0  0
 21  6  2  0  0  0  0
 22  9  1  0  0  0  0
 22  2  1  0  0  0  0
 23  7  1  0  0  0  0
 23 14  1  0  0  0  0
 24 12  1  0  0  0  0
 25 15  1  0  0  0  0
 25 18  1  0  0  0  0
M  END
>  <MODEL>
1

>  <REMARK>
 VINA RESULT:      -9.8      0.000      0.000
  Name = 
  0 active torsions:
  status: ('A' for Active; 'I' for Inactive)
                            x       y       z     vdW  Elec       q    Type
                         _______ _______ _______ _____ _____    ______ ____

>  <TORSDO>
F 0

$$$$
=
 OpenBabel11062413543D

 25 29  0  0  0  0  0  0  0  0999 V2000
  184.9670  178.5770  143.5400 C   0  0  0  0  0  0  0  0  0  0  0  0
  183.2810  178.6790  141.3140 N   0  0  0  0  0  0  0  0  0  0  0  0
  187.5230  178.1630  138.3080 C   0  0  0  0  0  3  0  0  0  0  0  0
  185.8320  178.4270  144.7330 C   0  0  0  0  0  0  0  0  0  0  0  0
  186.3130  179.1370  147.0100 C   0  0  0  0  0  0  0  0  0  0  0  0
  186.1960  178.2260  137.8220 C   0  0  0  0  0  3  0  0  0  0  0  0
  185.4770  178.6140  142.2460 C   0  0  0  0  0  0  0  0  0  0  0  0
  187.3380  178.1940  147.0970 C   0  0  0  0  0  3  0  0  0  0  0  0
  185.4110  178.5520  140.0540 C   0  0  0  0  0  0  0  0  0  0  0  0
  183.6070  178.6440  143.6740 N   0  0  0  0  0  0  0  0  0  0  0  0
  186.8790  177.4690  144.8210 C   0  0  0  0  0  0  0  0  0  0  0  0
  189.4720  178.2200  140.3100 S   0  0  0  0  0  0  0  0  0  0  0  0
  186.0420  179.9410  148.0660 F   0  0  0  0  0  0  0  0  0  0  0  0
  186.7050  178.4980  140.5340 C   0  0  0  0  0  0  0  0  0  0  0  0
  189.0690  177.1780  142.7860 C   0  0  0  0  0  2  0  0  0  0  0  0
  187.6110  177.3600  146.0120 C   0  0  0  0  0  3  0  0  0  0  0  0
  187.7900  178.3040  139.6830 C   0  0  0  0  0  0  0  0  0  0  0  0
  187.1450  176.4760  143.7160 C   0  0  0  0  0  2  0  0  0  0  0  0
  182.7730  178.6970  142.5850 C   0  0  0  0  0  3  0  0  0  0  0  0
  185.5600  179.2440  145.8400 C   0  0  0  0  0  3  0  0  0  0  0  0
  185.1130  178.4180  138.7020 C   0  0  0  0  0  3  0  0  0  0  0  0
  184.6270  178.6440  141.1760 C   0  0  0  0  0  0  0  0  0  0  0  0
  186.7290  178.5640  141.8490 O   0  0  0  0  0  0  0  0  0  0  0  0
  189.1700  176.7410  141.3320 C   0  0  0  0  0  2  0  0  0  0  0  0
  188.5120  176.1700  143.5850 O   0  0  0  0  0  0  0  0  0  0  0  0
  1 10  1  0  0  0  0
  1  4  1  0  0  0  0
  2 19  1  0  0  0  0
  3 17  1  0  0  0  0
  4 11  2  0  0  0  0
  4 20  1  0  0  0  0
  5  8  1  0  0  0  0
  5 13  1  0  0  0  0
  6  3  2  0  0  0  0
  6 21  1  0  0  0  0
  7  1  2  0  0  0  0
  9 14  1  0  0  0  0
  9 22  1  0  0  0  0
 11 16  1  0  0  0  0
 12 24  1  0  0  0  0
 14 23  1  0  0  0  0
 15 25  1  0  0  0  0
 16  8  2  0  0  0  0
 17 12  1  0  0  0  0
 17 14  2  0  0  0  0
 18 11  1  0  0  0  0
 19 10  2  0  0  0  0
 20  5  2  0  0  0  0
 21  9  2  0  0  0  0
 22  2  2  0  0  0  0
 22  7  1  0  0  0  0
 23  7  1  0  0  0  0
 24 15  1  0  0  0  0
 25 18  1  0  0  0  0
M  END
>  <MODEL>
2

>  <REMARK>
 VINA RESULT:      -8.9      2.533      5.532
  Name = 
  0 active torsions:
  status: ('A' for Active; 'I' for Inactive)
                            x       y       z     vdW  Elec       q    Type
                         _______ _______ _______ _____ _____    ______ ____

>  <TORSDO>
F 0

$$$$
=
 OpenBabel11062413543D

 25 29  0  0  0  0  0  0  0  0999 V2000
  187.7110  178.0680  141.5710 C   0  0  0  0  0  0  0  0  0  0  0  0
  185.1590  179.0110  142.2060 N   0  0  0  0  0  0  0  0  0  0  0  0
  186.2150  177.9500  147.2120 C   0  0  0  0  0  3  0  0  0  0  0  0
  189.0930  177.6630  141.2250 C   0  0  0  0  0  0  0  0  0  0  0  0
  190.5570  176.5340  139.6430 C   0  0  0  0  0  0  0  0  0  0  0  0
  185.0180  178.5470  146.7520 C   0  0  0  0  0  3  0  0  0  0  0  0
  187.2030  177.9700  142.8620 C   0  0  0  0  0  0  0  0  0  0  0  0
  191.6710  176.8990  140.3990 C   0  0  0  0  0  3  0  0  0  0  0  0
  185.7920  178.3290  144.5030 C   0  0  0  0  0  0  0  0  0  0  0  0
  186.8850  178.5990  140.6170 N   0  0  0  0  0  0  0  0  0  0  0  0
  190.2290  178.0320  141.9970 C   0  0  0  0  0  0  0  0  0  0  0  0
  188.7280  176.7750  146.8760 S   0  0  0  0  0  0  0  0  0  0  0  0
  190.7170  175.8100  138.5090 F   0  0  0  0  0  0  0  0  0  0  0  0
  186.9600  177.7380  144.9460 C   0  0  0  0  0  0  0  0  0  0  0  0
  190.4780  177.5670  144.9540 C   0  0  0  0  0  2  0  0  0  0  0  0
  191.5060  177.6520  141.5630 C   0  0  0  0  0  3  0  0  0  0  0  0
  187.2040  177.5320  146.3010 C   0  0  0  0  0  0  0  0  0  0  0  0
  190.1140  178.9320  143.2040 C   0  0  0  0  0  2  0  0  0  0  0  0
  185.6300  179.0620  140.9230 C   0  0  0  0  0  3  0  0  0  0  0  0
  189.2790  176.9230  140.0490 C   0  0  0  0  0  3  0  0  0  0  0  0
  184.7950  178.7510  145.3760 C   0  0  0  0  0  3  0  0  0  0  0  0
  185.9580  178.4580  143.1470 C   0  0  0  0  0  0  0  0  0  0  0  0
  187.7840  177.5040  143.9450 O   0  0  0  0  0  0  0  0  0  0  0  0
  189.8010  178.0920  146.2120 C   0  0  0  0  0  2  0  0  0  0  0  0
  191.0450  178.6080  144.2070 O   0  0  0  0  0  0  0  0  0  0  0  0
  1  7  1  0  0  0  0
  2 22  1  0  0  0  0
  4  1  1  0  0  0  0
  4 11  1  0  0  0  0
  5 20  1  0  0  0  0
  5  8  2  0  0  0  0
  6  3  1  0  0  0  0
  7 22  2  0  0  0  0
  7 23  1  0  0  0  0
  8 16  1  0  0  0  0
  9 14  2  0  0  0  0
  9 21  1  0  0  0  0
 10 19  1  0  0  0  0
 10  1  2  0  0  0  0
 11 18  1  0  0  0  0
 13  5  1  0  0  0  0
 14 17  1  0  0  0  0
 15 24  1  0  0  0  0
 16 11  2  0  0  0  0
 17 12  1  0  0  0  0
 17  3  2  0  0  0  0
 18 25  1  0  0  0  0
 19  2  2  0  0  0  0
 20  4  2  0  0  0  0
 21  6  2  0  0  0  0
 22  9  1  0  0  0  0
 23 14  1  0  0  0  0
 24 12  1  0  0  0  0
 25 15  1  0  0  0  0
M  END
>  <MODEL>
3

>  <REMARK>
 VINA RESULT:      -8.7      2.763      4.671
  Name = 
  0 active torsions:
  status: ('A' for Active; 'I' for Inactive)
                            x       y       z     vdW  Elec       q    Type
                         _______ _______ _______ _____ _____    ______ ____

>  <TORSDO>
F 0

$$$$
=
 OpenBabel11062413543D

 25 29  0  0  0  0  0  0  0  0999 V2000
  190.1730  176.8500  142.9750 C   0  0  0  0  0  0  0  0  0  0  0  0
  189.0360  177.9390  140.6670 N   0  0  0  0  0  0  0  0  0  0  0  0
  184.6630  178.7230  143.4160 C   0  0  0  0  0  3  0  0  0  0  0  0
  190.8270  176.3590  144.2110 C   0  0  0  0  0  0  0  0  0  0  0  0
  192.3530  174.7540  145.2170 C   0  0  0  0  0  0  0  0  0  0  0  0
  184.8460  179.1110  142.0680 C   0  0  0  0  0  3  0  0  0  0  0  0
  188.8310  177.2110  142.9310 C   0  0  0  0  0  0  0  0  0  0  0  0
  192.1990  175.3720  146.4590 C   0  0  0  0  0  3  0  0  0  0  0  0
  187.0170  178.1180  142.0940 C   0  0  0  0  0  0  0  0  0  0  0  0
  190.8970  177.0040  141.8240 N   0  0  0  0  0  0  0  0  0  0  0  0
  190.6660  176.9860  145.4780 C   0  0  0  0  0  0  0  0  0  0  0  0
  185.4470  177.5240  145.8150 S   0  0  0  0  0  0  0  0  0  0  0  0
  193.1660  173.6780  145.0940 F   0  0  0  0  0  0  0  0  0  0  0  0
  186.8410  177.7290  143.4080 C   0  0  0  0  0  0  0  0  0  0  0  0
  188.0050  177.5980  146.7290 C   0  0  0  0  0  2  0  0  0  0  0  0
  191.3680  176.4860  146.5840 C   0  0  0  0  0  3  0  0  0  0  0  0
  185.6700  178.0170  144.1020 C   0  0  0  0  0  0  0  0  0  0  0  0
  189.8630  178.2530  145.6450 C   0  0  0  0  0  2  0  0  0  0  0  0
  190.3430  177.5360  140.6860 C   0  0  0  0  0  3  0  0  0  0  0  0
  191.6800  175.2530  144.1010 C   0  0  0  0  0  3  0  0  0  0  0  0
  186.0420  178.8140  141.3870 C   0  0  0  0  0  3  0  0  0  0  0  0
  188.3070  177.7590  141.7930 C   0  0  0  0  0  0  0  0  0  0  0  0
  187.9300  177.1630  143.8860 O   0  0  0  0  0  0  0  0  0  0  0  0
  186.8370  178.5280  146.4350 C   0  0  0  0  0  2  0  0  0  0  0  0
  189.2010  178.3120  146.8840 O   0  0  0  0  0  0  0  0  0  0  0  0
  1  4  1  0  0  0  0
  2 19  2  0  0  0  0
  2 22  1  0  0  0  0
  3 17  1  0  0  0  0
  4 11  1  0  0  0  0
  5  8  2  0  0  0  0
  6  3  2  0  0  0  0
  7  1  1  0  0  0  0
  7 23  1  0  0  0  0
  8 16  1  0  0  0  0
  9 14  1  0  0  0  0
 10  1  2  0  0  0  0
 11 18  1  0  0  0  0
 11 16  2  0  0  0  0
 12 24  1  0  0  0  0
 13  5  1  0  0  0  0
 14 23  1  0  0  0  0
 14 17  2  0  0  0  0
 15 25  1  0  0  0  0
 17 12  1  0  0  0  0
 18 25  1  0  0  0  0
 19 10  1  0  0  0  0
 20  4  2  0  0  0  0
 20  5  1  0  0  0  0
 21  6  1  0  0  0  0
 21  9  2  0  0  0  0
 22  9  1  0  0  0  0
 22  7  2  0  0  0  0
 24 15  1  0  0  0  0
M  END
>  <MODEL>
4

>  <REMARK>
 VINA RESULT:      -8.6      3.932      7.067
  Name = 
  0 active torsions:
  status: ('A' for Active; 'I' for Inactive)
                            x       y       z     vdW  Elec       q    Type
                         _______ _______ _______ _____ _____    ______ ____

>  <TORSDO>
F 0

$$$$
=
 OpenBabel11062413543D

 25 29  0  0  0  0  0  0  0  0999 V2000
  185.3140  178.5630  145.4720 C   0  0  0  0  0  0  0  0  0  0  0  0
  187.2550  178.4790  147.4790 N   0  0  0  0  0  0  0  0  0  0  0  0
  190.6510  176.8260  143.8700 C   0  0  0  0  0  3  0  0  0  0  0  0
  184.2960  178.7080  144.4050 C   0  0  0  0  0  0  0  0  0  0  0  0
  181.9640  178.4590  143.7570 C   0  0  0  0  0  0  0  0  0  0  0  0
  190.9770  177.0840  145.2210 C   0  0  0  0  0  3  0  0  0  0  0  0
  186.5830  178.0460  145.2310 C   0  0  0  0  0  0  0  0  0  0  0  0
  182.2440  179.0050  142.5040 C   0  0  0  0  0  3  0  0  0  0  0  0
  188.6840  177.5890  145.6610 C   0  0  0  0  0  0  0  0  0  0  0  0
  185.0440  178.9800  146.7470 N   0  0  0  0  0  0  0  0  0  0  0  0
  184.5820  179.2600  143.1260 C   0  0  0  0  0  0  0  0  0  0  0  0
  188.9010  176.6230  141.7000 S   0  0  0  0  0  0  0  0  0  0  0  0
  180.7020  178.0720  144.0600 F   0  0  0  0  0  0  0  0  0  0  0  0
  188.3580  177.3310  144.3440 C   0  0  0  0  0  0  0  0  0  0  0  0
  186.8030  178.3120  141.3400 C   0  0  0  0  0  2  0  0  0  0  0  0
  183.5440  179.4110  142.1960 C   0  0  0  0  0  3  0  0  0  0  0  0
  189.3230  176.9450  143.4170 C   0  0  0  0  0  0  0  0  0  0  0  0
  185.9450  179.8100  142.7820 C   0  0  0  0  0  2  0  0  0  0  0  0
  185.9930  178.9400  147.7380 C   0  0  0  0  0  3  0  0  0  0  0  0
  182.9820  178.3220  144.7030 C   0  0  0  0  0  3  0  0  0  0  0  0
  189.9860  177.4790  146.1410 C   0  0  0  0  0  3  0  0  0  0  0  0
  187.5180  178.0360  146.2280 C   0  0  0  0  0  0  0  0  0  0  0  0
  187.0870  177.5850  144.1090 O   0  0  0  0  0  0  0  0  0  0  0  0
  188.3240  178.3220  141.3740 C   0  0  0  0  0  2  0  0  0  0  0  0
  186.2810  179.6090  141.4300 O   0  0  0  0  0  0  0  0  0  0  0  0
  1 10  1  0  0  0  0
  2 19  1  0  0  0  0
  3  6  1  0  0  0  0
  4 20  1  0  0  0  0
  4  1  1  0  0  0  0
  5 13  1  0  0  0  0
  5 20  2  0  0  0  0
  6 21  2  0  0  0  0
  7  1  2  0  0  0  0
  7 22  1  0  0  0  0
  8  5  1  0  0  0  0
  9 21  1  0  0  0  0
  9 22  1  0  0  0  0
 10 19  2  0  0  0  0
 11  4  2  0  0  0  0
 12 17  1  0  0  0  0
 14  9  2  0  0  0  0
 15 24  1  0  0  0  0
 15 25  1  0  0  0  0
 16  8  2  0  0  0  0
 16 11  1  0  0  0  0
 17  3  2  0  0  0  0
 17 14  1  0  0  0  0
 18 11  1  0  0  0  0
 22  2  2  0  0  0  0
 23 14  1  0  0  0  0
 23  7  1  0  0  0  0
 24 12  1  0  0  0  0
 25 18  1  0  0  0  0
M  END
>  <MODEL>
5

>  <REMARK>
 VINA RESULT:      -8.1      1.943      2.760
  Name = 
  0 active torsions:
  status: ('A' for Active; 'I' for Inactive)
                            x       y       z     vdW  Elec       q    Type
                         _______ _______ _______ _____ _____    ______ ____

>  <TORSDO>
F 0

$$$$
=
 OpenBabel11062413543D

 25 29  0  0  0  0  0  0  0  0999 V2000
  185.9540  178.2520  144.6370 C   0  0  0  0  0  0  0  0  0  0  0  0
  183.5130  178.6320  143.3320 N   0  0  0  0  0  0  0  0  0  0  0  0
  186.1380  178.6280  138.8150 C   0  0  0  0  0  3  0  0  0  0  0  0
  187.2230  177.9540  145.3410 C   0  0  0  0  0  0  0  0  0  0  0  0
  188.6180  178.3460  147.2960 C   0  0  0  0  0  0  0  0  0  0  0  0
  184.7330  178.7330  138.9280 C   0  0  0  0  0  3  0  0  0  0  0  0
  185.8940  178.4810  143.2660 C   0  0  0  0  0  0  0  0  0  0  0  0
  189.5510  177.4210  146.8270 C   0  0  0  0  0  3  0  0  0  0  0  0
  184.9380  178.7260  141.3070 C   0  0  0  0  0  0  0  0  0  0  0  0
  184.7710  178.2730  145.3240 N   0  0  0  0  0  0  0  0  0  0  0  0
  188.1770  177.0150  144.8610 C   0  0  0  0  0  0  0  0  0  0  0  0
  188.7350  178.4430  139.8320 S   0  0  0  0  0  0  0  0  0  0  0  0
  188.8330  178.9880  148.4690 F   0  0  0  0  0  0  0  0  0  0  0  0
  186.3130  178.6320  141.2040 C   0  0  0  0  0  0  0  0  0  0  0  0
  189.3350  177.0550  142.0900 C   0  0  0  0  0  2  0  0  0  0  0  0
  189.3260  176.7540  145.6220 C   0  0  0  0  0  3  0  0  0  0  0  0
  186.9490  178.5800  139.9660 C   0  0  0  0  0  0  0  0  0  0  0  0
  187.9310  176.1920  143.6200 C   0  0  0  0  0  2  0  0  0  0  0  0
  183.5680  178.4620  144.6890 C   0  0  0  0  0  3  0  0  0  0  0  0
  187.4580  178.6010  146.5620 C   0  0  0  0  0  3  0  0  0  0  0  0
  184.1100  178.7770  140.1910 C   0  0  0  0  0  3  0  0  0  0  0  0
  184.6830  178.6440  142.6520 C   0  0  0  0  0  0  0  0  0  0  0  0
  186.8730  178.5120  142.3900 O   0  0  0  0  0  0  0  0  0  0  0  0
  188.8180  176.8290  140.6770 C   0  0  0  0  0  2  0  0  0  0  0  0
  189.1120  175.9340  142.9010 O   0  0  0  0  0  0  0  0  0  0  0  0
  1 10  1  0  0  0  0
  1  4  1  0  0  0  0
  2 19  1  0  0  0  0
  3  6  2  0  0  0  0
  3 17  1  0  0  0  0
  4 20  1  0  0  0  0
  5 13  1  0  0  0  0
  6 21  1  0  0  0  0
  7  1  2  0  0  0  0
  8  5  1  0  0  0  0
  9 22  1  0  0  0  0
 11  4  2  0  0  0  0
 11 16  1  0  0  0  0
 12 17  1  0  0  0  0
 12 24  1  0  0  0  0
 14  9  1  0  0  0  0
 14 23  1  0  0  0  0
 15 25  1  0  0  0  0
 16  8  2  0  0  0  0
 17 14  2  0  0  0  0
 18 11  1  0  0  0  0
 19 10  2  0  0  0  0
 20  5  2  0  0  0  0
 21  9  2  0  0  0  0
 22  7  1  0  0  0  0
 22  2  2  0  0  0  0
 23  7  1  0  0  0  0
 24 15  1  0  0  0  0
 25 18  1  0  0  0  0
M  END
>  <MODEL>
6

>  <REMARK>
 VINA RESULT:      -8.1      2.700      5.735
  Name = 
  0 active torsions:
  status: ('A' for Active; 'I' for Inactive)
                            x       y       z     vdW  Elec       q    Type
                         _______ _______ _______ _____ _____    ______ ____

>  <TORSDO>
F 0

$$$$
=
 OpenBabel11062413543D

 25 29  0  0  0  0  0  0  0  0999 V2000
  186.5550  178.4890  141.0490 C   0  0  0  0  0  0  0  0  0  0  0  0
  187.3260  178.0890  138.3940 N   0  0  0  0  0  0  0  0  0  0  0  0
  192.1610  177.1450  140.1340 C   0  0  0  0  0  3  0  0  0  0  0  0
  186.1050  178.6090  142.4550 C   0  0  0  0  0  0  0  0  0  0  0  0
  184.6860  179.7710  144.0550 C   0  0  0  0  0  0  0  0  0  0  0  0
  191.7640  177.0640  138.7790 C   0  0  0  0  0  3  0  0  0  0  0  0
  187.8880  178.2890  140.7040 C   0  0  0  0  0  0  0  0  0  0  0  0
  185.0990  178.9010  145.0660 C   0  0  0  0  0  3  0  0  0  0  0  0
  189.5750  177.7940  139.3920 C   0  0  0  0  0  0  0  0  0  0  0  0
  185.6480  178.5330  140.0260 N   0  0  0  0  0  0  0  0  0  0  0  0
  186.5280  177.7260  143.4860 C   0  0  0  0  0  0  0  0  0  0  0  0
  191.7460  177.6670  142.8470 S   0  0  0  0  0  0  0  0  0  0  0  0
  183.8000  180.7570  144.3310 F   0  0  0  0  0  0  0  0  0  0  0  0
  189.9590  177.8830  140.7160 C   0  0  0  0  0  0  0  0  0  0  0  0
  189.4030  177.1190  144.1090 C   0  0  0  0  0  2  0  0  0  0  0  0
  186.0060  177.8800  144.7790 C   0  0  0  0  0  3  0  0  0  0  0  0
  191.2510  177.5640  141.1230 C   0  0  0  0  0  0  0  0  0  0  0  0
  187.4250  176.5450  143.2060 C   0  0  0  0  0  2  0  0  0  0  0  0
  186.0210  178.3390  138.7190 C   0  0  0  0  0  3  0  0  0  0  0  0
  185.1790  179.6170  142.7580 C   0  0  0  0  0  3  0  0  0  0  0  0
  190.4490  177.3860  138.3900 C   0  0  0  0  0  3  0  0  0  0  0  0
  188.2320  178.0770  139.3980 C   0  0  0  0  0  0  0  0  0  0  0  0
  188.9400  178.2080  141.4870 O   0  0  0  0  0  0  0  0  0  0  0  0
  190.5540  176.4080  143.4130 C   0  0  0  0  0  2  0  0  0  0  0  0
  188.3010  176.2690  144.2720 O   0  0  0  0  0  0  0  0  0  0  0  0
  1  4  1  0  0  0  0
  2 19  2  0  0  0  0
  2 22  1  0  0  0  0
  3 17  1  0  0  0  0
  4 20  2  0  0  0  0
  4 11  1  0  0  0  0
  5 13  1  0  0  0  0
  5  8  2  0  0  0  0
  6  3  2  0  0  0  0
  7  1  1  0  0  0  0
  7 23  1  0  0  0  0
  9 22  1  0  0  0  0
  9 14  1  0  0  0  0
 10  1  2  0  0  0  0
 11 16  2  0  0  0  0
 12 24  1  0  0  0  0
 14 17  2  0  0  0  0
 14 23  1  0  0  0  0
 15 25  1  0  0  0  0
 16  8  1  0  0  0  0
 17 12  1  0  0  0  0
 18 11  1  0  0  0  0
 18 25  1  0  0  0  0
 19 10  1  0  0  0  0
 20  5  1  0  0  0  0
 21  6  1  0  0  0  0
 21  9  2  0  0  0  0
 22  7  2  0  0  0  0
 24 15  1  0  0  0  0
M  END
>  <MODEL>
7

>  <REMARK>
 VINA RESULT:      -8.0      2.822      5.323
  Name = 
  0 active torsions:
  status: ('A' for Active; 'I' for Inactive)
                            x       y       z     vdW  Elec       q    Type
                         _______ _______ _______ _____ _____    ______ ____

>  <TORSDO>
F 0

$$$$
=
 OpenBabel11062413543D

 25 29  0  0  0  0  0  0  0  0999 V2000
  186.3420  178.2640  142.4170 C   0  0  0  0  0  0  0  0  0  0  0  0
  186.7650  178.5470  139.6690 N   0  0  0  0  0  0  0  0  0  0  0  0
  181.5830  178.3240  139.0370 C   0  0  0  0  0  3  0  0  0  0  0  0
  186.1350  178.2140  143.8830 C   0  0  0  0  0  0  0  0  0  0  0  0
  186.9070  177.3640  146.0280 C   0  0  0  0  0  0  0  0  0  0  0  0
  182.5130  178.5280  137.9910 C   0  0  0  0  0  3  0  0  0  0  0  0
  185.2920  178.1660  141.5090 C   0  0  0  0  0  0  0  0  0  0  0  0
  185.9140  178.0910  146.6840 C   0  0  0  0  0  3  0  0  0  0  0  0
  184.3010  178.2980  139.5560 C   0  0  0  0  0  0  0  0  0  0  0  0
  187.5950  178.4540  141.9010 N   0  0  0  0  0  0  0  0  0  0  0  0
  185.1190  178.9510  144.5520 C   0  0  0  0  0  0  0  0  0  0  0  0
  180.8510  177.8410  141.6900 S   0  0  0  0  0  0  0  0  0  0  0  0
  187.7680  176.5990  146.7410 F   0  0  0  0  0  0  0  0  0  0  0  0
  183.3990  178.0910  140.5810 C   0  0  0  0  0  0  0  0  0  0  0  0
  182.2120  178.8740  143.8030 C   0  0  0  0  0  2  0  0  0  0  0  0
  185.0330  178.8870  145.9490 C   0  0  0  0  0  3  0  0  0  0  0  0
  182.0250  178.0970  140.3540 C   0  0  0  0  0  0  0  0  0  0  0  0
  184.2110  179.9050  143.8150 C   0  0  0  0  0  2  0  0  0  0  0  0
  187.8090  178.5920  140.5510 C   0  0  0  0  0  3  0  0  0  0  0  0
  187.0220  177.4350  144.6380 C   0  0  0  0  0  3  0  0  0  0  0  0
  183.8980  178.5230  138.2440 C   0  0  0  0  0  3  0  0  0  0  0  0
  185.5270  178.3270  140.1720 C   0  0  0  0  0  0  0  0  0  0  0  0
  184.0120  177.9860  141.7420 O   0  0  0  0  0  0  0  0  0  0  0  0
  181.3670  179.3230  142.6200 C   0  0  0  0  0  2  0  0  0  0  0  0
  182.9160  179.9480  144.3640 O   0  0  0  0  0  0  0  0  0  0  0  0
  1  4  1  0  0  0  0
  2 22  2  0  0  0  0
  2 19  1  0  0  0  0
  3 17  1  0  0  0  0
  4 11  2  0  0  0  0
  4 20  1  0  0  0  0
  5  8  1  0  0  0  0
  5 13  1  0  0  0  0
  6 21  1  0  0  0  0
  6  3  2  0  0  0  0
  7 23  1  0  0  0  0
  7  1  2  0  0  0  0
  9 22  1  0  0  0  0
  9 14  1  0  0  0  0
 10  1  1  0  0  0  0
 11 16  1  0  0  0  0
 12 24  1  0  0  0  0
 14 23  1  0  0  0  0
 15 25  1  0  0  0  0
 16  8  2  0  0  0  0
 17 14  2  0  0  0  0
 17 12  1  0  0  0  0
 18 25  1  0  0  0  0
 18 11  1  0  0  0  0
 19 10  2  0  0  0  0
 20  5  2  0  0  0  0
 21  9  2  0  0  0  0
 22  7  1  0  0  0  0
 24 15  1  0  0  0  0
M  END
>  <MODEL>
8

>  <REMARK>
 VINA RESULT:      -7.8      3.399      6.810
  Name = 
  0 active torsions:
  status: ('A' for Active; 'I' for Inactive)
                            x       y       z     vdW  Elec       q    Type
                         _______ _______ _______ _____ _____    ______ ____

>  <TORSDO>
F 0

$$$$
=
 OpenBabel11062413543D

 25 29  0  0  0  0  0  0  0  0999 V2000
  188.4680  177.2640  143.0580 C   0  0  0  0  0  0  0  0  0  0  0  0
  190.9180  175.9230  143.1180 N   0  0  0  0  0  0  0  0  0  0  0  0
  191.2190  177.0820  148.2030 C   0  0  0  0  0  3  0  0  0  0  0  0
  187.1230  177.8850  143.0270 C   0  0  0  0  0  0  0  0  0  0  0  0
  185.5300  179.2490  141.7940 C   0  0  0  0  0  0  0  0  0  0  0  0
  192.1700  176.3080  147.4970 C   0  0  0  0  0  3  0  0  0  0  0  0
  189.2670  177.2660  144.1970 C   0  0  0  0  0  0  0  0  0  0  0  0
  184.5760  179.0550  142.7930 C   0  0  0  0  0  3  0  0  0  0  0  0
  190.9440  176.6710  145.4800 C   0  0  0  0  0  0  0  0  0  0  0  0
  188.9580  176.6200  141.9550 N   0  0  0  0  0  0  0  0  0  0  0  0
  186.1520  177.6910  144.0480 C   0  0  0  0  0  0  0  0  0  0  0  0
  188.9110  178.6420  148.4210 S   0  0  0  0  0  0  0  0  0  0  0  0
  185.2290  180.0010  140.7080 F   0  0  0  0  0  0  0  0  0  0  0  0
  190.0160  177.4340  146.1620 C   0  0  0  0  0  0  0  0  0  0  0  0
  186.6650  178.1570  146.9700 C   0  0  0  0  0  2  0  0  0  0  0  0
  184.8840  178.2730  143.9080 C   0  0  0  0  0  3  0  0  0  0  0  0
  190.1250  177.6610  147.5320 C   0  0  0  0  0  0  0  0  0  0  0  0
  186.3990  176.7720  145.2190 C   0  0  0  0  0  2  0  0  0  0  0  0
  190.1630  175.9610  141.9780 C   0  0  0  0  0  3  0  0  0  0  0  0
  186.7900  178.6590  141.9070 C   0  0  0  0  0  3  0  0  0  0  0  0
  192.0360  176.0870  146.1130 C   0  0  0  0  0  3  0  0  0  0  0  0
  190.4530  176.5850  144.2020 C   0  0  0  0  0  0  0  0  0  0  0  0
  189.0310  177.8060  145.3710 O   0  0  0  0  0  0  0  0  0  0  0  0
  187.5230  177.5190  148.0540 C   0  0  0  0  0  2  0  0  0  0  0  0
  185.7860  177.2270  146.4000 O   0  0  0  0  0  0  0  0  0  0  0  0
  1  7  1  0  0  0  0
  2 22  1  0  0  0  0
  4  1  1  0  0  0  0
  4 11  1  0  0  0  0
  5 20  1  0  0  0  0
  5  8  2  0  0  0  0
  6  3  2  0  0  0  0
  7 22  2  0  0  0  0
  7 23  1  0  0  0  0
  8 16  1  0  0  0  0
  9 21  2  0  0  0  0
  9 14  1  0  0  0  0
 10 19  1  0  0  0  0
 10  1  2  0  0  0  0
 11 18  1  0  0  0  0
 13  5  1  0  0  0  0
 14 17  2  0  0  0  0
 15 24  1  0  0  0  0
 16 11  2  0  0  0  0
 17  3  1  0  0  0  0
 17 12  1  0  0  0  0
 18 25  1  0  0  0  0
 19  2  2  0  0  0  0
 20  4  2  0  0  0  0
 21  6  1  0  0  0  0
 22  9  1  0  0  0  0
 23 14  1  0  0  0  0
 24 12  1  0  0  0  0
 25 15  1  0  0  0  0
M  END
>  <MODEL>
9

>  <REMARK>
 VINA RESULT:      -7.7      3.038      4.877
  Name = 
  0 active torsions:
  status: ('A' for Active; 'I' for Inactive)
                            x       y       z     vdW  Elec       q    Type
                         _______ _______ _______ _____ _____    ______ ____

>  <TORSDO>
F 0

$$$$
