=
 OpenBabel11062415213D

 70 77  0  0  1  0  0  0  0  0999 V2000
  183.3610  177.9800  140.5890 N   0  0  0  0  0  0  0  0  0  0  0  0
  180.9980  177.2010  140.9190 C   0  0  0  0  0  2  0  0  0  0  0  0
  182.4990  176.8890  141.0760 C   0  0  0  0  0  2  0  0  0  0  0  0
  182.9120  178.4500  139.2830 C   0  0  0  0  0  2  0  0  0  0  0  0
  180.7430  178.6840  140.6340 C   0  0  2  0  0  3  0  0  0  0  0  0
  181.5380  179.1340  139.3880 C   0  0  2  0  0  3  0  0  0  0  0  0
  182.5520  179.1510  143.4560 C   0  0  0  0  0  0  0  0  0  0  0  0
  183.7020  179.7380  144.2320 C   0  0  0  0  0  2  0  0  0  0  0  0
  179.2670  179.9430  143.5190 C   0  0  0  0  0  1  0  0  0  0  0  0
  182.4620  179.4940  142.1090 O   0  0  0  0  0  0  0  0  0  0  0  0
  180.3990  179.0100  143.1290 C   0  0  2  0  0  3  0  0  0  0  0  0
  181.3530  178.9700  144.1460 O   0  0  0  0  0  0  0  0  0  0  0  0
  183.6990  178.2550  143.8470 C   0  0  0  0  0  2  0  0  0  0  0  0
  181.0840  179.5220  141.8740 C   0  0  2  0  0  3  0  0  0  0  0  0
  179.9630  180.0440  137.4460 C   0  0  2  0  0  3  0  0  0  0  0  0
  180.7290  178.8950  138.1050 C   0  0  1  0  0  0  0  0  0  0  0  0
  181.2660  179.5340  136.8320 C   0  0  0  0  0  2  0  0  0  0  0  0
  181.4980  182.0240  137.6950 C   0  0  1  0  0  3  0  0  0  0  0  0
  179.0150  182.9840  136.4930 C   0  0  0  0  0  2  0  0  0  0  0  0
  181.4030  183.5140  137.3610 C   0  0  0  0  0  2  0  0  0  0  0  0
  182.4620  181.8260  138.6830 O   0  0  0  0  0  1  0  0  0  0  0  0
  180.4320  184.7690  135.3770 S   0  0  0  0  0  0  0  0  0  0  0  0
  180.3020  183.7400  136.3670 C   0  0  0  0  0  0  0  0  0  0  0  0
  178.9370  182.2840  137.8500 C   0  0  0  0  0  2  0  0  0  0  0  0
  180.1590  181.3920  138.1320 C   0  0  1  0  0  3  0  0  0  0  0  0
  180.0510  177.6720  137.9660 O   0  0  0  0  0  0  0  0  0  0  0  0
  180.9110  176.7220  138.2960 O   0  0  0  0  0  0  0  0  0  0  0  0
  181.7690  172.9360  136.7120 C   0  0  0  0  0  2  0  0  0  0  0  0
  180.9490  175.8040  137.2280 C   0  0  2  0  0  3  0  0  0  0  0  0
  183.2460  176.2190  134.6640 O   0  0  0  0  0  0  0  0  0  0  0  0
  183.6120  173.8710  135.2090 C   0  0  0  0  0  2  0  0  0  0  0  0
  184.1950  175.1750  134.6450 C   0  0  0  0  0  2  0  0  0  0  0  0
  182.2970  174.1470  135.9360 C   0  0  2  0  0  3  0  0  0  0  0  0
  179.9690  174.6210  137.3950 C   0  0  0  0  0  2  0  0  0  0  0  0
  183.1550  175.1500  137.9270 F   0  0  0  0  0  0  0  0  0  0  0  0
  182.3780  175.4130  136.8090 C   0  0  2  0  0  0  0  0  0  0  0  0
  183.0410  176.5600  136.0190 C   0  0  0  0  0  2  0  0  0  0  0  0
  180.7070  173.3220  137.7530 C   0  0  0  0  0  2  0  0  0  0  0  0
  184.7810  177.6080  140.4940 C   0  0  0  0  0  2  0  0  0  0  0  0
  185.7820  178.6490  141.0240 C   0  0  0  0  0  2  0  0  0  0  0  0
  187.2140  178.0960  139.2090 O   0  0  0  0  0  1  0  0  0  0  0  0
  189.0530  177.8400  141.6160 C   0  0  1  0  0  0  0  0  0  0  0  0
  187.2190  178.4100  140.5700 C   0  0  2  0  0  0  0  0  0  0  0  0
  187.7860  177.3600  141.2850 O   0  0  0  0  0  0  0  0  0  0  0  0
  189.2200  179.0760  140.9670 O   0  0  0  0  0  0  0  0  0  0  0  0
  187.9990  179.5440  140.7770 O   0  0  0  0  0  0  0  0  0  0  0  0
  190.2340  178.8960  143.4430 O   0  0  0  0  0  1  0  0  0  0  0  0
  189.1630  178.0440  143.1510 C   0  0  2  0  0  3  0  0  0  0  0  0
  189.1750  176.7880  144.0840 C   0  0  2  0  0  0  0  0  0  0  0  0
  189.1630  175.6030  143.3210 O   0  0  0  0  0  1  0  0  0  0  0  0
  187.9390  176.7970  145.0210 C   0  0  2  0  0  3  0  0  0  0  0  0
  187.1050  177.8800  144.7260 O   0  0  0  0  0  1  0  0  0  0  0  0
  188.2970  176.8430  146.5090 C   0  0  0  0  0  2  0  0  0  0  0  0
  187.9270  178.1900  147.1150 C   0  0  0  0  0  2  0  0  0  0  0  0
  189.0070  178.6980  147.8410 O   0  0  0  0  0  1  0  0  0  0  0  0
  190.3290  176.8540  144.9210 O   0  0  0  0  0  0  0  0  0  0  0  0
  191.3100  175.9310  144.5060 C   0  0  0  0  0  1  0  0  0  0  0  0
  190.0980  176.8480  141.0860 C   0  0  0  0  0  2  0  0  0  0  0  0
  191.3010  177.5350  140.4520 C   0  0  1  0  0  3  0  0  0  0  0  0
  192.4360  177.2010  141.1710 F   0  0  0  0  0  0  0  0  0  0  0  0
  191.4400  177.0690  139.0060 C   0  0  0  0  0  2  0  0  0  0  0  0
  190.1020  176.6150  138.4450 C   0  0  0  0  0  2  0  0  0  0  0  0
  190.1780  176.4940  137.0570 O   0  0  0  0  0  0  0  0  0  0  0  0
  190.4380  175.1420  136.8160 C   0  0  1  0  0  3  0  0  0  0  0  0
  189.1250  174.3770  136.6960 C   0  0  0  0  0  2  0  0  0  0  0  0
  189.3450  173.0020  136.8150 O   0  0  0  0  0  1  0  0  0  0  0  0
  191.2470  174.9860  135.5380 C   0  0  0  0  0  2  0  0  0  0  0  0
  191.9820  173.7280  135.5610 N   0  0  0  0  0  2  0  0  0  0  0  0
  193.3910  174.0460  135.4040 C   0  0  0  0  0  2  0  0  0  0  0  0
  193.5510  175.4260  135.2590 O   0  0  0  0  0  1  0  0  0  0  0  0
  1  3  1  0  0  0  0
  2  3  1  0  0  0  0
  4  1  1  0  0  0  0
  5  2  1  1  0  0  0
  5 14  1  0  0  0  0
  6  4  1  6  0  0  0
  6  5  1  0  0  0  0
  7 13  1  0  0  0  0
  7 12  1  0  0  0  0
  7  8  1  0  0  0  0
 10  7  1  0  0  0  0
 11  9  1  1  0  0  0
 11 12  1  0  0  0  0
 13  8  1  0  0  0  0
 14 10  1  1  0  0  0
 14 11  1  0  0  0  0
 15 17  1  6  0  0  0
 15 16  1  0  0  0  0
 15 25  1  0  0  0  0
 16 26  1  6  0  0  0
 16  6  1  0  0  0  0
 17 16  1  0  0  0  0
 18 25  1  0  0  0  0
 18 21  1  1  0  0  0
 19 24  1  0  0  0  0
 20 18  1  0  0  0  0
 22 23  2  0  0  0  0
 23 19  1  0  0  0  0
 23 20  1  0  0  0  0
 25 24  1  6  0  0  0
 26 27  1  0  0  0  0
 28 38  1  0  0  0  0
 29 34  1  0  0  0  0
 29 27  1  1  0  0  0
 30 37  1  0  0  0  0
 32 30  1  0  0  0  0
 32 31  1  0  0  0  0
 33 31  1  1  0  0  0
 33 28  1  0  0  0  0
 33 36  1  0  0  0  0
 34 38  1  0  0  0  0
 36 29  1  0  0  0  0
 36 35  1  1  0  0  0
 37 36  1  0  0  0  0
 39  1  1  0  0  0  0
 39 40  1  0  0  0  0
 42 58  1  6  0  0  0
 42 48  1  0  0  0  0
 43 41  1  6  0  0  0
 43 46  1  0  0  0  0
 43 40  1  0  0  0  0
 43 44  1  0  0  0  0
 44 42  1  0  0  0  0
 45 42  1  0  0  0  0
 46 45  1  0  0  0  0
 48 47  1  6  0  0  0
 48 49  1  0  0  0  0
 49 50  1  6  0  0  0
 49 56  1  0  0  0  0
 49 51  1  0  0  0  0
 51 52  1  6  0  0  0
 51 53  1  0  0  0  0
 53 54  1  0  0  0  0
 54 55  1  0  0  0  0
 57 56  1  0  0  0  0
 59 58  1  0  0  0  0
 59 60  1  1  0  0  0
 61 59  1  0  0  0  0
 62 61  1  0  0  0  0
 63 62  1  0  0  0  0
 64 67  1  6  0  0  0
 64 63  1  0  0  0  0
 65 66  1  0  0  0  0
 65 64  1  0  0  0  0
 67 68  1  0  0  0  0
 69 68  1  0  0  0  0
 70 69  1  0  0  0  0
M  END
>  <MODEL>
1

>  <REMARK>
 VINA RESULT:      -4.7      0.000      0.000
  Name = 
  25 active torsions:
  status: ('A' for Active; 'I' for Inactive)
    1  A    between atoms: N_2  and  C_20
    2  A    between atoms: C_3  and  C_44
    3  A    between atoms: C_4  and  C_30
    4  A    between atoms: C_4  and  C_34
    5  A    between atoms: O_6  and  C_38
    6  A    between atoms: C_10  and  O_39
    7  A    between atoms: C_11  and  O_53
    8  A    between atoms: C_11  and  C_59
    9  A    between atoms: C_12  and  C_67
   10  A    between atoms: C_14  and  C_30
   11  A    between atoms: C_14  and  C_40
   12  A    between atoms: C_20  and  C_50
   13  A    between atoms: C_21  and  C_23
   14  A    between atoms: C_21  and  C_60
   15  A    between atoms: C_25  and  C_50
   16  A    between atoms: C_26  and  N_55
   17  A    between atoms: C_34  and  C_58
   18  A    between atoms: C_38  and  C_40
   19  A    between atoms: C_38  and  C_60
   20  A    between atoms: O_39  and  O_53
   21  A    between atoms: O_47  and  C_58
   22  A    between atoms: O_47  and  C_67
   23  A    between atoms: C_49  and  N_55
   24  A    between atoms: C_49  and  C_67
   25  A    between atoms: C_57  and  C_66
                            x       y       z     vdW  Elec       q    Type
                         _______ _______ _______ _____ _____    ______ ____

>  <TORSDO>
F 25

$$$$
=
 OpenBabel11062415213D

 70 77  0  0  1  0  0  0  0  0999 V2000
  187.7160  177.6480  139.0710 N   0  0  0  0  0  0  0  0  0  0  0  0
  190.1470  178.2390  139.2690 C   0  0  0  0  0  2  0  0  0  0  0  0
  188.6970  178.7450  139.1520 C   0  0  0  0  0  2  0  0  0  0  0  0
  188.1480  176.6370  138.1120 C   0  0  0  0  0  2  0  0  0  0  0  0
  190.2130  176.7520  139.6310 C   0  0  2  0  0  3  0  0  0  0  0  0
  189.4130  175.9160  138.6070 C   0  0  2  0  0  3  0  0  0  0  0  0
  188.3290  177.7420  142.2630 C   0  0  0  0  0  0  0  0  0  0  0  0
  187.0860  177.7070  143.1120 C   0  0  0  0  0  2  0  0  0  0  0  0
  191.4140  176.5090  142.8840 C   0  0  0  0  0  1  0  0  0  0  0  0
  188.3650  176.8850  141.1640 O   0  0  0  0  0  0  0  0  0  0  0  0
  190.4740  177.3850  142.0760 C   0  0  2  0  0  3  0  0  0  0  0  0
  189.5370  177.9800  142.9210 O   0  0  0  0  0  0  0  0  0  0  0  0
  187.3630  178.8950  142.1860 C   0  0  0  0  0  2  0  0  0  0  0  0
  189.7160  176.5400  141.0680 C   0  0  2  0  0  3  0  0  0  0  0  0
  189.7300  174.6530  136.2860 C   0  0  2  0  0  3  0  0  0  0  0  0
  190.2950  175.5190  137.4150 C   0  0  1  0  0  0  0  0  0  0  0  0
  189.9510  176.1500  136.0720 C   0  0  0  0  0  2  0  0  0  0  0  0
  187.5750  174.2250  135.0560 C   0  0  1  0  0  3  0  0  0  0  0  0
  188.2810  171.7690  136.4700 C   0  0  0  0  0  2  0  0  0  0  0  0
  186.6370  173.0270  134.9040 C   0  0  0  0  0  2  0  0  0  0  0  0
  186.8800  175.4030  134.7800 O   0  0  0  0  0  1  0  0  0  0  0  0
  187.0650  170.5390  134.6120 S   0  0  0  0  0  0  0  0  0  0  0  0
  187.3570  171.7690  135.2890 C   0  0  0  0  0  0  0  0  0  0  0  0
  188.1020  173.0470  137.2890 C   0  0  0  0  0  2  0  0  0  0  0  0
  188.2490  174.3230  136.4420 C   0  0  1  0  0  3  0  0  0  0  0  0
  191.6500  175.2360  137.6560 O   0  0  0  0  0  0  0  0  0  0  0  0
  192.3300  176.3180  137.3120 O   0  0  0  0  0  0  0  0  0  0  0  0
  194.5110  173.4660  135.1460 C   0  0  0  0  0  2  0  0  0  0  0  0
  193.5020  175.8850  136.6620 C   0  0  2  0  0  3  0  0  0  0  0  0
  196.3110  175.0590  138.5200 O   0  0  0  0  0  0  0  0  0  0  0  0
  196.1430  173.0990  137.0790 C   0  0  0  0  0  2  0  0  0  0  0  0
  196.6130  173.6840  138.4190 C   0  0  0  0  0  2  0  0  0  0  0  0
  195.1930  174.0700  136.3790 C   0  0  2  0  0  3  0  0  0  0  0  0
  193.3440  175.7420  135.1310 C   0  0  0  0  0  2  0  0  0  0  0  0
  193.2430  173.7390  137.7180 F   0  0  0  0  0  0  0  0  0  0  0  0
  194.1840  174.6930  137.3610 C   0  0  2  0  0  0  0  0  0  0  0  0
  194.9070  175.1610  138.6390 C   0  0  0  0  0  2  0  0  0  0  0  0
  193.2780  174.2680  134.7040 C   0  0  0  0  0  2  0  0  0  0  0  0
  186.3620  178.0970  138.7070 C   0  0  0  0  0  2  0  0  0  0  0  0
  185.9620  177.8890  137.2370 C   0  0  0  0  0  2  0  0  0  0  0  0
  184.3630  176.8570  135.8140 O   0  0  0  0  0  1  0  0  0  0  0  0
  182.6210  178.2560  137.8750 C   0  0  1  0  0  0  0  0  0  0  0  0
  184.4980  177.5030  137.0450 C   0  0  2  0  0  0  0  0  0  0  0  0
  183.6900  178.6360  137.0650 O   0  0  0  0  0  0  0  0  0  0  0  0
  182.7790  176.8900  138.1730 O   0  0  0  0  0  0  0  0  0  0  0  0
  184.0730  176.6510  138.0600 O   0  0  0  0  0  0  0  0  0  0  0  0
  183.7830  179.8700  139.2510 O   0  0  0  0  0  1  0  0  0  0  0  0
  182.6320  179.0760  139.1940 C   0  0  2  0  0  3  0  0  0  0  0  0
  182.3950  178.3330  140.5510 C   0  0  2  0  0  0  0  0  0  0  0  0
  182.6730  176.9580  140.4190 O   0  0  0  0  0  1  0  0  0  0  0  0
  180.9250  178.5080  141.0150 C   0  0  2  0  0  3  0  0  0  0  0  0
  180.2820  177.2680  141.0930 O   0  0  0  0  0  1  0  0  0  0  0  0
  180.1030  179.4330  140.1150 C   0  0  0  0  0  2  0  0  0  0  0  0
  180.2030  180.8790  140.5850 C   0  0  0  0  0  2  0  0  0  0  0  0
  179.1500  181.1700  141.4560 O   0  0  0  0  0  1  0  0  0  0  0  0
  183.2190  178.9340  141.5490 O   0  0  0  0  0  0  0  0  0  0  0  0
  182.5830  178.9220  142.8060 C   0  0  0  0  0  1  0  0  0  0  0  0
  181.3210  178.4500  137.0810 C   0  0  0  0  0  2  0  0  0  0  0  0
  180.5230  177.1620  136.9230 C   0  0  1  0  0  3  0  0  0  0  0  0
  179.2340  177.3770  137.3810 F   0  0  0  0  0  0  0  0  0  0  0  0
  180.4980  176.7670  135.4500 C   0  0  0  0  0  2  0  0  0  0  0  0
  180.6370  175.2630  135.2830 C   0  0  0  0  0  2  0  0  0  0  0  0
  181.9630  174.8770  135.4880 O   0  0  0  0  0  0  0  0  0  0  0  0
  181.8940  173.5940  136.0390 C   0  0  1  0  0  3  0  0  0  0  0  0
  183.2850  172.9720  136.0760 C   0  0  0  0  0  2  0  0  0  0  0  0
  183.8850  173.1850  137.3200 O   0  0  0  0  0  1  0  0  0  0  0  0
  181.3190  173.6600  137.4450 C   0  0  0  0  0  2  0  0  0  0  0  0
  179.9190  173.2570  137.4330 N   0  0  0  0  0  2  0  0  0  0  0  0
  179.8820  171.8230  137.2030 C   0  0  0  0  0  2  0  0  0  0  0  0
  180.8540  171.1940  137.9850 O   0  0  0  0  0  1  0  0  0  0  0  0
  1  3  1  0  0  0  0
  3  2  1  0  0  0  0
  4  1  1  0  0  0  0
  5  2  1  6  0  0  0
  5 14  1  0  0  0  0
  6  4  1  6  0  0  0
  6  5  1  0  0  0  0
  7 12  1  0  0  0  0
  7  8  1  0  0  0  0
 10  7  1  0  0  0  0
 11  9  1  1  0  0  0
 11 12  1  0  0  0  0
 13  7  1  0  0  0  0
 13  8  1  0  0  0  0
 14 10  1  6  0  0  0
 14 11  1  0  0  0  0
 15 17  1  6  0  0  0
 15 25  1  0  0  0  0
 15 16  1  0  0  0  0
 16 26  1  1  0  0  0
 16  6  1  0  0  0  0
 17 16  1  0  0  0  0
 18 21  1  1  0  0  0
 18 25  1  0  0  0  0
 19 24  1  0  0  0  0
 20 18  1  0  0  0  0
 20 23  1  0  0  0  0
 22 23  2  0  0  0  0
 23 19  1  0  0  0  0
 25 24  1  6  0  0  0
 27 26  1  0  0  0  0
 29 27  1  1  0  0  0
 29 36  1  0  0  0  0
 30 37  1  0  0  0  0
 31 32  1  0  0  0  0
 32 30  1  0  0  0  0
 33 28  1  6  0  0  0
 33 31  1  0  0  0  0
 33 36  1  0  0  0  0
 34 29  1  0  0  0  0
 36 35  1  1  0  0  0
 36 37  1  0  0  0  0
 38 34  1  0  0  0  0
 38 28  1  0  0  0  0
 39  1  1  0  0  0  0
 40 39  1  0  0  0  0
 42 58  1  6  0  0  0
 42 45  1  0  0  0  0
 42 48  1  0  0  0  0
 43 41  1  6  0  0  0
 43 44  1  0  0  0  0
 43 40  1  0  0  0  0
 43 46  1  0  0  0  0
 44 42  1  0  0  0  0
 46 45  1  0  0  0  0
 48 47  1  1  0  0  0
 48 49  1  0  0  0  0
 49 50  1  6  0  0  0
 49 51  1  0  0  0  0
 49 56  1  0  0  0  0
 51 52  1  6  0  0  0
 53 54  1  0  0  0  0
 53 51  1  0  0  0  0
 54 55  1  0  0  0  0
 56 57  1  0  0  0  0
 59 58  1  0  0  0  0
 59 60  1  6  0  0  0
 61 59  1  0  0  0  0
 62 61  1  0  0  0  0
 62 63  1  0  0  0  0
 63 64  1  0  0  0  0
 64 65  1  1  0  0  0
 64 67  1  0  0  0  0
 65 66  1  0  0  0  0
 68 67  1  0  0  0  0
 69 68  1  0  0  0  0
 69 70  1  0  0  0  0
M  END
>  <MODEL>
2

>  <REMARK>
 VINA RESULT:      -4.6      3.180     10.078
  Name = 
  25 active torsions:
  status: ('A' for Active; 'I' for Inactive)
    1  A    between atoms: N_2  and  C_20
    2  A    between atoms: C_3  and  C_44
    3  A    between atoms: C_4  and  C_30
    4  A    between atoms: C_4  and  C_34
    5  A    between atoms: O_6  and  C_38
    6  A    between atoms: C_10  and  O_39
    7  A    between atoms: C_11  and  O_53
    8  A    between atoms: C_11  and  C_59
    9  A    between atoms: C_12  and  C_67
   10  A    between atoms: C_14  and  C_30
   11  A    between atoms: C_14  and  C_40
   12  A    between atoms: C_20  and  C_50
   13  A    between atoms: C_21  and  C_23
   14  A    between atoms: C_21  and  C_60
   15  A    between atoms: C_25  and  C_50
   16  A    between atoms: C_26  and  N_55
   17  A    between atoms: C_34  and  C_58
   18  A    between atoms: C_38  and  C_40
   19  A    between atoms: C_38  and  C_60
   20  A    between atoms: O_39  and  O_53
   21  A    between atoms: O_47  and  C_58
   22  A    between atoms: O_47  and  C_67
   23  A    between atoms: C_49  and  N_55
   24  A    between atoms: C_49  and  C_67
   25  A    between atoms: C_57  and  C_66
                            x       y       z     vdW  Elec       q    Type
                         _______ _______ _______ _____ _____    ______ ____

>  <TORSDO>
F 25

$$$$
=
 OpenBabel11062415213D

 70 77  0  0  1  0  0  0  0  0999 V2000
  183.8260  178.9600  140.6490 N   0  0  0  0  0  0  0  0  0  0  0  0
  181.9700  177.4400  139.9120 C   0  0  0  0  0  2  0  0  0  0  0  0
  182.6650  178.1620  141.0820 C   0  0  0  0  0  2  0  0  0  0  0  0
  184.6740  178.1920  139.7440 C   0  0  0  0  0  2  0  0  0  0  0  0
  182.4110  177.9870  138.5510 C   0  0  2  0  0  3  0  0  0  0  0  0
  183.9490  177.9140  138.4170 C   0  0  2  0  0  3  0  0  0  0  0  0
  180.1410  180.3940  139.2680 C   0  0  0  0  0  0  0  0  0  0  0  0
  179.6650  181.6080  140.0220 C   0  0  0  0  0  2  0  0  0  0  0  0
  181.2060  180.1070  136.0730 C   0  0  0  0  0  1  0  0  0  0  0  0
  181.4130  179.9170  139.5820 O   0  0  0  0  0  0  0  0  0  0  0  0
  180.7320  179.4850  137.3730 C   0  0  2  0  0  3  0  0  0  0  0  0
  179.7310  180.2740  137.9400 O   0  0  0  0  0  0  0  0  0  0  0  0
  179.0790  180.2240  140.3230 C   0  0  0  0  0  2  0  0  0  0  0  0
  181.8800  179.4160  138.3640 C   0  0  2  0  0  3  0  0  0  0  0  0
  185.5690  176.4600  136.8860 C   0  0  2  0  0  3  0  0  0  0  0  0
  184.3850  176.5540  137.8510 C   0  0  1  0  0  0  0  0  0  0  0  0
  185.7210  176.0110  138.3390 C   0  0  0  0  0  2  0  0  0  0  0  0
  187.5790  177.8660  137.4530 C   0  0  1  0  0  3  0  0  0  0  0  0
  187.7190  177.2460  134.6020 C   0  0  0  0  0  2  0  0  0  0  0  0
  188.7730  178.4120  136.6670 C   0  0  0  0  0  2  0  0  0  0  0  0
  187.3810  178.6360  138.5990 O   0  0  0  0  0  1  0  0  0  0  0  0
  190.2390  177.4040  134.8540 S   0  0  0  0  0  0  0  0  0  0  0  0
  188.9310  177.6440  135.3890 C   0  0  0  0  0  0  0  0  0  0  0  0
  186.4800  177.9750  135.1230 C   0  0  0  0  0  2  0  0  0  0  0  0
  186.2710  177.7910  136.6360 C   0  0  1  0  0  3  0  0  0  0  0  0
  183.3890  175.6130  137.5440 O   0  0  0  0  0  0  0  0  0  0  0  0
  183.3400  175.5300  136.2240 O   0  0  0  0  0  0  0  0  0  0  0  0
  180.1130  173.0810  137.3070 C   0  0  0  0  0  2  0  0  0  0  0  0
  182.2550  174.6920  135.8990 C   0  0  2  0  0  3  0  0  0  0  0  0
  182.8330  171.5320  134.5950 O   0  0  0  0  0  0  0  0  0  0  0  0
  181.2530  170.9930  136.3710 C   0  0  0  0  0  2  0  0  0  0  0  0
  182.4130  170.5200  135.4830 C   0  0  0  0  0  2  0  0  0  0  0  0
  181.1020  172.5120  136.2840 C   0  0  2  0  0  3  0  0  0  0  0  0
  180.8790  175.2900  136.2700 C   0  0  0  0  0  2  0  0  0  0  0  0
  182.9760  173.1650  137.6120 F   0  0  0  0  0  0  0  0  0  0  0  0
  182.4650  173.2260  136.3250 C   0  0  2  0  0  0  0  0  0  0  0  0
  183.4590  172.5270  135.3770 C   0  0  0  0  0  2  0  0  0  0  0  0
  180.2730  174.5970  137.5000 C   0  0  0  0  0  2  0  0  0  0  0  0
  184.6490  179.4510  141.7660 C   0  0  0  0  0  2  0  0  0  0  0  0
  186.1180  178.9930  141.7640 C   0  0  0  0  0  2  0  0  0  0  0  0
  185.5660  178.2260  143.9450 O   0  0  0  0  0  1  0  0  0  0  0  0
  188.2920  176.9700  143.4630 C   0  0  1  0  0  0  0  0  0  0  0  0
  186.4650  178.0280  142.8940 C   0  0  2  0  0  0  0  0  0  0  0  0
  187.7620  178.2540  143.3460 O   0  0  0  0  0  0  0  0  0  0  0  0
  187.2510  176.0570  143.2140 O   0  0  0  0  0  0  0  0  0  0  0  0
  186.3830  176.7080  142.4610 O   0  0  0  0  0  0  0  0  0  0  0  0
  190.0110  175.5050  142.5990 O   0  0  0  0  0  1  0  0  0  0  0  0
  189.4220  176.7610  142.4180 C   0  0  2  0  0  3  0  0  0  0  0  0
  190.5110  177.8720  142.2480 C   0  0  2  0  0  0  0  0  0  0  0  0
  189.9690  179.1440  142.5210 O   0  0  0  0  0  1  0  0  0  0  0  0
  191.0720  177.8630  140.8020 C   0  0  2  0  0  3  0  0  0  0  0  0
  190.0380  177.6990  139.8730 O   0  0  0  0  0  1  0  0  0  0  0  0
  192.1270  176.7810  140.5590 C   0  0  0  0  0  2  0  0  0  0  0  0
  193.0820  177.1920  139.4460 C   0  0  0  0  0  2  0  0  0  0  0  0
  193.1300  176.1950  138.4680 O   0  0  0  0  0  1  0  0  0  0  0  0
  191.6030  177.5760  143.1170 O   0  0  0  0  0  0  0  0  0  0  0  0
  192.2960  178.7480  143.4780 C   0  0  0  0  0  1  0  0  0  0  0  0
  188.7910  176.7830  144.9030 C   0  0  0  0  0  2  0  0  0  0  0  0
  187.9820  177.5790  145.9190 C   0  0  1  0  0  3  0  0  0  0  0  0
  186.7780  176.9310  146.1390 F   0  0  0  0  0  0  0  0  0  0  0  0
  188.7700  177.6770  147.2210 C   0  0  0  0  0  2  0  0  0  0  0  0
  189.8800  176.6380  147.2700 C   0  0  0  0  0  2  0  0  0  0  0  0
  190.9580  177.1210  148.0130 O   0  0  0  0  0  0  0  0  0  0  0  0
  192.0670  176.3930  147.5720 C   0  0  1  0  0  3  0  0  0  0  0  0
  192.8380  175.8500  148.7700 C   0  0  0  0  0  2  0  0  0  0  0  0
  193.5440  176.8750  149.4050 O   0  0  0  0  0  1  0  0  0  0  0  0
  191.6180  175.2450  146.6820 C   0  0  0  0  0  2  0  0  0  0  0  0
  191.7540  175.6170  145.2800 N   0  0  0  0  0  2  0  0  0  0  0  0
  192.4760  174.5460  144.6150 C   0  0  0  0  0  2  0  0  0  0  0  0
  191.8500  173.3240  144.8700 O   0  0  0  0  0  1  0  0  0  0  0  0
  1  3  1  0  0  0  0
  1 39  1  0  0  0  0
  2  3  1  0  0  0  0
  4  1  1  0  0  0  0
  5  2  1  1  0  0  0
  6  5  1  0  0  0  0
  6  4  1  1  0  0  0
  7 10  1  0  0  0  0
  7  8  1  0  0  0  0
  7 13  1  0  0  0  0
  8 13  1  0  0  0  0
 11  9  1  6  0  0  0
 11 12  1  0  0  0  0
 11 14  1  0  0  0  0
 12  7  1  0  0  0  0
 14  5  1  0  0  0  0
 14 10  1  1  0  0  0
 15 16  1  0  0  0  0
 15 17  1  1  0  0  0
 16 26  1  6  0  0  0
 16 17  1  0  0  0  0
 16  6  1  0  0  0  0
 18 21  1  1  0  0  0
 19 24  1  0  0  0  0
 19 23  1  0  0  0  0
 20 18  1  0  0  0  0
 22 23  2  0  0  0  0
 23 20  1  0  0  0  0
 25 24  1  6  0  0  0
 25 15  1  0  0  0  0
 25 18  1  0  0  0  0
 27 26  1  0  0  0  0
 28 38  1  0  0  0  0
 29 27  1  1  0  0  0
 29 34  1  0  0  0  0
 29 36  1  0  0  0  0
 30 37  1  0  0  0  0
 30 32  1  0  0  0  0
 32 31  1  0  0  0  0
 33 36  1  0  0  0  0
 33 31  1  1  0  0  0
 33 28  1  0  0  0  0
 34 38  1  0  0  0  0
 36 35  1  1  0  0  0
 37 36  1  0  0  0  0
 40 39  1  0  0  0  0
 40 43  1  0  0  0  0
 42 58  1  1  0  0  0
 43 44  1  0  0  0  0
 43 41  1  1  0  0  0
 44 42  1  0  0  0  0
 45 42  1  0  0  0  0
 46 43  1  0  0  0  0
 46 45  1  0  0  0  0
 48 47  1  1  0  0  0
 48 42  1  0  0  0  0
 49 48  1  0  0  0  0
 49 50  1  1  0  0  0
 49 56  1  0  0  0  0
 51 52  1  6  0  0  0
 51 49  1  0  0  0  0
 53 51  1  0  0  0  0
 54 53  1  0  0  0  0
 55 54  1  0  0  0  0
 56 57  1  0  0  0  0
 58 59  1  0  0  0  0
 59 60  1  1  0  0  0
 59 61  1  0  0  0  0
 61 62  1  0  0  0  0
 62 63  1  0  0  0  0
 64 67  1  6  0  0  0
 64 63  1  0  0  0  0
 64 65  1  0  0  0  0
 65 66  1  0  0  0  0
 68 67  1  0  0  0  0
 69 70  1  0  0  0  0
 69 68  1  0  0  0  0
M  END
>  <MODEL>
3

>  <REMARK>
 VINA RESULT:      -3.8      3.063      6.433
  Name = 
  25 active torsions:
  status: ('A' for Active; 'I' for Inactive)
    1  A    between atoms: N_2  and  C_20
    2  A    between atoms: C_3  and  C_44
    3  A    between atoms: C_4  and  C_30
    4  A    between atoms: C_4  and  C_34
    5  A    between atoms: O_6  and  C_38
    6  A    between atoms: C_10  and  O_39
    7  A    between atoms: C_11  and  O_53
    8  A    between atoms: C_11  and  C_59
    9  A    between atoms: C_12  and  C_67
   10  A    between atoms: C_14  and  C_30
   11  A    between atoms: C_14  and  C_40
   12  A    between atoms: C_20  and  C_50
   13  A    between atoms: C_21  and  C_23
   14  A    between atoms: C_21  and  C_60
   15  A    between atoms: C_25  and  C_50
   16  A    between atoms: C_26  and  N_55
   17  A    between atoms: C_34  and  C_58
   18  A    between atoms: C_38  and  C_40
   19  A    between atoms: C_38  and  C_60
   20  A    between atoms: O_39  and  O_53
   21  A    between atoms: O_47  and  C_58
   22  A    between atoms: O_47  and  C_67
   23  A    between atoms: C_49  and  N_55
   24  A    between atoms: C_49  and  C_67
   25  A    between atoms: C_57  and  C_66
                            x       y       z     vdW  Elec       q    Type
                         _______ _______ _______ _____ _____    ______ ____

>  <TORSDO>
F 25

$$$$
=
 OpenBabel11062415213D

 70 77  0  0  1  0  0  0  0  0999 V2000
  184.6000  178.9920  140.7010 N   0  0  0  0  0  0  0  0  0  0  0  0
  182.9110  177.1470  140.4980 C   0  0  0  0  0  2  0  0  0  0  0  0
  184.1700  177.6790  141.2110 C   0  0  0  0  0  2  0  0  0  0  0  0
  184.6060  179.0050  139.2420 C   0  0  0  0  0  2  0  0  0  0  0  0
  182.1990  178.2390  139.6920 C   0  0  2  0  0  3  0  0  0  0  0  0
  183.1770  178.8850  138.6860 C   0  0  2  0  0  3  0  0  0  0  0  0
  180.1700  178.9850  142.2960 C   0  0  0  0  0  0  0  0  0  0  0  0
  179.9030  179.2720  143.7510 C   0  0  0  0  0  2  0  0  0  0  0  0
  180.1930  181.0770  139.6420 C   0  0  0  0  0  1  0  0  0  0  0  0
  181.4940  178.7440  141.9350 O   0  0  0  0  0  0  0  0  0  0  0  0
  180.1750  179.6770  140.2260 C   0  0  2  0  0  3  0  0  0  0  0  0
  179.3700  179.6480  141.3650 O   0  0  0  0  0  0  0  0  0  0  0  0
  179.4990  177.9290  143.1360 C   0  0  0  0  0  2  0  0  0  0  0  0
  181.5780  179.2710  140.6430 C   0  0  2  0  0  3  0  0  0  0  0  0
  182.1950  176.9760  137.1150 C   0  0  2  0  0  3  0  0  0  0  0  0
  183.1890  178.1130  137.3590 C   0  0  1  0  0  0  0  0  0  0  0  0
  182.0000  178.3300  136.4340 C   0  0  0  0  0  2  0  0  0  0  0  0
  179.7620  176.6690  137.6880 C   0  0  1  0  0  3  0  0  0  0  0  0
  181.1620  174.2260  138.4660 C   0  0  0  0  0  2  0  0  0  0  0  0
  178.9310  175.5440  138.3060 C   0  0  0  0  0  2  0  0  0  0  0  0
  179.0990  177.8850  137.8510 O   0  0  0  0  0  1  0  0  0  0  0  0
  178.9740  173.0200  138.0160 S   0  0  0  0  0  0  0  0  0  0  0  0
  179.6840  174.2500  138.2150 C   0  0  0  0  0  0  0  0  0  0  0  0
  181.6200  175.5490  139.0820 C   0  0  0  0  0  2  0  0  0  0  0  0
  181.1970  176.7720  138.2500 C   0  0  1  0  0  3  0  0  0  0  0  0
  184.4290  177.8570  136.7510 O   0  0  0  0  0  0  0  0  0  0  0  0
  185.0030  176.8920  137.4510 O   0  0  0  0  0  0  0  0  0  0  0  0
  187.9950  174.0470  136.7220 C   0  0  0  0  0  2  0  0  0  0  0  0
  185.9020  176.2300  136.5920 C   0  0  2  0  0  3  0  0  0  0  0  0
  188.6830  177.9000  135.3690 O   0  0  0  0  0  0  0  0  0  0  0  0
  189.7230  175.8520  136.1870 C   0  0  0  0  0  2  0  0  0  0  0  0
  189.8810  177.3460  135.8680 C   0  0  0  0  0  2  0  0  0  0  0  0
  188.2450  175.4640  136.1970 C   0  0  2  0  0  3  0  0  0  0  0  0
  185.5590  174.7400  136.3680 C   0  0  0  0  0  2  0  0  0  0  0  0
  187.6010  176.4360  138.2810 F   0  0  0  0  0  0  0  0  0  0  0  0
  187.3810  176.5160  136.9150 C   0  0  2  0  0  0  0  0  0  0  0  0
  187.7690  177.9320  136.4450 C   0  0  0  0  0  2  0  0  0  0  0  0
  186.5290  173.8160  137.1200 C   0  0  0  0  0  2  0  0  0  0  0  0
  185.9290  179.4020  141.1820 C   0  0  0  0  0  2  0  0  0  0  0  0
  186.8510  178.2620  141.6470 C   0  0  0  0  0  2  0  0  0  0  0  0
  188.3320  178.9890  139.9370 O   0  0  0  0  0  1  0  0  0  0  0  0
  190.1740  177.4630  141.8120 C   0  0  1  0  0  0  0  0  0  0  0  0
  188.3060  178.4300  141.2160 C   0  0  2  0  0  0  0  0  0  0  0  0
  188.9510  177.1970  141.1950 O   0  0  0  0  0  0  0  0  0  0  0  0
  190.2440  178.8490  142.0350 O   0  0  0  0  0  0  0  0  0  0  0  0
  188.9900  179.2610  142.0970 O   0  0  0  0  0  0  0  0  0  0  0  0
  189.4380  175.5850  143.1460 O   0  0  0  0  0  1  0  0  0  0  0  0
  190.2600  176.7170  143.1710 C   0  0  2  0  0  3  0  0  0  0  0  0
  190.0580  177.5280  144.4950 C   0  0  2  0  0  0  0  0  0  0  0  0
  190.9540  178.6130  144.5530 O   0  0  0  0  0  1  0  0  0  0  0  0
  190.2890  176.6160  145.7290 C   0  0  2  0  0  3  0  0  0  0  0  0
  189.7210  177.1850  146.8740 O   0  0  0  0  0  1  0  0  0  0  0  0
  191.7650  176.3210  146.0070 C   0  0  0  0  0  2  0  0  0  0  0  0
  191.9470  175.7260  147.3970 C   0  0  0  0  0  2  0  0  0  0  0  0
  192.4060  176.7090  148.2780 O   0  0  0  0  0  1  0  0  0  0  0  0
  188.7030  177.9700  144.5550 O   0  0  0  0  0  0  0  0  0  0  0  0
  187.8770  176.9940  145.1460 C   0  0  0  0  0  1  0  0  0  0  0  0
  191.2980  177.0500  140.8510 C   0  0  0  0  0  2  0  0  0  0  0  0
  192.6860  177.2080  141.4590 C   0  0  1  0  0  3  0  0  0  0  0  0
  192.9260  176.1390  142.3070 F   0  0  0  0  0  0  0  0  0  0  0  0
  193.7230  177.2330  140.3400 C   0  0  0  0  0  2  0  0  0  0  0  0
  193.4390  176.1560  139.3050 C   0  0  0  0  0  2  0  0  0  0  0  0
  194.6360  175.6580  138.7880 O   0  0  0  0  0  0  0  0  0  0  0  0
  194.2720  174.5610  138.0010 C   0  0  1  0  0  3  0  0  0  0  0  0
  193.7840  175.0400  136.6390 C   0  0  0  0  0  2  0  0  0  0  0  0
  192.7960  174.1860  136.1430 O   0  0  0  0  0  1  0  0  0  0  0  0
  195.4590  173.6270  137.8280 C   0  0  0  0  0  2  0  0  0  0  0  0
  195.2630  172.4160  138.6130 N   0  0  0  0  0  2  0  0  0  0  0  0
  195.1190  171.3120  137.6790 C   0  0  0  0  0  2  0  0  0  0  0  0
  195.0200  170.1090  138.3800 O   0  0  0  0  0  1  0  0  0  0  0  0
  1 39  1  0  0  0  0
  1  3  1  0  0  0  0
  2  3  1  0  0  0  0
  4  1  1  0  0  0  0
  5  2  1  1  0  0  0
  5 14  1  0  0  0  0
  6  4  1  1  0  0  0
  6  5  1  0  0  0  0
  7 13  1  0  0  0  0
  7  8  1  0  0  0  0
 10  7  1  0  0  0  0
 11  9  1  1  0  0  0
 11 14  1  0  0  0  0
 11 12  1  0  0  0  0
 12  7  1  0  0  0  0
 13  8  1  0  0  0  0
 14 10  1  1  0  0  0
 15 17  1  6  0  0  0
 15 16  1  0  0  0  0
 15 25  1  0  0  0  0
 16 26  1  6  0  0  0
 16  6  1  0  0  0  0
 17 16  1  0  0  0  0
 18 21  1  1  0  0  0
 18 25  1  0  0  0  0
 18 20  1  0  0  0  0
 19 24  1  0  0  0  0
 22 23  2  0  0  0  0
 23 20  1  0  0  0  0
 23 19  1  0  0  0  0
 25 24  1  6  0  0  0
 26 27  1  0  0  0  0
 28 38  1  0  0  0  0
 29 36  1  0  0  0  0
 29 27  1  1  0  0  0
 30 32  1  0  0  0  0
 30 37  1  0  0  0  0
 32 31  1  0  0  0  0
 33 31  1  1  0  0  0
 33 28  1  0  0  0  0
 33 36  1  0  0  0  0
 34 29  1  0  0  0  0
 34 38  1  0  0  0  0
 36 35  1  1  0  0  0
 37 36  1  0  0  0  0
 39 40  1  0  0  0  0
 42 58  1  6  0  0  0
 42 45  1  0  0  0  0
 42 48  1  0  0  0  0
 43 41  1  6  0  0  0
 43 40  1  0  0  0  0
 43 46  1  0  0  0  0
 44 43  1  0  0  0  0
 44 42  1  0  0  0  0
 45 46  1  0  0  0  0
 48 47  1  6  0  0  0
 48 49  1  0  0  0  0
 49 50  1  1  0  0  0
 49 56  1  0  0  0  0
 49 51  1  0  0  0  0
 51 53  1  0  0  0  0
 51 52  1  1  0  0  0
 53 54  1  0  0  0  0
 54 55  1  0  0  0  0
 56 57  1  0  0  0  0
 58 59  1  0  0  0  0
 59 60  1  1  0  0  0
 61 59  1  0  0  0  0
 62 61  1  0  0  0  0
 63 62  1  0  0  0  0
 64 65  1  6  0  0  0
 64 63  1  0  0  0  0
 66 65  1  0  0  0  0
 67 64  1  0  0  0  0
 67 68  1  0  0  0  0
 69 70  1  0  0  0  0
 69 68  1  0  0  0  0
M  END
>  <MODEL>
4

>  <REMARK>
 VINA RESULT:      -3.8      2.614      4.456
  Name = 
  25 active torsions:
  status: ('A' for Active; 'I' for Inactive)
    1  A    between atoms: N_2  and  C_20
    2  A    between atoms: C_3  and  C_44
    3  A    between atoms: C_4  and  C_30
    4  A    between atoms: C_4  and  C_34
    5  A    between atoms: O_6  and  C_38
    6  A    between atoms: C_10  and  O_39
    7  A    between atoms: C_11  and  O_53
    8  A    between atoms: C_11  and  C_59
    9  A    between atoms: C_12  and  C_67
   10  A    between atoms: C_14  and  C_30
   11  A    between atoms: C_14  and  C_40
   12  A    between atoms: C_20  and  C_50
   13  A    between atoms: C_21  and  C_23
   14  A    between atoms: C_21  and  C_60
   15  A    between atoms: C_25  and  C_50
   16  A    between atoms: C_26  and  N_55
   17  A    between atoms: C_34  and  C_58
   18  A    between atoms: C_38  and  C_40
   19  A    between atoms: C_38  and  C_60
   20  A    between atoms: O_39  and  O_53
   21  A    between atoms: O_47  and  C_58
   22  A    between atoms: O_47  and  C_67
   23  A    between atoms: C_49  and  N_55
   24  A    between atoms: C_49  and  C_67
   25  A    between atoms: C_57  and  C_66
                            x       y       z     vdW  Elec       q    Type
                         _______ _______ _______ _____ _____    ______ ____

>  <TORSDO>
F 25

$$$$
=
 OpenBabel11062415213D

 70 77  0  0  1  0  0  0  0  0999 V2000
  184.2740  178.8400  140.2330 N   0  0  0  0  0  0  0  0  0  0  0  0
  183.1320  176.6430  139.8220 C   0  0  0  0  0  2  0  0  0  0  0  0
  184.0330  177.4810  140.7500 C   0  0  0  0  0  2  0  0  0  0  0  0
  184.6290  178.8010  138.8190 C   0  0  0  0  0  2  0  0  0  0  0  0
  182.4140  177.5060  138.7800 C   0  0  2  0  0  3  0  0  0  0  0  0
  183.4390  178.3280  137.9670 C   0  0  2  0  0  3  0  0  0  0  0  0
  180.9830  178.7130  141.6000 C   0  0  0  0  0  0  0  0  0  0  0  0
  180.8100  179.7490  142.6800 C   0  0  0  0  0  2  0  0  0  0  0  0
  178.9710  177.9400  138.9970 C   0  0  0  0  0  1  0  0  0  0  0  0
  181.9210  178.9910  140.6070 O   0  0  0  0  0  0  0  0  0  0  0  0
  180.1420  177.6200  139.9080 C   0  0  2  0  0  3  0  0  0  0  0  0
  179.8440  178.0050  141.2160 O   0  0  0  0  0  0  0  0  0  0  0  0
  181.5250  178.4270  142.9760 C   0  0  0  0  0  2  0  0  0  0  0  0
  181.3700  178.3970  139.4680 C   0  0  2  0  0  3  0  0  0  0  0  0
  182.9910  176.6150  135.9810 C   0  0  2  0  0  3  0  0  0  0  0  0
  183.9410  177.5330  136.7540 C   0  0  1  0  0  0  0  0  0  0  0  0
  183.4110  177.9610  135.3920 C   0  0  0  0  0  2  0  0  0  0  0  0
  180.5890  176.9870  135.3250 C   0  0  1  0  0  3  0  0  0  0  0  0
  180.8380  174.2120  136.2020 C   0  0  0  0  0  2  0  0  0  0  0  0
  179.3310  176.1170  135.2870 C   0  0  0  0  0  2  0  0  0  0  0  0
  180.2260  178.3330  135.3850 O   0  0  0  0  0  1  0  0  0  0  0  0
  178.9340  173.7040  134.6020 S   0  0  0  0  0  0  0  0  0  0  0  0
  179.7170  174.6690  135.3170 C   0  0  0  0  0  0  0  0  0  0  0  0
  181.2280  175.3180  137.1830 C   0  0  0  0  0  2  0  0  0  0  0  0
  181.5510  176.6500  136.4840 C   0  0  1  0  0  3  0  0  0  0  0  0
  185.2450  177.0130  136.7940 O   0  0  0  0  0  0  0  0  0  0  0  0
  185.1290  175.7130  137.0110 O   0  0  0  0  0  0  0  0  0  0  0  0
  186.5790  172.2440  135.1560 C   0  0  0  0  0  2  0  0  0  0  0  0
  185.7680  175.0520  135.9430 C   0  0  2  0  0  3  0  0  0  0  0  0
  189.1740  175.4590  135.4400 O   0  0  0  0  0  0  0  0  0  0  0  0
  189.0030  173.0280  135.3550 C   0  0  0  0  0  2  0  0  0  0  0  0
  189.8770  174.2540  135.6560 C   0  0  0  0  0  2  0  0  0  0  0  0
  187.5350  173.4380  135.2350 C   0  0  2  0  0  3  0  0  0  0  0  0
  184.8320  174.1120  135.1500 C   0  0  0  0  0  2  0  0  0  0  0  0
  187.0390  173.7850  137.5450 F   0  0  0  0  0  0  0  0  0  0  0  0
  187.1300  174.4430  136.3280 C   0  0  2  0  0  0  0  0  0  0  0  0
  188.1970  175.5480  136.4550 C   0  0  0  0  0  2  0  0  0  0  0  0
  185.1230  172.6350  135.4540 C   0  0  0  0  0  2  0  0  0  0  0  0
  185.3230  179.5680  140.9640 C   0  0  0  0  0  2  0  0  0  0  0  0
  186.1810  178.7220  141.9200 C   0  0  0  0  0  2  0  0  0  0  0  0
  187.7130  178.9560  140.1170 O   0  0  0  0  0  1  0  0  0  0  0  0
  189.2220  177.1580  142.0480 C   0  0  1  0  0  0  0  0  0  0  0  0
  187.6130  178.5050  141.4350 C   0  0  2  0  0  0  0  0  0  0  0  0
  187.9440  177.1550  141.4880 O   0  0  0  0  0  0  0  0  0  0  0  0
  189.6310  178.4990  142.1640 O   0  0  0  0  0  0  0  0  0  0  0  0
  188.5150  179.2040  142.2310 O   0  0  0  0  0  0  0  0  0  0  0  0
  188.6470  175.2190  143.3730 O   0  0  0  0  0  1  0  0  0  0  0  0
  189.1900  176.5050  143.4570 C   0  0  2  0  0  3  0  0  0  0  0  0
  188.5630  177.3030  144.6480 C   0  0  2  0  0  0  0  0  0  0  0  0
  188.9370  178.6600  144.5880 O   0  0  0  0  0  1  0  0  0  0  0  0
  189.0300  176.7100  146.0030 C   0  0  2  0  0  3  0  0  0  0  0  0
  188.6250  177.5280  147.0640 O   0  0  0  0  0  1  0  0  0  0  0  0
  190.5430  176.5010  146.0930 C   0  0  0  0  0  2  0  0  0  0  0  0
  191.1090  177.1580  147.3460 C   0  0  0  0  0  2  0  0  0  0  0  0
  192.2000  176.4220  147.8170 O   0  0  0  0  0  1  0  0  0  0  0  0
  187.1440  177.1540  144.5980 O   0  0  0  0  0  0  0  0  0  0  0  0
  186.4960  178.2950  145.1100 C   0  0  0  0  0  1  0  0  0  0  0  0
  190.1700  176.4240  141.0890 C   0  0  0  0  0  2  0  0  0  0  0  0
  191.2420  177.3340  140.5020 C   0  0  1  0  0  3  0  0  0  0  0  0
  192.4060  177.1840  141.2370 F   0  0  0  0  0  0  0  0  0  0  0  0
  191.4860  176.9450  139.0470 C   0  0  0  0  0  2  0  0  0  0  0  0
  192.5980  175.9150  138.9340 C   0  0  0  0  0  2  0  0  0  0  0  0
  193.4630  176.2530  137.8920 O   0  0  0  0  0  0  0  0  0  0  0  0
  194.0840  175.0560  137.5220 C   0  0  1  0  0  3  0  0  0  0  0  0
  193.4610  174.5260  136.2360 C   0  0  0  0  0  2  0  0  0  0  0  0
  193.9060  173.2270  135.9740 O   0  0  0  0  0  1  0  0  0  0  0  0
  195.5740  175.2820  137.3220 C   0  0  0  0  0  2  0  0  0  0  0  0
  196.0800  174.3940  136.2830 N   0  0  0  0  0  2  0  0  0  0  0  0
  197.2140  175.0560  135.6610 C   0  0  0  0  0  2  0  0  0  0  0  0
  197.7370  176.0150  136.5310 O   0  0  0  0  0  1  0  0  0  0  0  0
  1  3  1  0  0  0  0
  1 39  1  0  0  0  0
  2  3  1  0  0  0  0
  4  1  1  0  0  0  0
  5 14  1  0  0  0  0
  5  2  1  1  0  0  0
  6  5  1  0  0  0  0
  6  4  1  1  0  0  0
  7  8  1  0  0  0  0
  7 13  1  0  0  0  0
  8 13  1  0  0  0  0
 10  7  1  0  0  0  0
 11  9  1  6  0  0  0
 11 12  1  0  0  0  0
 12  7  1  0  0  0  0
 14 11  1  0  0  0  0
 14 10  1  1  0  0  0
 15 17  1  6  0  0  0
 15 25  1  0  0  0  0
 15 16  1  0  0  0  0
 16 26  1  1  0  0  0
 16  6  1  0  0  0  0
 17 16  1  0  0  0  0
 18 21  1  1  0  0  0
 18 25  1  0  0  0  0
 19 24  1  0  0  0  0
 20 23  1  0  0  0  0
 20 18  1  0  0  0  0
 22 23  2  0  0  0  0
 23 19  1  0  0  0  0
 25 24  1  6  0  0  0
 26 27  1  0  0  0  0
 28 38  1  0  0  0  0
 29 36  1  0  0  0  0
 29 27  1  1  0  0  0
 30 32  1  0  0  0  0
 30 37  1  0  0  0  0
 31 32  1  0  0  0  0
 33 28  1  1  0  0  0
 33 31  1  0  0  0  0
 33 36  1  0  0  0  0
 34 38  1  0  0  0  0
 34 29  1  0  0  0  0
 36 37  1  0  0  0  0
 36 35  1  1  0  0  0
 39 40  1  0  0  0  0
 42 58  1  6  0  0  0
 42 45  1  0  0  0  0
 42 48  1  0  0  0  0
 43 41  1  6  0  0  0
 43 44  1  0  0  0  0
 43 40  1  0  0  0  0
 43 46  1  0  0  0  0
 44 42  1  0  0  0  0
 45 46  1  0  0  0  0
 48 47  1  6  0  0  0
 48 49  1  0  0  0  0
 49 50  1  6  0  0  0
 49 51  1  0  0  0  0
 51 53  1  0  0  0  0
 51 52  1  1  0  0  0
 53 54  1  0  0  0  0
 54 55  1  0  0  0  0
 56 49  1  0  0  0  0
 56 57  1  0  0  0  0
 59 58  1  0  0  0  0
 59 60  1  1  0  0  0
 61 59  1  0  0  0  0
 62 61  1  0  0  0  0
 63 62  1  0  0  0  0
 64 65  1  6  0  0  0
 64 63  1  0  0  0  0
 66 65  1  0  0  0  0
 67 64  1  0  0  0  0
 68 67  1  0  0  0  0
 69 68  1  0  0  0  0
 69 70  1  0  0  0  0
M  END
>  <MODEL>
5

>  <REMARK>
 VINA RESULT:      -3.6      2.634      4.267
  Name = 
  25 active torsions:
  status: ('A' for Active; 'I' for Inactive)
    1  A    between atoms: N_2  and  C_20
    2  A    between atoms: C_3  and  C_44
    3  A    between atoms: C_4  and  C_30
    4  A    between atoms: C_4  and  C_34
    5  A    between atoms: O_6  and  C_38
    6  A    between atoms: C_10  and  O_39
    7  A    between atoms: C_11  and  O_53
    8  A    between atoms: C_11  and  C_59
    9  A    between atoms: C_12  and  C_67
   10  A    between atoms: C_14  and  C_30
   11  A    between atoms: C_14  and  C_40
   12  A    between atoms: C_20  and  C_50
   13  A    between atoms: C_21  and  C_23
   14  A    between atoms: C_21  and  C_60
   15  A    between atoms: C_25  and  C_50
   16  A    between atoms: C_26  and  N_55
   17  A    between atoms: C_34  and  C_58
   18  A    between atoms: C_38  and  C_40
   19  A    between atoms: C_38  and  C_60
   20  A    between atoms: O_39  and  O_53
   21  A    between atoms: O_47  and  C_58
   22  A    between atoms: O_47  and  C_67
   23  A    between atoms: C_49  and  N_55
   24  A    between atoms: C_49  and  C_67
   25  A    between atoms: C_57  and  C_66
                            x       y       z     vdW  Elec       q    Type
                         _______ _______ _______ _____ _____    ______ ____

>  <TORSDO>
F 25

$$$$
=
 OpenBabel11062415213D

 70 77  0  0  1  0  0  0  0  0999 V2000
  183.5370  177.9740  140.7600 N   0  0  0  0  0  0  0  0  0  0  0  0
  181.1350  177.3870  140.3330 C   0  0  0  0  0  2  0  0  0  0  0  0
  182.4620  176.9990  141.0130 C   0  0  0  0  0  2  0  0  0  0  0  0
  183.5930  178.3290  139.3460 C   0  0  0  0  0  2  0  0  0  0  0  0
  181.1320  178.8440  139.8610 C   0  0  2  0  0  3  0  0  0  0  0  0
  182.3340  179.1060  138.9260 C   0  0  2  0  0  3  0  0  0  0  0  0
  181.4500  179.3480  143.1930 C   0  0  0  0  0  0  0  0  0  0  0  0
  182.2280  179.7320  144.4240 C   0  0  0  0  0  2  0  0  0  0  0  0
  179.0250  181.0340  141.5490 C   0  0  0  0  0  1  0  0  0  0  0  0
  182.1240  179.4190  141.9750 O   0  0  0  0  0  0  0  0  0  0  0  0
  179.8020  179.7600  141.8210 C   0  0  2  0  0  3  0  0  0  0  0  0
  180.0900  179.6610  143.1830 O   0  0  0  0  0  0  0  0  0  0  0  0
  181.8880  178.2650  144.1430 C   0  0  0  0  0  2  0  0  0  0  0  0
  181.1230  179.7880  141.0720 C   0  0  2  0  0  3  0  0  0  0  0  0
  180.9340  179.6190  136.7210 C   0  0  2  0  0  3  0  0  0  0  0  0
  181.9750  178.7820  137.4680 C   0  0  1  0  0  0  0  0  0  0  0  0
  182.4220  179.7890  136.4170 C   0  0  0  0  0  2  0  0  0  0  0  0
  181.4120  181.9540  137.5360 C   0  0  1  0  0  3  0  0  0  0  0  0
  179.1070  182.1030  135.7470 C   0  0  0  0  0  2  0  0  0  0  0  0
  180.7910  183.3310  137.2950 C   0  0  0  0  0  2  0  0  0  0  0  0
  182.1140  181.9600  138.7410 O   0  0  0  0  0  1  0  0  0  0  0  0
  179.8800  184.4600  135.2100 S   0  0  0  0  0  0  0  0  0  0  0  0
  179.9600  183.2990  136.0470 C   0  0  0  0  0  0  0  0  0  0  0  0
  179.0130  181.1940  136.9730 C   0  0  0  0  0  2  0  0  0  0  0  0
  180.3910  180.7950  137.5280 C   0  0  1  0  0  3  0  0  0  0  0  0
  181.9320  177.4340  137.0790 O   0  0  0  0  0  0  0  0  0  0  0  0
  183.1360  176.9340  137.3070 O   0  0  0  0  0  0  0  0  0  0  0  0
  182.8330  173.2730  135.2870 C   0  0  0  0  0  2  0  0  0  0  0  0
  183.0150  175.5310  137.2960 C   0  0  2  0  0  3  0  0  0  0  0  0
  180.0320  174.0380  138.2400 O   0  0  0  0  0  0  0  0  0  0  0  0
  180.4520  172.8880  136.1310 C   0  0  0  0  0  2  0  0  0  0  0  0
  179.4170  173.3770  137.1550 C   0  0  0  0  0  2  0  0  0  0  0  0
  181.8100  173.5390  136.3950 C   0  0  2  0  0  3  0  0  0  0  0  0
  184.2660  174.8080  136.7480 C   0  0  0  0  0  2  0  0  0  0  0  0
  181.3590  175.7310  135.5630 F   0  0  0  0  0  0  0  0  0  0  0  0
  181.6740  175.0370  136.7210 C   0  0  2  0  0  0  0  0  0  0  0  0
  180.5380  175.2580  137.7400 C   0  0  0  0  0  2  0  0  0  0  0  0
  184.0230  174.2430  135.3400 C   0  0  0  0  0  2  0  0  0  0  0  0
  184.8670  177.5040  141.1820 C   0  0  0  0  0  2  0  0  0  0  0  0
  185.9270  178.5980  141.3900 C   0  0  0  0  0  2  0  0  0  0  0  0
  187.0990  177.7070  139.5250 O   0  0  0  0  0  1  0  0  0  0  0  0
  189.2550  177.8520  141.6630 C   0  0  1  0  0  0  0  0  0  0  0  0
  187.2900  178.2580  140.7940 C   0  0  2  0  0  0  0  0  0  0  0  0
  187.9580  177.3420  141.6000 O   0  0  0  0  0  0  0  0  0  0  0  0
  189.3210  178.9500  140.7870 O   0  0  0  0  0  0  0  0  0  0  0  0
  188.0820  179.3980  140.6870 O   0  0  0  0  0  0  0  0  0  0  0  0
  190.7110  179.1410  143.1010 O   0  0  0  0  0  1  0  0  0  0  0  0
  189.5750  178.3240  143.1070 C   0  0  2  0  0  3  0  0  0  0  0  0
  189.6550  177.2590  144.2520 C   0  0  2  0  0  0  0  0  0  0  0  0
  189.5810  175.9550  143.7230 O   0  0  0  0  0  1  0  0  0  0  0  0
  188.4940  177.4600  145.2610 C   0  0  2  0  0  3  0  0  0  0  0  0
  188.8100  176.8830  146.4960 O   0  0  0  0  0  1  0  0  0  0  0  0
  187.1570  176.8900  144.7800 C   0  0  0  0  0  2  0  0  0  0  0  0
  185.9910  177.5740  145.4830 C   0  0  0  0  0  2  0  0  0  0  0  0
  186.2700  178.9320  145.6550 O   0  0  0  0  0  1  0  0  0  0  0  0
  190.8690  177.4580  144.9740 O   0  0  0  0  0  0  0  0  0  0  0  0
  191.5820  176.2510  145.1110 C   0  0  0  0  0  1  0  0  0  0  0  0
  190.2250  176.7640  141.1790 C   0  0  0  0  0  2  0  0  0  0  0  0
  190.5610  176.8830  139.6980 C   0  0  1  0  0  3  0  0  0  0  0  0
  191.8970  176.5680  139.5170 F   0  0  0  0  0  0  0  0  0  0  0  0
  189.6820  175.9210  138.9060 C   0  0  0  0  0  2  0  0  0  0  0  0
  190.3800  175.4580  137.6380 C   0  0  0  0  0  2  0  0  0  0  0  0
  191.5390  174.7480  137.9580 O   0  0  0  0  0  0  0  0  0  0  0  0
  191.9330  174.1260  136.7690 C   0  0  1  0  0  3  0  0  0  0  0  0
  192.5410  175.1570  135.8250 C   0  0  0  0  0  2  0  0  0  0  0  0
  191.8710  175.1530  134.5980 O   0  0  0  0  0  1  0  0  0  0  0  0
  192.9460  173.0320  137.0640 C   0  0  0  0  0  2  0  0  0  0  0  0
  194.2540  173.6170  137.3270 N   0  0  0  0  0  2  0  0  0  0  0  0
  195.0730  172.5880  137.9440 C   0  0  0  0  0  2  0  0  0  0  0  0
  196.0650  173.1810  138.7280 O   0  0  0  0  0  1  0  0  0  0  0  0
  1  3  1  0  0  0  0
  1 39  1  0  0  0  0
  2  3  1  0  0  0  0
  4  1  1  0  0  0  0
  5  2  1  1  0  0  0
  5 14  1  0  0  0  0
  6  4  1  1  0  0  0
  6  5  1  0  0  0  0
  7 13  1  0  0  0  0
  7  8  1  0  0  0  0
 10  7  1  0  0  0  0
 11  9  1  1  0  0  0
 11 12  1  0  0  0  0
 12  7  1  0  0  0  0
 13  8  1  0  0  0  0
 14 11  1  0  0  0  0
 14 10  1  1  0  0  0
 15 17  1  6  0  0  0
 15 16  1  0  0  0  0
 15 25  1  0  0  0  0
 16 26  1  6  0  0  0
 16  6  1  0  0  0  0
 17 16  1  0  0  0  0
 18 21  1  1  0  0  0
 19 23  1  0  0  0  0
 19 24  1  0  0  0  0
 20 18  1  0  0  0  0
 22 23  2  0  0  0  0
 23 20  1  0  0  0  0
 25 24  1  6  0  0  0
 25 18  1  0  0  0  0
 26 27  1  0  0  0  0
 28 38  1  0  0  0  0
 29 27  1  6  0  0  0
 31 33  1  0  0  0  0
 31 32  1  0  0  0  0
 32 30  1  0  0  0  0
 33 28  1  6  0  0  0
 33 36  1  0  0  0  0
 34 29  1  0  0  0  0
 36 35  1  6  0  0  0
 36 29  1  0  0  0  0
 36 37  1  0  0  0  0
 37 30  1  0  0  0  0
 38 34  1  0  0  0  0
 39 40  1  0  0  0  0
 42 58  1  6  0  0  0
 42 48  1  0  0  0  0
 43 41  1  6  0  0  0
 43 40  1  0  0  0  0
 43 44  1  0  0  0  0
 44 42  1  0  0  0  0
 45 42  1  0  0  0  0
 46 45  1  0  0  0  0
 46 43  1  0  0  0  0
 48 47  1  6  0  0  0
 48 49  1  0  0  0  0
 49 50  1  6  0  0  0
 49 56  1  0  0  0  0
 49 51  1  0  0  0  0
 51 52  1  1  0  0  0
 53 51  1  0  0  0  0
 53 54  1  0  0  0  0
 54 55  1  0  0  0  0
 56 57  1  0  0  0  0
 59 60  1  1  0  0  0
 59 58  1  0  0  0  0
 61 59  1  0  0  0  0
 62 63  1  0  0  0  0
 62 61  1  0  0  0  0
 64 65  1  6  0  0  0
 64 67  1  0  0  0  0
 64 63  1  0  0  0  0
 66 65  1  0  0  0  0
 67 68  1  0  0  0  0
 68 69  1  0  0  0  0
 69 70  1  0  0  0  0
M  END
>  <MODEL>
6

>  <REMARK>
 VINA RESULT:      -2.9      1.455      2.127
  Name = 
  25 active torsions:
  status: ('A' for Active; 'I' for Inactive)
    1  A    between atoms: N_2  and  C_20
    2  A    between atoms: C_3  and  C_44
    3  A    between atoms: C_4  and  C_30
    4  A    between atoms: C_4  and  C_34
    5  A    between atoms: O_6  and  C_38
    6  A    between atoms: C_10  and  O_39
    7  A    between atoms: C_11  and  O_53
    8  A    between atoms: C_11  and  C_59
    9  A    between atoms: C_12  and  C_67
   10  A    between atoms: C_14  and  C_30
   11  A    between atoms: C_14  and  C_40
   12  A    between atoms: C_20  and  C_50
   13  A    between atoms: C_21  and  C_23
   14  A    between atoms: C_21  and  C_60
   15  A    between atoms: C_25  and  C_50
   16  A    between atoms: C_26  and  N_55
   17  A    between atoms: C_34  and  C_58
   18  A    between atoms: C_38  and  C_40
   19  A    between atoms: C_38  and  C_60
   20  A    between atoms: O_39  and  O_53
   21  A    between atoms: O_47  and  C_58
   22  A    between atoms: O_47  and  C_67
   23  A    between atoms: C_49  and  N_55
   24  A    between atoms: C_49  and  C_67
   25  A    between atoms: C_57  and  C_66
                            x       y       z     vdW  Elec       q    Type
                         _______ _______ _______ _____ _____    ______ ____

>  <TORSDO>
F 25

$$$$
=
 OpenBabel11062415213D

 70 77  0  0  1  0  0  0  0  0999 V2000
  190.8690  176.3960  141.4210 N   0  0  0  0  0  0  0  0  0  0  0  0
  188.9320  175.7720  142.8900 C   0  0  0  0  0  2  0  0  0  0  0  0
  190.1340  175.2880  142.0570 C   0  0  0  0  0  2  0  0  0  0  0  0
  189.9470  177.3280  140.7800 C   0  0  0  0  0  2  0  0  0  0  0  0
  188.9840  177.2790  143.1590 C   0  0  2  0  0  3  0  0  0  0  0  0
  189.0880  178.0570  141.8280 C   0  0  2  0  0  3  0  0  0  0  0  0
  190.2150  177.5560  146.3000 C   0  0  0  0  0  0  0  0  0  0  0  0
  190.9680  177.0370  147.4970 C   0  0  0  0  0  2  0  0  0  0  0  0
  191.1060  179.8930  144.0260 C   0  0  0  0  0  1  0  0  0  0  0  0
  190.1400  176.7140  145.1910 O   0  0  0  0  0  0  0  0  0  0  0  0
  190.0590  179.0080  144.6770 C   0  0  2  0  0  3  0  0  0  0  0  0
  190.2940  178.9270  146.0500 O   0  0  0  0  0  0  0  0  0  0  0  0
  189.4390  177.1340  147.5200 C   0  0  0  0  0  2  0  0  0  0  0  0
  190.1450  177.6010  144.1110 C   0  0  2  0  0  3  0  0  0  0  0  0
  187.4580  178.3350  139.7430 C   0  0  2  0  0  3  0  0  0  0  0  0
  187.6950  178.3520  141.2550 C   0  0  1  0  0  0  0  0  0  0  0  0
  186.9600  177.1820  140.6130 C   0  0  0  0  0  2  0  0  0  0  0  0
  188.4010  176.6330  138.1450 C   0  0  1  0  0  3  0  0  0  0  0  0
  188.2960  179.1920  136.7400 C   0  0  0  0  0  2  0  0  0  0  0  0
  188.8850  176.6640  136.6940 C   0  0  0  0  0  2  0  0  0  0  0  0
  188.9710  175.5450  138.8060 O   0  0  0  0  0  1  0  0  0  0  0  0
  188.0050  177.8320  134.6170 S   0  0  0  0  0  0  0  0  0  0  0  0
  188.3480  177.8850  136.0080 C   0  0  0  0  0  0  0  0  0  0  0  0
  189.1060  179.1120  138.0350 C   0  0  0  0  0  2  0  0  0  0  0  0
  188.6840  177.9330  138.9290 C   0  0  1  0  0  3  0  0  0  0  0  0
  186.9070  179.3240  141.8920 O   0  0  0  0  0  0  0  0  0  0  0  0
  186.1460  178.6840  142.7650 O   0  0  0  0  0  0  0  0  0  0  0  0
  182.0980  178.8980  143.8380 C   0  0  0  0  0  2  0  0  0  0  0  0
  184.9120  179.3600  142.8190 C   0  0  2  0  0  3  0  0  0  0  0  0
  183.0670  179.8410  139.9230 O   0  0  0  0  0  0  0  0  0  0  0  0
  181.3480  178.9340  141.3950 C   0  0  0  0  0  2  0  0  0  0  0  0
  181.8530  179.1230  139.9570 C   0  0  0  0  0  2  0  0  0  0  0  0
  182.4530  179.2720  142.3950 C   0  0  2  0  0  3  0  0  0  0  0  0
  184.4780  179.7400  144.2530 C   0  0  0  0  0  2  0  0  0  0  0  0
  183.8170  177.3290  142.1410 F   0  0  0  0  0  0  0  0  0  0  0  0
  183.8150  178.7030  141.9590 C   0  0  2  0  0  0  0  0  0  0  0  0
  184.0580  178.9930  140.4640 C   0  0  0  0  0  2  0  0  0  0  0  0
  183.3320  178.8480  144.7530 C   0  0  0  0  0  2  0  0  0  0  0  0
  191.8570  175.9490  140.4260 C   0  0  0  0  0  2  0  0  0  0  0  0
  192.5570  177.0660  139.6320 C   0  0  0  0  0  2  0  0  0  0  0  0
  191.7060  177.2530  137.4210 O   0  0  0  0  0  1  0  0  0  0  0  0
  193.9170  175.1890  137.1150 C   0  0  1  0  0  0  0  0  0  0  0  0
  192.7720  176.7330  138.1580 C   0  0  2  0  0  0  0  0  0  0  0  0
  192.8310  175.3540  137.9750 O   0  0  0  0  0  0  0  0  0  0  0  0
  194.3480  176.4700  136.7270 O   0  0  0  0  0  0  0  0  0  0  0  0
  193.9640  177.2820  137.6960 O   0  0  0  0  0  0  0  0  0  0  0  0
  195.3180  175.0660  139.0830 O   0  0  0  0  0  1  0  0  0  0  0  0
  195.0730  174.4550  137.8480 C   0  0  2  0  0  3  0  0  0  0  0  0
  196.4090  174.1890  137.0780 C   0  0  2  0  0  0  0  0  0  0  0  0
  196.2140  174.3060  135.6880 O   0  0  0  0  0  1  0  0  0  0  0  0
  196.9420  172.7660  137.3950 C   0  0  2  0  0  3  0  0  0  0  0  0
  198.3390  172.7710  137.4760 O   0  0  0  0  0  1  0  0  0  0  0  0
  196.5120  171.7090  136.3750 C   0  0  0  0  0  2  0  0  0  0  0  0
  196.8600  170.3090  136.8650 C   0  0  0  0  0  2  0  0  0  0  0  0
  196.0240  169.9560  137.9280 O   0  0  0  0  0  1  0  0  0  0  0  0
  197.3930  175.1110  137.5430 O   0  0  0  0  0  0  0  0  0  0  0  0
  198.0450  174.6220  138.6920 C   0  0  0  0  0  1  0  0  0  0  0  0
  193.4370  174.4230  135.8750 C   0  0  0  0  0  2  0  0  0  0  0  0
  191.9500  174.0930  135.9190 C   0  0  1  0  0  3  0  0  0  0  0  0
  191.3370  174.6490  134.8080 F   0  0  0  0  0  0  0  0  0  0  0  0
  191.7720  172.5790  135.9140 C   0  0  0  0  0  2  0  0  0  0  0  0
  190.6820  172.1570  134.9420 C   0  0  0  0  0  2  0  0  0  0  0  0
  189.4620  172.0400  135.6090 O   0  0  0  0  0  0  0  0  0  0  0  0
  188.4840  172.2640  134.6350 C   0  0  1  0  0  3  0  0  0  0  0  0
  187.5160  171.0870  134.5940 C   0  0  0  0  0  2  0  0  0  0  0  0
  187.8540  170.1400  135.5630 O   0  0  0  0  0  1  0  0  0  0  0  0
  187.7280  173.5470  134.9410 C   0  0  0  0  0  2  0  0  0  0  0  0
  186.3630  173.2390  135.3470 N   0  0  0  0  0  2  0  0  0  0  0  0
  186.2560  173.5310  136.7660 C   0  0  0  0  0  2  0  0  0  0  0  0
  185.5510  174.7230  136.9520 O   0  0  0  0  0  1  0  0  0  0  0  0
  1  3  1  0  0  0  0
  3  2  1  0  0  0  0
  4  1  1  0  0  0  0
  5  2  1  6  0  0  0
  5 14  1  0  0  0  0
  6  4  1  6  0  0  0
  6  5  1  0  0  0  0
  7  8  1  0  0  0  0
  7 13  1  0  0  0  0
  8 13  1  0  0  0  0
 10  7  1  0  0  0  0
 11  9  1  6  0  0  0
 11 12  1  0  0  0  0
 12  7  1  0  0  0  0
 14 11  1  0  0  0  0
 14 10  1  1  0  0  0
 15 17  1  1  0  0  0
 15 16  1  0  0  0  0
 16  6  1  0  0  0  0
 16 26  1  1  0  0  0
 17 16  1  0  0  0  0
 18 21  1  1  0  0  0
 18 25  1  0  0  0  0
 19 24  1  0  0  0  0
 20 18  1  0  0  0  0
 22 23  2  0  0  0  0
 23 20  1  0  0  0  0
 23 19  1  0  0  0  0
 25 24  1  6  0  0  0
 25 15  1  0  0  0  0
 26 27  1  0  0  0  0
 28 38  1  0  0  0  0
 29 27  1  1  0  0  0
 29 34  1  0  0  0  0
 30 32  1  0  0  0  0
 30 37  1  0  0  0  0
 32 31  1  0  0  0  0
 33 31  1  6  0  0  0
 33 28  1  0  0  0  0
 34 38  1  0  0  0  0
 36 35  1  1  0  0  0
 36 33  1  0  0  0  0
 36 29  1  0  0  0  0
 37 36  1  0  0  0  0
 39  1  1  0  0  0  0
 40 39  1  0  0  0  0
 42 58  1  6  0  0  0
 42 48  1  0  0  0  0
 42 44  1  0  0  0  0
 43 41  1  6  0  0  0
 43 40  1  0  0  0  0
 44 43  1  0  0  0  0
 45 42  1  0  0  0  0
 45 46  1  0  0  0  0
 46 43  1  0  0  0  0
 48 47  1  1  0  0  0
 49 50  1  6  0  0  0
 49 51  1  0  0  0  0
 49 56  1  0  0  0  0
 49 48  1  0  0  0  0
 51 52  1  6  0  0  0
 53 54  1  0  0  0  0
 53 51  1  0  0  0  0
 54 55  1  0  0  0  0
 56 57  1  0  0  0  0
 58 59  1  0  0  0  0
 59 60  1  6  0  0  0
 61 59  1  0  0  0  0
 62 63  1  0  0  0  0
 62 61  1  0  0  0  0
 64 65  1  1  0  0  0
 64 67  1  0  0  0  0
 64 63  1  0  0  0  0
 65 66  1  0  0  0  0
 67 68  1  0  0  0  0
 68 69  1  0  0  0  0
 69 70  1  0  0  0  0
M  END
>  <MODEL>
7

>  <REMARK>
 VINA RESULT:      -2.7      3.428      8.545
  Name = 
  25 active torsions:
  status: ('A' for Active; 'I' for Inactive)
    1  A    between atoms: N_2  and  C_20
    2  A    between atoms: C_3  and  C_44
    3  A    between atoms: C_4  and  C_30
    4  A    between atoms: C_4  and  C_34
    5  A    between atoms: O_6  and  C_38
    6  A    between atoms: C_10  and  O_39
    7  A    between atoms: C_11  and  O_53
    8  A    between atoms: C_11  and  C_59
    9  A    between atoms: C_12  and  C_67
   10  A    between atoms: C_14  and  C_30
   11  A    between atoms: C_14  and  C_40
   12  A    between atoms: C_20  and  C_50
   13  A    between atoms: C_21  and  C_23
   14  A    between atoms: C_21  and  C_60
   15  A    between atoms: C_25  and  C_50
   16  A    between atoms: C_26  and  N_55
   17  A    between atoms: C_34  and  C_58
   18  A    between atoms: C_38  and  C_40
   19  A    between atoms: C_38  and  C_60
   20  A    between atoms: O_39  and  O_53
   21  A    between atoms: O_47  and  C_58
   22  A    between atoms: O_47  and  C_67
   23  A    between atoms: C_49  and  N_55
   24  A    between atoms: C_49  and  C_67
   25  A    between atoms: C_57  and  C_66
                            x       y       z     vdW  Elec       q    Type
                         _______ _______ _______ _____ _____    ______ ____

>  <TORSDO>
F 25

$$$$
=
 OpenBabel11062415213D

 70 77  0  0  1  0  0  0  0  0999 V2000
  184.4450  177.8280  140.9760 N   0  0  0  0  0  0  0  0  0  0  0  0
  185.5150  179.9000  141.9050 C   0  0  0  0  0  2  0  0  0  0  0  0
  184.3680  179.2970  141.0700 C   0  0  0  0  0  2  0  0  0  0  0  0
  185.8020  177.4010  140.6500 C   0  0  0  0  0  2  0  0  0  0  0  0
  186.2520  178.8380  142.7280 C   0  0  2  0  0  3  0  0  0  0  0  0
  186.7670  177.7100  141.8060 C   0  0  2  0  0  3  0  0  0  0  0  0
  183.3010  178.9100  144.3850 C   0  0  0  0  0  0  0  0  0  0  0  0
  181.9030  178.4200  144.6590 C   0  0  0  0  0  2  0  0  0  0  0  0
  186.1320  178.5020  146.1860 C   0  0  0  0  0  1  0  0  0  0  0  0
  184.0140  178.2510  143.3850 O   0  0  0  0  0  0  0  0  0  0  0  0
  185.3530  179.1850  145.0770 C   0  0  2  0  0  3  0  0  0  0  0  0
  184.0310  179.3800  145.4770 O   0  0  0  0  0  0  0  0  0  0  0  0
  182.1350  179.7510  143.9370 C   0  0  0  0  0  2  0  0  0  0  0  0
  185.3350  178.3070  143.8380 C   0  0  2  0  0  3  0  0  0  0  0  0
  189.3210  178.3410  142.2090 C   0  0  2  0  0  3  0  0  0  0  0  0
  188.1610  178.0460  141.2560 C   0  0  1  0  0  0  0  0  0  0  0  0
  189.2490  177.0030  141.4740 C   0  0  0  0  0  2  0  0  0  0  0  0
  188.9150  176.6940  144.0700 C   0  0  1  0  0  3  0  0  0  0  0  0
  191.2650  178.2720  144.7920 C   0  0  0  0  0  2  0  0  0  0  0  0
  189.6030  176.3720  145.3980 C   0  0  0  0  0  2  0  0  0  0  0  0
  187.5910  176.2570  144.1100 O   0  0  0  0  0  1  0  0  0  0  0  0
  192.0480  176.2240  146.0700 S   0  0  0  0  0  0  0  0  0  0  0  0
  190.9980  176.9240  145.3910 C   0  0  0  0  0  0  0  0  0  0  0  0
  189.9510  179.0100  144.5310 C   0  0  0  0  0  2  0  0  0  0  0  0
  188.9630  178.1890  143.6840 C   0  0  1  0  0  3  0  0  0  0  0  0
  188.2440  178.8150  140.0840 O   0  0  0  0  0  0  0  0  0  0  0  0
  189.3880  178.4970  139.5010 O   0  0  0  0  0  0  0  0  0  0  0  0
  190.2010  176.5970  135.8530 C   0  0  0  0  0  2  0  0  0  0  0  0
  189.1000  177.5360  138.5120 C   0  0  2  0  0  3  0  0  0  0  0  0
  186.3280  177.9300  136.4670 O   0  0  0  0  0  0  0  0  0  0  0  0
  188.0470  177.4800  134.7970 C   0  0  0  0  0  2  0  0  0  0  0  0
  186.7020  178.1450  135.1230 C   0  0  0  0  0  2  0  0  0  0  0  0
  188.7610  177.0650  136.0840 C   0  0  2  0  0  3  0  0  0  0  0  0
  190.1640  176.4210  138.4040 C   0  0  0  0  0  2  0  0  0  0  0  0
  189.4930  179.2120  136.8320 F   0  0  0  0  0  0  0  0  0  0  0  0
  188.6640  178.1530  137.1690 C   0  0  2  0  0  0  0  0  0  0  0  0
  187.2190  178.6810  137.2630 C   0  0  0  0  0  2  0  0  0  0  0  0
  191.0300  176.5850  137.1460 C   0  0  0  0  0  2  0  0  0  0  0  0
  183.5190  177.2550  139.9860 C   0  0  0  0  0  2  0  0  0  0  0  0
  183.3160  178.0800  138.7040 C   0  0  0  0  0  2  0  0  0  0  0  0
  183.2890  176.2950  137.1360 O   0  0  0  0  0  1  0  0  0  0  0  0
  180.8750  177.9470  136.3100 C   0  0  1  0  0  0  0  0  0  0  0  0
  182.5200  177.3540  137.6230 C   0  0  2  0  0  0  0  0  0  0  0  0
  182.2160  178.2220  136.5790 O   0  0  0  0  0  0  0  0  0  0  0  0
  180.5020  176.8470  137.1030 O   0  0  0  0  0  0  0  0  0  0  0  0
  181.3250  176.8590  138.1360 O   0  0  0  0  0  0  0  0  0  0  0  0
  178.9490  179.3010  135.7570 O   0  0  0  0  0  1  0  0  0  0  0  0
  179.9940  179.1710  136.6790 C   0  0  2  0  0  3  0  0  0  0  0  0
  180.6850  180.5500  136.9430 C   0  0  2  0  0  0  0  0  0  0  0  0
  182.0180  180.3660  137.3590 O   0  0  0  0  0  1  0  0  0  0  0  0
  179.9200  181.3400  138.0370 C   0  0  2  0  0  3  0  0  0  0  0  0
  180.7810  182.2150  138.7070 O   0  0  0  0  0  1  0  0  0  0  0  0
  179.2280  180.4450  139.0690 C   0  0  0  0  0  2  0  0  0  0  0  0
  180.0720  180.3180  140.3310 C   0  0  0  0  0  2  0  0  0  0  0  0
  180.1100  178.9840  140.7450 O   0  0  0  0  0  1  0  0  0  0  0  0
  180.6180  181.3280  135.7490 O   0  0  0  0  0  0  0  0  0  0  0  0
  180.7200  182.7040  136.0330 C   0  0  0  0  0  1  0  0  0  0  0  0
  180.7490  177.5660  134.8290 C   0  0  0  0  0  2  0  0  0  0  0  0
  180.6150  176.0640  134.6110 C   0  0  1  0  0  3  0  0  0  0  0  0
  181.6560  175.4240  135.2640 F   0  0  0  0  0  0  0  0  0  0  0  0
  179.2770  175.5930  135.1700 C   0  0  0  0  0  2  0  0  0  0  0  0
  179.3370  174.1310  135.5810 C   0  0  0  0  0  2  0  0  0  0  0  0
  180.3670  173.9320  136.5010 O   0  0  0  0  0  0  0  0  0  0  0  0
  180.1660  172.6460  137.0110 C   0  0  1  0  0  3  0  0  0  0  0  0
  178.9340  172.0210  136.3650 C   0  0  0  0  0  2  0  0  0  0  0  0
  179.2870  170.8840  135.6350 O   0  0  0  0  0  1  0  0  0  0  0  0
  181.3870  171.7810  136.7410 C   0  0  0  0  0  2  0  0  0  0  0  0
  182.5820  172.6120  136.6610 N   0  0  0  0  0  2  0  0  0  0  0  0
  183.5440  171.9080  135.8310 C   0  0  0  0  0  2  0  0  0  0  0  0
  182.8980  170.9090  135.1000 O   0  0  0  0  0  1  0  0  0  0  0  0
  1  3  1  0  0  0  0
  3  2  1  0  0  0  0
  4  1  1  0  0  0  0
  5  2  1  6  0  0  0
  5 14  1  0  0  0  0
  6  4  1  6  0  0  0
  6  5  1  0  0  0  0
  7  8  1  0  0  0  0
  7 12  1  0  0  0  0
 10  7  1  0  0  0  0
 11 12  1  0  0  0  0
 11  9  1  1  0  0  0
 13  7  1  0  0  0  0
 13  8  1  0  0  0  0
 14 10  1  6  0  0  0
 14 11  1  0  0  0  0
 15 17  1  6  0  0  0
 15 25  1  0  0  0  0
 16 26  1  6  0  0  0
 16 17  1  0  0  0  0
 16  6  1  0  0  0  0
 16 15  1  0  0  0  0
 18 21  1  1  0  0  0
 18 20  1  0  0  0  0
 19 23  1  0  0  0  0
 23 20  1  0  0  0  0
 23 22  2  0  0  0  0
 24 19  1  0  0  0  0
 25 18  1  0  0  0  0
 25 24  1  1  0  0  0
 27 26  1  0  0  0  0
 28 33  1  0  0  0  0
 28 38  1  0  0  0  0
 29 27  1  1  0  0  0
 30 37  1  0  0  0  0
 31 32  1  0  0  0  0
 32 30  1  0  0  0  0
 33 31  1  6  0  0  0
 33 36  1  0  0  0  0
 34 29  1  0  0  0  0
 36 35  1  6  0  0  0
 36 37  1  0  0  0  0
 36 29  1  0  0  0  0
 38 34  1  0  0  0  0
 39  1  1  0  0  0  0
 40 39  1  0  0  0  0
 42 58  1  6  0  0  0
 42 44  1  0  0  0  0
 42 48  1  0  0  0  0
 42 45  1  0  0  0  0
 43 41  1  6  0  0  0
 43 46  1  0  0  0  0
 43 40  1  0  0  0  0
 44 43  1  0  0  0  0
 45 46  1  0  0  0  0
 48 47  1  6  0  0  0
 48 49  1  0  0  0  0
 49 50  1  1  0  0  0
 49 51  1  0  0  0  0
 51 52  1  1  0  0  0
 51 53  1  0  0  0  0
 53 54  1  0  0  0  0
 54 55  1  0  0  0  0
 56 57  1  0  0  0  0
 56 49  1  0  0  0  0
 59 58  1  0  0  0  0
 59 61  1  0  0  0  0
 59 60  1  1  0  0  0
 61 62  1  0  0  0  0
 62 63  1  0  0  0  0
 63 64  1  0  0  0  0
 64 65  1  6  0  0  0
 66 65  1  0  0  0  0
 67 64  1  0  0  0  0
 68 67  1  0  0  0  0
 69 68  1  0  0  0  0
 70 69  1  0  0  0  0
M  END
>  <MODEL>
8

>  <REMARK>
 VINA RESULT:      -2.6      3.340      9.539
  Name = 
  25 active torsions:
  status: ('A' for Active; 'I' for Inactive)
    1  A    between atoms: N_2  and  C_20
    2  A    between atoms: C_3  and  C_44
    3  A    between atoms: C_4  and  C_30
    4  A    between atoms: C_4  and  C_34
    5  A    between atoms: O_6  and  C_38
    6  A    between atoms: C_10  and  O_39
    7  A    between atoms: C_11  and  O_53
    8  A    between atoms: C_11  and  C_59
    9  A    between atoms: C_12  and  C_67
   10  A    between atoms: C_14  and  C_30
   11  A    between atoms: C_14  and  C_40
   12  A    between atoms: C_20  and  C_50
   13  A    between atoms: C_21  and  C_23
   14  A    between atoms: C_21  and  C_60
   15  A    between atoms: C_25  and  C_50
   16  A    between atoms: C_26  and  N_55
   17  A    between atoms: C_34  and  C_58
   18  A    between atoms: C_38  and  C_40
   19  A    between atoms: C_38  and  C_60
   20  A    between atoms: O_39  and  O_53
   21  A    between atoms: O_47  and  C_58
   22  A    between atoms: O_47  and  C_67
   23  A    between atoms: C_49  and  N_55
   24  A    between atoms: C_49  and  C_67
   25  A    between atoms: C_57  and  C_66
                            x       y       z     vdW  Elec       q    Type
                         _______ _______ _______ _____ _____    ______ ____

>  <TORSDO>
F 25

$$$$
=
 OpenBabel11062415213D

 70 77  0  0  1  0  0  0  0  0999 V2000
  185.7400  177.8350  138.9150 N   0  0  0  0  0  0  0  0  0  0  0  0
  185.9450  177.5210  136.4330 C   0  0  0  0  0  2  0  0  0  0  0  0
  186.4360  178.2660  137.6890 C   0  0  0  0  0  2  0  0  0  0  0  0
  184.2990  177.7750  138.6980 C   0  0  0  0  0  2  0  0  0  0  0  0
  185.1220  176.2770  136.7840 C   0  0  2  0  0  3  0  0  0  0  0  0
  183.9400  176.6580  137.7030 C   0  0  2  0  0  3  0  0  0  0  0  0
  188.0210  174.5290  136.8140 C   0  0  0  0  0  0  0  0  0  0  0  0
  189.4290  174.2730  137.2840 C   0  0  0  0  0  2  0  0  0  0  0  0
  185.1590  172.8850  137.5430 C   0  0  0  0  0  1  0  0  0  0  0  0
  187.3620  175.6250  137.3690 O   0  0  0  0  0  0  0  0  0  0  0  0
  185.9420  173.8750  136.7000 C   0  0  2  0  0  3  0  0  0  0  0  0
  187.2440  173.4110  136.5090 O   0  0  0  0  0  0  0  0  0  0  0  0
  189.1650  174.8320  135.8830 C   0  0  0  0  0  2  0  0  0  0  0  0
  186.0280  175.2110  137.4160 C   0  0  2  0  0  3  0  0  0  0  0  0
  181.6810  176.0140  136.4530 C   0  0  2  0  0  3  0  0  0  0  0  0
  182.7110  177.0630  136.8750 C   0  0  1  0  0  0  0  0  0  0  0  0
  181.3630  176.9950  137.5800 C   0  0  0  0  0  2  0  0  0  0  0  0
  180.8090  174.1490  137.9030 C   0  0  1  0  0  3  0  0  0  0  0  0
  180.9600  173.1360  135.1670 C   0  0  0  0  0  2  0  0  0  0  0  0
  180.3670  172.7050  137.6580 C   0  0  0  0  0  2  0  0  0  0  0  0
  181.1640  174.3100  139.2420 O   0  0  0  0  0  1  0  0  0  0  0  0
  179.0280  171.6140  135.7950 S   0  0  0  0  0  0  0  0  0  0  0  0
  180.0740  172.5070  136.2000 C   0  0  0  0  0  0  0  0  0  0  0  0
  182.2400  173.6660  135.8130 C   0  0  0  0  0  2  0  0  0  0  0  0
  181.9650  174.6160  136.9920 C   0  0  1  0  0  3  0  0  0  0  0  0
  182.8680  178.0600  135.8980 O   0  0  0  0  0  0  0  0  0  0  0  0
  182.8910  179.2180  136.5370 O   0  0  0  0  0  0  0  0  0  0  0  0
  179.5800  181.7630  136.9050 C   0  0  0  0  0  2  0  0  0  0  0  0
  181.5750  179.4870  136.9620 C   0  0  2  0  0  3  0  0  0  0  0  0
  180.8830  179.8500  140.3390 O   0  0  0  0  0  0  0  0  0  0  0  0
  179.7970  181.8440  139.4500 C   0  0  0  0  0  2  0  0  0  0  0  0
  180.4800  181.1670  140.6470 C   0  0  0  0  0  2  0  0  0  0  0  0
  180.0410  181.0390  138.1740 C   0  0  2  0  0  3  0  0  0  0  0  0
  180.5780  179.6850  135.7970 C   0  0  0  0  0  2  0  0  0  0  0  0
  182.3220  181.6240  137.7750 F   0  0  0  0  0  0  0  0  0  0  0  0
  181.4970  180.5500  138.0740 C   0  0  2  0  0  0  0  0  0  0  0  0
  181.9500  179.9530  139.4210 C   0  0  0  0  0  2  0  0  0  0  0  0
  180.1900  181.1610  135.6290 C   0  0  0  0  0  2  0  0  0  0  0  0
  186.0080  178.6990  140.0760 C   0  0  0  0  0  2  0  0  0  0  0  0
  186.6210  178.0010  141.3010 C   0  0  0  0  0  2  0  0  0  0  0  0
  188.6100  178.0250  140.0000 O   0  0  0  0  0  1  0  0  0  0  0  0
  189.6420  177.3910  142.7880 C   0  0  1  0  0  0  0  0  0  0  0  0
  188.1480  178.0120  141.3180 C   0  0  2  0  0  0  0  0  0  0  0  0
  188.6350  176.8820  141.9670 O   0  0  0  0  0  0  0  0  0  0  0  0
  189.7910  178.7540  142.4790 O   0  0  0  0  0  0  0  0  0  0  0  0
  188.6270  179.1350  141.9850 O   0  0  0  0  0  0  0  0  0  0  0  0
  188.7130  178.4440  144.7560 O   0  0  0  0  0  1  0  0  0  0  0  0
  189.2430  177.2400  144.2810 C   0  0  2  0  0  3  0  0  0  0  0  0
  190.2850  176.6490  145.2880 C   0  0  2  0  0  0  0  0  0  0  0  0
  189.9400  175.3290  145.6410 O   0  0  0  0  0  1  0  0  0  0  0  0
  190.3470  177.5150  146.5730 C   0  0  2  0  0  3  0  0  0  0  0  0
  191.5410  177.2840  147.2650 O   0  0  0  0  0  1  0  0  0  0  0  0
  189.1730  177.2840  147.5280 C   0  0  0  0  0  2  0  0  0  0  0  0
  188.7110  178.5960  148.1490 C   0  0  0  0  0  2  0  0  0  0  0  0
  187.3160  178.6600  148.1420 O   0  0  0  0  0  1  0  0  0  0  0  0
  191.5780  176.7040  144.6880 O   0  0  0  0  0  0  0  0  0  0  0  0
  192.3020  175.5200  144.9330 C   0  0  0  0  0  1  0  0  0  0  0  0
  190.9490  176.6550  142.4590 C   0  0  0  0  0  2  0  0  0  0  0  0
  191.7700  177.3530  141.3830 C   0  0  1  0  0  3  0  0  0  0  0  0
  193.1090  177.0620  141.5830 F   0  0  0  0  0  0  0  0  0  0  0  0
  191.3250  176.8560  140.0110 C   0  0  0  0  0  2  0  0  0  0  0  0
  192.5060  176.7290  139.0630 C   0  0  0  0  0  2  0  0  0  0  0  0
  192.2830  175.6960  138.1520 O   0  0  0  0  0  0  0  0  0  0  0  0
  193.5060  175.5040  137.5020 C   0  0  1  0  0  3  0  0  0  0  0  0
  194.0670  174.1300  137.8520 C   0  0  0  0  0  2  0  0  0  0  0  0
  194.6980  174.1600  139.0980 O   0  0  0  0  0  1  0  0  0  0  0  0
  193.3210  175.6200  135.9980 C   0  0  0  0  0  2  0  0  0  0  0  0
  193.4490  177.0110  135.5840 N   0  0  0  0  0  2  0  0  0  0  0  0
  194.6330  177.1080  134.7470 C   0  0  0  0  0  2  0  0  0  0  0  0
  195.7410  176.6120  135.4360 O   0  0  0  0  0  1  0  0  0  0  0  0
  1 39  1  0  0  0  0
  2  3  1  0  0  0  0
  3  1  1  0  0  0  0
  4  1  1  0  0  0  0
  5  2  1  1  0  0  0
  5 14  1  0  0  0  0
  5  6  1  0  0  0  0
  6  4  1  1  0  0  0
  7  8  1  0  0  0  0
  7 10  1  0  0  0  0
 11 14  1  0  0  0  0
 11  9  1  1  0  0  0
 12 11  1  0  0  0  0
 12  7  1  0  0  0  0
 13  7  1  0  0  0  0
 13  8  1  0  0  0  0
 14 10  1  6  0  0  0
 15 16  1  0  0  0  0
 15 25  1  0  0  0  0
 15 17  1  1  0  0  0
 16 26  1  6  0  0  0
 16 17  1  0  0  0  0
 16  6  1  0  0  0  0
 18 21  1  1  0  0  0
 19 24  1  0  0  0  0
 19 23  1  0  0  0  0
 20 18  1  0  0  0  0
 22 23  2  0  0  0  0
 23 20  1  0  0  0  0
 25 24  1  6  0  0  0
 25 18  1  0  0  0  0
 26 27  1  0  0  0  0
 29 27  1  6  0  0  0
 29 36  1  0  0  0  0
 30 32  1  0  0  0  0
 31 32  1  0  0  0  0
 33 28  1  6  0  0  0
 33 31  1  0  0  0  0
 34 29  1  0  0  0  0
 36 35  1  6  0  0  0
 36 33  1  0  0  0  0
 36 37  1  0  0  0  0
 37 30  1  0  0  0  0
 38 34  1  0  0  0  0
 38 28  1  0  0  0  0
 39 40  1  0  0  0  0
 40 43  1  0  0  0  0
 42 58  1  6  0  0  0
 42 48  1  0  0  0  0
 43 41  1  6  0  0  0
 43 44  1  0  0  0  0
 43 46  1  0  0  0  0
 44 42  1  0  0  0  0
 45 42  1  0  0  0  0
 46 45  1  0  0  0  0
 48 47  1  1  0  0  0
 48 49  1  0  0  0  0
 49 50  1  1  0  0  0
 49 51  1  0  0  0  0
 51 52  1  1  0  0  0
 51 53  1  0  0  0  0
 53 54  1  0  0  0  0
 55 54  1  0  0  0  0
 56 57  1  0  0  0  0
 56 49  1  0  0  0  0
 59 60  1  1  0  0  0
 59 58  1  0  0  0  0
 61 59  1  0  0  0  0
 62 61  1  0  0  0  0
 63 62  1  0  0  0  0
 64 67  1  6  0  0  0
 64 65  1  0  0  0  0
 64 63  1  0  0  0  0
 65 66  1  0  0  0  0
 68 67  1  0  0  0  0
 69 70  1  0  0  0  0
 69 68  1  0  0  0  0
M  END
>  <MODEL>
9

>  <REMARK>
 VINA RESULT:      -2.4      2.689      6.024
  Name = 
  25 active torsions:
  status: ('A' for Active; 'I' for Inactive)
    1  A    between atoms: N_2  and  C_20
    2  A    between atoms: C_3  and  C_44
    3  A    between atoms: C_4  and  C_30
    4  A    between atoms: C_4  and  C_34
    5  A    between atoms: O_6  and  C_38
    6  A    between atoms: C_10  and  O_39
    7  A    between atoms: C_11  and  O_53
    8  A    between atoms: C_11  and  C_59
    9  A    between atoms: C_12  and  C_67
   10  A    between atoms: C_14  and  C_30
   11  A    between atoms: C_14  and  C_40
   12  A    between atoms: C_20  and  C_50
   13  A    between atoms: C_21  and  C_23
   14  A    between atoms: C_21  and  C_60
   15  A    between atoms: C_25  and  C_50
   16  A    between atoms: C_26  and  N_55
   17  A    between atoms: C_34  and  C_58
   18  A    between atoms: C_38  and  C_40
   19  A    between atoms: C_38  and  C_60
   20  A    between atoms: O_39  and  O_53
   21  A    between atoms: O_47  and  C_58
   22  A    between atoms: O_47  and  C_67
   23  A    between atoms: C_49  and  N_55
   24  A    between atoms: C_49  and  C_67
   25  A    between atoms: C_57  and  C_66
                            x       y       z     vdW  Elec       q    Type
                         _______ _______ _______ _____ _____    ______ ____

>  <TORSDO>
F 25

$$$$
