=
 OpenBabel11062416523D

 34 35  0  0  1  0  0  0  0  0999 V2000
  189.2910  176.6490  143.9330 C   0  0  0  0  0  2  0  0  0  0  0  0
  188.7330  177.4920  147.0260 C   0  0  0  0  0  2  0  0  0  0  0  0
  190.1300  177.8550  146.5530 C   0  0  0  0  0  2  0  0  0  0  0  0
  188.9770  177.9460  141.7040 C   0  0  2  0  0  3  0  0  0  0  0  0
  184.4140  178.8290  141.3180 C   0  0  0  0  0  0  0  0  0  0  0  0
  190.8090  176.6690  145.9340 C   0  0  0  0  0  0  0  0  0  0  0  0
  189.7680  177.7800  143.0120 C   0  0  1  0  0  3  0  0  0  0  0  0
  183.0760  178.6760  141.6840 C   0  0  0  0  0  3  0  0  0  0  0  0
  185.5530  179.5620  145.9950 O   0  0  0  0  0  0  0  0  0  0  0  0
  182.7050  178.7820  142.9860 N   0  0  0  0  0  0  0  0  0  0  0  0
  183.6110  179.0270  143.9670 C   0  0  0  0  0  3  0  0  0  0  0  0
  186.5730  178.4320  147.8410 C   0  0  0  0  0  2  0  0  0  0  0  0
  184.7830  178.6890  139.8820 C   0  0  0  0  0  1  0  0  0  0  0  0
  188.0280  178.7390  147.5220 C   0  0  0  0  0  2  0  0  0  0  0  0
  184.4660  177.7100  146.8880 N   0  0  0  0  0  1  0  0  0  0  0  0
  186.8290  179.2200  141.9530 C   0  0  0  0  0  2  0  0  0  0  0  0
  190.4250  176.1340  144.7650 C   0  0  0  0  0  3  0  0  0  0  0  0
  185.3770  179.0900  142.3120 C   0  0  0  0  0  0  0  0  0  0  0  0
  187.4660  177.8430  141.8970 C   0  0  0  0  0  2  0  0  0  0  0  0
  184.9680  179.1760  143.6570 C   0  0  0  0  0  0  0  0  0  0  0  0
  185.7530  178.3010  146.5670 C   0  0  1  0  0  3  0  0  0  0  0  0
  185.9220  179.4270  144.6960 N   0  0  0  0  0  2  0  0  0  0  0  0
  191.9970  176.0940  146.6230 C   0  0  0  0  0  1  0  0  0  0  0  0
  189.9990  178.9970  143.6800 O   0  0  0  0  0  0  0  0  0  0  0  0
  191.2900  179.2520  143.5810 O   0  0  0  0  0  1  0  0  0  0  0  0
  189.4350  176.8970  140.7010 C   0  0  0  0  0  2  0  0  0  0  0  0
  190.0730  177.5510  139.4800 C   0  0  2  0  0  3  0  0  0  0  0  0
  189.0590  179.3410  138.2850 O   0  0  0  0  0  0  0  0  0  0  0  0
  187.0120  177.7800  137.0900 C   0  0  0  0  0  1  0  0  0  0  0  0
  189.0430  178.1080  138.5460 C   0  0  0  0  0  0  0  0  0  0  0  0
  188.0330  177.2640  137.9870 N   0  0  0  0  0  2  0  0  0  0  0  0
  192.1020  177.0060  138.3220 O   0  0  0  0  0  0  0  0  0  0  0  0
  190.6430  175.2720  138.6460 O   0  0  0  0  0  1  0  0  0  0  0  0
  190.9990  176.6050  138.7800 C   0  0  0  0  0  0  0  0  0  0  0  0
  1 17  1  0  0  0  0
  2 14  1  0  0  0  0
  3  2  1  0  0  0  0
  4 26  1  6  0  0  0
  4 19  1  0  0  0  0
  4  7  1  0  0  0  0
  5  8  2  0  0  0  0
  5 18  1  0  0  0  0
  6  3  1  0  0  0  0
  6 23  1  0  0  0  0
  7 24  1  1  0  0  0
  7  1  1  0  0  0  0
  8 10  1  0  0  0  0
  9 21  1  0  0  0  0
 10 11  2  0  0  0  0
 13  5  1  0  0  0  0
 14 12  1  0  0  0  0
 16 18  1  0  0  0  0
 17  6  2  0  0  0  0
 18 20  2  0  0  0  0
 19 16  1  0  0  0  0
 20 11  1  0  0  0  0
 20 22  1  0  0  0  0
 21 15  1  1  0  0  0
 21 12  1  0  0  0  0
 22  9  1  0  0  0  0
 25 24  1  0  0  0  0
 27 26  1  1  0  0  0
 28 30  2  0  0  0  0
 29 31  1  0  0  0  0
 30 27  1  0  0  0  0
 31 30  1  0  0  0  0
 32 34  2  0  0  0  0
 33 34  1  0  0  0  0
 34 27  1  0  0  0  0
M  END
>  <MODEL>
1

>  <REMARK>
 VINA RESULT:      -8.3      0.000      0.000
  Name = 
  5 active torsions:
  status: ('A' for Active; 'I' for Inactive)
    1  A    between atoms: O_2  and  C_9
    2  A    between atoms: C_6  and  C_30
    3  A    between atoms: C_14  and  C_20
    4  A    between atoms: C_14  and  C_29
    5  A    between atoms: C_14  and  C_30
                            x       y       z     vdW  Elec       q    Type
                         _______ _______ _______ _____ _____    ______ ____

>  <TORSDO>
F 5

$$$$
=
 OpenBabel11062416523D

 34 35  0  0  1  0  0  0  0  0999 V2000
  184.6250  177.3500  139.0720 C   0  0  0  0  0  2  0  0  0  0  0  0
  187.6890  177.3790  137.9750 C   0  0  0  0  0  2  0  0  0  0  0  0
  186.7580  178.2640  137.1640 C   0  0  0  0  0  2  0  0  0  0  0  0
  183.3900  178.8540  140.7920 C   0  0  2  0  0  3  0  0  0  0  0  0
  185.5450  178.2310  144.8820 C   0  0  0  0  0  0  0  0  0  0  0  0
  185.5370  177.5040  136.7370 C   0  0  0  0  0  0  0  0  0  0  0  0
  184.0230  178.7220  139.3970 C   0  0  1  0  0  3  0  0  0  0  0  0
  186.4300  177.5800  145.7420 C   0  0  0  0  0  3  0  0  0  0  0  0
  189.0520  178.4320  141.5100 O   0  0  0  0  0  0  0  0  0  0  0  0
  187.7010  177.3170  145.3450 N   0  0  0  0  0  0  0  0  0  0  0  0
  188.1500  177.6640  144.1110 C   0  0  0  0  0  3  0  0  0  0  0  0
  189.6940  177.3850  139.4560 C   0  0  0  0  0  2  0  0  0  0  0  0
  184.1530  178.4870  145.3470 C   0  0  0  0  0  1  0  0  0  0  0  0
  188.8420  178.2100  138.5030 C   0  0  0  0  0  2  0  0  0  0  0  0
  189.6840  176.1940  141.5650 N   0  0  0  0  0  1  0  0  0  0  0  0
  185.0400  179.2770  142.6370 C   0  0  0  0  0  2  0  0  0  0  0  0
  184.5920  177.0960  137.5960 C   0  0  0  0  0  3  0  0  0  0  0  0
  185.9810  178.6090  143.5980 C   0  0  0  0  0  0  0  0  0  0  0  0
  184.2340  178.2230  141.8970 C   0  0  0  0  0  2  0  0  0  0  0  0
  187.3000  178.3080  143.2050 C   0  0  0  0  0  0  0  0  0  0  0  0
  189.0040  177.2250  140.8030 C   0  0  1  0  0  3  0  0  0  0  0  0
  187.7740  178.6660  141.9020 N   0  0  0  0  0  2  0  0  0  0  0  0
  185.3410  177.2390  135.2850 C   0  0  0  0  0  1  0  0  0  0  0  0
  184.8600  179.8040  139.0630 O   0  0  0  0  0  0  0  0  0  0  0  0
  184.0770  180.8360  138.8150 O   0  0  0  0  0  1  0  0  0  0  0  0
  182.0080  178.2180  140.7810 C   0  0  0  0  0  2  0  0  0  0  0  0
  180.9180  179.2830  140.7160 C   0  0  2  0  0  3  0  0  0  0  0  0
  179.9710  180.7190  142.3590 O   0  0  0  0  0  0  0  0  0  0  0  0
  179.5910  178.7090  144.3280 C   0  0  0  0  0  1  0  0  0  0  0  0
  180.3130  179.5430  142.0610 C   0  0  0  0  0  0  0  0  0  0  0  0
  180.1600  178.4830  143.0090 N   0  0  0  0  0  2  0  0  0  0  0  0
  179.5090  179.7690  138.8360 O   0  0  0  0  0  0  0  0  0  0  0  0
  179.3160  177.6600  139.7060 O   0  0  0  0  0  1  0  0  0  0  0  0
  179.8760  178.9290  139.7010 C   0  0  0  0  0  0  0  0  0  0  0  0
  1  7  1  0  0  0  0
  2 14  1  0  0  0  0
  3  2  1  0  0  0  0
  4 26  1  6  0  0  0
  4 19  1  0  0  0  0
  5 13  1  0  0  0  0
  5  8  1  0  0  0  0
  6  3  1  0  0  0  0
  6 17  2  0  0  0  0
  7 24  1  1  0  0  0
  7  4  1  0  0  0  0
  9 22  1  0  0  0  0
 10  8  2  0  0  0  0
 11 10  1  0  0  0  0
 12 21  1  0  0  0  0
 14 12  1  0  0  0  0
 16 18  1  0  0  0  0
 17  1  1  0  0  0  0
 18  5  2  0  0  0  0
 19 16  1  0  0  0  0
 20 18  1  0  0  0  0
 20 11  2  0  0  0  0
 21  9  1  0  0  0  0
 21 15  1  1  0  0  0
 22 20  1  0  0  0  0
 23  6  1  0  0  0  0
 25 24  1  0  0  0  0
 27 26  1  1  0  0  0
 27 30  1  0  0  0  0
 30 28  2  0  0  0  0
 30 31  1  0  0  0  0
 31 29  1  0  0  0  0
 32 34  2  0  0  0  0
 34 33  1  0  0  0  0
 34 27  1  0  0  0  0
M  END
>  <MODEL>
2

>  <REMARK>
 VINA RESULT:      -8.3      3.400      8.110
  Name = 
  5 active torsions:
  status: ('A' for Active; 'I' for Inactive)
    1  A    between atoms: O_2  and  C_9
    2  A    between atoms: C_6  and  C_30
    3  A    between atoms: C_14  and  C_20
    4  A    between atoms: C_14  and  C_29
    5  A    between atoms: C_14  and  C_30
                            x       y       z     vdW  Elec       q    Type
                         _______ _______ _______ _____ _____    ______ ____

>  <TORSDO>
F 5

$$$$
=
 OpenBabel11062416523D

 34 35  0  0  1  0  0  0  0  0999 V2000
  184.5550  177.3500  139.2030 C   0  0  0  0  0  2  0  0  0  0  0  0
  187.5880  177.3560  138.0220 C   0  0  0  0  0  2  0  0  0  0  0  0
  186.6410  178.2460  137.2350 C   0  0  0  0  0  2  0  0  0  0  0  0
  183.3780  178.8650  140.9540 C   0  0  2  0  0  3  0  0  0  0  0  0
  185.6400  178.2340  144.9840 C   0  0  0  0  0  0  0  0  0  0  0  0
  185.4040  177.4940  136.8430 C   0  0  0  0  0  0  0  0  0  0  0  0
  183.9710  178.7270  139.5420 C   0  0  1  0  0  3  0  0  0  0  0  0
  186.5440  177.5790  145.8200 C   0  0  0  0  0  3  0  0  0  0  0  0
  189.0540  178.4050  141.5170 O   0  0  0  0  0  0  0  0  0  0  0  0
  187.8020  177.3060  145.3890 N   0  0  0  0  0  0  0  0  0  0  0  0
  188.2190  177.6490  144.1430 C   0  0  0  0  0  3  0  0  0  0  0  0
  189.6320  177.3510  139.4470 C   0  0  0  0  0  2  0  0  0  0  0  0
  184.2630  178.5010  145.4870 C   0  0  0  0  0  1  0  0  0  0  0  0
  188.7600  178.1800  138.5170 C   0  0  0  0  0  2  0  0  0  0  0  0
  189.6720  176.1630  141.5580 N   0  0  0  0  0  1  0  0  0  0  0  0
  185.0800  179.2800  142.7520 C   0  0  0  0  0  2  0  0  0  0  0  0
  184.4790  177.0940  137.7290 C   0  0  0  0  0  3  0  0  0  0  0  0
  186.0430  178.6080  143.6870 C   0  0  0  0  0  0  0  0  0  0  0  0
  184.2470  178.2300  142.0360 C   0  0  0  0  0  2  0  0  0  0  0  0
  187.3490  178.2960  143.2590 C   0  0  0  0  0  0  0  0  0  0  0  0
  188.9790  177.1980  140.8130 C   0  0  1  0  0  3  0  0  0  0  0  0
  187.7890  178.6490  141.9430 N   0  0  0  0  0  2  0  0  0  0  0  0
  185.1660  177.2280  135.3980 C   0  0  0  0  0  1  0  0  0  0  0  0
  184.8060  179.8020  139.1820 O   0  0  0  0  0  0  0  0  0  0  0  0
  184.0190  180.8130  138.8680 O   0  0  0  0  0  1  0  0  0  0  0  0
  181.9910  178.2390  140.9820 C   0  0  0  0  0  2  0  0  0  0  0  0
  181.1250  178.7800  139.8500 C   0  0  2  0  0  3  0  0  0  0  0  0
  180.0270  180.1040  141.4940 O   0  0  0  0  0  0  0  0  0  0  0  0
  179.1210  182.1120  139.7030 C   0  0  0  0  0  1  0  0  0  0  0  0
  180.3350  179.9790  140.2780 C   0  0  0  0  0  0  0  0  0  0  0  0
  179.9020  180.9470  139.3190 N   0  0  0  0  0  2  0  0  0  0  0  0
  179.0060  177.7040  139.5230 O   0  0  0  0  0  1  0  0  0  0  0  0
  180.7920  176.7240  138.4790 O   0  0  0  0  0  0  0  0  0  0  0  0
  180.2430  177.7110  139.2840 C   0  0  0  0  0  0  0  0  0  0  0  0
  1  7  1  0  0  0  0
  2 14  1  0  0  0  0
  3  2  1  0  0  0  0
  4 26  1  6  0  0  0
  4 19  1  0  0  0  0
  5 13  1  0  0  0  0
  5  8  1  0  0  0  0
  6  3  1  0  0  0  0
  6 17  2  0  0  0  0
  7 24  1  1  0  0  0
  7  4  1  0  0  0  0
  9 22  1  0  0  0  0
 10  8  2  0  0  0  0
 11 10  1  0  0  0  0
 12 21  1  0  0  0  0
 14 12  1  0  0  0  0
 16 18  1  0  0  0  0
 17  1  1  0  0  0  0
 18  5  2  0  0  0  0
 19 16  1  0  0  0  0
 20 18  1  0  0  0  0
 20 11  2  0  0  0  0
 21  9  1  0  0  0  0
 21 15  1  1  0  0  0
 22 20  1  0  0  0  0
 23  6  1  0  0  0  0
 25 24  1  0  0  0  0
 27 30  1  0  0  0  0
 27 26  1  1  0  0  0
 30 28  2  0  0  0  0
 31 29  1  0  0  0  0
 31 30  1  0  0  0  0
 33 34  2  0  0  0  0
 34 32  1  0  0  0  0
 34 27  1  0  0  0  0
M  END
>  <MODEL>
3

>  <REMARK>
 VINA RESULT:      -7.9      3.571      7.943
  Name = 
  5 active torsions:
  status: ('A' for Active; 'I' for Inactive)
    1  A    between atoms: O_2  and  C_9
    2  A    between atoms: C_6  and  C_30
    3  A    between atoms: C_14  and  C_20
    4  A    between atoms: C_14  and  C_29
    5  A    between atoms: C_14  and  C_30
                            x       y       z     vdW  Elec       q    Type
                         _______ _______ _______ _____ _____    ______ ____

>  <TORSDO>
F 5

$$$$
=
 OpenBabel11062416523D

 34 35  0  0  1  0  0  0  0  0999 V2000
  188.7300  176.6300  142.4450 C   0  0  0  0  0  2  0  0  0  0  0  0
  186.2730  177.8240  144.2150 C   0  0  0  0  0  2  0  0  0  0  0  0
  187.6360  178.2910  144.6970 C   0  0  0  0  0  2  0  0  0  0  0  0
  189.9550  177.5480  140.3460 C   0  0  2  0  0  3  0  0  0  0  0  0
  186.7670  177.7810  136.9490 C   0  0  0  0  0  0  0  0  0  0  0  0
  188.5580  177.1250  144.9020 C   0  0  0  0  0  0  0  0  0  0  0  0
  189.6910  177.6700  141.8560 C   0  0  1  0  0  3  0  0  0  0  0  0
  185.5190  177.5130  136.3860 C   0  0  0  0  0  3  0  0  0  0  0  0
  184.5500  179.3070  141.0060 O   0  0  0  0  0  0  0  0  0  0  0  0
  184.3840  177.7540  137.0910 N   0  0  0  0  0  0  0  0  0  0  0  0
  184.4200  178.2490  138.3550 C   0  0  0  0  0  3  0  0  0  0  0  0
  184.1080  178.5890  143.2460 C   0  0  0  0  0  2  0  0  0  0  0  0
  187.9900  177.4870  136.1510 C   0  0  0  0  0  1  0  0  0  0  0  0
  185.4130  179.0300  143.8900 C   0  0  0  0  0  2  0  0  0  0  0  0
  183.1480  177.4780  141.3190 N   0  0  0  0  0  1  0  0  0  0  0  0
  188.1690  178.5610  138.9020 C   0  0  0  0  0  2  0  0  0  0  0  0
  189.0380  176.3860  143.8900 C   0  0  0  0  0  3  0  0  0  0  0  0
  186.8390  178.3000  138.2560 C   0  0  0  0  0  0  0  0  0  0  0  0
  188.6900  177.2820  139.5340 C   0  0  0  0  0  2  0  0  0  0  0  0
  185.6460  178.5230  138.9720 C   0  0  0  0  0  0  0  0  0  0  0  0
  184.3270  178.1750  141.7980 C   0  0  1  0  0  3  0  0  0  0  0  0
  185.6820  179.0380  140.3080 N   0  0  0  0  0  2  0  0  0  0  0  0
  189.0020  176.8090  146.2870 C   0  0  0  0  0  1  0  0  0  0  0  0
  189.4230  178.9890  142.2680 O   0  0  0  0  0  0  0  0  0  0  0  0
  190.4230  179.3610  143.0440 O   0  0  0  0  0  1  0  0  0  0  0  0
  190.9620  176.4340  140.0980 C   0  0  0  0  0  2  0  0  0  0  0  0
  191.7690  176.7000  138.8320 C   0  0  2  0  0  3  0  0  0  0  0  0
  191.3270  176.3120  136.5270 O   0  0  0  0  0  0  0  0  0  0  0  0
  190.3940  173.6500  136.8470 C   0  0  0  0  0  1  0  0  0  0  0  0
  191.3200  175.8360  137.6940 C   0  0  0  0  0  0  0  0  0  0  0  0
  190.8510  174.5050  137.9300 N   0  0  0  0  0  2  0  0  0  0  0  0
  193.7780  177.1280  140.0710 O   0  0  0  0  0  1  0  0  0  0  0  0
  194.0090  175.7820  138.2340 O   0  0  0  0  0  0  0  0  0  0  0  0
  193.2380  176.5580  139.0860 C   0  0  0  0  0  0  0  0  0  0  0  0
  1 17  1  0  0  0  0
  2  3  1  0  0  0  0
  3  6  1  0  0  0  0
  4 26  1  1  0  0  0
  4  7  1  0  0  0  0
  5 18  1  0  0  0  0
  6 23  1  0  0  0  0
  7 24  1  6  0  0  0
  7  1  1  0  0  0  0
  8  5  2  0  0  0  0
  8 10  1  0  0  0  0
  9 21  1  0  0  0  0
 10 11  2  0  0  0  0
 11 20  1  0  0  0  0
 12 14  1  0  0  0  0
 13  5  1  0  0  0  0
 14  2  1  0  0  0  0
 16 19  1  0  0  0  0
 17  6  2  0  0  0  0
 18 16  1  0  0  0  0
 18 20  2  0  0  0  0
 19  4  1  0  0  0  0
 20 22  1  0  0  0  0
 21 15  1  6  0  0  0
 21 12  1  0  0  0  0
 22  9  1  0  0  0  0
 24 25  1  0  0  0  0
 27 34  1  0  0  0  0
 27 26  1  1  0  0  0
 28 30  2  0  0  0  0
 29 31  1  0  0  0  0
 30 31  1  0  0  0  0
 30 27  1  0  0  0  0
 33 34  2  0  0  0  0
 34 32  1  0  0  0  0
M  END
>  <MODEL>
4

>  <REMARK>
 VINA RESULT:      -7.9      2.363      3.928
  Name = 
  5 active torsions:
  status: ('A' for Active; 'I' for Inactive)
    1  A    between atoms: O_2  and  C_9
    2  A    between atoms: C_6  and  C_30
    3  A    between atoms: C_14  and  C_20
    4  A    between atoms: C_14  and  C_29
    5  A    between atoms: C_14  and  C_30
                            x       y       z     vdW  Elec       q    Type
                         _______ _______ _______ _____ _____    ______ ____

>  <TORSDO>
F 5

$$$$
=
 OpenBabel11062416523D

 34 35  0  0  1  0  0  0  0  0999 V2000
  189.0700  176.7560  143.6590 C   0  0  0  0  0  2  0  0  0  0  0  0
  187.2650  177.8760  146.1240 C   0  0  0  0  0  2  0  0  0  0  0  0
  188.7310  178.2530  146.2410 C   0  0  0  0  0  2  0  0  0  0  0  0
  189.7220  177.8080  141.3750 C   0  0  2  0  0  3  0  0  0  0  0  0
  185.7420  178.4400  139.0250 C   0  0  0  0  0  0  0  0  0  0  0  0
  189.6070  177.0430  146.0950 C   0  0  0  0  0  0  0  0  0  0  0  0
  189.8900  177.8090  142.9030 C   0  0  1  0  0  3  0  0  0  0  0  0
  184.3740  178.2630  138.8130 C   0  0  0  0  0  3  0  0  0  0  0  0
  184.8130  179.6860  143.6390 O   0  0  0  0  0  0  0  0  0  0  0  0
  183.4920  178.4810  139.8210 N   0  0  0  0  0  0  0  0  0  0  0  0
  183.9010  178.8640  141.0580 C   0  0  0  0  0  3  0  0  0  0  0  0
  184.9630  178.7930  145.8540 C   0  0  0  0  0  2  0  0  0  0  0  0
  186.6800  178.1750  137.8990 C   0  0  0  0  0  1  0  0  0  0  0  0
  186.4170  179.1330  146.1400 C   0  0  0  0  0  2  0  0  0  0  0  0
  183.4500  177.8840  144.1940 N   0  0  0  0  0  1  0  0  0  0  0  0
  187.6680  179.0020  140.5630 C   0  0  0  0  0  2  0  0  0  0  0  0
  189.7490  176.3780  144.9390 C   0  0  0  0  0  3  0  0  0  0  0  0
  186.1990  178.8410  140.2950 C   0  0  0  0  0  0  0  0  0  0  0  0
  188.2690  177.6560  140.9300 C   0  0  0  0  0  2  0  0  0  0  0  0
  185.2630  179.0430  141.3280 C   0  0  0  0  0  0  0  0  0  0  0  0
  184.7530  178.4980  144.3770 C   0  0  1  0  0  3  0  0  0  0  0  0
  185.6920  179.4390  142.6360 N   0  0  0  0  0  2  0  0  0  0  0  0
  190.3950  176.5950  147.2760 C   0  0  0  0  0  1  0  0  0  0  0  0
  189.8200  179.0960  143.4690 O   0  0  0  0  0  0  0  0  0  0  0  0
  191.0400  179.4130  143.8580 O   0  0  0  0  0  1  0  0  0  0  0  0
  190.5580  176.6870  140.7760 C   0  0  0  0  0  2  0  0  0  0  0  0
  191.2150  177.1320  139.4750 C   0  0  2  0  0  3  0  0  0  0  0  0
  190.5500  175.1450  138.3470 O   0  0  0  0  0  0  0  0  0  0  0  0
  189.7710  176.4190  135.9330 C   0  0  0  0  0  1  0  0  0  0  0  0
  190.6600  176.4000  138.2920 C   0  0  0  0  0  0  0  0  0  0  0  0
  190.2970  177.1060  137.1020 N   0  0  0  0  0  2  0  0  0  0  0  0
  193.3280  177.3570  140.5890 O   0  0  0  0  0  1  0  0  0  0  0  0
  193.4070  176.4950  138.4700 O   0  0  0  0  0  0  0  0  0  0  0  0
  192.7060  177.0080  139.5510 C   0  0  0  0  0  0  0  0  0  0  0  0
  1 17  1  0  0  0  0
  2 14  1  0  0  0  0
  2  3  1  0  0  0  0
  4 26  1  6  0  0  0
  4  7  1  0  0  0  0
  5 18  1  0  0  0  0
  6  3  1  0  0  0  0
  6 23  1  0  0  0  0
  7 24  1  1  0  0  0
  7  1  1  0  0  0  0
  8  5  2  0  0  0  0
  8 10  1  0  0  0  0
  9 21  1  0  0  0  0
 10 11  2  0  0  0  0
 11 20  1  0  0  0  0
 12 14  1  0  0  0  0
 13  5  1  0  0  0  0
 16 19  1  0  0  0  0
 17  6  2  0  0  0  0
 18 16  1  0  0  0  0
 18 20  2  0  0  0  0
 19  4  1  0  0  0  0
 20 22  1  0  0  0  0
 21 15  1  1  0  0  0
 21 12  1  0  0  0  0
 22  9  1  0  0  0  0
 24 25  1  0  0  0  0
 27 34  1  0  0  0  0
 27 26  1  1  0  0  0
 29 31  1  0  0  0  0
 30 28  2  0  0  0  0
 30 27  1  0  0  0  0
 31 30  1  0  0  0  0
 33 34  2  0  0  0  0
 34 32  1  0  0  0  0
M  END
>  <MODEL>
5

>  <REMARK>
 VINA RESULT:      -7.4      1.591      2.245
  Name = 
  5 active torsions:
  status: ('A' for Active; 'I' for Inactive)
    1  A    between atoms: O_2  and  C_9
    2  A    between atoms: C_6  and  C_30
    3  A    between atoms: C_14  and  C_20
    4  A    between atoms: C_14  and  C_29
    5  A    between atoms: C_14  and  C_30
                            x       y       z     vdW  Elec       q    Type
                         _______ _______ _______ _____ _____    ______ ____

>  <TORSDO>
F 5

$$$$
=
 OpenBabel11062416523D

 34 35  0  0  1  0  0  0  0  0999 V2000
  189.2570  176.6640  143.5760 C   0  0  0  0  0  2  0  0  0  0  0  0
  188.7830  177.3550  146.7210 C   0  0  0  0  0  2  0  0  0  0  0  0
  190.1590  177.7640  146.2220 C   0  0  0  0  0  2  0  0  0  0  0  0
  188.8500  178.0550  141.4200 C   0  0  2  0  0  3  0  0  0  0  0  0
  184.2630  178.8710  141.2170 C   0  0  0  0  0  0  0  0  0  0  0  0
  190.8370  176.6200  145.5280 C   0  0  0  0  0  0  0  0  0  0  0  0
  189.6850  177.8440  142.6940 C   0  0  1  0  0  3  0  0  0  0  0  0
  182.9400  178.6780  141.6170 C   0  0  0  0  0  3  0  0  0  0  0  0
  185.5380  179.4120  145.8850 O   0  0  0  0  0  0  0  0  0  0  0  0
  182.6090  178.7180  142.9330 N   0  0  0  0  0  0  0  0  0  0  0  0
  183.5420  178.9350  143.8960 C   0  0  0  0  0  3  0  0  0  0  0  0
  186.6350  178.2180  147.6450 C   0  0  0  0  0  2  0  0  0  0  0  0
  184.5880  178.8040  139.7650 C   0  0  0  0  0  1  0  0  0  0  0  0
  188.0740  178.5660  147.2950 C   0  0  0  0  0  2  0  0  0  0  0  0
  184.5110  177.5020  146.7260 N   0  0  0  0  0  1  0  0  0  0  0  0
  186.6900  179.2770  141.7940 C   0  0  0  0  0  2  0  0  0  0  0  0
  190.4240  176.1320  144.3480 C   0  0  0  0  0  3  0  0  0  0  0  0
  185.2520  179.1040  142.1910 C   0  0  0  0  0  0  0  0  0  0  0  0
  187.3480  177.9160  141.6550 C   0  0  0  0  0  2  0  0  0  0  0  0
  184.8850  179.1220  143.5510 C   0  0  0  0  0  0  0  0  0  0  0  0
  185.7770  178.1300  146.3920 C   0  0  1  0  0  3  0  0  0  0  0  0
  185.8670  179.3430  144.5700 N   0  0  0  0  0  2  0  0  0  0  0  0
  192.0560  176.0360  146.1520 C   0  0  0  0  0  1  0  0  0  0  0  0
  189.9170  179.0330  143.4090 O   0  0  0  0  0  0  0  0  0  0  0  0
  191.2120  179.2770  143.3430 O   0  0  0  0  0  1  0  0  0  0  0  0
  189.2930  177.0610  140.3560 C   0  0  0  0  0  2  0  0  0  0  0  0
  188.3830  177.1280  139.1340 C   0  0  2  0  0  3  0  0  0  0  0  0
  187.7710  175.6160  137.4020 O   0  0  0  0  0  0  0  0  0  0  0  0
  190.3230  174.3980  137.1530 C   0  0  0  0  0  1  0  0  0  0  0  0
  188.6910  176.0410  138.1510 C   0  0  0  0  0  0  0  0  0  0  0  0
  189.9990  175.4650  138.0870 N   0  0  0  0  0  2  0  0  0  0  0  0
  189.4300  179.2330  138.6570 O   0  0  0  0  0  1  0  0  0  0  0  0
  187.3730  178.9060  137.7090 O   0  0  0  0  0  0  0  0  0  0  0  0
  188.4330  178.4810  138.4960 C   0  0  0  0  0  0  0  0  0  0  0  0
  1 17  1  0  0  0  0
  2 14  1  0  0  0  0
  3  2  1  0  0  0  0
  4 26  1  6  0  0  0
  4 19  1  0  0  0  0
  4  7  1  0  0  0  0
  5  8  2  0  0  0  0
  5 18  1  0  0  0  0
  6 23  1  0  0  0  0
  6  3  1  0  0  0  0
  7 24  1  1  0  0  0
  7  1  1  0  0  0  0
  8 10  1  0  0  0  0
  9 21  1  0  0  0  0
 10 11  2  0  0  0  0
 13  5  1  0  0  0  0
 14 12  1  0  0  0  0
 16 18  1  0  0  0  0
 17  6  2  0  0  0  0
 18 20  2  0  0  0  0
 19 16  1  0  0  0  0
 20 11  1  0  0  0  0
 20 22  1  0  0  0  0
 21 15  1  1  0  0  0
 21 12  1  0  0  0  0
 22  9  1  0  0  0  0
 25 24  1  0  0  0  0
 27 26  1  1  0  0  0
 28 30  2  0  0  0  0
 29 31  1  0  0  0  0
 30 27  1  0  0  0  0
 31 30  1  0  0  0  0
 33 34  2  0  0  0  0
 34 32  1  0  0  0  0
 34 27  1  0  0  0  0
M  END
>  <MODEL>
6

>  <REMARK>
 VINA RESULT:      -7.2      1.136      1.740
  Name = 
  5 active torsions:
  status: ('A' for Active; 'I' for Inactive)
    1  A    between atoms: O_2  and  C_9
    2  A    between atoms: C_6  and  C_30
    3  A    between atoms: C_14  and  C_20
    4  A    between atoms: C_14  and  C_29
    5  A    between atoms: C_14  and  C_30
                            x       y       z     vdW  Elec       q    Type
                         _______ _______ _______ _____ _____    ______ ____

>  <TORSDO>
F 5

$$$$
=
 OpenBabel11062416523D

 34 35  0  0  1  0  0  0  0  0999 V2000
  183.8840  177.3400  140.6370 C   0  0  0  0  0  2  0  0  0  0  0  0
  183.6830  177.2120  137.3920 C   0  0  0  0  0  2  0  0  0  0  0  0
  182.7650  178.2560  138.0040 C   0  0  0  0  0  2  0  0  0  0  0  0
  185.3740  178.7590  142.2230 C   0  0  2  0  0  3  0  0  0  0  0  0
  189.7860  177.5230  141.3520 C   0  0  0  0  0  0  0  0  0  0  0  0
  181.9280  177.6560  139.0950 C   0  0  0  0  0  0  0  0  0  0  0  0
  184.2020  178.7190  141.2300 C   0  0  1  0  0  3  0  0  0  0  0  0
  190.7680  176.7100  140.7830 C   0  0  0  0  0  3  0  0  0  0  0  0
  187.5600  177.7640  137.0290 O   0  0  0  0  0  0  0  0  0  0  0  0
  190.7060  176.3790  139.4690 N   0  0  0  0  0  0  0  0  0  0  0  0
  189.6960  176.8120  138.6710 C   0  0  0  0  0  3  0  0  0  0  0  0
  185.6460  176.8860  135.8910 C   0  0  0  0  0  2  0  0  0  0  0  0
  189.8810  177.8510  142.8020 C   0  0  0  0  0  1  0  0  0  0  0  0
  184.6070  177.8780  136.3910 C   0  0  0  0  0  2  0  0  0  0  0  0
  187.5050  175.4860  136.5630 N   0  0  0  0  0  1  0  0  0  0  0  0
  187.6390  178.8390  141.1420 C   0  0  0  0  0  2  0  0  0  0  0  0
  182.4370  177.2460  140.2660 C   0  0  0  0  0  3  0  0  0  0  0  0
  188.7290  177.9940  140.5490 C   0  0  0  0  0  0  0  0  0  0  0  0
  186.5800  177.9440  141.7630 C   0  0  0  0  0  2  0  0  0  0  0  0
  188.6790  177.6190  139.1920 C   0  0  0  0  0  0  0  0  0  0  0  0
  186.7210  176.6480  136.9410 C   0  0  1  0  0  3  0  0  0  0  0  0
  187.6120  178.0690  138.3500 N   0  0  0  0  0  2  0  0  0  0  0  0
  180.4570  177.5630  138.8870 C   0  0  0  0  0  1  0  0  0  0  0  0
  184.2470  179.7510  140.2730 O   0  0  0  0  0  0  0  0  0  0  0  0
  185.2120  179.4480  139.4260 O   0  0  0  0  0  1  0  0  0  0  0  0
  184.9050  178.2530  143.5790 C   0  0  0  0  0  2  0  0  0  0  0  0
  185.8180  178.7510  144.6940 C   0  0  2  0  0  3  0  0  0  0  0  0
  186.7470  176.5620  144.6240 O   0  0  0  0  0  0  0  0  0  0  0  0
  189.0050  177.1450  146.2410 C   0  0  0  0  0  1  0  0  0  0  0  0
  186.8700  177.7440  145.0430 C   0  0  0  0  0  0  0  0  0  0  0  0
  187.9780  178.1060  145.8730 N   0  0  0  0  0  2  0  0  0  0  0  0
  183.7790  179.0030  145.9330 O   0  0  0  0  0  0  0  0  0  0  0  0
  185.6810  179.7220  146.9860 O   0  0  0  0  0  1  0  0  0  0  0  0
  185.0280  179.1650  145.8970 C   0  0  0  0  0  0  0  0  0  0  0  0
  1  7  1  0  0  0  0
  2  3  1  0  0  0  0
  3  6  1  0  0  0  0
  4 26  1  1  0  0  0
  5 13  1  0  0  0  0
  6 17  2  0  0  0  0
  7 24  1  6  0  0  0
  7  4  1  0  0  0  0
  8  5  1  0  0  0  0
  9 22  1  0  0  0  0
 10  8  2  0  0  0  0
 11 20  2  0  0  0  0
 11 10  1  0  0  0  0
 12 14  1  0  0  0  0
 12 21  1  0  0  0  0
 14  2  1  0  0  0  0
 16 19  1  0  0  0  0
 17  1  1  0  0  0  0
 18 16  1  0  0  0  0
 18  5  2  0  0  0  0
 19  4  1  0  0  0  0
 20 18  1  0  0  0  0
 21 15  1  6  0  0  0
 21  9  1  0  0  0  0
 22 20  1  0  0  0  0
 23  6  1  0  0  0  0
 25 24  1  0  0  0  0
 27 26  1  6  0  0  0
 27 30  1  0  0  0  0
 27 34  1  0  0  0  0
 28 30  2  0  0  0  0
 30 31  1  0  0  0  0
 31 29  1  0  0  0  0
 34 32  2  0  0  0  0
 34 33  1  0  0  0  0
M  END
>  <MODEL>
7

>  <REMARK>
 VINA RESULT:      -7.2      2.475      8.535
  Name = 
  5 active torsions:
  status: ('A' for Active; 'I' for Inactive)
    1  A    between atoms: O_2  and  C_9
    2  A    between atoms: C_6  and  C_30
    3  A    between atoms: C_14  and  C_20
    4  A    between atoms: C_14  and  C_29
    5  A    between atoms: C_14  and  C_30
                            x       y       z     vdW  Elec       q    Type
                         _______ _______ _______ _____ _____    ______ ____

>  <TORSDO>
F 5

$$$$
=
 OpenBabel11062416523D

 34 35  0  0  1  0  0  0  0  0999 V2000
  187.7420  176.1970  137.5930 C   0  0  0  0  0  2  0  0  0  0  0  0
  190.4940  176.3770  139.3210 C   0  0  0  0  0  2  0  0  0  0  0  0
  190.6510  176.8830  137.8970 C   0  0  0  0  0  2  0  0  0  0  0  0
  185.8170  177.9020  137.2240 C   0  0  2  0  0  3  0  0  0  0  0  0
  183.9030  178.6620  141.4090 C   0  0  0  0  0  0  0  0  0  0  0  0
  190.1380  175.8730  136.9120 C   0  0  0  0  0  0  0  0  0  0  0  0
  187.2770  177.5070  136.9460 C   0  0  1  0  0  3  0  0  0  0  0  0
  183.7070  178.3860  142.7630 C   0  0  0  0  0  3  0  0  0  0  0  0
  188.7150  178.4840  142.1240 O   0  0  0  0  0  0  0  0  0  0  0  0
  184.7710  178.2130  143.5870 N   0  0  0  0  0  0  0  0  0  0  0  0
  186.0480  178.2920  143.1300 C   0  0  0  0  0  3  0  0  0  0  0  0
  190.5860  177.0470  141.7190 C   0  0  0  0  0  2  0  0  0  0  0  0
  182.7090  178.8300  140.5330 C   0  0  0  0  0  1  0  0  0  0  0  0
  190.8950  177.4700  140.2920 C   0  0  0  0  0  2  0  0  0  0  0  0
  188.8020  176.4480  143.2460 N   0  0  0  0  0  1  0  0  0  0  0  0
  185.4550  179.0140  139.4460 C   0  0  0  0  0  2  0  0  0  0  0  0
  188.8370  175.5700  136.7870 C   0  0  0  0  0  3  0  0  0  0  0  0
  185.2140  178.7560  140.9050 C   0  0  0  0  0  0  0  0  0  0  0  0
  185.4070  177.7020  138.6810 C   0  0  0  0  0  2  0  0  0  0  0  0
  186.3000  178.5530  141.7790 C   0  0  0  0  0  0  0  0  0  0  0  0
  189.0940  177.1420  142.0050 C   0  0  1  0  0  3  0  0  0  0  0  0
  187.6480  178.6280  141.2990 N   0  0  0  0  0  2  0  0  0  0  0  0
  191.1120  175.2190  135.9970 C   0  0  0  0  0  1  0  0  0  0  0  0
  188.1810  178.5740  137.1090 O   0  0  0  0  0  0  0  0  0  0  0  0
  187.5540  179.6720  136.7360 O   0  0  0  0  0  1  0  0  0  0  0  0
  184.8950  177.0960  136.3210 C   0  0  0  0  0  2  0  0  0  0  0  0
  183.7880  176.4280  137.1280 C   0  0  2  0  0  3  0  0  0  0  0  0
  182.8860  174.4880  136.0870 O   0  0  0  0  0  0  0  0  0  0  0  0
  184.5860  172.6300  137.3960 C   0  0  0  0  0  1  0  0  0  0  0  0
  183.7400  174.9500  136.8910 C   0  0  0  0  0  0  0  0  0  0  0  0
  184.6210  174.0700  137.5950 N   0  0  0  0  0  2  0  0  0  0  0  0
  182.2710  177.7460  135.8180 O   0  0  0  0  0  0  0  0  0  0  0  0
  181.4310  176.9170  137.7800 O   0  0  0  0  0  1  0  0  0  0  0  0
  182.4620  177.0720  136.8650 C   0  0  0  0  0  0  0  0  0  0  0  0
  2 14  1  0  0  0  0
  3  2  1  0  0  0  0
  4 26  1  6  0  0  0
  4 19  1  0  0  0  0
  5  8  1  0  0  0  0
  6  3  1  0  0  0  0
  7 24  1  1  0  0  0
  7  4  1  0  0  0  0
  7  1  1  0  0  0  0
  8 10  2  0  0  0  0
 11 10  1  0  0  0  0
 12 21  1  0  0  0  0
 13  5  1  0  0  0  0
 14 12  1  0  0  0  0
 16 18  1  0  0  0  0
 17  6  2  0  0  0  0
 17  1  1  0  0  0  0
 18  5  2  0  0  0  0
 18 20  1  0  0  0  0
 19 16  1  0  0  0  0
 20 11  2  0  0  0  0
 21  9  1  0  0  0  0
 21 15  1  1  0  0  0
 22 20  1  0  0  0  0
 22  9  1  0  0  0  0
 23  6  1  0  0  0  0
 25 24  1  0  0  0  0
 27 26  1  6  0  0  0
 28 30  2  0  0  0  0
 29 31  1  0  0  0  0
 30 27  1  0  0  0  0
 30 31  1  0  0  0  0
 32 34  2  0  0  0  0
 34 27  1  0  0  0  0
 34 33  1  0  0  0  0
M  END
>  <MODEL>
8

>  <REMARK>
 VINA RESULT:      -7.2      3.369      6.460
  Name = 
  5 active torsions:
  status: ('A' for Active; 'I' for Inactive)
    1  A    between atoms: O_2  and  C_9
    2  A    between atoms: C_6  and  C_30
    3  A    between atoms: C_14  and  C_20
    4  A    between atoms: C_14  and  C_29
    5  A    between atoms: C_14  and  C_30
                            x       y       z     vdW  Elec       q    Type
                         _______ _______ _______ _____ _____    ______ ____

>  <TORSDO>
F 5

$$$$
=
 OpenBabel11062416523D

 34 35  0  0  1  0  0  0  0  0999 V2000
  187.2620  177.1540  142.4550 C   0  0  0  0  0  2  0  0  0  0  0  0
  184.6330  178.5810  141.1720 C   0  0  0  0  0  2  0  0  0  0  0  0
  185.2140  179.3490  142.3460 C   0  0  0  0  0  2  0  0  0  0  0  0
  189.7960  177.4230  141.9500 C   0  0  2  0  0  3  0  0  0  0  0  0
  190.4160  176.0640  137.5320 C   0  0  0  0  0  0  0  0  0  0  0  0
  185.4000  178.4500  143.5330 C   0  0  0  0  0  0  0  0  0  0  0  0
  188.5160  178.0320  142.5470 C   0  0  1  0  0  3  0  0  0  0  0  0
  190.0080  175.4650  136.3390 C   0  0  0  0  0  3  0  0  0  0  0  0
  186.2770  178.6270  137.6000 O   0  0  0  0  0  0  0  0  0  0  0  0
  188.8160  175.7960  135.7800 N   0  0  0  0  0  0  0  0  0  0  0  0
  187.9840  176.7020  136.3560 C   0  0  0  0  0  3  0  0  0  0  0  0
  184.1660  178.6870  138.7260 C   0  0  0  0  0  2  0  0  0  0  0  0
  191.7230  175.6620  138.1230 C   0  0  0  0  0  1  0  0  0  0  0  0
  184.5840  179.4820  139.9540 C   0  0  0  0  0  2  0  0  0  0  0  0
  184.7980  176.8650  137.2600 N   0  0  0  0  0  1  0  0  0  0  0  0
  189.9750  177.6420  139.4550 C   0  0  0  0  0  2  0  0  0  0  0  0
  186.3150  177.4690  143.5710 C   0  0  0  0  0  3  0  0  0  0  0  0
  189.5790  177.0110  138.1520 C   0  0  0  0  0  0  0  0  0  0  0  0
  189.5650  176.7380  140.6050 C   0  0  0  0  0  2  0  0  0  0  0  0
  188.3390  177.3220  137.5600 C   0  0  0  0  0  0  0  0  0  0  0  0
  185.3130  177.8250  138.2200 C   0  0  1  0  0  3  0  0  0  0  0  0
  187.4570  178.2710  138.1690 N   0  0  0  0  0  2  0  0  0  0  0  0
  184.5680  178.6950  144.7430 C   0  0  0  0  0  1  0  0  0  0  0  0
  188.3030  179.3680  142.1600 O   0  0  0  0  0  0  0  0  0  0  0  0
  187.9630  179.3510  140.8860 O   0  0  0  0  0  1  0  0  0  0  0  0
  190.3870  176.4260  142.9350 C   0  0  0  0  0  2  0  0  0  0  0  0
  191.3860  177.1040  143.8650 C   0  0  2  0  0  3  0  0  0  0  0  0
  192.1610  174.9950  144.6470 O   0  0  0  0  0  0  0  0  0  0  0  0
  192.3570  175.7440  147.3780 C   0  0  0  0  0  1  0  0  0  0  0  0
  191.8560  176.1810  144.9470 C   0  0  0  0  0  0  0  0  0  0  0  0
  191.9200  176.6230  146.3060 N   0  0  0  0  0  2  0  0  0  0  0  0
  191.3090  179.4910  144.1000 O   0  0  0  0  0  0  0  0  0  0  0  0
  189.7580  178.3200  145.3110 O   0  0  0  0  0  1  0  0  0  0  0  0
  190.8270  178.3740  144.4280 C   0  0  0  0  0  0  0  0  0  0  0  0
  1  7  1  0  0  0  0
  1 17  1  0  0  0  0
  2  3  1  0  0  0  0
  3  6  1  0  0  0  0
  4  7  1  0  0  0  0
  4 26  1  1  0  0  0
  5 13  1  0  0  0  0
  5 18  1  0  0  0  0
  6 17  2  0  0  0  0
  6 23  1  0  0  0  0
  7 24  1  6  0  0  0
  8  5  2  0  0  0  0
  9 22  1  0  0  0  0
  9 21  1  0  0  0  0
 10  8  1  0  0  0  0
 10 11  2  0  0  0  0
 11 20  1  0  0  0  0
 12 14  1  0  0  0  0
 14  2  1  0  0  0  0
 16 19  1  0  0  0  0
 18 16  1  0  0  0  0
 19  4  1  0  0  0  0
 20 18  2  0  0  0  0
 20 22  1  0  0  0  0
 21 15  1  6  0  0  0
 21 12  1  0  0  0  0
 25 24  1  0  0  0  0
 27 26  1  1  0  0  0
 27 34  1  0  0  0  0
 27 30  1  0  0  0  0
 28 30  2  0  0  0  0
 30 31  1  0  0  0  0
 31 29  1  0  0  0  0
 32 34  2  0  0  0  0
 34 33  1  0  0  0  0
M  END
>  <MODEL>
9

>  <REMARK>
 VINA RESULT:      -7.1      3.029      7.069
  Name = 
  5 active torsions:
  status: ('A' for Active; 'I' for Inactive)
    1  A    between atoms: O_2  and  C_9
    2  A    between atoms: C_6  and  C_30
    3  A    between atoms: C_14  and  C_20
    4  A    between atoms: C_14  and  C_29
    5  A    between atoms: C_14  and  C_30
                            x       y       z     vdW  Elec       q    Type
                         _______ _______ _______ _____ _____    ______ ____

>  <TORSDO>
F 5

$$$$
