=
 OpenBabel11062417183D

 26 28  0  0  1  0  0  0  0  0999 V2000
  189.7590  176.4240  139.8590 C   0  0  0  0  0  3  0  0  0  0  0  0
  189.8340  177.5540  137.7020 N   0  0  0  0  0  2  0  0  0  0  0  0
  189.5840  177.7160  140.6230 C   0  0  1  0  0  3  0  0  0  0  0  0
  188.9790  178.6720  137.9650 C   0  0  0  0  0  0  0  0  0  0  0  0
  188.2570  178.4680  140.3750 C   0  0  1  0  0  3  0  0  0  0  0  0
  189.9080  176.3860  138.5320 C   0  0  0  0  0  3  0  0  0  0  0  0
  189.1730  179.7600  137.3670 O   0  0  0  0  0  0  0  0  0  0  0  0
  187.8250  178.5400  138.9080 C   0  0  0  0  0  2  0  0  0  0  0  0
  191.8870  177.0790  143.5390 C   0  0  0  0  0  2  0  0  0  0  0  0
  189.9350  177.6420  142.0500 N   0  0  1  0  0  0  0  0  0  0  0  0
  189.8010  178.0420  144.7250 C   0  0  0  0  0  2  0  0  0  0  0  0
  189.0560  176.7990  144.2220 C   0  0  0  0  0  2  0  0  0  0  0  0
  189.2630  176.5200  142.7250 C   0  0  0  0  0  2  0  0  0  0  0  0
  191.7750  177.3770  145.9030 O   0  0  0  0  0  1  0  0  0  0  0  0
  191.3980  177.5250  142.1520 C   0  0  0  0  0  2  0  0  0  0  0  0
  191.3320  177.9160  144.6960 C   0  0  1  0  0  3  0  0  0  0  0  0
  187.1050  177.9780  141.2490 C   0  0  0  0  0  2  0  0  0  0  0  0
  183.6460  179.1930  140.9260 O   0  0  0  0  0  0  0  0  0  0  0  0
  185.8230  178.4430  140.7350 N   0  0  0  0  0  2  0  0  0  0  0  0
  184.6840  178.8070  141.5290 C   0  0  0  0  0  0  0  0  0  0  0  0
  184.5390  178.5840  145.8210 C   0  0  0  0  0  3  0  0  0  0  0  0
  183.4180  178.9910  145.0930 C   0  0  0  0  0  3  0  0  0  0  0  0
  183.4780  179.0610  143.6980 C   0  0  0  0  0  3  0  0  0  0  0  0
  185.7750  178.3200  143.7580 C   0  0  0  0  0  3  0  0  0  0  0  0
  185.7190  178.2490  145.1520 C   0  0  0  0  0  3  0  0  0  0  0  0
  184.6560  178.7230  143.0130 C   0  0  0  0  0  0  0  0  0  0  0  0
  2  4  1  0  0  0  0
  2  6  1  0  0  0  0
  3  1  1  1  0  0  0
  3 10  1  0  0  0  0
  4  8  1  0  0  0  0
  5  3  1  0  0  0  0
  5 17  1  1  0  0  0
  6  1  2  0  0  0  0
  7  4  2  0  0  0  0
  8  5  1  0  0  0  0
  9 16  1  0  0  0  0
 10 15  1  6  0  0  0
 10 13  1  0  0  0  0
 12 11  1  0  0  0  0
 13 12  1  0  0  0  0
 15  9  1  0  0  0  0
 16 11  1  0  0  0  0
 16 14  1  1  0  0  0
 18 20  2  0  0  0  0
 19 17  1  0  0  0  0
 19 20  1  0  0  0  0
 20 26  1  0  0  0  0
 22 21  2  0  0  0  0
 23 22  1  0  0  0  0
 24 25  2  0  0  0  0
 25 21  1  0  0  0  0
 26 23  2  0  0  0  0
 26 24  1  0  0  0  0
M  END
>  <MODEL>
1

>  <REMARK>
 VINA RESULT:      -8.4      0.000      0.000
  Name = 
  4 active torsions:
  status: ('A' for Active; 'I' for Inactive)
    1  A    between atoms: C_2  and  C_13
    2  A    between atoms: C_2  and  N_16
    3  A    between atoms: C_5  and  N_6
    4  A    between atoms: C_24  and  C_25
                            x       y       z     vdW  Elec       q    Type
                         _______ _______ _______ _____ _____    ______ ____

>  <TORSDO>
F 4

$$$$
=
 OpenBabel11062417183D

 26 28  0  0  1  0  0  0  0  0999 V2000
  190.6180  178.9050  143.3520 C   0  0  0  0  0  3  0  0  0  0  0  0
  192.0220  177.9990  145.1240 N   0  0  0  0  0  2  0  0  0  0  0  0
  190.1700  177.5370  142.8930 C   0  0  1  0  0  3  0  0  0  0  0  0
  191.2880  176.8160  145.4560 C   0  0  0  0  0  0  0  0  0  0  0  0
  189.3050  176.7420  143.8960 C   0  0  1  0  0  3  0  0  0  0  0  0
  191.4920  179.0820  144.3470 C   0  0  0  0  0  3  0  0  0  0  0  0
  191.8970  175.8030  145.8870 O   0  0  0  0  0  0  0  0  0  0  0  0
  189.7960  176.7920  145.3460 C   0  0  0  0  0  2  0  0  0  0  0  0
  190.4310  177.4530  139.1330 C   0  0  0  0  0  2  0  0  0  0  0  0
  189.6360  177.4900  141.5220 N   0  0  1  0  0  0  0  0  0  0  0  0
  187.8930  177.1130  139.4850 C   0  0  0  0  0  2  0  0  0  0  0  0
  187.8810  178.5230  140.0880 C   0  0  0  0  0  2  0  0  0  0  0  0
  188.9740  178.7490  141.1460 C   0  0  0  0  0  2  0  0  0  0  0  0
  188.9080  177.1700  137.3190 O   0  0  0  0  0  1  0  0  0  0  0  0
  190.7500  177.1820  140.6120 C   0  0  0  0  0  2  0  0  0  0  0  0
  189.1370  176.7960  138.6420 C   0  0  1  0  0  3  0  0  0  0  0  0
  187.8180  177.0820  143.8230 C   0  0  0  0  0  2  0  0  0  0  0  0
  185.8770  178.9420  146.3350 O   0  0  0  0  0  0  0  0  0  0  0  0
  187.3750  177.7570  145.0350 N   0  0  0  0  0  2  0  0  0  0  0  0
  186.1060  178.4030  145.2190 C   0  0  0  0  0  0  0  0  0  0  0  0
  183.0610  178.6820  142.1960 C   0  0  0  0  0  3  0  0  0  0  0  0
  182.7590  178.9470  143.5340 C   0  0  0  0  0  3  0  0  0  0  0  0
  183.7570  178.8520  144.5080 C   0  0  0  0  0  3  0  0  0  0  0  0
  185.3560  178.2250  142.8100 C   0  0  0  0  0  3  0  0  0  0  0  0
  184.3610  178.3200  141.8340 C   0  0  0  0  0  3  0  0  0  0  0  0
  185.0690  178.4930  144.1580 C   0  0  0  0  0  0  0  0  0  0  0  0
  1  6  2  0  0  0  0
  2  4  1  0  0  0  0
  3  1  1  1  0  0  0
  3  5  1  0  0  0  0
  4  7  2  0  0  0  0
  5 17  1  1  0  0  0
  5  8  1  0  0  0  0
  6  2  1  0  0  0  0
  8  4  1  0  0  0  0
  9 15  1  0  0  0  0
 10 15  1  6  0  0  0
 10  3  1  0  0  0  0
 11 12  1  0  0  0  0
 12 13  1  0  0  0  0
 13 10  1  0  0  0  0
 16 14  1  6  0  0  0
 16  9  1  0  0  0  0
 16 11  1  0  0  0  0
 17 19  1  0  0  0  0
 19 20  1  0  0  0  0
 20 18  2  0  0  0  0
 21 22  1  0  0  0  0
 22 23  2  0  0  0  0
 24 26  2  0  0  0  0
 25 21  2  0  0  0  0
 25 24  1  0  0  0  0
 26 23  1  0  0  0  0
 26 20  1  0  0  0  0
M  END
>  <MODEL>
2

>  <REMARK>
 VINA RESULT:      -8.2      1.992      5.107
  Name = 
  4 active torsions:
  status: ('A' for Active; 'I' for Inactive)
    1  A    between atoms: C_2  and  C_13
    2  A    between atoms: C_2  and  N_16
    3  A    between atoms: C_5  and  N_6
    4  A    between atoms: C_24  and  C_25
                            x       y       z     vdW  Elec       q    Type
                         _______ _______ _______ _____ _____    ______ ____

>  <TORSDO>
F 4

$$$$
=
 OpenBabel11062417183D

 26 28  0  0  1  0  0  0  0  0999 V2000
  190.7710  177.8890  139.9910 C   0  0  0  0  0  3  0  0  0  0  0  0
  191.6470  176.5480  141.8260 N   0  0  0  0  0  2  0  0  0  0  0  0
  189.4170  177.2190  140.0380 C   0  0  1  0  0  3  0  0  0  0  0  0
  190.4530  176.3360  142.5860 C   0  0  0  0  0  0  0  0  0  0  0  0
  188.5880  177.4700  141.3180 C   0  0  1  0  0  3  0  0  0  0  0  0
  191.7780  177.5350  140.7940 C   0  0  0  0  0  3  0  0  0  0  0  0
  190.3210  175.2840  143.2620 O   0  0  0  0  0  0  0  0  0  0  0  0
  189.3820  177.3810  142.6240 C   0  0  0  0  0  2  0  0  0  0  0  0
  188.1170  176.1100  136.6780 C   0  0  0  0  0  2  0  0  0  0  0  0
  188.6180  177.3530  138.8100 N   0  0  1  0  0  0  0  0  0  0  0  0
  186.7180  178.2430  137.0980 C   0  0  0  0  0  2  0  0  0  0  0  0
  188.0440  179.0120  137.0420 C   0  0  0  0  0  2  0  0  0  0  0  0
  189.1480  178.4010  137.9220 C   0  0  0  0  0  2  0  0  0  0  0  0
  186.4810  176.9000  135.1310 O   0  0  0  0  0  1  0  0  0  0  0  0
  188.5970  176.0460  138.1360 C   0  0  0  0  0  2  0  0  0  0  0  0
  186.7790  176.8330  136.4920 C   0  0  1  0  0  3  0  0  0  0  0  0
  187.7730  178.7610  141.2730 C   0  0  0  0  0  2  0  0  0  0  0  0
  184.1790  178.0460  141.6090 O   0  0  0  0  0  0  0  0  0  0  0  0
  186.3670  178.4840  141.0110 N   0  0  0  0  0  2  0  0  0  0  0  0
  185.3540  178.2740  142.0050 C   0  0  0  0  0  0  0  0  0  0  0  0
  186.0950  178.3520  146.2400 C   0  0  0  0  0  3  0  0  0  0  0  0
  185.2650  179.3070  145.6470 C   0  0  0  0  0  3  0  0  0  0  0  0
  185.0320  179.2720  144.2700 C   0  0  0  0  0  3  0  0  0  0  0  0
  186.4590  177.3330  144.0770 C   0  0  0  0  0  3  0  0  0  0  0  0
  186.6930  177.3650  145.4540 C   0  0  0  0  0  3  0  0  0  0  0  0
  185.6240  178.2830  143.4670 C   0  0  0  0  0  0  0  0  0  0  0  0
  1  6  2  0  0  0  0
  2  4  1  0  0  0  0
  3  1  1  6  0  0  0
  3  5  1  0  0  0  0
  4  8  1  0  0  0  0
  4  7  2  0  0  0  0
  5 17  1  6  0  0  0
  5  8  1  0  0  0  0
  6  2  1  0  0  0  0
  9 15  1  0  0  0  0
 10 13  1  6  0  0  0
 10  3  1  0  0  0  0
 12 11  1  0  0  0  0
 12 13  1  0  0  0  0
 15 10  1  0  0  0  0
 16 14  1  6  0  0  0
 16  9  1  0  0  0  0
 16 11  1  0  0  0  0
 18 20  2  0  0  0  0
 19 17  1  0  0  0  0
 19 20  1  0  0  0  0
 20 26  1  0  0  0  0
 22 21  1  0  0  0  0
 23 22  2  0  0  0  0
 24 25  1  0  0  0  0
 25 21  2  0  0  0  0
 26 24  2  0  0  0  0
 26 23  1  0  0  0  0
M  END
>  <MODEL>
3

>  <REMARK>
 VINA RESULT:      -7.8      1.821      4.977
  Name = 
  4 active torsions:
  status: ('A' for Active; 'I' for Inactive)
    1  A    between atoms: C_2  and  C_13
    2  A    between atoms: C_2  and  N_16
    3  A    between atoms: C_5  and  N_6
    4  A    between atoms: C_24  and  C_25
                            x       y       z     vdW  Elec       q    Type
                         _______ _______ _______ _____ _____    ______ ____

>  <TORSDO>
F 4

$$$$
=
 OpenBabel11062417183D

 26 28  0  0  1  0  0  0  0  0999 V2000
  188.6040  178.8730  138.8260 C   0  0  0  0  0  3  0  0  0  0  0  0
  190.1370  177.3590  137.6890 N   0  0  0  0  0  2  0  0  0  0  0  0
  188.0290  177.7750  139.6910 C   0  0  1  0  0  3  0  0  0  0  0  0
  190.3910  176.4140  138.7350 C   0  0  0  0  0  0  0  0  0  0  0  0
  189.0030  177.1460  140.7120 C   0  0  1  0  0  3  0  0  0  0  0  0
  189.5360  178.6450  137.8970 C   0  0  0  0  0  3  0  0  0  0  0  0
  190.6500  175.2180  138.4460 O   0  0  0  0  0  0  0  0  0  0  0  0
  190.4030  176.8510  140.1660 C   0  0  0  0  0  2  0  0  0  0  0  0
  184.4600  178.9840  139.6100 C   0  0  0  0  0  2  0  0  0  0  0  0
  186.7120  178.0730  140.2740 N   0  0  1  0  0  0  0  0  0  0  0  0
  184.6350  178.0430  142.0110 C   0  0  0  0  0  2  0  0  0  0  0  0
  185.6710  179.1440  142.2680 C   0  0  0  0  0  2  0  0  0  0  0  0
  186.7630  179.2250  141.1890 C   0  0  0  0  0  2  0  0  0  0  0  0
  182.6280  179.0120  141.1380 O   0  0  0  0  0  1  0  0  0  0  0  0
  185.7700  178.3130  139.1700 C   0  0  0  0  0  2  0  0  0  0  0  0
  183.7560  178.2780  140.7740 C   0  0  1  0  0  3  0  0  0  0  0  0
  189.0930  177.9180  142.0260 C   0  0  0  0  0  2  0  0  0  0  0  0
  191.2940  176.8250  144.7650 O   0  0  0  0  0  0  0  0  0  0  0  0
  190.2320  177.4730  142.8180 N   0  0  0  0  0  2  0  0  0  0  0  0
  190.2190  177.2060  144.2290 C   0  0  0  0  0  0  0  0  0  0  0  0
  186.7870  177.7390  146.7640 C   0  0  0  0  0  3  0  0  0  0  0  0
  188.0780  177.8990  147.2750 C   0  0  0  0  0  3  0  0  0  0  0  0
  189.1860  177.7220  146.4400 C   0  0  0  0  0  3  0  0  0  0  0  0
  187.7160  177.2240  144.5910 C   0  0  0  0  0  3  0  0  0  0  0  0
  186.6060  177.4000  145.4220 C   0  0  0  0  0  3  0  0  0  0  0  0
  189.0180  177.3850  145.0870 C   0  0  0  0  0  0  0  0  0  0  0  0
  2  6  1  0  0  0  0
  2  4  1  0  0  0  0
  3  1  1  1  0  0  0
  3 10  1  0  0  0  0
  3  5  1  0  0  0  0
  4  8  1  0  0  0  0
  5 17  1  1  0  0  0
  6  1  2  0  0  0  0
  7  4  2  0  0  0  0
  8  5  1  0  0  0  0
  9 16  1  0  0  0  0
 10 15  1  6  0  0  0
 10 13  1  0  0  0  0
 11 12  1  0  0  0  0
 13 12  1  0  0  0  0
 15  9  1  0  0  0  0
 16 14  1  1  0  0  0
 16 11  1  0  0  0  0
 17 19  1  0  0  0  0
 19 20  1  0  0  0  0
 20 18  2  0  0  0  0
 20 26  1  0  0  0  0
 21 22  1  0  0  0  0
 23 22  2  0  0  0  0
 24 26  2  0  0  0  0
 24 25  1  0  0  0  0
 25 21  2  0  0  0  0
 26 23  1  0  0  0  0
M  END
>  <MODEL>
4

>  <REMARK>
 VINA RESULT:      -7.6      1.746      5.195
  Name = 
  4 active torsions:
  status: ('A' for Active; 'I' for Inactive)
    1  A    between atoms: C_2  and  C_13
    2  A    between atoms: C_2  and  N_16
    3  A    between atoms: C_5  and  N_6
    4  A    between atoms: C_24  and  C_25
                            x       y       z     vdW  Elec       q    Type
                         _______ _______ _______ _____ _____    ______ ____

>  <TORSDO>
F 4

$$$$
=
 OpenBabel11062417183D

 26 28  0  0  1  0  0  0  0  0999 V2000
  189.1750  176.7520  144.9860 C   0  0  0  0  0  3  0  0  0  0  0  0
  191.4670  177.4970  145.3400 N   0  0  0  0  0  2  0  0  0  0  0  0
  188.7780  178.0330  144.2890 C   0  0  1  0  0  3  0  0  0  0  0  0
  191.6500  178.3280  144.1890 C   0  0  0  0  0  0  0  0  0  0  0  0
  189.4630  178.2960  142.9290 C   0  0  1  0  0  3  0  0  0  0  0  0
  190.3970  176.5530  145.4880 C   0  0  0  0  0  3  0  0  0  0  0  0
  192.4260  179.3160  144.2490 O   0  0  0  0  0  0  0  0  0  0  0  0
  190.9650  178.0010  142.8990 C   0  0  0  0  0  2  0  0  0  0  0  0
  185.3100  178.2110  145.7560 C   0  0  0  0  0  2  0  0  0  0  0  0
  187.3310  178.2950  144.2550 N   0  0  1  0  0  0  0  0  0  0  0  0
  184.9400  179.2510  143.4180 C   0  0  0  0  0  2  0  0  0  0  0  0
  185.3170  177.8780  142.8490 C   0  0  0  0  0  2  0  0  0  0  0  0
  186.6100  177.2990  143.4460 C   0  0  0  0  0  2  0  0  0  0  0  0
  183.1820  179.0040  145.0230 O   0  0  0  0  0  1  0  0  0  0  0  0
  186.8390  178.3100  145.6410 C   0  0  0  0  0  2  0  0  0  0  0  0
  184.5520  179.2350  144.9040 C   0  0  1  0  0  3  0  0  0  0  0  0
  188.7620  177.6220  141.7520 C   0  0  0  0  0  2  0  0  0  0  0  0
  188.6830  179.3780  138.5190 O   0  0  0  0  0  0  0  0  0  0  0  0
  188.5100  178.5730  140.6780 N   0  0  0  0  0  2  0  0  0  0  0  0
  188.9940  178.4650  139.3310 C   0  0  0  0  0  0  0  0  0  0  0  0
  191.4530  175.2290  137.9290 C   0  0  0  0  0  3  0  0  0  0  0  0
  190.0970  175.2850  137.5960 C   0  0  0  0  0  3  0  0  0  0  0  0
  189.3080  176.3410  138.0590 C   0  0  0  0  0  3  0  0  0  0  0  0
  191.2250  177.2820  139.1860 C   0  0  0  0  0  3  0  0  0  0  0  0
  192.0170  176.2280  138.7250 C   0  0  0  0  0  3  0  0  0  0  0  0
  189.8620  177.3550  138.8570 C   0  0  0  0  0  0  0  0  0  0  0  0
  1  6  2  0  0  0  0
  2  6  1  0  0  0  0
  3  1  1  6  0  0  0
  4  7  2  0  0  0  0
  4  2  1  0  0  0  0
  5 17  1  6  0  0  0
  5  3  1  0  0  0  0
  8  5  1  0  0  0  0
  8  4  1  0  0  0  0
 10 13  1  6  0  0  0
 10  3  1  0  0  0  0
 10 15  1  0  0  0  0
 11 16  1  0  0  0  0
 12 11  1  0  0  0  0
 12 13  1  0  0  0  0
 15  9  1  0  0  0  0
 16 14  1  6  0  0  0
 16  9  1  0  0  0  0
 18 20  2  0  0  0  0
 19 17  1  0  0  0  0
 20 19  1  0  0  0  0
 21 25  1  0  0  0  0
 22 21  2  0  0  0  0
 22 23  1  0  0  0  0
 23 26  2  0  0  0  0
 25 24  2  0  0  0  0
 26 24  1  0  0  0  0
 26 20  1  0  0  0  0
M  END
>  <MODEL>
5

>  <REMARK>
 VINA RESULT:      -7.6      1.872      6.557
  Name = 
  4 active torsions:
  status: ('A' for Active; 'I' for Inactive)
    1  A    between atoms: C_2  and  C_13
    2  A    between atoms: C_2  and  N_16
    3  A    between atoms: C_5  and  N_6
    4  A    between atoms: C_24  and  C_25
                            x       y       z     vdW  Elec       q    Type
                         _______ _______ _______ _____ _____    ______ ____

>  <TORSDO>
F 4

$$$$
=
 OpenBabel11062417183D

 26 28  0  0  1  0  0  0  0  0999 V2000
  189.1730  176.7530  144.9220 C   0  0  0  0  0  3  0  0  0  0  0  0
  191.4460  177.5060  145.3700 N   0  0  0  0  0  2  0  0  0  0  0  0
  188.7930  178.0420  144.2320 C   0  0  1  0  0  3  0  0  0  0  0  0
  191.6640  178.3570  144.2400 C   0  0  0  0  0  0  0  0  0  0  0  0
  189.5240  178.3320  142.9020 C   0  0  1  0  0  3  0  0  0  0  0  0
  190.3780  176.5530  145.4640 C   0  0  0  0  0  3  0  0  0  0  0  0
  192.4310  179.3490  144.3440 O   0  0  0  0  0  0  0  0  0  0  0  0
  191.0280  178.0470  142.9210 C   0  0  0  0  0  2  0  0  0  0  0  0
  185.2760  178.1880  145.5800 C   0  0  0  0  0  2  0  0  0  0  0  0
  187.3460  178.2960  144.1500 N   0  0  1  0  0  0  0  0  0  0  0  0
  184.9790  179.2440  143.2390 C   0  0  0  0  0  2  0  0  0  0  0  0
  185.3840  177.8780  142.6730 C   0  0  0  0  0  2  0  0  0  0  0  0
  186.6600  177.3020  143.3090 C   0  0  0  0  0  2  0  0  0  0  0  0
  183.1690  178.9730  144.7810 O   0  0  0  0  0  1  0  0  0  0  0  0
  186.8070  178.2970  145.5190 C   0  0  0  0  0  2  0  0  0  0  0  0
  184.5400  179.2140  144.7110 C   0  0  1  0  0  3  0  0  0  0  0  0
  188.8700  177.6730  141.6900 C   0  0  0  0  0  2  0  0  0  0  0  0
  190.7840  175.7960  139.1690 O   0  0  0  0  0  0  0  0  0  0  0  0
  189.8010  176.7790  141.0140 N   0  0  0  0  0  2  0  0  0  0  0  0
  189.9240  176.6140  139.5940 C   0  0  0  0  0  0  0  0  0  0  0  0
  187.5050  178.7370  136.7430 C   0  0  0  0  0  3  0  0  0  0  0  0
  188.6530  179.3270  137.2780 C   0  0  0  0  0  3  0  0  0  0  0  0
  189.4310  178.6270  138.2050 C   0  0  0  0  0  3  0  0  0  0  0  0
  187.9150  176.7530  138.0640 C   0  0  0  0  0  3  0  0  0  0  0  0
  187.1350  177.4500  137.1370 C   0  0  0  0  0  3  0  0  0  0  0  0
  189.0730  177.3300  138.6070 C   0  0  0  0  0  0  0  0  0  0  0  0
  1  6  2  0  0  0  0
  2  6  1  0  0  0  0
  3  1  1  6  0  0  0
  4  7  2  0  0  0  0
  4  2  1  0  0  0  0
  5 17  1  6  0  0  0
  5  8  1  0  0  0  0
  5  3  1  0  0  0  0
  8  4  1  0  0  0  0
 10 13  1  6  0  0  0
 10  3  1  0  0  0  0
 10 15  1  0  0  0  0
 11 16  1  0  0  0  0
 12 11  1  0  0  0  0
 12 13  1  0  0  0  0
 15  9  1  0  0  0  0
 16 14  1  6  0  0  0
 16  9  1  0  0  0  0
 18 20  2  0  0  0  0
 19 17  1  0  0  0  0
 20 19  1  0  0  0  0
 21 25  2  0  0  0  0
 21 22  1  0  0  0  0
 22 23  2  0  0  0  0
 23 26  1  0  0  0  0
 24 26  2  0  0  0  0
 25 24  1  0  0  0  0
 26 20  1  0  0  0  0
M  END
>  <MODEL>
6

>  <REMARK>
 VINA RESULT:      -7.5      1.999      6.438
  Name = 
  4 active torsions:
  status: ('A' for Active; 'I' for Inactive)
    1  A    between atoms: C_2  and  C_13
    2  A    between atoms: C_2  and  N_16
    3  A    between atoms: C_5  and  N_6
    4  A    between atoms: C_24  and  C_25
                            x       y       z     vdW  Elec       q    Type
                         _______ _______ _______ _____ _____    ______ ____

>  <TORSDO>
F 4

$$$$
=
 OpenBabel11062417183D

 26 28  0  0  1  0  0  0  0  0999 V2000
  180.2620  177.0570  140.5870 C   0  0  0  0  0  3  0  0  0  0  0  0
  179.0520  178.7690  141.8280 N   0  0  0  0  0  2  0  0  0  0  0  0
  181.2890  178.0380  140.0720 C   0  0  1  0  0  3  0  0  0  0  0  0
  180.1270  179.6510  142.1660 C   0  0  0  0  0  0  0  0  0  0  0  0
  182.2120  178.6670  141.1400 C   0  0  1  0  0  3  0  0  0  0  0  0
  179.2330  177.4270  141.3540 C   0  0  0  0  0  3  0  0  0  0  0  0
  179.9070  180.8820  142.2970 O   0  0  0  0  0  0  0  0  0  0  0  0
  181.5000  179.1130  142.4200 C   0  0  0  0  0  2  0  0  0  0  0  0
  182.0210  177.8820  136.3770 C   0  0  0  0  0  2  0  0  0  0  0  0
  182.0250  177.5920  138.8790 N   0  0  1  0  0  0  0  0  0  0  0  0
  184.0100  176.5530  137.3570 C   0  0  0  0  0  2  0  0  0  0  0  0
  182.9710  175.5340  137.8410 C   0  0  0  0  0  2  0  0  0  0  0  0
  181.7850  176.1700  138.5840 C   0  0  0  0  0  2  0  0  0  0  0  0
  183.7330  176.9360  135.0110 O   0  0  0  0  0  1  0  0  0  0  0  0
  181.6220  178.4440  137.7500 C   0  0  0  0  0  2  0  0  0  0  0  0
  183.5020  177.5040  136.2630 C   0  0  1  0  0  3  0  0  0  0  0  0
  183.4300  177.8090  141.4760 C   0  0  0  0  0  2  0  0  0  0  0  0
  186.7610  179.3670  141.3460 O   0  0  0  0  0  0  0  0  0  0  0  0
  184.6610  178.4540  141.0400 N   0  0  0  0  0  2  0  0  0  0  0  0
  185.7650  178.8130  141.8840 C   0  0  0  0  0  0  0  0  0  0  0  0
  185.8560  178.1400  146.1300 C   0  0  0  0  0  3  0  0  0  0  0  0
  186.7750  177.5040  145.2910 C   0  0  0  0  0  3  0  0  0  0  0  0
  186.7340  177.7310  143.9120 C   0  0  0  0  0  3  0  0  0  0  0  0
  184.8590  179.2220  144.2100 C   0  0  0  0  0  3  0  0  0  0  0  0
  184.8970  178.9990  145.5890 C   0  0  0  0  0  3  0  0  0  0  0  0
  185.7780  178.5950  143.3550 C   0  0  0  0  0  0  0  0  0  0  0  0
  1  6  2  0  0  0  0
  2  4  1  0  0  0  0
  3  1  1  1  0  0  0
  3  5  1  0  0  0  0
  4  7  2  0  0  0  0
  4  8  1  0  0  0  0
  5 17  1  1  0  0  0
  5  8  1  0  0  0  0
  6  2  1  0  0  0  0
  9 15  1  0  0  0  0
 10 15  1  6  0  0  0
 10  3  1  0  0  0  0
 11 12  1  0  0  0  0
 12 13  1  0  0  0  0
 13 10  1  0  0  0  0
 16 14  1  6  0  0  0
 16  9  1  0  0  0  0
 16 11  1  0  0  0  0
 18 20  2  0  0  0  0
 19 17  1  0  0  0  0
 19 20  1  0  0  0  0
 20 26  1  0  0  0  0
 22 21  2  0  0  0  0
 23 22  1  0  0  0  0
 24 25  2  0  0  0  0
 25 21  1  0  0  0  0
 26 23  2  0  0  0  0
 26 24  1  0  0  0  0
M  END
>  <MODEL>
7

>  <REMARK>
 VINA RESULT:      -7.4      3.888      8.018
  Name = 
  4 active torsions:
  status: ('A' for Active; 'I' for Inactive)
    1  A    between atoms: C_2  and  C_13
    2  A    between atoms: C_2  and  N_16
    3  A    between atoms: C_5  and  N_6
    4  A    between atoms: C_24  and  C_25
                            x       y       z     vdW  Elec       q    Type
                         _______ _______ _______ _____ _____    ______ ____

>  <TORSDO>
F 4

$$$$
=
 OpenBabel11062417183D

 26 28  0  0  1  0  0  0  0  0999 V2000
  183.4190  179.4050  143.4290 C   0  0  0  0  0  3  0  0  0  0  0  0
  182.0460  178.3550  141.7120 N   0  0  0  0  0  2  0  0  0  0  0  0
  184.4820  178.3340  143.3520 C   0  0  1  0  0  3  0  0  0  0  0  0
  183.0600  177.7430  140.9080 C   0  0  0  0  0  0  0  0  0  0  0  0
  185.2650  178.2610  142.0220 C   0  0  1  0  0  3  0  0  0  0  0  0
  182.3020  179.3670  142.6960 C   0  0  0  0  0  3  0  0  0  0  0  0
  182.8060  176.6820  140.2830 O   0  0  0  0  0  0  0  0  0  0  0  0
  184.4040  178.3860  140.7620 C   0  0  0  0  0  2  0  0  0  0  0  0
  187.1210  176.7530  145.5290 C   0  0  0  0  0  2  0  0  0  0  0  0
  185.3570  178.2470  144.5310 N   0  0  1  0  0  0  0  0  0  0  0  0
  186.7310  179.0040  146.7390 C   0  0  0  0  0  2  0  0  0  0  0  0
  185.3050  178.5060  147.0080 C   0  0  0  0  0  2  0  0  0  0  0  0
  184.5990  177.9550  145.7580 C   0  0  0  0  0  2  0  0  0  0  0  0
  188.3110  177.3770  147.5010 O   0  0  0  0  0  1  0  0  0  0  0  0
  186.3680  177.2110  144.2710 C   0  0  0  0  0  2  0  0  0  0  0  0
  187.7240  177.8990  146.3490 C   0  0  1  0  0  3  0  0  0  0  0  0
  186.4500  179.2210  141.9580 C   0  0  0  0  0  2  0  0  0  0  0  0
  189.0490  178.2130  139.5550 O   0  0  0  0  0  0  0  0  0  0  0  0
  187.2360  179.0020  140.7510 N   0  0  0  0  0  2  0  0  0  0  0  0
  188.4960  178.3180  140.6830 C   0  0  0  0  0  0  0  0  0  0  0  0
  190.5210  176.7650  144.1440 C   0  0  0  0  0  3  0  0  0  0  0  0
  190.4260  178.1440  143.9370 C   0  0  0  0  0  3  0  0  0  0  0  0
  189.7660  178.6360  142.8070 C   0  0  0  0  0  3  0  0  0  0  0  0
  189.3000  176.3770  142.0930 C   0  0  0  0  0  3  0  0  0  0  0  0
  189.9580  175.8820  143.2210 C   0  0  0  0  0  3  0  0  0  0  0  0
  189.1920  177.7590  141.8730 C   0  0  0  0  0  0  0  0  0  0  0  0
  2  6  1  0  0  0  0
  3  1  1  1  0  0  0
  3 10  1  0  0  0  0
  4  2  1  0  0  0  0
  5 17  1  1  0  0  0
  5  3  1  0  0  0  0
  6  1  2  0  0  0  0
  7  4  2  0  0  0  0
  8  4  1  0  0  0  0
  8  5  1  0  0  0  0
  9 16  1  0  0  0  0
 10 15  1  6  0  0  0
 10 13  1  0  0  0  0
 11 12  1  0  0  0  0
 13 12  1  0  0  0  0
 15  9  1  0  0  0  0
 16 11  1  0  0  0  0
 16 14  1  1  0  0  0
 18 20  2  0  0  0  0
 19 17  1  0  0  0  0
 20 19  1  0  0  0  0
 20 26  1  0  0  0  0
 22 21  1  0  0  0  0
 23 22  2  0  0  0  0
 24 25  1  0  0  0  0
 25 21  2  0  0  0  0
 26 24  2  0  0  0  0
 26 23  1  0  0  0  0
M  END
>  <MODEL>
8

>  <REMARK>
 VINA RESULT:      -7.4      2.070      5.645
  Name = 
  4 active torsions:
  status: ('A' for Active; 'I' for Inactive)
    1  A    between atoms: C_2  and  C_13
    2  A    between atoms: C_2  and  N_16
    3  A    between atoms: C_5  and  N_6
    4  A    between atoms: C_24  and  C_25
                            x       y       z     vdW  Elec       q    Type
                         _______ _______ _______ _____ _____    ______ ____

>  <TORSDO>
F 4

$$$$
=
 OpenBabel11062417183D

 26 28  0  0  1  0  0  0  0  0999 V2000
  188.6640  176.0340  143.1480 C   0  0  0  0  0  3  0  0  0  0  0  0
  191.0980  176.1160  143.2180 N   0  0  0  0  0  2  0  0  0  0  0  0
  188.5300  177.5390  143.1390 C   0  0  1  0  0  3  0  0  0  0  0  0
  191.3370  177.3250  142.4900 C   0  0  0  0  0  0  0  0  0  0  0  0
  189.0700  178.2520  141.8780 C   0  0  1  0  0  3  0  0  0  0  0  0
  189.8460  175.4160  143.2230 C   0  0  0  0  0  3  0  0  0  0  0  0
  192.3470  178.0250  142.7550 O   0  0  0  0  0  0  0  0  0  0  0  0
  190.4220  177.7360  141.3790 C   0  0  0  0  0  2  0  0  0  0  0  0
  185.6690  178.0200  145.5450 C   0  0  0  0  0  2  0  0  0  0  0  0
  187.2130  178.0450  143.5560 N   0  0  1  0  0  0  0  0  0  0  0  0
  184.9530  179.5360  143.5760 C   0  0  0  0  0  2  0  0  0  0  0  0
  184.8690  178.2530  142.7400 C   0  0  0  0  0  2  0  0  0  0  0  0
  186.1140  177.3590  142.8570 C   0  0  0  0  0  2  0  0  0  0  0  0
  183.6480  179.2880  145.5670 O   0  0  0  0  0  1  0  0  0  0  0  0
  187.1030  177.8780  145.0130 C   0  0  0  0  0  2  0  0  0  0  0  0
  184.9590  179.3010  145.0940 C   0  0  1  0  0  3  0  0  0  0  0  0
  188.0630  178.3120  140.7320 C   0  0  0  0  0  2  0  0  0  0  0  0
  188.8540  179.1460  137.2360 O   0  0  0  0  0  0  0  0  0  0  0  0
  188.6820  178.8280  139.5180 N   0  0  0  0  0  2  0  0  0  0  0  0
  188.2000  178.6280  138.1810 C   0  0  0  0  0  0  0  0  0  0  0  0
  184.7540  176.2450  137.2110 C   0  0  0  0  0  3  0  0  0  0  0  0
  186.0390  175.7970  136.8940 C   0  0  0  0  0  3  0  0  0  0  0  0
  187.1510  176.5820  137.2130 C   0  0  0  0  0  3  0  0  0  0  0  0
  185.6970  178.2590  138.1630 C   0  0  0  0  0  3  0  0  0  0  0  0
  184.5840  177.4780  137.8460 C   0  0  0  0  0  3  0  0  0  0  0  0
  186.9950  177.8210  137.8550 C   0  0  0  0  0  0  0  0  0  0  0  0
  1  6  2  0  0  0  0
  2  6  1  0  0  0  0
  3  1  1  6  0  0  0
  3 10  1  0  0  0  0
  4  7  2  0  0  0  0
  4  2  1  0  0  0  0
  5 17  1  6  0  0  0
  5  3  1  0  0  0  0
  8  5  1  0  0  0  0
  8  4  1  0  0  0  0
 10 13  1  6  0  0  0
 10 15  1  0  0  0  0
 11 16  1  0  0  0  0
 12 13  1  0  0  0  0
 12 11  1  0  0  0  0
 15  9  1  0  0  0  0
 16  9  1  0  0  0  0
 16 14  1  6  0  0  0
 18 20  2  0  0  0  0
 19 17  1  0  0  0  0
 20 19  1  0  0  0  0
 21 25  1  0  0  0  0
 22 21  2  0  0  0  0
 22 23  1  0  0  0  0
 23 26  2  0  0  0  0
 25 24  2  0  0  0  0
 26 24  1  0  0  0  0
 26 20  1  0  0  0  0
M  END
>  <MODEL>
9

>  <REMARK>
 VINA RESULT:      -7.4      2.228      5.670
  Name = 
  4 active torsions:
  status: ('A' for Active; 'I' for Inactive)
    1  A    between atoms: C_2  and  C_13
    2  A    between atoms: C_2  and  N_16
    3  A    between atoms: C_5  and  N_6
    4  A    between atoms: C_24  and  C_25
                            x       y       z     vdW  Elec       q    Type
                         _______ _______ _______ _____ _____    ______ ____

>  <TORSDO>
F 4

$$$$
