=
 OpenBabel11062416153D

 44 49  0  0  1  0  0  0  0  0999 V2000
  184.6820  179.5810  144.2720 C   0  0  0  0  0  2  0  0  0  0  0  0
  183.3470  179.3180  144.9490 C   0  0  0  0  0  2  0  0  0  0  0  0
  182.5200  178.3840  144.0920 C   0  0  0  0  0  2  0  0  0  0  0  0
  181.9720  179.1350  142.8840 C   0  0  1  0  0  3  0  0  0  0  0  0
  182.1440  178.3310  141.6200 C   0  0  2  0  0  3  0  0  0  0  0  0
  181.6920  178.3480  138.3610 O   0  0  0  0  0  0  0  0  0  0  0  0
  180.4790  179.4660  142.9690 C   0  0  1  0  0  3  0  0  0  0  0  0
  179.4620  177.6350  141.0580 S   0  0  0  0  0  0  0  0  0  0  0  0
  181.0760  179.2140  139.3100 C   0  0  1  0  0  3  0  0  0  0  0  0
  183.4630  178.6400  140.9620 C   0  0  0  0  0  3  0  0  0  0  0  0
  179.9190  179.3700  141.5480 C   0  0  2  0  0  3  0  0  0  0  0  0
  183.7300  178.2510  139.7080 C   0  0  0  0  0  0  0  0  0  0  0  0
  179.7890  178.6090  143.8340 O   0  0  0  0  0  1  0  0  0  0  0  0
  180.9340  178.6780  140.7510 C   0  0  2  0  0  0  0  0  0  0  0  0
  182.6910  177.5060  138.9120 C   0  0  0  0  0  2  0  0  0  0  0  0
  185.0880  178.0900  137.7780 O   0  0  0  0  0  1  0  0  0  0  0  0
  185.0660  178.5260  139.1040 C   0  0  0  0  0  2  0  0  0  0  0  0
  181.7000  180.4680  139.3000 O   0  0  0  0  0  0  0  0  0  0  0  0
  179.4930  182.1290  139.5880 O   0  0  0  0  0  1  0  0  0  0  0  0
  180.6300  181.5110  138.4970 P   0  0  0  0  0  0  0  0  0  0  0  0
  181.3940  182.6530  137.8630 O   0  0  0  0  0  1  0  0  0  0  0  0
  179.8230  180.6470  137.2890 O   0  0  0  0  0  0  0  0  0  0  0  0
  185.7560  178.5570  144.6630 C   0  0  1  0  0  3  0  0  0  0  0  0
  185.6200  178.0590  146.1070 C   0  0  0  0  0  2  0  0  0  0  0  0
  186.4070  178.8580  147.1020 C   0  0  0  0  0  0  0  0  0  0  0  0
  185.8570  179.7460  147.7390 O   0  0  0  0  0  0  0  0  0  0  0  0
  188.1590  178.0040  148.6900 C   0  0  0  0  0  2  0  0  0  0  0  0
  187.8640  178.5350  147.2960 C   0  0  0  0  0  3  0  0  0  0  0  0
  188.0330  177.0450  147.5250 C   0  0  0  0  0  2  0  0  0  0  0  0
  185.9340  177.4190  143.6550 C   0  0  0  0  0  2  0  0  0  0  0  0
  187.4260  177.9310  141.7970 C   0  0  0  0  0  3  0  0  0  0  0  0
  188.6870  177.4140  139.7960 O   0  0  0  0  0  0  0  0  0  0  0  0
  188.6640  178.7570  139.9020 O   0  0  0  0  0  0  0  0  0  0  0  0
  188.7230  177.9930  141.0410 C   0  0  0  0  0  0  0  0  0  0  0  0
  189.3060  175.9490  143.0880 C   0  0  0  0  0  2  0  0  0  0  0  0
  190.4410  176.6140  142.2920 C   0  0  1  0  0  3  0  0  0  0  0  0
  187.2970  177.4380  143.0410 C   0  0  0  0  0  0  0  0  0  0  0  0
  188.4640  176.9560  143.8630 C   0  0  0  0  0  2  0  0  0  0  0  0
  190.0860  177.9890  141.7160 C   0  0  0  0  0  2  0  0  0  0  0  0
  191.6930  176.7440  143.1470 C   0  0  0  0  0  2  0  0  0  0  0  0
  191.7480  175.6640  144.2190 C   0  0  0  0  0  2  0  0  0  0  0  0
  192.2370  175.4680  146.6580 O   0  0  0  0  0  1  0  0  0  0  0  0
  191.8680  176.2600  145.5790 C   0  0  0  0  0  0  0  0  0  0  0  0
  191.6430  177.4870  145.7490 O   0  0  0  0  0  0  0  0  0  0  0  0
  1 23  1  0  0  0  0
  1  2  1  0  0  0  0
  3  2  1  0  0  0  0
  4  7  1  0  0  0  0
  4  3  1  1  0  0  0
  5 10  1  6  0  0  0
  5  4  1  0  0  0  0
  6 15  1  0  0  0  0
  6  9  1  0  0  0  0
  7 13  1  1  0  0  0
  9 18  1  1  0  0  0
  9 14  1  0  0  0  0
 11  8  1  1  0  0  0
 11  7  1  0  0  0  0
 12 10  2  0  0  0  0
 14  8  1  6  0  0  0
 14 11  1  0  0  0  0
 14  5  1  0  0  0  0
 15 12  1  0  0  0  0
 16 17  1  0  0  0  0
 17 12  1  0  0  0  0
 20 18  1  0  0  0  0
 20 19  1  0  0  0  0
 21 20  1  0  0  0  0
 22 20  2  0  0  0  0
 23 30  1  6  0  0  0
 23 24  1  0  0  0  0
 24 25  1  0  0  0  0
 25 28  1  0  0  0  0
 25 26  2  0  0  0  0
 28 29  1  0  0  0  0
 28 27  1  0  0  0  0
 29 27  1  0  0  0  0
 31 37  2  0  0  0  0
 32 33  1  0  0  0  0
 32 34  1  0  0  0  0
 33 34  1  0  0  0  0
 34 39  1  0  0  0  0
 34 31  1  0  0  0  0
 35 38  1  0  0  0  0
 36 35  1  0  0  0  0
 36 40  1  1  0  0  0
 37 30  1  0  0  0  0
 37 38  1  0  0  0  0
 39 36  1  0  0  0  0
 40 41  1  0  0  0  0
 41 43  1  0  0  0  0
 43 44  2  0  0  0  0
 43 42  1  0  0  0  0
M  END
>  <MODEL>
1

>  <REMARK>
 VINA RESULT:      -8.4      0.000      0.000
  Name = 
  15 active torsions:
  status: ('A' for Active; 'I' for Inactive)
    1  A    between atoms: O_2  and  C_23
    2  A    between atoms: O_2  and  P_30
    3  A    between atoms: C_3  and  C_4
    4  A    between atoms: C_3  and  C_33
    5  A    between atoms: C_4  and  C_21
    6  A    between atoms: C_5  and  C_15
    7  A    between atoms: C_5  and  C_28
    8  A    between atoms: C_9  and  C_35
    9  A    between atoms: C_13  and  C_18
   10  A    between atoms: C_15  and  C_35
   11  A    between atoms: C_18  and  C_38
   12  A    between atoms: C_27  and  C_43
   13  A    between atoms: C_28  and  C_38
   14  A    between atoms: C_28  and  C_42
   15  A    between atoms: C_34  and  C_42
                            x       y       z     vdW  Elec       q    Type
                         _______ _______ _______ _____ _____    ______ ____

>  <TORSDO>
F 15

$$$$
=
 OpenBabel11062416153D

 44 49  0  0  1  0  0  0  0  0999 V2000
  185.3800  178.3720  143.7450 C   0  0  0  0  0  2  0  0  0  0  0  0
  184.2350  179.2470  144.2270 C   0  0  0  0  0  2  0  0  0  0  0  0
  182.9180  178.5450  143.9710 C   0  0  0  0  0  2  0  0  0  0  0  0
  182.1800  179.2270  142.8250 C   0  0  1  0  0  3  0  0  0  0  0  0
  182.2820  178.4190  141.5560 C   0  0  2  0  0  3  0  0  0  0  0  0
  181.4790  178.3440  138.3660 O   0  0  0  0  0  0  0  0  0  0  0  0
  180.6820  179.4320  143.0700 C   0  0  1  0  0  3  0  0  0  0  0  0
  179.6250  177.4890  141.2960 S   0  0  0  0  0  0  0  0  0  0  0  0
  180.8980  179.1700  139.3700 C   0  0  1  0  0  3  0  0  0  0  0  0
  183.4910  178.8280  140.7550 C   0  0  0  0  0  3  0  0  0  0  0  0
  179.9820  179.2650  141.7200 C   0  0  2  0  0  3  0  0  0  0  0  0
  183.6520  178.4420  139.4820 C   0  0  0  0  0  0  0  0  0  0  0  0
  180.1670  178.5340  144.0120 O   0  0  0  0  0  1  0  0  0  0  0  0
  180.9590  178.6480  140.8220 C   0  0  2  0  0  0  0  0  0  0  0  0
  182.6010  177.5990  138.8100 C   0  0  0  0  0  2  0  0  0  0  0  0
  186.0020  178.6980  139.5610 O   0  0  0  0  0  1  0  0  0  0  0  0
  184.8860  178.8200  138.7330 C   0  0  0  0  0  2  0  0  0  0  0  0
  181.4070  180.4720  139.2830 O   0  0  0  0  0  0  0  0  0  0  0  0
  180.8360  182.6320  137.6330 O   0  0  0  0  0  0  0  0  0  0  0  0
  180.1700  181.4070  138.5940 P   0  0  0  0  0  0  0  0  0  0  0  0
  179.2690  180.5350  137.7470 O   0  0  0  0  0  1  0  0  0  0  0  0
  179.2580  182.1110  139.8300 O   0  0  0  0  0  1  0  0  0  0  0  0
  186.3770  178.0340  144.8610 C   0  0  1  0  0  3  0  0  0  0  0  0
  185.7450  178.0330  146.2580 C   0  0  0  0  0  2  0  0  0  0  0  0
  186.4920  178.8570  147.2630 C   0  0  0  0  0  0  0  0  0  0  0  0
  185.9270  179.7820  147.8310 O   0  0  0  0  0  0  0  0  0  0  0  0
  188.1520  178.1480  149.0130 C   0  0  0  0  0  2  0  0  0  0  0  0
  187.9280  178.5130  147.5540 C   0  0  0  0  0  3  0  0  0  0  0  0
  188.0330  177.0580  147.9690 C   0  0  0  0  0  2  0  0  0  0  0  0
  187.2230  176.7870  144.5890 C   0  0  0  0  0  2  0  0  0  0  0  0
  189.4870  177.6510  144.3270 C   0  0  0  0  0  3  0  0  0  0  0  0
  191.1370  179.3450  143.8090 O   0  0  0  0  0  0  0  0  0  0  0  0
  191.7910  178.3460  144.4330 O   0  0  0  0  0  0  0  0  0  0  0  0
  190.7410  178.0470  143.6020 C   0  0  0  0  0  0  0  0  0  0  0  0
  188.7740  177.9300  141.4040 C   0  0  0  0  0  2  0  0  0  0  0  0
  190.2840  177.9530  141.1110 C   0  0  1  0  0  3  0  0  0  0  0  0
  188.4100  177.1050  143.7370 C   0  0  0  0  0  0  0  0  0  0  0  0
  188.3620  176.7470  142.2740 C   0  0  0  0  0  2  0  0  0  0  0  0
  191.1580  177.4500  142.2650 C   0  0  0  0  0  2  0  0  0  0  0  0
  190.6010  177.1440  139.8620 C   0  0  0  0  0  2  0  0  0  0  0  0
  189.3790  177.0070  138.9640 C   0  0  0  0  0  2  0  0  0  0  0  0
  189.0100  179.2650  137.9660 O   0  0  0  0  0  1  0  0  0  0  0  0
  189.4460  177.9550  137.8160 C   0  0  0  0  0  0  0  0  0  0  0  0
  189.9070  177.5700  136.7100 O   0  0  0  0  0  0  0  0  0  0  0  0
  1  2  1  0  0  0  0
  3  2  1  0  0  0  0
  4  7  1  0  0  0  0
  4  3  1  1  0  0  0
  5 10  1  6  0  0  0
  5  4  1  0  0  0  0
  6 15  1  0  0  0  0
  6  9  1  0  0  0  0
  7 13  1  1  0  0  0
  9 18  1  1  0  0  0
  9 14  1  0  0  0  0
 11  8  1  1  0  0  0
 11  7  1  0  0  0  0
 12 10  2  0  0  0  0
 14  8  1  6  0  0  0
 14  5  1  0  0  0  0
 14 11  1  0  0  0  0
 15 12  1  0  0  0  0
 17 12  1  0  0  0  0
 17 16  1  0  0  0  0
 19 20  2  0  0  0  0
 20 18  1  0  0  0  0
 20 22  1  0  0  0  0
 21 20  1  0  0  0  0
 23  1  1  6  0  0  0
 23 24  1  0  0  0  0
 24 25  1  0  0  0  0
 25 28  1  0  0  0  0
 25 26  2  0  0  0  0
 28 29  1  0  0  0  0
 28 27  1  0  0  0  0
 29 27  1  0  0  0  0
 30 23  1  0  0  0  0
 32 33  1  0  0  0  0
 34 32  1  0  0  0  0
 34 31  1  0  0  0  0
 34 33  1  0  0  0  0
 35 38  1  0  0  0  0
 36 40  1  6  0  0  0
 36 35  1  0  0  0  0
 36 39  1  0  0  0  0
 37 31  2  0  0  0  0
 37 30  1  0  0  0  0
 38 37  1  0  0  0  0
 39 34  1  0  0  0  0
 41 40  1  0  0  0  0
 43 42  1  0  0  0  0
 43 41  1  0  0  0  0
 44 43  2  0  0  0  0
M  END
>  <MODEL>
2

>  <REMARK>
 VINA RESULT:      -8.0      1.227      3.136
  Name = 
  15 active torsions:
  status: ('A' for Active; 'I' for Inactive)
    1  A    between atoms: O_2  and  C_23
    2  A    between atoms: O_2  and  P_30
    3  A    between atoms: C_3  and  C_4
    4  A    between atoms: C_3  and  C_33
    5  A    between atoms: C_4  and  C_21
    6  A    between atoms: C_5  and  C_15
    7  A    between atoms: C_5  and  C_28
    8  A    between atoms: C_9  and  C_35
    9  A    between atoms: C_13  and  C_18
   10  A    between atoms: C_15  and  C_35
   11  A    between atoms: C_18  and  C_38
   12  A    between atoms: C_27  and  C_43
   13  A    between atoms: C_28  and  C_38
   14  A    between atoms: C_28  and  C_42
   15  A    between atoms: C_34  and  C_42
                            x       y       z     vdW  Elec       q    Type
                         _______ _______ _______ _____ _____    ______ ____

>  <TORSDO>
F 15

$$$$
=
 OpenBabel11062416153D

 44 49  0  0  1  0  0  0  0  0999 V2000
  184.5200  179.4000  143.6170 C   0  0  0  0  0  2  0  0  0  0  0  0
  183.3460  178.5480  143.1630 C   0  0  0  0  0  2  0  0  0  0  0  0
  182.9050  178.9860  141.7830 C   0  0  0  0  0  2  0  0  0  0  0  0
  183.3710  177.9740  140.7430 C   0  0  1  0  0  3  0  0  0  0  0  0
  182.2420  177.5780  139.8250 C   0  0  2  0  0  3  0  0  0  0  0  0
  181.4080  175.6490  137.2930 O   0  0  0  0  0  0  0  0  0  0  0  0
  184.4950  178.4750  139.8310 C   0  0  1  0  0  3  0  0  0  0  0  0
  183.0490  178.8180  137.4160 S   0  0  0  0  0  0  0  0  0  0  0  0
  182.7280  175.9950  137.7000 C   0  0  1  0  0  3  0  0  0  0  0  0
  181.5030  176.3820  140.3670 C   0  0  0  0  0  3  0  0  0  0  0  0
  184.2590  177.8560  138.4520 C   0  0  2  0  0  3  0  0  0  0  0  0
  180.6350  175.6940  139.6130 C   0  0  0  0  0  0  0  0  0  0  0  0
  184.5350  179.8720  139.7500 O   0  0  0  0  0  1  0  0  0  0  0  0
  182.8940  177.3260  138.4640 C   0  0  2  0  0  0  0  0  0  0  0  0
  180.3960  176.0940  138.1810 C   0  0  0  0  0  2  0  0  0  0  0  0
  179.7650  173.5240  139.2520 O   0  0  0  0  0  1  0  0  0  0  0  0
  179.8800  174.5460  140.1950 C   0  0  0  0  0  2  0  0  0  0  0  0
  183.3130  174.9360  138.4060 O   0  0  0  0  0  0  0  0  0  0  0  0
  183.5310  173.7340  135.9120 O   0  0  0  0  0  0  0  0  0  0  0  0
  184.3680  174.1790  137.3140 P   0  0  0  0  0  0  0  0  0  0  0  0
  185.5000  175.1160  136.9500 O   0  0  0  0  0  1  0  0  0  0  0  0
  185.0080  172.7920  138.0380 O   0  0  0  0  0  1  0  0  0  0  0  0
  185.4580  178.6530  144.5740 C   0  0  1  0  0  3  0  0  0  0  0  0
  184.9480  178.6200  146.0190 C   0  0  0  0  0  2  0  0  0  0  0  0
  186.0110  178.8730  147.0460 C   0  0  0  0  0  0  0  0  0  0  0  0
  186.0650  179.9570  147.6100 O   0  0  0  0  0  0  0  0  0  0  0  0
  188.4200  178.1580  147.0390 C   0  0  0  0  0  2  0  0  0  0  0  0
  186.9860  177.7710  147.3610 C   0  0  0  0  0  3  0  0  0  0  0  0
  187.9240  178.2160  148.4670 C   0  0  0  0  0  2  0  0  0  0  0  0
  185.9040  177.2790  144.0690 C   0  0  0  0  0  2  0  0  0  0  0  0
  187.2870  177.9740  142.1860 C   0  0  0  0  0  3  0  0  0  0  0  0
  188.4150  177.6630  140.0670 O   0  0  0  0  0  0  0  0  0  0  0  0
  188.4180  178.9870  140.3160 O   0  0  0  0  0  0  0  0  0  0  0  0
  188.5350  178.1060  141.3610 C   0  0  0  0  0  0  0  0  0  0  0  0
  189.2130  175.8490  143.1390 C   0  0  0  0  0  2  0  0  0  0  0  0
  190.3070  176.5860  142.3480 C   0  0  1  0  0  3  0  0  0  0  0  0
  187.2270  177.3520  143.3760 C   0  0  0  0  0  0  0  0  0  0  0  0
  188.4350  176.7750  144.0680 C   0  0  0  0  0  2  0  0  0  0  0  0
  189.9380  178.0180  141.9450 C   0  0  0  0  0  2  0  0  0  0  0  0
  191.6110  176.6140  143.1320 C   0  0  0  0  0  2  0  0  0  0  0  0
  191.4700  177.4240  144.4140 C   0  0  0  0  0  2  0  0  0  0  0  0
  192.0990  175.2500  145.4670 O   0  0  0  0  0  0  0  0  0  0  0  0
  191.7770  176.5930  145.6130 C   0  0  0  0  0  0  0  0  0  0  0  0
  191.7550  177.1130  146.7590 O   0  0  0  0  0  1  0  0  0  0  0  0
  2  1  1  0  0  0  0
  3  2  1  0  0  0  0
  4  3  1  1  0  0  0
  5 10  1  1  0  0  0
  5  4  1  0  0  0  0
  6  9  1  0  0  0  0
  6 15  1  0  0  0  0
  7 13  1  6  0  0  0
  7  4  1  0  0  0  0
  9 18  1  1  0  0  0
  9 14  1  0  0  0  0
 11  8  1  6  0  0  0
 11 14  1  0  0  0  0
 11  7  1  0  0  0  0
 12 17  1  0  0  0  0
 12 10  2  0  0  0  0
 14  8  1  6  0  0  0
 14  5  1  0  0  0  0
 15 12  1  0  0  0  0
 16 17  1  0  0  0  0
 19 20  2  0  0  0  0
 20 22  1  0  0  0  0
 20 18  1  0  0  0  0
 21 20  1  0  0  0  0
 23  1  1  6  0  0  0
 23 24  1  0  0  0  0
 24 25  1  0  0  0  0
 25 28  1  0  0  0  0
 25 26  2  0  0  0  0
 27 28  1  0  0  0  0
 27 29  1  0  0  0  0
 28 29  1  0  0  0  0
 30 23  1  0  0  0  0
 31 37  2  0  0  0  0
 32 33  1  0  0  0  0
 32 34  1  0  0  0  0
 33 34  1  0  0  0  0
 34 39  1  0  0  0  0
 34 31  1  0  0  0  0
 35 38  1  0  0  0  0
 36 40  1  1  0  0  0
 36 35  1  0  0  0  0
 37 38  1  0  0  0  0
 37 30  1  0  0  0  0
 39 36  1  0  0  0  0
 40 41  1  0  0  0  0
 41 43  1  0  0  0  0
 42 43  2  0  0  0  0
 43 44  1  0  0  0  0
M  END
>  <MODEL>
3

>  <REMARK>
 VINA RESULT:      -7.6      2.550      3.970
  Name = 
  15 active torsions:
  status: ('A' for Active; 'I' for Inactive)
    1  A    between atoms: O_2  and  C_23
    2  A    between atoms: O_2  and  P_30
    3  A    between atoms: C_3  and  C_4
    4  A    between atoms: C_3  and  C_33
    5  A    between atoms: C_4  and  C_21
    6  A    between atoms: C_5  and  C_15
    7  A    between atoms: C_5  and  C_28
    8  A    between atoms: C_9  and  C_35
    9  A    between atoms: C_13  and  C_18
   10  A    between atoms: C_15  and  C_35
   11  A    between atoms: C_18  and  C_38
   12  A    between atoms: C_27  and  C_43
   13  A    between atoms: C_28  and  C_38
   14  A    between atoms: C_28  and  C_42
   15  A    between atoms: C_34  and  C_42
                            x       y       z     vdW  Elec       q    Type
                         _______ _______ _______ _____ _____    ______ ____

>  <TORSDO>
F 15

$$$$
=
 OpenBabel11062416153D

 44 49  0  0  1  0  0  0  0  0999 V2000
  186.1360  178.0680  138.3630 C   0  0  0  0  0  2  0  0  0  0  0  0
  185.7580  177.7920  136.9170 C   0  0  0  0  0  2  0  0  0  0  0  0
  184.3640  177.2030  136.8610 C   0  0  0  0  0  2  0  0  0  0  0  0
  183.6790  177.3620  138.2140 C   0  0  1  0  0  3  0  0  0  0  0  0
  182.3540  178.0700  138.0730 C   0  0  2  0  0  3  0  0  0  0  0  0
  179.7700  179.2550  139.7280 O   0  0  0  0  0  0  0  0  0  0  0  0
  183.3730  176.0420  138.9270 C   0  0  1  0  0  3  0  0  0  0  0  0
  180.5570  175.9550  138.6120 S   0  0  0  0  0  0  0  0  0  0  0  0
  180.7290  178.3180  140.2070 C   0  0  1  0  0  3  0  0  0  0  0  0
  182.5250  179.5600  138.2090 C   0  0  0  0  0  3  0  0  0  0  0  0
  182.0550  176.2350  139.6790 C   0  0  2  0  0  3  0  0  0  0  0  0
  181.4740  180.3740  138.3770 C   0  0  0  0  0  0  0  0  0  0  0  0
  183.2860  174.9630  138.0390 O   0  0  0  0  0  1  0  0  0  0  0  0
  181.4520  177.4590  139.1470 C   0  0  2  0  0  0  0  0  0  0  0  0
  180.0830  179.8020  138.4580 C   0  0  0  0  0  2  0  0  0  0  0  0
  180.7870  182.4960  137.5900 O   0  0  0  0  0  1  0  0  0  0  0  0
  181.6710  181.8500  138.4550 C   0  0  0  0  0  2  0  0  0  0  0  0
  181.6500  178.9520  141.0510 O   0  0  0  0  0  0  0  0  0  0  0  0
  179.7200  177.8380  142.7070 O   0  0  0  0  0  0  0  0  0  0  0  0
  180.8980  179.0450  142.5690 P   0  0  0  0  0  0  0  0  0  0  0  0
  181.9240  178.8780  143.6690 O   0  0  0  0  0  1  0  0  0  0  0  0
  180.1600  180.5570  142.7250 O   0  0  0  0  0  1  0  0  0  0  0  0
  187.4640  177.4130  138.7620 C   0  0  1  0  0  3  0  0  0  0  0  0
  188.1240  176.6340  137.6180 C   0  0  0  0  0  2  0  0  0  0  0  0
  189.3070  177.3270  137.0140 C   0  0  0  0  0  0  0  0  0  0  0  0
  189.2090  178.4920  136.6520 O   0  0  0  0  0  0  0  0  0  0  0  0
  191.4690  176.6720  138.1160 C   0  0  0  0  0  2  0  0  0  0  0  0
  190.5970  176.5650  136.8760 C   0  0  0  0  0  3  0  0  0  0  0  0
  190.6340  175.4310  137.8830 C   0  0  0  0  0  2  0  0  0  0  0  0
  188.4360  178.3530  139.4800 C   0  0  0  0  0  2  0  0  0  0  0  0
  189.7290  177.2900  141.2510 C   0  0  0  0  0  3  0  0  0  0  0  0
  190.3270  175.4730  142.7350 O   0  0  0  0  0  0  0  0  0  0  0  0
  191.3280  176.3710  142.8000 O   0  0  0  0  0  0  0  0  0  0  0  0
  190.0390  176.8120  142.6410 C   0  0  0  0  0  0  0  0  0  0  0  0
  187.1190  177.2280  142.7740 C   0  0  0  0  0  2  0  0  0  0  0  0
  187.9530  177.0740  144.0570 C   0  0  1  0  0  3  0  0  0  0  0  0
  188.6180  177.9660  140.9120 C   0  0  0  0  0  0  0  0  0  0  0  0
  187.5770  178.3990  141.9130 C   0  0  0  0  0  2  0  0  0  0  0  0
  189.4350  177.4310  143.8930 C   0  0  0  0  0  2  0  0  0  0  0  0
  187.3650  177.9100  145.1840 C   0  0  0  0  0  2  0  0  0  0  0  0
  185.8520  178.0220  145.0600 C   0  0  0  0  0  2  0  0  0  0  0  0
  186.0730  179.0660  147.3170 O   0  0  0  0  0  1  0  0  0  0  0  0
  185.2630  178.6990  146.2500 C   0  0  0  0  0  0  0  0  0  0  0  0
  184.0300  178.9480  146.2850 O   0  0  0  0  0  0  0  0  0  0  0  0
  1 23  1  0  0  0  0
  2  1  1  0  0  0  0
  3  2  1  0  0  0  0
  4  3  1  6  0  0  0
  4  7  1  0  0  0  0
  5 10  1  1  0  0  0
  5  4  1  0  0  0  0
  5 14  1  0  0  0  0
  6  9  1  0  0  0  0
  7 13  1  6  0  0  0
  7 11  1  0  0  0  0
  9 18  1  6  0  0  0
 10 12  2  0  0  0  0
 11  8  1  6  0  0  0
 12 17  1  0  0  0  0
 12 15  1  0  0  0  0
 14  8  1  6  0  0  0
 14 11  1  0  0  0  0
 14  9  1  0  0  0  0
 15  6  1  0  0  0  0
 16 17  1  0  0  0  0
 18 20  1  0  0  0  0
 20 19  2  0  0  0  0
 20 22  1  0  0  0  0
 20 21  1  0  0  0  0
 23 24  1  6  0  0  0
 23 30  1  0  0  0  0
 25 24  1  0  0  0  0
 26 25  2  0  0  0  0
 28 25  1  0  0  0  0
 28 29  1  0  0  0  0
 28 27  1  0  0  0  0
 29 27  1  0  0  0  0
 30 37  1  0  0  0  0
 31 34  1  0  0  0  0
 32 33  1  0  0  0  0
 34 32  1  0  0  0  0
 34 33  1  0  0  0  0
 34 39  1  0  0  0  0
 35 36  1  0  0  0  0
 36 40  1  1  0  0  0
 37 31  2  0  0  0  0
 37 38  1  0  0  0  0
 38 35  1  0  0  0  0
 39 36  1  0  0  0  0
 41 40  1  0  0  0  0
 41 43  1  0  0  0  0
 43 44  2  0  0  0  0
 43 42  1  0  0  0  0
M  END
>  <MODEL>
4

>  <REMARK>
 VINA RESULT:      -7.3      2.429      6.072
  Name = 
  15 active torsions:
  status: ('A' for Active; 'I' for Inactive)
    1  A    between atoms: O_2  and  C_23
    2  A    between atoms: O_2  and  P_30
    3  A    between atoms: C_3  and  C_4
    4  A    between atoms: C_3  and  C_33
    5  A    between atoms: C_4  and  C_21
    6  A    between atoms: C_5  and  C_15
    7  A    between atoms: C_5  and  C_28
    8  A    between atoms: C_9  and  C_35
    9  A    between atoms: C_13  and  C_18
   10  A    between atoms: C_15  and  C_35
   11  A    between atoms: C_18  and  C_38
   12  A    between atoms: C_27  and  C_43
   13  A    between atoms: C_28  and  C_38
   14  A    between atoms: C_28  and  C_42
   15  A    between atoms: C_34  and  C_42
                            x       y       z     vdW  Elec       q    Type
                         _______ _______ _______ _____ _____    ______ ____

>  <TORSDO>
F 15

$$$$
=
 OpenBabel11062416153D

 44 49  0  0  1  0  0  0  0  0999 V2000
  187.4730  177.9080  140.6990 C   0  0  0  0  0  2  0  0  0  0  0  0
  188.7230  178.6990  140.3510 C   0  0  0  0  0  2  0  0  0  0  0  0
  188.9650  178.6350  138.8580 C   0  0  0  0  0  2  0  0  0  0  0  0
  188.6300  177.2420  138.3380 C   0  0  1  0  0  3  0  0  0  0  0  0
  187.8970  177.3150  137.0220 C   0  0  2  0  0  3  0  0  0  0  0  0
  186.4410  175.5290  134.6730 O   0  0  0  0  0  0  0  0  0  0  0  0
  189.8500  176.3500  138.0880 C   0  0  1  0  0  3  0  0  0  0  0  0
  189.8720  176.3350  135.2520 S   0  0  0  0  0  0  0  0  0  0  0  0
  187.3520  175.0550  135.6600 C   0  0  1  0  0  3  0  0  0  0  0  0
  186.4080  177.3730  137.2400 C   0  0  0  0  0  3  0  0  0  0  0  0
  189.5260  175.4830  136.8690 C   0  0  2  0  0  3  0  0  0  0  0  0
  185.5440  177.1840  136.2340 C   0  0  0  0  0  0  0  0  0  0  0  0
  191.0190  177.0900  137.8740 O   0  0  0  0  0  1  0  0  0  0  0  0
  188.3500  176.0820  136.2360 C   0  0  2  0  0  0  0  0  0  0  0  0
  186.0530  176.8810  134.8490 C   0  0  0  0  0  2  0  0  0  0  0  0
  183.6470  176.2760  137.3170 O   0  0  0  0  0  1  0  0  0  0  0  0
  184.0760  177.3000  136.4710 C   0  0  0  0  0  2  0  0  0  0  0  0
  186.6590  174.3990  136.6860 O   0  0  0  0  0  0  0  0  0  0  0  0
  187.8910  172.0570  137.5260 O   0  0  0  0  0  1  0  0  0  0  0  0
  186.8460  172.7400  136.3830 P   0  0  0  0  0  0  0  0  0  0  0  0
  185.5040  172.0450  136.4460 O   0  0  0  0  0  1  0  0  0  0  0  0
  187.5050  172.5340  134.8400 O   0  0  0  0  0  0  0  0  0  0  0  0
  186.8470  178.3440  142.0290 C   0  0  1  0  0  3  0  0  0  0  0  0
  185.7470  179.4000  141.8650 C   0  0  0  0  0  2  0  0  0  0  0  0
  184.3800  178.8250  141.6470 C   0  0  0  0  0  0  0  0  0  0  0  0
  183.6040  178.7290  142.5880 O   0  0  0  0  0  0  0  0  0  0  0  0
  182.8300  179.1830  139.7010 C   0  0  0  0  0  2  0  0  0  0  0  0
  183.9960  178.3840  140.2600 C   0  0  0  0  0  3  0  0  0  0  0  0
  184.2460  179.5110  139.2760 C   0  0  0  0  0  2  0  0  0  0  0  0
  186.4270  177.1830  142.9340 C   0  0  0  0  0  2  0  0  0  0  0  0
  185.9350  178.0260  145.1680 C   0  0  0  0  0  3  0  0  0  0  0  0
  185.9740  179.6700  146.9440 O   0  0  0  0  0  0  0  0  0  0  0  0
  185.0730  178.7350  147.3020 O   0  0  0  0  0  0  0  0  0  0  0  0
  186.1950  178.3570  146.6100 C   0  0  0  0  0  0  0  0  0  0  0  0
  188.9320  178.0330  145.5520 C   0  0  0  0  0  2  0  0  0  0  0  0
  188.6670  178.0340  147.0670 C   0  0  1  0  0  3  0  0  0  0  0  0
  186.8210  177.4240  144.3560 C   0  0  0  0  0  0  0  0  0  0  0  0
  188.1680  176.9340  144.8220 C   0  0  0  0  0  2  0  0  0  0  0  0
  187.2380  177.6420  147.4570 C   0  0  0  0  0  2  0  0  0  0  0  0
  189.6440  177.1150  147.7850 C   0  0  0  0  0  2  0  0  0  0  0  0
  191.0370  177.2020  147.1760 C   0  0  0  0  0  2  0  0  0  0  0  0
  193.0770  176.3810  148.3570 O   0  0  0  0  0  1  0  0  0  0  0  0
  191.9090  176.0950  147.6630 C   0  0  0  0  0  0  0  0  0  0  0  0
  191.5800  174.8990  147.4540 O   0  0  0  0  0  0  0  0  0  0  0  0
  2  1  1  0  0  0  0
  3  2  1  0  0  0  0
  4  3  1  6  0  0  0
  5 10  1  1  0  0  0
  5  4  1  0  0  0  0
  6 15  1  0  0  0  0
  6  9  1  0  0  0  0
  7 13  1  6  0  0  0
  7  4  1  0  0  0  0
  9 14  1  0  0  0  0
  9 18  1  1  0  0  0
 11  8  1  6  0  0  0
 11  7  1  0  0  0  0
 12 17  1  0  0  0  0
 12 10  2  0  0  0  0
 14  8  1  6  0  0  0
 14 11  1  0  0  0  0
 14  5  1  0  0  0  0
 15 12  1  0  0  0  0
 17 16  1  0  0  0  0
 20 21  1  0  0  0  0
 20 18  1  0  0  0  0
 20 19  1  0  0  0  0
 22 20  2  0  0  0  0
 23  1  1  6  0  0  0
 23 30  1  0  0  0  0
 24 23  1  0  0  0  0
 25 24  1  0  0  0  0
 25 26  2  0  0  0  0
 27 28  1  0  0  0  0
 28 25  1  0  0  0  0
 29 27  1  0  0  0  0
 29 28  1  0  0  0  0
 30 37  1  0  0  0  0
 31 34  1  0  0  0  0
 32 33  1  0  0  0  0
 34 32  1  0  0  0  0
 34 33  1  0  0  0  0
 34 39  1  0  0  0  0
 35 36  1  0  0  0  0
 36 39  1  0  0  0  0
 36 40  1  1  0  0  0
 37 38  1  0  0  0  0
 37 31  2  0  0  0  0
 38 35  1  0  0  0  0
 41 43  1  0  0  0  0
 41 40  1  0  0  0  0
 43 42  1  0  0  0  0
 44 43  2  0  0  0  0
M  END
>  <MODEL>
5

>  <REMARK>
 VINA RESULT:      -7.1      3.860      7.403
  Name = 
  15 active torsions:
  status: ('A' for Active; 'I' for Inactive)
    1  A    between atoms: O_2  and  C_23
    2  A    between atoms: O_2  and  P_30
    3  A    between atoms: C_3  and  C_4
    4  A    between atoms: C_3  and  C_33
    5  A    between atoms: C_4  and  C_21
    6  A    between atoms: C_5  and  C_15
    7  A    between atoms: C_5  and  C_28
    8  A    between atoms: C_9  and  C_35
    9  A    between atoms: C_13  and  C_18
   10  A    between atoms: C_15  and  C_35
   11  A    between atoms: C_18  and  C_38
   12  A    between atoms: C_27  and  C_43
   13  A    between atoms: C_28  and  C_38
   14  A    between atoms: C_28  and  C_42
   15  A    between atoms: C_34  and  C_42
                            x       y       z     vdW  Elec       q    Type
                         _______ _______ _______ _____ _____    ______ ____

>  <TORSDO>
F 15

$$$$
=
 OpenBabel11062416153D

 44 49  0  0  1  0  0  0  0  0999 V2000
  185.2830  179.0340  143.6210 C   0  0  0  0  0  2  0  0  0  0  0  0
  184.3990  178.0320  142.8960 C   0  0  0  0  0  2  0  0  0  0  0  0
  183.4880  178.7630  141.9330 C   0  0  0  0  0  2  0  0  0  0  0  0
  183.3670  177.9740  140.6340 C   0  0  1  0  0  3  0  0  0  0  0  0
  181.9450  177.9710  140.1300 C   0  0  2  0  0  3  0  0  0  0  0  0
  179.9490  176.8400  137.7710 O   0  0  0  0  0  0  0  0  0  0  0  0
  184.2170  178.5180  139.4820 C   0  0  1  0  0  3  0  0  0  0  0  0
  182.1800  179.6280  137.8520 S   0  0  0  0  0  0  0  0  0  0  0  0
  181.3720  176.8920  137.7290 C   0  0  1  0  0  3  0  0  0  0  0  0
  181.1830  176.7940  140.6810 C   0  0  0  0  0  3  0  0  0  0  0  0
  183.4230  178.2880  138.1940 C   0  0  2  0  0  3  0  0  0  0  0  0
  179.9930  176.4340  140.1830 C   0  0  0  0  0  0  0  0  0  0  0  0
  184.5260  179.8740  139.6390 O   0  0  0  0  0  1  0  0  0  0  0  0
  182.0550  177.9650  138.6040 C   0  0  2  0  0  0  0  0  0  0  0  0
  179.3970  177.1950  139.0280 C   0  0  0  0  0  2  0  0  0  0  0  0
  179.6190  174.0990  140.1800 O   0  0  0  0  0  1  0  0  0  0  0  0
  179.2390  175.2970  140.7850 C   0  0  0  0  0  2  0  0  0  0  0  0
  181.9130  175.6240  137.9780 O   0  0  0  0  0  0  0  0  0  0  0  0
  180.8780  173.9720  135.9990 O   0  0  0  0  0  1  0  0  0  0  0  0
  182.1950  174.9340  136.4530 P   0  0  0  0  0  0  0  0  0  0  0  0
  182.4060  176.0210  135.4220 O   0  0  0  0  0  0  0  0  0  0  0  0
  183.5810  173.9700  136.5340 O   0  0  0  0  0  1  0  0  0  0  0  0
  186.1390  178.3860  144.7160 C   0  0  1  0  0  3  0  0  0  0  0  0
  185.4230  178.2930  146.0680 C   0  0  0  0  0  2  0  0  0  0  0  0
  186.2910  178.6420  147.2400 C   0  0  0  0  0  0  0  0  0  0  0  0
  186.1860  179.7420  147.7660 O   0  0  0  0  0  0  0  0  0  0  0  0
  188.7050  177.9580  147.3820 C   0  0  0  0  0  2  0  0  0  0  0  0
  187.2690  177.6170  147.7450 C   0  0  0  0  0  3  0  0  0  0  0  0
  188.1880  178.2460  148.7750 C   0  0  0  0  0  2  0  0  0  0  0  0
  186.7970  177.0680  144.2980 C   0  0  0  0  0  2  0  0  0  0  0  0
  189.1620  177.4940  143.8930 C   0  0  0  0  0  3  0  0  0  0  0  0
  191.0910  178.8890  143.4550 O   0  0  0  0  0  0  0  0  0  0  0  0
  191.5620  177.6790  143.8120 O   0  0  0  0  0  0  0  0  0  0  0  0
  190.4010  177.7610  143.0870 C   0  0  0  0  0  0  0  0  0  0  0  0
  188.2640  178.4640  141.1760 C   0  0  0  0  0  2  0  0  0  0  0  0
  189.7080  178.2390  140.6960 C   0  0  1  0  0  3  0  0  0  0  0  0
  187.9420  177.2970  143.3650 C   0  0  0  0  0  0  0  0  0  0  0  0
  187.6830  177.2440  141.8810 C   0  0  0  0  0  2  0  0  0  0  0  0
  190.5520  177.3600  141.6260 C   0  0  0  0  0  2  0  0  0  0  0  0
  189.7230  177.6370  139.2990 C   0  0  0  0  0  2  0  0  0  0  0  0
  188.3250  177.5950  138.6980 C   0  0  0  0  0  2  0  0  0  0  0  0
  187.0760  178.5530  136.7600 O   0  0  0  0  0  0  0  0  0  0  0  0
  188.1780  178.5980  137.6050 C   0  0  0  0  0  0  0  0  0  0  0  0
  189.0490  179.4930  137.4530 O   0  0  0  0  0  1  0  0  0  0  0  0
  2  1  1  0  0  0  0
  3  2  1  0  0  0  0
  4  3  1  1  0  0  0
  5  4  1  0  0  0  0
  5 10  1  1  0  0  0
  6 15  1  0  0  0  0
  7 13  1  1  0  0  0
  7  4  1  0  0  0  0
  9  6  1  0  0  0  0
  9 18  1  1  0  0  0
  9 14  1  0  0  0  0
 11  8  1  6  0  0  0
 11 14  1  0  0  0  0
 11  7  1  0  0  0  0
 12 10  2  0  0  0  0
 12 17  1  0  0  0  0
 14  8  1  6  0  0  0
 14  5  1  0  0  0  0
 15 12  1  0  0  0  0
 16 17  1  0  0  0  0
 19 20  1  0  0  0  0
 20 22  1  0  0  0  0
 20 18  1  0  0  0  0
 21 20  2  0  0  0  0
 23  1  1  6  0  0  0
 23 24  1  0  0  0  0
 24 25  1  0  0  0  0
 25 28  1  0  0  0  0
 25 26  2  0  0  0  0
 27 28  1  0  0  0  0
 27 29  1  0  0  0  0
 28 29  1  0  0  0  0
 30 23  1  0  0  0  0
 32 33  1  0  0  0  0
 34 32  1  0  0  0  0
 34 33  1  0  0  0  0
 34 31  1  0  0  0  0
 35 38  1  0  0  0  0
 36 40  1  6  0  0  0
 36 35  1  0  0  0  0
 36 39  1  0  0  0  0
 37 31  2  0  0  0  0
 37 30  1  0  0  0  0
 38 37  1  0  0  0  0
 39 34  1  0  0  0  0
 41 40  1  0  0  0  0
 42 43  2  0  0  0  0
 43 41  1  0  0  0  0
 44 43  1  0  0  0  0
M  END
>  <MODEL>
6

>  <REMARK>
 VINA RESULT:      -6.9      2.607      4.804
  Name = 
  15 active torsions:
  status: ('A' for Active; 'I' for Inactive)
    1  A    between atoms: O_2  and  C_23
    2  A    between atoms: O_2  and  P_30
    3  A    between atoms: C_3  and  C_4
    4  A    between atoms: C_3  and  C_33
    5  A    between atoms: C_4  and  C_21
    6  A    between atoms: C_5  and  C_15
    7  A    between atoms: C_5  and  C_28
    8  A    between atoms: C_9  and  C_35
    9  A    between atoms: C_13  and  C_18
   10  A    between atoms: C_15  and  C_35
   11  A    between atoms: C_18  and  C_38
   12  A    between atoms: C_27  and  C_43
   13  A    between atoms: C_28  and  C_38
   14  A    between atoms: C_28  and  C_42
   15  A    between atoms: C_34  and  C_42
                            x       y       z     vdW  Elec       q    Type
                         _______ _______ _______ _____ _____    ______ ____

>  <TORSDO>
F 15

$$$$
=
 OpenBabel11062416153D

 44 49  0  0  1  0  0  0  0  0999 V2000
  185.3230  177.7640  142.4920 C   0  0  0  0  0  2  0  0  0  0  0  0
  184.8640  178.5700  141.2880 C   0  0  0  0  0  2  0  0  0  0  0  0
  186.0700  179.0620  140.5170 C   0  0  0  0  0  2  0  0  0  0  0  0
  186.6850  177.9120  139.7260 C   0  0  1  0  0  3  0  0  0  0  0  0
  186.4200  178.0640  138.2500 C   0  0  2  0  0  3  0  0  0  0  0  0
  186.8470  176.6680  135.3010 O   0  0  0  0  0  0  0  0  0  0  0  0
  188.2050  177.7890  139.8680 C   0  0  1  0  0  3  0  0  0  0  0  0
  189.0100  178.6870  137.3020 S   0  0  0  0  0  0  0  0  0  0  0  0
  187.5580  176.3640  136.4980 C   0  0  1  0  0  3  0  0  0  0  0  0
  185.1360  177.3800  137.8610 C   0  0  0  0  0  3  0  0  0  0  0  0
  188.7410  177.3060  138.5180 C   0  0  2  0  0  3  0  0  0  0  0  0
  184.8200  177.1570  136.5780 C   0  0  0  0  0  0  0  0  0  0  0  0
  188.8070  178.9970  140.2390 O   0  0  0  0  0  1  0  0  0  0  0  0
  187.6540  177.4850  137.5540 C   0  0  2  0  0  0  0  0  0  0  0  0
  185.7700  177.5710  135.4850 C   0  0  0  0  0  2  0  0  0  0  0  0
  182.6160  176.6630  137.2810 O   0  0  0  0  0  1  0  0  0  0  0  0
  183.5170  176.5240  136.2240 C   0  0  0  0  0  2  0  0  0  0  0  0
  187.0690  175.1800  137.0650 O   0  0  0  0  0  0  0  0  0  0  0  0
  187.9720  172.5610  137.2560 O   0  0  0  0  0  1  0  0  0  0  0  0
  187.8560  173.9170  136.2500 P   0  0  0  0  0  0  0  0  0  0  0  0
  187.0920  173.5510  134.9960 O   0  0  0  0  0  0  0  0  0  0  0  0
  189.4110  174.4220  135.8230 O   0  0  0  0  0  1  0  0  0  0  0  0
  185.4740  178.6210  143.7550 C   0  0  1  0  0  3  0  0  0  0  0  0
  184.4860  179.7920  143.8150 C   0  0  0  0  0  2  0  0  0  0  0  0
  183.1340  179.4190  144.3450 C   0  0  0  0  0  0  0  0  0  0  0  0
  183.0240  179.0000  145.4890 O   0  0  0  0  0  0  0  0  0  0  0  0
  181.6510  178.3310  142.6320 C   0  0  0  0  0  2  0  0  0  0  0  0
  181.9370  179.5820  143.4470 C   0  0  0  0  0  3  0  0  0  0  0  0
  180.8400  178.6260  143.8760 C   0  0  0  0  0  2  0  0  0  0  0  0
  185.5230  177.8160  145.0560 C   0  0  0  0  0  2  0  0  0  0  0  0
  187.1710  177.7150  146.8500 C   0  0  0  0  0  3  0  0  0  0  0  0
  188.8990  178.6140  148.2860 O   0  0  0  0  0  0  0  0  0  0  0  0
  188.5030  177.4510  148.8390 O   0  0  0  0  0  0  0  0  0  0  0  0
  188.5300  177.5720  147.4720 C   0  0  0  0  0  0  0  0  0  0  0  0
  189.2050  178.1950  144.6670 C   0  0  0  0  0  2  0  0  0  0  0  0
  190.2630  177.6170  145.6230 C   0  0  1  0  0  3  0  0  0  0  0  0
  186.9280  177.6250  145.5300 C   0  0  0  0  0  0  0  0  0  0  0  0
  187.9900  177.2870  144.5160 C   0  0  0  0  0  2  0  0  0  0  0  0
  189.6820  176.8340  146.8060 C   0  0  0  0  0  2  0  0  0  0  0  0
  191.2370  176.7240  144.8700 C   0  0  0  0  0  2  0  0  0  0  0  0
  191.7180  177.3860  143.5860 C   0  0  0  0  0  2  0  0  0  0  0  0
  191.4150  177.1980  141.1160 O   0  0  0  0  0  0  0  0  0  0  0  0
  191.1850  176.6830  142.3850 C   0  0  0  0  0  0  0  0  0  0  0  0
  190.5330  175.6160  142.5200 O   0  0  0  0  0  1  0  0  0  0  0  0
  2  1  1  0  0  0  0
  3  2  1  0  0  0  0
  4  7  1  0  0  0  0
  4  3  1  1  0  0  0
  5 10  1  6  0  0  0
  5  4  1  0  0  0  0
  6 15  1  0  0  0  0
  6  9  1  0  0  0  0
  7 13  1  6  0  0  0
  9 18  1  1  0  0  0
  9 14  1  0  0  0  0
 11  8  1  6  0  0  0
 11  7  1  0  0  0  0
 12 10  2  0  0  0  0
 14  8  1  6  0  0  0
 14  5  1  0  0  0  0
 14 11  1  0  0  0  0
 15 12  1  0  0  0  0
 17 12  1  0  0  0  0
 17 16  1  0  0  0  0
 20 18  1  0  0  0  0
 20 19  1  0  0  0  0
 21 20  2  0  0  0  0
 22 20  1  0  0  0  0
 23  1  1  6  0  0  0
 23 24  1  0  0  0  0
 23 30  1  0  0  0  0
 24 25  1  0  0  0  0
 25 26  2  0  0  0  0
 27 28  1  0  0  0  0
 27 29  1  0  0  0  0
 28 29  1  0  0  0  0
 28 25  1  0  0  0  0
 30 37  1  0  0  0  0
 31 34  1  0  0  0  0
 32 33  1  0  0  0  0
 34 32  1  0  0  0  0
 34 33  1  0  0  0  0
 35 36  1  0  0  0  0
 36 40  1  6  0  0  0
 36 39  1  0  0  0  0
 37 31  2  0  0  0  0
 38 35  1  0  0  0  0
 38 37  1  0  0  0  0
 39 34  1  0  0  0  0
 41 40  1  0  0  0  0
 42 43  2  0  0  0  0
 43 44  1  0  0  0  0
 43 41  1  0  0  0  0
M  END
>  <MODEL>
7

>  <REMARK>
 VINA RESULT:      -6.8      3.394      6.552
  Name = 
  15 active torsions:
  status: ('A' for Active; 'I' for Inactive)
    1  A    between atoms: O_2  and  C_23
    2  A    between atoms: O_2  and  P_30
    3  A    between atoms: C_3  and  C_4
    4  A    between atoms: C_3  and  C_33
    5  A    between atoms: C_4  and  C_21
    6  A    between atoms: C_5  and  C_15
    7  A    between atoms: C_5  and  C_28
    8  A    between atoms: C_9  and  C_35
    9  A    between atoms: C_13  and  C_18
   10  A    between atoms: C_15  and  C_35
   11  A    between atoms: C_18  and  C_38
   12  A    between atoms: C_27  and  C_43
   13  A    between atoms: C_28  and  C_38
   14  A    between atoms: C_28  and  C_42
   15  A    between atoms: C_34  and  C_42
                            x       y       z     vdW  Elec       q    Type
                         _______ _______ _______ _____ _____    ______ ____

>  <TORSDO>
F 15

$$$$
=
 OpenBabel11062416153D

 44 49  0  0  1  0  0  0  0  0999 V2000
  184.3010  178.2080  141.3330 C   0  0  0  0  0  2  0  0  0  0  0  0
  183.7830  179.3650  140.4940 C   0  0  0  0  0  2  0  0  0  0  0  0
  184.5130  179.3940  139.1670 C   0  0  0  0  0  2  0  0  0  0  0  0
  184.7990  177.9710  138.7010 C   0  0  1  0  0  3  0  0  0  0  0  0
  183.8170  177.5380  137.6420 C   0  0  2  0  0  3  0  0  0  0  0  0
  182.9010  175.0370  135.7100 O   0  0  0  0  0  0  0  0  0  0  0  0
  186.1880  177.7740  138.0880 C   0  0  1  0  0  3  0  0  0  0  0  0
  185.4820  177.4800  135.3570 S   0  0  0  0  0  0  0  0  0  0  0  0
  184.1460  175.1760  136.3880 C   0  0  1  0  0  3  0  0  0  0  0  0
  182.6130  176.8780  138.2630 C   0  0  0  0  0  3  0  0  0  0  0  0
  186.0400  176.7390  136.9700 C   0  0  2  0  0  3  0  0  0  0  0  0
  181.7340  176.1870  137.5260 C   0  0  0  0  0  0  0  0  0  0  0  0
  186.7290  178.9670  137.5930 O   0  0  0  0  0  1  0  0  0  0  0  0
  184.6050  176.6140  136.7110 C   0  0  2  0  0  0  0  0  0  0  0  0
  181.9480  176.0330  136.0430 C   0  0  0  0  0  2  0  0  0  0  0  0
  180.7620  175.3650  139.5190 O   0  0  0  0  0  1  0  0  0  0  0  0
  180.5240  175.5900  138.1630 C   0  0  0  0  0  2  0  0  0  0  0  0
  184.1670  174.3740  137.5360 O   0  0  0  0  0  0  0  0  0  0  0  0
  185.4320  173.0250  135.4650 O   0  0  0  0  0  0  0  0  0  0  0  0
  184.9130  172.9230  137.0730 P   0  0  0  0  0  0  0  0  0  0  0  0
  186.0990  172.6380  137.9690 O   0  0  0  0  0  1  0  0  0  0  0  0
  183.7980  171.6610  137.2140 O   0  0  0  0  0  1  0  0  0  0  0  0
  185.2980  178.6570  142.4090 C   0  0  1  0  0  3  0  0  0  0  0  0
  184.7380  179.7370  143.3410 C   0  0  0  0  0  2  0  0  0  0  0  0
  183.9420  179.1960  144.4910 C   0  0  0  0  0  0  0  0  0  0  0  0
  182.8850  178.6170  144.2780 O   0  0  0  0  0  0  0  0  0  0  0  0
  184.9190  178.0640  146.5100 C   0  0  0  0  0  2  0  0  0  0  0  0
  184.4760  179.3770  145.8860 C   0  0  0  0  0  3  0  0  0  0  0  0
  185.9470  179.0080  145.9240 C   0  0  0  0  0  2  0  0  0  0  0  0
  185.9640  177.5040  143.1660 C   0  0  0  0  0  2  0  0  0  0  0  0
  187.8140  177.8400  141.6150 C   0  0  0  0  0  3  0  0  0  0  0  0
  189.3600  177.1750  139.8750 O   0  0  0  0  0  0  0  0  0  0  0  0
  189.4540  178.5140  139.9850 O   0  0  0  0  0  0  0  0  0  0  0  0
  189.2260  177.7620  141.1090 C   0  0  0  0  0  0  0  0  0  0  0  0
  189.2140  175.6920  143.2140 C   0  0  0  0  0  2  0  0  0  0  0  0
  190.5380  176.2290  142.6430 C   0  0  1  0  0  3  0  0  0  0  0  0
  187.4100  177.3780  142.8110 C   0  0  0  0  0  0  0  0  0  0  0  0
  188.3520  176.7890  143.8300 C   0  0  0  0  0  2  0  0  0  0  0  0
  190.4360  177.6270  142.0220 C   0  0  0  0  0  2  0  0  0  0  0  0
  191.6190  176.2420  143.7130 C   0  0  0  0  0  2  0  0  0  0  0  0
  191.3460  177.3080  144.7660 C   0  0  0  0  0  2  0  0  0  0  0  0
  192.2480  175.7440  146.4890 O   0  0  0  0  0  0  0  0  0  0  0  0
  191.3270  176.7210  146.1350 C   0  0  0  0  0  0  0  0  0  0  0  0
  190.4800  177.1180  146.9770 O   0  0  0  0  0  1  0  0  0  0  0  0
  2  1  1  0  0  0  0
  3  2  1  0  0  0  0
  4  3  1  6  0  0  0
  5 10  1  1  0  0  0
  5  4  1  0  0  0  0
  6 15  1  0  0  0  0
  6  9  1  0  0  0  0
  7 13  1  6  0  0  0
  7  4  1  0  0  0  0
  9 14  1  0  0  0  0
  9 18  1  1  0  0  0
 11  8  1  6  0  0  0
 11  7  1  0  0  0  0
 12 17  1  0  0  0  0
 12 10  2  0  0  0  0
 14  8  1  6  0  0  0
 14 11  1  0  0  0  0
 14  5  1  0  0  0  0
 15 12  1  0  0  0  0
 17 16  1  0  0  0  0
 19 20  2  0  0  0  0
 20 22  1  0  0  0  0
 20 18  1  0  0  0  0
 20 21  1  0  0  0  0
 23  1  1  1  0  0  0
 23 30  1  0  0  0  0
 23 24  1  0  0  0  0
 24 25  1  0  0  0  0
 25 28  1  0  0  0  0
 26 25  2  0  0  0  0
 28 29  1  0  0  0  0
 28 27  1  0  0  0  0
 29 27  1  0  0  0  0
 31 37  2  0  0  0  0
 32 33  1  0  0  0  0
 32 34  1  0  0  0  0
 33 34  1  0  0  0  0
 34 31  1  0  0  0  0
 34 39  1  0  0  0  0
 35 38  1  0  0  0  0
 36 35  1  0  0  0  0
 36 40  1  1  0  0  0
 37 30  1  0  0  0  0
 37 38  1  0  0  0  0
 39 36  1  0  0  0  0
 40 41  1  0  0  0  0
 41 43  1  0  0  0  0
 43 42  2  0  0  0  0
 43 44  1  0  0  0  0
M  END
>  <MODEL>
8

>  <REMARK>
 VINA RESULT:      -6.8      3.259      5.147
  Name = 
  15 active torsions:
  status: ('A' for Active; 'I' for Inactive)
    1  A    between atoms: O_2  and  C_23
    2  A    between atoms: O_2  and  P_30
    3  A    between atoms: C_3  and  C_4
    4  A    between atoms: C_3  and  C_33
    5  A    between atoms: C_4  and  C_21
    6  A    between atoms: C_5  and  C_15
    7  A    between atoms: C_5  and  C_28
    8  A    between atoms: C_9  and  C_35
    9  A    between atoms: C_13  and  C_18
   10  A    between atoms: C_15  and  C_35
   11  A    between atoms: C_18  and  C_38
   12  A    between atoms: C_27  and  C_43
   13  A    between atoms: C_28  and  C_38
   14  A    between atoms: C_28  and  C_42
   15  A    between atoms: C_34  and  C_42
                            x       y       z     vdW  Elec       q    Type
                         _______ _______ _______ _____ _____    ______ ____

>  <TORSDO>
F 15

$$$$
=
 OpenBabel11062416153D

 44 49  0  0  1  0  0  0  0  0999 V2000
  187.2270  177.5580  138.5380 C   0  0  0  0  0  2  0  0  0  0  0  0
  186.6620  176.7420  137.3870 C   0  0  0  0  0  2  0  0  0  0  0  0
  185.5050  177.4890  136.7570 C   0  0  0  0  0  2  0  0  0  0  0  0
  184.1850  176.9670  137.3150 C   0  0  1  0  0  3  0  0  0  0  0  0
  183.5140  178.0030  138.1810 C   0  0  2  0  0  3  0  0  0  0  0  0
  180.9100  178.5990  140.1020 O   0  0  0  0  0  0  0  0  0  0  0  0
  183.1560  176.5840  136.2480 C   0  0  1  0  0  3  0  0  0  0  0  0
  181.3140  178.7180  136.5560 S   0  0  0  0  0  0  0  0  0  0  0  0
  181.0410  177.5500  139.1470 C   0  0  1  0  0  3  0  0  0  0  0  0
  183.9450  177.8640  139.6170 C   0  0  0  0  0  3  0  0  0  0  0  0
  181.7770  176.9340  136.8120 C   0  0  2  0  0  3  0  0  0  0  0  0
  183.3000  178.4940  140.6080 C   0  0  0  0  0  0  0  0  0  0  0  0
  183.3760  177.2390  135.0310 O   0  0  0  0  0  1  0  0  0  0  0  0
  182.0130  177.7950  137.9730 C   0  0  2  0  0  0  0  0  0  0  0  0
  182.0970  179.3470  140.3020 C   0  0  0  0  0  2  0  0  0  0  0  0
  184.7200  179.3770  142.2800 O   0  0  0  0  0  1  0  0  0  0  0  0
  183.7840  178.3770  142.0140 C   0  0  0  0  0  2  0  0  0  0  0  0
  181.3270  176.3390  139.7900 O   0  0  0  0  0  0  0  0  0  0  0  0
  179.0230  175.8110  141.2490 O   0  0  0  0  0  1  0  0  0  0  0  0
  179.8670  175.4740  139.8210 P   0  0  0  0  0  0  0  0  0  0  0  0
  179.0140  175.8510  138.6290 O   0  0  0  0  0  0  0  0  0  0  0  0
  180.2070  173.8200  139.7580 O   0  0  0  0  0  1  0  0  0  0  0  0
  188.6620  177.1540  138.9010 C   0  0  1  0  0  3  0  0  0  0  0  0
  189.5000  176.7390  137.6860 C   0  0  0  0  0  2  0  0  0  0  0  0
  190.2660  175.4650  137.8820 C   0  0  0  0  0  0  0  0  0  0  0  0
  191.2300  175.4460  138.6360 O   0  0  0  0  0  0  0  0  0  0  0  0
  189.9420  174.3840  135.6370 C   0  0  0  0  0  2  0  0  0  0  0  0
  189.8180  174.2330  137.1440 C   0  0  0  0  0  3  0  0  0  0  0  0
  190.9940  173.6180  136.4090 C   0  0  0  0  0  2  0  0  0  0  0  0
  189.3830  178.1530  139.8090 C   0  0  0  0  0  2  0  0  0  0  0  0
  190.3230  176.9510  141.7100 C   0  0  0  0  0  3  0  0  0  0  0  0
  190.5520  175.0650  143.2100 O   0  0  0  0  0  0  0  0  0  0  0  0
  191.6090  175.8700  143.4360 O   0  0  0  0  0  0  0  0  0  0  0  0
  190.3960  176.4250  143.1150 C   0  0  0  0  0  0  0  0  0  0  0  0
  187.5330  177.0970  142.8610 C   0  0  0  0  0  2  0  0  0  0  0  0
  188.1650  176.8500  144.2410 C   0  0  1  0  0  3  0  0  0  0  0  0
  189.3320  177.7290  141.2420 C   0  0  0  0  0  0  0  0  0  0  0  0
  188.2040  178.2370  142.1030 C   0  0  0  0  0  2  0  0  0  0  0  0
  189.6810  177.0770  144.2900 C   0  0  0  0  0  2  0  0  0  0  0  0
  187.5020  177.7170  145.3000 C   0  0  0  0  0  2  0  0  0  0  0  0
  186.0190  177.9080  145.0110 C   0  0  0  0  0  2  0  0  0  0  0  0
  186.0990  179.1990  147.1460 O   0  0  0  0  0  1  0  0  0  0  0  0
  185.3800  178.7880  146.0310 C   0  0  0  0  0  0  0  0  0  0  0  0
  184.1910  179.1690  145.8750 O   0  0  0  0  0  0  0  0  0  0  0  0
  1 23  1  0  0  0  0
  2  1  1  0  0  0  0
  3  2  1  0  0  0  0
  4  3  1  6  0  0  0
  4  5  1  0  0  0  0
  5 10  1  1  0  0  0
  6 15  1  0  0  0  0
  7 13  1  6  0  0  0
  7 11  1  0  0  0  0
  7  4  1  0  0  0  0
  9 18  1  1  0  0  0
  9  6  1  0  0  0  0
 10 12  2  0  0  0  0
 11  8  1  6  0  0  0
 11 14  1  0  0  0  0
 12 17  1  0  0  0  0
 14  8  1  6  0  0  0
 14  5  1  0  0  0  0
 14  9  1  0  0  0  0
 15 12  1  0  0  0  0
 17 16  1  0  0  0  0
 18 20  1  0  0  0  0
 20 19  1  0  0  0  0
 21 20  2  0  0  0  0
 22 20  1  0  0  0  0
 23 24  1  6  0  0  0
 23 30  1  0  0  0  0
 24 25  1  0  0  0  0
 25 26  2  0  0  0  0
 27 29  1  0  0  0  0
 27 28  1  0  0  0  0
 28 25  1  0  0  0  0
 29 28  1  0  0  0  0
 30 37  1  0  0  0  0
 31 34  1  0  0  0  0
 32 33  1  0  0  0  0
 34 32  1  0  0  0  0
 34 33  1  0  0  0  0
 34 39  1  0  0  0  0
 35 36  1  0  0  0  0
 36 39  1  0  0  0  0
 36 40  1  1  0  0  0
 37 31  2  0  0  0  0
 37 38  1  0  0  0  0
 38 35  1  0  0  0  0
 41 40  1  0  0  0  0
 41 43  1  0  0  0  0
 43 42  1  0  0  0  0
 44 43  2  0  0  0  0
M  END
>  <MODEL>
9

>  <REMARK>
 VINA RESULT:      -6.8      3.068      6.549
  Name = 
  15 active torsions:
  status: ('A' for Active; 'I' for Inactive)
    1  A    between atoms: O_2  and  C_23
    2  A    between atoms: O_2  and  P_30
    3  A    between atoms: C_3  and  C_4
    4  A    between atoms: C_3  and  C_33
    5  A    between atoms: C_4  and  C_21
    6  A    between atoms: C_5  and  C_15
    7  A    between atoms: C_5  and  C_28
    8  A    between atoms: C_9  and  C_35
    9  A    between atoms: C_13  and  C_18
   10  A    between atoms: C_15  and  C_35
   11  A    between atoms: C_18  and  C_38
   12  A    between atoms: C_27  and  C_43
   13  A    between atoms: C_28  and  C_38
   14  A    between atoms: C_28  and  C_42
   15  A    between atoms: C_34  and  C_42
                            x       y       z     vdW  Elec       q    Type
                         _______ _______ _______ _____ _____    ______ ____

>  <TORSDO>
F 15

$$$$
