=
 OpenBabel11062417053D

 47 51  0  0  1  0  0  0  0  0999 V2000
  182.9740  175.2300  137.7090 N   0  0  0  0  0  2  0  0  0  0  0  0
  180.2030  179.8360  137.7350 N   0  0  0  0  0  2  0  0  0  0  0  0
  183.8930  174.1000  137.6040 C   0  0  0  0  0  2  0  0  0  0  0  0
  182.6430  179.3250  138.0910 N   0  0  0  0  0  2  0  0  0  0  0  0
  182.3510  177.7120  136.3080 C   0  0  1  0  0  3  0  0  0  0  0  0
  184.0590  173.4000  134.7620 N   0  0  0  0  0  1  0  0  0  0  0  0
  186.7060  177.7630  138.8030 C   0  0  0  0  0  2  0  0  0  0  0  0
  181.7810  176.4090  135.8440 N   0  0  2  0  0  0  0  0  0  0  0  0
  184.5100  177.8360  137.5310 C   0  0  0  0  0  2  0  0  0  0  0  0
  184.6560  178.2050  139.9120 O   0  0  0  0  0  1  0  0  0  0  0  0
  180.9860  177.3280  136.6670 C   0  0  2  0  0  3  0  0  0  0  0  0
  187.1150  175.7270  136.4780 C   0  0  0  0  0  0  0  0  0  0  0  0
  180.0530  178.2160  135.8630 C   0  0  0  0  0  2  0  0  0  0  0  0
  187.6730  177.9370  137.6100 C   0  0  1  0  0  3  0  0  0  0  0  0
  188.2040  176.6030  137.0430 C   0  0  1  0  0  3  0  0  0  0  0  0
  182.9910  177.9650  137.6670 C   0  0  1  0  0  3  0  0  0  0  0  0
  186.0890  175.2270  137.2910 C   0  0  0  0  0  3  0  0  0  0  0  0
  185.3200  178.4120  138.7030 C   0  0  1  0  0  3  0  0  0  0  0  0
  186.1110  174.6510  134.5950 N   0  0  0  0  0  0  0  0  0  0  0  0
  181.3470  179.6880  138.5980 C   0  0  0  0  0  0  0  0  0  0  0  0
  180.2360  179.6850  136.2800 C   0  0  1  0  0  3  0  0  0  0  0  0
  187.1080  175.4180  135.1150 C   0  0  0  0  0  3  0  0  0  0  0  0
  185.0920  174.1740  135.3680 C   0  0  0  0  0  0  0  0  0  0  0  0
  181.2180  179.9280  139.8280 O   0  0  0  0  0  0  0  0  0  0  0  0
  182.0580  175.1470  136.5750 C   0  0  2  0  0  3  0  0  0  0  0  0
  185.0600  174.4660  136.7420 C   0  0  0  0  0  0  0  0  0  0  0  0
  187.2160  178.8860  136.5090 C   0  0  0  0  0  1  0  0  0  0  0  0
  193.5300  176.8010  137.6450 O   0  0  0  0  0  1  0  0  0  0  0  0
  192.2690  176.2100  137.7090 C   0  0  1  0  0  3  0  0  0  0  0  0
  190.0920  176.7610  138.7780 C   0  0  0  0  0  2  0  0  0  0  0  0
  190.5890  174.9850  136.1690 C   0  0  0  0  0  2  0  0  0  0  0  0
  189.7970  174.6180  137.4220 C   0  0  0  0  0  2  0  0  0  0  0  0
  191.2140  177.2900  137.8890 C   0  0  0  0  0  2  0  0  0  0  0  0
  192.0440  175.3630  136.4550 C   0  0  0  0  0  2  0  0  0  0  0  0
  189.1060  175.8430  138.0400 C   0  0  2  0  0  3  0  0  0  0  0  0
  180.8110  174.3020  136.8620 C   0  0  0  0  0  2  0  0  0  0  0  0
  180.5400  174.2210  138.2910 N   0  0  0  0  0  2  0  0  0  0  0  0
  179.1230  174.5110  138.4620 C   0  0  0  0  0  2  0  0  0  0  0  0
  178.9320  175.7960  139.2610 C   0  0  0  0  0  2  0  0  0  0  0  0
  179.7170  175.7520  140.4880 N   0  0  0  0  0  0  0  0  0  0  0  0
  179.7630  177.0630  140.9830 N   0  0  0  0  0  1  0  0  0  0  0  0
  179.0040  175.0270  141.3820 O   0  0  0  0  0  1  0  0  0  0  0  0
  179.2240  180.4610  135.7060 O   0  0  0  0  0  0  0  0  0  0  0  0
  179.1030  182.9880  134.6050 O   0  0  0  0  0  0  0  0  0  0  0  0
  179.1390  182.7070  137.3450 O   0  0  0  0  0  1  0  0  0  0  0  0
  181.2330  182.1550  135.8720 O   0  0  0  0  0  1  0  0  0  0  0  0
  179.7220  182.0750  135.8880 P   0  0  0  0  0  0  0  0  0  0  0  0
  2 20  1  0  0  0  0
  3  1  1  0  0  0  0
  4 20  1  0  0  0  0
  5 11  1  0  0  0  0
  5 16  1  0  0  0  0
  6 23  1  0  0  0  0
  8  5  1  0  0  0  0
  8 25  1  0  0  0  0
  8 11  1  0  0  0  0
  9 16  1  0  0  0  0
  9 18  1  0  0  0  0
 12 15  1  0  0  0  0
 12 17  1  0  0  0  0
 13 21  1  0  0  0  0
 13 11  1  0  0  0  0
 14  7  1  0  0  0  0
 15 14  1  0  0  0  0
 15 35  1  0  0  0  0
 16  4  1  0  0  0  0
 18  7  1  0  0  0  0
 18 10  1  0  0  0  0
 19 22  1  0  0  0  0
 19 23  2  0  0  0  0
 20 24  2  0  0  0  0
 21  2  1  0  0  0  0
 22 12  2  0  0  0  0
 23 26  1  0  0  0  0
 25 36  1  0  0  0  0
 25  1  1  0  0  0  0
 26 17  2  0  0  0  0
 26  3  1  0  0  0  0
 27 14  1  0  0  0  0
 28 29  1  0  0  0  0
 29 33  1  0  0  0  0
 31 34  1  0  0  0  0
 31 32  1  0  0  0  0
 32 35  1  0  0  0  0
 33 30  1  0  0  0  0
 34 29  1  0  0  0  0
 35 30  1  0  0  0  0
 36 37  1  0  0  0  0
 37 38  1  0  0  0  0
 38 39  1  0  0  0  0
 39 40  1  0  0  0  0
 40 41  1  0  0  0  0
 40 42  1  0  0  0  0
 43 47  1  0  0  0  0
 43 21  1  0  0  0  0
 44 47  2  0  0  0  0
 46 47  1  0  0  0  0
 47 45  1  0  0  0  0
M  END
>  <MODEL>
1

>  <REMARK>
 VINA RESULT:      -5.0      0.000      0.000
  Name = 
  8 active torsions:
  status: ('A' for Active; 'I' for Inactive)
    1  A    between atoms: C_3  and  N_11
    2  A    between atoms: C_3  and  C_34
    3  A    between atoms: N_11  and  C_24
    4  A    between atoms: N_20  and  C_34
    5  A    between atoms: C_21  and  C_46
    6  A    between atoms: C_24  and  C_43
    7  A    between atoms: O_36  and  C_38
    8  A    between atoms: O_36  and  P_47
                            x       y       z     vdW  Elec       q    Type
                         _______ _______ _______ _____ _____    ______ ____

>  <TORSDO>
F 8

$$$$
=
 OpenBabel11062417053D

 47 51  0  0  1  0  0  0  0  0999 V2000
  182.7960  175.4380  138.0860 N   0  0  0  0  0  2  0  0  0  0  0  0
  180.4070  180.2420  138.4190 N   0  0  0  0  0  2  0  0  0  0  0  0
  183.6050  174.2420  137.8770 C   0  0  0  0  0  2  0  0  0  0  0  0
  182.8260  179.5460  138.4660 N   0  0  0  0  0  2  0  0  0  0  0  0
  182.1880  177.9600  136.7510 C   0  0  1  0  0  3  0  0  0  0  0  0
  183.3530  173.5290  135.0430 N   0  0  0  0  0  1  0  0  0  0  0  0
  186.8170  177.6790  138.6680 C   0  0  0  0  0  2  0  0  0  0  0  0
  181.4650  176.7030  136.3770 N   0  0  2  0  0  0  0  0  0  0  0  0
  184.4880  177.9190  137.6870 C   0  0  0  0  0  2  0  0  0  0  0  0
  184.9650  178.2770  140.0260 O   0  0  0  0  0  1  0  0  0  0  0  0
  180.8550  177.6810  137.2850 C   0  0  2  0  0  3  0  0  0  0  0  0
  186.7700  175.6170  136.3320 C   0  0  0  0  0  0  0  0  0  0  0  0
  179.8950  178.6360  136.5980 C   0  0  0  0  0  2  0  0  0  0  0  0
  187.6340  177.7790  137.3600 C   0  0  1  0  0  3  0  0  0  0  0  0
  187.9860  176.4080  136.7440 C   0  0  1  0  0  3  0  0  0  0  0  0
  183.0130  178.1640  138.0150 C   0  0  1  0  0  3  0  0  0  0  0  0
  185.8220  175.1980  137.2730 C   0  0  0  0  0  3  0  0  0  0  0  0
  185.4830  178.4320  138.7400 C   0  0  1  0  0  3  0  0  0  0  0  0
  185.4550  174.6200  134.6030 N   0  0  0  0  0  0  0  0  0  0  0  0
  181.6370  180.0070  139.1300 C   0  0  0  0  0  0  0  0  0  0  0  0
  180.2410  180.0880  136.9730 C   0  0  1  0  0  3  0  0  0  0  0  0
  186.5650  175.3090  134.9830 C   0  0  0  0  0  3  0  0  0  0  0  0
  184.5100  174.2230  135.5050 C   0  0  0  0  0  0  0  0  0  0  0  0
  181.6860  180.2570  140.3640 O   0  0  0  0  0  0  0  0  0  0  0  0
  181.7370  175.4240  137.0800 C   0  0  2  0  0  3  0  0  0  0  0  0
  184.6770  174.5170  136.8690 C   0  0  0  0  0  0  0  0  0  0  0  0
  187.1120  178.7600  136.3170 C   0  0  0  0  0  1  0  0  0  0  0  0
  193.3490  176.3330  136.7780 O   0  0  0  0  0  1  0  0  0  0  0  0
  192.0730  175.8020  136.9650 C   0  0  1  0  0  3  0  0  0  0  0  0
  190.0520  176.4330  138.2700 C   0  0  0  0  0  2  0  0  0  0  0  0
  190.1800  174.6970  135.5910 C   0  0  0  0  0  2  0  0  0  0  0  0
  189.5070  174.3390  136.9150 C   0  0  0  0  0  2  0  0  0  0  0  0
  191.0990  176.9280  137.2760 C   0  0  0  0  0  2  0  0  0  0  0  0
  191.6740  174.9960  135.7270 C   0  0  0  0  0  2  0  0  0  0  0  0
  188.9480  175.5820  137.6250 C   0  0  2  0  0  3  0  0  0  0  0  0
  180.4780  174.6770  137.5320 C   0  0  0  0  0  2  0  0  0  0  0  0
  180.1690  173.5660  136.6410 N   0  0  0  0  0  2  0  0  0  0  0  0
  180.2170  172.3580  137.4530 C   0  0  0  0  0  2  0  0  0  0  0  0
  181.1350  171.3200  136.8160 C   0  0  0  0  0  2  0  0  0  0  0  0
  180.5560  170.8250  135.5740 N   0  0  0  0  0  0  0  0  0  0  0  0
  181.6150  170.3040  134.8170 N   0  0  0  0  0  1  0  0  0  0  0  0
  179.7640  169.7770  135.9020 O   0  0  0  0  0  1  0  0  0  0  0  0
  179.2250  180.9380  136.5250 O   0  0  0  0  0  0  0  0  0  0  0  0
  180.8620  183.1250  136.9130 O   0  0  0  0  0  1  0  0  0  0  0  0
  181.1060  181.6470  134.6010 O   0  0  0  0  0  0  0  0  0  0  0  0
  178.9990  183.1260  135.0790 O   0  0  0  0  0  1  0  0  0  0  0  0
  180.0140  182.2300  135.7540 P   0  0  0  0  0  0  0  0  0  0  0  0
  2 20  1  0  0  0  0
  3  1  1  0  0  0  0
  4 20  1  0  0  0  0
  5 11  1  0  0  0  0
  5 16  1  0  0  0  0
  6 23  1  0  0  0  0
  7 18  1  0  0  0  0
  8  5  1  0  0  0  0
  8 25  1  0  0  0  0
  8 11  1  0  0  0  0
  9 16  1  0  0  0  0
  9 18  1  0  0  0  0
 12 15  1  0  0  0  0
 12 17  1  0  0  0  0
 13 21  1  0  0  0  0
 13 11  1  0  0  0  0
 14  7  1  0  0  0  0
 15 14  1  0  0  0  0
 15 35  1  0  0  0  0
 16  4  1  0  0  0  0
 18 10  1  0  0  0  0
 19 22  1  0  0  0  0
 19 23  2  0  0  0  0
 20 24  2  0  0  0  0
 21  2  1  0  0  0  0
 22 12  2  0  0  0  0
 23 26  1  0  0  0  0
 25 36  1  0  0  0  0
 25  1  1  0  0  0  0
 26 17  2  0  0  0  0
 26  3  1  0  0  0  0
 27 14  1  0  0  0  0
 28 29  1  0  0  0  0
 29 33  1  0  0  0  0
 31 34  1  0  0  0  0
 31 32  1  0  0  0  0
 32 35  1  0  0  0  0
 33 30  1  0  0  0  0
 34 29  1  0  0  0  0
 35 30  1  0  0  0  0
 37 38  1  0  0  0  0
 37 36  1  0  0  0  0
 39 38  1  0  0  0  0
 40 42  1  0  0  0  0
 40 39  1  0  0  0  0
 41 40  1  0  0  0  0
 43 21  1  0  0  0  0
 45 47  2  0  0  0  0
 46 47  1  0  0  0  0
 47 43  1  0  0  0  0
 47 44  1  0  0  0  0
M  END
>  <MODEL>
2

>  <REMARK>
 VINA RESULT:      -4.8      1.651      2.431
  Name = 
  8 active torsions:
  status: ('A' for Active; 'I' for Inactive)
    1  A    between atoms: C_3  and  N_11
    2  A    between atoms: C_3  and  C_34
    3  A    between atoms: N_11  and  C_24
    4  A    between atoms: N_20  and  C_34
    5  A    between atoms: C_21  and  C_46
    6  A    between atoms: C_24  and  C_43
    7  A    between atoms: O_36  and  C_38
    8  A    between atoms: O_36  and  P_47
                            x       y       z     vdW  Elec       q    Type
                         _______ _______ _______ _____ _____    ______ ____

>  <TORSDO>
F 8

$$$$
=
 OpenBabel11062417053D

 47 51  0  0  1  0  0  0  0  0999 V2000
  188.3030  174.9540  135.4340 N   0  0  0  0  0  2  0  0  0  0  0  0
  190.2300  178.4410  139.0430 N   0  0  0  0  0  2  0  0  0  0  0  0
  187.6020  173.9890  134.5940 C   0  0  0  0  0  2  0  0  0  0  0  0
  187.8980  177.9740  138.2160 N   0  0  0  0  0  2  0  0  0  0  0  0
  188.5740  175.6490  138.2540 C   0  0  1  0  0  3  0  0  0  0  0  0
  187.7360  171.4050  135.9750 N   0  0  0  0  0  1  0  0  0  0  0  0
  184.1300  176.8180  136.2370 C   0  0  0  0  0  2  0  0  0  0  0  0
  189.3890  174.5440  137.6580 N   0  0  2  0  0  0  0  0  0  0  0  0
  186.3550  176.2830  137.3360 C   0  0  0  0  0  2  0  0  0  0  0  0
  186.0000  178.2580  135.9950 O   0  0  0  0  0  1  0  0  0  0  0  0
  189.9600  175.8820  137.8490 C   0  0  2  0  0  3  0  0  0  0  0  0
  184.2230  173.7020  136.2670 C   0  0  0  0  0  0  0  0  0  0  0  0
  190.7740  176.0220  139.1230 C   0  0  0  0  0  2  0  0  0  0  0  0
  183.2230  175.8950  137.0830 C   0  0  1  0  0  3  0  0  0  0  0  0
  182.9670  174.5170  136.4370 C   0  0  1  0  0  3  0  0  0  0  0  0
  187.8180  176.7140  137.4710 C   0  0  1  0  0  3  0  0  0  0  0  0
  185.2680  174.1400  135.4430 C   0  0  0  0  0  3  0  0  0  0  0  0
  185.3860  177.3940  136.9020 C   0  0  1  0  0  3  0  0  0  0  0  0
  185.5130  171.7700  136.8290 N   0  0  0  0  0  0  0  0  0  0  0  0
  189.0780  178.7950  138.2550 C   0  0  0  0  0  0  0  0  0  0  0  0
  190.3150  177.2630  139.9070 C   0  0  1  0  0  3  0  0  0  0  0  0
  184.3680  172.4950  136.9570 C   0  0  0  0  0  3  0  0  0  0  0  0
  186.5500  172.1930  136.0470 C   0  0  0  0  0  0  0  0  0  0  0  0
  189.0860  179.8810  137.6160 O   0  0  0  0  0  0  0  0  0  0  0  0
  189.2890  174.2120  136.2140 C   0  0  2  0  0  3  0  0  0  0  0  0
  186.4450  173.4030  135.3410 C   0  0  0  0  0  0  0  0  0  0  0  0
  183.5770  175.7790  138.5610 C   0  0  0  0  0  1  0  0  0  0  0  0
  178.9310  177.8160  135.1730 O   0  0  0  0  0  1  0  0  0  0  0  0
  179.6740  176.6380  135.1040 C   0  0  1  0  0  3  0  0  0  0  0  0
  182.0340  176.0440  134.5940 C   0  0  0  0  0  2  0  0  0  0  0  0
  179.9570  174.4120  136.3920 C   0  0  0  0  0  2  0  0  0  0  0  0
  180.7870  173.9040  135.2140 C   0  0  0  0  0  2  0  0  0  0  0  0
  181.1270  176.9370  135.4350 C   0  0  0  0  0  2  0  0  0  0  0  0
  179.0540  175.5950  136.0370 C   0  0  0  0  0  2  0  0  0  0  0  0
  182.1500  174.6090  135.1290 C   0  0  2  0  0  3  0  0  0  0  0  0
  190.6420  174.0710  135.5090 C   0  0  0  0  0  2  0  0  0  0  0  0
  191.4860  173.0810  136.1660 N   0  0  0  0  0  2  0  0  0  0  0  0
  192.8490  173.5890  136.1020 C   0  0  0  0  0  2  0  0  0  0  0  0
  192.8550  175.1140  136.1350 C   0  0  0  0  0  2  0  0  0  0  0  0
  193.9800  175.5990  136.9230 N   0  0  0  0  0  0  0  0  0  0  0  0
  194.8950  176.1550  136.0170 N   0  0  0  0  0  1  0  0  0  0  0  0
  193.5160  176.6230  137.6780 O   0  0  0  0  0  1  0  0  0  0  0  0
  191.2110  177.5110  140.9510 O   0  0  0  0  0  0  0  0  0  0  0  0
  188.7400  177.6760  142.1680 O   0  0  0  0  0  0  0  0  0  0  0  0
  190.3900  175.5460  142.7410 O   0  0  0  0  0  1  0  0  0  0  0  0
  190.9510  177.9790  143.5290 O   0  0  0  0  0  1  0  0  0  0  0  0
  190.3490  177.1980  142.3820 P   0  0  0  0  0  0  0  0  0  0  0  0
  1 25  1  0  0  0  0
  2 21  1  0  0  0  0
  3 26  1  0  0  0  0
  3  1  1  0  0  0  0
  4 20  1  0  0  0  0
  6 23  1  0  0  0  0
  7 18  1  0  0  0  0
  7 14  1  0  0  0  0
  8 11  1  0  0  0  0
  8  5  1  0  0  0  0
  9 16  1  0  0  0  0
 10 18  1  0  0  0  0
 11  5  1  0  0  0  0
 11 13  1  0  0  0  0
 12 15  1  0  0  0  0
 12 22  1  0  0  0  0
 13 21  1  0  0  0  0
 14 27  1  0  0  0  0
 15 14  1  0  0  0  0
 16  4  1  0  0  0  0
 16  5  1  0  0  0  0
 17 12  2  0  0  0  0
 18  9  1  0  0  0  0
 19 22  2  0  0  0  0
 20  2  1  0  0  0  0
 21 43  1  0  0  0  0
 23 19  1  0  0  0  0
 24 20  2  0  0  0  0
 25  8  1  0  0  0  0
 26 17  1  0  0  0  0
 26 23  2  0  0  0  0
 29 28  1  0  0  0  0
 29 33  1  0  0  0  0
 29 34  1  0  0  0  0
 30 35  1  0  0  0  0
 30 33  1  0  0  0  0
 32 31  1  0  0  0  0
 34 31  1  0  0  0  0
 35 32  1  0  0  0  0
 35 15  1  0  0  0  0
 36 37  1  0  0  0  0
 36 25  1  0  0  0  0
 38 39  1  0  0  0  0
 38 37  1  0  0  0  0
 39 40  1  0  0  0  0
 40 42  1  0  0  0  0
 41 40  1  0  0  0  0
 43 47  1  0  0  0  0
 44 47  2  0  0  0  0
 47 45  1  0  0  0  0
 47 46  1  0  0  0  0
M  END
>  <MODEL>
3

>  <REMARK>
 VINA RESULT:      -4.1      4.100      9.551
  Name = 
  8 active torsions:
  status: ('A' for Active; 'I' for Inactive)
    1  A    between atoms: C_3  and  N_11
    2  A    between atoms: C_3  and  C_34
    3  A    between atoms: N_11  and  C_24
    4  A    between atoms: N_20  and  C_34
    5  A    between atoms: C_21  and  C_46
    6  A    between atoms: C_24  and  C_43
    7  A    between atoms: O_36  and  C_38
    8  A    between atoms: O_36  and  P_47
                            x       y       z     vdW  Elec       q    Type
                         _______ _______ _______ _____ _____    ______ ____

>  <TORSDO>
F 8

$$$$
=
 OpenBabel11062417053D

 47 51  0  0  1  0  0  0  0  0999 V2000
  190.3660  175.9970  139.1780 N   0  0  0  0  0  2  0  0  0  0  0  0
  194.0570  173.8250  135.9300 N   0  0  0  0  0  2  0  0  0  0  0  0
  189.2330  176.6000  139.8750 C   0  0  0  0  0  2  0  0  0  0  0  0
  191.5480  173.6270  136.0150 N   0  0  0  0  0  2  0  0  0  0  0  0
  191.5880  175.9930  136.5290 C   0  0  1  0  0  3  0  0  0  0  0  0
  189.0820  179.3930  138.9940 N   0  0  0  0  0  1  0  0  0  0  0  0
  187.2110  173.5540  136.8100 C   0  0  0  0  0  2  0  0  0  0  0  0
  191.8900  177.0840  137.5090 N   0  0  2  0  0  0  0  0  0  0  0  0
  189.4400  174.7460  136.5790 C   0  0  0  0  0  2  0  0  0  0  0  0
  189.2410  172.4990  137.4370 O   0  0  0  0  0  1  0  0  0  0  0  0
  192.8150  175.9600  137.3240 C   0  0  2  0  0  3  0  0  0  0  0  0
  186.5060  176.5570  137.2560 C   0  0  0  0  0  0  0  0  0  0  0  0
  193.9620  176.2630  136.3760 C   0  0  0  0  0  2  0  0  0  0  0  0
  186.3740  174.4360  135.8560 C   0  0  1  0  0  3  0  0  0  0  0  0
  185.6010  175.5630  136.5730 C   0  0  1  0  0  3  0  0  0  0  0  0
  190.9410  174.6560  136.8650 C   0  0  1  0  0  3  0  0  0  0  0  0
  187.3520  176.1700  138.3030 C   0  0  0  0  0  3  0  0  0  0  0  0
  188.7070  173.3970  136.5130 C   0  0  1  0  0  3  0  0  0  0  0  0
  187.3610  178.7830  137.4230 N   0  0  0  0  0  0  0  0  0  0  0  0
  192.8620  173.0860  136.2440 C   0  0  0  0  0  0  0  0  0  0  0  0
  194.0760  175.1540  135.3170 C   0  0  1  0  0  3  0  0  0  0  0  0
  186.5240  177.8880  136.8290 C   0  0  0  0  0  3  0  0  0  0  0  0
  188.2080  178.4180  138.4300 C   0  0  0  0  0  0  0  0  0  0  0  0
  192.9680  171.9130  136.6900 O   0  0  0  0  0  0  0  0  0  0  0  0
  191.3060  177.0720  138.8740 C   0  0  2  0  0  3  0  0  0  0  0  0
  188.2230  177.0880  138.8840 C   0  0  0  0  0  0  0  0  0  0  0  0
  187.0860  174.9350  134.6050 C   0  0  0  0  0  1  0  0  0  0  0  0
  180.6170  173.9500  135.4230 O   0  0  0  0  0  1  0  0  0  0  0  0
  181.6230  174.4800  136.2310 C   0  0  1  0  0  3  0  0  0  0  0  0
  183.8590  173.7290  137.0180 C   0  0  0  0  0  2  0  0  0  0  0  0
  182.8260  176.7300  136.6550 C   0  0  0  0  0  2  0  0  0  0  0  0
  183.4560  176.0930  137.8930 C   0  0  0  0  0  2  0  0  0  0  0  0
  182.9670  173.9190  135.7950 C   0  0  0  0  0  2  0  0  0  0  0  0
  181.5670  176.0070  136.1710 C   0  0  0  0  0  2  0  0  0  0  0  0
  184.5010  175.0310  137.5190 C   0  0  2  0  0  3  0  0  0  0  0  0
  192.3230  177.3250  139.9920 C   0  0  0  0  0  2  0  0  0  0  0  0
  191.6830  177.8780  141.1790 N   0  0  0  0  0  2  0  0  0  0  0  0
  192.0270  176.9950  142.2850 C   0  0  0  0  0  2  0  0  0  0  0  0
  191.2720  177.3980  143.5470 C   0  0  0  0  0  2  0  0  0  0  0  0
  190.3190  176.3630  143.9210 N   0  0  0  0  0  0  0  0  0  0  0  0
  189.0400  176.9010  143.7180 N   0  0  0  0  0  1  0  0  0  0  0  0
  190.4610  175.3580  143.0250 O   0  0  0  0  0  1  0  0  0  0  0  0
  195.2620  175.3200  134.5960 O   0  0  0  0  0  0  0  0  0  0  0  0
  197.3350  176.4180  136.0490 O   0  0  0  0  0  1  0  0  0  0  0  0
  195.8900  174.3310  137.1200 O   0  0  0  0  0  1  0  0  0  0  0  0
  197.4890  173.9980  135.0730 O   0  0  0  0  0  0  0  0  0  0  0  0
  196.5170  174.9800  135.6890 P   0  0  0  0  0  0  0  0  0  0  0  0
  1  3  1  0  0  0  0
  2 20  1  0  0  0  0
  4 20  1  0  0  0  0
  4 16  1  0  0  0  0
  5 16  1  0  0  0  0
  5 11  1  0  0  0  0
  5  8  1  0  0  0  0
  8 25  1  0  0  0  0
  9 16  1  0  0  0  0
 11  8  1  0  0  0  0
 12 17  1  0  0  0  0
 13 11  1  0  0  0  0
 14 15  1  0  0  0  0
 14  7  1  0  0  0  0
 15 12  1  0  0  0  0
 15 35  1  0  0  0  0
 17 26  2  0  0  0  0
 18  9  1  0  0  0  0
 18  7  1  0  0  0  0
 18 10  1  0  0  0  0
 19 23  2  0  0  0  0
 20 24  2  0  0  0  0
 21  2  1  0  0  0  0
 21 13  1  0  0  0  0
 22 12  2  0  0  0  0
 22 19  1  0  0  0  0
 23 26  1  0  0  0  0
 23  6  1  0  0  0  0
 25  1  1  0  0  0  0
 25 36  1  0  0  0  0
 26  3  1  0  0  0  0
 27 14  1  0  0  0  0
 28 29  1  0  0  0  0
 30 35  1  0  0  0  0
 31 32  1  0  0  0  0
 33 29  1  0  0  0  0
 33 30  1  0  0  0  0
 34 29  1  0  0  0  0
 34 31  1  0  0  0  0
 35 32  1  0  0  0  0
 36 37  1  0  0  0  0
 37 38  1  0  0  0  0
 38 39  1  0  0  0  0
 39 40  1  0  0  0  0
 41 40  1  0  0  0  0
 42 40  1  0  0  0  0
 43 21  1  0  0  0  0
 43 47  1  0  0  0  0
 46 47  2  0  0  0  0
 47 44  1  0  0  0  0
 47 45  1  0  0  0  0
M  END
>  <MODEL>
4

>  <REMARK>
 VINA RESULT:      -3.8      5.288     10.812
  Name = 
  8 active torsions:
  status: ('A' for Active; 'I' for Inactive)
    1  A    between atoms: C_3  and  N_11
    2  A    between atoms: C_3  and  C_34
    3  A    between atoms: N_11  and  C_24
    4  A    between atoms: N_20  and  C_34
    5  A    between atoms: C_21  and  C_46
    6  A    between atoms: C_24  and  C_43
    7  A    between atoms: O_36  and  C_38
    8  A    between atoms: O_36  and  P_47
                            x       y       z     vdW  Elec       q    Type
                         _______ _______ _______ _____ _____    ______ ____

>  <TORSDO>
F 8

$$$$
=
 OpenBabel11062417053D

 47 51  0  0  1  0  0  0  0  0999 V2000
  189.0050  178.7030  138.7550 N   0  0  0  0  0  2  0  0  0  0  0  0
  191.1790  174.7870  135.7830 N   0  0  0  0  0  2  0  0  0  0  0  0
  188.4030  179.6100  139.7270 C   0  0  0  0  0  2  0  0  0  0  0  0
  191.3820  175.3730  138.2240 N   0  0  0  0  0  2  0  0  0  0  0  0
  189.0140  175.8630  138.0890 C   0  0  1  0  0  3  0  0  0  0  0  0
  185.6130  178.7710  140.0580 N   0  0  0  0  0  1  0  0  0  0  0  0
  191.4620  177.0200  142.3150 C   0  0  0  0  0  2  0  0  0  0  0  0
  187.9200  176.7590  137.5990 N   0  0  2  0  0  0  0  0  0  0  0  0
  190.2650  176.3440  140.1790 C   0  0  0  0  0  2  0  0  0  0  0  0
  192.5110  177.2310  140.1960 O   0  0  0  0  0  1  0  0  0  0  0  0
  189.0430  176.3960  136.7270 C   0  0  2  0  0  3  0  0  0  0  0  0
  188.4590  177.5910  142.9230 C   0  0  0  0  0  0  0  0  0  0  0  0
  188.7400  175.2370  135.7940 C   0  0  0  0  0  2  0  0  0  0  0  0
  190.5840  176.2510  143.3280 C   0  0  1  0  0  3  0  0  0  0  0  0
  189.4560  177.1060  143.9440 C   0  0  1  0  0  3  0  0  0  0  0  0
  190.3520  176.3250  138.6510 C   0  0  1  0  0  3  0  0  0  0  0  0
  188.8410  178.4480  141.8840 C   0  0  0  0  0  3  0  0  0  0  0  0
  191.6160  176.4300  140.9070 C   0  0  1  0  0  3  0  0  0  0  0  0
  186.2310  177.5780  142.0580 N   0  0  0  0  0  0  0  0  0  0  0  0
  191.9190  175.3350  136.8900 C   0  0  0  0  0  0  0  0  0  0  0  0
  189.8520  174.1790  135.8910 C   0  0  1  0  0  3  0  0  0  0  0  0
  187.1290  177.1660  142.9940 C   0  0  0  0  0  3  0  0  0  0  0  0
  186.5910  178.3960  141.0250 C   0  0  0  0  0  0  0  0  0  0  0  0
  193.0910  175.7540  136.6940 O   0  0  0  0  0  0  0  0  0  0  0  0
  187.9300  178.2140  137.8970 C   0  0  2  0  0  3  0  0  0  0  0  0
  187.9190  178.8410  140.9160 C   0  0  0  0  0  0  0  0  0  0  0  0
  190.0870  174.8810  142.8810 C   0  0  0  0  0  1  0  0  0  0  0  0
  192.1840  176.8560  148.5560 O   0  0  0  0  0  1  0  0  0  0  0  0
  191.3220  177.4320  147.6230 C   0  0  1  0  0  3  0  0  0  0  0  0
  191.4620  178.0740  145.2240 C   0  0  0  0  0  2  0  0  0  0  0  0
  188.8460  177.3000  146.8870 C   0  0  0  0  0  2  0  0  0  0  0  0
  189.0910  178.5500  146.0420 C   0  0  0  0  0  2  0  0  0  0  0  0
  191.6930  176.9500  146.2290 C   0  0  0  0  0  2  0  0  0  0  0  0
  189.8760  177.1050  148.0000 C   0  0  0  0  0  2  0  0  0  0  0  0
  189.9880  178.2540  144.8310 C   0  0  2  0  0  3  0  0  0  0  0  0
  187.6710  179.1050  136.6780 C   0  0  0  0  0  2  0  0  0  0  0  0
  186.9340  178.3910  135.6430 N   0  0  0  0  0  2  0  0  0  0  0  0
  185.6700  177.9830  136.2410 C   0  0  0  0  0  2  0  0  0  0  0  0
  184.8880  177.0910  135.2840 C   0  0  0  0  0  2  0  0  0  0  0  0
  184.2090  176.0310  136.0180 N   0  0  0  0  0  0  0  0  0  0  0  0
  184.7400  174.8180  135.5560 N   0  0  0  0  0  1  0  0  0  0  0  0
  184.5850  176.1500  137.3130 O   0  0  0  0  0  1  0  0  0  0  0  0
  189.6860  173.2350  134.8740 O   0  0  0  0  0  0  0  0  0  0  0  0
  188.3030  172.3700  137.1000 O   0  0  0  0  0  1  0  0  0  0  0  0
  187.0130  172.4910  134.6680 O   0  0  0  0  0  0  0  0  0  0  0  0
  188.8980  170.7370  135.1460 O   0  0  0  0  0  1  0  0  0  0  0  0
  188.4880  172.1660  135.4300 P   0  0  0  0  0  0  0  0  0  0  0  0
  1  3  1  0  0  0  0
  2 21  1  0  0  0  0
  2 20  1  0  0  0  0
  3 26  1  0  0  0  0
  4 16  1  0  0  0  0
  5 16  1  0  0  0  0
  6 23  1  0  0  0  0
  7 14  1  0  0  0  0
  8 25  1  0  0  0  0
  8  5  1  0  0  0  0
  9 18  1  0  0  0  0
 10 18  1  0  0  0  0
 11  8  1  0  0  0  0
 11  5  1  0  0  0  0
 12 22  1  0  0  0  0
 12 15  1  0  0  0  0
 13 21  1  0  0  0  0
 13 11  1  0  0  0  0
 14 15  1  0  0  0  0
 15 35  1  0  0  0  0
 16  9  1  0  0  0  0
 17 12  2  0  0  0  0
 18  7  1  0  0  0  0
 19 22  2  0  0  0  0
 20  4  1  0  0  0  0
 23 19  1  0  0  0  0
 24 20  2  0  0  0  0
 25  1  1  0  0  0  0
 26 23  2  0  0  0  0
 26 17  1  0  0  0  0
 27 14  1  0  0  0  0
 29 34  1  0  0  0  0
 29 28  1  0  0  0  0
 30 33  1  0  0  0  0
 31 34  1  0  0  0  0
 32 31  1  0  0  0  0
 33 29  1  0  0  0  0
 35 30  1  0  0  0  0
 35 32  1  0  0  0  0
 36 25  1  0  0  0  0
 37 38  1  0  0  0  0
 37 36  1  0  0  0  0
 39 40  1  0  0  0  0
 39 38  1  0  0  0  0
 40 42  1  0  0  0  0
 41 40  1  0  0  0  0
 43 47  1  0  0  0  0
 43 21  1  0  0  0  0
 45 47  2  0  0  0  0
 46 47  1  0  0  0  0
 47 44  1  0  0  0  0
M  END
>  <MODEL>
5

>  <REMARK>
 VINA RESULT:      -3.6      5.332      9.086
  Name = 
  8 active torsions:
  status: ('A' for Active; 'I' for Inactive)
    1  A    between atoms: C_3  and  N_11
    2  A    between atoms: C_3  and  C_34
    3  A    between atoms: N_11  and  C_24
    4  A    between atoms: N_20  and  C_34
    5  A    between atoms: C_21  and  C_46
    6  A    between atoms: C_24  and  C_43
    7  A    between atoms: O_36  and  C_38
    8  A    between atoms: O_36  and  P_47
                            x       y       z     vdW  Elec       q    Type
                         _______ _______ _______ _____ _____    ______ ____

>  <TORSDO>
F 8

$$$$
=
 OpenBabel11062417053D

 47 51  0  0  1  0  0  0  0  0999 V2000
  185.9130  179.3850  140.1100 N   0  0  0  0  0  2  0  0  0  0  0  0
  186.8200  176.8230  135.4720 N   0  0  0  0  0  2  0  0  0  0  0  0
  185.7650  179.9010  141.4670 C   0  0  0  0  0  2  0  0  0  0  0  0
  188.1560  177.0010  137.5990 N   0  0  0  0  0  2  0  0  0  0  0  0
  186.0140  176.8250  138.7140 C   0  0  1  0  0  3  0  0  0  0  0  0
  183.7100  178.2710  142.7770 N   0  0  0  0  0  1  0  0  0  0  0  0
  190.0740  177.8540  141.4780 C   0  0  0  0  0  2  0  0  0  0  0  0
  184.7010  177.4520  139.0670 N   0  0  2  0  0  0  0  0  0  0  0  0
  188.0700  177.2600  140.0360 C   0  0  0  0  0  2  0  0  0  0  0  0
  189.8380  178.7210  139.2820 O   0  0  0  0  0  1  0  0  0  0  0  0
  185.2550  177.5770  137.7140 C   0  0  2  0  0  3  0  0  0  0  0  0
  187.7660  177.4450  143.5320 C   0  0  0  0  0  0  0  0  0  0  0  0
  184.6980  176.5640  136.7300 C   0  0  0  0  0  2  0  0  0  0  0  0
  189.9730  176.7040  142.5050 C   0  0  1  0  0  3  0  0  0  0  0  0
  189.2070  177.0860  143.7900 C   0  0  1  0  0  3  0  0  0  0  0  0
  187.3610  177.5350  138.7080 C   0  0  1  0  0  3  0  0  0  0  0  0
  187.4220  178.5450  142.7350 C   0  0  0  0  0  3  0  0  0  0  0  0
  189.5710  177.5890  140.0530 C   0  0  1  0  0  3  0  0  0  0  0  0
  185.4430  176.9640  143.8230 N   0  0  0  0  0  0  0  0  0  0  0  0
  187.9300  177.3510  136.2230 C   0  0  0  0  0  0  0  0  0  0  0  0
  185.8490  175.8600  135.9920 C   0  0  1  0  0  3  0  0  0  0  0  0
  186.7450  176.6610  144.0770 C   0  0  0  0  0  3  0  0  0  0  0  0
  185.0900  178.0190  143.0310 C   0  0  0  0  0  0  0  0  0  0  0  0
  188.7530  178.1090  135.6430 O   0  0  0  0  0  0  0  0  0  0  0  0
  184.6390  178.7750  139.7390 C   0  0  2  0  0  3  0  0  0  0  0  0
  186.0860  178.8300  142.4610 C   0  0  0  0  0  0  0  0  0  0  0  0
  189.5340  175.3510  141.9570 C   0  0  0  0  0  1  0  0  0  0  0  0
  192.4320  176.4830  148.0320 O   0  0  0  0  0  1  0  0  0  0  0  0
  191.5180  177.1540  147.2210 C   0  0  1  0  0  3  0  0  0  0  0  0
  191.4250  177.8500  144.8360 C   0  0  0  0  0  2  0  0  0  0  0  0
  188.9690  177.2460  146.7870 C   0  0  0  0  0  2  0  0  0  0  0  0
  189.2170  178.4950  145.9430 C   0  0  0  0  0  2  0  0  0  0  0  0
  191.6780  176.6820  145.7840 C   0  0  0  0  0  2  0  0  0  0  0  0
  190.1050  176.9350  147.7650 C   0  0  0  0  0  2  0  0  0  0  0  0
  189.9350  178.1610  144.6270 C   0  0  2  0  0  3  0  0  0  0  0  0
  183.6570  179.7590  139.0960 C   0  0  0  0  0  2  0  0  0  0  0  0
  182.3040  179.5710  139.6030 N   0  0  0  0  0  2  0  0  0  0  0  0
  181.4810  179.1980  138.4610 C   0  0  0  0  0  2  0  0  0  0  0  0
  181.0030  177.7560  138.5920 C   0  0  0  0  0  2  0  0  0  0  0  0
  181.2100  177.2740  139.9510 N   0  0  0  0  0  0  0  0  0  0  0  0
  179.9370  177.1060  140.5160 N   0  0  0  0  0  1  0  0  0  0  0  0
  181.7540  176.0390  139.8500 O   0  0  0  0  0  1  0  0  0  0  0  0
  185.3310  175.1020  134.9380 O   0  0  0  0  0  0  0  0  0  0  0  0
  183.5490  173.0670  135.4880 O   0  0  0  0  0  1  0  0  0  0  0  0
  186.0790  172.4440  134.5940 O   0  0  0  0  0  0  0  0  0  0  0  0
  185.6660  173.4620  136.9710 O   0  0  0  0  0  1  0  0  0  0  0  0
  185.1790  173.5200  135.5390 P   0  0  0  0  0  0  0  0  0  0  0  0
  1  3  1  0  0  0  0
  2 21  1  0  0  0  0
  2 20  1  0  0  0  0
  3 26  1  0  0  0  0
  4 16  1  0  0  0  0
  5  8  1  0  0  0  0
  6 23  1  0  0  0  0
  7 14  1  0  0  0  0
  8 25  1  0  0  0  0
  9 18  1  0  0  0  0
 10 18  1  0  0  0  0
 11  5  1  0  0  0  0
 11  8  1  0  0  0  0
 12 15  1  0  0  0  0
 12 22  1  0  0  0  0
 13 11  1  0  0  0  0
 14 15  1  0  0  0  0
 15 35  1  0  0  0  0
 16  5  1  0  0  0  0
 16  9  1  0  0  0  0
 17 12  2  0  0  0  0
 18  7  1  0  0  0  0
 19 22  2  0  0  0  0
 20  4  1  0  0  0  0
 21 13  1  0  0  0  0
 23 19  1  0  0  0  0
 24 20  2  0  0  0  0
 25  1  1  0  0  0  0
 26 17  1  0  0  0  0
 26 23  2  0  0  0  0
 27 14  1  0  0  0  0
 29 34  1  0  0  0  0
 29 28  1  0  0  0  0
 30 33  1  0  0  0  0
 31 34  1  0  0  0  0
 32 31  1  0  0  0  0
 33 29  1  0  0  0  0
 35 30  1  0  0  0  0
 35 32  1  0  0  0  0
 36 37  1  0  0  0  0
 36 25  1  0  0  0  0
 38 39  1  0  0  0  0
 38 37  1  0  0  0  0
 39 40  1  0  0  0  0
 40 41  1  0  0  0  0
 42 40  1  0  0  0  0
 43 47  1  0  0  0  0
 43 21  1  0  0  0  0
 44 47  1  0  0  0  0
 45 47  2  0  0  0  0
 47 46  1  0  0  0  0
M  END
>  <MODEL>
6

>  <REMARK>
 VINA RESULT:      -2.9      4.979      7.373
  Name = 
  8 active torsions:
  status: ('A' for Active; 'I' for Inactive)
    1  A    between atoms: C_3  and  N_11
    2  A    between atoms: C_3  and  C_34
    3  A    between atoms: N_11  and  C_24
    4  A    between atoms: N_20  and  C_34
    5  A    between atoms: C_21  and  C_46
    6  A    between atoms: C_24  and  C_43
    7  A    between atoms: O_36  and  C_38
    8  A    between atoms: O_36  and  P_47
                            x       y       z     vdW  Elec       q    Type
                         _______ _______ _______ _____ _____    ______ ____

>  <TORSDO>
F 8

$$$$
=
 OpenBabel11062417053D

 47 51  0  0  1  0  0  0  0  0999 V2000
  185.9580  179.3820  140.1200 N   0  0  0  0  0  2  0  0  0  0  0  0
  186.8540  176.8660  135.4550 N   0  0  0  0  0  2  0  0  0  0  0  0
  185.8130  179.8850  141.4820 C   0  0  0  0  0  2  0  0  0  0  0  0
  188.1970  177.0260  137.5790 N   0  0  0  0  0  2  0  0  0  0  0  0
  186.0590  176.8360  138.7000 C   0  0  1  0  0  3  0  0  0  0  0  0
  183.7650  178.2390  142.7840 N   0  0  0  0  0  1  0  0  0  0  0  0
  190.1270  177.8460  141.4600 C   0  0  0  0  0  2  0  0  0  0  0  0
  184.7460  177.4570  139.0630 N   0  0  2  0  0  0  0  0  0  0  0  0
  188.1190  177.2610  140.0190 C   0  0  0  0  0  2  0  0  0  0  0  0
  189.8810  178.7330  139.2730 O   0  0  0  0  0  1  0  0  0  0  0  0
  185.2960  177.5950  137.7090 C   0  0  2  0  0  3  0  0  0  0  0  0
  187.8250  177.4140  143.5170 C   0  0  0  0  0  0  0  0  0  0  0  0
  184.7370  176.5910  136.7180 C   0  0  0  0  0  2  0  0  0  0  0  0
  190.0300  176.6860  142.4770 C   0  0  1  0  0  3  0  0  0  0  0  0
  189.2680  177.0540  143.7670 C   0  0  1  0  0  3  0  0  0  0  0  0
  187.4050  177.5480  138.6960 C   0  0  1  0  0  3  0  0  0  0  0  0
  187.4770  178.5200  142.7320 C   0  0  0  0  0  3  0  0  0  0  0  0
  189.6190  177.5940  140.0340 C   0  0  1  0  0  3  0  0  0  0  0  0
  185.5040  176.9250  143.8110 N   0  0  0  0  0  0  0  0  0  0  0  0
  187.9650  177.3890  136.2070 C   0  0  0  0  0  0  0  0  0  0  0  0
  185.8870  175.8960  135.9690 C   0  0  1  0  0  3  0  0  0  0  0  0
  186.8080  176.6220  144.0580 C   0  0  0  0  0  3  0  0  0  0  0  0
  185.1470  177.9870  143.0300 C   0  0  0  0  0  0  0  0  0  0  0  0
  188.7860  178.1530  135.6320 O   0  0  0  0  0  0  0  0  0  0  0  0
  184.6840  178.7730  139.7480 C   0  0  2  0  0  3  0  0  0  0  0  0
  186.1400  178.8050  142.4650 C   0  0  0  0  0  0  0  0  0  0  0  0
  189.5930  175.3380  141.9170 C   0  0  0  0  0  1  0  0  0  0  0  0
  192.3870  176.4280  148.0850 O   0  0  0  0  0  1  0  0  0  0  0  0
  191.5030  177.1080  147.2480 C   0  0  1  0  0  3  0  0  0  0  0  0
  191.4760  177.7870  144.8560 C   0  0  0  0  0  2  0  0  0  0  0  0
  188.9670  177.2430  146.7570 C   0  0  0  0  0  2  0  0  0  0  0  0
  189.2560  178.4810  145.9090 C   0  0  0  0  0  2  0  0  0  0  0  0
  191.6870  176.6230  145.8190 C   0  0  0  0  0  2  0  0  0  0  0  0
  190.0750  176.9200  147.7620 C   0  0  0  0  0  2  0  0  0  0  0  0
  189.9970  178.1230  144.6120 C   0  0  2  0  0  3  0  0  0  0  0  0
  183.6980  179.7610  139.1170 C   0  0  0  0  0  2  0  0  0  0  0  0
  182.4100  179.1330  138.8500 N   0  0  0  0  0  2  0  0  0  0  0  0
  181.4670  179.6990  139.8040 C   0  0  0  0  0  2  0  0  0  0  0  0
  180.6320  178.5990  140.4500 C   0  0  0  0  0  2  0  0  0  0  0  0
  179.9290  179.1140  141.6170 N   0  0  0  0  0  0  0  0  0  0  0  0
  179.8720  178.0660  142.5470 N   0  0  0  0  0  1  0  0  0  0  0  0
  180.7210  180.0680  142.1610 O   0  0  0  0  0  1  0  0  0  0  0  0
  185.3660  175.1460  134.9100 O   0  0  0  0  0  0  0  0  0  0  0  0
  185.7900  173.5080  137.0900 O   0  0  0  0  0  1  0  0  0  0  0  0
  183.5930  173.0810  135.4830 O   0  0  0  0  0  1  0  0  0  0  0  0
  186.0290  172.6120  134.6450 O   0  0  0  0  0  0  0  0  0  0  0  0
  185.2150  173.5600  135.4980 P   0  0  0  0  0  0  0  0  0  0  0  0
  1  3  1  0  0  0  0
  2 21  1  0  0  0  0
  2 20  1  0  0  0  0
  3 26  1  0  0  0  0
  4 16  1  0  0  0  0
  5  8  1  0  0  0  0
  6 23  1  0  0  0  0
  7 14  1  0  0  0  0
  8 25  1  0  0  0  0
  9 18  1  0  0  0  0
 10 18  1  0  0  0  0
 11  5  1  0  0  0  0
 11  8  1  0  0  0  0
 12 15  1  0  0  0  0
 12 22  1  0  0  0  0
 13 11  1  0  0  0  0
 14 15  1  0  0  0  0
 15 35  1  0  0  0  0
 16  5  1  0  0  0  0
 16  9  1  0  0  0  0
 17 12  2  0  0  0  0
 18  7  1  0  0  0  0
 19 22  2  0  0  0  0
 20  4  1  0  0  0  0
 21 13  1  0  0  0  0
 23 19  1  0  0  0  0
 24 20  2  0  0  0  0
 25  1  1  0  0  0  0
 26 17  1  0  0  0  0
 26 23  2  0  0  0  0
 27 14  1  0  0  0  0
 29 34  1  0  0  0  0
 29 28  1  0  0  0  0
 30 33  1  0  0  0  0
 31 34  1  0  0  0  0
 32 31  1  0  0  0  0
 33 29  1  0  0  0  0
 35 30  1  0  0  0  0
 35 32  1  0  0  0  0
 36 25  1  0  0  0  0
 37 36  1  0  0  0  0
 37 38  1  0  0  0  0
 38 39  1  0  0  0  0
 39 40  1  0  0  0  0
 40 42  1  0  0  0  0
 40 41  1  0  0  0  0
 43 47  1  0  0  0  0
 43 21  1  0  0  0  0
 45 47  1  0  0  0  0
 46 47  2  0  0  0  0
 47 44  1  0  0  0  0
M  END
>  <MODEL>
7

>  <REMARK>
 VINA RESULT:      -2.9      4.974      7.421
  Name = 
  8 active torsions:
  status: ('A' for Active; 'I' for Inactive)
    1  A    between atoms: C_3  and  N_11
    2  A    between atoms: C_3  and  C_34
    3  A    between atoms: N_11  and  C_24
    4  A    between atoms: N_20  and  C_34
    5  A    between atoms: C_21  and  C_46
    6  A    between atoms: C_24  and  C_43
    7  A    between atoms: O_36  and  C_38
    8  A    between atoms: O_36  and  P_47
                            x       y       z     vdW  Elec       q    Type
                         _______ _______ _______ _____ _____    ______ ____

>  <TORSDO>
F 8

$$$$
=
 OpenBabel11062417053D

 47 51  0  0  1  0  0  0  0  0999 V2000
  186.1540  179.3260  139.9470 N   0  0  0  0  0  2  0  0  0  0  0  0
  187.2620  176.7140  135.3820 N   0  0  0  0  0  2  0  0  0  0  0  0
  185.9450  179.8560  141.2910 C   0  0  0  0  0  2  0  0  0  0  0  0
  188.4960  176.9020  137.5690 N   0  0  0  0  0  2  0  0  0  0  0  0
  186.3010  176.7530  138.5810 C   0  0  1  0  0  3  0  0  0  0  0  0
  183.8170  178.2530  142.5160 N   0  0  0  0  0  1  0  0  0  0  0  0
  190.2330  177.7770  141.5270 C   0  0  0  0  0  2  0  0  0  0  0  0
  184.9780  177.3930  138.8650 N   0  0  2  0  0  0  0  0  0  0  0  0
  188.2960  177.1840  139.9960 C   0  0  0  0  0  2  0  0  0  0  0  0
  190.1090  178.6250  139.3140 O   0  0  0  0  0  1  0  0  0  0  0  0
  185.5980  177.5010  137.5390 C   0  0  2  0  0  3  0  0  0  0  0  0
  187.8250  177.4050  143.4710 C   0  0  0  0  0  0  0  0  0  0  0  0
  185.0800  176.4830  136.5390 C   0  0  0  0  0  2  0  0  0  0  0  0
  190.0730  176.6370  142.5590 C   0  0  1  0  0  3  0  0  0  0  0  0
  189.2490  177.0370  143.8010 C   0  0  1  0  0  3  0  0  0  0  0  0
  187.6530  177.4530  138.6340 C   0  0  1  0  0  3  0  0  0  0  0  0
  187.5290  178.4990  142.6500 C   0  0  0  0  0  3  0  0  0  0  0  0
  189.7970  177.5030  140.0820 C   0  0  1  0  0  3  0  0  0  0  0  0
  185.4870  176.9440  143.6550 N   0  0  0  0  0  0  0  0  0  0  0  0
  188.3380  177.2410  136.1800 C   0  0  0  0  0  0  0  0  0  0  0  0
  186.2600  175.7630  135.8630 C   0  0  1  0  0  3  0  0  0  0  0  0
  186.7730  176.6330  143.9740 C   0  0  0  0  0  3  0  0  0  0  0  0
  185.1820  177.9940  142.8370 C   0  0  0  0  0  0  0  0  0  0  0  0
  189.1950  177.9870  135.6340 O   0  0  0  0  0  0  0  0  0  0  0  0
  184.8950  178.7220  139.5210 C   0  0  2  0  0  3  0  0  0  0  0  0
  186.2100  178.7920  142.3090 C   0  0  0  0  0  0  0  0  0  0  0  0
  189.6510  175.2830  142.0020 C   0  0  0  0  0  1  0  0  0  0  0  0
  192.4090  176.4400  148.0940 O   0  0  0  0  0  1  0  0  0  0  0  0
  191.4980  177.1040  147.2740 C   0  0  1  0  0  3  0  0  0  0  0  0
  191.4360  177.8250  144.8950 C   0  0  0  0  0  2  0  0  0  0  0  0
  188.9560  177.1600  146.7960 C   0  0  0  0  0  2  0  0  0  0  0  0
  189.1990  178.4220  145.9690 C   0  0  0  0  0  2  0  0  0  0  0  0
  191.6910  176.6510  145.8350 C   0  0  0  0  0  2  0  0  0  0  0  0
  190.0800  176.8570  147.7900 C   0  0  0  0  0  2  0  0  0  0  0  0
  189.9450  178.1140  144.6630 C   0  0  2  0  0  3  0  0  0  0  0  0
  183.9520  179.7070  138.8230 C   0  0  0  0  0  2  0  0  0  0  0  0
  182.6190  179.6770  139.4100 N   0  0  0  0  0  2  0  0  0  0  0  0
  181.7020  180.1480  138.3810 C   0  0  0  0  0  2  0  0  0  0  0  0
  181.6690  181.6720  138.3490 C   0  0  0  0  0  2  0  0  0  0  0  0
  180.4720  182.1390  137.6620 N   0  0  0  0  0  0  0  0  0  0  0  0
  179.4290  182.0980  138.5980 N   0  0  0  0  0  1  0  0  0  0  0  0
  180.6750  183.4450  137.3680 O   0  0  0  0  0  1  0  0  0  0  0  0
  185.7860  174.9990  134.7920 O   0  0  0  0  0  0  0  0  0  0  0  0
  187.5290  172.8670  134.6070 O   0  0  0  0  0  0  0  0  0  0  0  0
  186.0750  173.2280  136.9190 O   0  0  0  0  0  1  0  0  0  0  0  0
  184.9390  172.5090  134.6710 O   0  0  0  0  0  1  0  0  0  0  0  0
  186.0420  173.3780  135.2340 P   0  0  0  0  0  0  0  0  0  0  0  0
  1  3  1  0  0  0  0
  2 21  1  0  0  0  0
  2 20  1  0  0  0  0
  3 26  1  0  0  0  0
  4 16  1  0  0  0  0
  5 16  1  0  0  0  0
  5  8  1  0  0  0  0
  6 23  1  0  0  0  0
  7 14  1  0  0  0  0
  8 25  1  0  0  0  0
  9 18  1  0  0  0  0
 10 18  1  0  0  0  0
 11  5  1  0  0  0  0
 11  8  1  0  0  0  0
 12 15  1  0  0  0  0
 12 22  1  0  0  0  0
 13 11  1  0  0  0  0
 14 15  1  0  0  0  0
 15 35  1  0  0  0  0
 16  9  1  0  0  0  0
 17 12  2  0  0  0  0
 18  7  1  0  0  0  0
 19 22  2  0  0  0  0
 20  4  1  0  0  0  0
 21 13  1  0  0  0  0
 23 19  1  0  0  0  0
 24 20  2  0  0  0  0
 25  1  1  0  0  0  0
 26 17  1  0  0  0  0
 26 23  2  0  0  0  0
 27 14  1  0  0  0  0
 29 34  1  0  0  0  0
 29 28  1  0  0  0  0
 30 33  1  0  0  0  0
 31 34  1  0  0  0  0
 32 31  1  0  0  0  0
 33 29  1  0  0  0  0
 35 30  1  0  0  0  0
 35 32  1  0  0  0  0
 36 37  1  0  0  0  0
 36 25  1  0  0  0  0
 38 37  1  0  0  0  0
 39 38  1  0  0  0  0
 40 39  1  0  0  0  0
 40 41  1  0  0  0  0
 42 40  1  0  0  0  0
 43 47  1  0  0  0  0
 43 21  1  0  0  0  0
 44 47  2  0  0  0  0
 46 47  1  0  0  0  0
 47 45  1  0  0  0  0
M  END
>  <MODEL>
8

>  <REMARK>
 VINA RESULT:      -2.7      5.032      7.799
  Name = 
  8 active torsions:
  status: ('A' for Active; 'I' for Inactive)
    1  A    between atoms: C_3  and  N_11
    2  A    between atoms: C_3  and  C_34
    3  A    between atoms: N_11  and  C_24
    4  A    between atoms: N_20  and  C_34
    5  A    between atoms: C_21  and  C_46
    6  A    between atoms: C_24  and  C_43
    7  A    between atoms: O_36  and  C_38
    8  A    between atoms: O_36  and  P_47
                            x       y       z     vdW  Elec       q    Type
                         _______ _______ _______ _____ _____    ______ ____

>  <TORSDO>
F 8

$$$$
=
 OpenBabel11062417053D

 47 51  0  0  1  0  0  0  0  0999 V2000
  186.4020  179.6030  141.3050 N   0  0  0  0  0  2  0  0  0  0  0  0
  181.3180  178.8450  139.7310 N   0  0  0  0  0  2  0  0  0  0  0  0
  187.8270  179.6170  141.6210 C   0  0  0  0  0  2  0  0  0  0  0  0
  183.5250  178.4110  138.5990 N   0  0  0  0  0  2  0  0  0  0  0  0
  184.2680  177.6830  140.7860 C   0  0  1  0  0  3  0  0  0  0  0  0
  188.2870  177.4670  143.5620 N   0  0  0  0  0  1  0  0  0  0  0  0
  187.6630  178.0710  137.1100 C   0  0  0  0  0  2  0  0  0  0  0  0
  184.6530  178.0370  142.1880 N   0  0  2  0  0  0  0  0  0  0  0  0
  185.8860  177.8240  138.9070 C   0  0  0  0  0  2  0  0  0  0  0  0
  185.8590  179.6030  137.2750 O   0  0  0  0  0  1  0  0  0  0  0  0
  183.4880  178.6590  141.5480 C   0  0  2  0  0  3  0  0  0  0  0  0
  189.1910  176.7930  139.5080 C   0  0  0  0  0  0  0  0  0  0  0  0
  182.1700  177.9920  141.8990 C   0  0  0  0  0  2  0  0  0  0  0  0
  188.2400  176.6370  137.1530 C   0  0  1  0  0  3  0  0  0  0  0  0
  189.4810  176.4950  138.0590 C   0  0  1  0  0  3  0  0  0  0  0  0
  184.6490  178.4690  139.5380 C   0  0  1  0  0  3  0  0  0  0  0  0
  188.7640  178.0630  139.9180 C   0  0  0  0  0  3  0  0  0  0  0  0
  186.1830  178.2590  137.4630 C   0  0  1  0  0  3  0  0  0  0  0  0
  189.0400  176.0410  141.7720 N   0  0  0  0  0  0  0  0  0  0  0  0
  182.3230  179.1840  138.7560 C   0  0  0  0  0  0  0  0  0  0  0  0
  181.3800  177.6810  140.6160 C   0  0  1  0  0  3  0  0  0  0  0  0
  189.3290  175.7850  140.4670 C   0  0  0  0  0  3  0  0  0  0  0  0
  188.6010  177.2660  142.1850 C   0  0  0  0  0  0  0  0  0  0  0  0
  182.1210  180.1610  137.9870 O   0  0  0  0  0  0  0  0  0  0  0  0
  185.7080  179.0450  142.4620 C   0  0  2  0  0  3  0  0  0  0  0  0
  188.4460  178.3050  141.2520 C   0  0  0  0  0  0  0  0  0  0  0  0
  187.2330  175.5160  137.3810 C   0  0  0  0  0  1  0  0  0  0  0  0
  193.4030  174.8990  134.7660 O   0  0  0  0  0  1  0  0  0  0  0  0
  192.8380  175.6610  135.7890 C   0  0  1  0  0  3  0  0  0  0  0  0
  190.8780  177.1740  136.0130 C   0  0  0  0  0  2  0  0  0  0  0  0
  192.3040  175.4780  138.3140 C   0  0  0  0  0  2  0  0  0  0  0  0
  191.9980  176.9750  138.2980 C   0  0  0  0  0  2  0  0  0  0  0  0
  191.3430  175.7960  135.5500 C   0  0  0  0  0  2  0  0  0  0  0  0
  193.1700  175.0200  137.1380 C   0  0  0  0  0  2  0  0  0  0  0  0
  190.7010  177.2840  137.5350 C   0  0  2  0  0  3  0  0  0  0  0  0
  185.3140  180.0980  143.5020 C   0  0  0  0  0  2  0  0  0  0  0  0
  184.5860  179.5020  144.6150 N   0  0  0  0  0  2  0  0  0  0  0  0
  185.5210  179.4280  145.7300 C   0  0  0  0  0  2  0  0  0  0  0  0
  186.0360  178.0040  145.9040 C   0  0  0  0  0  2  0  0  0  0  0  0
  186.6280  177.8360  147.2240 N   0  0  0  0  0  0  0  0  0  0  0  0
  187.9080  177.2980  147.0260 N   0  0  0  0  0  1  0  0  0  0  0  0
  186.8070  179.0780  147.7330 O   0  0  0  0  0  1  0  0  0  0  0  0
  180.0840  177.2810  140.9540 O   0  0  0  0  0  0  0  0  0  0  0  0
  178.9330  176.3460  138.6270 O   0  0  0  0  0  0  0  0  0  0  0  0
  181.2260  175.1510  139.5770 O   0  0  0  0  0  1  0  0  0  0  0  0
  178.9320  174.9170  140.8170 O   0  0  0  0  0  1  0  0  0  0  0  0
  179.7740  175.8930  140.0250 P   0  0  0  0  0  0  0  0  0  0  0  0
  1  3  1  0  0  0  0
  1 25  1  0  0  0  0
  2 21  1  0  0  0  0
  4 20  1  0  0  0  0
  4 16  1  0  0  0  0
  5 11  1  0  0  0  0
  5  8  1  0  0  0  0
  7 14  1  0  0  0  0
  7 18  1  0  0  0  0
  8 25  1  0  0  0  0
  9 16  1  0  0  0  0
 10 18  1  0  0  0  0
 11 13  1  0  0  0  0
 11  8  1  0  0  0  0
 12 17  2  0  0  0  0
 12 22  1  0  0  0  0
 14 27  1  0  0  0  0
 14 15  1  0  0  0  0
 15 12  1  0  0  0  0
 16  5  1  0  0  0  0
 17 26  1  0  0  0  0
 18  9  1  0  0  0  0
 19 23  1  0  0  0  0
 20  2  1  0  0  0  0
 21 43  1  0  0  0  0
 21 13  1  0  0  0  0
 22 19  2  0  0  0  0
 23  6  1  0  0  0  0
 24 20  2  0  0  0  0
 25 36  1  0  0  0  0
 26  3  1  0  0  0  0
 26 23  2  0  0  0  0
 28 29  1  0  0  0  0
 29 34  1  0  0  0  0
 30 35  1  0  0  0  0
 32 31  1  0  0  0  0
 33 29  1  0  0  0  0
 33 30  1  0  0  0  0
 34 31  1  0  0  0  0
 35 15  1  0  0  0  0
 35 32  1  0  0  0  0
 36 37  1  0  0  0  0
 37 38  1  0  0  0  0
 38 39  1  0  0  0  0
 39 40  1  0  0  0  0
 40 42  1  0  0  0  0
 41 40  1  0  0  0  0
 44 47  2  0  0  0  0
 45 47  1  0  0  0  0
 47 46  1  0  0  0  0
 47 43  1  0  0  0  0
M  END
>  <MODEL>
9

>  <REMARK>
 VINA RESULT:      -2.6      4.186      6.250
  Name = 
  8 active torsions:
  status: ('A' for Active; 'I' for Inactive)
    1  A    between atoms: C_3  and  N_11
    2  A    between atoms: C_3  and  C_34
    3  A    between atoms: N_11  and  C_24
    4  A    between atoms: N_20  and  C_34
    5  A    between atoms: C_21  and  C_46
    6  A    between atoms: C_24  and  C_43
    7  A    between atoms: O_36  and  C_38
    8  A    between atoms: O_36  and  P_47
                            x       y       z     vdW  Elec       q    Type
                         _______ _______ _______ _____ _____    ______ ____

>  <TORSDO>
F 8

$$$$
