=
 OpenBabel11062417153D

 26 30  0  0  1  0  0  0  0  0999 V2000
  184.0070  175.2480  135.5300 C   0  0  0  0  0  2  0  0  0  0  0  0
  185.5060  173.5490  136.6580 C   0  0  0  0  0  0  0  0  0  0  0  0
  186.4950  174.0530  137.3530 N   0  0  0  0  0  0  0  0  0  0  0  0
  188.7070  175.1720  137.1460 C   0  0  0  0  0  2  0  0  0  0  0  0
  184.1520  172.8690  134.8350 C   0  0  0  0  0  2  0  0  0  0  0  0
  189.7620  177.8580  136.9000 C   0  0  0  0  0  2  0  0  0  0  0  0
  187.2310  177.7850  137.2230 N   0  0  0  0  0  2  0  0  0  0  0  0
  186.5820  176.4970  137.2380 C   0  0  0  0  0  0  0  0  0  0  0  0
  184.9590  172.2930  137.0050 N   0  0  0  0  0  2  0  0  0  0  0  0
  189.3570  177.5930  134.5960 O   0  0  0  0  0  0  0  0  0  0  0  0
  184.2860  170.4800  135.5380 C   0  0  0  0  0  1  0  0  0  0  0  0
  183.9930  171.8920  136.0020 C   0  0  2  0  0  3  0  0  0  0  0  0
  189.4450  177.0440  135.6810 C   0  0  0  0  0  0  0  0  0  0  0  0
  185.1010  176.4680  137.1610 C   0  0  2  0  0  3  0  0  0  0  0  0
  189.2480  175.5630  135.7780 C   0  0  0  0  0  2  0  0  0  0  0  0
  184.8960  176.4440  135.7010 C   0  0  2  0  0  3  0  0  0  0  0  0
  184.4360  177.5100  136.4870 O   0  0  0  0  0  0  0  0  0  0  0  0
  187.2200  175.2950  137.1930 C   0  0  0  0  0  0  0  0  0  0  0  0
  184.9550  174.0570  135.3570 C   0  0  1  0  0  3  0  0  0  0  0  0
  188.5330  178.1880  137.7630 C   0  0  1  0  0  3  0  0  0  0  0  0
  188.9810  177.4330  141.9500 C   0  0  0  0  0  3  0  0  0  0  0  0
  187.8610  178.0450  141.4800 N   0  0  0  0  0  0  0  0  0  0  0  0
  188.6730  177.9140  139.2310 C   0  0  0  0  0  0  0  0  0  0  0  0
  189.8310  177.2900  139.7020 C   0  0  0  0  0  3  0  0  0  0  0  0
  187.6890  178.2920  140.1540 C   0  0  0  0  0  3  0  0  0  0  0  0
  189.9900  177.0450  141.0670 C   0  0  0  0  0  3  0  0  0  0  0  0
  2  9  1  0  0  0  0
  2  3  2  0  0  0  0
  4 18  1  0  0  0  0
  5 12  1  0  0  0  0
  6 20  1  0  0  0  0
  7  8  1  0  0  0  0
  7 20  1  0  0  0  0
 10 13  2  0  0  0  0
 12 11  1  6  0  0  0
 12  9  1  0  0  0  0
 13 15  1  0  0  0  0
 13  6  1  0  0  0  0
 14 17  1  6  0  0  0
 14  8  1  0  0  0  0
 15  4  1  0  0  0  0
 16  1  1  1  0  0  0
 16 17  1  0  0  0  0
 16 14  1  0  0  0  0
 18  8  2  0  0  0  0
 18  3  1  0  0  0  0
 19  5  1  1  0  0  0
 19  1  1  0  0  0  0
 19  2  1  0  0  0  0
 20 23  1  1  0  0  0
 22 21  1  0  0  0  0
 23 24  2  0  0  0  0
 23 25  1  0  0  0  0
 24 26  1  0  0  0  0
 25 22  2  0  0  0  0
 26 21  2  0  0  0  0
M  END
>  <MODEL>
1

>  <REMARK>
 VINA RESULT:      -5.6      0.000      0.000
  Name = 
  1 active torsions:
  status: ('A' for Active; 'I' for Inactive)
    1  A    between atoms: C_10  and  C_26
                            x       y       z     vdW  Elec       q    Type
                         _______ _______ _______ _____ _____    ______ ____

>  <TORSDO>
F 1

$$$$
=
 OpenBabel11062417153D

 26 30  0  0  1  0  0  0  0  0999 V2000
  184.3130  175.9490  137.4550 C   0  0  0  0  0  2  0  0  0  0  0  0
  184.9530  178.2670  138.2440 C   0  0  0  0  0  0  0  0  0  0  0  0
  184.0080  178.9220  138.8720 N   0  0  0  0  0  0  0  0  0  0  0  0
  181.8640  180.1380  138.5340 C   0  0  0  0  0  2  0  0  0  0  0  0
  186.2170  177.2400  136.5220 C   0  0  0  0  0  2  0  0  0  0  0  0
  179.0310  179.5470  138.4350 C   0  0  0  0  0  2  0  0  0  0  0  0
  180.4710  177.5240  139.0240 N   0  0  0  0  0  2  0  0  0  0  0  0
  181.9050  177.6730  138.9850 C   0  0  0  0  0  0  0  0  0  0  0  0
  186.3120  178.5320  138.5250 N   0  0  0  0  0  2  0  0  0  0  0  0
  179.4220  179.0200  136.1740 O   0  0  0  0  0  0  0  0  0  0  0  0
  188.1670  178.7290  136.9720 C   0  0  0  0  0  1  0  0  0  0  0  0
  187.1500  177.7960  137.5990 C   0  0  2  0  0  3  0  0  0  0  0  0
  179.8590  179.5430  137.1850 C   0  0  0  0  0  0  0  0  0  0  0  0
  182.7310  176.4440  139.0670 C   0  0  2  0  0  3  0  0  0  0  0  0
  181.2120  180.1830  137.1600 C   0  0  0  0  0  2  0  0  0  0  0  0
  182.8300  176.0760  137.6420 C   0  0  2  0  0  3  0  0  0  0  0  0
  182.2010  175.2360  138.5740 O   0  0  0  0  0  0  0  0  0  0  0  0
  182.5680  178.8400  138.7550 C   0  0  0  0  0  0  0  0  0  0  0  0
  184.7950  177.3490  137.0650 C   0  0  1  0  0  3  0  0  0  0  0  0
  179.4390  178.4720  139.4550 C   0  0  1  0  0  3  0  0  0  0  0  0
  180.0190  179.7920  143.4820 C   0  0  0  0  0  3  0  0  0  0  0  0
  179.8490  180.6980  142.4820 N   0  0  0  0  0  0  0  0  0  0  0  0
  179.6260  178.9450  140.8660 C   0  0  0  0  0  0  0  0  0  0  0  0
  179.8050  178.0040  141.8830 C   0  0  0  0  0  3  0  0  0  0  0  0
  179.6580  180.3070  141.1940 C   0  0  0  0  0  3  0  0  0  0  0  0
  180.0000  178.4250  143.2000 C   0  0  0  0  0  3  0  0  0  0  0  0
  2  9  1  0  0  0  0
  2  3  2  0  0  0  0
  4 18  1  0  0  0  0
  5 12  1  0  0  0  0
  6 20  1  0  0  0  0
  7 20  1  0  0  0  0
  8  7  1  0  0  0  0
  8 14  1  0  0  0  0
 10 13  2  0  0  0  0
 12 11  1  6  0  0  0
 12  9  1  0  0  0  0
 13  6  1  0  0  0  0
 14 17  1  1  0  0  0
 15 13  1  0  0  0  0
 15  4  1  0  0  0  0
 16  1  1  1  0  0  0
 16 17  1  0  0  0  0
 16 14  1  0  0  0  0
 18  3  1  0  0  0  0
 18  8  2  0  0  0  0
 19  5  1  1  0  0  0
 19  1  1  0  0  0  0
 19  2  1  0  0  0  0
 20 23  1  1  0  0  0
 22 21  2  0  0  0  0
 23 25  2  0  0  0  0
 23 24  1  0  0  0  0
 24 26  2  0  0  0  0
 25 22  1  0  0  0  0
 26 21  1  0  0  0  0
M  END
>  <MODEL>
2

>  <REMARK>
 VINA RESULT:      -5.5      5.257      7.645
  Name = 
  1 active torsions:
  status: ('A' for Active; 'I' for Inactive)
    1  A    between atoms: C_10  and  C_26
                            x       y       z     vdW  Elec       q    Type
                         _______ _______ _______ _____ _____    ______ ____

>  <TORSDO>
F 1

$$$$
=
 OpenBabel11062417153D

 26 30  0  0  1  0  0  0  0  0999 V2000
  191.6890  177.8780  142.6070 C   0  0  0  0  0  2  0  0  0  0  0  0
  189.2860  177.1030  142.7810 C   0  0  0  0  0  0  0  0  0  0  0  0
  188.7620  176.6590  141.6650 N   0  0  0  0  0  0  0  0  0  0  0  0
  187.8790  177.3820  139.4540 C   0  0  0  0  0  2  0  0  0  0  0  0
  190.1550  178.5600  144.4360 C   0  0  0  0  0  2  0  0  0  0  0  0
  188.8770  177.8940  136.7840 C   0  0  0  0  0  2  0  0  0  0  0  0
  190.6560  176.9990  138.3810 N   0  0  0  0  0  2  0  0  0  0  0  0
  190.3010  176.8200  139.7670 C   0  0  0  0  0  0  0  0  0  0  0  0
  188.8200  176.6260  144.0260 N   0  0  0  0  0  2  0  0  0  0  0  0
  189.3910  180.0410  137.6030 O   0  0  0  0  0  0  0  0  0  0  0  0
  188.3890  177.8780  146.0600 C   0  0  0  0  0  1  0  0  0  0  0  0
  189.4460  177.3760  145.0960 C   0  0  2  0  0  3  0  0  0  0  0  0
  188.7880  178.9980  137.7950 C   0  0  0  0  0  0  0  0  0  0  0  0
  191.3950  176.5550  140.7330 C   0  0  2  0  0  3  0  0  0  0  0  0
  187.9590  178.8410  139.0310 C   0  0  0  0  0  2  0  0  0  0  0  0
  191.7750  177.9300  141.1100 C   0  0  2  0  0  3  0  0  0  0  0  0
  192.6770  177.0710  140.4640 O   0  0  0  0  0  0  0  0  0  0  0  0
  189.0550  176.9960  140.2880 C   0  0  0  0  0  0  0  0  0  0  0  0
  190.2420  178.2500  142.9440 C   0  0  1  0  0  3  0  0  0  0  0  0
  189.8600  176.7760  137.1710 C   0  0  1  0  0  3  0  0  0  0  0  0
  188.3370  172.7950  136.8050 C   0  0  0  0  0  3  0  0  0  0  0  0
  189.6510  173.0030  137.0910 N   0  0  0  0  0  0  0  0  0  0  0  0
  189.3330  175.3760  137.0600 C   0  0  0  0  0  0  0  0  0  0  0  0
  187.9830  175.1770  136.7610 C   0  0  0  0  0  3  0  0  0  0  0  0
  190.1610  174.2570  137.2180 C   0  0  0  0  0  3  0  0  0  0  0  0
  187.4780  173.8810  136.6340 C   0  0  0  0  0  3  0  0  0  0  0  0
  2 19  1  0  0  0  0
  2  9  1  0  0  0  0
  3  2  2  0  0  0  0
  4 18  1  0  0  0  0
  5 12  1  0  0  0  0
  6 20  1  0  0  0  0
  6 13  1  0  0  0  0
  7  8  1  0  0  0  0
  8 18  2  0  0  0  0
  9 12  1  0  0  0  0
 10 13  2  0  0  0  0
 12 11  1  1  0  0  0
 13 15  1  0  0  0  0
 14  8  1  6  0  0  0
 14 16  1  0  0  0  0
 15  4  1  0  0  0  0
 16  1  1  1  0  0  0
 17 14  1  0  0  0  0
 17 16  1  0  0  0  0
 18  3  1  0  0  0  0
 19  1  1  1  0  0  0
 19  5  1  0  0  0  0
 20 23  1  1  0  0  0
 20  7  1  0  0  0  0
 21 22  1  0  0  0  0
 22 25  2  0  0  0  0
 23 25  1  0  0  0  0
 24 23  2  0  0  0  0
 26 24  1  0  0  0  0
 26 21  2  0  0  0  0
M  END
>  <MODEL>
3

>  <REMARK>
 VINA RESULT:      -5.4      2.892      7.341
  Name = 
  1 active torsions:
  status: ('A' for Active; 'I' for Inactive)
    1  A    between atoms: C_10  and  C_26
                            x       y       z     vdW  Elec       q    Type
                         _______ _______ _______ _____ _____    ______ ____

>  <TORSDO>
F 1

$$$$
=
 OpenBabel11062417153D

 26 30  0  0  1  0  0  0  0  0999 V2000
  184.9530  178.3990  143.5520 C   0  0  0  0  0  2  0  0  0  0  0  0
  185.9400  178.5870  141.2290 C   0  0  0  0  0  0  0  0  0  0  0  0
  185.0720  178.8040  140.2720 N   0  0  0  0  0  0  0  0  0  0  0  0
  183.2870  177.7220  138.9180 C   0  0  0  0  0  2  0  0  0  0  0  0
  187.1890  177.5140  142.9340 C   0  0  0  0  0  2  0  0  0  0  0  0
  180.4320  177.2580  139.0720 C   0  0  0  0  0  2  0  0  0  0  0  0
  181.3370  178.6740  140.9930 N   0  0  0  0  0  2  0  0  0  0  0  0
  182.7630  178.8690  141.0840 C   0  0  0  0  0  0  0  0  0  0  0  0
  187.2730  179.0350  141.0970 N   0  0  0  0  0  2  0  0  0  0  0  0
  181.0100  175.3660  140.3500 O   0  0  0  0  0  0  0  0  0  0  0  0
  189.3220  177.8780  141.6940 C   0  0  0  0  0  1  0  0  0  0  0  0
  188.0610  178.5410  142.2090 C   0  0  2  0  0  3  0  0  0  0  0  0
  181.4040  176.2460  139.6030 C   0  0  0  0  0  0  0  0  0  0  0  0
  183.3020  179.4630  142.3320 C   0  0  2  0  0  3  0  0  0  0  0  0
  182.8500  176.2960  139.2180 C   0  0  0  0  0  2  0  0  0  0  0  0
  183.5160  178.2530  143.1480 C   0  0  2  0  0  3  0  0  0  0  0  0
  182.6090  179.2490  143.5390 O   0  0  0  0  0  0  0  0  0  0  0  0
  183.6750  178.4420  140.1680 C   0  0  0  0  0  0  0  0  0  0  0  0
  185.7590  177.7190  142.4420 C   0  0  1  0  0  3  0  0  0  0  0  0
  180.4710  178.6040  139.8120 C   0  0  1  0  0  3  0  0  0  0  0  0
  180.6790  182.0650  137.3050 C   0  0  0  0  0  3  0  0  0  0  0  0
  180.4940  182.2000  138.6460 N   0  0  0  0  0  0  0  0  0  0  0  0
  180.5580  179.8250  138.9450 C   0  0  0  0  0  0  0  0  0  0  0  0
  180.7420  179.6720  137.5680 C   0  0  0  0  0  3  0  0  0  0  0  0
  180.4300  181.1180  139.4680 C   0  0  0  0  0  3  0  0  0  0  0  0
  180.8060  180.7950  136.7400 C   0  0  0  0  0  3  0  0  0  0  0  0
  2 19  1  0  0  0  0
  3  2  2  0  0  0  0
  4 15  1  0  0  0  0
  4 18  1  0  0  0  0
  6 13  1  0  0  0  0
  6 20  1  0  0  0  0
  7  8  1  0  0  0  0
  9  2  1  0  0  0  0
  9 12  1  0  0  0  0
 12 11  1  6  0  0  0
 12  5  1  0  0  0  0
 13 10  2  0  0  0  0
 14  8  1  6  0  0  0
 14 16  1  0  0  0  0
 14 17  1  0  0  0  0
 15 13  1  0  0  0  0
 16 17  1  0  0  0  0
 16  1  1  1  0  0  0
 18  3  1  0  0  0  0
 18  8  2  0  0  0  0
 19  5  1  1  0  0  0
 19  1  1  0  0  0  0
 20 23  1  6  0  0  0
 20  7  1  0  0  0  0
 21 22  1  0  0  0  0
 22 25  2  0  0  0  0
 23 25  1  0  0  0  0
 24 23  2  0  0  0  0
 26 21  2  0  0  0  0
 26 24  1  0  0  0  0
M  END
>  <MODEL>
4

>  <REMARK>
 VINA RESULT:      -5.4      4.963      8.427
  Name = 
  1 active torsions:
  status: ('A' for Active; 'I' for Inactive)
    1  A    between atoms: C_10  and  C_26
                            x       y       z     vdW  Elec       q    Type
                         _______ _______ _______ _____ _____    ______ ____

>  <TORSDO>
F 1

$$$$
=
 OpenBabel11062417153D

 26 30  0  0  1  0  0  0  0  0999 V2000
  183.1830  179.0060  142.9700 C   0  0  0  0  0  2  0  0  0  0  0  0
  184.2860  178.7170  140.7100 C   0  0  0  0  0  0  0  0  0  0  0  0
  183.4610  178.5830  139.7010 N   0  0  0  0  0  0  0  0  0  0  0  0
  181.8860  176.9920  138.6140 C   0  0  0  0  0  2  0  0  0  0  0  0
  185.5340  178.2630  142.6740 C   0  0  0  0  0  2  0  0  0  0  0  0
  179.0920  176.2510  138.7890 C   0  0  0  0  0  2  0  0  0  0  0  0
  179.7230  178.2010  140.3090 N   0  0  0  0  0  2  0  0  0  0  0  0
  181.1130  178.5790  140.3930 C   0  0  0  0  0  0  0  0  0  0  0  0
  185.5710  179.2700  140.5110 N   0  0  0  0  0  2  0  0  0  0  0  0
  179.7850  174.8240  140.5290 O   0  0  0  0  0  0  0  0  0  0  0  0
  187.6890  178.5490  141.4520 C   0  0  0  0  0  1  0  0  0  0  0  0
  186.3360  179.1690  141.7380 C   0  0  2  0  0  3  0  0  0  0  0  0
  180.1300  175.5270  139.5940 C   0  0  0  0  0  0  0  0  0  0  0  0
  181.5090  179.5270  141.4630 C   0  0  2  0  0  3  0  0  0  0  0  0
  181.5830  175.6470  139.2570 C   0  0  0  0  0  2  0  0  0  0  0  0
  181.7970  178.5960  142.5700 C   0  0  2  0  0  3  0  0  0  0  0  0
  180.7690  179.5450  142.6610 O   0  0  0  0  0  0  0  0  0  0  0  0
  182.1190  178.0450  139.6480 C   0  0  0  0  0  0  0  0  0  0  0  0
  184.1230  178.1680  142.0990 C   0  0  1  0  0  3  0  0  0  0  0  0
  178.9440  177.7360  139.1590 C   0  0  1  0  0  3  0  0  0  0  0  0
  178.9320  180.4590  135.8590 C   0  0  0  0  0  3  0  0  0  0  0  0
  178.9410  180.9290  137.1360 N   0  0  0  0  0  0  0  0  0  0  0  0
  178.9560  178.7000  138.0090 C   0  0  0  0  0  0  0  0  0  0  0  0
  178.9410  178.2030  136.7030 C   0  0  0  0  0  3  0  0  0  0  0  0
  178.9510  180.0870  138.2040 C   0  0  0  0  0  3  0  0  0  0  0  0
  178.9310  179.0840  135.6190 C   0  0  0  0  0  3  0  0  0  0  0  0
  2 19  1  0  0  0  0
  3  2  2  0  0  0  0
  4 15  1  0  0  0  0
  4 18  1  0  0  0  0
  6 20  1  0  0  0  0
  6 13  1  0  0  0  0
  7  8  1  0  0  0  0
  9  2  1  0  0  0  0
  9 12  1  0  0  0  0
 12 11  1  6  0  0  0
 12  5  1  0  0  0  0
 13 10  2  0  0  0  0
 14  8  1  6  0  0  0
 14 16  1  0  0  0  0
 14 17  1  0  0  0  0
 15 13  1  0  0  0  0
 16 17  1  0  0  0  0
 16  1  1  1  0  0  0
 18  3  1  0  0  0  0
 18  8  2  0  0  0  0
 19  5  1  1  0  0  0
 19  1  1  0  0  0  0
 20 23  1  6  0  0  0
 20  7  1  0  0  0  0
 21 22  1  0  0  0  0
 22 25  2  0  0  0  0
 23 25  1  0  0  0  0
 24 23  2  0  0  0  0
 26 21  2  0  0  0  0
 26 24  1  0  0  0  0
M  END
>  <MODEL>
5

>  <REMARK>
 VINA RESULT:      -5.3      5.696      9.140
  Name = 
  1 active torsions:
  status: ('A' for Active; 'I' for Inactive)
    1  A    between atoms: C_10  and  C_26
                            x       y       z     vdW  Elec       q    Type
                         _______ _______ _______ _____ _____    ______ ____

>  <TORSDO>
F 1

$$$$
=
 OpenBabel11062417153D

 26 30  0  0  1  0  0  0  0  0999 V2000
  180.1390  180.3050  139.8140 C   0  0  0  0  0  2  0  0  0  0  0  0
  181.2630  178.7180  141.4340 C   0  0  0  0  0  0  0  0  0  0  0  0
  182.2470  178.0130  140.9310 N   0  0  0  0  0  0  0  0  0  0  0  0
  182.7600  176.1000  139.4260 C   0  0  0  0  0  2  0  0  0  0  0  0
  179.0840  179.5160  141.9190 C   0  0  0  0  0  2  0  0  0  0  0  0
  183.2480  175.6270  136.6110 C   0  0  0  0  0  2  0  0  0  0  0  0
  182.9570  178.0950  137.1920 N   0  0  0  0  0  2  0  0  0  0  0  0
  182.5920  178.4390  138.5440 C   0  0  0  0  0  0  0  0  0  0  0  0
  181.2440  179.0340  142.8100 N   0  0  0  0  0  2  0  0  0  0  0  0
  180.9030  175.5150  136.4270 O   0  0  0  0  0  0  0  0  0  0  0  0
  179.3630  179.0030  144.3430 C   0  0  0  0  0  1  0  0  0  0  0  0
  179.9900  179.6800  143.1410 C   0  0  2  0  0  3  0  0  0  0  0  0
  181.8640  175.5200  137.1780 C   0  0  0  0  0  0  0  0  0  0  0  0
  182.1690  179.8360  138.8130 C   0  0  2  0  0  3  0  0  0  0  0  0
  181.6470  175.4060  138.6550 C   0  0  0  0  0  2  0  0  0  0  0  0
  180.7210  179.7470  138.5500 C   0  0  2  0  0  3  0  0  0  0  0  0
  181.5560  180.5700  137.7800 O   0  0  0  0  0  0  0  0  0  0  0  0
  182.4830  177.5590  139.5770 C   0  0  0  0  0  0  0  0  0  0  0  0
  179.9810  179.1060  140.7540 C   0  0  1  0  0  3  0  0  0  0  0  0
  183.8460  177.0400  136.6990 C   0  0  1  0  0  3  0  0  0  0  0  0
  187.8260  177.2800  138.2520 C   0  0  0  0  0  3  0  0  0  0  0  0
  186.9510  178.3040  138.4450 N   0  0  0  0  0  0  0  0  0  0  0  0
  185.2350  177.1280  137.2610 C   0  0  0  0  0  0  0  0  0  0  0  0
  186.1240  176.0710  137.0500 C   0  0  0  0  0  3  0  0  0  0  0  0
  185.6790  178.2530  137.9680 C   0  0  0  0  0  3  0  0  0  0  0  0
  187.4270  176.1430  137.5480 C   0  0  0  0  0  3  0  0  0  0  0  0
  2  9  1  0  0  0  0
  3  2  2  0  0  0  0
  4 18  1  0  0  0  0
  5 12  1  0  0  0  0
  6 20  1  0  0  0  0
  6 13  1  0  0  0  0
  7  8  1  0  0  0  0
  8 14  1  0  0  0  0
  8 18  2  0  0  0  0
  9 12  1  0  0  0  0
 10 13  2  0  0  0  0
 12 11  1  1  0  0  0
 13 15  1  0  0  0  0
 14 17  1  6  0  0  0
 15  4  1  0  0  0  0
 16 14  1  0  0  0  0
 16  1  1  1  0  0  0
 17 16  1  0  0  0  0
 18  3  1  0  0  0  0
 19  1  1  6  0  0  0
 19  2  1  0  0  0  0
 19  5  1  0  0  0  0
 20  7  1  0  0  0  0
 20 23  1  1  0  0  0
 21 22  1  0  0  0  0
 23 25  1  0  0  0  0
 24 23  2  0  0  0  0
 24 26  1  0  0  0  0
 25 22  2  0  0  0  0
 26 21  2  0  0  0  0
M  END
>  <MODEL>
6

>  <REMARK>
 VINA RESULT:      -5.2      4.867      7.157
  Name = 
  1 active torsions:
  status: ('A' for Active; 'I' for Inactive)
    1  A    between atoms: C_10  and  C_26
                            x       y       z     vdW  Elec       q    Type
                         _______ _______ _______ _____ _____    ______ ____

>  <TORSDO>
F 1

$$$$
=
 OpenBabel11062417153D

 26 30  0  0  1  0  0  0  0  0999 V2000
  187.0280  178.4780  141.0920 C   0  0  0  0  0  2  0  0  0  0  0  0
  187.0730  178.3820  138.5630 C   0  0  0  0  0  0  0  0  0  0  0  0
  185.9160  178.5710  137.9780 N   0  0  0  0  0  0  0  0  0  0  0  0
  183.7200  177.4960  137.5140 C   0  0  0  0  0  2  0  0  0  0  0  0
  188.8390  177.3860  139.7910 C   0  0  0  0  0  2  0  0  0  0  0  0
  181.1210  177.2490  138.7670 C   0  0  0  0  0  2  0  0  0  0  0  0
  182.7250  178.7690  140.0440 N   0  0  0  0  0  2  0  0  0  0  0  0
  184.0860  178.8720  139.5760 C   0  0  0  0  0  0  0  0  0  0  0  0
  188.2710  178.7210  137.8970 N   0  0  0  0  0  2  0  0  0  0  0  0
  182.0790  175.4470  139.9420 O   0  0  0  0  0  0  0  0  0  0  0  0
  190.3580  177.4830  137.8150 C   0  0  0  0  0  1  0  0  0  0  0  0
  189.4040  178.2780  138.6840 C   0  0  2  0  0  3  0  0  0  0  0  0
  182.1890  176.2250  139.0090 C   0  0  0  0  0  0  0  0  0  0  0  0
  185.0730  179.5380  140.4610 C   0  0  2  0  0  3  0  0  0  0  0  0
  183.3850  176.1380  138.1120 C   0  0  0  0  0  2  0  0  0  0  0  0
  185.5410  178.3970  141.2690 C   0  0  2  0  0  3  0  0  0  0  0  0
  184.8790  179.4860  141.8550 O   0  0  0  0  0  0  0  0  0  0  0  0
  184.5720  178.2990  138.4410 C   0  0  0  0  0  0  0  0  0  0  0  0
  187.3350  177.6440  139.8450 C   0  0  1  0  0  3  0  0  0  0  0  0
  181.4770  178.6520  139.2850 C   0  0  1  0  0  3  0  0  0  0  0  0
  180.8300  181.8450  136.5110 C   0  0  0  0  0  3  0  0  0  0  0  0
  181.1880  182.1140  137.7950 N   0  0  0  0  0  0  0  0  0  0  0  0
  181.2680  179.7790  138.3170 C   0  0  0  0  0  0  0  0  0  0  0  0
  180.8940  179.4880  137.0010 C   0  0  0  0  0  3  0  0  0  0  0  0
  181.4060  181.1200  138.6970 C   0  0  0  0  0  3  0  0  0  0  0  0
  180.6750  180.5230  136.0910 C   0  0  0  0  0  3  0  0  0  0  0  0
  2 19  1  0  0  0  0
  3 18  1  0  0  0  0
  3  2  2  0  0  0  0
  4 15  1  0  0  0  0
  4 18  1  0  0  0  0
  6 13  1  0  0  0  0
  6 20  1  0  0  0  0
  8  7  1  0  0  0  0
  9  2  1  0  0  0  0
  9 12  1  0  0  0  0
 12 11  1  6  0  0  0
 12  5  1  0  0  0  0
 13 10  2  0  0  0  0
 14  8  1  6  0  0  0
 14 16  1  0  0  0  0
 14 17  1  0  0  0  0
 15 13  1  0  0  0  0
 16  1  1  1  0  0  0
 16 17  1  0  0  0  0
 18  8  2  0  0  0  0
 19  5  1  1  0  0  0
 19  1  1  0  0  0  0
 20 23  1  6  0  0  0
 20  7  1  0  0  0  0
 21 22  1  0  0  0  0
 22 25  2  0  0  0  0
 23 25  1  0  0  0  0
 24 23  2  0  0  0  0
 26 21  2  0  0  0  0
 26 24  1  0  0  0  0
M  END
>  <MODEL>
7

>  <REMARK>
 VINA RESULT:      -5.1      4.007      7.461
  Name = 
  1 active torsions:
  status: ('A' for Active; 'I' for Inactive)
    1  A    between atoms: C_10  and  C_26
                            x       y       z     vdW  Elec       q    Type
                         _______ _______ _______ _____ _____    ______ ____

>  <TORSDO>
F 1

$$$$
=
 OpenBabel11062417153D

 26 30  0  0  1  0  0  0  0  0999 V2000
  180.6370  179.6860  135.0570 C   0  0  0  0  0  2  0  0  0  0  0  0
  180.7410  181.6110  136.6970 C   0  0  0  0  0  0  0  0  0  0  0  0
  181.2380  181.3150  137.8720 N   0  0  0  0  0  0  0  0  0  0  0  0
  180.7390  180.1360  140.0060 C   0  0  0  0  0  2  0  0  0  0  0  0
  179.2680  181.7470  134.8450 C   0  0  0  0  0  2  0  0  0  0  0  0
  180.9950  177.4760  141.1230 C   0  0  0  0  0  2  0  0  0  0  0  0
  181.9950  177.6970  138.7850 N   0  0  0  0  0  2  0  0  0  0  0  0
  181.8200  178.9450  138.0840 C   0  0  0  0  0  0  0  0  0  0  0  0
  180.8490  182.9240  136.1880 N   0  0  0  0  0  2  0  0  0  0  0  0
  178.9310  177.0520  140.0720 O   0  0  0  0  0  0  0  0  0  0  0  0
  179.1760  184.2330  135.0140 C   0  0  0  0  0  1  0  0  0  0  0  0
  180.0940  183.0290  134.9560 C   0  0  2  0  0  3  0  0  0  0  0  0
  179.7360  177.8970  140.4250 C   0  0  0  0  0  0  0  0  0  0  0  0
  182.1660  178.9830  136.6420 C   0  0  2  0  0  3  0  0  0  0  0  0
  179.4500  179.3440  140.1660 C   0  0  0  0  0  2  0  0  0  0  0  0
  180.8850  178.5760  136.0340 C   0  0  2  0  0  3  0  0  0  0  0  0
  182.0460  177.8020  135.8840 O   0  0  0  0  0  0  0  0  0  0  0  0
  181.2460  180.0650  138.6030 C   0  0  0  0  0  0  0  0  0  0  0  0
  179.8600  180.7500  135.8380 C   0  0  1  0  0  3  0  0  0  0  0  0
  182.2310  177.4450  140.2090 C   0  0  1  0  0  3  0  0  0  0  0  0
  185.7210  179.3840  141.7470 C   0  0  0  0  0  3  0  0  0  0  0  0
  185.5530  179.2380  140.4050 N   0  0  0  0  0  0  0  0  0  0  0  0
  183.4510  178.1410  140.7370 C   0  0  0  0  0  0  0  0  0  0  0  0
  183.6140  178.2780  142.1180 C   0  0  0  0  0  3  0  0  0  0  0  0
  184.4510  178.6320  139.8880 C   0  0  0  0  0  3  0  0  0  0  0  0
  184.7520  178.9040  142.6300 C   0  0  0  0  0  3  0  0  0  0  0  0
  1 19  1  0  0  0  0
  2  3  2  0  0  0  0
  3 18  1  0  0  0  0
  4 15  1  0  0  0  0
  5 12  1  0  0  0  0
  7 20  1  0  0  0  0
  8 18  2  0  0  0  0
  8  7  1  0  0  0  0
  9  2  1  0  0  0  0
 10 13  2  0  0  0  0
 12 11  1  1  0  0  0
 12  9  1  0  0  0  0
 13  6  1  0  0  0  0
 14 17  1  1  0  0  0
 14  8  1  0  0  0  0
 15 13  1  0  0  0  0
 16  1  1  6  0  0  0
 16 14  1  0  0  0  0
 17 16  1  0  0  0  0
 18  4  1  0  0  0  0
 19  5  1  6  0  0  0
 19  2  1  0  0  0  0
 20 23  1  1  0  0  0
 20  6  1  0  0  0  0
 21 26  1  0  0  0  0
 22 21  2  0  0  0  0
 23 24  1  0  0  0  0
 24 26  2  0  0  0  0
 25 22  1  0  0  0  0
 25 23  2  0  0  0  0
M  END
>  <MODEL>
8

>  <REMARK>
 VINA RESULT:      -5.0      5.825      8.289
  Name = 
  1 active torsions:
  status: ('A' for Active; 'I' for Inactive)
    1  A    between atoms: C_10  and  C_26
                            x       y       z     vdW  Elec       q    Type
                         _______ _______ _______ _____ _____    ______ ____

>  <TORSDO>
F 1

$$$$
=
 OpenBabel11062417153D

 26 30  0  0  1  0  0  0  0  0999 V2000
  181.1340  179.4830  143.7150 C   0  0  0  0  0  2  0  0  0  0  0  0
  183.1570  178.8070  142.3520 C   0  0  0  0  0  0  0  0  0  0  0  0
  182.9160  178.5390  141.0930 N   0  0  0  0  0  0  0  0  0  0  0  0
  181.9090  176.8450  139.5750 C   0  0  0  0  0  2  0  0  0  0  0  0
  183.2420  178.6320  144.7150 C   0  0  0  0  0  2  0  0  0  0  0  0
  179.3210  176.2230  138.4340 C   0  0  0  0  0  2  0  0  0  0  0  0
  179.3350  178.3700  139.8130 N   0  0  0  0  0  2  0  0  0  0  0  0
  180.5400  178.7150  140.5270 C   0  0  0  0  0  0  0  0  0  0  0  0
  184.4270  179.2830  142.7490 N   0  0  0  0  0  2  0  0  0  0  0  0
  178.9310  175.0700  140.4490 O   0  0  0  0  0  0  0  0  0  0  0  0
  185.7360  178.6570  144.6950 C   0  0  0  0  0  1  0  0  0  0  0  0
  184.4860  179.3540  144.1950 C   0  0  2  0  0  3  0  0  0  0  0  0
  179.7560  175.6050  139.7290 C   0  0  0  0  0  0  0  0  0  0  0  0
  180.4640  179.8080  141.5270 C   0  0  2  0  0  3  0  0  0  0  0  0
  181.1950  175.6280  140.1430 C   0  0  0  0  0  2  0  0  0  0  0  0
  180.0810  179.0560  142.7370 C   0  0  2  0  0  3  0  0  0  0  0  0
  179.2420  180.0380  142.1890 O   0  0  0  0  0  0  0  0  0  0  0  0
  181.7190  178.0400  140.4500 C   0  0  0  0  0  0  0  0  0  0  0  0
  182.2850  178.4890  143.5340 C   0  0  1  0  0  3  0  0  0  0  0  0
  179.1670  177.7520  138.4960 C   0  0  1  0  0  3  0  0  0  0  0  0
  181.0940  179.9780  135.3920 C   0  0  0  0  0  3  0  0  0  0  0  0
  181.2130  178.6240  135.4390 N   0  0  0  0  0  0  0  0  0  0  0  0
  179.8340  178.5210  137.3940 C   0  0  0  0  0  0  0  0  0  0  0  0
  179.7090  179.9130  137.3610 C   0  0  0  0  0  3  0  0  0  0  0  0
  180.6070  177.8900  136.4110 C   0  0  0  0  0  3  0  0  0  0  0  0
  180.3380  180.6480  136.3550 C   0  0  0  0  0  3  0  0  0  0  0  0
  2  9  1  0  0  0  0
  2 19  1  0  0  0  0
  3  2  2  0  0  0  0
  4 15  1  0  0  0  0
  4 18  1  0  0  0  0
  6 20  1  0  0  0  0
  6 13  1  0  0  0  0
  7  8  1  0  0  0  0
  9 12  1  0  0  0  0
 12 11  1  1  0  0  0
 12  5  1  0  0  0  0
 13 15  1  0  0  0  0
 13 10  2  0  0  0  0
 14  8  1  6  0  0  0
 14 17  1  0  0  0  0
 14 16  1  0  0  0  0
 16  1  1  1  0  0  0
 17 16  1  0  0  0  0
 18  8  2  0  0  0  0
 18  3  1  0  0  0  0
 19  1  1  1  0  0  0
 19  5  1  0  0  0  0
 20 23  1  6  0  0  0
 20  7  1  0  0  0  0
 21 22  2  0  0  0  0
 21 26  1  0  0  0  0
 22 25  1  0  0  0  0
 24 23  1  0  0  0  0
 25 23  2  0  0  0  0
 26 24  2  0  0  0  0
M  END
>  <MODEL>
9

>  <REMARK>
 VINA RESULT:      -5.0      6.661      9.489
  Name = 
  1 active torsions:
  status: ('A' for Active; 'I' for Inactive)
    1  A    between atoms: C_10  and  C_26
                            x       y       z     vdW  Elec       q    Type
                         _______ _______ _______ _____ _____    ______ ____

>  <TORSDO>
F 1

$$$$
