=
 OpenBabel11062413103D

 42 48  0  0  1  0  0  0  0  0999 V2000
  188.5410  177.3120  137.1100 C   0  0  0  0  0  0  0  0  0  0  0  0
  189.6080  175.2770  135.8770 C   0  0  0  0  0  3  0  0  0  0  0  0
  188.8950  179.1000  138.6130 N   0  0  0  0  0  2  0  0  0  0  0  0
  189.3170  178.5540  137.3260 C   0  0  0  0  0  2  0  0  0  0  0  0
  188.2280  178.0050  139.3120 C   0  0  2  0  0  3  0  0  0  0  0  0
  189.0780  176.3030  136.4860 C   0  0  0  0  0  0  0  0  0  0  0  0
  187.6680  177.0650  138.2660 C   0  0  0  0  0  2  0  0  0  0  0  0
  192.5860  173.9960  135.8260 C   0  0  2  0  0  3  0  0  0  0  0  0
  190.9300  172.1030  135.2520 C   0  0  0  0  0  0  0  0  0  0  0  0
  193.3470  171.8510  134.8650 C   0  0  0  0  0  3  0  0  0  0  0  0
  188.3110  171.0820  135.2620 C   0  0  0  0  0  3  0  0  0  0  0  0
  194.8980  173.7420  135.1180 N   0  0  0  0  0  2  0  0  0  0  0  0
  188.5970  172.2760  135.9260 C   0  0  0  0  0  3  0  0  0  0  0  0
  194.7810  172.2860  135.0260 C   0  0  0  0  0  2  0  0  0  0  0  0
  190.6260  170.8990  134.5940 C   0  0  0  0  0  3  0  0  0  0  0  0
  191.9690  174.8200  137.9730 O   0  0  0  0  0  0  0  0  0  0  0  0
  190.1450  174.1120  136.6510 C   0  0  2  0  0  3  0  0  0  0  0  0
  194.0510  174.1980  136.2170 C   0  0  0  0  0  2  0  0  0  0  0  0
  191.6070  174.3300  136.9150 C   0  0  0  0  0  0  0  0  0  0  0  0
  192.3270  172.6020  135.3060 C   0  0  0  0  0  0  0  0  0  0  0  0
  189.3230  170.3950  134.5940 C   0  0  0  0  0  3  0  0  0  0  0  0
  189.8960  172.8030  135.9260 C   0  0  0  0  0  0  0  0  0  0  0  0
  191.8100  177.6820  142.0630 O   0  0  0  0  0  0  0  0  0  0  0  0
  190.6940  177.8460  142.6220 C   0  0  0  0  0  0  0  0  0  0  0  0
  188.3330  178.1140  142.2850 C   0  0  0  0  0  0  0  0  0  0  0  0
  186.8570  177.7850  144.2130 C   0  0  0  0  0  3  0  0  0  0  0  0
  185.9740  179.0530  142.1910 C   0  0  0  0  0  2  0  0  0  0  0  0
  187.1770  178.5470  141.4590 C   0  0  0  0  0  0  0  0  0  0  0  0
  189.2190  177.2270  144.5320 C   0  0  0  0  0  2  0  0  0  0  0  0
  189.5450  178.1230  141.8110 N   0  0  0  0  0  0  0  0  0  0  0  0
  188.0910  177.7570  143.7020 C   0  0  0  0  0  0  0  0  0  0  0  0
  190.5670  177.8560  144.1340 C   0  0  1  0  0  3  0  0  0  0  0  0
  185.6500  178.1340  143.3760 C   0  0  2  0  0  3  0  0  0  0  0  0
  187.1590  178.5220  140.1560 N   0  0  0  0  0  0  0  0  0  0  0  0
  192.0130  175.9890  146.7130 C   0  0  0  0  0  2  0  0  0  0  0  0
  191.4850  177.2300  146.1750 N   0  0  0  0  0  2  0  0  0  0  0  0
  191.6940  177.1710  144.7880 N   0  0  1  0  0  0  0  0  0  0  0  0
  192.0300  175.0020  145.6520 N   0  0  0  0  0  2  0  0  0  0  0  0
  191.6560  175.7490  144.4670 C   0  0  0  0  0  2  0  0  0  0  0  0
  184.6030  178.6740  144.1800 O   0  0  0  0  0  0  0  0  0  0  0  0
  184.8340  179.3060  145.3880 N   0  0  0  0  0  2  0  0  0  0  0  0
  184.6820  178.7170  146.4780 O   0  0  0  0  0  1  0  0  0  0  0  0
  1  4  1  0  0  0  0
  1  7  1  0  0  0  0
  2  6  2  0  0  0  0
  3  5  1  0  0  0  0
  4  3  1  0  0  0  0
  5 34  1  6  0  0  0
  6  1  2  0  0  0  0
  7  5  1  0  0  0  0
  8 18  1  1  0  0  0
  8 19  1  0  0  0  0
  9 20  1  0  0  0  0
  9 22  1  0  0  0  0
 10 14  1  0  0  0  0
 10 20  2  0  0  0  0
 11 13  1  0  0  0  0
 12 18  1  0  0  0  0
 14 12  1  0  0  0  0
 15  9  2  0  0  0  0
 17  2  1  6  0  0  0
 17 19  1  0  0  0  0
 19 16  2  0  0  0  0
 20  8  1  0  0  0  0
 21 15  1  0  0  0  0
 21 11  2  0  0  0  0
 22 13  2  0  0  0  0
 22 17  1  0  0  0  0
 23 24  2  0  0  0  0
 24 32  1  0  0  0  0
 25 31  1  0  0  0  0
 27 33  1  0  0  0  0
 28 27  1  0  0  0  0
 28 25  1  0  0  0  0
 30 25  2  0  0  0  0
 30 24  1  0  0  0  0
 31 26  2  0  0  0  0
 31 29  1  0  0  0  0
 32 29  1  6  0  0  0
 32 37  1  0  0  0  0
 33 40  1  1  0  0  0
 33 26  1  0  0  0  0
 34 28  2  0  0  0  0
 36 35  1  0  0  0  0
 37 39  1  6  0  0  0
 37 36  1  0  0  0  0
 38 35  1  0  0  0  0
 39 38  1  0  0  0  0
 40 41  1  0  0  0  0
 41 42  1  0  0  0  0
M  END
>  <MODEL>
1

>  <REMARK>
 VINA RESULT:      -9.7      0.000      0.000
  Name = 
  5 active torsions:
  status: ('A' for Active; 'I' for Inactive)
    1  A    between atoms: N_1  and  O_26
    2  A    between atoms: C_9  and  C_24
    3  A    between atoms: O_26  and  C_38
    4  A    between atoms: C_27  and  N_41
    5  A    between atoms: N_33  and  C_34
                            x       y       z     vdW  Elec       q    Type
                         _______ _______ _______ _____ _____    ______ ____

>  <TORSDO>
F 5

$$$$
=
 OpenBabel11062413103D

 42 48  0  0  1  0  0  0  0  0999 V2000
  189.9740  177.9530  140.2260 C   0  0  0  0  0  0  0  0  0  0  0  0
  189.5510  178.2520  142.7810 C   0  0  0  0  0  3  0  0  0  0  0  0
  189.0020  177.5410  138.1120 N   0  0  0  0  0  2  0  0  0  0  0  0
  189.0050  178.4740  139.2350 C   0  0  0  0  0  2  0  0  0  0  0  0
  189.6100  176.3120  138.6130 C   0  0  2  0  0  3  0  0  0  0  0  0
  189.7600  178.1130  141.5010 C   0  0  0  0  0  0  0  0  0  0  0  0
  190.5450  176.6880  139.7430 C   0  0  0  0  0  2  0  0  0  0  0  0
  187.0690  178.2770  144.8680 C   0  0  2  0  0  3  0  0  0  0  0  0
  189.1370  177.4210  146.1510 C   0  0  0  0  0  0  0  0  0  0  0  0
  187.1000  178.1330  147.3340 C   0  0  0  0  0  3  0  0  0  0  0  0
  191.7250  176.3210  146.1290 C   0  0  0  0  0  3  0  0  0  0  0  0
  185.2430  179.2330  146.1570 N   0  0  0  0  0  2  0  0  0  0  0  0
  191.0100  176.4470  144.9370 C   0  0  0  0  0  3  0  0  0  0  0  0
  185.6490  178.5330  147.3770 C   0  0  0  0  0  2  0  0  0  0  0  0
  189.8680  177.2810  147.3430 C   0  0  0  0  0  3  0  0  0  0  0  0
  186.7290  176.7870  143.0420 O   0  0  0  0  0  0  0  0  0  0  0  0
  188.9980  177.1250  143.6010 C   0  0  2  0  0  3  0  0  0  0  0  0
  185.5500  178.3720  145.0170 C   0  0  0  0  0  2  0  0  0  0  0  0
  187.5240  177.3350  143.7900 C   0  0  0  0  0  0  0  0  0  0  0  0
  187.7450  177.9340  146.1740 C   0  0  0  0  0  0  0  0  0  0  0  0
  191.1560  176.7390  147.3310 C   0  0  0  0  0  3  0  0  0  0  0  0
  189.7210  176.9990  144.9280 C   0  0  0  0  0  0  0  0  0  0  0  0
  185.2490  175.5940  137.6300 O   0  0  0  0  0  0  0  0  0  0  0  0
  186.0820  174.8840  137.0090 C   0  0  0  0  0  0  0  0  0  0  0  0
  188.4060  174.3760  136.6970 C   0  0  0  0  0  0  0  0  0  0  0  0
  188.9790  172.2840  135.5590 C   0  0  0  0  0  3  0  0  0  0  0  0
  190.7370  174.1180  135.7170 C   0  0  0  0  0  2  0  0  0  0  0  0
  189.8390  174.7690  136.7220 C   0  0  0  0  0  0  0  0  0  0  0  0
  186.6170  172.6250  136.1060 C   0  0  0  0  0  2  0  0  0  0  0  0
  187.4790  175.1710  137.1460 N   0  0  0  0  0  0  0  0  0  0  0  0
  188.0390  173.0900  136.0620 C   0  0  0  0  0  0  0  0  0  0  0  0
  185.6280  173.8020  136.0460 C   0  0  1  0  0  3  0  0  0  0  0  0
  190.4500  172.6120  135.6490 C   0  0  2  0  0  3  0  0  0  0  0  0
  190.3450  175.6410  137.5470 N   0  0  0  0  0  0  0  0  0  0  0  0
  182.8570  171.7280  135.5480 C   0  0  0  0  0  2  0  0  0  0  0  0
  183.7340  172.8100  135.1360 N   0  0  0  0  0  2  0  0  0  0  0  0
  184.2500  173.3620  136.3190 N   0  0  1  0  0  0  0  0  0  0  0  0
  183.2580  171.2950  136.8710 N   0  0  0  0  0  2  0  0  0  0  0  0
  184.2680  172.2550  137.2680 C   0  0  0  0  0  2  0  0  0  0  0  0
  191.1830  171.9920  134.5940 O   0  0  0  0  0  0  0  0  0  0  0  0
  192.5280  171.6850  134.6930 N   0  0  0  0  0  2  0  0  0  0  0  0
  193.0830  171.5130  135.7980 O   0  0  0  0  0  1  0  0  0  0  0  0
  1  6  2  0  0  0  0
  3  5  1  0  0  0  0
  3  4  1  0  0  0  0
  4  1  1  0  0  0  0
  5 34  1  6  0  0  0
  5  7  1  0  0  0  0
  6  2  2  0  0  0  0
  7  1  1  0  0  0  0
  8 18  1  1  0  0  0
  8 20  1  0  0  0  0
  9 20  1  0  0  0  0
  9 15  1  0  0  0  0
 10 14  1  0  0  0  0
 11 21  1  0  0  0  0
 12 14  1  0  0  0  0
 13 11  2  0  0  0  0
 16 19  2  0  0  0  0
 17  2  1  1  0  0  0
 17 19  1  0  0  0  0
 17 22  1  0  0  0  0
 18 12  1  0  0  0  0
 19  8  1  0  0  0  0
 20 10  2  0  0  0  0
 21 15  2  0  0  0  0
 22 13  1  0  0  0  0
 22  9  2  0  0  0  0
 24 30  1  0  0  0  0
 24 23  2  0  0  0  0
 25 28  1  0  0  0  0
 25 30  2  0  0  0  0
 26 33  1  0  0  0  0
 26 31  2  0  0  0  0
 27 28  1  0  0  0  0
 28 34  2  0  0  0  0
 31 29  1  0  0  0  0
 31 25  1  0  0  0  0
 32 29  1  1  0  0  0
 32 37  1  0  0  0  0
 32 24  1  0  0  0  0
 33 40  1  6  0  0  0
 33 27  1  0  0  0  0
 35 38  1  0  0  0  0
 36 35  1  0  0  0  0
 36 37  1  0  0  0  0
 37 39  1  1  0  0  0
 38 39  1  0  0  0  0
 40 41  1  0  0  0  0
 41 42  1  0  0  0  0
M  END
>  <MODEL>
2

>  <REMARK>
 VINA RESULT:      -9.4      3.395     10.721
  Name = 
  5 active torsions:
  status: ('A' for Active; 'I' for Inactive)
    1  A    between atoms: N_1  and  O_26
    2  A    between atoms: C_9  and  C_24
    3  A    between atoms: O_26  and  C_38
    4  A    between atoms: C_27  and  N_41
    5  A    between atoms: N_33  and  C_34
                            x       y       z     vdW  Elec       q    Type
                         _______ _______ _______ _____ _____    ______ ____

>  <TORSDO>
F 5

$$$$
=
 OpenBabel11062413103D

 42 48  0  0  1  0  0  0  0  0999 V2000
  189.9010  177.9810  141.5600 C   0  0  0  0  0  0  0  0  0  0  0  0
  190.0020  177.6820  144.1490 C   0  0  0  0  0  3  0  0  0  0  0  0
  188.6870  178.8550  139.7330 N   0  0  0  0  0  2  0  0  0  0  0  0
  189.3740  179.2290  140.9650 C   0  0  0  0  0  2  0  0  0  0  0  0
  188.4490  177.4180  139.8290 C   0  0  2  0  0  3  0  0  0  0  0  0
  189.9570  177.8420  142.8540 C   0  0  0  0  0  0  0  0  0  0  0  0
  189.5180  176.8330  140.7270 C   0  0  0  0  0  2  0  0  0  0  0  0
  186.7790  178.0340  144.0780 C   0  0  2  0  0  3  0  0  0  0  0  0
  187.5120  178.1980  146.5460 C   0  0  0  0  0  0  0  0  0  0  0  0
  185.2630  178.8940  145.8290 C   0  0  0  0  0  3  0  0  0  0  0  0
  189.4320  177.7300  148.5450 C   0  0  0  0  0  3  0  0  0  0  0  0
  184.6530  179.0320  143.4510 N   0  0  0  0  0  2  0  0  0  0  0  0
  189.6250  177.2230  147.2590 C   0  0  0  0  0  3  0  0  0  0  0  0
  184.1450  178.9760  144.8230 C   0  0  0  0  0  2  0  0  0  0  0  0
  187.3300  178.6960  147.8470 C   0  0  0  0  0  3  0  0  0  0  0  0
  187.4960  175.9040  143.2900 O   0  0  0  0  0  0  0  0  0  0  0  0
  188.9520  176.8890  144.8670 C   0  0  2  0  0  3  0  0  0  0  0  0
  185.5120  177.8700  143.2370 C   0  0  0  0  0  2  0  0  0  0  0  0
  187.7060  176.8530  144.0290 C   0  0  0  0  0  0  0  0  0  0  0  0
  186.4630  178.3850  145.5120 C   0  0  0  0  0  0  0  0  0  0  0  0
  188.2870  178.4690  148.8390 C   0  0  0  0  0  3  0  0  0  0  0  0
  188.6810  177.4520  146.2490 C   0  0  0  0  0  0  0  0  0  0  0  0
  184.5650  179.7460  139.8550 O   0  0  0  0  0  0  0  0  0  0  0  0
  184.7060  178.9120  138.9230 C   0  0  0  0  0  0  0  0  0  0  0  0
  186.1460  177.2580  137.9480 C   0  0  0  0  0  0  0  0  0  0  0  0
  185.1680  175.6990  136.3300 C   0  0  0  0  0  3  0  0  0  0  0  0
  187.6960  175.9910  136.3840 C   0  0  0  0  0  2  0  0  0  0  0  0
  187.4980  176.7020  137.6860 C   0  0  0  0  0  0  0  0  0  0  0  0
  183.6130  177.1790  137.5060 C   0  0  0  0  0  2  0  0  0  0  0  0
  185.9730  178.2630  138.7560 N   0  0  0  0  0  0  0  0  0  0  0  0
  184.9970  176.7030  137.1950 C   0  0  0  0  0  0  0  0  0  0  0  0
  183.5960  178.6610  137.9190 C   0  0  1  0  0  3  0  0  0  0  0  0
  186.5140  175.0520  136.1080 C   0  0  2  0  0  3  0  0  0  0  0  0
  188.5040  176.8070  138.5070 N   0  0  0  0  0  0  0  0  0  0  0  0
  180.1560  179.2160  137.6190 C   0  0  0  0  0  2  0  0  0  0  0  0
  181.5370  179.5930  137.3750 N   0  0  0  0  0  2  0  0  0  0  0  0
  182.2780  179.0590  138.4420 N   0  0  1  0  0  0  0  0  0  0  0  0
  180.1470  178.0520  138.4820 N   0  0  0  0  0  2  0  0  0  0  0  0
  181.5360  177.8740  138.8540 C   0  0  0  0  0  2  0  0  0  0  0  0
  186.6020  174.4770  134.8060 O   0  0  0  0  0  0  0  0  0  0  0  0
  186.8460  173.1320  134.5940 N   0  0  0  0  0  2  0  0  0  0  0  0
  187.1730  172.3680  135.5260 O   0  0  0  0  0  1  0  0  0  0  0  0
  1  6  2  0  0  0  0
  3  5  1  0  0  0  0
  3  4  1  0  0  0  0
  4  1  1  0  0  0  0
  5 34  1  6  0  0  0
  5  7  1  0  0  0  0
  6  2  2  0  0  0  0
  7  1  1  0  0  0  0
  8 18  1  6  0  0  0
  8 20  1  0  0  0  0
  9 15  1  0  0  0  0
 11 21  1  0  0  0  0
 12 14  1  0  0  0  0
 13 11  2  0  0  0  0
 14 10  1  0  0  0  0
 15 21  2  0  0  0  0
 16 19  2  0  0  0  0
 17  2  1  6  0  0  0
 17 22  1  0  0  0  0
 18 12  1  0  0  0  0
 19  8  1  0  0  0  0
 19 17  1  0  0  0  0
 20 10  2  0  0  0  0
 20  9  1  0  0  0  0
 22  9  2  0  0  0  0
 22 13  1  0  0  0  0
 24 23  2  0  0  0  0
 25 30  2  0  0  0  0
 26 31  2  0  0  0  0
 27 28  1  0  0  0  0
 28 25  1  0  0  0  0
 28 34  2  0  0  0  0
 30 24  1  0  0  0  0
 31 29  1  0  0  0  0
 31 25  1  0  0  0  0
 32 29  1  1  0  0  0
 32 37  1  0  0  0  0
 32 24  1  0  0  0  0
 33 40  1  6  0  0  0
 33 26  1  0  0  0  0
 33 27  1  0  0  0  0
 35 38  1  0  0  0  0
 36 35  1  0  0  0  0
 36 37  1  0  0  0  0
 37 39  1  6  0  0  0
 38 39  1  0  0  0  0
 41 40  1  0  0  0  0
 41 42  1  0  0  0  0
M  END
>  <MODEL>
3

>  <REMARK>
 VINA RESULT:      -9.2      4.265     10.450
  Name = 
  5 active torsions:
  status: ('A' for Active; 'I' for Inactive)
    1  A    between atoms: N_1  and  O_26
    2  A    between atoms: C_9  and  C_24
    3  A    between atoms: O_26  and  C_38
    4  A    between atoms: C_27  and  N_41
    5  A    between atoms: N_33  and  C_34
                            x       y       z     vdW  Elec       q    Type
                         _______ _______ _______ _____ _____    ______ ____

>  <TORSDO>
F 5

$$$$
=
 OpenBabel11062413103D

 42 48  0  0  1  0  0  0  0  0999 V2000
  190.0940  177.9240  141.3930 C   0  0  0  0  0  0  0  0  0  0  0  0
  189.7940  177.9340  143.9830 C   0  0  0  0  0  3  0  0  0  0  0  0
  189.0730  178.3080  139.2980 N   0  0  0  0  0  2  0  0  0  0  0  0
  189.4440  178.9550  140.5540 C   0  0  0  0  0  2  0  0  0  0  0  0
  189.1110  176.8730  139.5620 C   0  0  2  0  0  3  0  0  0  0  0  0
  189.9470  177.9400  142.6870 C   0  0  0  0  0  0  0  0  0  0  0  0
  190.1000  176.6370  140.6840 C   0  0  0  0  0  2  0  0  0  0  0  0
  186.5540  178.0730  143.9850 C   0  0  2  0  0  3  0  0  0  0  0  0
  187.3200  178.0700  146.4490 C   0  0  0  0  0  0  0  0  0  0  0  0
  185.0170  178.6730  145.8240 C   0  0  0  0  0  3  0  0  0  0  0  0
  189.3040  177.5590  148.3740 C   0  0  0  0  0  3  0  0  0  0  0  0
  184.3550  178.9770  143.4760 N   0  0  0  0  0  2  0  0  0  0  0  0
  189.5060  177.1810  147.0460 C   0  0  0  0  0  3  0  0  0  0  0  0
  183.8780  178.7670  144.8430 C   0  0  0  0  0  2  0  0  0  0  0  0
  187.1300  178.4390  147.7910 C   0  0  0  0  0  3  0  0  0  0  0  0
  187.3950  176.0740  143.0030 O   0  0  0  0  0  0  0  0  0  0  0  0
  188.8120  177.0130  144.6410 C   0  0  2  0  0  3  0  0  0  0  0  0
  185.2850  177.8990  143.1490 C   0  0  0  0  0  2  0  0  0  0  0  0
  187.5560  176.9670  143.8200 C   0  0  0  0  0  0  0  0  0  0  0  0
  186.2420  178.2750  145.4490 C   0  0  0  0  0  0  0  0  0  0  0  0
  188.1180  178.1910  148.7470 C   0  0  0  0  0  3  0  0  0  0  0  0
  188.5310  177.4330  146.0710 C   0  0  0  0  0  0  0  0  0  0  0  0
  185.0660  178.6240  138.5240 O   0  0  0  0  0  0  0  0  0  0  0  0
  185.5000  177.7310  137.7500 C   0  0  0  0  0  0  0  0  0  0  0  0
  187.2980  176.2090  137.2950 C   0  0  0  0  0  0  0  0  0  0  0  0
  186.8790  174.3790  135.7210 C   0  0  0  0  0  3  0  0  0  0  0  0
  189.2850  175.0260  136.2410 C   0  0  0  0  0  2  0  0  0  0  0  0
  188.7310  175.8250  137.3780 C   0  0  0  0  0  0  0  0  0  0  0  0
  184.9460  175.7320  136.3710 C   0  0  0  0  0  2  0  0  0  0  0  0
  186.8410  177.2540  137.9210 N   0  0  0  0  0  0  0  0  0  0  0  0
  186.4110  175.4280  136.4030 C   0  0  0  0  0  0  0  0  0  0  0  0
  184.6670  177.2310  136.5840 C   0  0  1  0  0  3  0  0  0  0  0  0
  188.3080  173.9090  135.8540 C   0  0  2  0  0  3  0  0  0  0  0  0
  189.5190  176.1500  138.3640 N   0  0  0  0  0  0  0  0  0  0  0  0
  181.2860  176.8220  135.7920 C   0  0  0  0  0  2  0  0  0  0  0  0
  182.6010  177.3780  135.5300 N   0  0  0  0  0  2  0  0  0  0  0  0
  183.2310  177.4890  136.7800 N   0  0  1  0  0  0  0  0  0  0  0  0
  181.3320  176.1190  137.0590 N   0  0  0  0  0  2  0  0  0  0  0  0
  182.6470  176.4230  137.5860 C   0  0  0  0  0  2  0  0  0  0  0  0
  188.7380  173.2270  134.6770 O   0  0  0  0  0  0  0  0  0  0  0  0
  189.2020  171.9240  134.6910 N   0  0  0  0  0  2  0  0  0  0  0  0
  188.6690  171.0440  135.3980 O   0  0  0  0  0  1  0  0  0  0  0  0
  1  6  2  0  0  0  0
  3  5  1  0  0  0  0
  3  4  1  0  0  0  0
  4  1  1  0  0  0  0
  5 34  1  6  0  0  0
  5  7  1  0  0  0  0
  6  2  2  0  0  0  0
  7  1  1  0  0  0  0
  8 18  1  6  0  0  0
  8 20  1  0  0  0  0
  9 15  1  0  0  0  0
 11 21  1  0  0  0  0
 12 14  1  0  0  0  0
 13 11  2  0  0  0  0
 14 10  1  0  0  0  0
 15 21  2  0  0  0  0
 16 19  2  0  0  0  0
 17  2  1  6  0  0  0
 17 22  1  0  0  0  0
 18 12  1  0  0  0  0
 19  8  1  0  0  0  0
 19 17  1  0  0  0  0
 20 10  2  0  0  0  0
 20  9  1  0  0  0  0
 22  9  2  0  0  0  0
 22 13  1  0  0  0  0
 24 30  1  0  0  0  0
 24 23  2  0  0  0  0
 25 28  1  0  0  0  0
 25 30  2  0  0  0  0
 26 33  1  0  0  0  0
 26 31  2  0  0  0  0
 27 28  1  0  0  0  0
 28 34  2  0  0  0  0
 29 31  1  0  0  0  0
 31 25  1  0  0  0  0
 32 29  1  1  0  0  0
 32 37  1  0  0  0  0
 32 24  1  0  0  0  0
 33 40  1  6  0  0  0
 33 27  1  0  0  0  0
 35 38  1  0  0  0  0
 36 35  1  0  0  0  0
 36 37  1  0  0  0  0
 37 39  1  1  0  0  0
 38 39  1  0  0  0  0
 40 41  1  0  0  0  0
 41 42  1  0  0  0  0
M  END
>  <MODEL>
4

>  <REMARK>
 VINA RESULT:      -9.1      3.531     10.615
  Name = 
  5 active torsions:
  status: ('A' for Active; 'I' for Inactive)
    1  A    between atoms: N_1  and  O_26
    2  A    between atoms: C_9  and  C_24
    3  A    between atoms: O_26  and  C_38
    4  A    between atoms: C_27  and  N_41
    5  A    between atoms: N_33  and  C_34
                            x       y       z     vdW  Elec       q    Type
                         _______ _______ _______ _____ _____    ______ ____

>  <TORSDO>
F 5

$$$$
=
 OpenBabel11062413103D

 42 48  0  0  1  0  0  0  0  0999 V2000
  188.2960  177.3350  136.3280 C   0  0  0  0  0  0  0  0  0  0  0  0
  189.6930  175.2620  135.5870 C   0  0  0  0  0  3  0  0  0  0  0  0
  188.2390  179.2910  137.6510 N   0  0  0  0  0  2  0  0  0  0  0  0
  188.9500  178.6440  136.5520 C   0  0  0  0  0  2  0  0  0  0  0  0
  187.4910  178.2310  138.3210 C   0  0  2  0  0  3  0  0  0  0  0  0
  188.9990  176.3060  135.9490 C   0  0  0  0  0  0  0  0  0  0  0  0
  187.2100  177.1490  137.3000 C   0  0  0  0  0  2  0  0  0  0  0  0
  192.5190  174.9500  137.1480 C   0  0  2  0  0  3  0  0  0  0  0  0
  192.0860  172.7340  135.8990 C   0  0  0  0  0  0  0  0  0  0  0  0
  194.3010  173.2680  136.8300 C   0  0  0  0  0  3  0  0  0  0  0  0
  190.3070  170.9820  134.6070 C   0  0  0  0  0  3  0  0  0  0  0  0
  194.8110  175.4910  137.7500 N   0  0  0  0  0  2  0  0  0  0  0  0
  189.8200  172.1140  135.2610 C   0  0  0  0  0  3  0  0  0  0  0  0
  195.2300  174.0900  137.6850 C   0  0  0  0  0  2  0  0  0  0  0  0
  192.5600  171.5860  135.2410 C   0  0  0  0  0  3  0  0  0  0  0  0
  190.6780  175.2770  138.6220 O   0  0  0  0  0  0  0  0  0  0  0  0
  190.1080  174.2240  136.5860 C   0  0  2  0  0  3  0  0  0  0  0  0
  193.4310  175.5310  138.2280 C   0  0  0  0  0  2  0  0  0  0  0  0
  191.0770  174.8360  137.5550 C   0  0  0  0  0  0  0  0  0  0  0  0
  193.0200  173.6180  136.6410 C   0  0  0  0  0  0  0  0  0  0  0  0
  191.6770  170.7180  134.5940 C   0  0  0  0  0  3  0  0  0  0  0  0
  190.6930  173.0020  135.9050 C   0  0  0  0  0  0  0  0  0  0  0  0
  190.2230  177.8410  141.9110 O   0  0  0  0  0  0  0  0  0  0  0  0
  189.0010  178.0170  142.1590 C   0  0  0  0  0  0  0  0  0  0  0  0
  186.8140  178.3190  141.2190 C   0  0  0  0  0  0  0  0  0  0  0  0
  184.8810  177.9990  142.6900 C   0  0  0  0  0  3  0  0  0  0  0  0
  184.5730  179.2910  140.5190 C   0  0  0  0  0  2  0  0  0  0  0  0
  185.9200  178.7740  140.1240 C   0  0  0  0  0  0  0  0  0  0  0  0
  187.0710  177.4060  143.6110 C   0  0  0  0  0  2  0  0  0  0  0  0
  188.1080  178.3140  141.0790 N   0  0  0  0  0  0  0  0  0  0  0  0
  186.2060  177.9560  142.5200 C   0  0  0  0  0  0  0  0  0  0  0  0
  188.4820  178.0190  143.5860 C   0  0  1  0  0  3  0  0  0  0  0  0
  183.9400  178.3690  141.5690 C   0  0  2  0  0  3  0  0  0  0  0  0
  186.2430  178.7570  138.8610 N   0  0  0  0  0  0  0  0  0  0  0  0
  190.4730  177.8040  146.4530 C   0  0  0  0  0  2  0  0  0  0  0  0
  190.2270  178.2720  145.1010 N   0  0  0  0  0  2  0  0  0  0  0  0
  189.3910  177.3140  144.5050 N   0  0  1  0  0  0  0  0  0  0  0  0
  189.3980  176.9070  146.8280 N   0  0  0  0  0  2  0  0  0  0  0  0
  188.6270  176.7480  145.6110 C   0  0  0  0  0  2  0  0  0  0  0  0
  182.7250  178.9180  142.0760 O   0  0  0  0  0  0  0  0  0  0  0  0
  181.5200  178.2390  142.0380 N   0  0  0  0  0  2  0  0  0  0  0  0
  181.1080  177.6900  140.9950 O   0  0  0  0  0  1  0  0  0  0  0  0
  1  4  1  0  0  0  0
  1  7  1  0  0  0  0
  2  6  2  0  0  0  0
  3  5  1  0  0  0  0
  4  3  1  0  0  0  0
  5 34  1  6  0  0  0
  6  1  2  0  0  0  0
  7  5  1  0  0  0  0
  8 19  1  0  0  0  0
  8 18  1  1  0  0  0
  9 22  1  0  0  0  0
  9 20  1  0  0  0  0
 10 14  1  0  0  0  0
 11 13  1  0  0  0  0
 12 18  1  0  0  0  0
 13 22  2  0  0  0  0
 14 12  1  0  0  0  0
 15  9  2  0  0  0  0
 17  2  1  6  0  0  0
 17 19  1  0  0  0  0
 19 16  2  0  0  0  0
 20 10  2  0  0  0  0
 20  8  1  0  0  0  0
 21 11  2  0  0  0  0
 21 15  1  0  0  0  0
 22 17  1  0  0  0  0
 23 24  2  0  0  0  0
 24 32  1  0  0  0  0
 25 31  1  0  0  0  0
 27 33  1  0  0  0  0
 28 27  1  0  0  0  0
 28 25  1  0  0  0  0
 30 25  2  0  0  0  0
 30 24  1  0  0  0  0
 31 26  2  0  0  0  0
 31 29  1  0  0  0  0
 32 29  1  6  0  0  0
 32 37  1  0  0  0  0
 33 40  1  1  0  0  0
 33 26  1  0  0  0  0
 34 28  2  0  0  0  0
 35 38  1  0  0  0  0
 36 35  1  0  0  0  0
 37 36  1  0  0  0  0
 37 39  1  1  0  0  0
 39 38  1  0  0  0  0
 41 40  1  0  0  0  0
 42 41  1  0  0  0  0
M  END
>  <MODEL>
5

>  <REMARK>
 VINA RESULT:      -8.6      1.861      2.351
  Name = 
  5 active torsions:
  status: ('A' for Active; 'I' for Inactive)
    1  A    between atoms: N_1  and  O_26
    2  A    between atoms: C_9  and  C_24
    3  A    between atoms: O_26  and  C_38
    4  A    between atoms: C_27  and  N_41
    5  A    between atoms: N_33  and  C_34
                            x       y       z     vdW  Elec       q    Type
                         _______ _______ _______ _____ _____    ______ ____

>  <TORSDO>
F 5

$$$$
=
 OpenBabel11062413103D

 42 48  0  0  1  0  0  0  0  0999 V2000
  180.5890  178.2440  142.7570 C   0  0  0  0  0  0  0  0  0  0  0  0
  179.8280  176.8220  140.7080 C   0  0  0  0  0  3  0  0  0  0  0  0
  181.5180  180.2890  143.4890 N   0  0  0  0  0  2  0  0  0  0  0  0
  180.3830  179.7100  142.7750 C   0  0  0  0  0  2  0  0  0  0  0  0
  182.5500  179.2560  143.5030 C   0  0  2  0  0  3  0  0  0  0  0  0
  180.1980  177.5390  141.7330 C   0  0  0  0  0  0  0  0  0  0  0  0
  181.8570  177.9120  143.4200 C   0  0  0  0  0  2  0  0  0  0  0  0
  180.7440  178.3450  137.9950 C   0  0  2  0  0  3  0  0  0  0  0  0
  179.8780  176.0140  137.3080 C   0  0  0  0  0  0  0  0  0  0  0  0
  180.2260  177.7920  135.6430 C   0  0  0  0  0  3  0  0  0  0  0  0
  179.2190  173.3680  137.9950 C   0  0  0  0  0  3  0  0  0  0  0  0
  180.7550  180.0990  136.3120 N   0  0  0  0  0  2  0  0  0  0  0  0
  179.8340  174.2000  138.9320 C   0  0  0  0  0  3  0  0  0  0  0  0
  180.7550  179.1340  135.2100 C   0  0  0  0  0  2  0  0  0  0  0  0
  179.2630  175.1610  136.3750 C   0  0  0  0  0  3  0  0  0  0  0  0
  182.5450  177.9880  139.5110 O   0  0  0  0  0  0  0  0  0  0  0  0
  180.8180  176.3860  139.6720 C   0  0  2  0  0  3  0  0  0  0  0  0
  181.5220  179.5270  137.4160 C   0  0  0  0  0  2  0  0  0  0  0  0
  181.4720  177.5990  139.0760 C   0  0  0  0  0  0  0  0  0  0  0  0
  180.2900  177.3860  136.9200 C   0  0  0  0  0  0  0  0  0  0  0  0
  178.9310  173.8480  136.7180 C   0  0  0  0  0  3  0  0  0  0  0  0
  180.1640  175.5240  138.6080 C   0  0  0  0  0  0  0  0  0  0  0  0
  185.6080  178.9310  140.1790 O   0  0  0  0  0  0  0  0  0  0  0  0
  186.0360  178.7470  141.3490 C   0  0  0  0  0  0  0  0  0  0  0  0
  185.4600  178.6530  143.6760 C   0  0  0  0  0  0  0  0  0  0  0  0
  187.0550  177.6000  145.2090 C   0  0  0  0  0  3  0  0  0  0  0  0
  185.2660  179.1400  146.1620 C   0  0  0  0  0  2  0  0  0  0  0  0
  184.6060  179.0560  144.8220 C   0  0  0  0  0  0  0  0  0  0  0  0
  187.5500  177.4230  142.8180 C   0  0  0  0  0  2  0  0  0  0  0  0
  185.1640  178.9980  142.4570 N   0  0  0  0  0  0  0  0  0  0  0  0
  186.7180  177.9230  143.9570 C   0  0  0  0  0  0  0  0  0  0  0  0
  187.4830  178.3640  141.6030 C   0  0  1  0  0  3  0  0  0  0  0  0
  186.1650  177.9160  146.3870 C   0  0  2  0  0  3  0  0  0  0  0  0
  183.3390  179.3460  144.7240 N   0  0  0  0  0  0  0  0  0  0  0  0
  189.7370  178.3470  138.9300 C   0  0  0  0  0  2  0  0  0  0  0  0
  188.5130  178.7990  139.5650 N   0  0  0  0  0  2  0  0  0  0  0  0
  188.1110  177.7580  140.4180 N   0  0  1  0  0  0  0  0  0  0  0  0
  190.3370  177.3280  139.7680 N   0  0  0  0  0  2  0  0  0  0  0  0
  189.3510  177.0950  140.8040 C   0  0  0  0  0  2  0  0  0  0  0  0
  186.9230  178.0430  147.5880 O   0  0  0  0  0  0  0  0  0  0  0  0
  188.0310  177.2620  147.8630 N   0  0  0  0  0  2  0  0  0  0  0  0
  189.1030  177.7590  148.2650 O   0  0  0  0  0  1  0  0  0  0  0  0
  1  4  1  0  0  0  0
  1  7  1  0  0  0  0
  2  6  2  0  0  0  0
  3  5  1  0  0  0  0
  4  3  1  0  0  0  0
  5 34  1  1  0  0  0
  6  1  2  0  0  0  0
  7  5  1  0  0  0  0
  8 18  1  6  0  0  0
  8 19  1  0  0  0  0
  9 22  1  0  0  0  0
 10 20  2  0  0  0  0
 11 13  1  0  0  0  0
 12 18  1  0  0  0  0
 14 10  1  0  0  0  0
 14 12  1  0  0  0  0
 15 21  1  0  0  0  0
 15  9  2  0  0  0  0
 17  2  1  1  0  0  0
 19 16  2  0  0  0  0
 19 17  1  0  0  0  0
 20  9  1  0  0  0  0
 20  8  1  0  0  0  0
 21 11  2  0  0  0  0
 22 13  2  0  0  0  0
 22 17  1  0  0  0  0
 23 24  2  0  0  0  0
 24 32  1  0  0  0  0
 24 30  1  0  0  0  0
 25 31  1  0  0  0  0
 25 28  1  0  0  0  0
 26 33  1  0  0  0  0
 27 33  1  0  0  0  0
 28 27  1  0  0  0  0
 29 31  1  0  0  0  0
 30 25  2  0  0  0  0
 31 26  2  0  0  0  0
 32 29  1  1  0  0  0
 33 40  1  1  0  0  0
 34 28  2  0  0  0  0
 35 36  1  0  0  0  0
 35 38  1  0  0  0  0
 36 37  1  0  0  0  0
 37 39  1  1  0  0  0
 37 32  1  0  0  0  0
 38 39  1  0  0  0  0
 40 41  1  0  0  0  0
 41 42  1  0  0  0  0
M  END
>  <MODEL>
6

>  <REMARK>
 VINA RESULT:      -8.5      5.235      8.946
  Name = 
  5 active torsions:
  status: ('A' for Active; 'I' for Inactive)
    1  A    between atoms: N_1  and  O_26
    2  A    between atoms: C_9  and  C_24
    3  A    between atoms: O_26  and  C_38
    4  A    between atoms: C_27  and  N_41
    5  A    between atoms: N_33  and  C_34
                            x       y       z     vdW  Elec       q    Type
                         _______ _______ _______ _____ _____    ______ ____

>  <TORSDO>
F 5

$$$$
=
 OpenBabel11062413103D

 42 48  0  0  1  0  0  0  0  0999 V2000
  184.3150  178.0190  142.7630 C   0  0  0  0  0  0  0  0  0  0  0  0
  182.9520  177.6450  140.5710 C   0  0  0  0  0  3  0  0  0  0  0  0
  185.3500  179.5970  144.1830 N   0  0  0  0  0  2  0  0  0  0  0  0
  184.0640  179.2050  143.6130 C   0  0  0  0  0  2  0  0  0  0  0  0
  186.3670  178.9430  143.3640 C   0  0  2  0  0  3  0  0  0  0  0  0
  183.6240  177.8340  141.6740 C   0  0  0  0  0  0  0  0  0  0  0  0
  185.7480  177.6930  142.7730 C   0  0  0  0  0  2  0  0  0  0  0  0
  182.0390  179.9550  138.4880 C   0  0  2  0  0  3  0  0  0  0  0  0
  181.9780  177.7110  137.2160 C   0  0  0  0  0  0  0  0  0  0  0  0
  180.9050  179.7290  136.3040 C   0  0  0  0  0  3  0  0  0  0  0  0
  182.7560  175.0180  137.0050 C   0  0  0  0  0  3  0  0  0  0  0  0
  180.6880  181.7870  137.6330 N   0  0  0  0  0  2  0  0  0  0  0  0
  183.3030  175.8260  138.0020 C   0  0  0  0  0  3  0  0  0  0  0  0
  180.6390  181.2120  136.2880 C   0  0  0  0  0  2  0  0  0  0  0  0
  181.4410  176.8850  136.2140 C   0  0  0  0  0  3  0  0  0  0  0  0
  184.2700  180.2420  139.2680 O   0  0  0  0  0  0  0  0  0  0  0  0
  183.5400  177.9960  139.2380 C   0  0  2  0  0  3  0  0  0  0  0  0
  181.9850  181.4600  138.2200 C   0  0  0  0  0  2  0  0  0  0  0  0
  183.3650  179.4670  138.9980 C   0  0  0  0  0  0  0  0  0  0  0  0
  181.6210  179.1510  137.2800 C   0  0  0  0  0  0  0  0  0  0  0  0
  181.8230  175.5450  136.1120 C   0  0  0  0  0  3  0  0  0  0  0  0
  182.9220  177.1700  138.1260 C   0  0  0  0  0  0  0  0  0  0  0  0
  187.9000  178.9120  139.1040 O   0  0  0  0  0  0  0  0  0  0  0  0
  188.6460  178.3800  139.9670 C   0  0  0  0  0  0  0  0  0  0  0  0
  188.9080  177.8270  142.2870 C   0  0  0  0  0  0  0  0  0  0  0  0
  190.6190  176.1780  142.8860 C   0  0  0  0  0  3  0  0  0  0  0  0
  189.7160  177.7250  144.6940 C   0  0  0  0  0  2  0  0  0  0  0  0
  188.6340  178.0820  143.7240 C   0  0  0  0  0  0  0  0  0  0  0  0
  190.1940  176.5010  140.4960 C   0  0  0  0  0  2  0  0  0  0  0  0
  188.3040  178.5020  141.3530 N   0  0  0  0  0  0  0  0  0  0  0  0
  189.9610  176.8460  141.9340 C   0  0  0  0  0  0  0  0  0  0  0  0
  189.9470  177.7050  139.5710 C   0  0  1  0  0  3  0  0  0  0  0  0
  190.3000  176.3480  144.3520 C   0  0  2  0  0  3  0  0  0  0  0  0
  187.5260  178.5990  144.1770 N   0  0  0  0  0  0  0  0  0  0  0  0
  191.1100  175.8210  136.8640 C   0  0  0  0  0  2  0  0  0  0  0  0
  191.2560  176.8960  137.8290 N   0  0  0  0  0  2  0  0  0  0  0  0
  189.9530  177.3050  138.1540 N   0  0  1  0  0  0  0  0  0  0  0  0
  189.7910  175.2430  137.0220 N   0  0  0  0  0  2  0  0  0  0  0  0
  189.1340  176.1110  137.9780 C   0  0  0  0  0  2  0  0  0  0  0  0
  191.4340  176.0490  145.1640 O   0  0  0  0  0  0  0  0  0  0  0  0
  191.9220  176.9200  146.1210 N   0  0  0  0  0  2  0  0  0  0  0  0
  191.9860  176.6040  147.3270 O   0  0  0  0  0  1  0  0  0  0  0  0
  1  7  1  0  0  0  0
  1  4  1  0  0  0  0
  2  6  2  0  0  0  0
  4  3  1  0  0  0  0
  5 34  1  1  0  0  0
  5  3  1  0  0  0  0
  6  1  2  0  0  0  0
  7  5  1  0  0  0  0
  8 18  1  6  0  0  0
  8 19  1  0  0  0  0
  9 20  1  0  0  0  0
  9 22  1  0  0  0  0
 10 20  2  0  0  0  0
 11 13  1  0  0  0  0
 12 18  1  0  0  0  0
 13 22  2  0  0  0  0
 14 10  1  0  0  0  0
 14 12  1  0  0  0  0
 15  9  2  0  0  0  0
 17  2  1  1  0  0  0
 19 17  1  0  0  0  0
 19 16  2  0  0  0  0
 20  8  1  0  0  0  0
 21 15  1  0  0  0  0
 21 11  2  0  0  0  0
 22 17  1  0  0  0  0
 23 24  2  0  0  0  0
 24 30  1  0  0  0  0
 25 28  1  0  0  0  0
 26 33  1  0  0  0  0
 28 34  2  0  0  0  0
 28 27  1  0  0  0  0
 29 31  1  0  0  0  0
 30 25  2  0  0  0  0
 31 25  1  0  0  0  0
 31 26  2  0  0  0  0
 32 24  1  0  0  0  0
 32 29  1  1  0  0  0
 33 27  1  0  0  0  0
 33 40  1  1  0  0  0
 35 38  1  0  0  0  0
 35 36  1  0  0  0  0
 36 37  1  0  0  0  0
 37 39  1  1  0  0  0
 37 32  1  0  0  0  0
 38 39  1  0  0  0  0
 40 41  1  0  0  0  0
 41 42  1  0  0  0  0
M  END
>  <MODEL>
7

>  <REMARK>
 VINA RESULT:      -8.4      4.110      8.538
  Name = 
  5 active torsions:
  status: ('A' for Active; 'I' for Inactive)
    1  A    between atoms: N_1  and  O_26
    2  A    between atoms: C_9  and  C_24
    3  A    between atoms: O_26  and  C_38
    4  A    between atoms: C_27  and  N_41
    5  A    between atoms: N_33  and  C_34
                            x       y       z     vdW  Elec       q    Type
                         _______ _______ _______ _____ _____    ______ ____

>  <TORSDO>
F 5

$$$$
=
 OpenBabel11062413103D

 42 48  0  0  1  0  0  0  0  0999 V2000
  189.5260  178.1070  140.5730 C   0  0  0  0  0  0  0  0  0  0  0  0
  190.5430  177.4570  142.8850 C   0  0  0  0  0  3  0  0  0  0  0  0
  187.7060  179.0970  139.4410 N   0  0  0  0  0  2  0  0  0  0  0  0
  188.7620  179.3640  140.4130 C   0  0  0  0  0  2  0  0  0  0  0  0
  187.5890  177.6440  139.3660 C   0  0  2  0  0  3  0  0  0  0  0  0
  190.0390  177.7930  141.7290 C   0  0  0  0  0  0  0  0  0  0  0  0
  188.9340  177.0540  139.7370 C   0  0  0  0  0  2  0  0  0  0  0  0
  187.7550  177.7680  144.5120 C   0  0  2  0  0  3  0  0  0  0  0  0
  189.5790  177.1550  146.2310 C   0  0  0  0  0  0  0  0  0  0  0  0
  187.3840  178.0110  146.9430 C   0  0  0  0  0  3  0  0  0  0  0  0
  192.1250  176.1060  146.8010 C   0  0  0  0  0  3  0  0  0  0  0  0
  185.7530  178.8840  145.3220 N   0  0  0  0  0  2  0  0  0  0  0  0
  191.6140  176.0340  145.5040 C   0  0  0  0  0  3  0  0  0  0  0  0
  185.9490  178.3910  146.6870 C   0  0  0  0  0  2  0  0  0  0  0  0
  190.1050  177.2150  147.5320 C   0  0  0  0  0  3  0  0  0  0  0  0
  187.7020  176.0060  142.9110 O   0  0  0  0  0  0  0  0  0  0  0  0
  189.8530  176.4630  143.7700 C   0  0  2  0  0  3  0  0  0  0  0  0
  186.2330  177.8610  144.3960 C   0  0  0  0  0  2  0  0  0  0  0  0
  188.3700  176.6760  143.6830 C   0  0  0  0  0  0  0  0  0  0  0  0
  188.2070  177.6440  145.9480 C   0  0  0  0  0  0  0  0  0  0  0  0
  191.3720  176.6990  147.8140 C   0  0  0  0  0  3  0  0  0  0  0  0
  190.3500  176.5570  145.2000 C   0  0  0  0  0  0  0  0  0  0  0  0
  183.7090  178.9210  141.3210 O   0  0  0  0  0  0  0  0  0  0  0  0
  183.6030  178.2710  140.2480 C   0  0  0  0  0  0  0  0  0  0  0  0
  184.7870  177.1580  138.4830 C   0  0  0  0  0  0  0  0  0  0  0  0
  183.5280  175.6210  137.0490 C   0  0  0  0  0  3  0  0  0  0  0  0
  185.7630  176.5170  136.2250 C   0  0  0  0  0  2  0  0  0  0  0  0
  185.9900  176.9890  137.6270 C   0  0  0  0  0  0  0  0  0  0  0  0
  182.3520  176.5130  139.0030 C   0  0  0  0  0  2  0  0  0  0  0  0
  184.7840  177.9810  139.4910 N   0  0  0  0  0  0  0  0  0  0  0  0
  183.5500  176.4360  138.1080 C   0  0  0  0  0  0  0  0  0  0  0  0
  182.2430  177.8820  139.6970 C   0  0  1  0  0  3  0  0  0  0  0  0
  184.7580  175.3590  136.2140 C   0  0  2  0  0  3  0  0  0  0  0  0
  187.2080  177.2360  138.0200 N   0  0  0  0  0  0  0  0  0  0  0  0
  178.9540  178.2330  140.8320 C   0  0  0  0  0  2  0  0  0  0  0  0
  180.2100  178.7900  140.3640 N   0  0  0  0  0  2  0  0  0  0  0  0
  181.2050  177.8740  140.7410 N   0  0  1  0  0  0  0  0  0  0  0  0
  179.1200  176.8020  140.9870 N   0  0  0  0  0  2  0  0  0  0  0  0
  180.5330  176.5800  140.7550 C   0  0  0  0  0  2  0  0  0  0  0  0
  184.4070  174.9900  134.8810 O   0  0  0  0  0  0  0  0  0  0  0  0
  183.5000  173.9860  134.5940 N   0  0  0  0  0  2  0  0  0  0  0  0
  183.6660  172.8150  134.9950 O   0  0  0  0  0  1  0  0  0  0  0  0
  1  6  2  0  0  0  0
  3  4  1  0  0  0  0
  4  1  1  0  0  0  0
  5 34  1  6  0  0  0
  5  3  1  0  0  0  0
  5  7  1  0  0  0  0
  6  2  2  0  0  0  0
  7  1  1  0  0  0  0
  8 18  1  1  0  0  0
  8 20  1  0  0  0  0
  9 15  1  0  0  0  0
 11 21  1  0  0  0  0
 12 14  1  0  0  0  0
 13 11  2  0  0  0  0
 14 10  1  0  0  0  0
 15 21  2  0  0  0  0
 16 19  2  0  0  0  0
 17  2  1  6  0  0  0
 17 22  1  0  0  0  0
 18 12  1  0  0  0  0
 19 17  1  0  0  0  0
 19  8  1  0  0  0  0
 20  9  1  0  0  0  0
 20 10  2  0  0  0  0
 22 13  1  0  0  0  0
 22  9  2  0  0  0  0
 24 23  2  0  0  0  0
 25 30  2  0  0  0  0
 26 31  2  0  0  0  0
 27 28  1  0  0  0  0
 28 34  2  0  0  0  0
 28 25  1  0  0  0  0
 30 24  1  0  0  0  0
 31 25  1  0  0  0  0
 31 29  1  0  0  0  0
 32 29  1  1  0  0  0
 32 24  1  0  0  0  0
 32 37  1  0  0  0  0
 33 40  1  6  0  0  0
 33 27  1  0  0  0  0
 33 26  1  0  0  0  0
 35 38  1  0  0  0  0
 36 37  1  0  0  0  0
 36 35  1  0  0  0  0
 37 39  1  6  0  0  0
 39 38  1  0  0  0  0
 41 40  1  0  0  0  0
 41 42  1  0  0  0  0
M  END
>  <MODEL>
8

>  <REMARK>
 VINA RESULT:      -7.7      4.771      9.969
  Name = 
  5 active torsions:
  status: ('A' for Active; 'I' for Inactive)
    1  A    between atoms: N_1  and  O_26
    2  A    between atoms: C_9  and  C_24
    3  A    between atoms: O_26  and  C_38
    4  A    between atoms: C_27  and  N_41
    5  A    between atoms: N_33  and  C_34
                            x       y       z     vdW  Elec       q    Type
                         _______ _______ _______ _____ _____    ______ ____

>  <TORSDO>
F 5

$$$$
=
 OpenBabel11062413103D

 42 48  0  0  1  0  0  0  0  0999 V2000
  186.7030  178.2610  138.5170 C   0  0  0  0  0  0  0  0  0  0  0  0
  185.5870  178.8970  140.7860 C   0  0  0  0  0  3  0  0  0  0  0  0
  186.3540  177.5570  136.2890 N   0  0  0  0  0  2  0  0  0  0  0  0
  186.0660  178.6330  137.2330 C   0  0  0  0  0  2  0  0  0  0  0  0
  186.7640  176.4140  137.0990 C   0  0  2  0  0  3  0  0  0  0  0  0
  186.1440  178.5900  139.6470 C   0  0  0  0  0  0  0  0  0  0  0  0
  187.3530  176.9500  138.3880 C   0  0  0  0  0  2  0  0  0  0  0  0
  182.4160  178.8760  141.4660 C   0  0  2  0  0  3  0  0  0  0  0  0
  183.6800  178.7390  143.7110 C   0  0  0  0  0  0  0  0  0  0  0  0
  181.2790  179.2700  143.6240 C   0  0  0  0  0  3  0  0  0  0  0  0
  186.0390  178.1930  145.1400 C   0  0  0  0  0  3  0  0  0  0  0  0
  180.1310  179.7050  141.4930 N   0  0  0  0  0  2  0  0  0  0  0  0
  185.9710  177.9180  143.7730 C   0  0  0  0  0  3  0  0  0  0  0  0
  179.9570  179.3760  142.9090 C   0  0  0  0  0  2  0  0  0  0  0  0
  183.7630  179.0040  145.0880 C   0  0  0  0  0  3  0  0  0  0  0  0
  183.1000  176.9940  140.1770 O   0  0  0  0  0  0  0  0  0  0  0  0
  184.7960  177.8850  141.5580 C   0  0  2  0  0  3  0  0  0  0  0  0
  181.0080  178.6990  140.8980 C   0  0  0  0  0  2  0  0  0  0  0  0
  183.3990  177.8340  141.0120 C   0  0  0  0  0  0  0  0  0  0  0  0
  182.4110  178.9600  142.9740 C   0  0  0  0  0  0  0  0  0  0  0  0
  184.9360  178.7370  145.7980 C   0  0  0  0  0  3  0  0  0  0  0  0
  184.8060  178.1900  143.0440 C   0  0  0  0  0  0  0  0  0  0  0  0
  182.8000  174.4090  136.2180 O   0  0  0  0  0  0  0  0  0  0  0  0
  183.8330  173.7470  135.9360 C   0  0  0  0  0  0  0  0  0  0  0  0
  186.2320  173.7220  135.9450 C   0  0  0  0  0  0  0  0  0  0  0  0
  187.3560  171.5630  135.6610 C   0  0  0  0  0  3  0  0  0  0  0  0
  188.6740  173.6990  135.2420 C   0  0  0  0  0  2  0  0  0  0  0  0
  187.5410  174.4220  135.9000 C   0  0  0  0  0  0  0  0  0  0  0  0
  184.9230  171.5070  135.9290 C   0  0  0  0  0  2  0  0  0  0  0  0
  185.1140  174.3810  136.0310 N   0  0  0  0  0  0  0  0  0  0  0  0
  186.2170  172.2480  135.7940 C   0  0  0  0  0  0  0  0  0  0  0  0
  183.7340  172.3290  135.4010 C   0  0  1  0  0  3  0  0  0  0  0  0
  188.7070  172.2360  135.7020 C   0  0  2  0  0  3  0  0  0  0  0  0
  187.7500  175.6140  136.3840 N   0  0  0  0  0  0  0  0  0  0  0  0
  180.6830  170.8230  134.5940 C   0  0  0  0  0  2  0  0  0  0  0  0
  181.5400  171.9890  134.7140 N   0  0  0  0  0  2  0  0  0  0  0  0
  182.4490  171.6980  135.7440 N   0  0  1  0  0  0  0  0  0  0  0  0
  181.3890  169.6810  135.1380 N   0  0  0  0  0  2  0  0  0  0  0  0
  182.5920  170.2470  135.7140 C   0  0  0  0  0  2  0  0  0  0  0  0
  189.6800  171.4860  134.9780 O   0  0  0  0  0  0  0  0  0  0  0  0
  190.9330  171.9830  134.6680 N   0  0  0  0  0  2  0  0  0  0  0  0
  191.9710  171.3200  134.8700 O   0  0  0  0  0  1  0  0  0  0  0  0
  1  6  2  0  0  0  0
  3  5  1  0  0  0  0
  3  4  1  0  0  0  0
  4  1  1  0  0  0  0
  5 34  1  6  0  0  0
  5  7  1  0  0  0  0
  6  2  2  0  0  0  0
  7  1  1  0  0  0  0
  8 18  1  1  0  0  0
  8 20  1  0  0  0  0
  9 15  1  0  0  0  0
 11 21  1  0  0  0  0
 12 14  1  0  0  0  0
 13 11  2  0  0  0  0
 14 10  1  0  0  0  0
 15 21  2  0  0  0  0
 16 19  2  0  0  0  0
 17  2  1  6  0  0  0
 17 22  1  0  0  0  0
 18 12  1  0  0  0  0
 19  8  1  0  0  0  0
 19 17  1  0  0  0  0
 20 10  2  0  0  0  0
 20  9  1  0  0  0  0
 22  9  2  0  0  0  0
 22 13  1  0  0  0  0
 24 30  1  0  0  0  0
 24 23  2  0  0  0  0
 25 30  2  0  0  0  0
 26 33  1  0  0  0  0
 26 31  2  0  0  0  0
 27 33  1  0  0  0  0
 27 28  1  0  0  0  0
 28 25  1  0  0  0  0
 28 34  2  0  0  0  0
 31 29  1  0  0  0  0
 31 25  1  0  0  0  0
 32 37  1  0  0  0  0
 32 29  1  1  0  0  0
 32 24  1  0  0  0  0
 33 40  1  6  0  0  0
 35 36  1  0  0  0  0
 35 38  1  0  0  0  0
 36 37  1  0  0  0  0
 37 39  1  6  0  0  0
 38 39  1  0  0  0  0
 41 42  1  0  0  0  0
 41 40  1  0  0  0  0
M  END
>  <MODEL>
9

>  <REMARK>
 VINA RESULT:      -7.6      4.732     11.677
  Name = 
  5 active torsions:
  status: ('A' for Active; 'I' for Inactive)
    1  A    between atoms: N_1  and  O_26
    2  A    between atoms: C_9  and  C_24
    3  A    between atoms: O_26  and  C_38
    4  A    between atoms: C_27  and  N_41
    5  A    between atoms: N_33  and  C_34
                            x       y       z     vdW  Elec       q    Type
                         _______ _______ _______ _____ _____    ______ ____

>  <TORSDO>
F 5

$$$$
