=
 OpenBabel11062417013D

 26 28  0  0  0  0  0  0  0  0999 V2000
  190.4600  176.1520  140.9100 O   0  0  0  0  0  0  0  0  0  0  0  0
  189.4410  176.8780  141.0610 C   0  0  0  0  0  0  0  0  0  0  0  0
  191.5560  177.3540  145.1430 C   0  0  0  0  0  2  0  0  0  0  0  0
  189.3030  177.6000  143.3930 C   0  0  0  0  0  0  0  0  0  0  0  0
  188.2360  177.4080  147.0510 C   0  0  0  0  0  3  0  0  0  0  0  0
  190.5190  177.0380  146.2160 C   0  0  0  0  0  2  0  0  0  0  0  0
  187.1260  177.7980  144.5280 C   0  0  0  0  0  3  0  0  0  0  0  0
  188.8360  176.9580  142.3600 N   0  0  0  0  0  0  0  0  0  0  0  0
  190.4780  178.5410  143.2460 C   0  0  0  0  0  2  0  0  0  0  0  0
  191.3020  178.7080  144.5150 C   0  0  0  0  0  2  0  0  0  0  0  0
  186.8650  177.6310  146.9200 C   0  0  0  0  0  3  0  0  0  0  0  0
  186.3090  177.8220  145.6580 C   0  0  0  0  0  3  0  0  0  0  0  0
  188.5090  177.5880  144.6400 C   0  0  0  0  0  0  0  0  0  0  0  0
  189.0750  177.3850  145.9310 C   0  0  0  0  0  0  0  0  0  0  0  0
  189.4090  177.4640  138.7360 N   0  0  0  0  0  2  0  0  0  0  0  0
  188.9530  177.6860  139.9270 C   0  0  0  0  0  0  0  0  0  0  0  0
  188.0270  178.7080  140.1540 O   0  0  0  0  0  0  0  0  0  0  0  0
  186.6460  178.5620  139.8580 C   0  0  0  0  0  2  0  0  0  0  0  0
  185.8410  178.7190  141.1290 C   0  0  0  0  0  2  0  0  0  0  0  0
  181.3950  179.1730  142.9580 C   0  0  0  0  0  0  0  0  0  0  0  0
  182.4800  179.0140  143.9660 C   0  0  0  0  0  2  0  0  0  0  0  0
  183.7520  178.6320  143.2210 C   0  0  0  0  0  2  0  0  0  0  0  0
  181.7150  178.5770  141.3100 S   0  0  0  0  0  0  0  0  0  0  0  0
  180.3470  179.7320  143.2370 O   0  0  0  0  0  0  0  0  0  0  0  0
  183.4410  178.6010  141.7570 C   0  0  0  0  0  0  0  0  0  0  0  0
  184.3830  178.6590  140.8110 C   0  0  0  0  0  3  0  0  0  0  0  0
  1  2  2  0  0  0  0
  2  8  1  0  0  0  0
  3  6  1  0  0  0  0
  4 13  1  0  0  0  0
  7 13  2  0  0  0  0
  7 12  1  0  0  0  0
  8  4  2  0  0  0  0
  9  4  1  0  0  0  0
  9 10  1  0  0  0  0
 10  3  1  0  0  0  0
 11  5  1  0  0  0  0
 12 11  2  0  0  0  0
 13 14  1  0  0  0  0
 14  6  1  0  0  0  0
 14  5  2  0  0  0  0
 15 16  2  0  0  0  0
 16 17  1  0  0  0  0
 16  2  1  0  0  0  0
 18 17  1  0  0  0  0
 18 19  1  0  0  0  0
 20 24  2  0  0  0  0
 20 21  1  0  0  0  0
 22 21  1  0  0  0  0
 23 25  1  0  0  0  0
 23 20  1  0  0  0  0
 25 22  1  0  0  0  0
 26 19  1  0  0  0  0
 26 25  2  0  0  0  0
M  END
>  <MODEL>
1

>  <REMARK>
 VINA RESULT:      -8.5      0.000      0.000
  Name = 
  6 active torsions:
  status: ('A' for Active; 'I' for Inactive)
    1  A    between atoms: C_3  and  C_13
    2  A    between atoms: C_3  and  C_25
    3  A    between atoms: N_11  and  C_22
    4  A    between atoms: C_13  and  O_23
    5  A    between atoms: C_20  and  C_22
    6  A    between atoms: C_20  and  O_23
                            x       y       z     vdW  Elec       q    Type
                         _______ _______ _______ _____ _____    ______ ____

>  <TORSDO>
F 6

$$$$
=
 OpenBabel11062417013D

 26 28  0  0  0  0  0  0  0  0999 V2000
  189.3640  176.6880  140.9630 O   0  0  0  0  0  0  0  0  0  0  0  0
  188.5050  177.4330  141.5060 C   0  0  0  0  0  0  0  0  0  0  0  0
  191.7800  177.0850  144.7500 C   0  0  0  0  0  2  0  0  0  0  0  0
  189.1610  177.7930  143.8350 C   0  0  0  0  0  0  0  0  0  0  0  0
  189.2130  177.1260  147.5910 C   0  0  0  0  0  3  0  0  0  0  0  0
  191.0770  176.6960  146.0460 C   0  0  0  0  0  2  0  0  0  0  0  0
  187.4630  177.9970  145.6080 C   0  0  0  0  0  3  0  0  0  0  0  0
  188.3290  177.3610  142.9290 N   0  0  0  0  0  0  0  0  0  0  0  0
  190.3500  178.6410  143.4440 C   0  0  0  0  0  2  0  0  0  0  0  0
  191.5280  178.5370  144.4020 C   0  0  0  0  0  2  0  0  0  0  0  0
  187.9060  177.4830  147.9230 C   0  0  0  0  0  3  0  0  0  0  0  0
  187.0300  177.9150  146.9310 C   0  0  0  0  0  3  0  0  0  0  0  0
  188.7780  177.6550  145.2560 C   0  0  0  0  0  0  0  0  0  0  0  0
  189.6710  177.2060  146.2710 C   0  0  0  0  0  0  0  0  0  0  0  0
  188.0150  178.4960  139.4140 N   0  0  0  0  0  2  0  0  0  0  0  0
  187.7700  178.4110  140.6820 C   0  0  0  0  0  0  0  0  0  0  0  0
  186.8390  179.2630  141.2850 O   0  0  0  0  0  0  0  0  0  0  0  0
  185.4390  179.0980  141.1180 C   0  0  0  0  0  2  0  0  0  0  0  0
  184.9090  178.1850  142.2020 C   0  0  0  0  0  2  0  0  0  0  0  0
  180.0930  178.2610  141.8630 C   0  0  0  0  0  0  0  0  0  0  0  0
  180.8010  177.6950  140.6810 C   0  0  0  0  0  2  0  0  0  0  0  0
  182.2870  177.9840  140.8490 C   0  0  0  0  0  2  0  0  0  0  0  0
  181.0130  179.3600  142.9200 S   0  0  0  0  0  0  0  0  0  0  0  0
  178.9430  177.9450  142.1240 O   0  0  0  0  0  0  0  0  0  0  0  0
  182.4770  178.6880  142.1570 C   0  0  0  0  0  0  0  0  0  0  0  0
  183.6590  178.7640  142.7780 C   0  0  0  0  0  3  0  0  0  0  0  0
  1  2  2  0  0  0  0
  2  8  1  0  0  0  0
  3  6  1  0  0  0  0
  4 13  1  0  0  0  0
  5 11  1  0  0  0  0
  6 14  1  0  0  0  0
  7 12  1  0  0  0  0
  8  4  2  0  0  0  0
  9  4  1  0  0  0  0
  9 10  1  0  0  0  0
 10  3  1  0  0  0  0
 12 11  2  0  0  0  0
 13  7  2  0  0  0  0
 13 14  1  0  0  0  0
 14  5  2  0  0  0  0
 15 16  2  0  0  0  0
 16 17  1  0  0  0  0
 16  2  1  0  0  0  0
 18 17  1  0  0  0  0
 18 19  1  0  0  0  0
 19 26  1  0  0  0  0
 20 24  2  0  0  0  0
 20 23  1  0  0  0  0
 21 22  1  0  0  0  0
 21 20  1  0  0  0  0
 22 25  1  0  0  0  0
 25 26  2  0  0  0  0
 25 23  1  0  0  0  0
M  END
>  <MODEL>
2

>  <REMARK>
 VINA RESULT:      -8.3      1.327      1.642
  Name = 
  6 active torsions:
  status: ('A' for Active; 'I' for Inactive)
    1  A    between atoms: C_3  and  C_13
    2  A    between atoms: C_3  and  C_25
    3  A    between atoms: N_11  and  C_22
    4  A    between atoms: C_13  and  O_23
    5  A    between atoms: C_20  and  C_22
    6  A    between atoms: C_20  and  O_23
                            x       y       z     vdW  Elec       q    Type
                         _______ _______ _______ _____ _____    ______ ____

>  <TORSDO>
F 6

$$$$
=
 OpenBabel11062417013D

 26 28  0  0  0  0  0  0  0  0999 V2000
  190.2220  174.9930  142.9840 O   0  0  0  0  0  0  0  0  0  0  0  0
  189.6740  176.0260  142.5160 C   0  0  0  0  0  0  0  0  0  0  0  0
  189.1230  177.0200  146.9970 C   0  0  0  0  0  2  0  0  0  0  0  0
  188.4730  177.3020  144.2220 C   0  0  0  0  0  0  0  0  0  0  0  0
  185.5260  178.2230  146.4640 C   0  0  0  0  0  3  0  0  0  0  0  0
  187.6260  177.1960  147.2280 C   0  0  0  0  0  2  0  0  0  0  0  0
  186.2300  178.2160  143.7700 C   0  0  0  0  0  3  0  0  0  0  0  0
  188.5020  176.5410  143.1640 N   0  0  0  0  0  0  0  0  0  0  0  0
  189.7450  177.9130  144.7630 C   0  0  0  0  0  2  0  0  0  0  0  0
  189.7070  178.2060  146.2570 C   0  0  0  0  0  2  0  0  0  0  0  0
  184.6240  178.6870  145.5070 C   0  0  0  0  0  3  0  0  0  0  0  0
  184.9750  178.6810  144.1600 C   0  0  0  0  0  3  0  0  0  0  0  0
  187.1570  177.7560  144.7190 C   0  0  0  0  0  0  0  0  0  0  0  0
  186.7940  177.7560  146.0970 C   0  0  0  0  0  0  0  0  0  0  0  0
  191.2100  177.6160  141.5890 N   0  0  0  0  0  2  0  0  0  0  0  0
  190.2980  176.7230  141.3750 C   0  0  0  0  0  0  0  0  0  0  0  0
  189.8750  176.4370  140.0740 O   0  0  0  0  0  0  0  0  0  0  0  0
  190.2560  177.2300  138.9590 C   0  0  0  0  0  2  0  0  0  0  0  0
  189.3480  178.4370  138.8690 C   0  0  0  0  0  2  0  0  0  0  0  0
  184.5220  178.5780  138.8580 C   0  0  0  0  0  0  0  0  0  0  0  0
  185.1580  178.8060  140.1860 C   0  0  0  0  0  2  0  0  0  0  0  0
  186.6380  178.4750  140.0530 C   0  0  0  0  0  2  0  0  0  0  0  0
  185.4740  177.7030  137.6340 S   0  0  0  0  0  0  0  0  0  0  0  0
  183.4110  179.0160  138.6040 O   0  0  0  0  0  0  0  0  0  0  0  0
  186.9010  178.0870  138.6310 C   0  0  0  0  0  0  0  0  0  0  0  0
  188.1240  178.0870  138.0900 C   0  0  0  0  0  3  0  0  0  0  0  0
  2  1  2  0  0  0  0
  2  8  1  0  0  0  0
  3  6  1  0  0  0  0
  4 13  1  0  0  0  0
  4  9  1  0  0  0  0
  7 12  2  0  0  0  0
  7 13  1  0  0  0  0
  8  4  2  0  0  0  0
  9 10  1  0  0  0  0
 10  3  1  0  0  0  0
 11  5  2  0  0  0  0
 12 11  1  0  0  0  0
 13 14  2  0  0  0  0
 14  5  1  0  0  0  0
 14  6  1  0  0  0  0
 16 15  2  0  0  0  0
 16  2  1  0  0  0  0
 17 16  1  0  0  0  0
 18 17  1  0  0  0  0
 19 18  1  0  0  0  0
 20 21  1  0  0  0  0
 22 21  1  0  0  0  0
 23 25  1  0  0  0  0
 23 20  1  0  0  0  0
 24 20  2  0  0  0  0
 25 22  1  0  0  0  0
 26 25  2  0  0  0  0
 26 19  1  0  0  0  0
M  END
>  <MODEL>
3

>  <REMARK>
 VINA RESULT:      -8.1      2.256      3.381
  Name = 
  6 active torsions:
  status: ('A' for Active; 'I' for Inactive)
    1  A    between atoms: C_3  and  C_13
    2  A    between atoms: C_3  and  C_25
    3  A    between atoms: N_11  and  C_22
    4  A    between atoms: C_13  and  O_23
    5  A    between atoms: C_20  and  C_22
    6  A    between atoms: C_20  and  O_23
                            x       y       z     vdW  Elec       q    Type
                         _______ _______ _______ _____ _____    ______ ____

>  <TORSDO>
F 6

$$$$
=
 OpenBabel11062417013D

 26 28  0  0  0  0  0  0  0  0999 V2000
  189.4900  176.8640  140.9790 O   0  0  0  0  0  0  0  0  0  0  0  0
  188.5350  177.5130  141.4820 C   0  0  0  0  0  0  0  0  0  0  0  0
  191.7050  177.0960  144.8210 C   0  0  0  0  0  2  0  0  0  0  0  0
  189.1230  177.8440  143.8330 C   0  0  0  0  0  0  0  0  0  0  0  0
  189.0520  177.1420  147.5830 C   0  0  0  0  0  3  0  0  0  0  0  0
  190.9570  176.7040  146.0910 C   0  0  0  0  0  2  0  0  0  0  0  0
  187.3750  178.0530  145.5550 C   0  0  0  0  0  3  0  0  0  0  0  0
  188.3140  177.4310  142.8980 N   0  0  0  0  0  0  0  0  0  0  0  0
  190.3340  178.6810  143.4860 C   0  0  0  0  0  2  0  0  0  0  0  0
  191.4810  178.5540  144.4800 C   0  0  0  0  0  2  0  0  0  0  0  0
  187.7400  177.5120  147.8780 C   0  0  0  0  0  3  0  0  0  0  0  0
  186.9000  177.9640  146.8640 C   0  0  0  0  0  3  0  0  0  0  0  0
  188.6960  177.6970  145.2400 C   0  0  0  0  0  0  0  0  0  0  0  0
  189.5520  177.2280  146.2780 C   0  0  0  0  0  0  0  0  0  0  0  0
  186.6770  178.9800  141.1050 N   0  0  0  0  0  2  0  0  0  0  0  0
  187.7290  178.4000  140.6230 C   0  0  0  0  0  0  0  0  0  0  0  0
  188.0880  178.5810  139.2840 O   0  0  0  0  0  0  0  0  0  0  0  0
  187.4210  177.9160  138.2210 C   0  0  0  0  0  2  0  0  0  0  0  0
  188.3560  177.8010  137.0360 C   0  0  0  0  0  2  0  0  0  0  0  0
  191.9690  174.6130  137.3500 C   0  0  0  0  0  0  0  0  0  0  0  0
  190.6360  174.0290  137.0310 C   0  0  0  0  0  2  0  0  0  0  0  0
  189.5930  175.1220  137.2240 C   0  0  0  0  0  2  0  0  0  0  0  0
  191.9940  176.1980  138.1610 S   0  0  0  0  0  0  0  0  0  0  0  0
  193.0010  174.0500  137.0240 O   0  0  0  0  0  0  0  0  0  0  0  0
  190.3050  176.3780  137.6210 C   0  0  0  0  0  0  0  0  0  0  0  0
  189.7530  177.5910  137.5190 C   0  0  0  0  0  3  0  0  0  0  0  0
  1  2  2  0  0  0  0
  2  8  1  0  0  0  0
  3  6  1  0  0  0  0
  4 13  1  0  0  0  0
  5 11  1  0  0  0  0
  6 14  1  0  0  0  0
  7 12  1  0  0  0  0
  8  4  2  0  0  0  0
  9  4  1  0  0  0  0
  9 10  1  0  0  0  0
 10  3  1  0  0  0  0
 12 11  2  0  0  0  0
 13  7  2  0  0  0  0
 13 14  1  0  0  0  0
 14  5  2  0  0  0  0
 16 15  2  0  0  0  0
 16  2  1  0  0  0  0
 17 16  1  0  0  0  0
 18 17  1  0  0  0  0
 19 26  1  0  0  0  0
 19 18  1  0  0  0  0
 20 23  1  0  0  0  0
 21 22  1  0  0  0  0
 21 20  1  0  0  0  0
 22 25  1  0  0  0  0
 24 20  2  0  0  0  0
 25 23  1  0  0  0  0
 26 25  2  0  0  0  0
M  END
>  <MODEL>
4

>  <REMARK>
 VINA RESULT:      -8.0      3.681      5.901
  Name = 
  6 active torsions:
  status: ('A' for Active; 'I' for Inactive)
    1  A    between atoms: C_3  and  C_13
    2  A    between atoms: C_3  and  C_25
    3  A    between atoms: N_11  and  C_22
    4  A    between atoms: C_13  and  O_23
    5  A    between atoms: C_20  and  C_22
    6  A    between atoms: C_20  and  O_23
                            x       y       z     vdW  Elec       q    Type
                         _______ _______ _______ _____ _____    ______ ____

>  <TORSDO>
F 6

$$$$
=
 OpenBabel11062417013D

 26 28  0  0  0  0  0  0  0  0999 V2000
  185.6530  179.5980  146.5570 O   0  0  0  0  0  0  0  0  0  0  0  0
  185.6660  178.9660  145.4680 C   0  0  0  0  0  0  0  0  0  0  0  0
  189.3870  177.9060  147.9980 C   0  0  0  0  0  2  0  0  0  0  0  0
  187.6960  177.6220  145.7040 C   0  0  0  0  0  0  0  0  0  0  0  0
  191.2810  176.5510  144.9570 C   0  0  0  0  0  3  0  0  0  0  0  0
  190.5310  177.6630  147.0180 C   0  0  0  0  0  2  0  0  0  0  0  0
  188.7800  176.6150  143.7350 C   0  0  0  0  0  3  0  0  0  0  0  0
  186.9020  178.3930  145.0160 N   0  0  0  0  0  0  0  0  0  0  0  0
  187.2560  177.0630  147.0380 C   0  0  0  0  0  2  0  0  0  0  0  0
  188.4030  176.7540  147.9900 C   0  0  0  0  0  2  0  0  0  0  0  0
  191.1260  176.0560  143.6630 C   0  0  0  0  0  3  0  0  0  0  0  0
  189.8760  176.0910  143.0500 C   0  0  0  0  0  3  0  0  0  0  0  0
  188.9130  177.1060  145.0430 C   0  0  0  0  0  0  0  0  0  0  0  0
  190.1940  177.0760  145.6660 C   0  0  0  0  0  0  0  0  0  0  0  0
  183.2790  179.0990  145.2820 N   0  0  0  0  0  2  0  0  0  0  0  0
  184.4020  178.7590  144.7350 C   0  0  0  0  0  0  0  0  0  0  0  0
  184.4250  178.1660  143.4690 O   0  0  0  0  0  0  0  0  0  0  0  0
  184.4030  178.9300  142.2720 C   0  0  0  0  0  2  0  0  0  0  0  0
  185.8140  179.0710  141.7420 C   0  0  0  0  0  2  0  0  0  0  0  0
  188.5160  177.0290  138.3000 C   0  0  0  0  0  0  0  0  0  0  0  0
  189.2610  177.4620  139.5160 C   0  0  0  0  0  2  0  0  0  0  0  0
  188.3150  178.3000  140.3650 C   0  0  0  0  0  2  0  0  0  0  0  0
  186.9550  177.8220  137.9720 S   0  0  0  0  0  0  0  0  0  0  0  0
  188.9360  176.1340  137.5850 O   0  0  0  0  0  0  0  0  0  0  0  0
  186.9850  178.3380  139.6780 C   0  0  0  0  0  0  0  0  0  0  0  0
  185.8510  178.6690  140.3040 C   0  0  0  0  0  3  0  0  0  0  0  0
  2  1  2  0  0  0  0
  4  9  1  0  0  0  0
  5 14  1  0  0  0  0
  6  3  1  0  0  0  0
  7 13  1  0  0  0  0
  8  2  1  0  0  0  0
  8  4  2  0  0  0  0
  9 10  1  0  0  0  0
 10  3  1  0  0  0  0
 11  5  2  0  0  0  0
 12 11  1  0  0  0  0
 12  7  2  0  0  0  0
 13 14  2  0  0  0  0
 13  4  1  0  0  0  0
 14  6  1  0  0  0  0
 16 15  2  0  0  0  0
 16  2  1  0  0  0  0
 17 16  1  0  0  0  0
 18 17  1  0  0  0  0
 19 18  1  0  0  0  0
 20 21  1  0  0  0  0
 21 22  1  0  0  0  0
 23 20  1  0  0  0  0
 23 25  1  0  0  0  0
 24 20  2  0  0  0  0
 25 26  2  0  0  0  0
 25 22  1  0  0  0  0
 26 19  1  0  0  0  0
M  END
>  <MODEL>
5

>  <REMARK>
 VINA RESULT:      -7.8      2.748      5.482
  Name = 
  6 active torsions:
  status: ('A' for Active; 'I' for Inactive)
    1  A    between atoms: C_3  and  C_13
    2  A    between atoms: C_3  and  C_25
    3  A    between atoms: N_11  and  C_22
    4  A    between atoms: C_13  and  O_23
    5  A    between atoms: C_20  and  C_22
    6  A    between atoms: C_20  and  O_23
                            x       y       z     vdW  Elec       q    Type
                         _______ _______ _______ _____ _____    ______ ____

>  <TORSDO>
F 6

$$$$
=
 OpenBabel11062417013D

 26 28  0  0  0  0  0  0  0  0999 V2000
  190.1870  175.0940  142.8730 O   0  0  0  0  0  0  0  0  0  0  0  0
  189.6210  176.1470  142.4750 C   0  0  0  0  0  0  0  0  0  0  0  0
  189.2450  177.0390  146.9950 C   0  0  0  0  0  2  0  0  0  0  0  0
  188.4670  177.3600  144.2580 C   0  0  0  0  0  0  0  0  0  0  0  0
  185.6020  178.1670  146.6450 C   0  0  0  0  0  3  0  0  0  0  0  0
  187.7560  177.1740  147.2950 C   0  0  0  0  0  2  0  0  0  0  0  0
  186.1870  178.2300  143.9230 C   0  0  0  0  0  3  0  0  0  0  0  0
  188.4660  176.6210  143.1840 N   0  0  0  0  0  0  0  0  0  0  0  0
  189.7480  177.9900  144.7560 C   0  0  0  0  0  2  0  0  0  0  0  0
  189.7690  178.2520  146.2550 C   0  0  0  0  0  2  0  0  0  0  0  0
  184.6480  178.6290  145.7380 C   0  0  0  0  0  3  0  0  0  0  0  0
  184.9390  178.6580  144.3770 C   0  0  0  0  0  3  0  0  0  0  0  0
  187.1640  177.7730  144.8210 C   0  0  0  0  0  0  0  0  0  0  0  0
  186.8630  177.7380  146.2130 C   0  0  0  0  0  0  0  0  0  0  0  0
  191.3420  177.5050  141.5060 N   0  0  0  0  0  2  0  0  0  0  0  0
  190.2060  176.9040  141.3520 C   0  0  0  0  0  0  0  0  0  0  0  0
  189.5120  176.9950  140.1420 O   0  0  0  0  0  0  0  0  0  0  0  0
  189.1490  178.2420  139.5660 C   0  0  0  0  0  2  0  0  0  0  0  0
  189.1940  178.1290  138.0580 C   0  0  0  0  0  2  0  0  0  0  0  0
  185.4060  175.3860  136.8580 C   0  0  0  0  0  0  0  0  0  0  0  0
  186.6880  174.6500  137.0370 C   0  0  0  0  0  2  0  0  0  0  0  0
  187.8020  175.6810  137.1540 C   0  0  0  0  0  2  0  0  0  0  0  0
  185.5050  177.1260  136.4900 S   0  0  0  0  0  0  0  0  0  0  0  0
  184.3300  174.8300  137.0080 O   0  0  0  0  0  0  0  0  0  0  0  0
  187.1830  177.0430  137.0880 C   0  0  0  0  0  0  0  0  0  0  0  0
  187.8040  178.1470  137.5120 C   0  0  0  0  0  3  0  0  0  0  0  0
  2  1  2  0  0  0  0
  2  8  1  0  0  0  0
  3  6  1  0  0  0  0
  4  9  1  0  0  0  0
  4 13  1  0  0  0  0
  7 12  2  0  0  0  0
  7 13  1  0  0  0  0
  8  4  2  0  0  0  0
  9 10  1  0  0  0  0
 10  3  1  0  0  0  0
 11  5  2  0  0  0  0
 12 11  1  0  0  0  0
 13 14  2  0  0  0  0
 14  5  1  0  0  0  0
 14  6  1  0  0  0  0
 16 15  2  0  0  0  0
 16  2  1  0  0  0  0
 17 16  1  0  0  0  0
 18 17  1  0  0  0  0
 19 18  1  0  0  0  0
 20 24  2  0  0  0  0
 20 21  1  0  0  0  0
 21 22  1  0  0  0  0
 23 20  1  0  0  0  0
 23 25  1  0  0  0  0
 25 22  1  0  0  0  0
 25 26  2  0  0  0  0
 26 19  1  0  0  0  0
M  END
>  <MODEL>
6

>  <REMARK>
 VINA RESULT:      -7.8      2.885      4.412
  Name = 
  6 active torsions:
  status: ('A' for Active; 'I' for Inactive)
    1  A    between atoms: C_3  and  C_13
    2  A    between atoms: C_3  and  C_25
    3  A    between atoms: N_11  and  C_22
    4  A    between atoms: C_13  and  O_23
    5  A    between atoms: C_20  and  C_22
    6  A    between atoms: C_20  and  O_23
                            x       y       z     vdW  Elec       q    Type
                         _______ _______ _______ _____ _____    ______ ____

>  <TORSDO>
F 6

$$$$
=
 OpenBabel11062417013D

 26 28  0  0  0  0  0  0  0  0999 V2000
  184.1850  180.2850  138.7290 O   0  0  0  0  0  0  0  0  0  0  0  0
  184.9230  179.3980  139.2340 C   0  0  0  0  0  0  0  0  0  0  0  0
  181.3970  179.1510  142.2140 C   0  0  0  0  0  2  0  0  0  0  0  0
  184.1140  178.6960  141.4330 C   0  0  0  0  0  0  0  0  0  0  0  0
  183.7400  178.8450  145.2280 C   0  0  0  0  0  3  0  0  0  0  0  0
  181.9770  179.3930  143.6040 C   0  0  0  0  0  2  0  0  0  0  0  0
  185.6820  178.3320  143.2990 C   0  0  0  0  0  3  0  0  0  0  0  0
  184.9870  179.2840  140.6640 N   0  0  0  0  0  0  0  0  0  0  0  0
  183.0080  177.8550  140.8370 C   0  0  0  0  0  2  0  0  0  0  0  0
  181.7570  177.7730  141.7010 C   0  0  0  0  0  2  0  0  0  0  0  0
  185.0360  178.5070  145.6170 C   0  0  0  0  0  3  0  0  0  0  0  0
  186.0080  178.2540  144.6520 C   0  0  0  0  0  3  0  0  0  0  0  0
  184.3790  178.6580  142.8870 C   0  0  0  0  0  0  0  0  0  0  0  0
  183.3880  178.9240  143.8750 C   0  0  0  0  0  0  0  0  0  0  0  0
  184.9920  177.4430  137.8490 N   0  0  0  0  0  2  0  0  0  0  0  0
  185.6290  178.4530  138.3500 C   0  0  0  0  0  0  0  0  0  0  0  0
  186.9900  178.6360  138.0860 O   0  0  0  0  0  0  0  0  0  0  0  0
  187.9920  177.8000  138.6480 C   0  0  0  0  0  2  0  0  0  0  0  0
  188.6550  178.5180  139.8020 C   0  0  0  0  0  2  0  0  0  0  0  0
  190.7220  176.7470  143.7910 C   0  0  0  0  0  0  0  0  0  0  0  0
  191.6670  177.1170  142.7000 C   0  0  0  0  0  2  0  0  0  0  0  0
  190.8440  177.4060  141.4520 C   0  0  0  0  0  2  0  0  0  0  0  0
  189.0360  176.4030  143.3310 S   0  0  0  0  0  0  0  0  0  0  0  0
  191.0780  176.7280  144.9580 O   0  0  0  0  0  0  0  0  0  0  0  0
  189.3960  177.2500  141.8040 C   0  0  0  0  0  0  0  0  0  0  0  0
  188.4080  177.7670  141.0690 C   0  0  0  0  0  3  0  0  0  0  0  0
  1  2  2  0  0  0  0
  2  8  1  0  0  0  0
  3  6  1  0  0  0  0
  4 13  1  0  0  0  0
  5 11  1  0  0  0  0
  6 14  1  0  0  0  0
  7 12  1  0  0  0  0
  8  4  2  0  0  0  0
  9  4  1  0  0  0  0
  9 10  1  0  0  0  0
 10  3  1  0  0  0  0
 12 11  2  0  0  0  0
 13  7  2  0  0  0  0
 13 14  1  0  0  0  0
 14  5  2  0  0  0  0
 15 16  2  0  0  0  0
 16  2  1  0  0  0  0
 17 16  1  0  0  0  0
 17 18  1  0  0  0  0
 18 19  1  0  0  0  0
 19 26  1  0  0  0  0
 20 24  2  0  0  0  0
 21 20  1  0  0  0  0
 22 25  1  0  0  0  0
 22 21  1  0  0  0  0
 23 20  1  0  0  0  0
 25 23  1  0  0  0  0
 26 25  2  0  0  0  0
M  END
>  <MODEL>
7

>  <REMARK>
 VINA RESULT:      -7.8      2.961      6.624
  Name = 
  6 active torsions:
  status: ('A' for Active; 'I' for Inactive)
    1  A    between atoms: C_3  and  C_13
    2  A    between atoms: C_3  and  C_25
    3  A    between atoms: N_11  and  C_22
    4  A    between atoms: C_13  and  O_23
    5  A    between atoms: C_20  and  C_22
    6  A    between atoms: C_20  and  O_23
                            x       y       z     vdW  Elec       q    Type
                         _______ _______ _______ _____ _____    ______ ____

>  <TORSDO>
F 6

$$$$
=
 OpenBabel11062417013D

 26 28  0  0  0  0  0  0  0  0999 V2000
  190.2080  176.4370  140.3250 O   0  0  0  0  0  0  0  0  0  0  0  0
  189.6730  177.2720  141.1020 C   0  0  0  0  0  0  0  0  0  0  0  0
  186.9320  177.8450  144.7800 C   0  0  0  0  0  2  0  0  0  0  0  0
  189.3050  176.8930  143.4900 C   0  0  0  0  0  0  0  0  0  0  0  0
  189.8420  177.4130  147.2320 C   0  0  0  0  0  3  0  0  0  0  0  0
  187.8450  178.1030  145.9740 C   0  0  0  0  0  2  0  0  0  0  0  0
  191.1950  176.4360  145.0020 C   0  0  0  0  0  3  0  0  0  0  0  0
  190.0490  177.2670  142.4870 N   0  0  0  0  0  0  0  0  0  0  0  0
  187.9850  176.1960  143.2490 C   0  0  0  0  0  2  0  0  0  0  0  0
  186.9680  176.3890  144.3660 C   0  0  0  0  0  2  0  0  0  0  0  0
  191.1340  176.9040  147.3690 C   0  0  0  0  0  3  0  0  0  0  0  0
  191.8110  176.4180  146.2530 C   0  0  0  0  0  3  0  0  0  0  0  0
  189.8910  176.9330  144.8460 C   0  0  0  0  0  0  0  0  0  0  0  0
  189.2010  177.4360  145.9870 C   0  0  0  0  0  0  0  0  0  0  0  0
  188.9710  178.7950  139.3890 N   0  0  0  0  0  2  0  0  0  0  0  0
  188.7450  178.2800  140.5540 C   0  0  0  0  0  0  0  0  0  0  0  0
  187.6470  178.6950  141.3140 O   0  0  0  0  0  0  0  0  0  0  0  0
  186.3450  178.8220  140.7620 C   0  0  0  0  0  2  0  0  0  0  0  0
  185.3200  178.7430  141.8720 C   0  0  0  0  0  2  0  0  0  0  0  0
  180.6080  179.2780  142.7800 C   0  0  0  0  0  0  0  0  0  0  0  0
  181.4780  179.1920  143.9860 C   0  0  0  0  0  2  0  0  0  0  0  0
  182.8680  178.7730  143.5250 C   0  0  0  0  0  2  0  0  0  0  0  0
  181.2360  178.5810  141.2660 S   0  0  0  0  0  0  0  0  0  0  0  0
  179.5280  179.8460  142.8170 O   0  0  0  0  0  0  0  0  0  0  0  0
  182.8440  178.6470  142.0330 C   0  0  0  0  0  0  0  0  0  0  0  0
  183.9500  178.6510  141.2840 C   0  0  0  0  0  3  0  0  0  0  0  0
  1  2  2  0  0  0  0
  2  8  1  0  0  0  0
  3  6  1  0  0  0  0
  4 13  1  0  0  0  0
  5 11  1  0  0  0  0
  6 14  1  0  0  0  0
  7 12  1  0  0  0  0
  8  4  2  0  0  0  0
  9  4  1  0  0  0  0
  9 10  1  0  0  0  0
 10  3  1  0  0  0  0
 12 11  2  0  0  0  0
 13  7  2  0  0  0  0
 13 14  1  0  0  0  0
 14  5  2  0  0  0  0
 15 16  2  0  0  0  0
 16  2  1  0  0  0  0
 16 17  1  0  0  0  0
 18 17  1  0  0  0  0
 18 19  1  0  0  0  0
 20 24  2  0  0  0  0
 20 21  1  0  0  0  0
 22 21  1  0  0  0  0
 23 25  1  0  0  0  0
 23 20  1  0  0  0  0
 25 22  1  0  0  0  0
 26 19  1  0  0  0  0
 26 25  2  0  0  0  0
M  END
>  <MODEL>
8

>  <REMARK>
 VINA RESULT:      -7.7      1.113      2.441
  Name = 
  6 active torsions:
  status: ('A' for Active; 'I' for Inactive)
    1  A    between atoms: C_3  and  C_13
    2  A    between atoms: C_3  and  C_25
    3  A    between atoms: N_11  and  C_22
    4  A    between atoms: C_13  and  O_23
    5  A    between atoms: C_20  and  C_22
    6  A    between atoms: C_20  and  O_23
                            x       y       z     vdW  Elec       q    Type
                         _______ _______ _______ _____ _____    ______ ____

>  <TORSDO>
F 6

$$$$
=
 OpenBabel11062417013D

 26 28  0  0  0  0  0  0  0  0999 V2000
  185.7230  179.0330  140.0100 O   0  0  0  0  0  0  0  0  0  0  0  0
  186.8280  178.6320  140.4630 C   0  0  0  0  0  0  0  0  0  0  0  0
  183.7560  179.6570  143.7610 C   0  0  0  0  0  2  0  0  0  0  0  0
  186.0330  178.2500  142.7440 C   0  0  0  0  0  0  0  0  0  0  0  0
  186.1020  178.4840  146.5520 C   0  0  0  0  0  3  0  0  0  0  0  0
  184.5140  179.6550  145.0850 C   0  0  0  0  0  2  0  0  0  0  0  0
  187.5300  177.3190  144.4640 C   0  0  0  0  0  3  0  0  0  0  0  0
  186.9820  178.4870  141.8830 N   0  0  0  0  0  0  0  0  0  0  0  0
  184.6450  177.8770  142.2740 C   0  0  0  0  0  2  0  0  0  0  0  0
  183.5380  178.2480  143.2510 C   0  0  0  0  0  2  0  0  0  0  0  0
  187.2170  177.6920  146.8270 C   0  0  0  0  0  3  0  0  0  0  0  0
  187.9330  177.1120  145.7830 C   0  0  0  0  0  3  0  0  0  0  0  0
  186.4030  178.1020  144.1670 C   0  0  0  0  0  0  0  0  0  0  0  0
  185.6750  178.7000  145.2360 C   0  0  0  0  0  0  0  0  0  0  0  0
  187.8390  178.6280  138.2890 N   0  0  0  0  0  2  0  0  0  0  0  0
  187.8970  178.2440  139.5240 C   0  0  0  0  0  0  0  0  0  0  0  0
  188.9470  177.4350  139.9670 O   0  0  0  0  0  0  0  0  0  0  0  0
  190.0940  177.1720  139.1710 C   0  0  0  0  0  2  0  0  0  0  0  0
  191.2730  176.8760  140.0710 C   0  0  0  0  0  2  0  0  0  0  0  0
  191.3840  177.2250  144.8860 C   0  0  0  0  0  0  0  0  0  0  0  0
  191.0350  175.8770  144.3580 C   0  0  0  0  0  2  0  0  0  0  0  0
  190.7970  176.0130  142.8600 C   0  0  0  0  0  2  0  0  0  0  0  0
  191.1100  178.6200  143.8130 S   0  0  0  0  0  0  0  0  0  0  0  0
  191.8840  177.3640  145.9900 O   0  0  0  0  0  0  0  0  0  0  0  0
  191.0450  177.4400  142.4790 C   0  0  0  0  0  0  0  0  0  0  0  0
  191.2780  177.8280  141.2210 C   0  0  0  0  0  3  0  0  0  0  0  0
  1  2  2  0  0  0  0
  2  8  1  0  0  0  0
  3  6  1  0  0  0  0
  4 13  1  0  0  0  0
  5 11  1  0  0  0  0
  6 14  1  0  0  0  0
  7 12  1  0  0  0  0
  8  4  2  0  0  0  0
  9  4  1  0  0  0  0
  9 10  1  0  0  0  0
 10  3  1  0  0  0  0
 12 11  2  0  0  0  0
 13  7  2  0  0  0  0
 13 14  1  0  0  0  0
 14  5  2  0  0  0  0
 15 16  2  0  0  0  0
 16 17  1  0  0  0  0
 16  2  1  0  0  0  0
 18 17  1  0  0  0  0
 18 19  1  0  0  0  0
 19 26  1  0  0  0  0
 20 24  2  0  0  0  0
 21 20  1  0  0  0  0
 22 21  1  0  0  0  0
 23 20  1  0  0  0  0
 25 22  1  0  0  0  0
 25 23  1  0  0  0  0
 26 25  2  0  0  0  0
M  END
>  <MODEL>
9

>  <REMARK>
 VINA RESULT:      -7.6      2.693      6.044
  Name = 
  6 active torsions:
  status: ('A' for Active; 'I' for Inactive)
    1  A    between atoms: C_3  and  C_13
    2  A    between atoms: C_3  and  C_25
    3  A    between atoms: N_11  and  C_22
    4  A    between atoms: C_13  and  O_23
    5  A    between atoms: C_20  and  C_22
    6  A    between atoms: C_20  and  O_23
                            x       y       z     vdW  Elec       q    Type
                         _______ _______ _______ _____ _____    ______ ____

>  <TORSDO>
F 6

$$$$
