=
 OpenBabel11062413543D

 25 28  0  0  1  0  0  0  0  0999 V2000
  185.2220  178.5260  146.6380 C   0  0  0  0  0  3  0  0  0  0  0  0
  184.3610  178.5000  144.3620 C   0  0  0  0  0  0  0  0  0  0  0  0
  185.6220  178.0750  143.9120 C   0  0  0  0  0  3  0  0  0  0  0  0
  186.6700  177.8770  144.8140 C   0  0  0  0  0  3  0  0  0  0  0  0
  184.1730  178.7230  145.7360 C   0  0  0  0  0  3  0  0  0  0  0  0
  186.4780  178.1000  146.1800 C   0  0  0  0  0  0  0  0  0  0  0  0
  183.4600  178.6180  142.0250 C   0  0  0  0  0  3  0  0  0  0  0  0
  181.9580  179.0040  143.8570 C   0  0  0  0  0  3  0  0  0  0  0  0
  181.1980  179.0950  141.6070 N   0  0  0  0  0  0  0  0  0  0  0  0
  182.4260  178.8130  141.1660 N   0  0  0  0  0  0  0  0  0  0  0  0
  183.2490  178.7100  143.4060 C   0  0  0  0  0  0  0  0  0  0  0  0
  180.9260  179.1980  142.9360 C   0  0  0  0  0  0  0  0  0  0  0  0
  178.9390  180.4940  142.9110 O   0  0  0  0  0  0  0  0  0  0  0  0
  178.9310  178.6930  144.3710 N   0  0  0  0  0  1  0  0  0  0  0  0
  179.5620  179.5080  143.3880 C   0  0  0  0  0  0  0  0  0  0  0  0
  188.7960  177.5390  146.6850 C   0  0  0  0  0  0  0  0  0  0  0  0
  189.9820  177.1980  146.2610 C   0  0  0  0  0  3  0  0  0  0  0  0
  187.6050  177.8810  147.1000 C   0  0  0  0  0  3  0  0  0  0  0  0
  190.0980  178.0830  143.9510 C   0  0  2  0  0  3  0  0  0  0  0  0
  192.0130  176.7950  143.3370 O   0  0  0  0  0  0  0  0  0  0  0  0
  189.7150  176.4530  142.1830 O   0  0  0  0  0  1  0  0  0  0  0  0
  191.3470  178.0130  143.0920 C   0  0  1  0  0  3  0  0  0  0  0  0
  190.2060  176.8560  144.8270 C   0  0  1  0  0  3  0  0  0  0  0  0
  189.9760  177.8030  142.4510 C   0  0  2  0  0  3  0  0  0  0  0  0
  191.6290  176.4040  144.6270 C   0  0  0  0  0  2  0  0  0  0  0  0
  2  5  1  0  0  0  0
  3  2  2  0  0  0  0
  3  4  1  0  0  0  0
  4  6  2  0  0  0  0
  5  1  2  0  0  0  0
  6  1  1  0  0  0  0
  6 18  1  0  0  0  0
  7 11  1  0  0  0  0
  9 12  2  0  0  0  0
 10  9  1  0  0  0  0
 10  7  2  0  0  0  0
 11  8  2  0  0  0  0
 11  2  1  0  0  0  0
 12 15  1  0  0  0  0
 12  8  1  0  0  0  0
 13 15  2  0  0  0  0
 15 14  1  0  0  0  0
 16 18  2  0  0  0  0
 17 16  2  0  0  0  0
 19 23  1  0  0  0  0
 20 25  1  0  0  0  0
 21 24  1  0  0  0  0
 22 20  1  0  0  0  0
 22 19  1  0  0  0  0
 23 17  1  0  0  0  0
 24 22  1  0  0  0  0
 24 19  1  0  0  0  0
 25 23  1  0  0  0  0
M  END
>  <MODEL>
1

>  <REMARK>
 VINA RESULT:      -9.7      0.000      0.000
  Name = 
  4 active torsions:
  status: ('A' for Active; 'I' for Inactive)
    1  A    between atoms: C_5  and  C_24
    2  A    between atoms: C_9  and  C_13
    3  A    between atoms: C_19  and  C_20
    4  A    between atoms: C_23  and  C_25
                            x       y       z     vdW  Elec       q    Type
                         _______ _______ _______ _____ _____    ______ ____

>  <TORSDO>
F 4

$$$$
=
 OpenBabel11062413543D

 25 28  0  0  1  0  0  0  0  0999 V2000
  184.8070  178.6840  146.5000 C   0  0  0  0  0  3  0  0  0  0  0  0
  184.3930  178.5610  144.1050 C   0  0  0  0  0  0  0  0  0  0  0  0
  185.6870  178.0430  143.9290 C   0  0  0  0  0  3  0  0  0  0  0  0
  186.5300  177.8480  145.0250 C   0  0  0  0  0  3  0  0  0  0  0  0
  183.9620  178.8790  145.4040 C   0  0  0  0  0  3  0  0  0  0  0  0
  186.0980  178.1660  146.3150 C   0  0  0  0  0  0  0  0  0  0  0  0
  182.1130  178.8850  143.1120 C   0  0  0  0  0  3  0  0  0  0  0  0
  184.0120  178.8550  141.6450 C   0  0  0  0  0  3  0  0  0  0  0  0
  181.8120  179.1550  140.7980 N   0  0  0  0  0  0  0  0  0  0  0  0
  181.3110  179.0750  142.0320 N   0  0  0  0  0  0  0  0  0  0  0  0
  183.4970  178.7690  142.9430 C   0  0  0  0  0  0  0  0  0  0  0  0
  183.1480  179.0500  140.5650 C   0  0  0  0  0  0  0  0  0  0  0  0
  184.5030  180.0350  138.8850 O   0  0  0  0  0  0  0  0  0  0  0  0
  183.2310  178.2230  138.1980 N   0  0  0  0  0  1  0  0  0  0  0  0
  183.6680  179.1440  139.1930 C   0  0  0  0  0  0  0  0  0  0  0  0
  188.2740  177.6450  147.2800 C   0  0  0  0  0  0  0  0  0  0  0  0
  189.5320  177.3440  147.1060 C   0  0  0  0  0  3  0  0  0  0  0  0
  187.0140  177.9460  147.4450 C   0  0  0  0  0  3  0  0  0  0  0  0
  189.8470  178.2220  144.8110 C   0  0  2  0  0  3  0  0  0  0  0  0
  192.0640  177.3670  144.5710 O   0  0  0  0  0  0  0  0  0  0  0  0
  190.1160  176.5380  143.0720 O   0  0  0  0  0  1  0  0  0  0  0  0
  191.2100  178.4150  144.1710 C   0  0  1  0  0  3  0  0  0  0  0  0
  190.0610  177.0500  145.7430 C   0  0  1  0  0  3  0  0  0  0  0  0
  190.0400  177.9140  143.3240 C   0  0  2  0  0  3  0  0  0  0  0  0
  191.5590  176.9100  145.7960 C   0  0  0  0  0  2  0  0  0  0  0  0
  2  5  1  0  0  0  0
  3  2  2  0  0  0  0
  3  4  1  0  0  0  0
  4  6  2  0  0  0  0
  5  1  2  0  0  0  0
  6  1  1  0  0  0  0
  6 18  1  0  0  0  0
  8 11  2  0  0  0  0
  9 10  1  0  0  0  0
 10  7  2  0  0  0  0
 11  7  1  0  0  0  0
 11  2  1  0  0  0  0
 12  9  2  0  0  0  0
 12  8  1  0  0  0  0
 13 15  2  0  0  0  0
 14 15  1  0  0  0  0
 15 12  1  0  0  0  0
 16 18  2  0  0  0  0
 17 16  2  0  0  0  0
 19 23  1  0  0  0  0
 20 25  1  0  0  0  0
 21 24  1  0  0  0  0
 22 20  1  0  0  0  0
 22 19  1  0  0  0  0
 23 25  1  0  0  0  0
 23 17  1  0  0  0  0
 24 22  1  0  0  0  0
 24 19  1  0  0  0  0
M  END
>  <MODEL>
2

>  <REMARK>
 VINA RESULT:      -9.6      1.788      2.653
  Name = 
  4 active torsions:
  status: ('A' for Active; 'I' for Inactive)
    1  A    between atoms: C_5  and  C_24
    2  A    between atoms: C_9  and  C_13
    3  A    between atoms: C_19  and  C_20
    4  A    between atoms: C_23  and  C_25
                            x       y       z     vdW  Elec       q    Type
                         _______ _______ _______ _____ _____    ______ ____

>  <TORSDO>
F 4

$$$$
=
 OpenBabel11062413543D

 25 28  0  0  1  0  0  0  0  0999 V2000
  186.2830  177.9630  144.7680 C   0  0  0  0  0  3  0  0  0  0  0  0
  184.1970  178.5750  143.6760 C   0  0  0  0  0  0  0  0  0  0  0  0
  183.6840  178.9710  144.9230 C   0  0  0  0  0  3  0  0  0  0  0  0
  184.4620  178.8640  146.0790 C   0  0  0  0  0  3  0  0  0  0  0  0
  185.5060  178.0700  143.6130 C   0  0  0  0  0  3  0  0  0  0  0  0
  185.7630  178.3610  146.0100 C   0  0  0  0  0  0  0  0  0  0  0  0
  183.9670  178.7370  141.1840 C   0  0  0  0  0  3  0  0  0  0  0  0
  181.9770  178.7490  142.5260 C   0  0  0  0  0  3  0  0  0  0  0  0
  181.8610  178.8980  140.1570 N   0  0  0  0  0  0  0  0  0  0  0  0
  183.1920  178.8400  140.0740 N   0  0  0  0  0  0  0  0  0  0  0  0
  183.3720  178.6890  142.4500 C   0  0  0  0  0  0  0  0  0  0  0  0
  181.2210  178.8560  141.3560 C   0  0  0  0  0  0  0  0  0  0  0  0
  179.1220  179.7490  140.7000 O   0  0  0  0  0  0  0  0  0  0  0  0
  179.0300  178.0460  142.2720 N   0  0  0  0  0  1  0  0  0  0  0  0
  179.7530  178.9220  141.4120 C   0  0  0  0  0  0  0  0  0  0  0  0
  187.8100  177.9100  147.2540 C   0  0  0  0  0  0  0  0  0  0  0  0
  189.0660  177.5560  147.2500 C   0  0  0  0  0  3  0  0  0  0  0  0
  186.5530  178.2630  147.2470 C   0  0  0  0  0  3  0  0  0  0  0  0
  189.7810  178.1750  144.9610 C   0  0  2  0  0  3  0  0  0  0  0  0
  191.8750  177.0330  145.0870 O   0  0  0  0  0  0  0  0  0  0  0  0
  190.0350  176.3200  143.4030 O   0  0  0  0  0  1  0  0  0  0  0  0
  191.2260  178.1380  144.4990 C   0  0  1  0  0  3  0  0  0  0  0  0
  189.7160  177.0750  145.9960 C   0  0  1  0  0  3  0  0  0  0  0  0
  190.1150  177.7120  143.5400 C   0  0  2  0  0  3  0  0  0  0  0  0
  191.1630  176.7550  146.2620 C   0  0  0  0  0  2  0  0  0  0  0  0
  1  6  1  0  0  0  0
  2  3  2  0  0  0  0
  3  4  1  0  0  0  0
  5  2  1  0  0  0  0
  5  1  2  0  0  0  0
  6  4  2  0  0  0  0
  6 18  1  0  0  0  0
  7 11  1  0  0  0  0
  9 12  2  0  0  0  0
 10  9  1  0  0  0  0
 10  7  2  0  0  0  0
 11  8  2  0  0  0  0
 11  2  1  0  0  0  0
 12 15  1  0  0  0  0
 12  8  1  0  0  0  0
 13 15  2  0  0  0  0
 15 14  1  0  0  0  0
 17 16  2  0  0  0  0
 18 16  2  0  0  0  0
 19 23  1  0  0  0  0
 20 25  1  0  0  0  0
 21 24  1  0  0  0  0
 22 19  1  0  0  0  0
 22 20  1  0  0  0  0
 23 25  1  0  0  0  0
 23 17  1  0  0  0  0
 24 22  1  0  0  0  0
 24 19  1  0  0  0  0
M  END
>  <MODEL>
3

>  <REMARK>
 VINA RESULT:      -9.4      1.243      1.669
  Name = 
  4 active torsions:
  status: ('A' for Active; 'I' for Inactive)
    1  A    between atoms: C_5  and  C_24
    2  A    between atoms: C_9  and  C_13
    3  A    between atoms: C_19  and  C_20
    4  A    between atoms: C_23  and  C_25
                            x       y       z     vdW  Elec       q    Type
                         _______ _______ _______ _____ _____    ______ ____

>  <TORSDO>
F 4

$$$$
=
 OpenBabel11062413543D

 25 28  0  0  1  0  0  0  0  0999 V2000
  186.4330  177.8680  144.5340 C   0  0  0  0  0  3  0  0  0  0  0  0
  184.1490  178.5830  144.0970 C   0  0  0  0  0  0  0  0  0  0  0  0
  183.9830  178.8260  145.4700 C   0  0  0  0  0  3  0  0  0  0  0  0
  185.0300  178.5930  146.3650 C   0  0  0  0  0  3  0  0  0  0  0  0
  185.3860  178.1020  143.6390 C   0  0  0  0  0  3  0  0  0  0  0  0
  186.2590  178.1140  145.9050 C   0  0  0  0  0  0  0  0  0  0  0  0
  181.7550  179.1510  143.6070 C   0  0  0  0  0  3  0  0  0  0  0  0
  183.2430  178.7530  141.7650 C   0  0  0  0  0  3  0  0  0  0  0  0
  180.9580  179.2970  141.4020 N   0  0  0  0  0  0  0  0  0  0  0  0
  180.7520  179.3750  142.7190 N   0  0  0  0  0  0  0  0  0  0  0  0
  183.0380  178.8310  143.1470 C   0  0  0  0  0  0  0  0  0  0  0  0
  182.1800  178.9900  140.8900 C   0  0  0  0  0  0  0  0  0  0  0  0
  182.2670  177.8110  138.8330 O   0  0  0  0  0  0  0  0  0  0  0  0
  182.6780  180.0880  138.6900 N   0  0  0  0  0  1  0  0  0  0  0  0
  182.3720  178.9130  139.4340 C   0  0  0  0  0  0  0  0  0  0  0  0
  188.5430  177.5230  146.5180 C   0  0  0  0  0  0  0  0  0  0  0  0
  189.7440  177.1660  146.1490 C   0  0  0  0  0  3  0  0  0  0  0  0
  187.3390  177.8800  146.8760 C   0  0  0  0  0  3  0  0  0  0  0  0
  189.9650  178.0480  143.8450 C   0  0  2  0  0  3  0  0  0  0  0  0
  191.9010  176.7530  143.3180 O   0  0  0  0  0  0  0  0  0  0  0  0
  189.6560  176.4170  142.0630 O   0  0  0  0  0  1  0  0  0  0  0  0
  191.2510  177.9740  143.0430 C   0  0  1  0  0  3  0  0  0  0  0  0
  190.0300  176.8220  144.7260 C   0  0  1  0  0  3  0  0  0  0  0  0
  189.9090  177.7670  142.3410 C   0  0  2  0  0  3  0  0  0  0  0  0
  191.4590  176.3650  144.5900 C   0  0  0  0  0  2  0  0  0  0  0  0
  1  6  1  0  0  0  0
  2  3  2  0  0  0  0
  3  4  1  0  0  0  0
  5  2  1  0  0  0  0
  5  1  2  0  0  0  0
  6  4  2  0  0  0  0
  6 18  1  0  0  0  0
  8 11  2  0  0  0  0
  9 10  1  0  0  0  0
 10  7  2  0  0  0  0
 11  7  1  0  0  0  0
 11  2  1  0  0  0  0
 12  9  2  0  0  0  0
 12  8  1  0  0  0  0
 13 15  2  0  0  0  0
 14 15  1  0  0  0  0
 15 12  1  0  0  0  0
 16 18  2  0  0  0  0
 17 16  2  0  0  0  0
 19 23  1  0  0  0  0
 20 25  1  0  0  0  0
 21 24  1  0  0  0  0
 22 20  1  0  0  0  0
 22 19  1  0  0  0  0
 23 17  1  0  0  0  0
 24 22  1  0  0  0  0
 24 19  1  0  0  0  0
 25 23  1  0  0  0  0
M  END
>  <MODEL>
4

>  <REMARK>
 VINA RESULT:      -9.2      1.510      2.490
  Name = 
  4 active torsions:
  status: ('A' for Active; 'I' for Inactive)
    1  A    between atoms: C_5  and  C_24
    2  A    between atoms: C_9  and  C_13
    3  A    between atoms: C_19  and  C_20
    4  A    between atoms: C_23  and  C_25
                            x       y       z     vdW  Elec       q    Type
                         _______ _______ _______ _____ _____    ______ ____

>  <TORSDO>
F 4

$$$$
=
 OpenBabel11062413543D

 25 28  0  0  1  0  0  0  0  0999 V2000
  185.0120  178.2240  143.7460 C   0  0  0  0  0  3  0  0  0  0  0  0
  186.7050  177.9460  145.4710 C   0  0  0  0  0  0  0  0  0  0  0  0
  185.7680  178.3640  146.4300 C   0  0  0  0  0  3  0  0  0  0  0  0
  184.4680  178.7080  146.0520 C   0  0  0  0  0  3  0  0  0  0  0  0
  186.3120  177.8790  144.1240 C   0  0  0  0  0  3  0  0  0  0  0  0
  184.0810  178.6400  144.7110 C   0  0  0  0  0  0  0  0  0  0  0  0
  188.4200  177.4040  147.2190 C   0  0  0  0  0  3  0  0  0  0  0  0
  189.0880  177.4010  144.9140 C   0  0  0  0  0  3  0  0  0  0  0  0
  190.6410  176.9010  146.6420 N   0  0  0  0  0  0  0  0  0  0  0  0
  189.6900  177.0690  147.5640 N   0  0  0  0  0  0  0  0  0  0  0  0
  188.0850  177.5810  145.8720 C   0  0  0  0  0  0  0  0  0  0  0  0
  190.3810  177.0580  145.3160 C   0  0  0  0  0  0  0  0  0  0  0  0
  192.0150  177.8570  143.7930 O   0  0  0  0  0  0  0  0  0  0  0  0
  191.8600  175.5490  143.9630 N   0  0  0  0  0  1  0  0  0  0  0  0
  191.4510  176.8650  144.3260 C   0  0  0  0  0  0  0  0  0  0  0  0
  182.2540  178.9400  143.1260 C   0  0  0  0  0  0  0  0  0  0  0  0
  181.8140  178.8660  141.8990 C   0  0  0  0  0  3  0  0  0  0  0  0
  182.7040  179.0100  144.3500 C   0  0  0  0  0  3  0  0  0  0  0  0
  182.2430  179.1380  139.4740 C   0  0  2  0  0  3  0  0  0  0  0  0
  184.5770  179.5740  139.7290 O   0  0  0  0  0  0  0  0  0  0  0  0
  183.7140  177.4730  138.4770 O   0  0  0  0  0  1  0  0  0  0  0  0
  183.4600  179.8530  138.9170 C   0  0  1  0  0  3  0  0  0  0  0  0
  182.7450  178.5550  140.7760 C   0  0  1  0  0  3  0  0  0  0  0  0
  182.9290  178.6040  138.2150 C   0  0  2  0  0  3  0  0  0  0  0  0
  184.0600  179.2570  140.9930 C   0  0  0  0  0  2  0  0  0  0  0  0
  1  5  2  0  0  0  0
  1  6  1  0  0  0  0
  2 11  1  0  0  0  0
  2  3  2  0  0  0  0
  4  3  1  0  0  0  0
  5  2  1  0  0  0  0
  6  4  2  0  0  0  0
  7 10  1  0  0  0  0
  8 12  2  0  0  0  0
  8 11  1  0  0  0  0
  9 10  2  0  0  0  0
 11  7  2  0  0  0  0
 12  9  1  0  0  0  0
 13 15  2  0  0  0  0
 14 15  1  0  0  0  0
 15 12  1  0  0  0  0
 16 18  2  0  0  0  0
 17 16  2  0  0  0  0
 18  6  1  0  0  0  0
 19 23  1  0  0  0  0
 20 25  1  0  0  0  0
 22 19  1  0  0  0  0
 22 20  1  0  0  0  0
 23 25  1  0  0  0  0
 23 17  1  0  0  0  0
 24 21  1  0  0  0  0
 24 22  1  0  0  0  0
 24 19  1  0  0  0  0
M  END
>  <MODEL>
5

>  <REMARK>
 VINA RESULT:      -9.0      4.229      8.241
  Name = 
  4 active torsions:
  status: ('A' for Active; 'I' for Inactive)
    1  A    between atoms: C_5  and  C_24
    2  A    between atoms: C_9  and  C_13
    3  A    between atoms: C_19  and  C_20
    4  A    between atoms: C_23  and  C_25
                            x       y       z     vdW  Elec       q    Type
                         _______ _______ _______ _____ _____    ______ ____

>  <TORSDO>
F 4

$$$$
=
 OpenBabel11062413543D

 25 28  0  0  1  0  0  0  0  0999 V2000
  185.8330  178.4950  146.3060 C   0  0  0  0  0  3  0  0  0  0  0  0
  187.7520  177.6170  145.0960 C   0  0  0  0  0  0  0  0  0  0  0  0
  187.0040  177.6710  143.9080 C   0  0  0  0  0  3  0  0  0  0  0  0
  185.6850  178.1320  143.9190 C   0  0  0  0  0  3  0  0  0  0  0  0
  187.1510  178.0340  146.2950 C   0  0  0  0  0  3  0  0  0  0  0  0
  185.0920  178.5460  145.1150 C   0  0  0  0  0  0  0  0  0  0  0  0
  189.7840  176.7830  143.8850 C   0  0  0  0  0  3  0  0  0  0  0  0
  189.8780  176.9990  146.2730 C   0  0  0  0  0  3  0  0  0  0  0  0
  191.7510  176.2180  145.0370 N   0  0  0  0  0  0  0  0  0  0  0  0
  191.0670  176.3380  143.8970 N   0  0  0  0  0  0  0  0  0  0  0  0
  189.1520  177.1280  145.0850 C   0  0  0  0  0  0  0  0  0  0  0  0
  191.1950  176.5360  146.2370 C   0  0  0  0  0  0  0  0  0  0  0  0
  191.9180  177.2730  148.3730 O   0  0  0  0  0  0  0  0  0  0  0  0
  192.8070  175.2510  147.6670 N   0  0  0  0  0  1  0  0  0  0  0  0
  191.9770  176.3920  147.4740 C   0  0  0  0  0  0  0  0  0  0  0  0
  182.9340  178.9000  144.0380 C   0  0  0  0  0  0  0  0  0  0  0  0
  182.1750  178.7690  142.9840 C   0  0  0  0  0  3  0  0  0  0  0  0
  183.7010  179.0260  145.0870 C   0  0  0  0  0  3  0  0  0  0  0  0
  181.8070  178.5550  140.5440 C   0  0  2  0  0  3  0  0  0  0  0  0
  184.0520  179.1170  139.9520 O   0  0  0  0  0  0  0  0  0  0  0  0
  183.0560  176.7750  139.4470 O   0  0  0  0  0  1  0  0  0  0  0  0
  182.7170  179.1850  139.5040 C   0  0  1  0  0  3  0  0  0  0  0  0
  182.7400  178.2690  141.6980 C   0  0  1  0  0  3  0  0  0  0  0  0
  182.1220  177.8000  139.2500 C   0  0  2  0  0  3  0  0  0  0  0  0
  183.9820  179.0460  141.3500 C   0  0  0  0  0  2  0  0  0  0  0  0
  2  5  2  0  0  0  0
  3  4  2  0  0  0  0
  3  2  1  0  0  0  0
  4  6  1  0  0  0  0
  5  1  1  0  0  0  0
  6  1  2  0  0  0  0
  7 10  2  0  0  0  0
  7 11  1  0  0  0  0
  9 12  2  0  0  0  0
 10  9  1  0  0  0  0
 11  2  1  0  0  0  0
 11  8  2  0  0  0  0
 12  8  1  0  0  0  0
 12 15  1  0  0  0  0
 15 14  1  0  0  0  0
 15 13  2  0  0  0  0
 16 18  2  0  0  0  0
 17 16  2  0  0  0  0
 18  6  1  0  0  0  0
 19 23  1  0  0  0  0
 20 25  1  0  0  0  0
 22 20  1  0  0  0  0
 22 19  1  0  0  0  0
 23 17  1  0  0  0  0
 24 21  1  0  0  0  0
 24 22  1  0  0  0  0
 24 19  1  0  0  0  0
 25 23  1  0  0  0  0
M  END
>  <MODEL>
6

>  <REMARK>
 VINA RESULT:      -8.9      4.498      8.467
  Name = 
  4 active torsions:
  status: ('A' for Active; 'I' for Inactive)
    1  A    between atoms: C_5  and  C_24
    2  A    between atoms: C_9  and  C_13
    3  A    between atoms: C_19  and  C_20
    4  A    between atoms: C_23  and  C_25
                            x       y       z     vdW  Elec       q    Type
                         _______ _______ _______ _____ _____    ______ ____

>  <TORSDO>
F 4

$$$$
=
 OpenBabel11062413543D

 25 28  0  0  1  0  0  0  0  0999 V2000
  185.4900  178.4030  143.7790 C   0  0  0  0  0  3  0  0  0  0  0  0
  187.5750  177.8710  144.9140 C   0  0  0  0  0  0  0  0  0  0  0  0
  186.8990  177.9340  146.1440 C   0  0  0  0  0  3  0  0  0  0  0  0
  185.5340  178.2280  146.1900 C   0  0  0  0  0  3  0  0  0  0  0  0
  186.8540  178.1080  143.7320 C   0  0  0  0  0  3  0  0  0  0  0  0
  184.8210  178.4630  145.0120 C   0  0  0  0  0  0  0  0  0  0  0  0
  189.7480  177.6920  143.6740 C   0  0  0  0  0  3  0  0  0  0  0  0
  189.7050  177.1250  146.0060 C   0  0  0  0  0  3  0  0  0  0  0  0
  191.7160  176.9870  144.7460 N   0  0  0  0  0  0  0  0  0  0  0  0
  191.0750  177.4020  143.6510 N   0  0  0  0  0  0  0  0  0  0  0  0
  189.0230  177.5590  144.8640 C   0  0  0  0  0  0  0  0  0  0  0  0
  191.0700  176.8370  145.9340 C   0  0  0  0  0  0  0  0  0  0  0  0
  191.9240  177.1270  148.1280 O   0  0  0  0  0  0  0  0  0  0  0  0
  192.3920  175.0810  147.1430 N   0  0  0  0  0  1  0  0  0  0  0  0
  191.8060  176.3790  147.1210 C   0  0  0  0  0  0  0  0  0  0  0  0
  182.6470  178.9900  144.0450 C   0  0  0  0  0  0  0  0  0  0  0  0
  181.9170  179.2100  142.9850 C   0  0  0  0  0  3  0  0  0  0  0  0
  183.3850  178.7690  145.1000 C   0  0  0  0  0  3  0  0  0  0  0  0
  183.6080  178.2580  141.4460 C   0  0  2  0  0  3  0  0  0  0  0  0
  182.2210  178.4020  139.5070 O   0  0  0  0  0  0  0  0  0  0  0  0
  184.4170  179.7670  139.7140 O   0  0  0  0  0  1  0  0  0  0  0  0
  183.2640  177.6580  140.0950 C   0  0  1  0  0  3  0  0  0  0  0  0
  182.5480  179.3190  141.6380 C   0  0  1  0  0  3  0  0  0  0  0  0
  184.5420  178.4800  140.2530 C   0  0  2  0  0  3  0  0  0  0  0  0
  181.5330  179.0010  140.5720 C   0  0  0  0  0  2  0  0  0  0  0  0
  1  6  1  0  0  0  0
  2  3  2  0  0  0  0
  3  4  1  0  0  0  0
  5  1  2  0  0  0  0
  5  2  1  0  0  0  0
  6 18  1  0  0  0  0
  6  4  2  0  0  0  0
  7 11  1  0  0  0  0
  9 12  2  0  0  0  0
 10  7  2  0  0  0  0
 10  9  1  0  0  0  0
 11  2  1  0  0  0  0
 11  8  2  0  0  0  0
 12  8  1  0  0  0  0
 12 15  1  0  0  0  0
 15 14  1  0  0  0  0
 15 13  2  0  0  0  0
 16 18  2  0  0  0  0
 17 16  2  0  0  0  0
 19 23  1  0  0  0  0
 20 22  1  0  0  0  0
 20 25  1  0  0  0  0
 21 24  1  0  0  0  0
 22 24  1  0  0  0  0
 22 19  1  0  0  0  0
 23 17  1  0  0  0  0
 24 19  1  0  0  0  0
 25 23  1  0  0  0  0
M  END
>  <MODEL>
7

>  <REMARK>
 VINA RESULT:      -8.8      4.272      8.406
  Name = 
  4 active torsions:
  status: ('A' for Active; 'I' for Inactive)
    1  A    between atoms: C_5  and  C_24
    2  A    between atoms: C_9  and  C_13
    3  A    between atoms: C_19  and  C_20
    4  A    between atoms: C_23  and  C_25
                            x       y       z     vdW  Elec       q    Type
                         _______ _______ _______ _____ _____    ______ ____

>  <TORSDO>
F 4

$$$$
=
 OpenBabel11062413543D

 25 28  0  0  1  0  0  0  0  0999 V2000
  188.8260  176.4010  142.8890 C   0  0  0  0  0  3  0  0  0  0  0  0
  186.9140  177.8840  143.1460 C   0  0  0  0  0  0  0  0  0  0  0  0
  187.3310  178.5880  142.0030 C   0  0  0  0  0  3  0  0  0  0  0  0
  188.4810  178.2010  141.3110 C   0  0  0  0  0  3  0  0  0  0  0  0
  187.6750  176.7870  143.5800 C   0  0  0  0  0  3  0  0  0  0  0  0
  189.2350  177.1090  141.7470 C   0  0  0  0  0  0  0  0  0  0  0  0
  185.7440  178.6060  145.2440 C   0  0  0  0  0  3  0  0  0  0  0  0
  184.4580  178.3790  143.2300 C   0  0  0  0  0  3  0  0  0  0  0  0
  183.4380  179.0570  145.2670 N   0  0  0  0  0  0  0  0  0  0  0  0
  184.6130  178.9790  145.8970 N   0  0  0  0  0  0  0  0  0  0  0  0
  185.6930  178.2930  143.8800 C   0  0  0  0  0  0  0  0  0  0  0  0
  183.3210  178.7660  143.9430 C   0  0  0  0  0  0  0  0  0  0  0  0
  181.9380  179.0560  142.0370 O   0  0  0  0  0  0  0  0  0  0  0  0
  180.8140  178.7370  144.0400 N   0  0  0  0  0  1  0  0  0  0  0  0
  182.0130  178.8630  143.2800 C   0  0  0  0  0  0  0  0  0  0  0  0
  190.5270  176.8580  139.6960 C   0  0  0  0  0  0  0  0  0  0  0  0
  190.6040  176.9890  138.3990 C   0  0  0  0  0  3  0  0  0  0  0  0
  190.4400  176.7320  140.9930 C   0  0  0  0  0  3  0  0  0  0  0  0
  188.1700  176.6520  138.0860 C   0  0  2  0  0  3  0  0  0  0  0  0
  187.6880  178.9660  137.7470 O   0  0  0  0  0  0  0  0  0  0  0  0
  187.3100  177.2090  135.8770 O   0  0  0  0  0  1  0  0  0  0  0  0
  187.1470  177.7620  138.2420 C   0  0  1  0  0  3  0  0  0  0  0  0
  189.4050  177.3790  137.6030 C   0  0  1  0  0  3  0  0  0  0  0  0
  186.9660  176.7160  137.1420 C   0  0  2  0  0  3  0  0  0  0  0  0
  189.0790  178.8290  137.8480 C   0  0  0  0  0  2  0  0  0  0  0  0
  1  5  1  0  0  0  0
  2  5  2  0  0  0  0
  2 11  1  0  0  0  0
  3  2  1  0  0  0  0
  4  6  1  0  0  0  0
  4  3  2  0  0  0  0
  6  1  2  0  0  0  0
  7 10  1  0  0  0  0
  8 11  1  0  0  0  0
  8 12  2  0  0  0  0
  9 10  2  0  0  0  0
 11  7  2  0  0  0  0
 12  9  1  0  0  0  0
 13 15  2  0  0  0  0
 15 12  1  0  0  0  0
 15 14  1  0  0  0  0
 16 18  2  0  0  0  0
 17 16  2  0  0  0  0
 18  6  1  0  0  0  0
 19 22  1  0  0  0  0
 20 25  1  0  0  0  0
 20 22  1  0  0  0  0
 21 24  1  0  0  0  0
 23 25  1  0  0  0  0
 23 19  1  0  0  0  0
 23 17  1  0  0  0  0
 24 19  1  0  0  0  0
 24 22  1  0  0  0  0
M  END
>  <MODEL>
8

>  <REMARK>
 VINA RESULT:      -8.5      3.614      5.322
  Name = 
  4 active torsions:
  status: ('A' for Active; 'I' for Inactive)
    1  A    between atoms: C_5  and  C_24
    2  A    between atoms: C_9  and  C_13
    3  A    between atoms: C_19  and  C_20
    4  A    between atoms: C_23  and  C_25
                            x       y       z     vdW  Elec       q    Type
                         _______ _______ _______ _____ _____    ______ ____

>  <TORSDO>
F 4

$$$$
=
 OpenBabel11062413543D

 25 28  0  0  1  0  0  0  0  0999 V2000
  188.6100  176.5160  143.6640 C   0  0  0  0  0  3  0  0  0  0  0  0
  188.6470  177.3910  141.3950 C   0  0  0  0  0  0  0  0  0  0  0  0
  187.5440  178.2010  141.7100 C   0  0  0  0  0  3  0  0  0  0  0  0
  186.9810  178.1690  142.9890 C   0  0  0  0  0  3  0  0  0  0  0  0
  189.1740  176.5480  142.3870 C   0  0  0  0  0  3  0  0  0  0  0  0
  187.5090  177.3290  143.9720 C   0  0  0  0  0  0  0  0  0  0  0  0
  188.7170  178.2510  139.0390 C   0  0  0  0  0  3  0  0  0  0  0  0
  190.3540  176.6340  139.7220 C   0  0  0  0  0  3  0  0  0  0  0  0
  190.3390  177.5070  137.5120 N   0  0  0  0  0  0  0  0  0  0  0  0
  189.2810  178.2670  137.8040 N   0  0  0  0  0  0  0  0  0  0  0  0
  189.2450  177.4250  140.0390 C   0  0  0  0  0  0  0  0  0  0  0  0
  190.9000  176.6830  138.4370 C   0  0  0  0  0  0  0  0  0  0  0  0
  191.9490  174.6130  137.9440 O   0  0  0  0  0  0  0  0  0  0  0  0
  193.3390  176.4680  137.8900 N   0  0  0  0  0  1  0  0  0  0  0  0
  192.0650  175.8600  138.0820 C   0  0  0  0  0  0  0  0  0  0  0  0
  187.5870  177.4260  146.4060 C   0  0  0  0  0  0  0  0  0  0  0  0
  188.2920  177.5310  147.5000 C   0  0  0  0  0  3  0  0  0  0  0  0
  186.8900  177.3220  145.3070 C   0  0  0  0  0  3  0  0  0  0  0  0
  190.2920  176.0930  147.2290 C   0  0  2  0  0  3  0  0  0  0  0  0
  191.4480  177.6210  145.8030 O   0  0  0  0  0  0  0  0  0  0  0  0
  192.3610  176.9900  148.1480 O   0  0  0  0  0  1  0  0  0  0  0  0
  191.2860  176.2510  146.0930 C   0  0  1  0  0  3  0  0  0  0  0  0
  189.7830  177.5000  147.4470 C   0  0  1  0  0  3  0  0  0  0  0  0
  191.7860  175.8940  147.4920 C   0  0  2  0  0  3  0  0  0  0  0  0
  190.2660  178.2430  146.2290 C   0  0  0  0  0  2  0  0  0  0  0  0
  1  6  1  0  0  0  0
  2  3  2  0  0  0  0
  2  5  1  0  0  0  0
  3  4  1  0  0  0  0
  4  6  2  0  0  0  0
  5  1  2  0  0  0  0
  6 18  1  0  0  0  0
  7 11  1  0  0  0  0
  8 11  2  0  0  0  0
  9 10  1  0  0  0  0
  9 12  2  0  0  0  0
 10  7  2  0  0  0  0
 11  2  1  0  0  0  0
 12  8  1  0  0  0  0
 13 15  2  0  0  0  0
 14 15  1  0  0  0  0
 15 12  1  0  0  0  0
 16 17  2  0  0  0  0
 18 16  2  0  0  0  0
 19 23  1  0  0  0  0
 19 24  1  0  0  0  0
 20 22  1  0  0  0  0
 20 25  1  0  0  0  0
 22 19  1  0  0  0  0
 22 24  1  0  0  0  0
 23 17  1  0  0  0  0
 24 21  1  0  0  0  0
 25 23  1  0  0  0  0
M  END
>  <MODEL>
9

>  <REMARK>
 VINA RESULT:      -8.4      5.246      7.467
  Name = 
  4 active torsions:
  status: ('A' for Active; 'I' for Inactive)
    1  A    between atoms: C_5  and  C_24
    2  A    between atoms: C_9  and  C_13
    3  A    between atoms: C_19  and  C_20
    4  A    between atoms: C_23  and  C_25
                            x       y       z     vdW  Elec       q    Type
                         _______ _______ _______ _____ _____    ______ ____

>  <TORSDO>
F 4

$$$$
