=
 OpenBabel11062414593D

 51 53  0  0  1  0  0  0  0  0999 V2000
  185.0350  180.1540  144.6570 C   0  0  0  0  0  1  0  0  0  0  0  0
  184.6750  178.7830  144.0990 C   0  0  1  0  0  3  0  0  0  0  0  0
  183.4930  177.9670  141.9890 C   0  0  0  0  0  2  0  0  0  0  0  0
  183.4220  178.8790  143.2140 C   0  0  1  0  0  3  0  0  0  0  0  0
  179.8490  178.8150  143.3620 O   0  0  0  0  0  0  0  0  0  0  0  0
  180.4730  179.2430  142.1740 C   0  0  1  0  0  3  0  0  0  0  0  0
  181.0370  179.5540  143.5260 C   0  0  2  0  0  3  0  0  0  0  0  0
  181.0430  178.0270  141.4440 C   0  0  2  0  0  3  0  0  0  0  0  0
  182.4580  178.3310  140.9280 C   0  0  2  0  0  3  0  0  0  0  0  0
  182.1490  178.6320  144.0130 C   0  0  0  0  0  2  0  0  0  0  0  0
  180.1770  177.6980  140.3980 O   0  0  0  0  0  1  0  0  0  0  0  0
  182.7800  177.5630  139.6470 C   0  0  0  0  0  2  0  0  0  0  0  0
  183.3150  178.4890  138.5610 C   0  0  1  0  0  3  0  0  0  0  0  0
  184.6140  177.9700  138.0250 C   0  0  0  0  0  0  0  0  0  0  0  0
  185.5960  178.6980  137.9600 O   0  0  0  0  0  0  0  0  0  0  0  0
  184.6960  176.5600  137.5460 C   0  0  0  0  0  2  0  0  0  0  0  0
  186.0390  176.3050  136.8850 C   0  0  0  0  0  2  0  0  0  0  0  0
  185.8500  175.5570  135.7230 O   0  0  0  0  0  0  0  0  0  0  0  0
  186.9940  174.7630  135.6220 C   0  0  0  0  0  1  0  0  0  0  0  0
  182.2930  178.6580  137.4450 C   0  0  0  0  0  2  0  0  0  0  0  0
  181.2130  179.5210  137.8920 N   0  0  0  0  0  2  0  0  0  0  0  0
  181.8010  180.8140  138.1870 C   0  0  0  0  0  2  0  0  0  0  0  0
  180.7060  181.8580  138.2390 C   0  0  0  0  0  2  0  0  0  0  0  0
  180.5290  183.0460  136.0880 C   0  0  0  0  0  2  0  0  0  0  0  0
  179.9170  183.9290  137.1560 C   0  0  0  0  0  2  0  0  0  0  0  0
  181.1410  183.0900  137.4750 C   0  0  0  0  0  3  0  0  0  0  0  0
  186.2700  178.4310  142.2970 C   0  0  0  0  0  0  0  0  0  0  0  0
  186.7180  177.1220  144.2590 C   0  0  0  0  0  1  0  0  0  0  0  0
  185.8830  178.0990  143.5000 C   0  0  0  0  0  0  0  0  0  0  0  0
  186.6460  178.7630  141.0940 C   0  0  0  0  0  3  0  0  0  0  0  0
  188.0900  178.9040  140.7580 C   0  0  0  0  0  2  0  0  0  0  0  0
  188.8610  178.0930  141.5930 O   0  0  0  0  0  0  0  0  0  0  0  0
  189.8670  177.5880  140.7650 C   0  0  2  0  0  3  0  0  0  0  0  0
  189.3290  176.4000  139.9730 C   0  0  0  0  0  2  0  0  0  0  0  0
  189.8600  176.3500  138.5330 C   0  0  1  0  0  3  0  0  0  0  0  0
  190.2530  177.7330  138.0250 C   0  0  0  0  0  2  0  0  0  0  0  0
  189.1690  178.3340  137.1910 C   0  0  0  0  0  3  0  0  0  0  0  0
  188.8690  179.5090  137.3150 O   0  0  0  0  0  0  0  0  0  0  0  0
  190.9990  175.4480  138.4210 N   0  0  0  0  0  2  0  0  0  0  0  0
  192.9000  175.3210  136.9290 C   0  0  0  0  0  1  0  0  0  0  0  0
  192.1040  176.2070  137.8600 C   0  0  0  0  0  2  0  0  0  0  0  0
  191.0640  177.1560  141.6070 C   0  0  0  0  0  2  0  0  0  0  0  0
  190.6300  176.3280  142.8120 C   0  0  0  0  0  2  0  0  0  0  0  0
  190.7260  178.2420  144.2240 O   0  0  0  0  0  0  0  0  0  0  0  0
  190.9630  177.0090  144.0990 C   0  0  0  0  0  0  0  0  0  0  0  0
  191.5070  176.2730  145.1550 O   0  0  0  0  0  0  0  0  0  0  0  0
  191.5380  176.7690  146.4840 C   0  0  0  0  0  2  0  0  0  0  0  0
  189.2890  177.1850  147.5380 C   0  0  0  0  0  0  0  0  0  0  0  0
  190.3620  176.3060  147.2000 N   0  0  0  0  0  2  0  0  0  0  0  0
  189.3250  178.3980  147.2090 O   0  0  0  0  0  0  0  0  0  0  0  0
  188.1770  176.6920  148.2710 N   0  0  0  0  0  1  0  0  0  0  0  0
  2  1  1  6  0  0  0
  3  4  1  0  0  0  0
  4 10  1  0  0  0  0
  4  2  1  1  0  0  0
  5  7  1  0  0  0  0
  6  5  1  1  0  0  0
  6  7  1  0  0  0  0
  7 10  1  6  0  0  0
  8 11  1  6  0  0  0
  8  6  1  0  0  0  0
  9 12  1  6  0  0  0
  9  8  1  0  0  0  0
  9  3  1  0  0  0  0
 13 20  1  6  0  0  0
 13 12  1  0  0  0  0
 14 13  1  0  0  0  0
 15 14  2  0  0  0  0
 16 14  1  0  0  0  0
 17 16  1  0  0  0  0
 18 17  1  0  0  0  0
 19 18  1  0  0  0  0
 20 21  1  0  0  0  0
 21 22  1  0  0  0  0
 22 23  1  0  0  0  0
 24 25  1  0  0  0  0
 24 26  1  0  0  0  0
 25 26  1  0  0  0  0
 26 23  1  0  0  0  0
 27 29  2  0  0  0  0
 29  2  1  0  0  0  0
 29 28  1  0  0  0  0
 30 27  2  0  0  0  0
 31 30  1  0  0  0  0
 31 32  1  0  0  0  0
 33 34  1  1  0  0  0
 33 32  1  0  0  0  0
 33 42  1  0  0  0  0
 35 36  1  1  0  0  0
 35 34  1  0  0  0  0
 37 38  2  0  0  0  0
 37 36  1  0  0  0  0
 39 35  1  0  0  0  0
 40 41  1  0  0  0  0
 41 39  1  0  0  0  0
 42 43  1  0  0  0  0
 43 45  1  0  0  0  0
 45 44  2  0  0  0  0
 45 46  1  0  0  0  0
 46 47  1  0  0  0  0
 47 49  1  0  0  0  0
 48 51  1  0  0  0  0
 49 48  1  0  0  0  0
 50 48  2  0  0  0  0
M  END
>  <MODEL>
1

>  <REMARK>
 VINA RESULT:      -5.7      0.000      0.000
  Name = 
  28 active torsions:
  status: ('A' for Active; 'I' for Inactive)
    1  A    between atoms: C_2  and  C_38
    2  A    between atoms: C_3  and  O_7
    3  A    between atoms: C_3  and  C_33
    4  A    between atoms: C_4  and  C_33
    5  A    between atoms: C_4  and  C_39
    6  A    between atoms: N_5  and  C_47
    7  A    between atoms: N_5  and  C_48
    8  A    between atoms: N_9  and  C_15
    9  A    between atoms: C_13  and  C_24
   10  A    between atoms: C_13  and  C_47
   11  A    between atoms: C_15  and  O_36
   12  A    between atoms: C_18  and  O_36
   13  A    between atoms: C_18  and  C_45
   14  A    between atoms: C_19  and  C_51
   15  A    between atoms: C_21  and  C_23
   16  A    between atoms: C_21  and  C_43
   17  A    between atoms: C_22  and  C_28
   18  A    between atoms: C_22  and  O_30
   19  A    between atoms: C_22  and  C_40
   20  A    between atoms: C_23  and  N_49
   21  A    between atoms: C_28  and  C_45
   22  A    between atoms: C_29  and  O_30
   23  A    between atoms: C_29  and  C_50
   24  A    between atoms: C_34  and  C_38
   25  A    between atoms: C_39  and  C_44
   26  A    between atoms: C_39  and  C_51
   27  A    between atoms: C_40  and  C_47
   28  A    between atoms: C_44  and  N_49
                            x       y       z     vdW  Elec       q    Type
                         _______ _______ _______ _____ _____    ______ ____

>  <TORSDO>
F 28

$$$$
=
 OpenBabel11062414593D

 51 53  0  0  1  0  0  0  0  0999 V2000
  186.5790  177.5450  135.9570 C   0  0  0  0  0  1  0  0  0  0  0  0
  185.6540  177.8750  137.1210 C   0  0  1  0  0  3  0  0  0  0  0  0
  183.1500  177.6260  136.6930 C   0  0  0  0  0  2  0  0  0  0  0  0
  184.4410  176.9310  137.1250 C   0  0  1  0  0  3  0  0  0  0  0  0
  183.3710  173.7060  136.0080 O   0  0  0  0  0  0  0  0  0  0  0  0
  182.5750  174.4020  136.9390 C   0  0  1  0  0  3  0  0  0  0  0  0
  184.0710  174.4650  136.9660 C   0  0  2  0  0  3  0  0  0  0  0  0
  181.8430  175.5350  136.2200 C   0  0  2  0  0  3  0  0  0  0  0  0
  181.9040  176.8230  137.0560 C   0  0  2  0  0  3  0  0  0  0  0  0
  184.7000  175.6810  136.2930 C   0  0  0  0  0  2  0  0  0  0  0  0
  180.5240  175.1320  135.9970 O   0  0  0  0  0  1  0  0  0  0  0  0
  180.6740  177.7050  136.8440 C   0  0  0  0  0  2  0  0  0  0  0  0
  180.4420  178.6330  138.0300 C   0  0  1  0  0  3  0  0  0  0  0  0
  179.5780  179.7890  137.6270 C   0  0  0  0  0  0  0  0  0  0  0  0
  179.0650  180.5080  138.4750 O   0  0  0  0  0  0  0  0  0  0  0  0
  179.3250  180.0430  136.1790 C   0  0  0  0  0  2  0  0  0  0  0  0
  180.1080  181.2580  135.7130 C   0  0  0  0  0  2  0  0  0  0  0  0
  179.4110  182.4170  136.0540 O   0  0  0  0  0  0  0  0  0  0  0  0
  180.4030  183.3750  136.2730 C   0  0  0  0  0  1  0  0  0  0  0  0
  179.8280  177.8740  139.1980 C   0  0  0  0  0  2  0  0  0  0  0  0
  180.8610  177.5330  140.1620 N   0  0  0  0  0  2  0  0  0  0  0  0
  181.3940  178.7840  140.6670 C   0  0  0  0  0  2  0  0  0  0  0  0
  181.6490  178.6510  142.1540 C   0  0  0  0  0  2  0  0  0  0  0  0
  179.4070  178.8400  143.1570 C   0  0  0  0  0  2  0  0  0  0  0  0
  180.4250  178.9570  144.2730 C   0  0  0  0  0  2  0  0  0  0  0  0
  180.7160  179.5680  142.9140 C   0  0  0  0  0  3  0  0  0  0  0  0
  185.8040  178.4190  139.4870 C   0  0  0  0  0  0  0  0  0  0  0  0
  187.8490  177.5780  138.5540 C   0  0  0  0  0  1  0  0  0  0  0  0
  186.4240  178.0010  138.4160 C   0  0  0  0  0  0  0  0  0  0  0  0
  185.1780  178.8430  140.5500 C   0  0  0  0  0  3  0  0  0  0  0  0
  185.4380  178.2310  141.8820 C   0  0  0  0  0  2  0  0  0  0  0  0
  186.7020  178.6030  142.3450 O   0  0  0  0  0  0  0  0  0  0  0  0
  187.1690  177.4820  143.0360 C   0  0  2  0  0  3  0  0  0  0  0  0
  186.3530  177.2900  144.3110 C   0  0  0  0  0  2  0  0  0  0  0  0
  186.7980  178.2160  145.4520 C   0  0  1  0  0  3  0  0  0  0  0  0
  185.7320  179.2530  145.7900 C   0  0  0  0  0  2  0  0  0  0  0  0
  184.4040  178.8720  145.2220 C   0  0  0  0  0  3  0  0  0  0  0  0
  183.3770  179.0890  145.8440 O   0  0  0  0  0  0  0  0  0  0  0  0
  187.1330  177.4550  146.6490 N   0  0  0  0  0  2  0  0  0  0  0  0
  188.7520  177.9000  148.3920 C   0  0  0  0  0  1  0  0  0  0  0  0
  188.5480  177.6580  146.9140 C   0  0  0  0  0  2  0  0  0  0  0  0
  188.6440  177.6630  143.3820 C   0  0  0  0  0  2  0  0  0  0  0  0
  189.5470  177.0690  142.3060 C   0  0  0  0  0  2  0  0  0  0  0  0
  191.7690  177.4900  141.5640 O   0  0  0  0  0  0  0  0  0  0  0  0
  190.9850  177.3950  142.5480 C   0  0  0  0  0  0  0  0  0  0  0  0
  191.4380  177.6160  143.8510 O   0  0  0  0  0  0  0  0  0  0  0  0
  191.4910  176.5790  144.8180 C   0  0  0  0  0  2  0  0  0  0  0  0
  191.9390  176.3390  147.2840 C   0  0  0  0  0  0  0  0  0  0  0  0
  191.8980  177.1320  146.0980 N   0  0  0  0  0  2  0  0  0  0  0  0
  191.6330  175.1200  147.2520 O   0  0  0  0  0  0  0  0  0  0  0  0
  192.3100  176.9340  148.5190 N   0  0  0  0  0  1  0  0  0  0  0  0
  2  1  1  6  0  0  0
  2 29  1  0  0  0  0
  3  9  1  0  0  0  0
  3  4  1  0  0  0  0
  4  2  1  6  0  0  0
  5  7  1  0  0  0  0
  6  5  1  6  0  0  0
  6  7  1  0  0  0  0
  7 10  1  6  0  0  0
  8 11  1  1  0  0  0
  8  6  1  0  0  0  0
  8  9  1  0  0  0  0
  9 12  1  6  0  0  0
 10  4  1  0  0  0  0
 13 12  1  6  0  0  0
 13 20  1  0  0  0  0
 14 13  1  0  0  0  0
 14 15  2  0  0  0  0
 16 14  1  0  0  0  0
 17 18  1  0  0  0  0
 17 16  1  0  0  0  0
 18 19  1  0  0  0  0
 20 21  1  0  0  0  0
 21 22  1  0  0  0  0
 22 23  1  0  0  0  0
 23 26  1  0  0  0  0
 24 25  1  0  0  0  0
 26 24  1  0  0  0  0
 26 25  1  0  0  0  0
 27 30  2  0  0  0  0
 29 28  1  0  0  0  0
 29 27  2  0  0  0  0
 30 31  1  0  0  0  0
 31 32  1  0  0  0  0
 32 33  1  0  0  0  0
 33 42  1  1  0  0  0
 33 34  1  0  0  0  0
 35 34  1  6  0  0  0
 35 36  1  0  0  0  0
 35 39  1  0  0  0  0
 37 36  1  0  0  0  0
 37 38  2  0  0  0  0
 39 41  1  0  0  0  0
 41 40  1  0  0  0  0
 43 45  1  0  0  0  0
 43 42  1  0  0  0  0
 44 45  2  0  0  0  0
 45 46  1  0  0  0  0
 46 47  1  0  0  0  0
 47 49  1  0  0  0  0
 48 51  1  0  0  0  0
 49 48  1  0  0  0  0
 50 48  2  0  0  0  0
M  END
>  <MODEL>
2

>  <REMARK>
 VINA RESULT:      -5.6      2.622      6.427
  Name = 
  28 active torsions:
  status: ('A' for Active; 'I' for Inactive)
    1  A    between atoms: C_2  and  C_38
    2  A    between atoms: C_3  and  O_7
    3  A    between atoms: C_3  and  C_33
    4  A    between atoms: C_4  and  C_33
    5  A    between atoms: C_4  and  C_39
    6  A    between atoms: N_5  and  C_47
    7  A    between atoms: N_5  and  C_48
    8  A    between atoms: N_9  and  C_15
    9  A    between atoms: C_13  and  C_24
   10  A    between atoms: C_13  and  C_47
   11  A    between atoms: C_15  and  O_36
   12  A    between atoms: C_18  and  O_36
   13  A    between atoms: C_18  and  C_45
   14  A    between atoms: C_19  and  C_51
   15  A    between atoms: C_21  and  C_23
   16  A    between atoms: C_21  and  C_43
   17  A    between atoms: C_22  and  C_28
   18  A    between atoms: C_22  and  O_30
   19  A    between atoms: C_22  and  C_40
   20  A    between atoms: C_23  and  N_49
   21  A    between atoms: C_28  and  C_45
   22  A    between atoms: C_29  and  O_30
   23  A    between atoms: C_29  and  C_50
   24  A    between atoms: C_34  and  C_38
   25  A    between atoms: C_39  and  C_44
   26  A    between atoms: C_39  and  C_51
   27  A    between atoms: C_40  and  C_47
   28  A    between atoms: C_44  and  N_49
                            x       y       z     vdW  Elec       q    Type
                         _______ _______ _______ _____ _____    ______ ____

>  <TORSDO>
F 28

$$$$
=
 OpenBabel11062414593D

 51 53  0  0  1  0  0  0  0  0999 V2000
  184.7630  180.2640  144.5220 C   0  0  0  0  0  1  0  0  0  0  0  0
  184.4380  178.8600  144.0280 C   0  0  1  0  0  3  0  0  0  0  0  0
  183.3000  177.8950  141.9580 C   0  0  0  0  0  2  0  0  0  0  0  0
  183.2020  178.8880  143.1150 C   0  0  1  0  0  3  0  0  0  0  0  0
  179.6270  178.8170  143.2000 O   0  0  0  0  0  0  0  0  0  0  0  0
  180.2720  179.1650  141.9970 C   0  0  1  0  0  3  0  0  0  0  0  0
  180.8090  179.5710  143.3350 C   0  0  2  0  0  3  0  0  0  0  0  0
  180.8610  177.9040  141.3630 C   0  0  2  0  0  3  0  0  0  0  0  0
  182.2840  178.1800  140.8550 C   0  0  2  0  0  3  0  0  0  0  0  0
  181.9140  178.6900  143.9050 C   0  0  0  0  0  2  0  0  0  0  0  0
  180.0160  177.5000  140.3260 O   0  0  0  0  0  1  0  0  0  0  0  0
  182.6340  177.3270  139.6350 C   0  0  0  0  0  2  0  0  0  0  0  0
  182.7430  178.1760  138.3740 C   0  0  1  0  0  3  0  0  0  0  0  0
  182.7610  179.6330  138.7250 C   0  0  0  0  0  0  0  0  0  0  0  0
  183.8110  180.1910  139.0150 O   0  0  0  0  0  0  0  0  0  0  0  0
  181.4800  180.3960  138.7420 C   0  0  0  0  0  2  0  0  0  0  0  0
  181.3190  181.1860  137.4540 C   0  0  0  0  0  2  0  0  0  0  0  0
  180.7870  180.3570  136.4660 O   0  0  0  0  0  0  0  0  0  0  0  0
  180.6180  181.1910  135.3580 C   0  0  0  0  0  1  0  0  0  0  0  0
  183.9790  177.7930  137.5710 C   0  0  0  0  0  2  0  0  0  0  0  0
  183.6070  177.5260  136.1910 N   0  0  0  0  0  2  0  0  0  0  0  0
  184.2340  176.2700  135.8220 C   0  0  0  0  0  2  0  0  0  0  0  0
  183.1580  175.2510  135.5120 C   0  0  0  0  0  2  0  0  0  0  0  0
  183.8900  174.0570  137.5390 C   0  0  0  0  0  2  0  0  0  0  0  0
  182.5540  173.4810  137.1200 C   0  0  0  0  0  2  0  0  0  0  0  0
  183.5620  173.9020  136.0670 C   0  0  0  0  0  3  0  0  0  0  0  0
  186.0940  178.4700  142.2910 C   0  0  0  0  0  0  0  0  0  0  0  0
  186.4840  177.2180  144.3020 C   0  0  0  0  0  1  0  0  0  0  0  0
  185.6690  178.1680  143.4890 C   0  0  0  0  0  0  0  0  0  0  0  0
  186.5090  178.7720  141.0920 C   0  0  0  0  0  3  0  0  0  0  0  0
  187.9630  178.9130  140.8010 C   0  0  0  0  0  2  0  0  0  0  0  0
  188.3240  178.0850  139.7360 O   0  0  0  0  0  0  0  0  0  0  0  0
  189.5840  177.5930  140.0840 C   0  0  2  0  0  3  0  0  0  0  0  0
  189.9500  176.4300  139.1650 C   0  0  0  0  0  2  0  0  0  0  0  0
  190.8270  176.8560  137.9790 C   0  0  1  0  0  3  0  0  0  0  0  0
  191.6540  175.6940  137.4370 C   0  0  0  0  0  2  0  0  0  0  0  0
  193.0950  175.8350  137.8060 C   0  0  0  0  0  3  0  0  0  0  0  0
  193.6870  176.8830  137.6080 O   0  0  0  0  0  0  0  0  0  0  0  0
  190.0240  177.4240  136.9050 N   0  0  0  0  0  2  0  0  0  0  0  0
  187.7010  177.2210  136.2540 C   0  0  0  0  0  1  0  0  0  0  0  0
  188.9690  176.4720  136.5980 C   0  0  0  0  0  2  0  0  0  0  0  0
  189.5780  177.1270  141.5370 C   0  0  0  0  0  2  0  0  0  0  0  0
  190.9940  176.9750  142.0810 C   0  0  0  0  0  2  0  0  0  0  0  0
  190.4870  174.8860  143.1010 O   0  0  0  0  0  0  0  0  0  0  0  0
  191.0490  176.0090  143.2190 C   0  0  0  0  0  0  0  0  0  0  0  0
  191.7380  176.3470  144.3860 O   0  0  0  0  0  0  0  0  0  0  0  0
  191.5110  177.5700  145.0690 C   0  0  0  0  0  2  0  0  0  0  0  0
  189.9190  177.0050  146.9370 C   0  0  0  0  0  0  0  0  0  0  0  0
  190.1790  177.5610  145.6480 N   0  0  0  0  0  2  0  0  0  0  0  0
  190.8510  176.5120  147.6220 O   0  0  0  0  0  0  0  0  0  0  0  0
  188.5930  176.9870  147.4440 N   0  0  0  0  0  1  0  0  0  0  0  0
  2  1  1  6  0  0  0
  3  4  1  0  0  0  0
  4 10  1  0  0  0  0
  4  2  1  1  0  0  0
  5  7  1  0  0  0  0
  6  5  1  1  0  0  0
  6  7  1  0  0  0  0
  7 10  1  1  0  0  0
  8 11  1  6  0  0  0
  8  6  1  0  0  0  0
  9 12  1  6  0  0  0
  9  8  1  0  0  0  0
  9  3  1  0  0  0  0
 13 20  1  1  0  0  0
 13 14  1  0  0  0  0
 13 12  1  0  0  0  0
 14 16  1  0  0  0  0
 14 15  2  0  0  0  0
 17 16  1  0  0  0  0
 18 17  1  0  0  0  0
 19 18  1  0  0  0  0
 21 20  1  0  0  0  0
 22 21  1  0  0  0  0
 23 22  1  0  0  0  0
 23 26  1  0  0  0  0
 25 24  1  0  0  0  0
 26 25  1  0  0  0  0
 26 24  1  0  0  0  0
 27 29  2  0  0  0  0
 29  2  1  0  0  0  0
 29 28  1  0  0  0  0
 30 27  2  0  0  0  0
 31 30  1  0  0  0  0
 32 33  1  0  0  0  0
 32 31  1  0  0  0  0
 33 34  1  6  0  0  0
 33 42  1  0  0  0  0
 35 36  1  6  0  0  0
 35 34  1  0  0  0  0
 36 37  1  0  0  0  0
 38 37  2  0  0  0  0
 39 35  1  0  0  0  0
 40 41  1  0  0  0  0
 41 39  1  0  0  0  0
 42 43  1  0  0  0  0
 43 45  1  0  0  0  0
 44 45  2  0  0  0  0
 45 46  1  0  0  0  0
 46 47  1  0  0  0  0
 47 49  1  0  0  0  0
 48 51  1  0  0  0  0
 48 50  2  0  0  0  0
 49 48  1  0  0  0  0
M  END
>  <MODEL>
3

>  <REMARK>
 VINA RESULT:      -5.5      1.826      3.898
  Name = 
  28 active torsions:
  status: ('A' for Active; 'I' for Inactive)
    1  A    between atoms: C_2  and  C_38
    2  A    between atoms: C_3  and  O_7
    3  A    between atoms: C_3  and  C_33
    4  A    between atoms: C_4  and  C_33
    5  A    between atoms: C_4  and  C_39
    6  A    between atoms: N_5  and  C_47
    7  A    between atoms: N_5  and  C_48
    8  A    between atoms: N_9  and  C_15
    9  A    between atoms: C_13  and  C_24
   10  A    between atoms: C_13  and  C_47
   11  A    between atoms: C_15  and  O_36
   12  A    between atoms: C_18  and  O_36
   13  A    between atoms: C_18  and  C_45
   14  A    between atoms: C_19  and  C_51
   15  A    between atoms: C_21  and  C_23
   16  A    between atoms: C_21  and  C_43
   17  A    between atoms: C_22  and  C_28
   18  A    between atoms: C_22  and  O_30
   19  A    between atoms: C_22  and  C_40
   20  A    between atoms: C_23  and  N_49
   21  A    between atoms: C_28  and  C_45
   22  A    between atoms: C_29  and  O_30
   23  A    between atoms: C_29  and  C_50
   24  A    between atoms: C_34  and  C_38
   25  A    between atoms: C_39  and  C_44
   26  A    between atoms: C_39  and  C_51
   27  A    between atoms: C_40  and  C_47
   28  A    between atoms: C_44  and  N_49
                            x       y       z     vdW  Elec       q    Type
                         _______ _______ _______ _____ _____    ______ ____

>  <TORSDO>
F 28

$$$$
=
 OpenBabel11062414593D

 51 53  0  0  1  0  0  0  0  0999 V2000
  182.5720  179.7880  138.9050 C   0  0  0  0  0  1  0  0  0  0  0  0
  181.9250  178.9770  140.0190 C   0  0  1  0  0  3  0  0  0  0  0  0
  182.0820  177.0490  138.3530 C   0  0  0  0  0  2  0  0  0  0  0  0
  181.2480  177.7230  139.4430 C   0  0  1  0  0  3  0  0  0  0  0  0
  179.6220  174.6900  140.4210 O   0  0  0  0  0  0  0  0  0  0  0  0
  179.5350  175.1070  139.0780 C   0  0  1  0  0  3  0  0  0  0  0  0
  179.5310  176.0810  140.2150 C   0  0  2  0  0  3  0  0  0  0  0  0
  180.8740  174.8480  138.3870 C   0  0  2  0  0  3  0  0  0  0  0  0
  181.2700  176.0580  137.5250 C   0  0  2  0  0  3  0  0  0  0  0  0
  180.8690  176.7350  140.5390 C   0  0  0  0  0  2  0  0  0  0  0  0
  180.7530  173.6890  137.6170 O   0  0  0  0  0  1  0  0  0  0  0  0
  182.0940  175.6480  136.3050 C   0  0  0  0  0  2  0  0  0  0  0  0
  183.5890  175.7120  136.5950 C   0  0  1  0  0  3  0  0  0  0  0  0
  184.1400  174.3340  136.8040 C   0  0  0  0  0  0  0  0  0  0  0  0
  184.4650  173.9560  137.9220 O   0  0  0  0  0  0  0  0  0  0  0  0
  184.3130  173.4310  135.6290 C   0  0  0  0  0  2  0  0  0  0  0  0
  185.1520  172.2240  136.0110 C   0  0  0  0  0  2  0  0  0  0  0  0
  186.1300  172.0130  135.0380 O   0  0  0  0  0  0  0  0  0  0  0  0
  186.3340  170.6320  135.0360 C   0  0  0  0  0  1  0  0  0  0  0  0
  184.3270  176.4300  135.4740 C   0  0  0  0  0  2  0  0  0  0  0  0
  185.7150  176.6400  135.8520 N   0  0  0  0  0  2  0  0  0  0  0  0
  185.7060  177.4810  137.0350 C   0  0  0  0  0  2  0  0  0  0  0  0
  187.0210  177.3200  137.7680 C   0  0  0  0  0  2  0  0  0  0  0  0
  188.0400  179.2910  136.6970 C   0  0  0  0  0  2  0  0  0  0  0  0
  189.0440  178.7280  137.6820 C   0  0  0  0  0  2  0  0  0  0  0  0
  188.1560  177.7910  136.8840 C   0  0  0  0  0  3  0  0  0  0  0  0
  184.1520  178.6010  140.9220 C   0  0  0  0  0  0  0  0  0  0  0  0
  182.4520  178.8350  142.6000 C   0  0  0  0  0  1  0  0  0  0  0  0
  182.8800  178.7670  141.1720 C   0  0  0  0  0  0  0  0  0  0  0  0
  185.4190  178.4300  140.6640 C   0  0  0  0  0  3  0  0  0  0  0  0
  186.4630  179.0620  141.5170 C   0  0  0  0  0  2  0  0  0  0  0  0
  186.3810  178.5720  142.8220 O   0  0  0  0  0  0  0  0  0  0  0  0
  187.0800  177.3630  142.7910 C   0  0  2  0  0  3  0  0  0  0  0  0
  187.3730  176.9050  144.2160 C   0  0  0  0  0  2  0  0  0  0  0  0
  187.0020  177.9560  145.2720 C   0  0  1  0  0  3  0  0  0  0  0  0
  185.7430  177.5690  146.0410 C   0  0  0  0  0  2  0  0  0  0  0  0
  184.5980  178.4650  145.6950 C   0  0  0  0  0  3  0  0  0  0  0  0
  184.7780  179.6560  145.5040 O   0  0  0  0  0  0  0  0  0  0  0  0
  188.0960  178.1730  146.2090 N   0  0  0  0  0  2  0  0  0  0  0  0
  188.6160  178.0210  148.5680 C   0  0  0  0  0  1  0  0  0  0  0  0
  187.5240  178.2330  147.5440 C   0  0  0  0  0  2  0  0  0  0  0  0
  188.3850  177.5380  142.0200 C   0  0  0  0  0  2  0  0  0  0  0  0
  189.5570  177.8070  142.9580 C   0  0  0  0  0  2  0  0  0  0  0  0
  191.4550  176.3730  142.9180 O   0  0  0  0  0  0  0  0  0  0  0  0
  190.8510  177.3390  142.3760 C   0  0  0  0  0  0  0  0  0  0  0  0
  191.3620  177.9530  141.2310 O   0  0  0  0  0  0  0  0  0  0  0  0
  191.9380  177.2100  140.1690 C   0  0  0  0  0  2  0  0  0  0  0  0
  191.0220  175.7800  138.3090 C   0  0  0  0  0  0  0  0  0  0  0  0
  190.9580  176.2730  139.6470 N   0  0  0  0  0  2  0  0  0  0  0  0
  191.9480  176.1370  137.5380 O   0  0  0  0  0  0  0  0  0  0  0  0
  190.0190  174.8930  137.8350 N   0  0  0  0  0  1  0  0  0  0  0  0
  2  1  1  6  0  0  0
  2 29  1  0  0  0  0
  3  4  1  0  0  0  0
  4  2  1  1  0  0  0
  4 10  1  0  0  0  0
  6  7  1  0  0  0  0
  6  5  1  1  0  0  0
  7  5  1  0  0  0  0
  7 10  1  6  0  0  0
  8 11  1  6  0  0  0
  8  6  1  0  0  0  0
  9 12  1  6  0  0  0
  9  3  1  0  0  0  0
  9  8  1  0  0  0  0
 12 13  1  0  0  0  0
 13 20  1  6  0  0  0
 13 14  1  0  0  0  0
 14 15  2  0  0  0  0
 16 17  1  0  0  0  0
 16 14  1  0  0  0  0
 18 17  1  0  0  0  0
 19 18  1  0  0  0  0
 20 21  1  0  0  0  0
 21 22  1  0  0  0  0
 22 23  1  0  0  0  0
 24 26  1  0  0  0  0
 24 25  1  0  0  0  0
 26 25  1  0  0  0  0
 26 23  1  0  0  0  0
 27 29  2  0  0  0  0
 29 28  1  0  0  0  0
 30 27  2  0  0  0  0
 30 31  1  0  0  0  0
 31 32  1  0  0  0  0
 33 42  1  6  0  0  0
 33 32  1  0  0  0  0
 33 34  1  0  0  0  0
 35 34  1  6  0  0  0
 35 36  1  0  0  0  0
 35 39  1  0  0  0  0
 37 36  1  0  0  0  0
 38 37  2  0  0  0  0
 39 41  1  0  0  0  0
 41 40  1  0  0  0  0
 42 43  1  0  0  0  0
 45 44  2  0  0  0  0
 45 43  1  0  0  0  0
 46 45  1  0  0  0  0
 47 46  1  0  0  0  0
 48 49  1  0  0  0  0
 49 47  1  0  0  0  0
 50 48  2  0  0  0  0
 51 48  1  0  0  0  0
M  END
>  <MODEL>
4

>  <REMARK>
 VINA RESULT:      -5.3      2.633      6.250
  Name = 
  28 active torsions:
  status: ('A' for Active; 'I' for Inactive)
    1  A    between atoms: C_2  and  C_38
    2  A    between atoms: C_3  and  O_7
    3  A    between atoms: C_3  and  C_33
    4  A    between atoms: C_4  and  C_33
    5  A    between atoms: C_4  and  C_39
    6  A    between atoms: N_5  and  C_47
    7  A    between atoms: N_5  and  C_48
    8  A    between atoms: N_9  and  C_15
    9  A    between atoms: C_13  and  C_24
   10  A    between atoms: C_13  and  C_47
   11  A    between atoms: C_15  and  O_36
   12  A    between atoms: C_18  and  O_36
   13  A    between atoms: C_18  and  C_45
   14  A    between atoms: C_19  and  C_51
   15  A    between atoms: C_21  and  C_23
   16  A    between atoms: C_21  and  C_43
   17  A    between atoms: C_22  and  C_28
   18  A    between atoms: C_22  and  O_30
   19  A    between atoms: C_22  and  C_40
   20  A    between atoms: C_23  and  N_49
   21  A    between atoms: C_28  and  C_45
   22  A    between atoms: C_29  and  O_30
   23  A    between atoms: C_29  and  C_50
   24  A    between atoms: C_34  and  C_38
   25  A    between atoms: C_39  and  C_44
   26  A    between atoms: C_39  and  C_51
   27  A    between atoms: C_40  and  C_47
   28  A    between atoms: C_44  and  N_49
                            x       y       z     vdW  Elec       q    Type
                         _______ _______ _______ _____ _____    ______ ____

>  <TORSDO>
F 28

$$$$
=
 OpenBabel11062414593D

 51 53  0  0  1  0  0  0  0  0999 V2000
  189.8920  175.8120  142.4870 C   0  0  0  0  0  1  0  0  0  0  0  0
  190.2130  177.0810  141.7090 C   0  0  1  0  0  3  0  0  0  0  0  0
  189.1350  177.6440  139.4660 C   0  0  0  0  0  2  0  0  0  0  0  0
  190.1810  176.8040  140.1980 C   0  0  1  0  0  3  0  0  0  0  0  0
  192.3070  176.5080  137.3370 O   0  0  0  0  0  0  0  0  0  0  0  0
  190.9700  176.0770  137.2380 C   0  0  1  0  0  3  0  0  0  0  0  0
  191.7710  175.9070  138.4920 C   0  0  2  0  0  3  0  0  0  0  0  0
  190.0560  177.3000  137.1550 C   0  0  2  0  0  3  0  0  0  0  0  0
  188.8330  177.1120  138.0670 C   0  0  2  0  0  3  0  0  0  0  0  0
  191.5590  176.9660  139.5680 C   0  0  0  0  0  2  0  0  0  0  0  0
  189.6770  177.4740  135.8220 O   0  0  0  0  0  1  0  0  0  0  0  0
  187.5970  177.8310  137.5260 C   0  0  0  0  0  2  0  0  0  0  0  0
  186.4650  176.8530  137.2370 C   0  0  1  0  0  3  0  0  0  0  0  0
  185.1510  177.4340  137.6650 C   0  0  0  0  0  0  0  0  0  0  0  0
  185.1090  178.4860  138.2890 O   0  0  0  0  0  0  0  0  0  0  0  0
  183.8910  176.7040  137.3450 C   0  0  0  0  0  2  0  0  0  0  0  0
  182.9870  177.5670  136.4820 C   0  0  0  0  0  2  0  0  0  0  0  0
  182.0370  176.7590  135.8540 O   0  0  0  0  0  0  0  0  0  0  0  0
  181.0500  177.6460  135.4200 C   0  0  0  0  0  1  0  0  0  0  0  0
  186.4400  176.4760  135.7620 C   0  0  0  0  0  2  0  0  0  0  0  0
  186.1980  175.0500  135.6220 N   0  0  0  0  0  2  0  0  0  0  0  0
  186.6750  174.4200  136.8390 C   0  0  0  0  0  2  0  0  0  0  0  0
  186.0950  173.0260  136.9380 C   0  0  0  0  0  2  0  0  0  0  0  0
  183.6720  173.1970  136.5240 C   0  0  0  0  0  2  0  0  0  0  0  0
  183.9340  171.8640  137.1920 C   0  0  0  0  0  2  0  0  0  0  0  0
  184.7350  173.0860  137.6000 C   0  0  0  0  0  3  0  0  0  0  0  0
  188.1600  178.3820  141.8000 C   0  0  0  0  0  0  0  0  0  0  0  0
  189.9040  179.2220  143.2190 C   0  0  0  0  0  1  0  0  0  0  0  0
  189.3950  178.2520  142.2060 C   0  0  0  0  0  0  0  0  0  0  0  0
  186.9290  178.5070  141.3870 C   0  0  0  0  0  3  0  0  0  0  0  0
  185.8510  178.9370  142.3190 C   0  0  0  0  0  2  0  0  0  0  0  0
  184.9180  177.9110  142.4830 O   0  0  0  0  0  0  0  0  0  0  0  0
  183.7370  178.5620  142.8480 C   0  0  2  0  0  3  0  0  0  0  0  0
  183.2090  179.3660  141.6640 C   0  0  0  0  0  2  0  0  0  0  0  0
  181.8080  178.9240  141.2160 C   0  0  1  0  0  3  0  0  0  0  0  0
  181.8450  178.1830  139.8830 C   0  0  0  0  0  2  0  0  0  0  0  0
  181.0490  176.9190  139.9420 C   0  0  0  0  0  3  0  0  0  0  0  0
  181.6050  175.8340  139.9250 O   0  0  0  0  0  0  0  0  0  0  0  0
  181.1730  178.0840  142.2220 N   0  0  0  0  0  2  0  0  0  0  0  0
  179.9090  178.3900  144.2630 C   0  0  0  0  0  1  0  0  0  0  0  0
  180.1180  178.8670  142.8440 C   0  0  0  0  0  2  0  0  0  0  0  0
  184.0000  179.4880  144.0320 C   0  0  0  0  0  2  0  0  0  0  0  0
  184.0150  178.7200  145.3490 C   0  0  0  0  0  2  0  0  0  0  0  0
  185.4310  179.5500  147.0730 O   0  0  0  0  0  0  0  0  0  0  0  0
  185.3350  178.8320  146.0400 C   0  0  0  0  0  0  0  0  0  0  0  0
  186.4370  178.1240  145.5530 O   0  0  0  0  0  0  0  0  0  0  0  0
  187.2880  177.3730  146.4050 C   0  0  0  0  0  2  0  0  0  0  0  0
  189.7920  177.1230  146.4750 C   0  0  0  0  0  0  0  0  0  0  0  0
  188.5650  177.1610  145.7470 N   0  0  0  0  0  2  0  0  0  0  0  0
  189.8010  177.2600  147.7250 O   0  0  0  0  0  0  0  0  0  0  0  0
  191.0200  176.9490  145.7820 N   0  0  0  0  0  1  0  0  0  0  0  0
  2 29  1  0  0  0  0
  2  1  1  1  0  0  0
  3  4  1  0  0  0  0
  4  2  1  1  0  0  0
  5  7  1  0  0  0  0
  6  5  1  6  0  0  0
  6  7  1  0  0  0  0
  7 10  1  1  0  0  0
  8 11  1  6  0  0  0
  8  6  1  0  0  0  0
  8  9  1  0  0  0  0
  9 12  1  6  0  0  0
  9  3  1  0  0  0  0
 10  4  1  0  0  0  0
 13 20  1  6  0  0  0
 13 12  1  0  0  0  0
 13 14  1  0  0  0  0
 14 15  2  0  0  0  0
 16 14  1  0  0  0  0
 17 16  1  0  0  0  0
 18 17  1  0  0  0  0
 19 18  1  0  0  0  0
 21 20  1  0  0  0  0
 21 22  1  0  0  0  0
 22 23  1  0  0  0  0
 23 26  1  0  0  0  0
 24 25  1  0  0  0  0
 24 26  1  0  0  0  0
 25 26  1  0  0  0  0
 27 29  2  0  0  0  0
 29 28  1  0  0  0  0
 30 27  2  0  0  0  0
 30 31  1  0  0  0  0
 31 32  1  0  0  0  0
 32 33  1  0  0  0  0
 33 34  1  6  0  0  0
 33 42  1  0  0  0  0
 35 36  1  6  0  0  0
 35 34  1  0  0  0  0
 35 39  1  0  0  0  0
 36 37  1  0  0  0  0
 38 37  2  0  0  0  0
 39 41  1  0  0  0  0
 41 40  1  0  0  0  0
 42 43  1  0  0  0  0
 43 45  1  0  0  0  0
 45 44  2  0  0  0  0
 46 45  1  0  0  0  0
 46 47  1  0  0  0  0
 48 50  2  0  0  0  0
 49 47  1  0  0  0  0
 49 48  1  0  0  0  0
 51 48  1  0  0  0  0
M  END
>  <MODEL>
5

>  <REMARK>
 VINA RESULT:      -5.2      2.600      7.721
  Name = 
  28 active torsions:
  status: ('A' for Active; 'I' for Inactive)
    1  A    between atoms: C_2  and  C_38
    2  A    between atoms: C_3  and  O_7
    3  A    between atoms: C_3  and  C_33
    4  A    between atoms: C_4  and  C_33
    5  A    between atoms: C_4  and  C_39
    6  A    between atoms: N_5  and  C_47
    7  A    between atoms: N_5  and  C_48
    8  A    between atoms: N_9  and  C_15
    9  A    between atoms: C_13  and  C_24
   10  A    between atoms: C_13  and  C_47
   11  A    between atoms: C_15  and  O_36
   12  A    between atoms: C_18  and  O_36
   13  A    between atoms: C_18  and  C_45
   14  A    between atoms: C_19  and  C_51
   15  A    between atoms: C_21  and  C_23
   16  A    between atoms: C_21  and  C_43
   17  A    between atoms: C_22  and  C_28
   18  A    between atoms: C_22  and  O_30
   19  A    between atoms: C_22  and  C_40
   20  A    between atoms: C_23  and  N_49
   21  A    between atoms: C_28  and  C_45
   22  A    between atoms: C_29  and  O_30
   23  A    between atoms: C_29  and  C_50
   24  A    between atoms: C_34  and  C_38
   25  A    between atoms: C_39  and  C_44
   26  A    between atoms: C_39  and  C_51
   27  A    between atoms: C_40  and  C_47
   28  A    between atoms: C_44  and  N_49
                            x       y       z     vdW  Elec       q    Type
                         _______ _______ _______ _____ _____    ______ ____

>  <TORSDO>
F 28

$$$$
=
 OpenBabel11062414593D

 51 53  0  0  1  0  0  0  0  0999 V2000
  189.7050  175.5940  142.9610 C   0  0  0  0  0  1  0  0  0  0  0  0
  190.5080  176.8260  142.5670 C   0  0  1  0  0  3  0  0  0  0  0  0
  190.2200  176.5100  140.0510 C   0  0  0  0  0  2  0  0  0  0  0  0
  191.2050  176.6000  141.2160 C   0  0  1  0  0  3  0  0  0  0  0  0
  193.8830  177.8180  139.1820 O   0  0  0  0  0  0  0  0  0  0  0  0
  193.2720  176.5960  138.8410 C   0  0  1  0  0  3  0  0  0  0  0  0
  193.4780  177.0140  140.2640 C   0  0  2  0  0  3  0  0  0  0  0  0
  191.9020  176.8780  138.2230 C   0  0  2  0  0  3  0  0  0  0  0  0
  190.8520  175.9130  138.7960 C   0  0  2  0  0  3  0  0  0  0  0  0
  192.2760  177.6510  140.9530 C   0  0  0  0  0  2  0  0  0  0  0  0
  192.0120  176.7500  136.8360 O   0  0  0  0  0  1  0  0  0  0  0  0
  189.7440  175.6060  137.7890 C   0  0  0  0  0  2  0  0  0  0  0  0
  188.4700  176.3790  138.1080 C   0  0  1  0  0  3  0  0  0  0  0  0
  188.4660  177.6970  137.3960 C   0  0  0  0  0  0  0  0  0  0  0  0
  188.3510  178.7430  138.0210 O   0  0  0  0  0  0  0  0  0  0  0  0
  188.5770  177.7240  135.9090 C   0  0  0  0  0  2  0  0  0  0  0  0
  187.3940  178.4590  135.3050 C   0  0  0  0  0  2  0  0  0  0  0  0
  186.2080  177.8780  135.7560 O   0  0  0  0  0  0  0  0  0  0  0  0
  185.4770  177.6190  134.5940 C   0  0  0  0  0  1  0  0  0  0  0  0
  187.2370  175.5600  137.7490 C   0  0  0  0  0  2  0  0  0  0  0  0
  187.6350  174.3580  137.0350 N   0  0  0  0  0  2  0  0  0  0  0  0
  186.7230  174.2130  135.9160 C   0  0  0  0  0  2  0  0  0  0  0  0
  185.3120  174.5030  136.3840 C   0  0  0  0  0  2  0  0  0  0  0  0
  184.3410  172.5840  137.5850 C   0  0  0  0  0  2  0  0  0  0  0  0
  183.1980  173.4260  137.0580 C   0  0  0  0  0  2  0  0  0  0  0  0
  184.4610  173.2600  136.2330 C   0  0  0  0  0  3  0  0  0  0  0  0
  188.5100  178.1460  142.1360 C   0  0  0  0  0  0  0  0  0  0  0  0
  190.1100  179.2420  143.5500 C   0  0  0  0  0  1  0  0  0  0  0  0
  189.6840  178.0870  142.7060 C   0  0  0  0  0  0  0  0  0  0  0  0
  187.3420  178.1990  141.5590 C   0  0  0  0  0  3  0  0  0  0  0  0
  186.1810  178.8310  142.2440 C   0  0  0  0  0  2  0  0  0  0  0  0
  185.3920  177.8540  142.8560 O   0  0  0  0  0  0  0  0  0  0  0  0
  184.1690  178.4850  143.0930 C   0  0  2  0  0  3  0  0  0  0  0  0
  183.8040  179.3590  141.8970 C   0  0  0  0  0  2  0  0  0  0  0  0
  182.4790  178.9480  141.2360 C   0  0  1  0  0  3  0  0  0  0  0  0
  182.6780  177.8410  140.2060 C   0  0  0  0  0  2  0  0  0  0  0  0
  183.9160  178.0660  139.3990 C   0  0  0  0  0  3  0  0  0  0  0  0
  184.0020  177.6350  138.2610 O   0  0  0  0  0  0  0  0  0  0  0  0
  181.5050  178.5190  142.2300 N   0  0  0  0  0  2  0  0  0  0  0  0
  179.7160  179.9120  141.3820 C   0  0  0  0  0  1  0  0  0  0  0  0
  180.6600  179.6620  142.5360 C   0  0  0  0  0  2  0  0  0  0  0  0
  184.2610  179.3390  144.3550 C   0  0  0  0  0  2  0  0  0  0  0  0
  184.5710  178.4890  145.5820 C   0  0  0  0  0  2  0  0  0  0  0  0
  185.6280  179.7670  147.2900 O   0  0  0  0  0  0  0  0  0  0  0  0
  185.7780  178.9870  146.3090 C   0  0  0  0  0  0  0  0  0  0  0  0
  187.0500  178.5680  145.9150 O   0  0  0  0  0  0  0  0  0  0  0  0
  187.3790  177.1960  145.7620 C   0  0  0  0  0  2  0  0  0  0  0  0
  189.3610  177.2860  147.3120 C   0  0  0  0  0  0  0  0  0  0  0  0
  188.7930  177.0040  146.0330 N   0  0  0  0  0  2  0  0  0  0  0  0
  188.6430  177.7010  148.2560 O   0  0  0  0  0  0  0  0  0  0  0  0
  190.7570  177.1170  147.5170 N   0  0  0  0  0  1  0  0  0  0  0  0
  2 29  1  0  0  0  0
  2  1  1  6  0  0  0
  3  4  1  0  0  0  0
  4  2  1  1  0  0  0
  5  7  1  0  0  0  0
  6  5  1  6  0  0  0
  6  7  1  0  0  0  0
  7 10  1  6  0  0  0
  8 11  1  6  0  0  0
  8  9  1  0  0  0  0
  8  6  1  0  0  0  0
  9 12  1  6  0  0  0
  9  3  1  0  0  0  0
 10  4  1  0  0  0  0
 12 13  1  0  0  0  0
 13 20  1  6  0  0  0
 14 15  2  0  0  0  0
 14 13  1  0  0  0  0
 16 14  1  0  0  0  0
 17 18  1  0  0  0  0
 17 16  1  0  0  0  0
 19 18  1  0  0  0  0
 21 20  1  0  0  0  0
 22 23  1  0  0  0  0
 22 21  1  0  0  0  0
 25 24  1  0  0  0  0
 26 23  1  0  0  0  0
 26 25  1  0  0  0  0
 26 24  1  0  0  0  0
 27 29  2  0  0  0  0
 29 28  1  0  0  0  0
 30 27  2  0  0  0  0
 30 31  1  0  0  0  0
 31 32  1  0  0  0  0
 32 33  1  0  0  0  0
 33 34  1  6  0  0  0
 33 42  1  0  0  0  0
 35 36  1  6  0  0  0
 35 34  1  0  0  0  0
 35 39  1  0  0  0  0
 37 36  1  0  0  0  0
 38 37  2  0  0  0  0
 39 41  1  0  0  0  0
 40 41  1  0  0  0  0
 42 43  1  0  0  0  0
 43 45  1  0  0  0  0
 45 44  2  0  0  0  0
 46 45  1  0  0  0  0
 47 46  1  0  0  0  0
 47 49  1  0  0  0  0
 48 51  1  0  0  0  0
 48 50  2  0  0  0  0
 49 48  1  0  0  0  0
M  END
>  <MODEL>
6

>  <REMARK>
 VINA RESULT:      -5.1      2.610      7.773
  Name = 
  28 active torsions:
  status: ('A' for Active; 'I' for Inactive)
    1  A    between atoms: C_2  and  C_38
    2  A    between atoms: C_3  and  O_7
    3  A    between atoms: C_3  and  C_33
    4  A    between atoms: C_4  and  C_33
    5  A    between atoms: C_4  and  C_39
    6  A    between atoms: N_5  and  C_47
    7  A    between atoms: N_5  and  C_48
    8  A    between atoms: N_9  and  C_15
    9  A    between atoms: C_13  and  C_24
   10  A    between atoms: C_13  and  C_47
   11  A    between atoms: C_15  and  O_36
   12  A    between atoms: C_18  and  O_36
   13  A    between atoms: C_18  and  C_45
   14  A    between atoms: C_19  and  C_51
   15  A    between atoms: C_21  and  C_23
   16  A    between atoms: C_21  and  C_43
   17  A    between atoms: C_22  and  C_28
   18  A    between atoms: C_22  and  O_30
   19  A    between atoms: C_22  and  C_40
   20  A    between atoms: C_23  and  N_49
   21  A    between atoms: C_28  and  C_45
   22  A    between atoms: C_29  and  O_30
   23  A    between atoms: C_29  and  C_50
   24  A    between atoms: C_34  and  C_38
   25  A    between atoms: C_39  and  C_44
   26  A    between atoms: C_39  and  C_51
   27  A    between atoms: C_40  and  C_47
   28  A    between atoms: C_44  and  N_49
                            x       y       z     vdW  Elec       q    Type
                         _______ _______ _______ _____ _____    ______ ____

>  <TORSDO>
F 28

$$$$
=
 OpenBabel11062414593D

 51 53  0  0  1  0  0  0  0  0999 V2000
  190.1500  175.8110  142.3070 C   0  0  0  0  0  1  0  0  0  0  0  0
  190.4190  177.0420  141.4510 C   0  0  1  0  0  3  0  0  0  0  0  0
  189.2470  177.6350  139.2630 C   0  0  0  0  0  2  0  0  0  0  0  0
  190.2400  176.7060  139.9620 C   0  0  1  0  0  3  0  0  0  0  0  0
  192.0930  176.0320  136.9780 O   0  0  0  0  0  0  0  0  0  0  0  0
  190.7110  175.7620  136.9960 C   0  0  1  0  0  3  0  0  0  0  0  0
  191.5790  175.5500  138.1980 C   0  0  2  0  0  3  0  0  0  0  0  0
  189.9440  177.0820  136.9140 C   0  0  2  0  0  3  0  0  0  0  0  0
  188.7800  177.0840  137.9180 C   0  0  2  0  0  3  0  0  0  0  0  0
  191.5750  176.6730  139.2290 C   0  0  0  0  0  2  0  0  0  0  0  0
  189.4890  177.2440  135.6030 O   0  0  0  0  0  1  0  0  0  0  0  0
  187.6000  177.9240  137.4290 C   0  0  0  0  0  2  0  0  0  0  0  0
  186.4150  177.0480  137.0410 C   0  0  1  0  0  3  0  0  0  0  0  0
  185.1590  177.5580  137.6780 C   0  0  0  0  0  0  0  0  0  0  0  0
  185.1760  178.0070  138.8170 O   0  0  0  0  0  0  0  0  0  0  0  0
  183.8750  177.4890  136.9210 C   0  0  0  0  0  2  0  0  0  0  0  0
  182.8750  176.6150  137.6570 C   0  0  0  0  0  2  0  0  0  0  0  0
  182.9720  175.3040  137.1860 O   0  0  0  0  0  0  0  0  0  0  0  0
  181.6630  174.9540  136.8460 C   0  0  0  0  0  1  0  0  0  0  0  0
  186.2680  176.9770  135.5270 C   0  0  0  0  0  2  0  0  0  0  0  0
  185.9250  175.6220  135.1280 N   0  0  0  0  0  2  0  0  0  0  0  0
  186.7860  174.7310  135.8820 C   0  0  0  0  0  2  0  0  0  0  0  0
  186.5780  173.3120  135.3970 C   0  0  0  0  0  2  0  0  0  0  0  0
  185.5940  173.1710  137.6510 C   0  0  0  0  0  2  0  0  0  0  0  0
  184.8470  172.2020  136.7590 C   0  0  0  0  0  2  0  0  0  0  0  0
  186.3410  172.3990  136.5810 C   0  0  0  0  0  3  0  0  0  0  0  0
  188.4470  178.4600  141.5720 C   0  0  0  0  0  0  0  0  0  0  0  0
  190.2380  179.1650  143.0060 C   0  0  0  0  0  1  0  0  0  0  0  0
  189.6720  178.2480  141.9730 C   0  0  0  0  0  0  0  0  0  0  0  0
  187.2260  178.6680  141.1620 C   0  0  0  0  0  3  0  0  0  0  0  0
  186.1750  179.1420  142.1040 C   0  0  0  0  0  2  0  0  0  0  0  0
  185.5210  178.0530  142.6840 O   0  0  0  0  0  0  0  0  0  0  0  0
  185.5110  178.3340  144.0530 C   0  0  2  0  0  3  0  0  0  0  0  0
  186.2850  177.2540  144.8030 C   0  0  0  0  0  2  0  0  0  0  0  0
  187.4540  177.8160  145.6250 C   0  0  1  0  0  3  0  0  0  0  0  0
  187.1770  177.7500  147.1240 C   0  0  0  0  0  2  0  0  0  0  0  0
  186.7100  179.0700  147.6480 C   0  0  0  0  0  3  0  0  0  0  0  0
  185.6050  179.4970  147.3580 O   0  0  0  0  0  0  0  0  0  0  0  0
  188.6940  177.1120  145.3280 N   0  0  0  0  0  2  0  0  0  0  0  0
  190.9810  176.8060  146.0600 C   0  0  0  0  0  1  0  0  0  0  0  0
  189.6950  177.5690  146.2790 C   0  0  0  0  0  2  0  0  0  0  0  0
  184.0730  178.3950  144.5600 C   0  0  0  0  0  2  0  0  0  0  0  0
  183.2730  179.4750  143.8410 C   0  0  0  0  0  2  0  0  0  0  0  0
  180.9190  179.1270  143.8730 O   0  0  0  0  0  0  0  0  0  0  0  0
  182.0060  178.9330  143.2630 C   0  0  0  0  0  0  0  0  0  0  0  0
  182.0350  178.2440  142.0490 O   0  0  0  0  0  0  0  0  0  0  0  0
  182.7350  178.7380  140.9170 C   0  0  0  0  0  2  0  0  0  0  0  0
  182.1450  180.1860  138.9430 C   0  0  0  0  0  0  0  0  0  0  0  0
  181.7830  179.2240  139.9340 N   0  0  0  0  0  2  0  0  0  0  0  0
  183.3180  180.6350  138.8840 O   0  0  0  0  0  0  0  0  0  0  0  0
  181.1680  180.6580  138.0270 N   0  0  0  0  0  1  0  0  0  0  0  0
  2 29  1  0  0  0  0
  2  1  1  1  0  0  0
  3  4  1  0  0  0  0
  4  2  1  1  0  0  0
  5  7  1  0  0  0  0
  6  5  1  6  0  0  0
  6  7  1  0  0  0  0
  7 10  1  1  0  0  0
  8 11  1  6  0  0  0
  8  6  1  0  0  0  0
  8  9  1  0  0  0  0
  9 12  1  6  0  0  0
  9  3  1  0  0  0  0
 10  4  1  0  0  0  0
 13 20  1  6  0  0  0
 13 12  1  0  0  0  0
 13 14  1  0  0  0  0
 14 15  2  0  0  0  0
 16 17  1  0  0  0  0
 16 14  1  0  0  0  0
 18 17  1  0  0  0  0
 19 18  1  0  0  0  0
 21 20  1  0  0  0  0
 21 22  1  0  0  0  0
 23 22  1  0  0  0  0
 23 26  1  0  0  0  0
 25 24  1  0  0  0  0
 26 25  1  0  0  0  0
 26 24  1  0  0  0  0
 27 29  2  0  0  0  0
 29 28  1  0  0  0  0
 30 27  2  0  0  0  0
 30 31  1  0  0  0  0
 31 32  1  0  0  0  0
 32 33  1  0  0  0  0
 33 42  1  1  0  0  0
 33 34  1  0  0  0  0
 35 34  1  6  0  0  0
 35 36  1  0  0  0  0
 36 37  1  0  0  0  0
 38 37  2  0  0  0  0
 39 35  1  0  0  0  0
 39 41  1  0  0  0  0
 40 41  1  0  0  0  0
 43 42  1  0  0  0  0
 45 43  1  0  0  0  0
 45 44  2  0  0  0  0
 46 45  1  0  0  0  0
 47 46  1  0  0  0  0
 48 49  1  0  0  0  0
 49 47  1  0  0  0  0
 50 48  2  0  0  0  0
 51 48  1  0  0  0  0
M  END
>  <MODEL>
7

>  <REMARK>
 VINA RESULT:      -5.1      2.414      8.450
  Name = 
  28 active torsions:
  status: ('A' for Active; 'I' for Inactive)
    1  A    between atoms: C_2  and  C_38
    2  A    between atoms: C_3  and  O_7
    3  A    between atoms: C_3  and  C_33
    4  A    between atoms: C_4  and  C_33
    5  A    between atoms: C_4  and  C_39
    6  A    between atoms: N_5  and  C_47
    7  A    between atoms: N_5  and  C_48
    8  A    between atoms: N_9  and  C_15
    9  A    between atoms: C_13  and  C_24
   10  A    between atoms: C_13  and  C_47
   11  A    between atoms: C_15  and  O_36
   12  A    between atoms: C_18  and  O_36
   13  A    between atoms: C_18  and  C_45
   14  A    between atoms: C_19  and  C_51
   15  A    between atoms: C_21  and  C_23
   16  A    between atoms: C_21  and  C_43
   17  A    between atoms: C_22  and  C_28
   18  A    between atoms: C_22  and  O_30
   19  A    between atoms: C_22  and  C_40
   20  A    between atoms: C_23  and  N_49
   21  A    between atoms: C_28  and  C_45
   22  A    between atoms: C_29  and  O_30
   23  A    between atoms: C_29  and  C_50
   24  A    between atoms: C_34  and  C_38
   25  A    between atoms: C_39  and  C_44
   26  A    between atoms: C_39  and  C_51
   27  A    between atoms: C_40  and  C_47
   28  A    between atoms: C_44  and  N_49
                            x       y       z     vdW  Elec       q    Type
                         _______ _______ _______ _____ _____    ______ ____

>  <TORSDO>
F 28

$$$$
=
 OpenBabel11062414593D

 51 53  0  0  1  0  0  0  0  0999 V2000
  181.1760  179.2650  141.6850 C   0  0  0  0  0  1  0  0  0  0  0  0
  182.2660  178.2620  141.3310 C   0  0  1  0  0  3  0  0  0  0  0  0
  182.7630  176.5530  139.5010 C   0  0  0  0  0  2  0  0  0  0  0  0
  182.2370  177.9510  139.8260 C   0  0  1  0  0  3  0  0  0  0  0  0
  180.1060  178.0870  136.9560 O   0  0  0  0  0  0  0  0  0  0  0  0
  181.4830  177.8540  136.7700 C   0  0  1  0  0  3  0  0  0  0  0  0
  180.9670  178.7710  137.8360 C   0  0  2  0  0  3  0  0  0  0  0  0
  181.8060  176.4180  137.1830 C   0  0  2  0  0  3  0  0  0  0  0  0
  183.0950  176.3830  138.0210 C   0  0  2  0  0  3  0  0  0  0  0  0
  180.8510  178.1710  139.2330 C   0  0  0  0  0  2  0  0  0  0  0  0
  181.9280  175.6460  136.0250 O   0  0  0  0  0  1  0  0  0  0  0  0
  183.8620  175.0740  137.8390 C   0  0  0  0  0  2  0  0  0  0  0  0
  184.8510  175.1630  136.6830 C   0  0  1  0  0  3  0  0  0  0  0  0
  185.9120  176.1770  136.9800 C   0  0  0  0  0  0  0  0  0  0  0  0
  186.8630  175.8930  137.6980 O   0  0  0  0  0  0  0  0  0  0  0  0
  185.7890  177.5510  136.4130 C   0  0  0  0  0  2  0  0  0  0  0  0
  187.0440  177.9170  135.6410 C   0  0  0  0  0  2  0  0  0  0  0  0
  187.2390  176.9970  134.6100 O   0  0  0  0  0  0  0  0  0  0  0  0
  188.6160  176.7690  134.5940 C   0  0  0  0  0  1  0  0  0  0  0  0
  185.4650  173.8000  136.3910 C   0  0  0  0  0  2  0  0  0  0  0  0
  184.7040  172.7620  137.0650 N   0  0  0  0  0  2  0  0  0  0  0  0
  184.7050  171.6040  136.1910 C   0  0  0  0  0  2  0  0  0  0  0  0
  183.4260  170.8220  136.4000 C   0  0  0  0  0  2  0  0  0  0  0  0
  181.6360  172.3530  135.6740 C   0  0  0  0  0  2  0  0  0  0  0  0
  180.9900  171.2100  136.4300 C   0  0  0  0  0  2  0  0  0  0  0  0
  182.3340  171.7530  136.8800 C   0  0  0  0  0  3  0  0  0  0  0  0
  183.7410  178.6970  143.2150 C   0  0  0  0  0  0  0  0  0  0  0  0
  184.8000  178.9520  141.0770 C   0  0  0  0  0  1  0  0  0  0  0  0
  183.5990  178.6690  141.9170 C   0  0  0  0  0  0  0  0  0  0  0  0
  183.8720  178.7290  144.5120 C   0  0  0  0  0  3  0  0  0  0  0  0
  185.1200  178.2440  145.1650 C   0  0  0  0  0  2  0  0  0  0  0  0
  186.2360  178.8420  144.5750 O   0  0  0  0  0  0  0  0  0  0  0  0
  186.9180  177.7890  143.9610 C   0  0  2  0  0  3  0  0  0  0  0  0
  187.7530  177.0460  144.9990 C   0  0  0  0  0  2  0  0  0  0  0  0
  188.8570  177.9170  145.6160 C   0  0  1  0  0  3  0  0  0  0  0  0
  189.3810  177.3290  146.9220 C   0  0  0  0  0  2  0  0  0  0  0  0
  188.4600  177.6270  148.0610 C   0  0  0  0  0  3  0  0  0  0  0  0
  187.5660  178.4470  147.9380 O   0  0  0  0  0  0  0  0  0  0  0  0
  189.9640  178.1030  144.6880 N   0  0  0  0  0  2  0  0  0  0  0  0
  191.5220  176.2970  144.2730 C   0  0  0  0  0  1  0  0  0  0  0  0
  191.1120  177.3950  145.2290 C   0  0  0  0  0  2  0  0  0  0  0  0
  187.8200  178.3300  142.8550 C   0  0  0  0  0  2  0  0  0  0  0  0
  188.1000  177.2700  141.7950 C   0  0  0  0  0  2  0  0  0  0  0  0
  188.0360  178.3520  139.6770 O   0  0  0  0  0  0  0  0  0  0  0  0
  188.7550  177.8560  140.5870 C   0  0  0  0  0  0  0  0  0  0  0  0
  190.1480  177.8710  140.4890 O   0  0  0  0  0  0  0  0  0  0  0  0
  190.8780  176.7860  139.9370 C   0  0  0  0  0  2  0  0  0  0  0  0
  191.7550  176.2010  137.6500 C   0  0  0  0  0  0  0  0  0  0  0  0
  190.7830  176.8260  138.4880 N   0  0  0  0  0  2  0  0  0  0  0  0
  192.7270  175.5790  138.1490 O   0  0  0  0  0  0  0  0  0  0  0  0
  191.6370  176.3000  136.2380 N   0  0  0  0  0  1  0  0  0  0  0  0
  2  1  1  6  0  0  0
  2 29  1  0  0  0  0
  3  4  1  0  0  0  0
  4  2  1  1  0  0  0
  5  7  1  0  0  0  0
  6  5  1  6  0  0  0
  6  8  1  0  0  0  0
  6  7  1  0  0  0  0
  7 10  1  1  0  0  0
  8 11  1  6  0  0  0
  8  9  1  0  0  0  0
  9 12  1  1  0  0  0
  9  3  1  0  0  0  0
 10  4  1  0  0  0  0
 13 20  1  1  0  0  0
 13 14  1  0  0  0  0
 13 12  1  0  0  0  0
 14 15  2  0  0  0  0
 16 14  1  0  0  0  0
 17 16  1  0  0  0  0
 18 17  1  0  0  0  0
 19 18  1  0  0  0  0
 20 21  1  0  0  0  0
 22 23  1  0  0  0  0
 22 21  1  0  0  0  0
 23 26  1  0  0  0  0
 24 25  1  0  0  0  0
 24 26  1  0  0  0  0
 25 26  1  0  0  0  0
 27 30  2  0  0  0  0
 28 29  1  0  0  0  0
 29 27  2  0  0  0  0
 30 31  1  0  0  0  0
 32 31  1  0  0  0  0
 33 42  1  6  0  0  0
 33 32  1  0  0  0  0
 33 34  1  0  0  0  0
 35 34  1  6  0  0  0
 35 36  1  0  0  0  0
 36 37  1  0  0  0  0
 38 37  2  0  0  0  0
 39 41  1  0  0  0  0
 39 35  1  0  0  0  0
 40 41  1  0  0  0  0
 43 42  1  0  0  0  0
 44 45  2  0  0  0  0
 45 43  1  0  0  0  0
 46 45  1  0  0  0  0
 47 46  1  0  0  0  0
 48 50  2  0  0  0  0
 48 49  1  0  0  0  0
 49 47  1  0  0  0  0
 51 48  1  0  0  0  0
M  END
>  <MODEL>
8

>  <REMARK>
 VINA RESULT:      -5.1      2.731      6.716
  Name = 
  28 active torsions:
  status: ('A' for Active; 'I' for Inactive)
    1  A    between atoms: C_2  and  C_38
    2  A    between atoms: C_3  and  O_7
    3  A    between atoms: C_3  and  C_33
    4  A    between atoms: C_4  and  C_33
    5  A    between atoms: C_4  and  C_39
    6  A    between atoms: N_5  and  C_47
    7  A    between atoms: N_5  and  C_48
    8  A    between atoms: N_9  and  C_15
    9  A    between atoms: C_13  and  C_24
   10  A    between atoms: C_13  and  C_47
   11  A    between atoms: C_15  and  O_36
   12  A    between atoms: C_18  and  O_36
   13  A    between atoms: C_18  and  C_45
   14  A    between atoms: C_19  and  C_51
   15  A    between atoms: C_21  and  C_23
   16  A    between atoms: C_21  and  C_43
   17  A    between atoms: C_22  and  C_28
   18  A    between atoms: C_22  and  O_30
   19  A    between atoms: C_22  and  C_40
   20  A    between atoms: C_23  and  N_49
   21  A    between atoms: C_28  and  C_45
   22  A    between atoms: C_29  and  O_30
   23  A    between atoms: C_29  and  C_50
   24  A    between atoms: C_34  and  C_38
   25  A    between atoms: C_39  and  C_44
   26  A    between atoms: C_39  and  C_51
   27  A    between atoms: C_40  and  C_47
   28  A    between atoms: C_44  and  N_49
                            x       y       z     vdW  Elec       q    Type
                         _______ _______ _______ _____ _____    ______ ____

>  <TORSDO>
F 28

$$$$
=
 OpenBabel11062414593D

 51 53  0  0  1  0  0  0  0  0999 V2000
  184.6040  179.7380  144.8770 C   0  0  0  0  0  1  0  0  0  0  0  0
  184.4330  178.4430  144.0940 C   0  0  1  0  0  3  0  0  0  0  0  0
  183.3860  177.5160  141.9590 C   0  0  0  0  0  2  0  0  0  0  0  0
  183.3310  178.6010  143.0340 C   0  0  1  0  0  3  0  0  0  0  0  0
  179.8110  179.1240  142.6790 O   0  0  0  0  0  0  0  0  0  0  0  0
  180.6370  179.2650  141.5470 C   0  0  1  0  0  3  0  0  0  0  0  0
  181.0820  179.6820  142.9140 C   0  0  2  0  0  3  0  0  0  0  0  0
  181.0670  177.8780  141.0670 C   0  0  2  0  0  3  0  0  0  0  0  0
  182.5650  177.8760  140.7230 C   0  0  2  0  0  3  0  0  0  0  0  0
  181.9490  178.6800  143.6690 C   0  0  0  0  0  2  0  0  0  0  0  0
  180.2870  177.5370  139.9590 O   0  0  0  0  0  1  0  0  0  0  0  0
  182.8970  176.8830  139.6090 C   0  0  0  0  0  2  0  0  0  0  0  0
  183.4930  177.5860  138.3960 C   0  0  1  0  0  3  0  0  0  0  0  0
  182.4480  177.7850  137.3410 C   0  0  0  0  0  0  0  0  0  0  0  0
  182.1280  178.9110  136.9850 O   0  0  0  0  0  0  0  0  0  0  0  0
  181.7780  176.5940  136.7430 C   0  0  0  0  0  2  0  0  0  0  0  0
  182.7410  175.4210  136.6840 C   0  0  0  0  0  2  0  0  0  0  0  0
  183.1320  175.2090  135.3620 O   0  0  0  0  0  0  0  0  0  0  0  0
  182.0660  175.6860  134.5960 C   0  0  0  0  0  1  0  0  0  0  0  0
  184.1240  178.9130  138.7960 C   0  0  0  0  0  2  0  0  0  0  0  0
  185.4360  179.0400  138.1830 N   0  0  0  0  0  2  0  0  0  0  0  0
  185.7950  177.7270  137.6820 C   0  0  0  0  0  2  0  0  0  0  0  0
  186.7150  177.8850  136.4900 C   0  0  0  0  0  2  0  0  0  0  0  0
  188.9640  177.3520  135.6390 C   0  0  0  0  0  2  0  0  0  0  0  0
  189.0580  178.6510  136.4130 C   0  0  0  0  0  2  0  0  0  0  0  0
  188.1340  177.5470  136.8930 C   0  0  0  0  0  3  0  0  0  0  0  0
  186.1930  178.2350  142.4270 C   0  0  0  0  0  0  0  0  0  0  0  0
  186.6680  177.0970  144.4860 C   0  0  0  0  0  1  0  0  0  0  0  0
  185.7650  177.9090  143.6180 C   0  0  0  0  0  0  0  0  0  0  0  0
  186.6090  178.5600  141.2350 C   0  0  0  0  0  3  0  0  0  0  0  0
  188.0410  178.8880  140.9900 C   0  0  0  0  0  2  0  0  0  0  0  0
  188.6420  177.8840  140.2280 O   0  0  0  0  0  0  0  0  0  0  0  0
  189.8870  177.6810  140.8290 C   0  0  2  0  0  3  0  0  0  0  0  0
  190.4640  176.3450  140.3720 C   0  0  0  0  0  2  0  0  0  0  0  0
  190.8030  176.3180  138.8740 C   0  0  1  0  0  3  0  0  0  0  0  0
  192.1180  177.0330  138.5780 C   0  0  0  0  0  2  0  0  0  0  0  0
  192.9490  176.2600  137.6050 C   0  0  0  0  0  3  0  0  0  0  0  0
  194.1370  176.0770  137.8110 O   0  0  0  0  0  0  0  0  0  0  0  0
  190.8670  174.9530  138.3710 N   0  0  0  0  0  2  0  0  0  0  0  0
  189.8850  173.5620  136.6510 C   0  0  0  0  0  1  0  0  0  0  0  0
  189.6560  174.7120  137.6050 C   0  0  0  0  0  2  0  0  0  0  0  0
  189.7390  177.6950  142.3480 C   0  0  0  0  0  2  0  0  0  0  0  0
  191.0730  177.4350  143.0400 C   0  0  0  0  0  2  0  0  0  0  0  0
  190.3360  175.2100  143.4490 O   0  0  0  0  0  0  0  0  0  0  0  0
  191.0420  176.1780  143.8460 C   0  0  0  0  0  0  0  0  0  0  0  0
  191.8090  176.0770  145.0090 O   0  0  0  0  0  0  0  0  0  0  0  0
  191.6470  176.9690  146.1000 C   0  0  0  0  0  2  0  0  0  0  0  0
  189.2880  177.1640  146.9590 C   0  0  0  0  0  0  0  0  0  0  0  0
  190.5560  176.5100  146.9420 N   0  0  0  0  0  2  0  0  0  0  0  0
  189.0710  178.1620  146.2260 O   0  0  0  0  0  0  0  0  0  0  0  0
  188.2650  176.6980  147.8270 N   0  0  0  0  0  1  0  0  0  0  0  0
  2  1  1  6  0  0  0
  3  4  1  0  0  0  0
  4 10  1  0  0  0  0
  4  2  1  1  0  0  0
  5  7  1  0  0  0  0
  6  5  1  1  0  0  0
  6  7  1  0  0  0  0
  7 10  1  1  0  0  0
  8 11  1  6  0  0  0
  8  6  1  0  0  0  0
  9 12  1  6  0  0  0
  9  8  1  0  0  0  0
  9  3  1  0  0  0  0
 13 20  1  1  0  0  0
 13 12  1  0  0  0  0
 14 13  1  0  0  0  0
 15 14  2  0  0  0  0
 16 14  1  0  0  0  0
 17 16  1  0  0  0  0
 18 17  1  0  0  0  0
 19 18  1  0  0  0  0
 21 20  1  0  0  0  0
 22 21  1  0  0  0  0
 23 26  1  0  0  0  0
 23 22  1  0  0  0  0
 24 25  1  0  0  0  0
 24 26  1  0  0  0  0
 25 26  1  0  0  0  0
 27 29  2  0  0  0  0
 29  2  1  0  0  0  0
 29 28  1  0  0  0  0
 30 27  2  0  0  0  0
 31 30  1  0  0  0  0
 32 33  1  0  0  0  0
 32 31  1  0  0  0  0
 33 34  1  6  0  0  0
 33 42  1  0  0  0  0
 35 36  1  1  0  0  0
 35 34  1  0  0  0  0
 37 38  2  0  0  0  0
 37 36  1  0  0  0  0
 39 35  1  0  0  0  0
 40 41  1  0  0  0  0
 41 39  1  0  0  0  0
 42 43  1  0  0  0  0
 43 45  1  0  0  0  0
 44 45  2  0  0  0  0
 45 46  1  0  0  0  0
 46 47  1  0  0  0  0
 47 49  1  0  0  0  0
 48 51  1  0  0  0  0
 49 48  1  0  0  0  0
 50 48  2  0  0  0  0
M  END
>  <MODEL>
9

>  <REMARK>
 VINA RESULT:      -5.0      2.105      3.379
  Name = 
  28 active torsions:
  status: ('A' for Active; 'I' for Inactive)
    1  A    between atoms: C_2  and  C_38
    2  A    between atoms: C_3  and  O_7
    3  A    between atoms: C_3  and  C_33
    4  A    between atoms: C_4  and  C_33
    5  A    between atoms: C_4  and  C_39
    6  A    between atoms: N_5  and  C_47
    7  A    between atoms: N_5  and  C_48
    8  A    between atoms: N_9  and  C_15
    9  A    between atoms: C_13  and  C_24
   10  A    between atoms: C_13  and  C_47
   11  A    between atoms: C_15  and  O_36
   12  A    between atoms: C_18  and  O_36
   13  A    between atoms: C_18  and  C_45
   14  A    between atoms: C_19  and  C_51
   15  A    between atoms: C_21  and  C_23
   16  A    between atoms: C_21  and  C_43
   17  A    between atoms: C_22  and  C_28
   18  A    between atoms: C_22  and  O_30
   19  A    between atoms: C_22  and  C_40
   20  A    between atoms: C_23  and  N_49
   21  A    between atoms: C_28  and  C_45
   22  A    between atoms: C_29  and  O_30
   23  A    between atoms: C_29  and  C_50
   24  A    between atoms: C_34  and  C_38
   25  A    between atoms: C_39  and  C_44
   26  A    between atoms: C_39  and  C_51
   27  A    between atoms: C_40  and  C_47
   28  A    between atoms: C_44  and  N_49
                            x       y       z     vdW  Elec       q    Type
                         _______ _______ _______ _____ _____    ______ ____

>  <TORSDO>
F 28

$$$$
