=
 OpenBabel11062415443D

 27 30  0  0  1  0  0  0  0  0999 V2000
  190.2240  177.7720  139.9550 C   0  0  1  0  0  3  0  0  0  0  0  0
  188.8400  178.3200  139.6130 C   0  0  2  0  0  0  0  0  0  0  0  0
  188.1070  178.8290  140.6980 O   0  0  0  0  0  0  0  0  0  0  0  0
  188.2140  177.4270  140.6290 C   0  0  2  0  0  3  0  0  0  0  0  0
  189.5950  176.9160  141.0380 C   0  0  2  0  0  3  0  0  0  0  0  0
  193.9640  177.0350  137.2960 O   0  0  0  0  0  0  0  0  0  0  0  0
  191.3870  174.4610  137.1760 C   0  0  0  0  0  0  0  0  0  0  0  0
  192.3250  176.8320  138.9980 C   0  0  0  0  0  2  0  0  0  0  0  0
  190.2960  175.6030  138.9450 O   0  0  0  0  0  0  0  0  0  0  0  0
  192.9950  176.3670  137.7410 C   0  0  0  0  0  0  0  0  0  0  0  0
  190.1520  175.1720  137.6240 C   0  0  0  0  0  2  0  0  0  0  0  0
  192.6490  175.1340  137.0940 N   0  0  0  0  0  2  0  0  0  0  0  0
  190.8140  176.8990  138.8480 C   0  0  1  0  0  3  0  0  0  0  0  0
  191.3000  173.2640  136.7990 O   0  0  0  0  0  0  0  0  0  0  0  0
  189.5360  177.4510  144.8150 C   0  0  0  0  0  0  0  0  0  0  0  0
  191.6550  178.2590  143.9540 C   0  0  0  0  0  3  0  0  0  0  0  0
  190.7950  178.0320  145.0300 C   0  0  0  0  0  3  0  0  0  0  0  0
  189.9940  177.3570  142.4260 C   0  0  0  0  0  0  0  0  0  0  0  0
  191.2610  177.9150  142.6590 C   0  0  0  0  0  3  0  0  0  0  0  0
  189.1470  177.1070  143.5170 C   0  0  0  0  0  3  0  0  0  0  0  0
  188.5980  177.1850  145.9500 C   0  0  0  0  0  3  0  0  0  0  0  0
  189.2160  177.5920  147.2760 C   0  0  0  0  0  1  0  0  0  0  0  0
  187.2760  177.9020  145.7490 C   0  0  0  0  0  1  0  0  0  0  0  0
  188.1070  178.0790  138.3000 C   0  0  0  0  0  2  0  0  0  0  0  0
  188.7630  178.8380  137.2000 C   0  0  0  0  0  0  0  0  0  0  0  0
  189.0110  180.0630  137.3410 O   0  0  0  0  0  1  0  0  0  0  0  0
  189.0740  178.2020  136.0060 O   0  0  0  0  0  0  0  0  0  0  0  0
  1 13  1  6  0  0  0
  1  5  1  0  0  0  0
  2 24  1  6  0  0  0
  2  1  1  0  0  0  0
  2  4  1  0  0  0  0
  2  3  1  0  0  0  0
  4  3  1  1  0  0  0
  4  5  1  0  0  0  0
  5 18  1  1  0  0  0
  6 10  2  0  0  0  0
  7 11  1  0  0  0  0
 10  8  1  0  0  0  0
 11  9  1  0  0  0  0
 12  7  1  0  0  0  0
 12 10  1  0  0  0  0
 13  9  1  0  0  0  0
 13  8  1  1  0  0  0
 14  7  2  0  0  0  0
 15 17  1  0  0  0  0
 15 21  1  0  0  0  0
 16 17  2  0  0  0  0
 18 19  2  0  0  0  0
 18 20  1  0  0  0  0
 19 16  1  0  0  0  0
 20 15  2  0  0  0  0
 21 22  1  0  0  0  0
 23 21  1  0  0  0  0
 25 26  1  0  0  0  0
 25 24  1  0  0  0  0
 27 25  2  0  0  0  0
M  END
>  <MODEL>
1

>  <REMARK>
 VINA RESULT:      -8.1      0.000      0.000
  Name = 
  5 active torsions:
  status: ('A' for Active; 'I' for Inactive)
    1  A    between atoms: C_1  and  C_17
    2  A    between atoms: C_4  and  C_7
    3  A    between atoms: C_9  and  C_24
    4  A    between atoms: C_10  and  C_17
    5  A    between atoms: C_21  and  C_27
                            x       y       z     vdW  Elec       q    Type
                         _______ _______ _______ _____ _____    ______ ____

>  <TORSDO>
F 5

$$$$
=
 OpenBabel11062415443D

 27 30  0  0  1  0  0  0  0  0999 V2000
  188.6640  178.0710  144.1560 C   0  0  1  0  0  3  0  0  0  0  0  0
  189.0700  177.4190  142.8370 C   0  0  2  0  0  0  0  0  0  0  0  0
  188.0630  177.3570  141.8590 O   0  0  0  0  0  0  0  0  0  0  0  0
  187.9310  176.4630  142.9370 C   0  0  2  0  0  3  0  0  0  0  0  0
  187.4630  177.1460  144.2220 C   0  0  2  0  0  3  0  0  0  0  0  0
  189.3190  178.3510  148.7490 O   0  0  0  0  0  0  0  0  0  0  0  0
  191.7680  176.3810  146.9030 C   0  0  0  0  0  0  0  0  0  0  0  0
  188.8640  177.5130  146.5780 C   0  0  0  0  0  2  0  0  0  0  0  0
  190.3940  176.6420  144.9880 O   0  0  0  0  0  0  0  0  0  0  0  0
  189.7290  177.6400  147.7940 C   0  0  0  0  0  0  0  0  0  0  0  0
  191.6650  176.9020  145.5060 C   0  0  0  0  0  2  0  0  0  0  0  0
  190.9450  176.8970  147.9560 N   0  0  0  0  0  2  0  0  0  0  0  0
  189.6380  177.7770  145.2970 C   0  0  1  0  0  3  0  0  0  0  0  0
  192.6440  175.5190  147.1710 O   0  0  0  0  0  0  0  0  0  0  0  0
  184.2090  178.4210  142.6910 C   0  0  0  0  0  0  0  0  0  0  0  0
  184.3320  179.1830  144.9910 C   0  0  0  0  0  3  0  0  0  0  0  0
  183.6520  179.1180  143.7730 C   0  0  0  0  0  3  0  0  0  0  0  0
  186.1560  177.8820  144.0490 C   0  0  0  0  0  0  0  0  0  0  0  0
  185.5740  178.5610  145.1310 C   0  0  0  0  0  3  0  0  0  0  0  0
  185.4530  177.7980  142.8390 C   0  0  0  0  0  3  0  0  0  0  0  0
  183.4980  178.3240  141.3780 C   0  0  0  0  0  3  0  0  0  0  0  0
  182.0670  178.8200  141.4940 C   0  0  0  0  0  1  0  0  0  0  0  0
  184.2320  179.0950  140.2980 C   0  0  0  0  0  1  0  0  0  0  0  0
  190.3290  176.5870  142.6270 C   0  0  0  0  0  2  0  0  0  0  0  0
  190.9430  176.9110  141.3100 C   0  0  0  0  0  0  0  0  0  0  0  0
  191.8250  177.8050  141.2300 O   0  0  0  0  0  1  0  0  0  0  0  0
  190.5200  176.2510  140.1650 O   0  0  0  0  0  0  0  0  0  0  0  0
  1  5  1  0  0  0  0
  1 13  1  1  0  0  0
  2 24  1  6  0  0  0
  2  4  1  0  0  0  0
  2  1  1  0  0  0  0
  3  2  1  0  0  0  0
  4  3  1  6  0  0  0
  4  5  1  0  0  0  0
  5 18  1  6  0  0  0
  7 14  2  0  0  0  0
  7 12  1  0  0  0  0
  8 10  1  0  0  0  0
  9 13  1  0  0  0  0
  9 11  1  0  0  0  0
 10 12  1  0  0  0  0
 10  6  2  0  0  0  0
 11  7  1  0  0  0  0
 13  8  1  1  0  0  0
 15 20  2  0  0  0  0
 15 17  1  0  0  0  0
 16 19  1  0  0  0  0
 17 16  2  0  0  0  0
 18 19  2  0  0  0  0
 20 18  1  0  0  0  0
 21 22  1  0  0  0  0
 21 15  1  0  0  0  0
 23 21  1  0  0  0  0
 25 24  1  0  0  0  0
 26 25  1  0  0  0  0
 27 25  2  0  0  0  0
M  END
>  <MODEL>
2

>  <REMARK>
 VINA RESULT:      -7.8      4.224      7.126
  Name = 
  5 active torsions:
  status: ('A' for Active; 'I' for Inactive)
    1  A    between atoms: C_1  and  C_17
    2  A    between atoms: C_4  and  C_7
    3  A    between atoms: C_9  and  C_24
    4  A    between atoms: C_10  and  C_17
    5  A    between atoms: C_21  and  C_27
                            x       y       z     vdW  Elec       q    Type
                         _______ _______ _______ _____ _____    ______ ____

>  <TORSDO>
F 5

$$$$
=
 OpenBabel11062415443D

 27 30  0  0  1  0  0  0  0  0999 V2000
  188.8220  177.9240  142.1880 C   0  0  1  0  0  3  0  0  0  0  0  0
  187.3190  178.0540  142.4280 C   0  0  2  0  0  0  0  0  0  0  0  0
  186.9150  177.9930  143.7720 O   0  0  0  0  0  0  0  0  0  0  0  0
  187.3110  176.7740  143.1910 C   0  0  2  0  0  3  0  0  0  0  0  0
  188.8260  176.6590  143.0250 C   0  0  2  0  0  3  0  0  0  0  0  0
  187.7490  178.8140  137.7540 O   0  0  0  0  0  0  0  0  0  0  0  0
  190.8280  176.9450  138.3080 C   0  0  0  0  0  0  0  0  0  0  0  0
  188.8440  178.8110  139.8580 C   0  0  0  0  0  2  0  0  0  0  0  0
  190.5420  177.3440  140.6280 O   0  0  0  0  0  0  0  0  0  0  0  0
  188.7570  178.4410  138.4090 C   0  0  0  0  0  0  0  0  0  0  0  0
  190.6390  176.3400  139.6620 C   0  0  0  0  0  2  0  0  0  0  0  0
  189.8270  177.7810  137.7160 N   0  0  0  0  0  2  0  0  0  0  0  0
  189.1740  177.6130  140.7330 C   0  0  1  0  0  3  0  0  0  0  0  0
  191.8600  176.6570  137.6480 O   0  0  0  0  0  0  0  0  0  0  0  0
  189.5410  177.1710  146.7380 C   0  0  0  0  0  0  0  0  0  0  0  0
  191.6370  176.7240  145.6030 C   0  0  0  0  0  3  0  0  0  0  0  0
  190.9320  176.9960  146.7760 C   0  0  0  0  0  3  0  0  0  0  0  0
  189.5710  176.8320  144.3280 C   0  0  0  0  0  0  0  0  0  0  0  0
  190.9590  176.6330  144.3850 C   0  0  0  0  0  3  0  0  0  0  0  0
  188.8670  177.0770  145.5160 C   0  0  0  0  0  3  0  0  0  0  0  0
  188.7570  177.4520  147.9820 C   0  0  0  0  0  3  0  0  0  0  0  0
  189.4820  178.4470  148.8710 C   0  0  0  0  0  1  0  0  0  0  0  0
  187.3680  177.9630  147.6510 C   0  0  0  0  0  1  0  0  0  0  0  0
  186.2510  177.9340  141.3490 C   0  0  0  0  0  2  0  0  0  0  0  0
  185.4670  179.1960  141.2610 C   0  0  0  0  0  0  0  0  0  0  0  0
  185.1920  179.8410  142.3060 O   0  0  0  0  0  1  0  0  0  0  0  0
  185.0120  179.6470  140.0290 O   0  0  0  0  0  0  0  0  0  0  0  0
  1 13  1  6  0  0  0
  1  2  1  0  0  0  0
  1  5  1  0  0  0  0
  2 24  1  6  0  0  0
  2  4  1  0  0  0  0
  2  3  1  0  0  0  0
  4  3  1  1  0  0  0
  5  4  1  0  0  0  0
  5 18  1  1  0  0  0
  6 10  2  0  0  0  0
  7 11  1  0  0  0  0
  9 13  1  0  0  0  0
 10  8  1  0  0  0  0
 11  9  1  0  0  0  0
 12  7  1  0  0  0  0
 12 10  1  0  0  0  0
 13  8  1  6  0  0  0
 14  7  2  0  0  0  0
 15 17  1  0  0  0  0
 15 21  1  0  0  0  0
 16 17  2  0  0  0  0
 18 19  2  0  0  0  0
 18 20  1  0  0  0  0
 19 16  1  0  0  0  0
 20 15  2  0  0  0  0
 21 22  1  0  0  0  0
 23 21  1  0  0  0  0
 25 24  1  0  0  0  0
 25 26  1  0  0  0  0
 27 25  2  0  0  0  0
M  END
>  <MODEL>
3

>  <REMARK>
 VINA RESULT:      -7.7      2.023      3.487
  Name = 
  5 active torsions:
  status: ('A' for Active; 'I' for Inactive)
    1  A    between atoms: C_1  and  C_17
    2  A    between atoms: C_4  and  C_7
    3  A    between atoms: C_9  and  C_24
    4  A    between atoms: C_10  and  C_17
    5  A    between atoms: C_21  and  C_27
                            x       y       z     vdW  Elec       q    Type
                         _______ _______ _______ _____ _____    ______ ____

>  <TORSDO>
F 5

$$$$
=
 OpenBabel11062415443D

 27 30  0  0  1  0  0  0  0  0999 V2000
  189.2560  177.3620  142.1720 C   0  0  1  0  0  3  0  0  0  0  0  0
  190.5490  177.1850  141.3800 C   0  0  2  0  0  0  0  0  0  0  0  0
  191.6900  176.8900  142.1440 O   0  0  0  0  0  0  0  0  0  0  0  0
  191.2250  178.2160  142.2170 C   0  0  2  0  0  3  0  0  0  0  0  0
  189.9650  178.3590  143.0700 C   0  0  2  0  0  3  0  0  0  0  0  0
  187.8330  178.5290  137.9050 O   0  0  0  0  0  0  0  0  0  0  0  0
  185.3960  178.9730  140.5770 C   0  0  0  0  0  0  0  0  0  0  0  0
  188.0540  177.4200  139.9890 C   0  0  0  0  0  2  0  0  0  0  0  0
  186.9230  177.8790  142.0240 O   0  0  0  0  0  0  0  0  0  0  0  0
  187.3110  178.2950  139.0250 C   0  0  0  0  0  0  0  0  0  0  0  0
  186.2340  179.0740  141.8110 C   0  0  0  0  0  2  0  0  0  0  0  0
  185.9860  178.7780  139.2870 N   0  0  0  0  0  2  0  0  0  0  0  0
  188.1490  178.0470  141.3710 C   0  0  1  0  0  3  0  0  0  0  0  0
  184.1510  179.1310  140.6700 O   0  0  0  0  0  0  0  0  0  0  0  0
  189.2090  177.2640  146.6450 C   0  0  0  0  0  0  0  0  0  0  0  0
  191.5250  176.7390  146.1500 C   0  0  0  0  0  3  0  0  0  0  0  0
  190.4470  176.7330  147.0370 C   0  0  0  0  0  3  0  0  0  0  0  0
  190.1500  177.8400  144.4760 C   0  0  0  0  0  0  0  0  0  0  0  0
  191.3750  177.2820  144.8720 C   0  0  0  0  0  3  0  0  0  0  0  0
  189.0650  177.8040  145.3640 C   0  0  0  0  0  3  0  0  0  0  0  0
  188.0330  177.2600  147.5700 C   0  0  0  0  0  3  0  0  0  0  0  0
  188.3370  178.0270  148.8450 C   0  0  0  0  0  1  0  0  0  0  0  0
  186.8030  177.8370  146.8960 C   0  0  0  0  0  1  0  0  0  0  0  0
  190.7440  177.5970  139.9260 C   0  0  0  0  0  2  0  0  0  0  0  0
  191.4860  176.5380  139.1890 C   0  0  0  0  0  0  0  0  0  0  0  0
  192.7120  176.6820  138.9440 O   0  0  0  0  0  1  0  0  0  0  0  0
  190.8200  175.4050  138.7430 O   0  0  0  0  0  0  0  0  0  0  0  0
  1 13  1  6  0  0  0
  1  5  1  0  0  0  0
  2 24  1  6  0  0  0
  2  3  1  0  0  0  0
  2  1  1  0  0  0  0
  2  4  1  0  0  0  0
  4  3  1  1  0  0  0
  4  5  1  0  0  0  0
  5 18  1  1  0  0  0
  6 10  2  0  0  0  0
  7 14  2  0  0  0  0
  7 11  1  0  0  0  0
 10 12  1  0  0  0  0
 10  8  1  0  0  0  0
 11  9  1  0  0  0  0
 12  7  1  0  0  0  0
 13  8  1  6  0  0  0
 13  9  1  0  0  0  0
 15 17  1  0  0  0  0
 15 21  1  0  0  0  0
 16 17  2  0  0  0  0
 18 19  2  0  0  0  0
 18 20  1  0  0  0  0
 19 16  1  0  0  0  0
 20 15  2  0  0  0  0
 21 22  1  0  0  0  0
 23 21  1  0  0  0  0
 25 24  1  0  0  0  0
 26 25  1  0  0  0  0
 27 25  2  0  0  0  0
M  END
>  <MODEL>
4

>  <REMARK>
 VINA RESULT:      -7.7      2.320      4.628
  Name = 
  5 active torsions:
  status: ('A' for Active; 'I' for Inactive)
    1  A    between atoms: C_1  and  C_17
    2  A    between atoms: C_4  and  C_7
    3  A    between atoms: C_9  and  C_24
    4  A    between atoms: C_10  and  C_17
    5  A    between atoms: C_21  and  C_27
                            x       y       z     vdW  Elec       q    Type
                         _______ _______ _______ _____ _____    ______ ____

>  <TORSDO>
F 5

$$$$
=
 OpenBabel11062415443D

 27 30  0  0  1  0  0  0  0  0999 V2000
  186.5670  177.5020  143.9440 C   0  0  1  0  0  3  0  0  0  0  0  0
  186.8070  177.6080  145.4480 C   0  0  2  0  0  0  0  0  0  0  0  0
  185.6870  177.9730  146.2140 O   0  0  0  0  0  0  0  0  0  0  0  0
  186.2770  179.0010  145.4540 C   0  0  2  0  0  3  0  0  0  0  0  0
  185.9600  178.8920  143.9620 C   0  0  2  0  0  3  0  0  0  0  0  0
  190.8020  175.6210  143.5910 O   0  0  0  0  0  0  0  0  0  0  0  0
  189.7020  177.6210  140.7500 C   0  0  0  0  0  0  0  0  0  0  0  0
  188.5120  176.1160  143.2280 C   0  0  0  0  0  2  0  0  0  0  0  0
  187.5720  177.7480  141.7850 O   0  0  0  0  0  0  0  0  0  0  0  0
  189.9540  176.1490  142.8260 C   0  0  0  0  0  0  0  0  0  0  0  0
  188.6490  178.5110  141.3270 C   0  0  0  0  0  2  0  0  0  0  0  0
  190.3890  176.6560  141.5560 N   0  0  0  0  0  2  0  0  0  0  0  0
  187.8600  177.4850  143.1280 C   0  0  1  0  0  3  0  0  0  0  0  0
  190.0370  177.7720  139.5470 O   0  0  0  0  0  0  0  0  0  0  0  0
  182.6370  178.5460  142.1220 C   0  0  0  0  0  0  0  0  0  0  0  0
  182.1810  178.9200  144.4750 C   0  0  0  0  0  3  0  0  0  0  0  0
  181.7230  178.6970  143.1750 C   0  0  0  0  0  3  0  0  0  0  0  0
  184.4770  178.8790  143.6790 C   0  0  0  0  0  0  0  0  0  0  0  0
  183.5520  179.0020  144.7270 C   0  0  0  0  0  3  0  0  0  0  0  0
  184.0080  178.6270  142.3810 C   0  0  0  0  0  3  0  0  0  0  0  0
  182.1750  178.2930  140.7210 C   0  0  0  0  0  3  0  0  0  0  0  0
  183.0400  177.2470  140.0400 C   0  0  0  0  0  1  0  0  0  0  0  0
  180.7200  177.8660  140.6920 C   0  0  0  0  0  1  0  0  0  0  0  0
  188.1780  177.6550  146.1100 C   0  0  0  0  0  2  0  0  0  0  0  0
  188.0390  177.5050  147.5850 C   0  0  0  0  0  0  0  0  0  0  0  0
  187.9570  176.3590  148.0980 O   0  0  0  0  0  0  0  0  0  0  0  0
  187.9690  178.6310  148.3940 O   0  0  0  0  0  1  0  0  0  0  0  0
  1 13  1  6  0  0  0
  1  5  1  0  0  0  0
  1  2  1  0  0  0  0
  2  4  1  0  0  0  0
  2 24  1  1  0  0  0
  2  3  1  0  0  0  0
  4  3  1  1  0  0  0
  5 18  1  1  0  0  0
  5  4  1  0  0  0  0
  7 11  1  0  0  0  0
  7 12  1  0  0  0  0
  9 13  1  0  0  0  0
 10  8  1  0  0  0  0
 10  6  2  0  0  0  0
 11  9  1  0  0  0  0
 12 10  1  0  0  0  0
 13  8  1  6  0  0  0
 14  7  2  0  0  0  0
 15 20  2  0  0  0  0
 15 17  1  0  0  0  0
 16 19  1  0  0  0  0
 17 16  2  0  0  0  0
 18 19  2  0  0  0  0
 20 18  1  0  0  0  0
 21 15  1  0  0  0  0
 22 21  1  0  0  0  0
 23 21  1  0  0  0  0
 24 25  1  0  0  0  0
 25 26  2  0  0  0  0
 25 27  1  0  0  0  0
M  END
>  <MODEL>
5

>  <REMARK>
 VINA RESULT:      -7.4      4.344      7.415
  Name = 
  5 active torsions:
  status: ('A' for Active; 'I' for Inactive)
    1  A    between atoms: C_1  and  C_17
    2  A    between atoms: C_4  and  C_7
    3  A    between atoms: C_9  and  C_24
    4  A    between atoms: C_10  and  C_17
    5  A    between atoms: C_21  and  C_27
                            x       y       z     vdW  Elec       q    Type
                         _______ _______ _______ _____ _____    ______ ____

>  <TORSDO>
F 5

$$$$
=
 OpenBabel11062415443D

 27 30  0  0  1  0  0  0  0  0999 V2000
  189.0860  177.4940  144.5080 C   0  0  1  0  0  3  0  0  0  0  0  0
  189.2640  177.2610  143.0090 C   0  0  2  0  0  0  0  0  0  0  0  0
  188.1840  177.6610  142.2040 O   0  0  0  0  0  0  0  0  0  0  0  0
  187.9900  176.4890  142.9590 C   0  0  2  0  0  3  0  0  0  0  0  0
  187.7540  176.7700  144.4420 C   0  0  2  0  0  3  0  0  0  0  0  0
  192.4310  174.2680  144.4270 O   0  0  0  0  0  0  0  0  0  0  0  0
  192.0550  176.1010  147.5540 C   0  0  0  0  0  0  0  0  0  0  0  0
  191.3020  176.3510  144.5230 C   0  0  0  0  0  2  0  0  0  0  0  0
  190.5030  177.5030  146.4370 O   0  0  0  0  0  0  0  0  0  0  0  0
  192.1050  175.2500  145.1440 C   0  0  0  0  0  0  0  0  0  0  0  0
  190.6520  176.6110  147.5020 C   0  0  0  0  0  2  0  0  0  0  0  0
  192.6090  175.3250  146.4850 N   0  0  0  0  0  2  0  0  0  0  0  0
  190.0860  176.7130  145.3600 C   0  0  1  0  0  3  0  0  0  0  0  0
  192.7400  176.3010  148.5900 O   0  0  0  0  0  0  0  0  0  0  0  0
  184.5420  178.7510  143.8850 C   0  0  0  0  0  0  0  0  0  0  0  0
  185.2120  179.0030  146.2030 C   0  0  0  0  0  3  0  0  0  0  0  0
  184.3190  179.2790  145.1650 C   0  0  0  0  0  3  0  0  0  0  0  0
  186.5830  177.6930  144.6830 C   0  0  0  0  0  0  0  0  0  0  0  0
  186.3340  178.2060  145.9650 C   0  0  0  0  0  3  0  0  0  0  0  0
  185.6660  177.9520  143.6540 C   0  0  0  0  0  3  0  0  0  0  0  0
  183.5960  179.0210  142.7570 C   0  0  0  0  0  3  0  0  0  0  0  0
  183.7870  178.0180  141.6320 C   0  0  0  0  0  1  0  0  0  0  0  0
  182.1560  179.0020  143.2320 C   0  0  0  0  0  1  0  0  0  0  0  0
  190.3400  176.3810  142.3860 C   0  0  0  0  0  2  0  0  0  0  0  0
  190.8020  176.9710  141.0990 C   0  0  0  0  0  0  0  0  0  0  0  0
  191.6810  177.8710  141.0990 O   0  0  0  0  0  1  0  0  0  0  0  0
  190.2410  176.5510  139.9010 O   0  0  0  0  0  0  0  0  0  0  0  0
  1 13  1  1  0  0  0
  2 24  1  6  0  0  0
  2  1  1  0  0  0  0
  3  2  1  0  0  0  0
  4  3  1  6  0  0  0
  4  2  1  0  0  0  0
  4  5  1  0  0  0  0
  5  1  1  0  0  0  0
  5 18  1  6  0  0  0
  6 10  2  0  0  0  0
  7 14  2  0  0  0  0
  8 10  1  0  0  0  0
  9 11  1  0  0  0  0
 10 12  1  0  0  0  0
 11  7  1  0  0  0  0
 12  7  1  0  0  0  0
 13  8  1  6  0  0  0
 13  9  1  0  0  0  0
 15 17  1  0  0  0  0
 17 16  2  0  0  0  0
 18 19  2  0  0  0  0
 19 16  1  0  0  0  0
 20 15  2  0  0  0  0
 20 18  1  0  0  0  0
 21 23  1  0  0  0  0
 21 15  1  0  0  0  0
 22 21  1  0  0  0  0
 25 24  1  0  0  0  0
 26 25  1  0  0  0  0
 27 25  2  0  0  0  0
M  END
>  <MODEL>
6

>  <REMARK>
 VINA RESULT:      -7.3      3.964      6.586
  Name = 
  5 active torsions:
  status: ('A' for Active; 'I' for Inactive)
    1  A    between atoms: C_1  and  C_17
    2  A    between atoms: C_4  and  C_7
    3  A    between atoms: C_9  and  C_24
    4  A    between atoms: C_10  and  C_17
    5  A    between atoms: C_21  and  C_27
                            x       y       z     vdW  Elec       q    Type
                         _______ _______ _______ _____ _____    ______ ____

>  <TORSDO>
F 5

$$$$
=
 OpenBabel11062415443D

 27 30  0  0  1  0  0  0  0  0999 V2000
  185.2830  177.8970  143.3210 C   0  0  1  0  0  3  0  0  0  0  0  0
  184.7840  178.6780  144.5350 C   0  0  2  0  0  0  0  0  0  0  0  0
  183.4210  179.0180  144.5150 O   0  0  0  0  0  0  0  0  0  0  0  0
  184.2530  179.7520  143.6490 C   0  0  2  0  0  3  0  0  0  0  0  0
  184.6780  178.9540  142.4170 C   0  0  2  0  0  3  0  0  0  0  0  0
  189.2520  176.8350  145.4930 O   0  0  0  0  0  0  0  0  0  0  0  0
  189.5380  177.6560  141.9540 C   0  0  0  0  0  0  0  0  0  0  0  0
  187.3790  176.7560  144.0400 C   0  0  0  0  0  2  0  0  0  0  0  0
  187.1690  177.6770  141.8630 O   0  0  0  0  0  0  0  0  0  0  0  0
  188.8420  176.9410  144.3080 C   0  0  0  0  0  0  0  0  0  0  0  0
  188.3100  178.4600  141.6740 C   0  0  0  0  0  2  0  0  0  0  0  0
  189.8010  177.1220  143.2560 N   0  0  0  0  0  2  0  0  0  0  0  0
  186.8060  177.8850  143.1990 C   0  0  1  0  0  3  0  0  0  0  0  0
  190.3900  177.5040  141.0410 O   0  0  0  0  0  0  0  0  0  0  0  0
  181.1380  178.5320  141.0600 C   0  0  0  0  0  0  0  0  0  0  0  0
  182.6230  177.0770  139.8090 C   0  0  0  0  0  3  0  0  0  0  0  0
  181.3440  177.5840  140.0460 C   0  0  0  0  0  3  0  0  0  0  0  0
  183.5040  178.4330  141.6240 C   0  0  0  0  0  0  0  0  0  0  0  0
  183.7000  177.5060  140.5890 C   0  0  0  0  0  3  0  0  0  0  0  0
  182.2200  178.9590  141.8350 C   0  0  0  0  0  3  0  0  0  0  0  0
  179.7800  179.1020  141.3280 C   0  0  0  0  0  3  0  0  0  0  0  0
  179.4380  179.0270  142.8060 C   0  0  0  0  0  1  0  0  0  0  0  0
  179.6810  180.5350  140.8410 C   0  0  0  0  0  1  0  0  0  0  0  0
  185.6800  179.3550  145.5630 C   0  0  0  0  0  2  0  0  0  0  0  0
  185.6690  178.5860  146.8380 C   0  0  0  0  0  0  0  0  0  0  0  0
  184.5750  178.2530  147.3630 O   0  0  0  0  0  0  0  0  0  0  0  0
  186.8640  178.2620  147.4650 O   0  0  0  0  0  1  0  0  0  0  0  0
  1 13  1  1  0  0  0
  1  2  1  0  0  0  0
  2 24  1  1  0  0  0
  3  2  1  0  0  0  0
  4  3  1  6  0  0  0
  4  2  1  0  0  0  0
  5 18  1  1  0  0  0
  5  1  1  0  0  0  0
  5  4  1  0  0  0  0
  7 12  1  0  0  0  0
  8 10  1  0  0  0  0
  9 13  1  0  0  0  0
 10  6  2  0  0  0  0
 11  9  1  0  0  0  0
 11  7  1  0  0  0  0
 12 10  1  0  0  0  0
 13  8  1  1  0  0  0
 14  7  2  0  0  0  0
 15 21  1  0  0  0  0
 15 20  1  0  0  0  0
 16 17  1  0  0  0  0
 16 19  2  0  0  0  0
 17 15  2  0  0  0  0
 18 20  2  0  0  0  0
 19 18  1  0  0  0  0
 21 22  1  0  0  0  0
 23 21  1  0  0  0  0
 24 25  1  0  0  0  0
 25 26  2  0  0  0  0
 25 27  1  0  0  0  0
M  END
>  <MODEL>
7

>  <REMARK>
 VINA RESULT:      -7.3      5.268      8.114
  Name = 
  5 active torsions:
  status: ('A' for Active; 'I' for Inactive)
    1  A    between atoms: C_1  and  C_17
    2  A    between atoms: C_4  and  C_7
    3  A    between atoms: C_9  and  C_24
    4  A    between atoms: C_10  and  C_17
    5  A    between atoms: C_21  and  C_27
                            x       y       z     vdW  Elec       q    Type
                         _______ _______ _______ _____ _____    ______ ____

>  <TORSDO>
F 5

$$$$
=
 OpenBabel11062415443D

 27 30  0  0  1  0  0  0  0  0999 V2000
  185.2420  177.9220  143.1960 C   0  0  1  0  0  3  0  0  0  0  0  0
  184.7650  178.6450  144.4540 C   0  0  2  0  0  0  0  0  0  0  0  0
  183.4010  178.9770  144.4790 O   0  0  0  0  0  0  0  0  0  0  0  0
  184.2090  179.7540  143.6280 C   0  0  2  0  0  3  0  0  0  0  0  0
  184.6110  179.0140  142.3530 C   0  0  2  0  0  3  0  0  0  0  0  0
  189.2620  176.7570  145.2150 O   0  0  0  0  0  0  0  0  0  0  0  0
  189.4670  177.7850  141.7240 C   0  0  0  0  0  0  0  0  0  0  0  0
  187.3590  176.7530  143.8010 C   0  0  0  0  0  2  0  0  0  0  0  0
  187.0960  177.7980  141.6870 O   0  0  0  0  0  0  0  0  0  0  0  0
  188.8260  176.9300  144.0470 C   0  0  0  0  0  0  0  0  0  0  0  0
  188.2290  178.5970  141.5190 C   0  0  0  0  0  2  0  0  0  0  0  0
  189.7610  177.1770  142.9870 N   0  0  0  0  0  2  0  0  0  0  0  0
  186.7620  177.9250  143.0400 C   0  0  1  0  0  3  0  0  0  0  0  0
  190.2990  177.6910  140.7850 O   0  0  0  0  0  0  0  0  0  0  0  0
  182.4750  176.9920  139.9230 C   0  0  0  0  0  0  0  0  0  0  0  0
  181.0240  178.4830  141.1710 C   0  0  0  0  0  3  0  0  0  0  0  0
  181.1930  177.4900  140.2050 C   0  0  0  0  0  3  0  0  0  0  0  0
  183.4220  178.5210  141.5630 C   0  0  0  0  0  0  0  0  0  0  0  0
  182.1320  178.9910  141.8540 C   0  0  0  0  0  3  0  0  0  0  0  0
  183.5800  177.5030  140.6120 C   0  0  0  0  0  3  0  0  0  0  0  0
  182.6850  175.9190  138.9020 C   0  0  0  0  0  3  0  0  0  0  0  0
  181.3650  175.2940  138.4860 C   0  0  0  0  0  1  0  0  0  0  0  0
  183.4140  176.4560  137.6850 C   0  0  0  0  0  1  0  0  0  0  0  0
  185.6810  179.2820  145.4910 C   0  0  0  0  0  2  0  0  0  0  0  0
  185.6750  178.4760  146.7430 C   0  0  0  0  0  0  0  0  0  0  0  0
  184.5920  178.2530  147.3440 O   0  0  0  0  0  1  0  0  0  0  0  0
  186.8680  177.9960  147.2660 O   0  0  0  0  0  0  0  0  0  0  0  0
  1 13  1  1  0  0  0
  1  2  1  0  0  0  0
  2  3  1  0  0  0  0
  2 24  1  1  0  0  0
  4  2  1  0  0  0  0
  4  3  1  6  0  0  0
  5 18  1  1  0  0  0
  5  1  1  0  0  0  0
  5  4  1  0  0  0  0
  7 12  1  0  0  0  0
  8 10  1  0  0  0  0
  9 13  1  0  0  0  0
 10  6  2  0  0  0  0
 11  9  1  0  0  0  0
 11  7  1  0  0  0  0
 12 10  1  0  0  0  0
 13  8  1  1  0  0  0
 14  7  2  0  0  0  0
 15 17  2  0  0  0  0
 15 20  1  0  0  0  0
 16 19  2  0  0  0  0
 17 16  1  0  0  0  0
 18 19  1  0  0  0  0
 20 18  2  0  0  0  0
 21 15  1  0  0  0  0
 22 21  1  0  0  0  0
 23 21  1  0  0  0  0
 24 25  1  0  0  0  0
 25 27  2  0  0  0  0
 25 26  1  0  0  0  0
M  END
>  <MODEL>
8

>  <REMARK>
 VINA RESULT:      -7.2      4.847      8.116
  Name = 
  5 active torsions:
  status: ('A' for Active; 'I' for Inactive)
    1  A    between atoms: C_1  and  C_17
    2  A    between atoms: C_4  and  C_7
    3  A    between atoms: C_9  and  C_24
    4  A    between atoms: C_10  and  C_17
    5  A    between atoms: C_21  and  C_27
                            x       y       z     vdW  Elec       q    Type
                         _______ _______ _______ _____ _____    ______ ____

>  <TORSDO>
F 5

$$$$
=
 OpenBabel11062415443D

 27 30  0  0  1  0  0  0  0  0999 V2000
  187.0390  178.6240  142.1760 C   0  0  1  0  0  3  0  0  0  0  0  0
  185.6820  178.8690  141.5200 C   0  0  2  0  0  0  0  0  0  0  0  0
  184.6060  179.0470  142.4060 O   0  0  0  0  0  0  0  0  0  0  0  0
  185.0880  177.7310  142.2770 C   0  0  2  0  0  3  0  0  0  0  0  0
  186.4170  177.5120  142.9990 C   0  0  2  0  0  3  0  0  0  0  0  0
  188.3610  178.4300  137.7240 O   0  0  0  0  0  0  0  0  0  0  0  0
  190.7410  177.1230  140.1560 C   0  0  0  0  0  0  0  0  0  0  0  0
  188.2360  179.0020  140.0220 C   0  0  0  0  0  2  0  0  0  0  0  0
  189.3150  177.9550  141.8580 O   0  0  0  0  0  0  0  0  0  0  0  0
  188.8990  178.3320  138.8580 C   0  0  0  0  0  0  0  0  0  0  0  0
  189.8930  176.7940  141.3420 C   0  0  0  0  0  2  0  0  0  0  0  0
  190.1750  177.6840  138.9650 N   0  0  0  0  0  2  0  0  0  0  0  0
  188.0810  178.0640  141.2080 C   0  0  1  0  0  3  0  0  0  0  0  0
  191.9660  176.8380  140.1820 O   0  0  0  0  0  0  0  0  0  0  0  0
  187.3380  177.7960  146.6910 C   0  0  0  0  0  0  0  0  0  0  0  0
  185.3060  179.0620  146.3020 C   0  0  0  0  0  3  0  0  0  0  0  0
  186.3030  178.6140  147.1690 C   0  0  0  0  0  3  0  0  0  0  0  0
  186.3460  177.8520  144.4690 C   0  0  0  0  0  0  0  0  0  0  0  0
  185.3310  178.6910  144.9560 C   0  0  0  0  0  3  0  0  0  0  0  0
  187.3600  177.4300  145.3410 C   0  0  0  0  0  3  0  0  0  0  0  0
  188.4280  177.3110  147.5940 C   0  0  0  0  0  3  0  0  0  0  0  0
  189.7290  177.1300  146.8330 C   0  0  0  0  0  1  0  0  0  0  0  0
  188.6330  178.2560  148.7630 C   0  0  0  0  0  1  0  0  0  0  0  0
  185.3700  178.6320  140.0480 C   0  0  0  0  0  2  0  0  0  0  0  0
  184.1450  179.3830  139.6570 C   0  0  0  0  0  0  0  0  0  0  0  0
  184.2450  180.5030  139.0930 O   0  0  0  0  0  0  0  0  0  0  0  0
  182.8900  178.8620  139.9430 O   0  0  0  0  0  1  0  0  0  0  0  0
  1 13  1  6  0  0  0
  1  5  1  0  0  0  0
  2 24  1  6  0  0  0
  2  1  1  0  0  0  0
  2  4  1  0  0  0  0
  2  3  1  0  0  0  0
  4  3  1  1  0  0  0
  4  5  1  0  0  0  0
  5 18  1  1  0  0  0
  6 10  2  0  0  0  0
  7 14  2  0  0  0  0
  7 11  1  0  0  0  0
 10 12  1  0  0  0  0
 10  8  1  0  0  0  0
 11  9  1  0  0  0  0
 12  7  1  0  0  0  0
 13  8  1  6  0  0  0
 13  9  1  0  0  0  0
 15 17  1  0  0  0  0
 15 21  1  0  0  0  0
 16 17  2  0  0  0  0
 18 19  2  0  0  0  0
 18 20  1  0  0  0  0
 19 16  1  0  0  0  0
 20 15  2  0  0  0  0
 21 23  1  0  0  0  0
 22 21  1  0  0  0  0
 25 27  1  0  0  0  0
 25 24  1  0  0  0  0
 26 25  2  0  0  0  0
M  END
>  <MODEL>
9

>  <REMARK>
 VINA RESULT:      -7.2      2.594      4.436
  Name = 
  5 active torsions:
  status: ('A' for Active; 'I' for Inactive)
    1  A    between atoms: C_1  and  C_17
    2  A    between atoms: C_4  and  C_7
    3  A    between atoms: C_9  and  C_24
    4  A    between atoms: C_10  and  C_17
    5  A    between atoms: C_21  and  C_27
                            x       y       z     vdW  Elec       q    Type
                         _______ _______ _______ _____ _____    ______ ____

>  <TORSDO>
F 5

$$$$
