=
 OpenBabel11062414203D

 45 49  0  0  1  0  0  0  0  0999 V2000
  184.6500  179.5020  141.9860 C   0  0  0  0  0  2  0  0  0  0  0  0
  182.6570  178.5640  142.8090 O   0  0  0  0  0  0  0  0  0  0  0  0
  183.4670  178.5890  141.8980 C   0  0  0  0  0  0  0  0  0  0  0  0
  183.3100  177.6330  140.7500 C   0  0  0  0  0  2  0  0  0  0  0  0
  185.0490  178.0430  139.1320 N   0  0  0  0  0  0  0  0  0  0  0  0
  183.7960  178.2110  139.4590 C   0  0  0  0  0  0  0  0  0  0  0  0
  182.8080  178.8910  138.5990 C   0  0  0  0  0  0  0  0  0  0  0  0
  181.3080  179.3860  136.8410 C   0  0  0  0  0  3  0  0  0  0  0  0
  182.4840  180.1650  138.7000 C   0  0  0  0  0  2  0  0  0  0  0  0
  182.1700  178.2650  137.4110 C   0  0  0  0  0  3  0  0  0  0  0  0
  181.5750  180.5420  137.6850 N   0  0  0  0  0  0  0  0  0  0  0  0
  185.7090  178.6330  138.0370 N   0  0  0  0  0  2  0  0  0  0  0  0
  188.3190  176.9330  135.7840 C   0  0  0  0  0  2  0  0  0  0  0  0
  185.5320  176.5680  136.7160 C   0  0  0  0  0  2  0  0  0  0  0  0
  187.8000  177.6940  137.0150 C   0  0  1  0  0  3  0  0  0  0  0  0
  187.5490  175.6330  135.5520 C   0  0  0  0  0  2  0  0  0  0  0  0
  186.0440  175.9020  135.4400 C   0  0  0  0  0  2  0  0  0  0  0  0
  186.2680  177.8850  136.9160 C   0  0  2  0  0  3  0  0  0  0  0  0
  190.3530  176.2440  139.1420 N   0  0  0  0  0  2  0  0  0  0  0  0
  188.9010  178.1320  139.2840 C   0  0  0  0  0  2  0  0  0  0  0  0
  188.3580  177.1120  138.3320 C   0  0  2  0  0  3  0  0  0  0  0  0
  189.9660  177.3610  139.9980 C   0  0  0  0  0  2  0  0  0  0  0  0
  189.4240  176.1590  138.0790 N   0  0  0  0  0  2  0  0  0  0  0  0
  185.2890  179.3380  143.2850 N   0  0  0  0  0  2  0  0  0  0  0  0
  187.3530  177.0110  144.9690 C   0  0  2  0  0  3  0  0  0  0  0  0
  188.7500  175.9250  143.2930 C   0  0  0  0  0  1  0  0  0  0  0  0
  185.9730  177.6270  144.8460 C   0  0  0  0  0  2  0  0  0  0  0  0
  188.4190  178.0960  144.8580 C   0  0  2  0  0  3  0  0  0  0  0  0
  187.0540  177.7870  142.6670 C   0  0  0  0  0  2  0  0  0  0  0  0
  188.0500  177.2190  143.6550 C   0  0  2  0  0  0  0  0  0  0  0  0
  185.7300  177.9620  143.3880 C   0  0  2  0  0  3  0  0  0  0  0  0
  189.7320  177.7390  145.5390 C   0  0  2  0  0  3  0  0  0  0  0  0
  189.7870  177.3660  146.8510 C   0  0  1  0  0  3  0  0  0  0  0  0
  192.8900  175.3300  148.0150 C   0  0  0  0  0  1  0  0  0  0  0  0
  191.6510  177.8610  148.2440 O   0  0  0  0  0  0  0  0  0  0  0  0
  191.6380  175.7020  147.3760 N   0  0  0  0  0  2  0  0  0  0  0  0
  191.0710  177.0080  147.5180 C   0  0  0  0  0  0  0  0  0  0  0  0
  188.0630  176.2870  148.1100 O   0  0  0  0  0  1  0  0  0  0  0  0
  187.9710  178.5730  148.0540 O   0  0  0  0  0  0  0  0  0  0  0  0
  188.5810  177.3680  147.7190 C   0  0  0  0  0  0  0  0  0  0  0  0
  190.8390  179.3880  144.1930 O   0  0  0  0  0  1  0  0  0  0  0  0
  191.0080  178.1610  144.8380 C   0  0  2  0  0  3  0  0  0  0  0  0
  191.8110  175.8360  144.3770 O   0  0  0  0  0  1  0  0  0  0  0  0
  191.5920  177.1290  143.9160 C   0  0  0  0  0  0  0  0  0  0  0  0
  191.9410  177.4380  142.7400 O   0  0  0  0  0  0  0  0  0  0  0  0
  1 24  1  0  0  0  0
  3  1  1  0  0  0  0
  3  2  2  0  0  0  0
  4  3  1  0  0  0  0
  5  6  2  0  0  0  0
  6  4  1  0  0  0  0
  7  9  1  0  0  0  0
  7  6  1  0  0  0  0
  8 10  1  0  0  0  0
  8 11  2  0  0  0  0
 10  7  2  0  0  0  0
 11  9  1  0  0  0  0
 12  5  1  0  0  0  0
 14 18  1  0  0  0  0
 15 13  1  6  0  0  0
 15 21  1  0  0  0  0
 16 13  1  0  0  0  0
 17 16  1  0  0  0  0
 17 14  1  0  0  0  0
 18 15  1  0  0  0  0
 18 12  1  1  0  0  0
 19 22  1  0  0  0  0
 20 22  1  0  0  0  0
 21 20  1  1  0  0  0
 23 21  1  0  0  0  0
 23 19  1  0  0  0  0
 25 27  1  6  0  0  0
 28 25  1  0  0  0  0
 28 32  1  1  0  0  0
 29 31  1  0  0  0  0
 29 30  1  0  0  0  0
 30 26  1  6  0  0  0
 30 28  1  0  0  0  0
 30 25  1  0  0  0  0
 31 24  1  1  0  0  0
 31 27  1  0  0  0  0
 32 42  1  1  0  0  0
 32 33  1  0  0  0  0
 33 37  1  1  0  0  0
 33 40  1  0  0  0  0
 36 37  1  0  0  0  0
 36 34  1  0  0  0  0
 37 35  2  0  0  0  0
 40 39  2  0  0  0  0
 40 38  1  0  0  0  0
 42 41  1  6  0  0  0
 44 43  1  0  0  0  0
 44 42  1  0  0  0  0
 45 44  2  0  0  0  0
M  END
>  <MODEL>
1

>  <REMARK>
 VINA RESULT:      -7.9      0.000      0.000
  Name = 
  14 active torsions:
  status: ('A' for Active; 'I' for Inactive)
    1  A    between atoms: C_2  and  C_17
    2  A    between atoms: C_7  and  C_30
    3  A    between atoms: C_7  and  N_33
    4  A    between atoms: N_10  and  N_27
    5  A    between atoms: C_12  and  C_25
    6  A    between atoms: C_17  and  C_28
    7  A    between atoms: C_19  and  C_35
    8  A    between atoms: C_19  and  C_38
    9  A    between atoms: C_23  and  C_32
   10  A    between atoms: C_23  and  C_36
   11  A    between atoms: C_26  and  C_38
   12  A    between atoms: N_27  and  C_45
   13  A    between atoms: C_28  and  C_30
   14  A    between atoms: N_33  and  C_44
                            x       y       z     vdW  Elec       q    Type
                         _______ _______ _______ _____ _____    ______ ____

>  <TORSDO>
F 14

$$$$
=
 OpenBabel11062414203D

 45 49  0  0  1  0  0  0  0  0999 V2000
  184.0790  179.3600  142.4450 C   0  0  0  0  0  2  0  0  0  0  0  0
  184.8420  179.6470  140.2390 O   0  0  0  0  0  0  0  0  0  0  0  0
  184.1410  178.9940  140.9950 C   0  0  0  0  0  0  0  0  0  0  0  0
  183.2840  177.8950  140.4360 C   0  0  0  0  0  2  0  0  0  0  0  0
  184.2290  177.2640  138.3100 N   0  0  0  0  0  0  0  0  0  0  0  0
  183.2730  177.8910  138.9400 C   0  0  0  0  0  0  0  0  0  0  0  0
  182.1380  178.5500  138.2630 C   0  0  0  0  0  0  0  0  0  0  0  0
  180.6080  180.1770  137.4910 C   0  0  0  0  0  3  0  0  0  0  0  0
  181.1120  177.9110  137.7370 C   0  0  0  0  0  3  0  0  0  0  0  0
  181.9330  180.0220  138.2290 C   0  0  0  0  0  2  0  0  0  0  0  0
  180.1490  178.8170  137.2380 N   0  0  0  0  0  0  0  0  0  0  0  0
  184.4560  177.2760  136.9200 N   0  0  0  0  0  2  0  0  0  0  0  0
  187.1210  175.3570  134.9210 C   0  0  0  0  0  2  0  0  0  0  0  0
  185.0340  174.8880  136.9680 C   0  0  0  0  0  2  0  0  0  0  0  0
  186.5310  176.5300  135.7200 C   0  0  1  0  0  3  0  0  0  0  0  0
  187.0160  174.0370  135.6880 C   0  0  0  0  0  2  0  0  0  0  0  0
  185.5660  173.7550  136.0930 C   0  0  0  0  0  2  0  0  0  0  0  0
  185.0950  176.1900  136.1840 C   0  0  2  0  0  3  0  0  0  0  0  0
  189.7520  177.6560  136.9450 N   0  0  0  0  0  2  0  0  0  0  0  0
  187.5380  178.5460  136.9330 C   0  0  0  0  0  2  0  0  0  0  0  0
  187.5140  177.0560  136.7880 C   0  0  2  0  0  3  0  0  0  0  0  0
  188.9470  178.7980  137.3680 C   0  0  0  0  0  2  0  0  0  0  0  0
  188.8760  176.6370  136.5040 N   0  0  0  0  0  2  0  0  0  0  0  0
  185.4250  179.3570  143.0010 N   0  0  0  0  0  2  0  0  0  0  0  0
  187.3890  177.0480  144.8260 C   0  0  2  0  0  3  0  0  0  0  0  0
  188.7970  175.8630  143.2280 C   0  0  0  0  0  1  0  0  0  0  0  0
  186.0290  177.6920  144.6440 C   0  0  0  0  0  2  0  0  0  0  0  0
  188.4850  178.1010  144.6990 C   0  0  2  0  0  3  0  0  0  0  0  0
  187.1650  177.7400  142.4880 C   0  0  0  0  0  2  0  0  0  0  0  0
  188.1220  177.1870  143.5210 C   0  0  2  0  0  0  0  0  0  0  0  0
  185.8280  177.9750  143.1680 C   0  0  2  0  0  3  0  0  0  0  0  0
  189.7710  177.7400  145.4250 C   0  0  2  0  0  3  0  0  0  0  0  0
  189.7820  177.3950  146.7460 C   0  0  1  0  0  3  0  0  0  0  0  0
  192.8470  175.3540  148.0010 C   0  0  0  0  0  1  0  0  0  0  0  0
  191.5870  177.8760  148.2200 O   0  0  0  0  0  0  0  0  0  0  0  0
  191.6200  175.7310  147.3190 N   0  0  0  0  0  2  0  0  0  0  0  0
  191.0400  177.0320  147.4580 C   0  0  0  0  0  0  0  0  0  0  0  0
  188.0400  178.5320  147.9250 O   0  0  0  0  0  0  0  0  0  0  0  0
  187.9890  176.2470  148.0380 O   0  0  0  0  0  1  0  0  0  0  0  0
  188.5520  177.4340  147.5780 C   0  0  0  0  0  0  0  0  0  0  0  0
  190.9670  179.3790  144.1450 O   0  0  0  0  0  1  0  0  0  0  0  0
  191.0730  178.1270  144.7530 C   0  0  2  0  0  3  0  0  0  0  0  0
  191.7860  177.4140  142.4630 O   0  0  0  0  0  0  0  0  0  0  0  0
  191.6240  177.0990  143.8060 C   0  0  0  0  0  0  0  0  0  0  0  0
  191.8870  175.9280  144.2070 O   0  0  0  0  0  1  0  0  0  0  0  0
  1 24  1  0  0  0  0
  2  3  2  0  0  0  0
  3  1  1  0  0  0  0
  4  3  1  0  0  0  0
  5  6  2  0  0  0  0
  6  4  1  0  0  0  0
  7  6  1  0  0  0  0
  8 10  1  0  0  0  0
  9  7  2  0  0  0  0
 10  7  1  0  0  0  0
 11  8  2  0  0  0  0
 11  9  1  0  0  0  0
 12  5  1  0  0  0  0
 13 16  1  0  0  0  0
 15 13  1  1  0  0  0
 15 18  1  0  0  0  0
 15 21  1  0  0  0  0
 16 17  1  0  0  0  0
 17 14  1  0  0  0  0
 18 12  1  1  0  0  0
 18 14  1  0  0  0  0
 19 22  1  0  0  0  0
 20 22  1  0  0  0  0
 21 20  1  6  0  0  0
 23 21  1  0  0  0  0
 23 19  1  0  0  0  0
 25 27  1  6  0  0  0
 28 25  1  0  0  0  0
 28 32  1  1  0  0  0
 29 31  1  0  0  0  0
 29 30  1  0  0  0  0
 30 26  1  6  0  0  0
 30 28  1  0  0  0  0
 30 25  1  0  0  0  0
 31 24  1  1  0  0  0
 31 27  1  0  0  0  0
 32 42  1  1  0  0  0
 32 33  1  0  0  0  0
 33 37  1  1  0  0  0
 33 40  1  0  0  0  0
 36 37  1  0  0  0  0
 36 34  1  0  0  0  0
 37 35  2  0  0  0  0
 40 38  2  0  0  0  0
 40 39  1  0  0  0  0
 42 41  1  6  0  0  0
 43 44  2  0  0  0  0
 44 45  1  0  0  0  0
 44 42  1  0  0  0  0
M  END
>  <MODEL>
2

>  <REMARK>
 VINA RESULT:      -7.4      1.196      1.625
  Name = 
  14 active torsions:
  status: ('A' for Active; 'I' for Inactive)
    1  A    between atoms: C_2  and  C_17
    2  A    between atoms: C_7  and  C_30
    3  A    between atoms: C_7  and  N_33
    4  A    between atoms: N_10  and  N_27
    5  A    between atoms: C_12  and  C_25
    6  A    between atoms: C_17  and  C_28
    7  A    between atoms: C_19  and  C_35
    8  A    between atoms: C_19  and  C_38
    9  A    between atoms: C_23  and  C_32
   10  A    between atoms: C_23  and  C_36
   11  A    between atoms: C_26  and  C_38
   12  A    between atoms: N_27  and  C_45
   13  A    between atoms: C_28  and  C_30
   14  A    between atoms: N_33  and  C_44
                            x       y       z     vdW  Elec       q    Type
                         _______ _______ _______ _____ _____    ______ ____

>  <TORSDO>
F 14

$$$$
=
 OpenBabel11062414203D

 45 49  0  0  1  0  0  0  0  0999 V2000
  183.9480  177.9460  138.3930 C   0  0  0  0  0  2  0  0  0  0  0  0
  183.3870  177.0580  140.4960 O   0  0  0  0  0  0  0  0  0  0  0  0
  183.9510  177.9530  139.8890 C   0  0  0  0  0  0  0  0  0  0  0  0
  184.5560  179.0920  140.6580 C   0  0  0  0  0  2  0  0  0  0  0  0
  186.3710  178.1780  141.9570 N   0  0  0  0  0  0  0  0  0  0  0  0
  185.1520  178.6470  141.9570 C   0  0  0  0  0  0  0  0  0  0  0  0
  184.3400  178.8220  143.1770 C   0  0  0  0  0  0  0  0  0  0  0  0
  183.6830  179.0860  145.4320 C   0  0  0  0  0  3  0  0  0  0  0  0
  183.0330  178.6590  143.2310 C   0  0  0  0  0  3  0  0  0  0  0  0
  184.9120  179.0500  144.5300 C   0  0  0  0  0  2  0  0  0  0  0  0
  182.5550  178.8120  144.5520 N   0  0  0  0  0  0  0  0  0  0  0  0
  187.0340  177.5860  143.0490 N   0  0  0  0  0  2  0  0  0  0  0  0
  190.5740  177.7940  144.5330 C   0  0  0  0  0  2  0  0  0  0  0  0
  188.9280  176.0380  142.8090 C   0  0  0  0  0  2  0  0  0  0  0  0
  189.0430  177.9290  144.5140 C   0  0  1  0  0  3  0  0  0  0  0  0
  191.0260  176.3870  144.1400 C   0  0  0  0  0  2  0  0  0  0  0  0
  190.4540  175.9920  142.7740 C   0  0  0  0  0  2  0  0  0  0  0  0
  188.4830  177.4520  143.1530 C   0  0  2  0  0  3  0  0  0  0  0  0
  188.8270  177.2500  148.0680 N   0  0  0  0  0  2  0  0  0  0  0  0
  187.3930  178.2500  146.4440 C   0  0  0  0  0  2  0  0  0  0  0  0
  188.3950  177.3490  145.7890 C   0  0  2  0  0  3  0  0  0  0  0  0
  187.5150  177.8620  147.8840 C   0  0  0  0  0  2  0  0  0  0  0  0
  189.3960  177.0300  146.7920 N   0  0  0  0  0  2  0  0  0  0  0  0
  183.8890  176.5710  137.9170 N   0  0  0  0  0  2  0  0  0  0  0  0
  186.8690  175.7060  136.2170 C   0  0  2  0  0  3  0  0  0  0  0  0
  187.6300  177.6890  135.0200 C   0  0  0  0  0  1  0  0  0  0  0  0
  185.4710  175.2830  136.6230 C   0  0  0  0  0  2  0  0  0  0  0  0
  187.5640  176.3970  137.3860 C   0  0  2  0  0  3  0  0  0  0  0  0
  185.5040  177.7180  136.5090 C   0  0  0  0  0  2  0  0  0  0  0  0
  186.9070  177.2080  136.2610 C   0  0  2  0  0  0  0  0  0  0  0  0
  184.5880  176.5150  136.6490 C   0  0  2  0  0  3  0  0  0  0  0  0
  189.0820  176.3240  137.3270 C   0  0  2  0  0  3  0  0  0  0  0  0
  189.7340  175.2380  136.8140 C   0  0  1  0  0  3  0  0  0  0  0  0
  193.4080  174.1970  137.5540 C   0  0  0  0  0  1  0  0  0  0  0  0
  191.8430  175.9190  135.9490 O   0  0  0  0  0  0  0  0  0  0  0  0
  191.9580  174.2860  137.6010 N   0  0  0  0  0  2  0  0  0  0  0  0
  191.2210  175.1680  136.7480 C   0  0  0  0  0  0  0  0  0  0  0  0
  188.7420  173.8480  135.1410 O   0  0  0  0  0  0  0  0  0  0  0  0
  188.5420  173.1050  137.2960 O   0  0  0  0  0  1  0  0  0  0  0  0
  189.0040  174.0270  136.3610 C   0  0  0  0  0  0  0  0  0  0  0  0
  190.2980  176.7080  139.3590 O   0  0  0  0  0  1  0  0  0  0  0  0
  189.8520  177.3110  138.1820 C   0  0  2  0  0  3  0  0  0  0  0  0
  189.0550  179.5740  137.4710 O   0  0  0  0  0  0  0  0  0  0  0  0
  189.1330  178.5990  138.4590 C   0  0  0  0  0  0  0  0  0  0  0  0
  188.6460  178.8330  139.6040 O   0  0  0  0  0  1  0  0  0  0  0  0
  1  3  1  0  0  0  0
  3  2  2  0  0  0  0
  3  4  1  0  0  0  0
  4  6  1  0  0  0  0
  5  6  2  0  0  0  0
  5 12  1  0  0  0  0
  6  7  1  0  0  0  0
  7  9  2  0  0  0  0
  7 10  1  0  0  0  0
  9 11  1  0  0  0  0
 10  8  1  0  0  0  0
 11  8  2  0  0  0  0
 14 18  1  0  0  0  0
 15 13  1  6  0  0  0
 15 21  1  0  0  0  0
 16 13  1  0  0  0  0
 17 14  1  0  0  0  0
 17 16  1  0  0  0  0
 18 12  1  1  0  0  0
 18 15  1  0  0  0  0
 20 22  1  0  0  0  0
 21 20  1  1  0  0  0
 21 23  1  0  0  0  0
 22 19  1  0  0  0  0
 23 19  1  0  0  0  0
 24  1  1  0  0  0  0
 25 30  1  0  0  0  0
 25 27  1  1  0  0  0
 25 28  1  0  0  0  0
 27 31  1  0  0  0  0
 28 32  1  6  0  0  0
 29 31  1  0  0  0  0
 30 26  1  6  0  0  0
 30 29  1  0  0  0  0
 30 28  1  0  0  0  0
 31 24  1  1  0  0  0
 32 33  1  1  0  0  0
 32 42  1  0  0  0  0
 33 40  1  1  0  0  0
 34 36  1  0  0  0  0
 35 37  2  0  0  0  0
 37 33  1  0  0  0  0
 37 36  1  0  0  0  0
 38 40  2  0  0  0  0
 40 39  1  0  0  0  0
 42 44  1  0  0  0  0
 42 41  1  1  0  0  0
 43 44  2  0  0  0  0
 44 45  1  0  0  0  0
M  END
>  <MODEL>
3

>  <REMARK>
 VINA RESULT:      -7.4      3.217      7.942
  Name = 
  14 active torsions:
  status: ('A' for Active; 'I' for Inactive)
    1  A    between atoms: C_2  and  C_17
    2  A    between atoms: C_7  and  C_30
    3  A    between atoms: C_7  and  N_33
    4  A    between atoms: N_10  and  N_27
    5  A    between atoms: C_12  and  C_25
    6  A    between atoms: C_17  and  C_28
    7  A    between atoms: C_19  and  C_35
    8  A    between atoms: C_19  and  C_38
    9  A    between atoms: C_23  and  C_32
   10  A    between atoms: C_23  and  C_36
   11  A    between atoms: C_26  and  C_38
   12  A    between atoms: N_27  and  C_45
   13  A    between atoms: C_28  and  C_30
   14  A    between atoms: N_33  and  C_44
                            x       y       z     vdW  Elec       q    Type
                         _______ _______ _______ _____ _____    ______ ____

>  <TORSDO>
F 14

$$$$
=
 OpenBabel11062414203D

 45 49  0  0  1  0  0  0  0  0999 V2000
  189.4310  178.6920  138.1960 C   0  0  0  0  0  2  0  0  0  0  0  0
  188.6850  176.8240  136.9780 O   0  0  0  0  0  0  0  0  0  0  0  0
  188.4380  177.9600  137.3480 C   0  0  0  0  0  0  0  0  0  0  0  0
  187.1860  178.6330  136.8650 C   0  0  0  0  0  2  0  0  0  0  0  0
  185.5580  178.7210  138.6410 N   0  0  0  0  0  0  0  0  0  0  0  0
  185.9630  178.1180  137.5560 C   0  0  0  0  0  0  0  0  0  0  0  0
  185.2490  176.9890  136.9290 C   0  0  0  0  0  0  0  0  0  0  0  0
  183.7270  175.7130  135.6470 C   0  0  0  0  0  3  0  0  0  0  0  0
  185.3720  175.7300  137.3030 C   0  0  0  0  0  2  0  0  0  0  0  0
  184.1830  177.1440  135.9040 C   0  0  0  0  0  3  0  0  0  0  0  0
  184.4990  174.8930  136.5720 N   0  0  0  0  0  0  0  0  0  0  0  0
  184.5220  178.2920  139.4930 N   0  0  0  0  0  2  0  0  0  0  0  0
  180.7460  178.5500  140.1660 C   0  0  0  0  0  2  0  0  0  0  0  0
  182.8940  179.9410  138.6760 C   0  0  0  0  0  2  0  0  0  0  0  0
  182.2240  178.2930  140.5020 C   0  0  1  0  0  3  0  0  0  0  0  0
  180.5370  179.9280  139.5360 C   0  0  0  0  0  2  0  0  0  0  0  0
  181.4230  180.1030  138.2980 C   0  0  0  0  0  2  0  0  0  0  0  0
  183.1060  178.5510  139.2580 C   0  0  2  0  0  3  0  0  0  0  0  0
  182.0580  178.9270  144.0680 N   0  0  0  0  0  2  0  0  0  0  0  0
  183.7790  178.3080  142.5350 C   0  0  0  0  0  2  0  0  0  0  0  0
  182.6440  178.9760  141.8220 C   0  0  2  0  0  3  0  0  0  0  0  0
  183.4830  178.6280  143.9660 C   0  0  0  0  0  2  0  0  0  0  0  0
  181.5360  179.0420  142.7580 N   0  0  0  0  0  2  0  0  0  0  0  0
  188.8780  178.8830  139.5290 N   0  0  0  0  0  2  0  0  0  0  0  0
  188.3080  177.0410  142.4960 C   0  0  2  0  0  3  0  0  0  0  0  0
  190.1400  175.4520  142.7330 C   0  0  0  0  0  1  0  0  0  0  0  0
  187.7040  177.6630  141.2520 C   0  0  0  0  0  2  0  0  0  0  0  0
  189.3280  177.9950  143.1110 C   0  0  2  0  0  3  0  0  0  0  0  0
  190.0320  177.1360  140.7600 C   0  0  0  0  0  2  0  0  0  0  0  0
  189.7690  176.8270  142.2190 C   0  0  2  0  0  0  0  0  0  0  0  0
  188.7220  177.5750  140.1320 C   0  0  2  0  0  3  0  0  0  0  0  0
  189.5430  177.7850  144.6020 C   0  0  2  0  0  3  0  0  0  0  0  0
  188.4970  177.6410  145.4690 C   0  0  1  0  0  3  0  0  0  0  0  0
  189.0680  178.3510  149.2510 C   0  0  0  0  0  1  0  0  0  0  0  0
  188.7710  176.2520  147.3810 O   0  0  0  0  0  0  0  0  0  0  0  0
  188.8660  178.5340  147.8230 N   0  0  0  0  0  2  0  0  0  0  0  0
  188.7050  177.4270  146.9290 C   0  0  0  0  0  0  0  0  0  0  0  0
  186.4390  176.7560  144.6320 O   0  0  0  0  0  0  0  0  0  0  0  0
  186.4820  179.0180  144.9750 O   0  0  0  0  0  1  0  0  0  0  0  0
  187.0860  177.7650  145.0240 C   0  0  0  0  0  0  0  0  0  0  0  0
  191.6760  178.8110  144.2130 O   0  0  0  0  0  1  0  0  0  0  0  0
  190.9180  178.1090  145.1510 C   0  0  2  0  0  3  0  0  0  0  0  0
  192.0360  176.9060  147.0390 O   0  0  0  0  0  1  0  0  0  0  0  0
  191.6710  176.9310  145.6990 C   0  0  0  0  0  0  0  0  0  0  0  0
  192.0280  175.9840  144.9390 O   0  0  0  0  0  0  0  0  0  0  0  0
  1 24  1  0  0  0  0
  2  3  2  0  0  0  0
  3  1  1  0  0  0  0
  4  3  1  0  0  0  0
  4  6  1  0  0  0  0
  5 12  1  0  0  0  0
  6  5  2  0  0  0  0
  7  9  1  0  0  0  0
  7  6  1  0  0  0  0
  8 10  1  0  0  0  0
  8 11  2  0  0  0  0
 10  7  2  0  0  0  0
 11  9  1  0  0  0  0
 14 18  1  0  0  0  0
 15 13  1  6  0  0  0
 15 21  1  0  0  0  0
 16 13  1  0  0  0  0
 17 14  1  0  0  0  0
 17 16  1  0  0  0  0
 18 12  1  1  0  0  0
 18 15  1  0  0  0  0
 20 22  1  0  0  0  0
 21 20  1  1  0  0  0
 21 23  1  0  0  0  0
 22 19  1  0  0  0  0
 23 19  1  0  0  0  0
 25 27  1  6  0  0  0
 25 28  1  0  0  0  0
 28 32  1  1  0  0  0
 29 30  1  0  0  0  0
 30 25  1  0  0  0  0
 30 26  1  1  0  0  0
 30 28  1  0  0  0  0
 31 24  1  1  0  0  0
 31 29  1  0  0  0  0
 31 27  1  0  0  0  0
 32 42  1  1  0  0  0
 32 33  1  0  0  0  0
 33 40  1  1  0  0  0
 33 37  1  0  0  0  0
 36 34  1  0  0  0  0
 37 35  2  0  0  0  0
 37 36  1  0  0  0  0
 38 40  2  0  0  0  0
 39 40  1  0  0  0  0
 42 41  1  6  0  0  0
 42 44  1  0  0  0  0
 44 43  1  0  0  0  0
 45 44  2  0  0  0  0
M  END
>  <MODEL>
4

>  <REMARK>
 VINA RESULT:      -7.2      2.117      5.069
  Name = 
  14 active torsions:
  status: ('A' for Active; 'I' for Inactive)
    1  A    between atoms: C_2  and  C_17
    2  A    between atoms: C_7  and  C_30
    3  A    between atoms: C_7  and  N_33
    4  A    between atoms: N_10  and  N_27
    5  A    between atoms: C_12  and  C_25
    6  A    between atoms: C_17  and  C_28
    7  A    between atoms: C_19  and  C_35
    8  A    between atoms: C_19  and  C_38
    9  A    between atoms: C_23  and  C_32
   10  A    between atoms: C_23  and  C_36
   11  A    between atoms: C_26  and  C_38
   12  A    between atoms: N_27  and  C_45
   13  A    between atoms: C_28  and  C_30
   14  A    between atoms: N_33  and  C_44
                            x       y       z     vdW  Elec       q    Type
                         _______ _______ _______ _____ _____    ______ ____

>  <TORSDO>
F 14

$$$$
=
 OpenBabel11062414203D

 45 49  0  0  1  0  0  0  0  0999 V2000
  184.2320  178.0050  139.3030 C   0  0  0  0  0  2  0  0  0  0  0  0
  183.0610  177.2730  141.2060 O   0  0  0  0  0  0  0  0  0  0  0  0
  183.8550  178.0790  140.7500 C   0  0  0  0  0  0  0  0  0  0  0  0
  184.3630  179.1850  141.6280 C   0  0  0  0  0  2  0  0  0  0  0  0
  186.5610  178.3400  142.1450 N   0  0  0  0  0  0  0  0  0  0  0  0
  185.3950  178.7090  142.6010 C   0  0  0  0  0  0  0  0  0  0  0  0
  185.0480  178.7440  144.0350 C   0  0  0  0  0  0  0  0  0  0  0  0
  185.0690  178.3840  146.3710 C   0  0  0  0  0  3  0  0  0  0  0  0
  183.8950  179.1700  144.5130 C   0  0  0  0  0  3  0  0  0  0  0  0
  185.8920  178.1560  145.1090 C   0  0  0  0  0  2  0  0  0  0  0  0
  183.8300  179.0000  145.9140 N   0  0  0  0  0  0  0  0  0  0  0  0
  187.5920  177.7360  142.8900 N   0  0  0  0  0  2  0  0  0  0  0  0
  191.2920  178.4910  143.6110 C   0  0  0  0  0  2  0  0  0  0  0  0
  189.6130  176.8270  141.8270 C   0  0  0  0  0  2  0  0  0  0  0  0
  189.8150  178.2290  143.9460 C   0  0  1  0  0  3  0  0  0  0  0  0
  191.8830  177.3800  142.7420 C   0  0  0  0  0  2  0  0  0  0  0  0
  191.0540  177.1830  141.4680 C   0  0  0  0  0  2  0  0  0  0  0  0
  189.0140  177.9570  142.6510 C   0  0  2  0  0  3  0  0  0  0  0  0
  190.8340  176.5180  146.9760 N   0  0  0  0  0  2  0  0  0  0  0  0
  188.9050  177.7440  146.2900 C   0  0  0  0  0  2  0  0  0  0  0  0
  189.6540  177.2190  145.1030 C   0  0  2  0  0  3  0  0  0  0  0  0
  189.5180  176.9730  147.4150 C   0  0  0  0  0  2  0  0  0  0  0  0
  190.9440  176.7600  145.5870 N   0  0  0  0  0  2  0  0  0  0  0  0
  183.4610  176.9530  138.6560 N   0  0  0  0  0  2  0  0  0  0  0  0
  185.9890  175.7880  136.4730 C   0  0  2  0  0  3  0  0  0  0  0  0
  186.7660  177.6960  135.1700 C   0  0  0  0  0  1  0  0  0  0  0  0
  184.6390  175.5200  137.1100 C   0  0  0  0  0  2  0  0  0  0  0  0
  186.9480  176.3660  137.5090 C   0  0  2  0  0  3  0  0  0  0  0  0
  184.9390  177.9360  136.9980 C   0  0  0  0  0  2  0  0  0  0  0  0
  186.2110  177.2730  136.5150 C   0  0  2  0  0  0  0  0  0  0  0  0
  183.9250  176.8450  137.2880 C   0  0  2  0  0  3  0  0  0  0  0  0
  188.4150  176.1190  137.1930 C   0  0  2  0  0  3  0  0  0  0  0  0
  189.3730  177.0620  137.4310 C   0  0  1  0  0  3  0  0  0  0  0  0
  193.1730  176.3800  137.9120 C   0  0  0  0  0  1  0  0  0  0  0  0
  191.2040  176.8190  135.9310 O   0  0  0  0  0  0  0  0  0  0  0  0
  191.7640  176.6200  138.1800 N   0  0  0  0  0  2  0  0  0  0  0  0
  190.8130  176.8190  137.1300 C   0  0  0  0  0  0  0  0  0  0  0  0
  188.7380  178.6050  139.1440 O   0  0  0  0  0  1  0  0  0  0  0  0
  188.9740  179.4900  137.0470 O   0  0  0  0  0  0  0  0  0  0  0  0
  189.0330  178.4180  137.9330 C   0  0  0  0  0  0  0  0  0  0  0  0
  187.7370  174.7940  135.3120 O   0  0  0  0  0  1  0  0  0  0  0  0
  188.7350  174.9570  136.2740 C   0  0  2  0  0  3  0  0  0  0  0  0
  188.0520  172.6970  137.1030 O   0  0  0  0  0  0  0  0  0  0  0  0
  189.0410  173.6650  136.9750 C   0  0  0  0  0  0  0  0  0  0  0  0
  190.1740  173.4700  137.5040 O   0  0  0  0  0  1  0  0  0  0  0  0
  1  3  1  0  0  0  0
  3  2  2  0  0  0  0
  3  4  1  0  0  0  0
  4  6  1  0  0  0  0
  5  6  2  0  0  0  0
  5 12  1  0  0  0  0
  6  7  1  0  0  0  0
  7  9  2  0  0  0  0
  7 10  1  0  0  0  0
  9 11  1  0  0  0  0
 10  8  1  0  0  0  0
 11  8  2  0  0  0  0
 14 18  1  0  0  0  0
 15 13  1  6  0  0  0
 15 21  1  0  0  0  0
 16 13  1  0  0  0  0
 17 14  1  0  0  0  0
 17 16  1  0  0  0  0
 18 12  1  1  0  0  0
 18 15  1  0  0  0  0
 19 22  1  0  0  0  0
 20 22  1  0  0  0  0
 21 23  1  0  0  0  0
 21 20  1  1  0  0  0
 23 19  1  0  0  0  0
 24  1  1  0  0  0  0
 25 30  1  0  0  0  0
 25 27  1  1  0  0  0
 25 28  1  0  0  0  0
 27 31  1  0  0  0  0
 28 32  1  6  0  0  0
 29 31  1  0  0  0  0
 30 26  1  6  0  0  0
 30 29  1  0  0  0  0
 30 28  1  0  0  0  0
 31 24  1  1  0  0  0
 32 42  1  6  0  0  0
 32 33  1  0  0  0  0
 33 37  1  6  0  0  0
 33 40  1  0  0  0  0
 34 36  1  0  0  0  0
 35 37  2  0  0  0  0
 37 36  1  0  0  0  0
 39 40  2  0  0  0  0
 40 38  1  0  0  0  0
 42 41  1  6  0  0  0
 42 44  1  0  0  0  0
 44 43  2  0  0  0  0
 44 45  1  0  0  0  0
M  END
>  <MODEL>
5

>  <REMARK>
 VINA RESULT:      -7.2      3.249      7.831
  Name = 
  14 active torsions:
  status: ('A' for Active; 'I' for Inactive)
    1  A    between atoms: C_2  and  C_17
    2  A    between atoms: C_7  and  C_30
    3  A    between atoms: C_7  and  N_33
    4  A    between atoms: N_10  and  N_27
    5  A    between atoms: C_12  and  C_25
    6  A    between atoms: C_17  and  C_28
    7  A    between atoms: C_19  and  C_35
    8  A    between atoms: C_19  and  C_38
    9  A    between atoms: C_23  and  C_32
   10  A    between atoms: C_23  and  C_36
   11  A    between atoms: C_26  and  C_38
   12  A    between atoms: N_27  and  C_45
   13  A    between atoms: C_28  and  C_30
   14  A    between atoms: N_33  and  C_44
                            x       y       z     vdW  Elec       q    Type
                         _______ _______ _______ _____ _____    ______ ____

>  <TORSDO>
F 14

$$$$
=
 OpenBabel11062414203D

 45 49  0  0  1  0  0  0  0  0999 V2000
  185.8170  179.4240  141.5100 C   0  0  0  0  0  2  0  0  0  0  0  0
  184.5650  179.7620  139.5480 O   0  0  0  0  0  0  0  0  0  0  0  0
  184.6470  179.1710  140.6120 C   0  0  0  0  0  0  0  0  0  0  0  0
  183.5220  178.2730  141.0390 C   0  0  0  0  0  2  0  0  0  0  0  0
  182.8610  177.1080  139.0340 N   0  0  0  0  0  0  0  0  0  0  0  0
  182.5540  178.0080  139.9300 C   0  0  0  0  0  0  0  0  0  0  0  0
  181.2750  178.7430  139.9490 C   0  0  0  0  0  0  0  0  0  0  0  0
  178.9940  179.2970  140.2280 C   0  0  0  0  0  3  0  0  0  0  0  0
  181.0680  179.8950  139.3390 C   0  0  0  0  0  3  0  0  0  0  0  0
  180.0140  178.2040  140.5230 C   0  0  0  0  0  2  0  0  0  0  0  0
  179.7220  180.3050  139.4690 N   0  0  0  0  0  0  0  0  0  0  0  0
  182.1450  176.8330  137.8530 N   0  0  0  0  0  2  0  0  0  0  0  0
  181.5770  173.2380  136.6120 C   0  0  0  0  0  2  0  0  0  0  0  0
  180.7980  175.0290  138.8390 C   0  0  0  0  0  2  0  0  0  0  0  0
  182.3730  174.5220  136.8990 C   0  0  1  0  0  3  0  0  0  0  0  0
  180.8660  172.7190  137.8630 C   0  0  0  0  0  2  0  0  0  0  0  0
  179.9680  173.8020  138.4710 C   0  0  0  0  0  2  0  0  0  0  0  0
  181.4640  175.5710  137.5830 C   0  0  2  0  0  3  0  0  0  0  0  0
  185.4780  172.7060  137.3490 N   0  0  0  0  0  2  0  0  0  0  0  0
  184.8870  174.9910  136.9990 C   0  0  0  0  0  2  0  0  0  0  0  0
  183.7330  174.2220  137.5650 C   0  0  2  0  0  3  0  0  0  0  0  0
  186.0300  174.0500  137.2180 C   0  0  0  0  0  2  0  0  0  0  0  0
  184.0720  172.8140  137.4630 N   0  0  0  0  0  2  0  0  0  0  0  0
  185.4260  179.1820  142.8920 N   0  0  0  0  0  2  0  0  0  0  0  0
  187.3410  177.0590  144.9760 C   0  0  2  0  0  3  0  0  0  0  0  0
  188.7150  175.6590  143.5290 C   0  0  0  0  0  1  0  0  0  0  0  0
  185.9960  177.7100  144.7200 C   0  0  0  0  0  2  0  0  0  0  0  0
  188.4610  178.0630  144.7240 C   0  0  2  0  0  3  0  0  0  0  0  0
  187.1250  177.4740  142.5720 C   0  0  0  0  0  2  0  0  0  0  0  0
  188.0720  177.0240  143.6640 C   0  0  2  0  0  0  0  0  0  0  0  0
  185.7970  177.8200  143.2210 C   0  0  2  0  0  3  0  0  0  0  0  0
  189.7410  177.7590  145.4870 C   0  0  2  0  0  3  0  0  0  0  0  0
  189.7320  177.4380  146.8140 C   0  0  1  0  0  3  0  0  0  0  0  0
  192.9140  175.5850  148.0680 C   0  0  0  0  0  1  0  0  0  0  0  0
  191.4130  177.9550  148.4170 O   0  0  0  0  0  0  0  0  0  0  0  0
  191.6890  175.9050  147.3520 N   0  0  0  0  0  2  0  0  0  0  0  0
  190.9840  177.1320  147.5620 C   0  0  0  0  0  0  0  0  0  0  0  0
  187.9390  176.3730  147.9850 O   0  0  0  0  0  1  0  0  0  0  0  0
  187.8590  178.6590  147.9110 O   0  0  0  0  0  0  0  0  0  0  0  0
  188.4810  177.4500  147.6160 C   0  0  0  0  0  0  0  0  0  0  0  0
  190.9520  179.4740  144.3270 O   0  0  0  0  0  1  0  0  0  0  0  0
  191.0450  178.1790  144.8380 C   0  0  2  0  0  3  0  0  0  0  0  0
  191.5730  177.5680  142.4700 O   0  0  0  0  0  0  0  0  0  0  0  0
  191.5780  177.2180  143.8150 C   0  0  0  0  0  0  0  0  0  0  0  0
  191.9790  176.0670  144.1570 O   0  0  0  0  0  1  0  0  0  0  0  0
  1 24  1  0  0  0  0
  2  3  2  0  0  0  0
  3  4  1  0  0  0  0
  3  1  1  0  0  0  0
  5  6  2  0  0  0  0
  6  7  1  0  0  0  0
  6  4  1  0  0  0  0
  7 10  1  0  0  0  0
  8 10  1  0  0  0  0
  9 11  1  0  0  0  0
  9  7  2  0  0  0  0
 11  8  2  0  0  0  0
 12  5  1  0  0  0  0
 13 16  1  0  0  0  0
 15 13  1  1  0  0  0
 15 21  1  0  0  0  0
 15 18  1  0  0  0  0
 16 17  1  0  0  0  0
 17 14  1  0  0  0  0
 18 12  1  1  0  0  0
 18 14  1  0  0  0  0
 19 23  1  0  0  0  0
 20 22  1  0  0  0  0
 21 20  1  6  0  0  0
 22 19  1  0  0  0  0
 23 21  1  0  0  0  0
 25 27  1  6  0  0  0
 28 25  1  0  0  0  0
 28 32  1  1  0  0  0
 29 31  1  0  0  0  0
 29 30  1  0  0  0  0
 30 26  1  6  0  0  0
 30 28  1  0  0  0  0
 30 25  1  0  0  0  0
 31 24  1  1  0  0  0
 31 27  1  0  0  0  0
 32 42  1  1  0  0  0
 32 33  1  0  0  0  0
 33 37  1  1  0  0  0
 33 40  1  0  0  0  0
 36 37  1  0  0  0  0
 36 34  1  0  0  0  0
 37 35  2  0  0  0  0
 40 39  2  0  0  0  0
 40 38  1  0  0  0  0
 42 41  1  6  0  0  0
 43 44  2  0  0  0  0
 44 45  1  0  0  0  0
 44 42  1  0  0  0  0
M  END
>  <MODEL>
6

>  <REMARK>
 VINA RESULT:      -6.9      2.490      3.473
  Name = 
  14 active torsions:
  status: ('A' for Active; 'I' for Inactive)
    1  A    between atoms: C_2  and  C_17
    2  A    between atoms: C_7  and  C_30
    3  A    between atoms: C_7  and  N_33
    4  A    between atoms: N_10  and  N_27
    5  A    between atoms: C_12  and  C_25
    6  A    between atoms: C_17  and  C_28
    7  A    between atoms: C_19  and  C_35
    8  A    between atoms: C_19  and  C_38
    9  A    between atoms: C_23  and  C_32
   10  A    between atoms: C_23  and  C_36
   11  A    between atoms: C_26  and  C_38
   12  A    between atoms: N_27  and  C_45
   13  A    between atoms: C_28  and  C_30
   14  A    between atoms: N_33  and  C_44
                            x       y       z     vdW  Elec       q    Type
                         _______ _______ _______ _____ _____    ______ ____

>  <TORSDO>
F 14

$$$$
=
 OpenBabel11062414203D

 45 49  0  0  1  0  0  0  0  0999 V2000
  189.2830  178.6930  138.2350 C   0  0  0  0  0  2  0  0  0  0  0  0
  188.4680  176.7980  137.1050 O   0  0  0  0  0  0  0  0  0  0  0  0
  188.2490  177.9470  137.4500 C   0  0  0  0  0  0  0  0  0  0  0  0
  186.9850  178.6200  136.9980 C   0  0  0  0  0  2  0  0  0  0  0  0
  185.3370  178.4540  138.7500 N   0  0  0  0  0  0  0  0  0  0  0  0
  185.7650  178.0000  137.6030 C   0  0  0  0  0  0  0  0  0  0  0  0
  185.0800  176.9450  136.8310 C   0  0  0  0  0  0  0  0  0  0  0  0
  183.5150  175.7820  135.4950 C   0  0  0  0  0  3  0  0  0  0  0  0
  185.3840  175.6630  136.8890 C   0  0  0  0  0  2  0  0  0  0  0  0
  183.8600  177.1740  136.0110 C   0  0  0  0  0  3  0  0  0  0  0  0
  184.4970  174.8930  136.1030 N   0  0  0  0  0  0  0  0  0  0  0  0
  184.3010  177.9030  139.5280 N   0  0  0  0  0  2  0  0  0  0  0  0
  181.4380  179.3680  141.6340 C   0  0  0  0  0  2  0  0  0  0  0  0
  184.1070  178.1300  141.9680 C   0  0  0  0  0  2  0  0  0  0  0  0
  182.0800  178.5720  140.4870 C   0  0  1  0  0  3  0  0  0  0  0  0
  181.9610  178.9200  143.0000 C   0  0  0  0  0  2  0  0  0  0  0  0
  183.4900  179.0080  143.0540 C   0  0  0  0  0  2  0  0  0  0  0  0
  183.6210  178.6100  140.6080 C   0  0  2  0  0  3  0  0  0  0  0  0
  179.2840  176.2910  140.1340 N   0  0  0  0  0  2  0  0  0  0  0  0
  181.2570  176.7600  138.8760 C   0  0  0  0  0  2  0  0  0  0  0  0
  181.4180  177.1890  140.3020 C   0  0  2  0  0  3  0  0  0  0  0  0
  180.0320  175.9040  138.9410 C   0  0  0  0  0  2  0  0  0  0  0  0
  180.0990  177.1490  140.9080 N   0  0  0  0  0  2  0  0  0  0  0  0
  188.7930  178.9150  139.5880 N   0  0  0  0  0  2  0  0  0  0  0  0
  188.2000  177.1210  142.5780 C   0  0  2  0  0  3  0  0  0  0  0  0
  189.9840  175.4760  142.8100 C   0  0  0  0  0  1  0  0  0  0  0  0
  187.6020  177.7490  141.3350 C   0  0  0  0  0  2  0  0  0  0  0  0
  189.2570  178.0470  143.1730 C   0  0  2  0  0  3  0  0  0  0  0  0
  189.9070  177.1440  140.8230 C   0  0  0  0  0  2  0  0  0  0  0  0
  189.6510  176.8580  142.2870 C   0  0  2  0  0  0  0  0  0  0  0  0
  188.6040  177.6180  140.2050 C   0  0  2  0  0  3  0  0  0  0  0  0
  189.4820  177.8450  144.6630 C   0  0  2  0  0  3  0  0  0  0  0  0
  188.4430  177.7170  145.5400 C   0  0  1  0  0  3  0  0  0  0  0  0
  188.8110  178.4310  149.3460 C   0  0  0  0  0  1  0  0  0  0  0  0
  188.9320  176.3560  147.4300 O   0  0  0  0  0  0  0  0  0  0  0  0
  188.6030  178.6070  147.9180 N   0  0  0  0  0  2  0  0  0  0  0  0
  188.6610  177.5110  147.0000 C   0  0  0  0  0  0  0  0  0  0  0  0
  186.5730  178.9630  144.7220 O   0  0  0  0  0  0  0  0  0  0  0  0
  186.1730  176.7580  145.1850 O   0  0  0  0  0  1  0  0  0  0  0  0
  187.0290  177.8520  145.1060 C   0  0  0  0  0  0  0  0  0  0  0  0
  191.5610  178.9920  144.3220 O   0  0  0  0  0  1  0  0  0  0  0  0
  190.8650  178.1590  145.1990 C   0  0  2  0  0  3  0  0  0  0  0  0
  191.9800  175.9930  144.6270 O   0  0  0  0  0  0  0  0  0  0  0  0
  191.6800  176.9570  145.5820 C   0  0  0  0  0  0  0  0  0  0  0  0
  192.0480  176.7820  146.7800 O   0  0  0  0  0  1  0  0  0  0  0  0
  1 24  1  0  0  0  0
  2  3  2  0  0  0  0
  3  1  1  0  0  0  0
  4  3  1  0  0  0  0
  4  6  1  0  0  0  0
  5 12  1  0  0  0  0
  6  5  2  0  0  0  0
  7  9  1  0  0  0  0
  7  6  1  0  0  0  0
  8 10  1  0  0  0  0
  8 11  2  0  0  0  0
 10  7  2  0  0  0  0
 11  9  1  0  0  0  0
 13 16  1  0  0  0  0
 14 17  1  0  0  0  0
 15 18  1  0  0  0  0
 15 13  1  1  0  0  0
 16 17  1  0  0  0  0
 18 12  1  6  0  0  0
 18 14  1  0  0  0  0
 19 23  1  0  0  0  0
 20 22  1  0  0  0  0
 21 20  1  6  0  0  0
 21 15  1  0  0  0  0
 21 23  1  0  0  0  0
 22 19  1  0  0  0  0
 25 27  1  6  0  0  0
 25 28  1  0  0  0  0
 28 32  1  1  0  0  0
 29 30  1  0  0  0  0
 30 25  1  0  0  0  0
 30 26  1  1  0  0  0
 30 28  1  0  0  0  0
 31 24  1  1  0  0  0
 31 29  1  0  0  0  0
 31 27  1  0  0  0  0
 32 42  1  1  0  0  0
 32 33  1  0  0  0  0
 33 40  1  1  0  0  0
 33 37  1  0  0  0  0
 36 34  1  0  0  0  0
 37 35  2  0  0  0  0
 37 36  1  0  0  0  0
 38 40  2  0  0  0  0
 40 39  1  0  0  0  0
 42 41  1  6  0  0  0
 42 44  1  0  0  0  0
 43 44  2  0  0  0  0
 44 45  1  0  0  0  0
M  END
>  <MODEL>
7

>  <REMARK>
 VINA RESULT:      -6.8      2.352      5.406
  Name = 
  14 active torsions:
  status: ('A' for Active; 'I' for Inactive)
    1  A    between atoms: C_2  and  C_17
    2  A    between atoms: C_7  and  C_30
    3  A    between atoms: C_7  and  N_33
    4  A    between atoms: N_10  and  N_27
    5  A    between atoms: C_12  and  C_25
    6  A    between atoms: C_17  and  C_28
    7  A    between atoms: C_19  and  C_35
    8  A    between atoms: C_19  and  C_38
    9  A    between atoms: C_23  and  C_32
   10  A    between atoms: C_23  and  C_36
   11  A    between atoms: C_26  and  C_38
   12  A    between atoms: N_27  and  C_45
   13  A    between atoms: C_28  and  C_30
   14  A    between atoms: N_33  and  C_44
                            x       y       z     vdW  Elec       q    Type
                         _______ _______ _______ _____ _____    ______ ____

>  <TORSDO>
F 14

$$$$
=
 OpenBabel11062414203D

 45 49  0  0  1  0  0  0  0  0999 V2000
  184.8950  179.4470  142.1120 C   0  0  0  0  0  2  0  0  0  0  0  0
  182.7800  178.9940  143.0370 O   0  0  0  0  0  0  0  0  0  0  0  0
  183.5280  178.8360  142.0860 C   0  0  0  0  0  0  0  0  0  0  0  0
  183.0960  177.9510  140.9530 C   0  0  0  0  0  2  0  0  0  0  0  0
  184.9090  178.1410  139.3750 N   0  0  0  0  0  0  0  0  0  0  0  0
  183.6560  178.3970  139.6390 C   0  0  0  0  0  0  0  0  0  0  0  0
  182.7350  179.0510  138.6900 C   0  0  0  0  0  0  0  0  0  0  0  0
  181.3460  180.6380  137.6240 C   0  0  0  0  0  3  0  0  0  0  0  0
  182.0370  178.4140  137.7700 C   0  0  0  0  0  3  0  0  0  0  0  0
  182.3580  180.4880  138.7540 C   0  0  0  0  0  2  0  0  0  0  0  0
  181.1830  179.2990  137.0740 N   0  0  0  0  0  0  0  0  0  0  0  0
  185.6370  178.6060  138.2630 N   0  0  0  0  0  2  0  0  0  0  0  0
  188.5180  176.2530  137.2930 C   0  0  0  0  0  2  0  0  0  0  0  0
  187.5750  179.0180  136.8090 C   0  0  0  0  0  2  0  0  0  0  0  0
  187.0660  176.6510  137.6060 C   0  0  1  0  0  3  0  0  0  0  0  0
  189.1310  177.1430  136.2110 C   0  0  0  0  0  2  0  0  0  0  0  0
  189.0350  178.6220  136.6010 C   0  0  0  0  0  2  0  0  0  0  0  0
  186.9840  178.1630  137.9200 C   0  0  2  0  0  3  0  0  0  0  0  0
  183.8170  175.5710  136.4140 N   0  0  0  0  0  2  0  0  0  0  0  0
  185.4680  177.1200  135.6610 C   0  0  0  0  0  2  0  0  0  0  0  0
  186.0750  176.0890  136.5630 C   0  0  2  0  0  3  0  0  0  0  0  0
  184.1330  176.5210  135.3520 C   0  0  0  0  0  2  0  0  0  0  0  0
  184.9760  175.3880  137.2030 N   0  0  0  0  0  2  0  0  0  0  0  0
  185.4920  179.2370  143.4230 N   0  0  0  0  0  2  0  0  0  0  0  0
  187.5640  176.8370  144.9920 C   0  0  2  0  0  3  0  0  0  0  0  0
  188.8000  175.6790  143.2390 C   0  0  0  0  0  1  0  0  0  0  0  0
  186.2070  177.5100  144.9540 C   0  0  0  0  0  2  0  0  0  0  0  0
  188.6660  177.8750  144.7990 C   0  0  2  0  0  3  0  0  0  0  0  0
  187.1460  177.6070  142.7060 C   0  0  0  0  0  2  0  0  0  0  0  0
  188.1800  177.0050  143.6320 C   0  0  2  0  0  0  0  0  0  0  0  0
  185.8810  177.8440  143.5110 C   0  0  2  0  0  3  0  0  0  0  0  0
  190.0050  177.4680  145.3950 C   0  0  2  0  0  3  0  0  0  0  0  0
  190.1210  177.0490  146.6900 C   0  0  1  0  0  3  0  0  0  0  0  0
  193.1830  176.8420  149.0800 C   0  0  0  0  0  1  0  0  0  0  0  0
  192.1420  175.7930  146.6700 O   0  0  0  0  0  0  0  0  0  0  0  0
  191.9110  177.2240  148.4900 N   0  0  0  0  0  2  0  0  0  0  0  0
  191.4310  176.6420  147.2740 C   0  0  0  0  0  0  0  0  0  0  0  0
  188.3420  175.9810  147.8770 O   0  0  0  0  0  0  0  0  0  0  0  0
  188.5160  178.2440  148.1710 O   0  0  0  0  0  1  0  0  0  0  0  0
  188.9650  177.0470  147.6210 C   0  0  0  0  0  0  0  0  0  0  0  0
  191.1640  179.2210  144.2390 O   0  0  0  0  0  1  0  0  0  0  0  0
  191.2500  177.8870  144.6390 C   0  0  2  0  0  3  0  0  0  0  0  0
  191.4580  177.4320  142.1880 O   0  0  0  0  0  0  0  0  0  0  0  0
  191.6240  176.9900  143.4940 C   0  0  0  0  0  0  0  0  0  0  0  0
  192.0340  175.8110  143.7050 O   0  0  0  0  0  1  0  0  0  0  0  0
  1 24  1  0  0  0  0
  3  1  1  0  0  0  0
  3  2  2  0  0  0  0
  4  3  1  0  0  0  0
  5  6  2  0  0  0  0
  6  4  1  0  0  0  0
  7 10  1  0  0  0  0
  7  6  1  0  0  0  0
  8 10  1  0  0  0  0
  9  7  2  0  0  0  0
 11  8  2  0  0  0  0
 11  9  1  0  0  0  0
 12  5  1  0  0  0  0
 14 18  1  0  0  0  0
 15 13  1  6  0  0  0
 15 18  1  0  0  0  0
 16 17  1  0  0  0  0
 16 13  1  0  0  0  0
 17 14  1  0  0  0  0
 18 12  1  6  0  0  0
 19 23  1  0  0  0  0
 21 20  1  1  0  0  0
 21 23  1  0  0  0  0
 21 15  1  0  0  0  0
 22 20  1  0  0  0  0
 22 19  1  0  0  0  0
 25 27  1  6  0  0  0
 28 25  1  0  0  0  0
 28 32  1  1  0  0  0
 29 31  1  0  0  0  0
 29 30  1  0  0  0  0
 30 26  1  6  0  0  0
 30 28  1  0  0  0  0
 30 25  1  0  0  0  0
 31 24  1  1  0  0  0
 31 27  1  0  0  0  0
 32 42  1  1  0  0  0
 32 33  1  0  0  0  0
 33 37  1  1  0  0  0
 33 40  1  0  0  0  0
 35 37  2  0  0  0  0
 36 34  1  0  0  0  0
 37 36  1  0  0  0  0
 40 38  2  0  0  0  0
 40 39  1  0  0  0  0
 42 41  1  6  0  0  0
 43 44  2  0  0  0  0
 44 45  1  0  0  0  0
 44 42  1  0  0  0  0
M  END
>  <MODEL>
8

>  <REMARK>
 VINA RESULT:      -6.8      1.489      2.342
  Name = 
  14 active torsions:
  status: ('A' for Active; 'I' for Inactive)
    1  A    between atoms: C_2  and  C_17
    2  A    between atoms: C_7  and  C_30
    3  A    between atoms: C_7  and  N_33
    4  A    between atoms: N_10  and  N_27
    5  A    between atoms: C_12  and  C_25
    6  A    between atoms: C_17  and  C_28
    7  A    between atoms: C_19  and  C_35
    8  A    between atoms: C_19  and  C_38
    9  A    between atoms: C_23  and  C_32
   10  A    between atoms: C_23  and  C_36
   11  A    between atoms: C_26  and  C_38
   12  A    between atoms: N_27  and  C_45
   13  A    between atoms: C_28  and  C_30
   14  A    between atoms: N_33  and  C_44
                            x       y       z     vdW  Elec       q    Type
                         _______ _______ _______ _____ _____    ______ ____

>  <TORSDO>
F 14

$$$$
=
 OpenBabel11062414203D

 45 49  0  0  1  0  0  0  0  0999 V2000
  185.2010  179.2770  141.0480 C   0  0  0  0  0  2  0  0  0  0  0  0
  183.1390  178.6250  141.9740 O   0  0  0  0  0  0  0  0  0  0  0  0
  183.7310  179.0030  140.9760 C   0  0  0  0  0  0  0  0  0  0  0  0
  182.9880  179.0950  139.6740 C   0  0  0  0  0  2  0  0  0  0  0  0
  183.7580  177.2900  138.2730 N   0  0  0  0  0  0  0  0  0  0  0  0
  182.8030  177.7570  139.0310 C   0  0  0  0  0  0  0  0  0  0  0  0
  181.5670  177.0130  139.3450 C   0  0  0  0  0  0  0  0  0  0  0  0
  179.3060  176.4700  139.7690 C   0  0  0  0  0  3  0  0  0  0  0  0
  181.5380  175.7910  139.8400 C   0  0  0  0  0  2  0  0  0  0  0  0
  180.2040  177.6050  139.2910 C   0  0  0  0  0  3  0  0  0  0  0  0
  180.2130  175.3830  140.1130 N   0  0  0  0  0  0  0  0  0  0  0  0
  183.6980  176.1270  137.4810 N   0  0  0  0  0  2  0  0  0  0  0  0
  185.3120  172.6390  137.5810 C   0  0  0  0  0  2  0  0  0  0  0  0
  185.6410  175.2630  136.2480 C   0  0  0  0  0  2  0  0  0  0  0  0
  184.1650  173.6630  137.5750 C   0  0  1  0  0  3  0  0  0  0  0  0
  186.2560  172.8350  136.3940 C   0  0  0  0  0  2  0  0  0  0  0  0
  186.7950  174.2690  136.3550 C   0  0  0  0  0  2  0  0  0  0  0  0
  184.7310  175.0970  137.4570 C   0  0  2  0  0  3  0  0  0  0  0  0
  181.8670  171.3570  135.9790 N   0  0  0  0  0  2  0  0  0  0  0  0
  181.6530  173.4310  137.1390 C   0  0  0  0  0  2  0  0  0  0  0  0
  183.0390  173.2640  136.5960 C   0  0  2  0  0  3  0  0  0  0  0  0
  180.9010  172.3590  136.4160 C   0  0  0  0  0  2  0  0  0  0  0  0
  183.1670  171.8770  136.1820 N   0  0  0  0  0  2  0  0  0  0  0  0
  185.6250  179.2650  142.4410 N   0  0  0  0  0  2  0  0  0  0  0  0
  187.3860  177.0950  144.6110 C   0  0  2  0  0  3  0  0  0  0  0  0
  188.7670  175.6390  143.2270 C   0  0  0  0  0  1  0  0  0  0  0  0
  186.0750  177.7880  144.2990 C   0  0  0  0  0  2  0  0  0  0  0  0
  188.5490  178.0590  144.3960 C   0  0  2  0  0  3  0  0  0  0  0  0
  187.2770  177.4990  142.1990 C   0  0  0  0  0  2  0  0  0  0  0  0
  188.1660  177.0260  143.3280 C   0  0  2  0  0  0  0  0  0  0  0  0
  185.9370  177.8940  142.7940 C   0  0  2  0  0  3  0  0  0  0  0  0
  189.7880  177.7180  145.2100 C   0  0  2  0  0  3  0  0  0  0  0  0
  189.7180  177.4210  146.5410 C   0  0  1  0  0  3  0  0  0  0  0  0
  192.8110  175.4910  147.8970 C   0  0  0  0  0  1  0  0  0  0  0  0
  191.3300  177.8760  148.2310 O   0  0  0  0  0  0  0  0  0  0  0  0
  191.6260  175.8460  147.1330 N   0  0  0  0  0  2  0  0  0  0  0  0
  190.9290  177.0790  147.3390 C   0  0  0  0  0  0  0  0  0  0  0  0
  187.7830  178.5680  147.3520 O   0  0  0  0  0  0  0  0  0  0  0  0
  187.9930  176.3860  148.0090 O   0  0  0  0  0  1  0  0  0  0  0  0
  188.4410  177.4940  147.2960 C   0  0  0  0  0  0  0  0  0  0  0  0
  191.1110  179.3710  144.0820 O   0  0  0  0  0  1  0  0  0  0  0  0
  191.1300  178.0760  144.6030 C   0  0  2  0  0  3  0  0  0  0  0  0
  191.6970  177.4240  142.2550 O   0  0  0  0  0  0  0  0  0  0  0  0
  191.6530  177.0860  143.6020 C   0  0  0  0  0  0  0  0  0  0  0  0
  191.9990  175.9240  143.9650 O   0  0  0  0  0  1  0  0  0  0  0  0
  1 24  1  0  0  0  0
  3  1  1  0  0  0  0
  3  2  2  0  0  0  0
  4  3  1  0  0  0  0
  5  6  2  0  0  0  0
  6  7  1  0  0  0  0
  6  4  1  0  0  0  0
  7  9  1  0  0  0  0
  8 11  2  0  0  0  0
  9 11  1  0  0  0  0
 10  7  2  0  0  0  0
 10  8  1  0  0  0  0
 12  5  1  0  0  0  0
 14 17  1  0  0  0  0
 14 18  1  0  0  0  0
 15 13  1  6  0  0  0
 16 13  1  0  0  0  0
 17 16  1  0  0  0  0
 18 12  1  6  0  0  0
 18 15  1  0  0  0  0
 19 23  1  0  0  0  0
 19 22  1  0  0  0  0
 21 20  1  1  0  0  0
 21 15  1  0  0  0  0
 22 20  1  0  0  0  0
 23 21  1  0  0  0  0
 25 27  1  6  0  0  0
 28 25  1  0  0  0  0
 28 32  1  1  0  0  0
 29 31  1  0  0  0  0
 29 30  1  0  0  0  0
 30 26  1  6  0  0  0
 30 28  1  0  0  0  0
 30 25  1  0  0  0  0
 31 24  1  1  0  0  0
 31 27  1  0  0  0  0
 32 42  1  1  0  0  0
 32 33  1  0  0  0  0
 33 40  1  1  0  0  0
 33 37  1  0  0  0  0
 36 37  1  0  0  0  0
 36 34  1  0  0  0  0
 37 35  2  0  0  0  0
 40 38  2  0  0  0  0
 40 39  1  0  0  0  0
 42 41  1  6  0  0  0
 43 44  2  0  0  0  0
 44 45  1  0  0  0  0
 44 42  1  0  0  0  0
M  END
>  <MODEL>
9

>  <REMARK>
 VINA RESULT:      -6.6      2.703      3.760
  Name = 
  14 active torsions:
  status: ('A' for Active; 'I' for Inactive)
    1  A    between atoms: C_2  and  C_17
    2  A    between atoms: C_7  and  C_30
    3  A    between atoms: C_7  and  N_33
    4  A    between atoms: N_10  and  N_27
    5  A    between atoms: C_12  and  C_25
    6  A    between atoms: C_17  and  C_28
    7  A    between atoms: C_19  and  C_35
    8  A    between atoms: C_19  and  C_38
    9  A    between atoms: C_23  and  C_32
   10  A    between atoms: C_23  and  C_36
   11  A    between atoms: C_26  and  C_38
   12  A    between atoms: N_27  and  C_45
   13  A    between atoms: C_28  and  C_30
   14  A    between atoms: N_33  and  C_44
                            x       y       z     vdW  Elec       q    Type
                         _______ _______ _______ _____ _____    ______ ____

>  <TORSDO>
F 14

$$$$
