=
 OpenBabel11062418003D

 40 43  0  0  1  0  0  0  0  0999 V2000
  188.8440  177.7500  138.9380 C   0  0  2  0  0  3  0  0  0  0  0  0
  189.7970  176.0150  137.5950 O   0  0  0  0  0  0  0  0  0  0  0  0
  189.1400  176.2630  138.8150 C   0  0  1  0  0  3  0  0  0  0  0  0
  190.6020  176.0430  138.7470 C   0  0  0  0  0  2  0  0  0  0  0  0
  188.2450  178.0250  140.2410 N   0  0  0  0  0  2  0  0  0  0  0  0
  190.2600  177.9390  141.4170 O   0  0  0  0  0  0  0  0  0  0  0  0
  189.0100  178.1060  141.4420 C   0  0  0  0  0  0  0  0  0  0  0  0
  188.3270  178.4010  142.7400 C   0  0  0  0  0  2  0  0  0  0  0  0
  189.2680  177.3560  146.3810 C   0  0  1  0  0  0  0  0  0  0  0  0
  186.8280  177.6590  145.6930 C   0  0  0  0  0  2  0  0  0  0  0  0
  187.1990  176.9760  144.3810 C   0  0  0  0  0  2  0  0  0  0  0  0
  187.8030  177.2050  146.7710 C   0  0  2  0  0  3  0  0  0  0  0  0
  189.4780  178.0080  144.9890 C   0  0  2  0  0  3  0  0  0  0  0  0
  189.2230  176.1170  143.2970 C   0  0  0  0  0  1  0  0  0  0  0  0
  187.6560  178.0710  147.9970 C   0  0  0  0  0  2  0  0  0  0  0  0
  189.8240  178.2370  147.4860 C   0  0  0  0  0  2  0  0  0  0  0  0
  188.9300  178.2250  148.5680 O   0  0  0  0  0  0  0  0  0  0  0  0
  189.8850  176.0970  146.4270 O   0  0  0  0  0  1  0  0  0  0  0  0
  188.5880  177.3840  143.8640 C   0  0  2  0  0  0  0  0  0  0  0  0
  190.9590  178.1060  144.6100 C   0  0  0  0  0  2  0  0  0  0  0  0
  191.3480  179.5420  144.3320 C   0  0  0  0  0  1  0  0  0  0  0  0
  188.6010  178.8560  136.7690 O   0  0  0  0  0  1  0  0  0  0  0  0
  187.9150  178.2100  137.8040 C   0  0  1  0  0  3  0  0  0  0  0  0
  187.0570  177.1960  137.3190 O   0  0  0  0  0  0  0  0  0  0  0  0
  182.8250  179.8250  138.5490 C   0  0  0  0  0  1  0  0  0  0  0  0
  183.3480  177.0280  137.5450 C   0  0  1  0  0  3  0  0  0  0  0  0
  184.7450  176.5160  137.1870 C   0  0  2  0  0  3  0  0  0  0  0  0
  185.4390  178.3850  138.6390 C   0  0  0  0  0  2  0  0  0  0  0  0
  185.7350  177.6710  137.3300 C   0  0  1  0  0  3  0  0  0  0  0  0
  184.7900  175.9760  135.8990 O   0  0  0  0  0  1  0  0  0  0  0  0
  183.6520  178.2370  138.8520 P   0  0  1  0  0  4  0  0  0  0  0  0
  181.4820  177.2940  135.8420 C   0  0  0  0  0  0  0  0  0  0  0  0
  182.7250  177.7000  136.4100 N   0  0  0  0  0  2  0  0  0  0  0  0
  180.5950  175.8660  136.4600 S   0  0  0  0  0  1  0  0  0  0  0  0
  181.0010  177.9470  134.8830 O   0  0  0  0  0  0  0  0  0  0  0  0
  183.1920  177.5580  140.4750 C   0  0  0  0  0  2  0  0  0  0  0  0
  183.1850  178.6440  141.5430 C   0  0  1  0  0  3  0  0  0  0  0  0
  181.9320  178.7080  142.1480 O   0  0  0  0  0  1  0  0  0  0  0  0
  184.2310  178.3430  142.6030 C   0  0  0  0  0  2  0  0  0  0  0  0
  183.9750  179.1730  143.8460 C   0  0  0  0  0  1  0  0  0  0  0  0
  1  5  1  1  0  0  0
  2  4  1  0  0  0  0
  2  3  1  0  0  0  0
  3  1  1  6  0  0  0
  4  3  1  0  0  0  0
  5  7  1  0  0  0  0
  6  7  2  0  0  0  0
  7  8  1  0  0  0  0
  8 19  1  0  0  0  0
  9 18  1  1  0  0  0
  9 12  1  0  0  0  0
  9 16  1  0  0  0  0
 11 10  1  0  0  0  0
 12 10  1  6  0  0  0
 12 15  1  0  0  0  0
 13 20  1  6  0  0  0
 13  9  1  0  0  0  0
 15 17  1  0  0  0  0
 16 17  1  0  0  0  0
 19 14  1  6  0  0  0
 19 11  1  0  0  0  0
 19 13  1  0  0  0  0
 21 20  1  0  0  0  0
 23 22  1  6  0  0  0
 23  1  1  0  0  0  0
 24 23  1  0  0  0  0
 26 33  1  6  0  0  0
 26 31  1  0  0  0  0
 27 30  1  6  0  0  0
 27 29  1  0  0  0  0
 27 26  1  0  0  0  0
 28 31  1  0  0  0  0
 29 24  1  1  0  0  0
 29 28  1  0  0  0  0
 31 25  1  6  0  0  0
 31 36  1  0  0  0  0
 32 33  1  0  0  0  0
 32 34  1  0  0  0  0
 35 32  2  0  0  0  0
 36 37  1  0  0  0  0
 37 38  1  1  0  0  0
 37 39  1  0  0  0  0
 39 40  1  0  0  0  0
M  END
>  <MODEL>
1

>  <REMARK>
 VINA RESULT:      -7.2      0.000      0.000
  Name = 
  12 active torsions:
  status: ('A' for Active; 'I' for Inactive)
    1  A    between atoms: C_2  and  C_16
    2  A    between atoms: C_4  and  N_21
    3  A    between atoms: C_13  and  C_20
    4  A    between atoms: C_16  and  C_24
    5  A    between atoms: C_19  and  O_27
    6  A    between atoms: C_23  and  C_39
    7  A    between atoms: C_24  and  P_31
    8  A    between atoms: C_25  and  O_27
    9  A    between atoms: C_25  and  C_39
   10  A    between atoms: N_32  and  C_39
   11  A    between atoms: C_35  and  C_38
   12  A    between atoms: C_37  and  C_38
                            x       y       z     vdW  Elec       q    Type
                         _______ _______ _______ _____ _____    ______ ____

>  <TORSDO>
F 12

$$$$
=
 OpenBabel11062418003D

 40 43  0  0  1  0  0  0  0  0999 V2000
  183.8590  178.8700  141.6470 C   0  0  2  0  0  3  0  0  0  0  0  0
  184.5900  179.7900  143.7300 O   0  0  0  0  0  0  0  0  0  0  0  0
  184.2050  178.5910  143.1020 C   0  0  1  0  0  3  0  0  0  0  0  0
  183.2860  179.3340  143.9920 C   0  0  0  0  0  2  0  0  0  0  0  0
  182.7560  178.0070  141.2310 N   0  0  0  0  0  2  0  0  0  0  0  0
  181.2650  179.7560  140.8280 O   0  0  0  0  0  0  0  0  0  0  0  0
  181.4840  178.5150  140.8340 C   0  0  0  0  0  0  0  0  0  0  0  0
  180.4050  177.5680  140.4110 C   0  0  0  0  0  2  0  0  0  0  0  0
  182.2860  176.9730  137.0430 C   0  0  1  0  0  0  0  0  0  0  0  0
  182.8630  175.6120  139.1250 C   0  0  0  0  0  2  0  0  0  0  0  0
  181.3630  175.5540  139.4010 C   0  0  0  0  0  2  0  0  0  0  0  0
  183.0740  175.8090  137.6300 C   0  0  2  0  0  3  0  0  0  0  0  0
  181.4750  177.7720  138.0980 C   0  0  2  0  0  3  0  0  0  0  0  0
  179.3070  176.4710  138.4310 C   0  0  0  0  0  1  0  0  0  0  0  0
  184.5140  176.1630  137.3550 C   0  0  0  0  0  2  0  0  0  0  0  0
  183.3680  177.8350  136.4180 C   0  0  0  0  0  2  0  0  0  0  0  0
  184.5360  177.0690  136.2820 O   0  0  0  0  0  0  0  0  0  0  0  0
  181.4340  176.4880  136.0400 O   0  0  0  0  0  1  0  0  0  0  0  0
  180.6400  176.8670  139.0630 C   0  0  2  0  0  0  0  0  0  0  0  0
  180.6620  178.9070  137.4700 C   0  0  0  0  0  2  0  0  0  0  0  0
  181.3850  180.2290  137.6130 C   0  0  0  0  0  1  0  0  0  0  0  0
  184.8520  179.0060  139.4150 O   0  0  0  0  0  1  0  0  0  0  0  0
  185.0870  178.6550  140.7490 C   0  0  1  0  0  3  0  0  0  0  0  0
  186.2720  179.2400  141.2500 O   0  0  0  0  0  0  0  0  0  0  0  0
  189.4670  175.5290  142.7850 C   0  0  0  0  0  1  0  0  0  0  0  0
  189.7150  177.8730  140.9020 C   0  0  1  0  0  3  0  0  0  0  0  0
  188.5480  178.8060  140.5700 C   0  0  2  0  0  3  0  0  0  0  0  0
  187.6600  177.9030  142.6860 C   0  0  0  0  0  2  0  0  0  0  0  0
  187.2920  178.2740  141.2590 C   0  0  1  0  0  3  0  0  0  0  0  0
  188.3490  178.9260  139.1920 O   0  0  0  0  0  1  0  0  0  0  0  0
  189.3700  177.3320  142.5890 P   0  0  1  0  0  4  0  0  0  0  0  0
  190.8820  176.2810  139.3040 C   0  0  0  0  0  0  0  0  0  0  0  0
  189.7280  176.7110  140.0210 N   0  0  0  0  0  2  0  0  0  0  0  0
  192.4260  177.1850  139.3910 S   0  0  0  0  0  1  0  0  0  0  0  0
  190.8150  175.2510  138.5900 O   0  0  0  0  0  0  0  0  0  0  0  0
  190.4610  178.1790  143.7720 C   0  0  0  0  0  2  0  0  0  0  0  0
  190.5630  177.4030  145.0780 C   0  0  1  0  0  3  0  0  0  0  0  0
  191.8250  177.5820  145.6410 O   0  0  0  0  0  1  0  0  0  0  0  0
  189.5110  177.8880  146.0610 C   0  0  0  0  0  2  0  0  0  0  0  0
  189.3060  176.8670  147.1630 C   0  0  0  0  0  1  0  0  0  0  0  0
  1  5  1  6  0  0  0
  2  4  1  0  0  0  0
  3  1  1  6  0  0  0
  3  2  1  0  0  0  0
  3  4  1  0  0  0  0
  6  7  2  0  0  0  0
  7  5  1  0  0  0  0
  8  7  1  0  0  0  0
  9 18  1  6  0  0  0
  9 12  1  0  0  0  0
  9 13  1  0  0  0  0
 10 11  1  0  0  0  0
 12 15  1  1  0  0  0
 12 10  1  0  0  0  0
 13 20  1  6  0  0  0
 13 19  1  0  0  0  0
 16  9  1  0  0  0  0
 17 16  1  0  0  0  0
 17 15  1  0  0  0  0
 19 14  1  6  0  0  0
 19 11  1  0  0  0  0
 19  8  1  0  0  0  0
 20 21  1  0  0  0  0
 23 22  1  6  0  0  0
 23 24  1  0  0  0  0
 23  1  1  0  0  0  0
 26 33  1  6  0  0  0
 26 31  1  0  0  0  0
 27 30  1  6  0  0  0
 27 26  1  0  0  0  0
 27 29  1  0  0  0  0
 29 24  1  1  0  0  0
 29 28  1  0  0  0  0
 31 28  1  0  0  0  0
 31 25  1  1  0  0  0
 31 36  1  0  0  0  0
 32 34  1  0  0  0  0
 32 33  1  0  0  0  0
 35 32  2  0  0  0  0
 36 37  1  0  0  0  0
 37 38  1  1  0  0  0
 37 39  1  0  0  0  0
 39 40  1  0  0  0  0
M  END
>  <MODEL>
2

>  <REMARK>
 VINA RESULT:      -6.3      3.039      8.985
  Name = 
  12 active torsions:
  status: ('A' for Active; 'I' for Inactive)
    1  A    between atoms: C_2  and  C_16
    2  A    between atoms: C_4  and  N_21
    3  A    between atoms: C_13  and  C_20
    4  A    between atoms: C_16  and  C_24
    5  A    between atoms: C_19  and  O_27
    6  A    between atoms: C_23  and  C_39
    7  A    between atoms: C_24  and  P_31
    8  A    between atoms: C_25  and  O_27
    9  A    between atoms: C_25  and  C_39
   10  A    between atoms: N_32  and  C_39
   11  A    between atoms: C_35  and  C_38
   12  A    between atoms: C_37  and  C_38
                            x       y       z     vdW  Elec       q    Type
                         _______ _______ _______ _____ _____    ______ ____

>  <TORSDO>
F 12

$$$$
=
 OpenBabel11062418003D

 40 43  0  0  1  0  0  0  0  0999 V2000
  186.3240  177.2740  137.4670 C   0  0  2  0  0  3  0  0  0  0  0  0
  187.0990  175.4510  136.1250 O   0  0  0  0  0  0  0  0  0  0  0  0
  185.9360  176.1110  136.5650 C   0  0  1  0  0  3  0  0  0  0  0  0
  186.3820  174.8350  137.1660 C   0  0  0  0  0  2  0  0  0  0  0  0
  185.1670  178.1400  137.6760 N   0  0  0  0  0  2  0  0  0  0  0  0
  185.7110  178.6820  139.8800 O   0  0  0  0  0  0  0  0  0  0  0  0
  184.9200  178.8140  138.9080 C   0  0  0  0  0  0  0  0  0  0  0  0
  183.7170  179.6930  139.0460 C   0  0  0  0  0  2  0  0  0  0  0  0
  180.7700  179.0450  141.5220 C   0  0  1  0  0  0  0  0  0  0  0  0
  180.4980  180.6460  139.5510 C   0  0  0  0  0  2  0  0  0  0  0  0
  181.2900  179.6350  138.7270 C   0  0  0  0  0  2  0  0  0  0  0  0
  179.8230  179.9130  140.7030 C   0  0  2  0  0  3  0  0  0  0  0  0
  182.2500  179.1320  141.0630 C   0  0  2  0  0  3  0  0  0  0  0  0
  182.4610  177.5140  139.1030 C   0  0  0  0  0  1  0  0  0  0  0  0
  179.2800  180.9070  141.6980 C   0  0  0  0  0  2  0  0  0  0  0  0
  180.6010  179.5920  142.9280 C   0  0  0  0  0  2  0  0  0  0  0  0
  179.4220  180.3520  142.9810 O   0  0  0  0  0  0  0  0  0  0  0  0
  180.3250  177.7160  141.4770 O   0  0  0  0  0  1  0  0  0  0  0  0
  182.4370  178.9840  139.5170 C   0  0  2  0  0  0  0  0  0  0  0  0
  183.1670  178.2170  141.8790 C   0  0  0  0  0  2  0  0  0  0  0  0
  184.0660  179.0280  142.7870 C   0  0  0  0  0  1  0  0  0  0  0  0
  187.1550  178.6800  135.6450 O   0  0  0  0  0  1  0  0  0  0  0  0
  187.4920  178.0630  136.8560 C   0  0  1  0  0  3  0  0  0  0  0  0
  188.1080  178.9640  137.7550 O   0  0  0  0  0  0  0  0  0  0  0  0
  192.6830  176.6600  138.0600 C   0  0  0  0  0  1  0  0  0  0  0  0
  190.1700  176.5780  139.7270 C   0  0  1  0  0  3  0  0  0  0  0  0
  188.9430  177.4440  139.4340 C   0  0  2  0  0  3  0  0  0  0  0  0
  189.9690  177.5510  137.1930 C   0  0  0  0  0  2  0  0  0  0  0  0
  189.2750  178.3730  138.2670 C   0  0  1  0  0  3  0  0  0  0  0  0
  188.5380  178.1730  140.5540 O   0  0  0  0  0  1  0  0  0  0  0  0
  190.9040  176.3010  138.1010 P   0  0  1  0  0  4  0  0  0  0  0  0
  191.2470  177.0770  141.9730 C   0  0  0  0  0  0  0  0  0  0  0  0
  191.1280  177.2870  140.5680 N   0  0  0  0  0  2  0  0  0  0  0  0
  190.1720  175.9370  142.8410 S   0  0  0  0  0  1  0  0  0  0  0  0
  192.1190  177.7080  142.6180 O   0  0  0  0  0  0  0  0  0  0  0  0
  190.5640  174.6120  137.5210 C   0  0  0  0  0  2  0  0  0  0  0  0
  191.5460  174.1950  136.4350 C   0  0  1  0  0  3  0  0  0  0  0  0
  192.6230  173.5160  137.0020 O   0  0  0  0  0  1  0  0  0  0  0  0
  190.8620  173.2830  135.4300 C   0  0  0  0  0  2  0  0  0  0  0  0
  189.4630  172.9370  135.8990 C   0  0  0  0  0  1  0  0  0  0  0  0
  1  5  1  6  0  0  0
  2  3  1  0  0  0  0
  2  4  1  0  0  0  0
  3  4  1  0  0  0  0
  3  1  1  1  0  0  0
  5  7  1  0  0  0  0
  7  8  1  0  0  0  0
  7  6  2  0  0  0  0
  8 19  1  0  0  0  0
  9 18  1  6  0  0  0
  9 16  1  0  0  0  0
 11 19  1  0  0  0  0
 11 10  1  0  0  0  0
 12 10  1  6  0  0  0
 12  9  1  0  0  0  0
 12 15  1  0  0  0  0
 13  9  1  0  0  0  0
 13 20  1  1  0  0  0
 15 17  1  0  0  0  0
 16 17  1  0  0  0  0
 19 14  1  6  0  0  0
 19 13  1  0  0  0  0
 20 21  1  0  0  0  0
 23 22  1  6  0  0  0
 23  1  1  0  0  0  0
 23 24  1  0  0  0  0
 26 33  1  1  0  0  0
 27 26  1  0  0  0  0
 27 30  1  1  0  0  0
 28 31  1  0  0  0  0
 28 29  1  0  0  0  0
 29 24  1  6  0  0  0
 29 27  1  0  0  0  0
 31 25  1  6  0  0  0
 31 26  1  0  0  0  0
 32 35  2  0  0  0  0
 32 34  1  0  0  0  0
 33 32  1  0  0  0  0
 36 31  1  0  0  0  0
 37 38  1  1  0  0  0
 37 36  1  0  0  0  0
 39 40  1  0  0  0  0
 39 37  1  0  0  0  0
M  END
>  <MODEL>
3

>  <REMARK>
 VINA RESULT:      -6.3      3.878      8.339
  Name = 
  12 active torsions:
  status: ('A' for Active; 'I' for Inactive)
    1  A    between atoms: C_2  and  C_16
    2  A    between atoms: C_4  and  N_21
    3  A    between atoms: C_13  and  C_20
    4  A    between atoms: C_16  and  C_24
    5  A    between atoms: C_19  and  O_27
    6  A    between atoms: C_23  and  C_39
    7  A    between atoms: C_24  and  P_31
    8  A    between atoms: C_25  and  O_27
    9  A    between atoms: C_25  and  C_39
   10  A    between atoms: N_32  and  C_39
   11  A    between atoms: C_35  and  C_38
   12  A    between atoms: C_37  and  C_38
                            x       y       z     vdW  Elec       q    Type
                         _______ _______ _______ _____ _____    ______ ____

>  <TORSDO>
F 12

$$$$
=
 OpenBabel11062418003D

 40 43  0  0  1  0  0  0  0  0999 V2000
  183.8640  178.6060  141.4010 C   0  0  2  0  0  3  0  0  0  0  0  0
  184.3060  179.5130  143.5700 O   0  0  0  0  0  0  0  0  0  0  0  0
  184.1800  178.3050  142.8590 C   0  0  1  0  0  3  0  0  0  0  0  0
  183.0950  178.8160  143.7260 C   0  0  0  0  0  2  0  0  0  0  0  0
  183.1290  177.4880  140.8170 N   0  0  0  0  0  2  0  0  0  0  0  0
  181.1770  178.7060  140.4240 O   0  0  0  0  0  0  0  0  0  0  0  0
  181.7870  177.6050  140.3490 C   0  0  0  0  0  0  0  0  0  0  0  0
  181.1020  176.4160  139.7530 C   0  0  0  0  0  2  0  0  0  0  0  0
  181.0350  174.9480  136.1370 C   0  0  1  0  0  0  0  0  0  0  0  0
  178.9380  174.9400  137.5930 C   0  0  0  0  0  2  0  0  0  0  0  0
  179.3480  176.3390  138.0460 C   0  0  0  0  0  2  0  0  0  0  0  0
  179.5380  174.6790  136.2190 C   0  0  2  0  0  3  0  0  0  0  0  0
  181.6670  175.3690  137.4900 C   0  0  2  0  0  3  0  0  0  0  0  0
  181.2290  177.8720  137.7060 C   0  0  0  0  0  1  0  0  0  0  0  0
  179.4060  173.2180  135.8680 C   0  0  0  0  0  2  0  0  0  0  0  0
  181.5940  173.6180  135.6650 C   0  0  0  0  0  2  0  0  0  0  0  0
  180.5460  172.8480  135.1350 O   0  0  0  0  0  0  0  0  0  0  0  0
  181.2710  175.9300  135.1630 O   0  0  0  0  0  1  0  0  0  0  0  0
  180.8660  176.4870  138.2350 C   0  0  2  0  0  0  0  0  0  0  0  0
  183.1630  175.6730  137.3640 C   0  0  0  0  0  2  0  0  0  0  0  0
  183.9910  174.5130  137.8750 C   0  0  0  0  0  1  0  0  0  0  0  0
  184.9560  179.7280  139.5210 O   0  0  0  0  0  1  0  0  0  0  0  0
  185.1560  178.8790  140.6150 C   0  0  1  0  0  3  0  0  0  0  0  0
  186.2390  179.2990  141.4210 O   0  0  0  0  0  0  0  0  0  0  0  0
  189.3690  175.4730  142.8010 C   0  0  0  0  0  1  0  0  0  0  0  0
  189.6570  177.8870  141.0140 C   0  0  1  0  0  3  0  0  0  0  0  0
  188.5060  178.8530  140.7220 C   0  0  2  0  0  3  0  0  0  0  0  0
  187.6030  177.8800  142.8010 C   0  0  0  0  0  2  0  0  0  0  0  0
  187.2420  178.3150  141.3900 C   0  0  1  0  0  3  0  0  0  0  0  0
  188.3100  179.0330  139.3500 O   0  0  0  0  0  1  0  0  0  0  0  0
  189.3030  177.2840  142.6780 P   0  0  1  0  0  4  0  0  0  0  0  0
  190.7980  176.3370  139.3570 C   0  0  0  0  0  0  0  0  0  0  0  0
  189.6490  176.7620  140.0870 N   0  0  0  0  0  2  0  0  0  0  0  0
  192.3600  177.2040  139.4860 S   0  0  0  0  0  1  0  0  0  0  0  0
  190.7120  175.3380  138.6010 O   0  0  0  0  0  0  0  0  0  0  0  0
  190.4090  178.0620  143.8940 C   0  0  0  0  0  2  0  0  0  0  0  0
  190.4520  177.2630  145.1890 C   0  0  1  0  0  3  0  0  0  0  0  0
  191.6680  177.4720  145.8370 O   0  0  0  0  0  1  0  0  0  0  0  0
  189.3220  177.6920  146.1090 C   0  0  0  0  0  2  0  0  0  0  0  0
  189.5810  177.2110  147.5240 C   0  0  0  0  0  1  0  0  0  0  0  0
  1  5  1  6  0  0  0
  2  4  1  0  0  0  0
  3  1  1  6  0  0  0
  3  2  1  0  0  0  0
  3  4  1  0  0  0  0
  7  6  2  0  0  0  0
  7  5  1  0  0  0  0
  8  7  1  0  0  0  0
  9 18  1  6  0  0  0
  9 12  1  0  0  0  0
  9 13  1  0  0  0  0
 10 11  1  0  0  0  0
 11 19  1  0  0  0  0
 12 15  1  1  0  0  0
 12 10  1  0  0  0  0
 13 20  1  6  0  0  0
 13 19  1  0  0  0  0
 16  9  1  0  0  0  0
 17 16  1  0  0  0  0
 17 15  1  0  0  0  0
 19 14  1  6  0  0  0
 19  8  1  0  0  0  0
 20 21  1  0  0  0  0
 23 22  1  6  0  0  0
 23  1  1  0  0  0  0
 23 24  1  0  0  0  0
 26 33  1  6  0  0  0
 26 31  1  0  0  0  0
 27 30  1  6  0  0  0
 27 26  1  0  0  0  0
 27 29  1  0  0  0  0
 29 24  1  1  0  0  0
 29 28  1  0  0  0  0
 31 25  1  1  0  0  0
 31 28  1  0  0  0  0
 31 36  1  0  0  0  0
 32 34  1  0  0  0  0
 32 33  1  0  0  0  0
 35 32  2  0  0  0  0
 36 37  1  0  0  0  0
 37 38  1  1  0  0  0
 37 39  1  0  0  0  0
 39 40  1  0  0  0  0
M  END
>  <MODEL>
4

>  <REMARK>
 VINA RESULT:      -6.0      3.296      9.593
  Name = 
  12 active torsions:
  status: ('A' for Active; 'I' for Inactive)
    1  A    between atoms: C_2  and  C_16
    2  A    between atoms: C_4  and  N_21
    3  A    between atoms: C_13  and  C_20
    4  A    between atoms: C_16  and  C_24
    5  A    between atoms: C_19  and  O_27
    6  A    between atoms: C_23  and  C_39
    7  A    between atoms: C_24  and  P_31
    8  A    between atoms: C_25  and  O_27
    9  A    between atoms: C_25  and  C_39
   10  A    between atoms: N_32  and  C_39
   11  A    between atoms: C_35  and  C_38
   12  A    between atoms: C_37  and  C_38
                            x       y       z     vdW  Elec       q    Type
                         _______ _______ _______ _____ _____    ______ ____

>  <TORSDO>
F 12

$$$$
=
 OpenBabel11062418003D

 40 43  0  0  1  0  0  0  0  0999 V2000
  183.9820  179.0520  142.0760 C   0  0  2  0  0  3  0  0  0  0  0  0
  182.2740  179.7850  143.5810 O   0  0  0  0  0  0  0  0  0  0  0  0
  182.9260  178.6380  143.0890 C   0  0  1  0  0  3  0  0  0  0  0  0
  181.5830  179.0380  142.6110 C   0  0  0  0  0  2  0  0  0  0  0  0
  183.9760  178.1200  140.9520 N   0  0  0  0  0  2  0  0  0  0  0  0
  183.9290  179.7770  139.3090 O   0  0  0  0  0  0  0  0  0  0  0  0
  183.9480  178.5490  139.5920 C   0  0  0  0  0  0  0  0  0  0  0  0
  183.9510  177.5340  138.4920 C   0  0  0  0  0  2  0  0  0  0  0  0
  181.0010  175.1780  137.5010 C   0  0  1  0  0  0  0  0  0  0  0  0
  180.9820  176.4410  139.7200 C   0  0  0  0  0  2  0  0  0  0  0  0
  181.5490  177.6320  138.9530 C   0  0  0  0  0  2  0  0  0  0  0  0
  180.2120  175.5580  138.7470 C   0  0  2  0  0  3  0  0  0  0  0  0
  182.4590  175.7110  137.5000 C   0  0  2  0  0  3  0  0  0  0  0  0
  182.3130  178.1190  136.6750 C   0  0  0  0  0  1  0  0  0  0  0  0
  179.8910  174.2350  139.3970 C   0  0  0  0  0  2  0  0  0  0  0  0
  180.9750  173.6610  137.5310 C   0  0  0  0  0  2  0  0  0  0  0  0
  179.9600  173.2420  138.4060 O   0  0  0  0  0  0  0  0  0  0  0  0
  180.3150  175.6380  136.3680 O   0  0  0  0  0  1  0  0  0  0  0  0
  182.5740  177.2230  137.8830 C   0  0  2  0  0  0  0  0  0  0  0  0
  183.2110  175.3480  136.2160 C   0  0  0  0  0  2  0  0  0  0  0  0
  184.4210  174.4930  136.5250 C   0  0  0  0  0  1  0  0  0  0  0  0
  185.3060  179.2520  144.1240 O   0  0  0  0  0  1  0  0  0  0  0  0
  185.3700  179.1010  142.7340 C   0  0  1  0  0  3  0  0  0  0  0  0
  186.2210  178.0370  142.3560 O   0  0  0  0  0  0  0  0  0  0  0  0
  191.0050  179.1090  143.8740 C   0  0  0  0  0  1  0  0  0  0  0  0
  189.1460  176.7660  144.2710 C   0  0  1  0  0  3  0  0  0  0  0  0
  187.7090  176.7410  143.7470 C   0  0  2  0  0  3  0  0  0  0  0  0
  188.5780  178.4950  142.2470 C   0  0  0  0  0  2  0  0  0  0  0  0
  187.3990  178.0990  143.1200 C   0  0  1  0  0  3  0  0  0  0  0  0
  186.7900  176.4330  144.7540 O   0  0  0  0  0  1  0  0  0  0  0  0
  190.0220  177.8040  143.0820 P   0  0  1  0  0  4  0  0  0  0  0  0
  190.2830  177.1610  146.5080 C   0  0  0  0  0  0  0  0  0  0  0  0
  189.2170  177.3860  145.5890 N   0  0  0  0  0  2  0  0  0  0  0  0
  191.6220  176.0340  146.1270 S   0  0  0  0  0  1  0  0  0  0  0  0
  190.2810  177.7590  147.6110 O   0  0  0  0  0  0  0  0  0  0  0  0
  191.0520  176.7890  141.9780 C   0  0  0  0  0  2  0  0  0  0  0  0
  191.2310  177.4590  140.6230 C   0  0  1  0  0  3  0  0  0  0  0  0
  192.5730  177.4300  140.2500 O   0  0  0  0  0  1  0  0  0  0  0  0
  190.4100  176.7370  139.5670 C   0  0  0  0  0  2  0  0  0  0  0  0
  189.7360  177.7360  138.6470 C   0  0  0  0  0  1  0  0  0  0  0  0
  1  5  1  6  0  0  0
  1 23  1  0  0  0  0
  3  1  1  6  0  0  0
  3  2  1  0  0  0  0
  4  3  1  0  0  0  0
  4  2  1  0  0  0  0
  6  7  2  0  0  0  0
  7  5  1  0  0  0  0
  8  7  1  0  0  0  0
  9 18  1  6  0  0  0
  9 16  1  0  0  0  0
  9 12  1  0  0  0  0
 11 10  1  0  0  0  0
 12 15  1  1  0  0  0
 12 10  1  0  0  0  0
 13 20  1  6  0  0  0
 13  9  1  0  0  0  0
 13 19  1  0  0  0  0
 16 17  1  0  0  0  0
 17 15  1  0  0  0  0
 19 14  1  6  0  0  0
 19  8  1  0  0  0  0
 19 11  1  0  0  0  0
 20 21  1  0  0  0  0
 23 22  1  1  0  0  0
 24 23  1  0  0  0  0
 26 33  1  1  0  0  0
 27 26  1  0  0  0  0
 27 30  1  1  0  0  0
 28 31  1  0  0  0  0
 28 29  1  0  0  0  0
 29 24  1  6  0  0  0
 29 27  1  0  0  0  0
 31 25  1  1  0  0  0
 31 26  1  0  0  0  0
 32 35  2  0  0  0  0
 33 32  1  0  0  0  0
 34 32  1  0  0  0  0
 36 31  1  0  0  0  0
 37 38  1  6  0  0  0
 37 36  1  0  0  0  0
 39 37  1  0  0  0  0
 40 39  1  0  0  0  0
M  END
>  <MODEL>
5

>  <REMARK>
 VINA RESULT:      -5.9      3.723      9.807
  Name = 
  12 active torsions:
  status: ('A' for Active; 'I' for Inactive)
    1  A    between atoms: C_2  and  C_16
    2  A    between atoms: C_4  and  N_21
    3  A    between atoms: C_13  and  C_20
    4  A    between atoms: C_16  and  C_24
    5  A    between atoms: C_19  and  O_27
    6  A    between atoms: C_23  and  C_39
    7  A    between atoms: C_24  and  P_31
    8  A    between atoms: C_25  and  O_27
    9  A    between atoms: C_25  and  C_39
   10  A    between atoms: N_32  and  C_39
   11  A    between atoms: C_35  and  C_38
   12  A    between atoms: C_37  and  C_38
                            x       y       z     vdW  Elec       q    Type
                         _______ _______ _______ _____ _____    ______ ____

>  <TORSDO>
F 12

$$$$
=
 OpenBabel11062418003D

 40 43  0  0  1  0  0  0  0  0999 V2000
  185.2200  178.3070  143.3540 C   0  0  2  0  0  3  0  0  0  0  0  0
  184.1220  179.7520  144.9130 O   0  0  0  0  0  0  0  0  0  0  0  0
  185.3880  179.3170  144.4800 C   0  0  1  0  0  3  0  0  0  0  0  0
  184.7680  178.7990  145.7200 C   0  0  0  0  0  2  0  0  0  0  0  0
  186.5280  177.8000  142.9490 N   0  0  0  0  0  2  0  0  0  0  0  0
  186.6030  176.1120  144.5590 O   0  0  0  0  0  0  0  0  0  0  0  0
  187.1640  176.6990  143.5950 C   0  0  0  0  0  0  0  0  0  0  0  0
  188.5020  176.2300  143.1180 C   0  0  0  0  0  2  0  0  0  0  0  0
  191.0310  177.1240  145.9530 C   0  0  1  0  0  0  0  0  0  0  0  0
  191.5720  175.3120  144.2370 C   0  0  0  0  0  2  0  0  0  0  0  0
  190.9490  176.2330  143.1920 C   0  0  0  0  0  2  0  0  0  0  0  0
  192.0730  176.1630  145.3970 C   0  0  2  0  0  3  0  0  0  0  0  0
  189.6420  176.9980  145.2730 C   0  0  2  0  0  3  0  0  0  0  0  0
  189.7890  178.3910  143.1420 C   0  0  0  0  0  1  0  0  0  0  0  0
  192.4240  175.2810  146.5680 C   0  0  0  0  0  2  0  0  0  0  0  0
  190.9580  176.7350  147.4190 C   0  0  0  0  0  2  0  0  0  0  0  0
  192.0940  175.9760  147.7440 O   0  0  0  0  0  0  0  0  0  0  0  0
  191.5120  178.4360  145.8380 O   0  0  0  0  0  1  0  0  0  0  0  0
  189.7080  176.9770  143.7110 C   0  0  2  0  0  0  0  0  0  0  0  0
  188.6300  178.0060  145.8260 C   0  0  0  0  0  2  0  0  0  0  0  0
  187.9790  177.4780  147.0870 C   0  0  0  0  0  1  0  0  0  0  0  0
  185.3410  179.7090  141.3530 O   0  0  0  0  0  1  0  0  0  0  0  0
  184.4910  178.9470  142.1620 C   0  0  1  0  0  3  0  0  0  0  0  0
  183.7180  178.0350  141.4060 O   0  0  0  0  0  0  0  0  0  0  0  0
  179.3780  180.5000  140.2160 C   0  0  0  0  0  1  0  0  0  0  0  0
  181.2930  178.7480  138.6780 C   0  0  1  0  0  3  0  0  0  0  0  0
  182.5800  178.1850  139.2830 C   0  0  2  0  0  3  0  0  0  0  0  0
  181.3920  178.6400  141.3960 C   0  0  0  0  0  2  0  0  0  0  0  0
  182.7370  178.7460  140.6950 C   0  0  1  0  0  3  0  0  0  0  0  0
  183.6990  178.4810  138.5000 O   0  0  0  0  0  1  0  0  0  0  0  0
  180.1710  178.8720  140.0870 P   0  0  1  0  0  4  0  0  0  0  0  0
  180.8100  180.5800  136.9850 C   0  0  0  0  0  0  0  0  0  0  0  0
  181.5090  180.0790  138.1220 N   0  0  0  0  0  2  0  0  0  0  0  0
  179.6220  179.5720  136.1010 S   0  0  0  0  0  1  0  0  0  0  0  0
  181.0360  181.7490  136.5900 O   0  0  0  0  0  0  0  0  0  0  0  0
  178.9310  177.5430  140.0400 C   0  0  0  0  0  2  0  0  0  0  0  0
  179.5870  176.1740  140.1550 C   0  0  1  0  0  3  0  0  0  0  0  0
  179.3070  175.6140  141.4000 O   0  0  0  0  0  1  0  0  0  0  0  0
  179.0650  175.2480  139.0700 C   0  0  0  0  0  2  0  0  0  0  0  0
  179.0860  175.9470  137.7240 C   0  0  0  0  0  1  0  0  0  0  0  0
  1  5  1  6  0  0  0
  2  4  1  0  0  0  0
  3  1  1  6  0  0  0
  3  2  1  0  0  0  0
  3  4  1  0  0  0  0
  5  7  1  0  0  0  0
  7  6  2  0  0  0  0
  8  7  1  0  0  0  0
  8 19  1  0  0  0  0
  9 18  1  6  0  0  0
  9 16  1  0  0  0  0
 11 19  1  0  0  0  0
 11 10  1  0  0  0  0
 12 10  1  6  0  0  0
 12  9  1  0  0  0  0
 12 15  1  0  0  0  0
 13 20  1  6  0  0  0
 13  9  1  0  0  0  0
 15 17  1  0  0  0  0
 16 17  1  0  0  0  0
 19 14  1  6  0  0  0
 19 13  1  0  0  0  0
 20 21  1  0  0  0  0
 23 22  1  6  0  0  0
 23  1  1  0  0  0  0
 24 23  1  0  0  0  0
 26 33  1  1  0  0  0
 26 27  1  0  0  0  0
 26 31  1  0  0  0  0
 27 30  1  6  0  0  0
 27 29  1  0  0  0  0
 29 28  1  0  0  0  0
 29 24  1  1  0  0  0
 31 25  1  1  0  0  0
 31 28  1  0  0  0  0
 32 33  1  0  0  0  0
 34 32  1  0  0  0  0
 35 32  2  0  0  0  0
 36 31  1  0  0  0  0
 36 37  1  0  0  0  0
 37 38  1  1  0  0  0
 39 37  1  0  0  0  0
 40 39  1  0  0  0  0
M  END
>  <MODEL>
6

>  <REMARK>
 VINA RESULT:      -5.8      3.110      4.829
  Name = 
  12 active torsions:
  status: ('A' for Active; 'I' for Inactive)
    1  A    between atoms: C_2  and  C_16
    2  A    between atoms: C_4  and  N_21
    3  A    between atoms: C_13  and  C_20
    4  A    between atoms: C_16  and  C_24
    5  A    between atoms: C_19  and  O_27
    6  A    between atoms: C_23  and  C_39
    7  A    between atoms: C_24  and  P_31
    8  A    between atoms: C_25  and  O_27
    9  A    between atoms: C_25  and  C_39
   10  A    between atoms: N_32  and  C_39
   11  A    between atoms: C_35  and  C_38
   12  A    between atoms: C_37  and  C_38
                            x       y       z     vdW  Elec       q    Type
                         _______ _______ _______ _____ _____    ______ ____

>  <TORSDO>
F 12

$$$$
=
 OpenBabel11062418003D

 40 43  0  0  1  0  0  0  0  0999 V2000
  183.8340  178.1950  141.8620 C   0  0  2  0  0  3  0  0  0  0  0  0
  182.0620  179.0930  143.1930 O   0  0  0  0  0  0  0  0  0  0  0  0
  183.4200  179.2620  142.8640 C   0  0  1  0  0  3  0  0  0  0  0  0
  182.9980  178.6280  144.1320 C   0  0  0  0  0  2  0  0  0  0  0  0
  185.2490  177.8780  142.0400 N   0  0  0  0  0  2  0  0  0  0  0  0
  185.8420  179.9990  142.8110 O   0  0  0  0  0  0  0  0  0  0  0  0
  186.2000  178.8270  142.5180 C   0  0  0  0  0  0  0  0  0  0  0  0
  187.6320  178.4250  142.6830 C   0  0  0  0  0  2  0  0  0  0  0  0
  188.8950  177.4330  146.2400 C   0  0  1  0  0  0  0  0  0  0  0  0
  186.4430  178.0190  145.8360 C   0  0  0  0  0  2  0  0  0  0  0  0
  186.5560  177.2340  144.5320 C   0  0  0  0  0  2  0  0  0  0  0  0
  187.4850  177.4910  146.8130 C   0  0  2  0  0  3  0  0  0  0  0  0
  189.0040  177.9880  144.7950 C   0  0  2  0  0  3  0  0  0  0  0  0
  188.3030  176.0720  143.2660 C   0  0  0  0  0  1  0  0  0  0  0  0
  187.6040  178.4230  147.9920 C   0  0  0  0  0  2  0  0  0  0  0  0
  189.6920  178.2840  147.2130 C   0  0  0  0  0  2  0  0  0  0  0  0
  188.9500  178.4370  148.3950 O   0  0  0  0  0  0  0  0  0  0  0  0
  189.3540  176.1090  146.2880 O   0  0  0  0  0  1  0  0  0  0  0  0
  187.9070  177.4350  143.8270 C   0  0  2  0  0  0  0  0  0  0  0  0
  190.4250  177.8770  144.2340 C   0  0  0  0  0  2  0  0  0  0  0  0
  191.0060  179.2480  143.9670 C   0  0  0  0  0  1  0  0  0  0  0  0
  182.3600  179.3810  140.3100 O   0  0  0  0  0  1  0  0  0  0  0  0
  183.5590  178.6680  140.4260 C   0  0  1  0  0  3  0  0  0  0  0  0
  184.6430  179.3530  139.8300 O   0  0  0  0  0  0  0  0  0  0  0  0
  184.2160  176.8880  135.3490 C   0  0  0  0  0  1  0  0  0  0  0  0
  186.3020  176.9480  137.5280 C   0  0  1  0  0  3  0  0  0  0  0  0
  186.2000  177.8510  138.7590 C   0  0  2  0  0  3  0  0  0  0  0  0
  183.8110  177.8550  138.1450 C   0  0  0  0  0  2  0  0  0  0  0  0
  184.9610  178.7330  138.6100 C   0  0  1  0  0  3  0  0  0  0  0  0
  187.3480  178.6270  138.9350 O   0  0  0  0  0  1  0  0  0  0  0  0
  184.5830  176.5980  137.1040 P   0  0  1  0  0  4  0  0  0  0  0  0
  188.1750  177.2400  135.8360 C   0  0  0  0  0  0  0  0  0  0  0  0
  186.9360  177.6450  136.4140 N   0  0  0  0  0  2  0  0  0  0  0  0
  189.0940  175.8450  136.4810 S   0  0  0  0  0  1  0  0  0  0  0  0
  188.6360  177.8790  134.8590 O   0  0  0  0  0  0  0  0  0  0  0  0
  184.1310  174.9060  137.5950 C   0  0  0  0  0  2  0  0  0  0  0  0
  185.0800  173.8840  136.9840 C   0  0  1  0  0  3  0  0  0  0  0  0
  185.5540  173.0240  137.9720 O   0  0  0  0  0  1  0  0  0  0  0  0
  184.3600  173.0680  135.9240 C   0  0  0  0  0  2  0  0  0  0  0  0
  183.9610  171.7140  136.4790 C   0  0  0  0  0  1  0  0  0  0  0  0
  1  5  1  6  0  0  0
  2  4  1  0  0  0  0
  3  1  1  6  0  0  0
  3  2  1  0  0  0  0
  3  4  1  0  0  0  0
  5  7  1  0  0  0  0
  7  8  1  0  0  0  0
  7  6  2  0  0  0  0
  8 19  1  0  0  0  0
  9 18  1  1  0  0  0
  9 12  1  0  0  0  0
  9 16  1  0  0  0  0
 11 10  1  0  0  0  0
 12 10  1  6  0  0  0
 12 15  1  0  0  0  0
 13 20  1  6  0  0  0
 13  9  1  0  0  0  0
 15 17  1  0  0  0  0
 16 17  1  0  0  0  0
 19 14  1  6  0  0  0
 19 11  1  0  0  0  0
 19 13  1  0  0  0  0
 21 20  1  0  0  0  0
 23 22  1  1  0  0  0
 23  1  1  0  0  0  0
 24 23  1  0  0  0  0
 26 33  1  6  0  0  0
 26 27  1  0  0  0  0
 27 30  1  6  0  0  0
 28 29  1  0  0  0  0
 29 27  1  0  0  0  0
 29 24  1  1  0  0  0
 31 25  1  6  0  0  0
 31 26  1  0  0  0  0
 31 36  1  0  0  0  0
 31 28  1  0  0  0  0
 32 33  1  0  0  0  0
 32 34  1  0  0  0  0
 35 32  2  0  0  0  0
 37 36  1  0  0  0  0
 37 38  1  1  0  0  0
 39 40  1  0  0  0  0
 39 37  1  0  0  0  0
M  END
>  <MODEL>
7

>  <REMARK>
 VINA RESULT:      -5.7      2.555      5.016
  Name = 
  12 active torsions:
  status: ('A' for Active; 'I' for Inactive)
    1  A    between atoms: C_2  and  C_16
    2  A    between atoms: C_4  and  N_21
    3  A    between atoms: C_13  and  C_20
    4  A    between atoms: C_16  and  C_24
    5  A    between atoms: C_19  and  O_27
    6  A    between atoms: C_23  and  C_39
    7  A    between atoms: C_24  and  P_31
    8  A    between atoms: C_25  and  O_27
    9  A    between atoms: C_25  and  C_39
   10  A    between atoms: N_32  and  C_39
   11  A    between atoms: C_35  and  C_38
   12  A    between atoms: C_37  and  C_38
                            x       y       z     vdW  Elec       q    Type
                         _______ _______ _______ _____ _____    ______ ____

>  <TORSDO>
F 12

$$$$
=
 OpenBabel11062418003D

 40 43  0  0  1  0  0  0  0  0999 V2000
  186.1970  177.3020  137.5130 C   0  0  2  0  0  3  0  0  0  0  0  0
  187.1030  175.5600  136.1470 O   0  0  0  0  0  0  0  0  0  0  0  0
  185.8960  176.1000  136.6310 C   0  0  1  0  0  3  0  0  0  0  0  0
  186.4960  174.8810  137.2180 C   0  0  0  0  0  2  0  0  0  0  0  0
  184.9950  178.1190  137.6550 N   0  0  0  0  0  2  0  0  0  0  0  0
  185.4070  178.7080  139.8760 O   0  0  0  0  0  0  0  0  0  0  0  0
  184.6590  178.7950  138.8650 C   0  0  0  0  0  0  0  0  0  0  0  0
  183.4130  179.6220  138.9330 C   0  0  0  0  0  2  0  0  0  0  0  0
  180.5860  177.0100  138.2840 C   0  0  1  0  0  0  0  0  0  0  0  0
  182.6810  176.3750  139.5980 C   0  0  0  0  0  2  0  0  0  0  0  0
  182.5790  177.7440  140.2640 C   0  0  0  0  0  2  0  0  0  0  0  0
  181.2950  175.9580  139.1270 C   0  0  2  0  0  3  0  0  0  0  0  0
  181.4460  178.2730  138.0130 C   0  0  2  0  0  3  0  0  0  0  0  0
  181.1760  179.7460  140.0780 C   0  0  0  0  0  1  0  0  0  0  0  0
  181.3990  174.7620  138.2140 C   0  0  0  0  0  2  0  0  0  0  0  0
  180.2870  176.2670  136.9950 C   0  0  0  0  0  2  0  0  0  0  0  0
  180.4070  174.8870  137.2280 O   0  0  0  0  0  0  0  0  0  0  0  0
  179.3840  177.3650  138.9120 O   0  0  0  0  0  1  0  0  0  0  0  0
  182.1330  178.8510  139.2940 C   0  0  2  0  0  0  0  0  0  0  0  0
  180.6900  179.3280  137.1990 C   0  0  0  0  0  2  0  0  0  0  0  0
  181.1710  179.3460  135.7650 C   0  0  0  0  0  1  0  0  0  0  0  0
  187.0010  178.7680  135.7260 O   0  0  0  0  0  1  0  0  0  0  0  0
  187.3500  178.1290  136.9220 C   0  0  1  0  0  3  0  0  0  0  0  0
  187.9480  179.0190  137.8430 O   0  0  0  0  0  0  0  0  0  0  0  0
  192.5440  176.7500  138.0880 C   0  0  0  0  0  1  0  0  0  0  0  0
  190.0580  176.6570  139.7940 C   0  0  1  0  0  3  0  0  0  0  0  0
  188.8210  177.5130  139.5160 C   0  0  2  0  0  3  0  0  0  0  0  0
  189.8100  177.6160  137.2590 C   0  0  0  0  0  2  0  0  0  0  0  0
  189.1270  178.4390  138.3400 C   0  0  1  0  0  3  0  0  0  0  0  0
  188.4270  178.2450  140.6390 O   0  0  0  0  0  1  0  0  0  0  0  0
  190.7680  176.3780  138.1580 P   0  0  1  0  0  4  0  0  0  0  0  0
  191.1770  177.1630  142.0180 C   0  0  0  0  0  0  0  0  0  0  0  0
  191.0230  177.3770  140.6170 N   0  0  0  0  0  2  0  0  0  0  0  0
  190.1390  176.0040  142.9050 S   0  0  0  0  0  1  0  0  0  0  0  0
  192.0540  177.8050  142.6460 O   0  0  0  0  0  0  0  0  0  0  0  0
  190.4310  174.6830  137.5920 C   0  0  0  0  0  2  0  0  0  0  0  0
  191.1730  174.3790  136.2970 C   0  0  1  0  0  3  0  0  0  0  0  0
  192.0680  173.3300  136.4960 O   0  0  0  0  0  1  0  0  0  0  0  0
  190.1880  173.9870  135.2080 C   0  0  0  0  0  2  0  0  0  0  0  0
  189.3230  172.8310  135.6700 C   0  0  0  0  0  1  0  0  0  0  0  0
  1  5  1  6  0  0  0
  2  3  1  0  0  0  0
  2  4  1  0  0  0  0
  3  4  1  0  0  0  0
  3  1  1  1  0  0  0
  5  7  1  0  0  0  0
  7  8  1  0  0  0  0
  7  6  2  0  0  0  0
  8 19  1  0  0  0  0
  9 18  1  1  0  0  0
  9 12  1  0  0  0  0
 10 11  1  0  0  0  0
 12 15  1  6  0  0  0
 12 10  1  0  0  0  0
 13 20  1  1  0  0  0
 13  9  1  0  0  0  0
 13 19  1  0  0  0  0
 16 17  1  0  0  0  0
 16  9  1  0  0  0  0
 17 15  1  0  0  0  0
 19 14  1  1  0  0  0
 19 11  1  0  0  0  0
 21 20  1  0  0  0  0
 23 22  1  6  0  0  0
 23  1  1  0  0  0  0
 23 24  1  0  0  0  0
 26 33  1  1  0  0  0
 27 26  1  0  0  0  0
 27 30  1  1  0  0  0
 28 31  1  0  0  0  0
 28 29  1  0  0  0  0
 29 24  1  6  0  0  0
 29 27  1  0  0  0  0
 31 25  1  6  0  0  0
 31 26  1  0  0  0  0
 32 35  2  0  0  0  0
 32 34  1  0  0  0  0
 33 32  1  0  0  0  0
 36 31  1  0  0  0  0
 37 38  1  1  0  0  0
 37 36  1  0  0  0  0
 39 40  1  0  0  0  0
 39 37  1  0  0  0  0
M  END
>  <MODEL>
8

>  <REMARK>
 VINA RESULT:      -5.7      3.961      9.051
  Name = 
  12 active torsions:
  status: ('A' for Active; 'I' for Inactive)
    1  A    between atoms: C_2  and  C_16
    2  A    between atoms: C_4  and  N_21
    3  A    between atoms: C_13  and  C_20
    4  A    between atoms: C_16  and  C_24
    5  A    between atoms: C_19  and  O_27
    6  A    between atoms: C_23  and  C_39
    7  A    between atoms: C_24  and  P_31
    8  A    between atoms: C_25  and  O_27
    9  A    between atoms: C_25  and  C_39
   10  A    between atoms: N_32  and  C_39
   11  A    between atoms: C_35  and  C_38
   12  A    between atoms: C_37  and  C_38
                            x       y       z     vdW  Elec       q    Type
                         _______ _______ _______ _____ _____    ______ ____

>  <TORSDO>
F 12

$$$$
=
 OpenBabel11062418003D

 40 43  0  0  1  0  0  0  0  0999 V2000
  187.5570  177.7600  138.0650 C   0  0  2  0  0  3  0  0  0  0  0  0
  188.0220  175.9180  136.6110 O   0  0  0  0  0  0  0  0  0  0  0  0
  187.8860  176.2780  137.9650 C   0  0  1  0  0  3  0  0  0  0  0  0
  189.2140  176.0970  137.3350 C   0  0  0  0  0  2  0  0  0  0  0  0
  187.4760  178.1510  139.4690 N   0  0  0  0  0  2  0  0  0  0  0  0
  189.7860  178.2250  139.7960 O   0  0  0  0  0  0  0  0  0  0  0  0
  188.6300  178.3670  140.2790 C   0  0  0  0  0  0  0  0  0  0  0  0
  188.4690  178.7760  141.7090 C   0  0  0  0  0  2  0  0  0  0  0  0
  189.0320  177.3410  145.2960 C   0  0  1  0  0  0  0  0  0  0  0  0
  186.6740  177.6940  144.3800 C   0  0  0  0  0  2  0  0  0  0  0  0
  187.2020  177.1650  143.0490 C   0  0  0  0  0  2  0  0  0  0  0  0
  187.5370  177.1320  145.5020 C   0  0  2  0  0  3  0  0  0  0  0  0
  189.3770  178.1470  144.0150 C   0  0  2  0  0  3  0  0  0  0  0  0
  189.3500  176.4530  142.1080 C   0  0  0  0  0  1  0  0  0  0  0  0
  187.2380  177.8550  146.7920 C   0  0  0  0  0  2  0  0  0  0  0  0
  189.4440  178.1000  146.5440 C   0  0  0  0  0  2  0  0  0  0  0  0
  188.4390  177.9580  147.5140 O   0  0  0  0  0  0  0  0  0  0  0  0
  189.6690  176.0920  145.2710 O   0  0  0  0  0  1  0  0  0  0  0  0
  188.6290  177.6430  142.7370 C   0  0  2  0  0  0  0  0  0  0  0  0
  190.8880  178.3020  143.8150 C   0  0  0  0  0  2  0  0  0  0  0  0
  191.3040  179.7500  143.9680 C   0  0  0  0  0  1  0  0  0  0  0  0
  186.3850  178.1090  135.9460 O   0  0  0  0  0  1  0  0  0  0  0  0
  186.2390  178.0690  137.3370 C   0  0  1  0  0  3  0  0  0  0  0  0
  185.1590  177.2480  137.7330 O   0  0  0  0  0  0  0  0  0  0  0  0
  181.3050  180.1430  139.4940 C   0  0  0  0  0  1  0  0  0  0  0  0
  181.5560  178.0730  137.3140 C   0  0  1  0  0  3  0  0  0  0  0  0
  182.8800  177.3970  136.9510 C   0  0  2  0  0  3  0  0  0  0  0  0
  183.4940  178.1310  139.2240 C   0  0  0  0  0  2  0  0  0  0  0  0
  183.9900  178.0260  137.7920 C   0  0  1  0  0  3  0  0  0  0  0  0
  183.1650  177.5020  135.5870 O   0  0  0  0  0  1  0  0  0  0  0  0
  181.7180  178.4250  139.0770 P   0  0  1  0  0  4  0  0  0  0  0  0
  180.3790  179.5400  135.6060 C   0  0  0  0  0  0  0  0  0  0  0  0
  181.3890  179.3280  136.5900 N   0  0  0  0  0  2  0  0  0  0  0  0
  179.2460  178.2350  135.1360 S   0  0  0  0  0  1  0  0  0  0  0  0
  180.2870  180.6620  135.0510 O   0  0  0  0  0  0  0  0  0  0  0  0
  180.7300  177.2580  140.0600 C   0  0  0  0  0  2  0  0  0  0  0  0
  180.4730  175.9700  139.2890 C   0  0  1  0  0  3  0  0  0  0  0  0
  180.6470  174.8700  140.1270 O   0  0  0  0  0  1  0  0  0  0  0  0
  179.0530  175.9570  138.7470 C   0  0  0  0  0  2  0  0  0  0  0  0
  178.9940  175.1880  137.4410 C   0  0  0  0  0  1  0  0  0  0  0  0
  1  5  1  1  0  0  0
  2  4  1  0  0  0  0
  2  3  1  0  0  0  0
  3  1  1  6  0  0  0
  4  3  1  0  0  0  0
  5  7  1  0  0  0  0
  6  7  2  0  0  0  0
  7  8  1  0  0  0  0
  8 19  1  0  0  0  0
  9 18  1  6  0  0  0
  9 12  1  0  0  0  0
  9 16  1  0  0  0  0
 11 10  1  0  0  0  0
 12 10  1  6  0  0  0
 12 15  1  0  0  0  0
 13 20  1  6  0  0  0
 13  9  1  0  0  0  0
 15 17  1  0  0  0  0
 16 17  1  0  0  0  0
 19 14  1  6  0  0  0
 19 11  1  0  0  0  0
 19 13  1  0  0  0  0
 20 21  1  0  0  0  0
 23 22  1  6  0  0  0
 23 24  1  0  0  0  0
 23  1  1  0  0  0  0
 26 33  1  6  0  0  0
 26 31  1  0  0  0  0
 27 30  1  6  0  0  0
 27 26  1  0  0  0  0
 27 29  1  0  0  0  0
 29 24  1  1  0  0  0
 29 28  1  0  0  0  0
 31 28  1  0  0  0  0
 31 25  1  1  0  0  0
 31 36  1  0  0  0  0
 32 33  1  0  0  0  0
 34 32  1  0  0  0  0
 35 32  2  0  0  0  0
 37 36  1  0  0  0  0
 37 38  1  1  0  0  0
 39 37  1  0  0  0  0
 40 39  1  0  0  0  0
M  END
>  <MODEL>
9

>  <REMARK>
 VINA RESULT:      -5.7      1.928      2.651
  Name = 
  12 active torsions:
  status: ('A' for Active; 'I' for Inactive)
    1  A    between atoms: C_2  and  C_16
    2  A    between atoms: C_4  and  N_21
    3  A    between atoms: C_13  and  C_20
    4  A    between atoms: C_16  and  C_24
    5  A    between atoms: C_19  and  O_27
    6  A    between atoms: C_23  and  C_39
    7  A    between atoms: C_24  and  P_31
    8  A    between atoms: C_25  and  O_27
    9  A    between atoms: C_25  and  C_39
   10  A    between atoms: N_32  and  C_39
   11  A    between atoms: C_35  and  C_38
   12  A    between atoms: C_37  and  C_38
                            x       y       z     vdW  Elec       q    Type
                         _______ _______ _______ _____ _____    ______ ____

>  <TORSDO>
F 12

$$$$
