=
 OpenBabel11062414123D

 32 35  0  0  1  0  0  0  0  0999 V2000
  189.2370  178.2160  144.5910 C   0  0  1  0  0  3  0  0  0  0  0  0
  190.1670  177.0550  144.3470 C   0  0  2  0  0  3  0  0  0  0  0  0
  188.2760  177.3750  145.4040 C   0  0  2  0  0  3  0  0  0  0  0  0
  187.4330  176.6110  144.3450 C   0  0  0  0  0  2  0  0  0  0  0  0
  190.6430  178.3210  144.6670 O   0  0  0  0  0  0  0  0  0  0  0  0
  189.6890  176.5600  142.9740 C   0  0  1  0  0  0  0  0  0  0  0  0
  190.5660  175.5550  142.5540 O   0  0  0  0  0  1  0  0  0  0  0  0
  188.3070  175.8980  143.2610 C   0  0  0  0  0  2  0  0  0  0  0  0
  188.9180  177.1470  139.8760 N   0  0  1  0  0  0  0  0  0  0  0  0
  190.2010  177.2390  140.5730 C   0  0  0  0  0  2  0  0  0  0  0  0
  188.2610  177.5630  141.1140 C   0  0  0  0  0  2  0  0  0  0  0  0
  189.5620  177.6560  141.8810 C   0  0  1  0  0  3  0  0  0  0  0  0
  189.3500  176.8380  136.8790 C   0  0  2  0  0  3  0  0  0  0  0  0
  186.9690  177.2390  137.5350 C   0  0  0  0  0  2  0  0  0  0  0  0
  187.9290  177.0640  136.3640 C   0  0  0  0  0  2  0  0  0  0  0  0
  187.3990  178.4270  138.3940 C   0  0  0  0  0  2  0  0  0  0  0  0
  188.8340  178.2520  138.9130 C   0  0  2  0  0  3  0  0  0  0  0  0
  189.7890  178.0300  137.7300 C   0  0  0  0  0  2  0  0  0  0  0  0
  190.2470  176.6820  135.7880 O   0  0  0  0  0  0  0  0  0  0  0  0
  191.4180  174.7640  136.8610 C   0  0  0  0  0  1  0  0  0  0  0  0
  191.3730  175.8580  135.8570 C   0  0  0  0  0  0  0  0  0  0  0  0
  192.3470  176.0270  135.0770 O   0  0  0  0  0  0  0  0  0  0  0  0
  187.3830  178.2150  146.3220 C   0  0  2  0  0  3  0  0  0  0  0  0
  187.7980  178.1390  147.7860 C   0  0  0  0  0  1  0  0  0  0  0  0
  185.9950  177.8040  146.1820 N   0  0  0  0  0  2  0  0  0  0  0  0
  185.2050  179.0170  146.0530 C   0  0  0  0  0  2  0  0  0  0  0  0
  185.1510  179.4490  144.5970 C   0  0  0  0  0  2  0  0  0  0  0  0
  182.9500  178.5700  144.2520 O   0  0  0  0  0  1  0  0  0  0  0  0
  184.2650  178.5140  143.7850 C   0  0  1  0  0  3  0  0  0  0  0  0
  184.3090  178.8920  142.3430 C   0  0  0  0  0  0  0  0  0  0  0  0
  185.4050  179.5860  141.8480 O   0  0  0  0  0  1  0  0  0  0  0  0
  183.3530  178.6020  141.5760 O   0  0  0  0  0  0  0  0  0  0  0  0
  1  5  1  1  0  0  0
  1  3  1  0  0  0  0
  2  1  1  0  0  0  0
  2  5  1  6  0  0  0
  3 23  1  6  0  0  0
  4  3  1  0  0  0  0
  6  7  1  6  0  0  0
  6  8  1  0  0  0  0
  6  2  1  0  0  0  0
  8  4  1  0  0  0  0
  9 10  1  1  0  0  0
  9 11  1  0  0  0  0
 11 12  1  0  0  0  0
 12 10  1  6  0  0  0
 12  6  1  0  0  0  0
 13 19  1  6  0  0  0
 13 18  1  0  0  0  0
 14 16  1  0  0  0  0
 15 13  1  0  0  0  0
 15 14  1  0  0  0  0
 16 17  1  0  0  0  0
 17 18  1  6  0  0  0
 17  9  1  0  0  0  0
 19 21  1  0  0  0  0
 21 20  1  0  0  0  0
 22 21  2  0  0  0  0
 23 24  1  1  0  0  0
 25 23  1  0  0  0  0
 26 25  1  0  0  0  0
 27 26  1  0  0  0  0
 29 28  1  1  0  0  0
 29 27  1  0  0  0  0
 30 29  1  0  0  0  0
 31 30  1  0  0  0  0
 32 30  2  0  0  0  0
M  END
>  <MODEL>
1

>  <REMARK>
 VINA RESULT:      -7.2      0.000      0.000
  Name = 
  10 active torsions:
  status: ('A' for Active; 'I' for Inactive)
    1  A    between atoms: C_2  and  O_24
    2  A    between atoms: C_3  and  C_7
    3  A    between atoms: C_3  and  N_9
    4  A    between atoms: C_5  and  C_22
    5  A    between atoms: N_8  and  C_25
    6  A    between atoms: N_9  and  C_30
    7  A    between atoms: C_16  and  O_24
    8  A    between atoms: C_18  and  C_27
    9  A    between atoms: C_22  and  C_23
   10  A    between atoms: C_23  and  C_30
                            x       y       z     vdW  Elec       q    Type
                         _______ _______ _______ _____ _____    ______ ____

>  <TORSDO>
F 10

$$$$
=
 OpenBabel11062414123D

 32 35  0  0  1  0  0  0  0  0999 V2000
  184.3330  178.8830  142.5420 C   0  0  1  0  0  3  0  0  0  0  0  0
  184.7730  179.9360  143.5260 C   0  0  2  0  0  3  0  0  0  0  0  0
  182.8650  179.1740  142.7690 C   0  0  2  0  0  3  0  0  0  0  0  0
  182.5180  178.4290  144.0880 C   0  0  0  0  0  2  0  0  0  0  0  0
  185.4090  179.7650  142.3030 O   0  0  0  0  0  0  0  0  0  0  0  0
  184.9690  179.1040  144.8020 C   0  0  1  0  0  0  0  0  0  0  0  0
  185.5170  179.9420  145.7780 O   0  0  0  0  0  1  0  0  0  0  0  0
  183.5230  178.7330  145.2490 C   0  0  0  0  0  2  0  0  0  0  0  0
  188.0030  177.9590  144.6480 N   0  0  1  0  0  0  0  0  0  0  0  0
  186.9560  178.0240  143.6290 C   0  0  0  0  0  2  0  0  0  0  0  0
  186.9600  177.7530  145.6500 C   0  0  0  0  0  2  0  0  0  0  0  0
  185.8400  177.8290  144.6340 C   0  0  1  0  0  3  0  0  0  0  0  0
  190.1280  177.4960  142.5190 C   0  0  2  0  0  3  0  0  0  0  0  0
  191.0330  177.7010  144.8430 C   0  0  0  0  0  2  0  0  0  0  0  0
  191.3860  177.4250  143.3860 C   0  0  0  0  0  2  0  0  0  0  0  0
  190.0100  176.6800  145.3390 C   0  0  0  0  0  2  0  0  0  0  0  0
  188.7380  176.7000  144.4780 C   0  0  2  0  0  3  0  0  0  0  0  0
  189.1060  176.4680  143.0040 C   0  0  0  0  0  2  0  0  0  0  0  0
  190.4540  177.2320  141.1620 O   0  0  0  0  0  0  0  0  0  0  0  0
  189.6920  176.8210  138.8270 C   0  0  0  0  0  1  0  0  0  0  0  0
  189.6000  177.5670  140.1080 C   0  0  0  0  0  0  0  0  0  0  0  0
  188.7500  178.4880  140.2320 O   0  0  0  0  0  0  0  0  0  0  0  0
  181.9800  178.6970  141.6140 C   0  0  2  0  0  3  0  0  0  0  0  0
  180.5700  178.3290  142.0580 C   0  0  0  0  0  1  0  0  0  0  0  0
  182.5970  177.5610  140.9470 N   0  0  0  0  0  2  0  0  0  0  0  0
  181.8910  177.3710  139.6920 C   0  0  0  0  0  2  0  0  0  0  0  0
  182.5530  178.1870  138.5940 C   0  0  0  0  0  2  0  0  0  0  0  0
  184.1180  177.2570  137.0390 O   0  0  0  0  0  1  0  0  0  0  0  0
  183.9800  177.7150  138.3510 C   0  0  1  0  0  3  0  0  0  0  0  0
  184.9380  178.8290  138.6050 C   0  0  0  0  0  0  0  0  0  0  0  0
  184.4790  180.0170  139.1560 O   0  0  0  0  0  1  0  0  0  0  0  0
  186.1560  178.7060  138.3090 O   0  0  0  0  0  0  0  0  0  0  0  0
  1  5  1  6  0  0  0
  1  3  1  0  0  0  0
  1  2  1  0  0  0  0
  2  5  1  6  0  0  0
  2  6  1  0  0  0  0
  3 23  1  6  0  0  0
  3  4  1  0  0  0  0
  4  8  1  0  0  0  0
  6  8  1  0  0  0  0
  6  7  1  1  0  0  0
  9 10  1  6  0  0  0
  9 11  1  0  0  0  0
 12 10  1  6  0  0  0
 12  6  1  0  0  0  0
 12 11  1  0  0  0  0
 13 19  1  6  0  0  0
 13 18  1  0  0  0  0
 13 15  1  0  0  0  0
 14 16  1  0  0  0  0
 15 14  1  0  0  0  0
 17 18  1  6  0  0  0
 17  9  1  0  0  0  0
 17 16  1  0  0  0  0
 20 21  1  0  0  0  0
 21 22  2  0  0  0  0
 21 19  1  0  0  0  0
 23 24  1  1  0  0  0
 25 23  1  0  0  0  0
 26 25  1  0  0  0  0
 27 26  1  0  0  0  0
 29 28  1  6  0  0  0
 29 27  1  0  0  0  0
 29 30  1  0  0  0  0
 30 31  1  0  0  0  0
 32 30  2  0  0  0  0
M  END
>  <MODEL>
2

>  <REMARK>
 VINA RESULT:      -6.3      2.613      6.064
  Name = 
  10 active torsions:
  status: ('A' for Active; 'I' for Inactive)
    1  A    between atoms: C_2  and  O_24
    2  A    between atoms: C_3  and  C_7
    3  A    between atoms: C_3  and  N_9
    4  A    between atoms: C_5  and  C_22
    5  A    between atoms: N_8  and  C_25
    6  A    between atoms: N_9  and  C_30
    7  A    between atoms: C_16  and  O_24
    8  A    between atoms: C_18  and  C_27
    9  A    between atoms: C_22  and  C_23
   10  A    between atoms: C_23  and  C_30
                            x       y       z     vdW  Elec       q    Type
                         _______ _______ _______ _____ _____    ______ ____

>  <TORSDO>
F 10

$$$$
=
 OpenBabel11062414123D

 32 35  0  0  1  0  0  0  0  0999 V2000
  184.4510  178.2420  141.8370 C   0  0  1  0  0  3  0  0  0  0  0  0
  184.8570  179.6000  142.3510 C   0  0  2  0  0  3  0  0  0  0  0  0
  183.0510  178.7050  141.4940 C   0  0  2  0  0  3  0  0  0  0  0  0
  182.2900  178.6860  142.8480 C   0  0  0  0  0  2  0  0  0  0  0  0
  185.7010  178.8360  141.5550 O   0  0  0  0  0  0  0  0  0  0  0  0
  184.6080  179.4450  143.8590 C   0  0  1  0  0  0  0  0  0  0  0  0
  185.0790  180.6020  144.4900 O   0  0  0  0  0  1  0  0  0  0  0  0
  183.0560  179.4260  143.9950 C   0  0  0  0  0  2  0  0  0  0  0  0
  186.8900  178.3620  145.8990 N   0  0  1  0  0  0  0  0  0  0  0  0
  186.7500  178.2010  144.4520 C   0  0  0  0  0  2  0  0  0  0  0  0
  185.4320  178.3350  146.0020 C   0  0  0  0  0  2  0  0  0  0  0  0
  185.2370  178.1830  144.5090 C   0  0  1  0  0  3  0  0  0  0  0  0
  189.8540  177.7570  146.2310 C   0  0  2  0  0  3  0  0  0  0  0  0
  188.6510  178.1980  148.3800 C   0  0  0  0  0  2  0  0  0  0  0  0
  189.9820  177.7980  147.7530 C   0  0  0  0  0  2  0  0  0  0  0  0
  187.5630  177.2020  147.9830 C   0  0  0  0  0  2  0  0  0  0  0  0
  187.4180  177.1110  146.4560 C   0  0  2  0  0  3  0  0  0  0  0  0
  188.7740  176.7530  145.8280 C   0  0  0  0  0  2  0  0  0  0  0  0
  191.0920  177.3770  145.6450 O   0  0  0  0  0  0  0  0  0  0  0  0
  191.5700  176.7390  143.2860 C   0  0  0  0  0  1  0  0  0  0  0  0
  191.4590  177.7650  144.3550 C   0  0  0  0  0  0  0  0  0  0  0  0
  191.6930  178.9730  144.0830 O   0  0  0  0  0  0  0  0  0  0  0  0
  182.3660  177.8070  140.4590 C   0  0  2  0  0  3  0  0  0  0  0  0
  180.9420  177.4320  140.8490 C   0  0  0  0  0  1  0  0  0  0  0  0
  183.1510  176.6020  140.2460 N   0  0  0  0  0  2  0  0  0  0  0  0
  182.9110  176.1760  138.8780 C   0  0  0  0  0  2  0  0  0  0  0  0
  183.3130  177.2780  137.9120 C   0  0  0  0  0  2  0  0  0  0  0  0
  185.0120  177.1750  136.2280 O   0  0  0  0  0  1  0  0  0  0  0  0
  184.8040  177.2170  137.6070 C   0  0  1  0  0  3  0  0  0  0  0  0
  185.4940  178.4030  138.1910 C   0  0  0  0  0  0  0  0  0  0  0  0
  184.7550  179.5220  138.5480 O   0  0  0  0  0  1  0  0  0  0  0  0
  186.7450  178.4040  138.3450 O   0  0  0  0  0  0  0  0  0  0  0  0
  1  5  1  6  0  0  0
  1  2  1  0  0  0  0
  2  5  1  1  0  0  0
  2  6  1  0  0  0  0
  3 23  1  6  0  0  0
  3  1  1  0  0  0  0
  3  4  1  0  0  0  0
  4  8  1  0  0  0  0
  6  8  1  0  0  0  0
  6  7  1  1  0  0  0
  6 12  1  0  0  0  0
  9 10  1  6  0  0  0
  9 11  1  0  0  0  0
  9 17  1  0  0  0  0
 12 10  1  6  0  0  0
 12 11  1  0  0  0  0
 13 19  1  6  0  0  0
 13 15  1  0  0  0  0
 15 14  1  0  0  0  0
 16 14  1  0  0  0  0
 17 18  1  6  0  0  0
 17 16  1  0  0  0  0
 18 13  1  0  0  0  0
 20 21  1  0  0  0  0
 21 19  1  0  0  0  0
 22 21  2  0  0  0  0
 23 24  1  1  0  0  0
 25 23  1  0  0  0  0
 26 25  1  0  0  0  0
 27 26  1  0  0  0  0
 29 28  1  6  0  0  0
 29 27  1  0  0  0  0
 29 30  1  0  0  0  0
 30 32  2  0  0  0  0
 30 31  1  0  0  0  0
M  END
>  <MODEL>
3

>  <REMARK>
 VINA RESULT:      -6.2      3.308      7.501
  Name = 
  10 active torsions:
  status: ('A' for Active; 'I' for Inactive)
    1  A    between atoms: C_2  and  O_24
    2  A    between atoms: C_3  and  C_7
    3  A    between atoms: C_3  and  N_9
    4  A    between atoms: C_5  and  C_22
    5  A    between atoms: N_8  and  C_25
    6  A    between atoms: N_9  and  C_30
    7  A    between atoms: C_16  and  O_24
    8  A    between atoms: C_18  and  C_27
    9  A    between atoms: C_22  and  C_23
   10  A    between atoms: C_23  and  C_30
                            x       y       z     vdW  Elec       q    Type
                         _______ _______ _______ _____ _____    ______ ____

>  <TORSDO>
F 10

$$$$
=
 OpenBabel11062414123D

 32 35  0  0  1  0  0  0  0  0999 V2000
  184.3040  178.0280  141.8090 C   0  0  1  0  0  3  0  0  0  0  0  0
  184.8120  179.3990  142.1730 C   0  0  2  0  0  3  0  0  0  0  0  0
  182.9200  178.5440  141.4780 C   0  0  2  0  0  3  0  0  0  0  0  0
  182.2210  178.7010  142.8570 C   0  0  0  0  0  2  0  0  0  0  0  0
  185.5720  178.5120  141.4220 O   0  0  0  0  0  0  0  0  0  0  0  0
  184.6230  179.4040  143.6970 C   0  0  1  0  0  0  0  0  0  0  0  0
  185.1890  180.5830  144.1940 O   0  0  0  0  0  1  0  0  0  0  0  0
  183.0800  179.4960  143.8960 C   0  0  0  0  0  2  0  0  0  0  0  0
  186.8570  178.3940  145.8260 N   0  0  1  0  0  0  0  0  0  0  0  0
  186.7180  178.1330  144.3930 C   0  0  0  0  0  2  0  0  0  0  0  0
  185.3990  178.4240  145.9210 C   0  0  0  0  0  2  0  0  0  0  0  0
  185.2040  178.1710  144.4420 C   0  0  1  0  0  3  0  0  0  0  0  0
  189.7830  177.8230  146.4380 C   0  0  2  0  0  3  0  0  0  0  0  0
  188.3960  178.3390  148.4550 C   0  0  0  0  0  2  0  0  0  0  0  0
  189.7780  177.9240  147.9630 C   0  0  0  0  0  2  0  0  0  0  0  0
  187.3490  177.3210  148.0050 C   0  0  0  0  0  2  0  0  0  0  0  0
  187.3390  177.1690  146.4750 C   0  0  2  0  0  3  0  0  0  0  0  0
  188.7460  176.7960  145.9830 C   0  0  0  0  0  2  0  0  0  0  0  0
  191.0680  177.4290  145.9780 O   0  0  0  0  0  0  0  0  0  0  0  0
  191.4920  178.6010  143.8220 C   0  0  0  0  0  1  0  0  0  0  0  0
  191.3860  177.3520  144.6200 C   0  0  0  0  0  0  0  0  0  0  0  0
  191.5900  176.2400  144.0640 O   0  0  0  0  0  0  0  0  0  0  0  0
  182.1360  177.5980  140.5640 C   0  0  2  0  0  3  0  0  0  0  0  0
  183.0040  176.9610  139.4850 C   0  0  0  0  0  1  0  0  0  0  0  0
  181.0250  178.3050  139.9470 N   0  0  0  0  0  2  0  0  0  0  0  0
  181.2690  178.3120  138.5150 C   0  0  0  0  0  2  0  0  0  0  0  0
  180.8430  179.6450  137.9220 C   0  0  0  0  0  2  0  0  0  0  0  0
  182.7020  180.9620  138.6590 O   0  0  0  0  0  1  0  0  0  0  0  0
  181.3210  180.8030  138.7880 C   0  0  1  0  0  3  0  0  0  0  0  0
  180.6230  182.0600  138.3910 C   0  0  0  0  0  0  0  0  0  0  0  0
  179.4360  182.4130  139.0170 O   0  0  0  0  0  1  0  0  0  0  0  0
  181.0940  182.7940  137.4820 O   0  0  0  0  0  0  0  0  0  0  0  0
  1  5  1  6  0  0  0
  1  2  1  0  0  0  0
  2  5  1  1  0  0  0
  2  6  1  0  0  0  0
  3 23  1  6  0  0  0
  3  1  1  0  0  0  0
  3  4  1  0  0  0  0
  4  8  1  0  0  0  0
  6  8  1  0  0  0  0
  6  7  1  1  0  0  0
  6 12  1  0  0  0  0
  9 10  1  6  0  0  0
  9 11  1  0  0  0  0
  9 17  1  0  0  0  0
 12 10  1  6  0  0  0
 12 11  1  0  0  0  0
 13 19  1  1  0  0  0
 13 15  1  0  0  0  0
 15 14  1  0  0  0  0
 16 14  1  0  0  0  0
 17 18  1  6  0  0  0
 17 16  1  0  0  0  0
 18 13  1  0  0  0  0
 20 21  1  0  0  0  0
 21 19  1  0  0  0  0
 22 21  2  0  0  0  0
 23 24  1  6  0  0  0
 25 23  1  0  0  0  0
 26 25  1  0  0  0  0
 27 26  1  0  0  0  0
 27 29  1  0  0  0  0
 29 28  1  6  0  0  0
 30 29  1  0  0  0  0
 30 31  1  0  0  0  0
 32 30  2  0  0  0  0
M  END
>  <MODEL>
4

>  <REMARK>
 VINA RESULT:      -6.1      4.301      7.731
  Name = 
  10 active torsions:
  status: ('A' for Active; 'I' for Inactive)
    1  A    between atoms: C_2  and  O_24
    2  A    between atoms: C_3  and  C_7
    3  A    between atoms: C_3  and  N_9
    4  A    between atoms: C_5  and  C_22
    5  A    between atoms: N_8  and  C_25
    6  A    between atoms: N_9  and  C_30
    7  A    between atoms: C_16  and  O_24
    8  A    between atoms: C_18  and  C_27
    9  A    between atoms: C_22  and  C_23
   10  A    between atoms: C_23  and  C_30
                            x       y       z     vdW  Elec       q    Type
                         _______ _______ _______ _____ _____    ______ ____

>  <TORSDO>
F 10

$$$$
=
 OpenBabel11062414123D

 32 35  0  0  1  0  0  0  0  0999 V2000
  189.1210  178.0200  136.5360 C   0  0  1  0  0  3  0  0  0  0  0  0
  187.7600  178.4930  136.9790 C   0  0  2  0  0  3  0  0  0  0  0  0
  188.5600  176.7800  135.8730 C   0  0  2  0  0  3  0  0  0  0  0  0
  188.3280  175.7830  137.0410 C   0  0  0  0  0  2  0  0  0  0  0  0
  188.7030  179.3660  136.4510 O   0  0  0  0  0  0  0  0  0  0  0  0
  187.6950  177.9480  138.4130 C   0  0  1  0  0  0  0  0  0  0  0  0
  186.5240  178.4360  139.0020 O   0  0  0  0  0  1  0  0  0  0  0  0
  187.5340  176.4080  138.2360 C   0  0  0  0  0  2  0  0  0  0  0  0
  189.0790  177.4780  141.3120 N   0  0  1  0  0  0  0  0  0  0  0  0
  188.5240  178.6880  140.7050 C   0  0  0  0  0  2  0  0  0  0  0  0
  189.4980  177.0490  139.9790 C   0  0  0  0  0  2  0  0  0  0  0  0
  188.9250  178.2770  139.3030 C   0  0  1  0  0  3  0  0  0  0  0  0
  189.2260  177.5040  144.3520 C   0  0  2  0  0  3  0  0  0  0  0  0
  190.4990  175.6360  143.2800 C   0  0  0  0  0  2  0  0  0  0  0  0
  190.1580  176.3180  144.6000 C   0  0  0  0  0  2  0  0  0  0  0  0
  191.1720  176.6280  142.3330 C   0  0  0  0  0  2  0  0  0  0  0  0
  190.2760  177.8500  142.0760 C   0  0  2  0  0  3  0  0  0  0  0  0
  189.8990  178.5050  143.4140 C   0  0  0  0  0  2  0  0  0  0  0  0
  188.9130  178.1460  145.5800 O   0  0  0  0  0  0  0  0  0  0  0  0
  186.5130  177.4870  145.6660 C   0  0  0  0  0  1  0  0  0  0  0  0
  187.7980  177.7960  146.3450 C   0  0  0  0  0  0  0  0  0  0  0  0
  187.8680  177.7320  147.6010 O   0  0  0  0  0  0  0  0  0  0  0  0
  189.5040  176.1910  134.8200 C   0  0  2  0  0  3  0  0  0  0  0  0
  189.3760  174.6790  134.6870 C   0  0  0  0  0  1  0  0  0  0  0  0
  190.8810  176.5430  135.1320 N   0  0  0  0  0  2  0  0  0  0  0  0
  191.6720  175.3340  134.9770 C   0  0  0  0  0  2  0  0  0  0  0  0
  192.7200  175.2560  136.0750 C   0  0  0  0  0  2  0  0  0  0  0  0
  191.4720  174.5550  137.9940 O   0  0  0  0  0  1  0  0  0  0  0  0
  192.1270  175.6460  137.4210 C   0  0  1  0  0  3  0  0  0  0  0  0
  193.2030  176.1310  138.3330 C   0  0  0  0  0  0  0  0  0  0  0  0
  194.4700  175.5670  138.2610 O   0  0  0  0  0  0  0  0  0  0  0  0
  192.9670  177.0340  139.1790 O   0  0  0  0  0  1  0  0  0  0  0  0
  1  5  1  6  0  0  0
  1  2  1  0  0  0  0
  2  5  1  1  0  0  0
  2  6  1  0  0  0  0
  3 23  1  6  0  0  0
  3  1  1  0  0  0  0
  3  4  1  0  0  0  0
  4  8  1  0  0  0  0
  6  7  1  1  0  0  0
  6 12  1  0  0  0  0
  8  6  1  0  0  0  0
  9 11  1  6  0  0  0
  9 17  1  0  0  0  0
 10  9  1  0  0  0  0
 12 11  1  1  0  0  0
 12 10  1  0  0  0  0
 13 15  1  0  0  0  0
 13 19  1  1  0  0  0
 14 15  1  0  0  0  0
 16 14  1  0  0  0  0
 17 16  1  1  0  0  0
 17 18  1  0  0  0  0
 18 13  1  0  0  0  0
 19 21  1  0  0  0  0
 20 21  1  0  0  0  0
 21 22  2  0  0  0  0
 23 24  1  1  0  0  0
 23 25  1  0  0  0  0
 26 25  1  0  0  0  0
 26 27  1  0  0  0  0
 27 29  1  0  0  0  0
 29 28  1  1  0  0  0
 29 30  1  0  0  0  0
 30 32  1  0  0  0  0
 31 30  2  0  0  0  0
M  END
>  <MODEL>
5

>  <REMARK>
 VINA RESULT:      -6.1      2.549      8.974
  Name = 
  10 active torsions:
  status: ('A' for Active; 'I' for Inactive)
    1  A    between atoms: C_2  and  O_24
    2  A    between atoms: C_3  and  C_7
    3  A    between atoms: C_3  and  N_9
    4  A    between atoms: C_5  and  C_22
    5  A    between atoms: N_8  and  C_25
    6  A    between atoms: N_9  and  C_30
    7  A    between atoms: C_16  and  O_24
    8  A    between atoms: C_18  and  C_27
    9  A    between atoms: C_22  and  C_23
   10  A    between atoms: C_23  and  C_30
                            x       y       z     vdW  Elec       q    Type
                         _______ _______ _______ _____ _____    ______ ____

>  <TORSDO>
F 10

$$$$
=
 OpenBabel11062414123D

 32 35  0  0  1  0  0  0  0  0999 V2000
  184.4290  178.8090  144.3280 C   0  0  1  0  0  3  0  0  0  0  0  0
  184.9290  179.7940  143.3030 C   0  0  2  0  0  3  0  0  0  0  0  0
  185.8270  178.4860  144.8130 C   0  0  2  0  0  3  0  0  0  0  0  0
  186.3820  177.4830  143.7650 C   0  0  0  0  0  2  0  0  0  0  0  0
  183.8140  180.0560  144.0900 O   0  0  0  0  0  0  0  0  0  0  0  0
  184.9930  178.9220  142.0420 C   0  0  1  0  0  0  0  0  0  0  0  0
  185.3160  179.7530  140.9640 O   0  0  0  0  0  1  0  0  0  0  0  0
  186.2030  177.9710  142.2890 C   0  0  0  0  0  2  0  0  0  0  0  0
  182.6330  178.4100  139.8710 N   0  0  1  0  0  0  0  0  0  0  0  0
  182.5850  178.9870  141.2140 C   0  0  0  0  0  2  0  0  0  0  0  0
  183.7080  177.5320  140.3310 C   0  0  0  0  0  2  0  0  0  0  0  0
  183.7060  178.1100  141.7300 C   0  0  1  0  0  3  0  0  0  0  0  0
  180.2680  179.2600  138.1550 C   0  0  2  0  0  3  0  0  0  0  0  0
  181.6530  177.4310  137.1570 C   0  0  0  0  0  2  0  0  0  0  0  0
  180.4010  178.2830  136.9870 C   0  0  0  0  0  2  0  0  0  0  0  0
  181.5860  176.6530  138.4710 C   0  0  0  0  0  2  0  0  0  0  0  0
  181.4260  177.5980  139.6720 C   0  0  2  0  0  3  0  0  0  0  0  0
  180.1880  178.4860  139.4710 C   0  0  0  0  0  2  0  0  0  0  0  0
  179.0970  180.0500  138.0010 O   0  0  0  0  0  0  0  0  0  0  0  0
  178.9310  181.8490  136.2880 C   0  0  0  0  0  1  0  0  0  0  0  0
  179.1490  181.4110  137.6900 C   0  0  0  0  0  0  0  0  0  0  0  0
  179.3710  182.2720  138.5830 O   0  0  0  0  0  0  0  0  0  0  0  0
  185.8420  177.8840  146.2210 C   0  0  2  0  0  3  0  0  0  0  0  0
  185.7240  178.9350  147.3180 C   0  0  0  0  0  1  0  0  0  0  0  0
  187.0530  177.1020  146.4170 N   0  0  0  0  0  2  0  0  0  0  0  0
  188.0160  177.9690  147.0750 C   0  0  0  0  0  2  0  0  0  0  0  0
  189.3570  177.2640  147.1870 C   0  0  0  0  0  2  0  0  0  0  0  0
  189.9580  178.2700  145.0990 O   0  0  0  0  0  1  0  0  0  0  0  0
  189.9870  177.0720  145.8150 C   0  0  1  0  0  3  0  0  0  0  0  0
  191.3940  176.6000  145.9590 C   0  0  0  0  0  0  0  0  0  0  0  0
  192.0130  175.9500  144.9000 O   0  0  0  0  0  0  0  0  0  0  0  0
  192.0190  176.7700  147.0400 O   0  0  0  0  0  1  0  0  0  0  0  0
  1  5  1  1  0  0  0
  1  3  1  0  0  0  0
  2  5  1  6  0  0  0
  2  1  1  0  0  0  0
  3 23  1  1  0  0  0
  4  3  1  0  0  0  0
  6  7  1  6  0  0  0
  6  8  1  0  0  0  0
  6  2  1  0  0  0  0
  8  4  1  0  0  0  0
  9 11  1  1  0  0  0
  9 10  1  0  0  0  0
 10 12  1  0  0  0  0
 12 11  1  6  0  0  0
 12  6  1  0  0  0  0
 13 19  1  6  0  0  0
 13 18  1  0  0  0  0
 14 16  1  0  0  0  0
 15 14  1  0  0  0  0
 15 13  1  0  0  0  0
 17 16  1  6  0  0  0
 17  9  1  0  0  0  0
 18 17  1  0  0  0  0
 20 21  1  0  0  0  0
 21 19  1  0  0  0  0
 21 22  2  0  0  0  0
 23 25  1  0  0  0  0
 23 24  1  1  0  0  0
 25 26  1  0  0  0  0
 26 27  1  0  0  0  0
 29 28  1  1  0  0  0
 29 30  1  0  0  0  0
 29 27  1  0  0  0  0
 30 32  1  0  0  0  0
 31 30  2  0  0  0  0
M  END
>  <MODEL>
6

>  <REMARK>
 VINA RESULT:      -6.0      4.282      7.623
  Name = 
  10 active torsions:
  status: ('A' for Active; 'I' for Inactive)
    1  A    between atoms: C_2  and  O_24
    2  A    between atoms: C_3  and  C_7
    3  A    between atoms: C_3  and  N_9
    4  A    between atoms: C_5  and  C_22
    5  A    between atoms: N_8  and  C_25
    6  A    between atoms: N_9  and  C_30
    7  A    between atoms: C_16  and  O_24
    8  A    between atoms: C_18  and  C_27
    9  A    between atoms: C_22  and  C_23
   10  A    between atoms: C_23  and  C_30
                            x       y       z     vdW  Elec       q    Type
                         _______ _______ _______ _____ _____    ______ ____

>  <TORSDO>
F 10

$$$$
=
 OpenBabel11062414123D

 32 35  0  0  1  0  0  0  0  0999 V2000
  189.4620  176.2820  138.2670 C   0  0  1  0  0  3  0  0  0  0  0  0
  190.6420  176.7830  139.0590 C   0  0  2  0  0  3  0  0  0  0  0  0
  189.5810  177.3900  137.2420 C   0  0  2  0  0  3  0  0  0  0  0  0
  188.9130  178.6190  137.9160 C   0  0  0  0  0  2  0  0  0  0  0  0
  190.4510  175.4310  138.8060 O   0  0  0  0  0  0  0  0  0  0  0  0
  189.9520  177.6350  140.1340 C   0  0  1  0  0  0  0  0  0  0  0  0
  190.9330  178.0590  141.0380 O   0  0  0  0  0  1  0  0  0  0  0  0
  189.4390  178.8900  139.3650 C   0  0  0  0  0  2  0  0  0  0  0  0
  187.9230  177.8360  142.6600 N   0  0  1  0  0  0  0  0  0  0  0  0
  189.0160  176.9030  142.3870 C   0  0  0  0  0  2  0  0  0  0  0  0
  187.6590  177.8850  141.2240 C   0  0  0  0  0  2  0  0  0  0  0  0
  188.7900  176.9360  140.8900 C   0  0  1  0  0  3  0  0  0  0  0  0
  187.2440  178.0320  145.6210 C   0  0  2  0  0  3  0  0  0  0  0  0
  185.5860  179.1440  144.1130 C   0  0  0  0  0  2  0  0  0  0  0  0
  185.9090  178.7740  145.5560 C   0  0  0  0  0  2  0  0  0  0  0  0
  185.5160  177.8860  143.2500 C   0  0  0  0  0  2  0  0  0  0  0  0
  186.8320  177.0950  143.3060 C   0  0  2  0  0  3  0  0  0  0  0  0
  187.1750  176.7650  144.7670 C   0  0  0  0  0  2  0  0  0  0  0  0
  187.5430  177.6790  146.9640 O   0  0  0  0  0  0  0  0  0  0  0  0
  189.9760  177.2310  146.6810 C   0  0  0  0  0  1  0  0  0  0  0  0
  188.8380  177.7450  147.4850 C   0  0  0  0  0  0  0  0  0  0  0  0
  189.0530  178.2400  148.6230 O   0  0  0  0  0  0  0  0  0  0  0  0
  188.9000  177.0450  135.9140 C   0  0  2  0  0  3  0  0  0  0  0  0
  189.8320  177.1750  134.7160 C   0  0  0  0  0  1  0  0  0  0  0  0
  187.7300  177.8870  135.7200 N   0  0  0  0  0  2  0  0  0  0  0  0
  186.6130  177.0020  135.4380 C   0  0  0  0  0  2  0  0  0  0  0  0
  185.8880  176.6530  136.7280 C   0  0  0  0  0  2  0  0  0  0  0  0
  183.5180  176.9690  136.6120 O   0  0  0  0  0  1  0  0  0  0  0  0
  184.7150  177.5940  136.9650 C   0  0  1  0  0  3  0  0  0  0  0  0
  184.6720  178.0070  138.3970 C   0  0  0  0  0  0  0  0  0  0  0  0
  185.5230  179.0050  138.8500 O   0  0  0  0  0  0  0  0  0  0  0  0
  183.8810  177.4450  139.2010 O   0  0  0  0  0  1  0  0  0  0  0  0
  1  5  1  6  0  0  0
  1  2  1  0  0  0  0
  2  5  1  1  0  0  0
  2  6  1  0  0  0  0
  3 23  1  6  0  0  0
  3  4  1  0  0  0  0
  3  1  1  0  0  0  0
  4  8  1  0  0  0  0
  6 12  1  0  0  0  0
  6  7  1  1  0  0  0
  8  6  1  0  0  0  0
  9 11  1  6  0  0  0
  9 17  1  0  0  0  0
 10  9  1  0  0  0  0
 12 11  1  1  0  0  0
 12 10  1  0  0  0  0
 13 19  1  1  0  0  0
 14 15  1  0  0  0  0
 15 13  1  0  0  0  0
 16 14  1  0  0  0  0
 17 16  1  1  0  0  0
 17 18  1  0  0  0  0
 18 13  1  0  0  0  0
 19 21  1  0  0  0  0
 20 21  1  0  0  0  0
 21 22  2  0  0  0  0
 23 24  1  6  0  0  0
 25 23  1  0  0  0  0
 26 25  1  0  0  0  0
 26 27  1  0  0  0  0
 27 29  1  0  0  0  0
 29 28  1  1  0  0  0
 29 30  1  0  0  0  0
 30 31  2  0  0  0  0
 30 32  1  0  0  0  0
M  END
>  <MODEL>
7

>  <REMARK>
 VINA RESULT:      -5.9      2.307      7.780
  Name = 
  10 active torsions:
  status: ('A' for Active; 'I' for Inactive)
    1  A    between atoms: C_2  and  O_24
    2  A    between atoms: C_3  and  C_7
    3  A    between atoms: C_3  and  N_9
    4  A    between atoms: C_5  and  C_22
    5  A    between atoms: N_8  and  C_25
    6  A    between atoms: N_9  and  C_30
    7  A    between atoms: C_16  and  O_24
    8  A    between atoms: C_18  and  C_27
    9  A    between atoms: C_22  and  C_23
   10  A    between atoms: C_23  and  C_30
                            x       y       z     vdW  Elec       q    Type
                         _______ _______ _______ _____ _____    ______ ____

>  <TORSDO>
F 10

$$$$
=
 OpenBabel11062414123D

 32 35  0  0  1  0  0  0  0  0999 V2000
  187.9200  177.1190  144.4200 C   0  0  1  0  0  3  0  0  0  0  0  0
  186.6870  176.6180  143.7130 C   0  0  2  0  0  3  0  0  0  0  0  0
  187.1630  177.4100  145.6990 C   0  0  2  0  0  3  0  0  0  0  0  0
  186.4650  178.7730  145.4380 C   0  0  0  0  0  2  0  0  0  0  0  0
  187.9110  175.9720  143.5980 O   0  0  0  0  0  0  0  0  0  0  0  0
  186.2260  177.8780  142.9660 C   0  0  1  0  0  0  0  0  0  0  0  0
  185.1510  177.5180  142.1460 O   0  0  0  0  0  1  0  0  0  0  0  0
  185.6780  178.8140  144.0860 C   0  0  0  0  0  2  0  0  0  0  0  0
  188.0760  177.7100  140.3030 N   0  0  1  0  0  0  0  0  0  0  0  0
  188.4360  177.6540  141.7200 C   0  0  0  0  0  2  0  0  0  0  0  0
  186.9990  178.6330  140.6550 C   0  0  0  0  0  2  0  0  0  0  0  0
  187.3230  178.5940  142.1330 C   0  0  1  0  0  3  0  0  0  0  0  0
  190.3360  176.4210  138.7250 C   0  0  2  0  0  3  0  0  0  0  0  0
  188.5870  177.5100  137.3060 C   0  0  0  0  0  2  0  0  0  0  0  0
  189.9270  176.7840  137.2980 C   0  0  0  0  0  2  0  0  0  0  0  0
  188.6810  178.7800  138.1510 C   0  0  0  0  0  2  0  0  0  0  0  0
  189.1160  178.4620  139.5910 C   0  0  2  0  0  3  0  0  0  0  0  0
  190.4440  177.6890  139.5720 C   0  0  0  0  0  2  0  0  0  0  0  0
  191.5890  175.7510  138.7190 O   0  0  0  0  0  0  0  0  0  0  0  0
  193.2760  176.1830  136.9400 C   0  0  0  0  0  1  0  0  0  0  0  0
  192.7720  176.3790  138.3230 C   0  0  0  0  0  0  0  0  0  0  0  0
  193.4140  177.1140  139.1210 O   0  0  0  0  0  0  0  0  0  0  0  0
  188.0760  177.4800  146.9260 C   0  0  2  0  0  3  0  0  0  0  0  0
  187.5570  178.4270  148.0000 C   0  0  0  0  0  1  0  0  0  0  0  0
  189.4180  177.8750  146.5280 N   0  0  0  0  0  2  0  0  0  0  0  0
  190.3340  176.9060  147.1060 C   0  0  0  0  0  2  0  0  0  0  0  0
  191.5560  176.7520  146.2140 C   0  0  0  0  0  2  0  0  0  0  0  0
  192.0550  178.5420  144.7040 O   0  0  0  0  0  1  0  0  0  0  0  0
  191.3110  177.3690  144.8440 C   0  0  1  0  0  3  0  0  0  0  0  0
  191.6810  176.4000  143.7730 C   0  0  0  0  0  0  0  0  0  0  0  0
  192.0390  175.1030  144.1140 O   0  0  0  0  0  1  0  0  0  0  0  0
  191.6870  176.7530  142.5640 O   0  0  0  0  0  0  0  0  0  0  0  0
  1  5  1  1  0  0  0
  1  3  1  0  0  0  0
  2  5  1  6  0  0  0
  2  1  1  0  0  0  0
  3 23  1  1  0  0  0
  4  3  1  0  0  0  0
  6  7  1  6  0  0  0
  6  2  1  0  0  0  0
  6  8  1  0  0  0  0
  8  4  1  0  0  0  0
  9 11  1  1  0  0  0
  9 10  1  0  0  0  0
 10 12  1  0  0  0  0
 12 11  1  6  0  0  0
 12  6  1  0  0  0  0
 13 19  1  6  0  0  0
 13 18  1  0  0  0  0
 14 16  1  0  0  0  0
 15 14  1  0  0  0  0
 15 13  1  0  0  0  0
 17 16  1  6  0  0  0
 17  9  1  0  0  0  0
 18 17  1  0  0  0  0
 20 21  1  0  0  0  0
 21 19  1  0  0  0  0
 21 22  2  0  0  0  0
 23 24  1  1  0  0  0
 25 23  1  0  0  0  0
 25 26  1  0  0  0  0
 27 26  1  0  0  0  0
 29 28  1  6  0  0  0
 29 27  1  0  0  0  0
 30 31  1  0  0  0  0
 30 29  1  0  0  0  0
 32 30  2  0  0  0  0
M  END
>  <MODEL>
8

>  <REMARK>
 VINA RESULT:      -5.9      1.943      4.385
  Name = 
  10 active torsions:
  status: ('A' for Active; 'I' for Inactive)
    1  A    between atoms: C_2  and  O_24
    2  A    between atoms: C_3  and  C_7
    3  A    between atoms: C_3  and  N_9
    4  A    between atoms: C_5  and  C_22
    5  A    between atoms: N_8  and  C_25
    6  A    between atoms: N_9  and  C_30
    7  A    between atoms: C_16  and  O_24
    8  A    between atoms: C_18  and  C_27
    9  A    between atoms: C_22  and  C_23
   10  A    between atoms: C_23  and  C_30
                            x       y       z     vdW  Elec       q    Type
                         _______ _______ _______ _____ _____    ______ ____

>  <TORSDO>
F 10

$$$$
=
 OpenBabel11062414123D

 32 35  0  0  1  0  0  0  0  0999 V2000
  184.5950  178.5680  144.2420 C   0  0  1  0  0  3  0  0  0  0  0  0
  185.0220  179.6500  143.2830 C   0  0  2  0  0  3  0  0  0  0  0  0
  185.9910  178.4110  144.8060 C   0  0  2  0  0  3  0  0  0  0  0  0
  186.7360  177.5300  143.7660 C   0  0  0  0  0  2  0  0  0  0  0  0
  183.8370  179.7350  144.0020 O   0  0  0  0  0  0  0  0  0  0  0  0
  185.2770  178.8440  142.0010 C   0  0  1  0  0  0  0  0  0  0  0  0
  185.5520  179.7520  140.9730 O   0  0  0  0  0  1  0  0  0  0  0  0
  186.5840  178.0490  142.2970 C   0  0  0  0  0  2  0  0  0  0  0  0
  182.9870  178.2530  139.7770 N   0  0  1  0  0  0  0  0  0  0  0  0
  182.8730  178.6330  141.1840 C   0  0  0  0  0  2  0  0  0  0  0  0
  184.1960  177.5050  140.1170 C   0  0  0  0  0  2  0  0  0  0  0  0
  184.1290  177.8850  141.5810 C   0  0  1  0  0  3  0  0  0  0  0  0
  180.0270  178.7780  140.2500 C   0  0  2  0  0  3  0  0  0  0  0  0
  180.6980  178.7960  137.8400 C   0  0  0  0  0  2  0  0  0  0  0  0
  179.5270  178.8960  138.8110 C   0  0  0  0  0  2  0  0  0  0  0  0
  181.4220  177.4630  138.0250 C   0  0  0  0  0  2  0  0  0  0  0  0
  181.9200  177.2930  139.4680 C   0  0  2  0  0  3  0  0  0  0  0  0
  180.7420  177.4410  140.4430 C   0  0  0  0  0  2  0  0  0  0  0  0
  178.9360  178.8640  141.1560 O   0  0  0  0  0  0  0  0  0  0  0  0
  179.0590  180.2480  143.2230 C   0  0  0  0  0  1  0  0  0  0  0  0
  179.1150  178.9300  142.5400 C   0  0  0  0  0  0  0  0  0  0  0  0
  179.3180  177.8870  143.2170 O   0  0  0  0  0  0  0  0  0  0  0  0
  186.0000  177.7600  146.1920 C   0  0  2  0  0  3  0  0  0  0  0  0
  185.6820  178.7430  147.3120 C   0  0  0  0  0  1  0  0  0  0  0  0
  187.2880  177.1320  146.4410 N   0  0  0  0  0  2  0  0  0  0  0  0
  187.9260  177.8820  147.5100 C   0  0  0  0  0  2  0  0  0  0  0  0
  189.3930  177.4970  147.6110 C   0  0  0  0  0  2  0  0  0  0  0  0
  189.9360  178.2630  145.4080 O   0  0  0  0  0  1  0  0  0  0  0  0
  189.9570  177.1440  146.2420 C   0  0  1  0  0  3  0  0  0  0  0  0
  191.3530  176.6380  146.3790 C   0  0  0  0  0  0  0  0  0  0  0  0
  191.9930  176.7120  147.6080 O   0  0  0  0  0  1  0  0  0  0  0  0
  191.9620  176.1590  145.3850 O   0  0  0  0  0  0  0  0  0  0  0  0
  1  5  1  1  0  0  0
  1  3  1  0  0  0  0
  2  5  1  6  0  0  0
  2  1  1  0  0  0  0
  3 23  1  1  0  0  0
  4  3  1  0  0  0  0
  6  7  1  6  0  0  0
  6  8  1  0  0  0  0
  6  2  1  0  0  0  0
  8  4  1  0  0  0  0
  9 11  1  1  0  0  0
  9 10  1  0  0  0  0
 10 12  1  0  0  0  0
 12 11  1  6  0  0  0
 12  6  1  0  0  0  0
 13 18  1  0  0  0  0
 13 19  1  1  0  0  0
 14 16  1  0  0  0  0
 14 15  1  0  0  0  0
 15 13  1  0  0  0  0
 17 16  1  6  0  0  0
 17  9  1  0  0  0  0
 17 18  1  0  0  0  0
 19 21  1  0  0  0  0
 21 22  2  0  0  0  0
 21 20  1  0  0  0  0
 23 25  1  0  0  0  0
 23 24  1  1  0  0  0
 25 26  1  0  0  0  0
 26 27  1  0  0  0  0
 29 28  1  6  0  0  0
 29 30  1  0  0  0  0
 29 27  1  0  0  0  0
 30 31  1  0  0  0  0
 32 30  2  0  0  0  0
M  END
>  <MODEL>
9

>  <REMARK>
 VINA RESULT:      -5.8      4.158      7.810
  Name = 
  10 active torsions:
  status: ('A' for Active; 'I' for Inactive)
    1  A    between atoms: C_2  and  O_24
    2  A    between atoms: C_3  and  C_7
    3  A    between atoms: C_3  and  N_9
    4  A    between atoms: C_5  and  C_22
    5  A    between atoms: N_8  and  C_25
    6  A    between atoms: N_9  and  C_30
    7  A    between atoms: C_16  and  O_24
    8  A    between atoms: C_18  and  C_27
    9  A    between atoms: C_22  and  C_23
   10  A    between atoms: C_23  and  C_30
                            x       y       z     vdW  Elec       q    Type
                         _______ _______ _______ _____ _____    ______ ____

>  <TORSDO>
F 10

$$$$
