=
 OpenBabel11062414093D

 32 35  0  0  1  0  0  0  0  0999 V2000
  186.3570  177.7380  143.5570 C   0  0  0  0  0  3  0  0  0  0  0  0
  187.6390  177.3380  143.9520 C   0  0  0  0  0  0  0  0  0  0  0  0
  185.8350  178.3960  145.8180 C   0  0  0  0  0  3  0  0  0  0  0  0
  185.4500  178.2690  144.4790 C   0  0  0  0  0  0  0  0  0  0  0  0
  188.0310  177.4740  145.3060 C   0  0  0  0  0  0  0  0  0  0  0  0
  187.1100  178.0020  146.2250 C   0  0  0  0  0  3  0  0  0  0  0  0
  191.0920  176.6310  147.2990 C   0  0  0  0  0  2  0  0  0  0  0  0
  191.6710  176.7200  145.8950 C   0  0  0  0  0  2  0  0  0  0  0  0
  189.5840  176.6620  147.1400 C   0  0  0  0  0  2  0  0  0  0  0  0
  189.3350  177.0790  145.7730 N   0  0  0  0  0  0  0  0  0  0  0  0
  190.5580  177.2420  145.0100 C   0  0  0  0  0  2  0  0  0  0  0  0
  183.7300  178.5690  142.6670 N   0  0  0  0  0  2  0  0  0  0  0  0
  184.0950  178.6550  144.0500 C   0  0  0  0  0  0  0  0  0  0  0  0
  183.2510  179.0480  144.9010 O   0  0  0  0  0  0  0  0  0  0  0  0
  182.4070  178.9230  142.1780 C   0  0  0  0  0  2  0  0  0  0  0  0
  183.3800  177.5260  140.3830 C   0  0  0  0  0  1  0  0  0  0  0  0
  182.1120  178.1760  140.8910 C   0  0  0  0  0  2  0  0  0  0  0  0
  188.5060  176.6720  142.9290 C   0  0  0  0  0  2  0  0  0  0  0  0
  189.1840  178.7610  142.0800 O   0  0  0  0  0  0  0  0  0  0  0  0
  188.8330  177.6200  141.8190 C   0  0  0  0  0  0  0  0  0  0  0  0
  189.8900  177.3680  137.7480 N   0  0  0  0  0  0  0  0  0  0  0  0
  188.0310  179.1220  137.0280 S   0  0  0  0  0  0  0  0  0  0  0  0
  188.8240  177.1320  140.4020 C   0  0  2  0  0  3  0  0  0  0  0  0
  190.1790  176.6060  140.0090 C   0  0  0  0  0  2  0  0  0  0  0  0
  188.7520  178.1460  138.1190 C   0  0  0  0  0  0  0  0  0  0  0  0
  188.3450  178.1660  139.4860 N   0  0  0  0  0  2  0  0  0  0  0  0
  190.6370  176.6660  138.7510 C   0  0  0  0  0  0  0  0  0  0  0  0
  191.9300  176.0550  138.3970 C   0  0  0  0  0  0  0  0  0  0  0  0
  193.6920  174.6460  137.5580 S   0  0  0  0  0  0  0  0  0  0  0  0
  194.2030  175.9970  138.3610 N   0  0  0  0  0  0  0  0  0  0  0  0
  193.1130  176.6480  138.7490 N   0  0  0  0  0  0  0  0  0  0  0  0
  192.0380  174.8520  137.6820 C   0  0  0  0  0  3  0  0  0  0  0  0
  1  2  2  0  0  0  0
  1  4  1  0  0  0  0
  2  5  1  0  0  0  0
  3  6  1  0  0  0  0
  4  3  2  0  0  0  0
  5 10  1  0  0  0  0
  5  6  2  0  0  0  0
  8  7  1  0  0  0  0
  9  7  1  0  0  0  0
 10  9  1  0  0  0  0
 11 10  1  0  0  0  0
 11  8  1  0  0  0  0
 12 13  1  0  0  0  0
 13  4  1  0  0  0  0
 13 14  2  0  0  0  0
 15 12  1  0  0  0  0
 16 17  1  0  0  0  0
 17 15  1  0  0  0  0
 18  2  1  0  0  0  0
 20 19  2  0  0  0  0
 20 18  1  0  0  0  0
 21 25  1  0  0  0  0
 21 27  2  0  0  0  0
 22 25  2  0  0  0  0
 23 20  1  1  0  0  0
 24 23  1  0  0  0  0
 25 26  1  0  0  0  0
 26 23  1  0  0  0  0
 27 24  1  0  0  0  0
 28 31  1  0  0  0  0
 28 27  1  0  0  0  0
 29 32  1  0  0  0  0
 29 30  1  0  0  0  0
 30 31  2  0  0  0  0
 32 28  2  0  0  0  0
M  END
>  <MODEL>
1

>  <REMARK>
 VINA RESULT:      -8.8      0.000      0.000
  Name = 
  8 active torsions:
  status: ('A' for Active; 'I' for Inactive)
    1  A    between atoms: N_3  and  C_23
    2  A    between atoms: C_4  and  C_9
    3  A    between atoms: C_4  and  C_13
    4  A    between atoms: C_5  and  C_30
    5  A    between atoms: C_11  and  C_13
    6  A    between atoms: C_18  and  C_20
    7  A    between atoms: C_19  and  N_25
    8  A    between atoms: C_23  and  C_29
                            x       y       z     vdW  Elec       q    Type
                         _______ _______ _______ _____ _____    ______ ____

>  <TORSDO>
F 8

$$$$
=
 OpenBabel11062414093D

 32 35  0  0  1  0  0  0  0  0999 V2000
  188.1560  178.0480  143.3400 C   0  0  0  0  0  3  0  0  0  0  0  0
  189.3250  177.7180  144.0360 C   0  0  0  0  0  0  0  0  0  0  0  0
  186.8140  177.4450  145.2520 C   0  0  0  0  0  3  0  0  0  0  0  0
  186.8990  177.9170  143.9380 C   0  0  0  0  0  0  0  0  0  0  0  0
  189.2390  177.2470  145.3690 C   0  0  0  0  0  0  0  0  0  0  0  0
  187.9720  177.1130  145.9570 C   0  0  0  0  0  3  0  0  0  0  0  0
  192.3390  175.6810  146.7810 C   0  0  0  0  0  2  0  0  0  0  0  0
  191.9070  176.5710  147.9360 C   0  0  0  0  0  2  0  0  0  0  0  0
  191.4780  176.0740  145.5960 C   0  0  0  0  0  2  0  0  0  0  0  0
  190.4060  176.8900  146.1360 N   0  0  0  0  0  0  0  0  0  0  0  0
  190.5490  177.1260  147.5590 C   0  0  0  0  0  2  0  0  0  0  0  0
  184.4520  178.4990  143.8710 N   0  0  0  0  0  2  0  0  0  0  0  0
  185.6780  178.2400  143.1780 C   0  0  0  0  0  0  0  0  0  0  0  0
  185.7170  178.3020  141.9190 O   0  0  0  0  0  0  0  0  0  0  0  0
  183.2150  178.8350  143.1830 C   0  0  0  0  0  2  0  0  0  0  0  0
  180.7640  178.6360  143.4560 C   0  0  0  0  0  1  0  0  0  0  0  0
  182.0690  178.9010  144.1750 C   0  0  0  0  0  2  0  0  0  0  0  0
  190.6200  177.7730  143.2870 C   0  0  0  0  0  2  0  0  0  0  0  0
  190.4070  175.6670  142.2560 O   0  0  0  0  0  0  0  0  0  0  0  0
  190.5790  176.8660  142.0970 C   0  0  0  0  0  0  0  0  0  0  0  0
  190.1810  177.0960  137.9090 N   0  0  0  0  0  0  0  0  0  0  0  0
  192.6300  176.1540  137.5010 S   0  0  0  0  0  0  0  0  0  0  0  0
  190.6460  177.4500  140.7190 C   0  0  2  0  0  3  0  0  0  0  0  0
  189.2770  177.5130  140.0960 C   0  0  0  0  0  2  0  0  0  0  0  0
  191.4430  176.7250  138.4640 C   0  0  0  0  0  0  0  0  0  0  0  0
  191.6020  176.7270  139.8820 N   0  0  0  0  0  2  0  0  0  0  0  0
  189.0820  177.4100  138.7750 C   0  0  0  0  0  0  0  0  0  0  0  0
  187.7330  177.5700  138.2040 C   0  0  0  0  0  0  0  0  0  0  0  0
  185.6940  177.3600  136.9430 S   0  0  0  0  0  0  0  0  0  0  0  0
  185.6960  178.5710  138.0670 N   0  0  0  0  0  0  0  0  0  0  0  0
  186.8830  178.5410  138.6610 N   0  0  0  0  0  0  0  0  0  0  0  0
  187.2310  176.7510  137.1820 C   0  0  0  0  0  3  0  0  0  0  0  0
  1  4  2  0  0  0  0
  1  2  1  0  0  0  0
  2  5  2  0  0  0  0
  3  6  2  0  0  0  0
  4  3  1  0  0  0  0
  5  6  1  0  0  0  0
  5 10  1  0  0  0  0
  7  8  1  0  0  0  0
  9 10  1  0  0  0  0
  9  7  1  0  0  0  0
 10 11  1  0  0  0  0
 11  8  1  0  0  0  0
 13 12  1  0  0  0  0
 13  4  1  0  0  0  0
 14 13  2  0  0  0  0
 15 12  1  0  0  0  0
 15 17  1  0  0  0  0
 16 17  1  0  0  0  0
 18  2  1  0  0  0  0
 20 19  2  0  0  0  0
 20 18  1  0  0  0  0
 21 25  1  0  0  0  0
 21 27  2  0  0  0  0
 22 25  2  0  0  0  0
 23 20  1  1  0  0  0
 24 23  1  0  0  0  0
 25 26  1  0  0  0  0
 26 23  1  0  0  0  0
 27 24  1  0  0  0  0
 28 31  1  0  0  0  0
 28 27  1  0  0  0  0
 29 32  1  0  0  0  0
 29 30  1  0  0  0  0
 30 31  2  0  0  0  0
 32 28  2  0  0  0  0
M  END
>  <MODEL>
2

>  <REMARK>
 VINA RESULT:      -8.6      1.798      3.572
  Name = 
  8 active torsions:
  status: ('A' for Active; 'I' for Inactive)
    1  A    between atoms: N_3  and  C_23
    2  A    between atoms: C_4  and  C_9
    3  A    between atoms: C_4  and  C_13
    4  A    between atoms: C_5  and  C_30
    5  A    between atoms: C_11  and  C_13
    6  A    between atoms: C_18  and  C_20
    7  A    between atoms: C_19  and  N_25
    8  A    between atoms: C_23  and  C_29
                            x       y       z     vdW  Elec       q    Type
                         _______ _______ _______ _____ _____    ______ ____

>  <TORSDO>
F 8

$$$$
=
 OpenBabel11062414093D

 32 35  0  0  1  0  0  0  0  0999 V2000
  187.6750  177.7140  145.1050 C   0  0  0  0  0  3  0  0  0  0  0  0
  186.5590  177.9400  144.2910 C   0  0  0  0  0  0  0  0  0  0  0  0
  186.4280  178.3980  147.0530 C   0  0  0  0  0  3  0  0  0  0  0  0
  187.6200  177.9370  146.4840 C   0  0  0  0  0  0  0  0  0  0  0  0
  185.3510  178.3990  144.8680 C   0  0  0  0  0  0  0  0  0  0  0  0
  185.3080  178.6260  146.2530 C   0  0  0  0  0  3  0  0  0  0  0  0
  181.8690  178.8910  143.5690 C   0  0  0  0  0  2  0  0  0  0  0  0
  182.6520  178.7660  142.2710 C   0  0  0  0  0  2  0  0  0  0  0  0
  182.8980  179.0180  144.6760 C   0  0  0  0  0  2  0  0  0  0  0  0
  184.1700  178.6510  144.0820 N   0  0  0  0  0  0  0  0  0  0  0  0
  184.0620  178.3760  142.6620 C   0  0  0  0  0  2  0  0  0  0  0  0
  189.8880  176.9080  146.8370 N   0  0  0  0  0  2  0  0  0  0  0  0
  188.8150  177.7230  147.3200 C   0  0  0  0  0  0  0  0  0  0  0  0
  188.8980  178.2690  148.4530 O   0  0  0  0  0  0  0  0  0  0  0  0
  191.1000  176.6650  147.6050 C   0  0  0  0  0  2  0  0  0  0  0  0
  191.8180  176.1650  145.2920 C   0  0  0  0  0  1  0  0  0  0  0  0
  192.1150  175.9230  146.7560 C   0  0  0  0  0  2  0  0  0  0  0  0
  186.7360  177.7890  142.8120 C   0  0  0  0  0  2  0  0  0  0  0  0
  188.4410  176.1760  143.0000 O   0  0  0  0  0  0  0  0  0  0  0  0
  188.0890  177.2330  142.4970 C   0  0  0  0  0  0  0  0  0  0  0  0
  190.5480  177.7200  139.1120 N   0  0  0  0  0  0  0  0  0  0  0  0
  192.7590  177.2050  140.4890 S   0  0  0  0  0  0  0  0  0  0  0  0
  188.9580  177.9240  141.4910 C   0  0  2  0  0  3  0  0  0  0  0  0
  188.3650  177.8210  140.1110 C   0  0  0  0  0  2  0  0  0  0  0  0
  191.1590  177.5080  140.3840 C   0  0  0  0  0  0  0  0  0  0  0  0
  190.3320  177.4250  141.5430 N   0  0  0  0  0  2  0  0  0  0  0  0
  189.1200  177.7910  139.0040 C   0  0  0  0  0  0  0  0  0  0  0  0
  188.4910  177.7830  137.6720 C   0  0  0  0  0  0  0  0  0  0  0  0
  187.7500  177.2460  135.4460 S   0  0  0  0  0  0  0  0  0  0  0  0
  187.1550  178.6630  136.0560 N   0  0  0  0  0  0  0  0  0  0  0  0
  187.6610  178.7970  137.2760 N   0  0  0  0  0  0  0  0  0  0  0  0
  188.6870  176.7530  136.7390 C   0  0  0  0  0  3  0  0  0  0  0  0
  1  4  1  0  0  0  0
  2  5  1  0  0  0  0
  2  1  2  0  0  0  0
  4  3  2  0  0  0  0
  4 13  1  0  0  0  0
  5  6  2  0  0  0  0
  6  3  1  0  0  0  0
  7  9  1  0  0  0  0
  8 11  1  0  0  0  0
  8  7  1  0  0  0  0
 10  9  1  0  0  0  0
 10  5  1  0  0  0  0
 11 10  1  0  0  0  0
 12 13  1  0  0  0  0
 12 15  1  0  0  0  0
 13 14  2  0  0  0  0
 16 17  1  0  0  0  0
 17 15  1  0  0  0  0
 18  2  1  0  0  0  0
 20 18  1  0  0  0  0
 20 19  2  0  0  0  0
 21 25  1  0  0  0  0
 23 26  1  0  0  0  0
 23 20  1  1  0  0  0
 24 23  1  0  0  0  0
 25 22  2  0  0  0  0
 25 26  1  0  0  0  0
 27 21  2  0  0  0  0
 27 24  1  0  0  0  0
 28 27  1  0  0  0  0
 29 30  1  0  0  0  0
 29 32  1  0  0  0  0
 30 31  2  0  0  0  0
 31 28  1  0  0  0  0
 32 28  2  0  0  0  0
M  END
>  <MODEL>
3

>  <REMARK>
 VINA RESULT:      -8.5      2.189      5.897
  Name = 
  8 active torsions:
  status: ('A' for Active; 'I' for Inactive)
    1  A    between atoms: N_3  and  C_23
    2  A    between atoms: C_4  and  C_9
    3  A    between atoms: C_4  and  C_13
    4  A    between atoms: C_5  and  C_30
    5  A    between atoms: C_11  and  C_13
    6  A    between atoms: C_18  and  C_20
    7  A    between atoms: C_19  and  N_25
    8  A    between atoms: C_23  and  C_29
                            x       y       z     vdW  Elec       q    Type
                         _______ _______ _______ _____ _____    ______ ____

>  <TORSDO>
F 8

$$$$
=
 OpenBabel11062414093D

 32 35  0  0  1  0  0  0  0  0999 V2000
  184.7310  178.4200  143.5020 C   0  0  0  0  0  3  0  0  0  0  0  0
  183.8090  178.4960  142.4510 C   0  0  0  0  0  0  0  0  0  0  0  0
  182.9850  178.8760  145.1030 C   0  0  0  0  0  3  0  0  0  0  0  0
  184.3290  178.6070  144.8290 C   0  0  0  0  0  0  0  0  0  0  0  0
  182.4470  178.7630  142.7290 C   0  0  0  0  0  0  0  0  0  0  0  0
  182.0560  178.9540  144.0640 C   0  0  0  0  0  3  0  0  0  0  0  0
  179.4360  179.4760  140.6130 C   0  0  0  0  0  2  0  0  0  0  0  0
  180.0740  178.3330  139.8400 C   0  0  0  0  0  2  0  0  0  0  0  0
  180.4510  179.9030  141.6560 C   0  0  0  0  0  2  0  0  0  0  0  0
  181.4520  178.8540  141.6900 N   0  0  0  0  0  0  0  0  0  0  0  0
  181.2140  177.8240  140.6980 C   0  0  0  0  0  2  0  0  0  0  0  0
  186.4970  177.7510  145.7760 N   0  0  0  0  0  2  0  0  0  0  0  0
  185.3190  178.5530  145.9180 C   0  0  0  0  0  0  0  0  0  0  0  0
  185.1380  179.2250  146.9700 O   0  0  0  0  0  0  0  0  0  0  0  0
  187.5200  177.6630  146.8080 C   0  0  0  0  0  2  0  0  0  0  0  0
  189.8340  176.9170  147.2590 C   0  0  0  0  0  1  0  0  0  0  0  0
  188.8650  177.3500  146.1810 C   0  0  0  0  0  2  0  0  0  0  0  0
  184.3390  178.4030  141.0540 C   0  0  0  0  0  2  0  0  0  0  0  0
  186.0220  180.0030  141.4490 O   0  0  0  0  0  0  0  0  0  0  0  0
  185.7480  178.9030  140.9910 C   0  0  0  0  0  0  0  0  0  0  0  0
  189.6080  177.6720  139.8340 N   0  0  0  0  0  0  0  0  0  0  0  0
  189.2800  178.5550  137.3510 S   0  0  0  0  0  0  0  0  0  0  0  0
  186.8270  178.0100  140.4590 C   0  0  2  0  0  3  0  0  0  0  0  0
  187.8830  177.7640  141.5050 C   0  0  0  0  0  2  0  0  0  0  0  0
  188.7250  178.1980  138.8430 C   0  0  0  0  0  0  0  0  0  0  0  0
  187.3910  178.5380  139.2180 N   0  0  0  0  0  2  0  0  0  0  0  0
  189.1670  177.5450  141.1930 C   0  0  0  0  0  0  0  0  0  0  0  0
  190.1450  177.2170  142.2450 C   0  0  0  0  0  0  0  0  0  0  0  0
  191.5400  176.1250  143.8740 S   0  0  0  0  0  0  0  0  0  0  0  0
  191.7850  177.7530  143.7260 N   0  0  0  0  0  0  0  0  0  0  0  0
  190.9430  178.1840  142.7960 N   0  0  0  0  0  0  0  0  0  0  0  0
  190.3320  175.9170  142.7390 C   0  0  0  0  0  3  0  0  0  0  0  0
  1  4  1  0  0  0  0
  2  5  1  0  0  0  0
  2  1  2  0  0  0  0
  4  3  2  0  0  0  0
  4 13  1  0  0  0  0
  5  6  2  0  0  0  0
  6  3  1  0  0  0  0
  7  9  1  0  0  0  0
  8  7  1  0  0  0  0
  8 11  1  0  0  0  0
  9 10  1  0  0  0  0
 10  5  1  0  0  0  0
 11 10  1  0  0  0  0
 12 13  1  0  0  0  0
 12 15  1  0  0  0  0
 13 14  2  0  0  0  0
 17 15  1  0  0  0  0
 17 16  1  0  0  0  0
 18  2  1  0  0  0  0
 20 18  1  0  0  0  0
 20 19  2  0  0  0  0
 21 27  2  0  0  0  0
 22 25  2  0  0  0  0
 23 20  1  1  0  0  0
 23 24  1  0  0  0  0
 25 26  1  0  0  0  0
 25 21  1  0  0  0  0
 26 23  1  0  0  0  0
 27 24  1  0  0  0  0
 27 28  1  0  0  0  0
 28 32  2  0  0  0  0
 28 31  1  0  0  0  0
 30 29  1  0  0  0  0
 31 30  2  0  0  0  0
 32 29  1  0  0  0  0
M  END
>  <MODEL>
4

>  <REMARK>
 VINA RESULT:      -8.5      2.497      6.264
  Name = 
  8 active torsions:
  status: ('A' for Active; 'I' for Inactive)
    1  A    between atoms: N_3  and  C_23
    2  A    between atoms: C_4  and  C_9
    3  A    between atoms: C_4  and  C_13
    4  A    between atoms: C_5  and  C_30
    5  A    between atoms: C_11  and  C_13
    6  A    between atoms: C_18  and  C_20
    7  A    between atoms: C_19  and  N_25
    8  A    between atoms: C_23  and  C_29
                            x       y       z     vdW  Elec       q    Type
                         _______ _______ _______ _____ _____    ______ ____

>  <TORSDO>
F 8

$$$$
=
 OpenBabel11062414093D

 32 35  0  0  1  0  0  0  0  0999 V2000
  186.3800  177.9350  143.7730 C   0  0  0  0  0  3  0  0  0  0  0  0
  187.7080  177.4980  143.8320 C   0  0  0  0  0  0  0  0  0  0  0  0
  186.3410  178.2280  146.1670 C   0  0  0  0  0  3  0  0  0  0  0  0
  185.6890  178.3030  144.9320 C   0  0  0  0  0  0  0  0  0  0  0  0
  188.3700  177.4300  145.0810 C   0  0  0  0  0  0  0  0  0  0  0  0
  187.6660  177.7960  146.2390 C   0  0  0  0  0  3  0  0  0  0  0  0
  191.7080  175.7560  144.7490 C   0  0  0  0  0  2  0  0  0  0  0  0
  191.8440  176.4130  146.1130 C   0  0  0  0  0  2  0  0  0  0  0  0
  190.4430  176.3180  144.1290 C   0  0  0  0  0  2  0  0  0  0  0  0
  189.7360  176.9880  145.2060 N   0  0  0  0  0  0  0  0  0  0  0  0
  190.4790  176.9760  146.4510 C   0  0  0  0  0  2  0  0  0  0  0  0
  183.6200  178.7850  143.5830 N   0  0  0  0  0  2  0  0  0  0  0  0
  184.2810  178.7300  144.8530 C   0  0  0  0  0  0  0  0  0  0  0  0
  183.6540  179.0340  145.9040 O   0  0  0  0  0  0  0  0  0  0  0  0
  182.2290  179.1860  143.4360 C   0  0  0  0  0  2  0  0  0  0  0  0
  180.2180  178.4340  142.2080 C   0  0  0  0  0  1  0  0  0  0  0  0
  181.6970  178.7320  142.0900 C   0  0  0  0  0  2  0  0  0  0  0  0
  188.3370  177.0110  142.5630 C   0  0  0  0  0  2  0  0  0  0  0  0
  189.7410  178.8910  142.3530 O   0  0  0  0  0  0  0  0  0  0  0  0
  188.9390  178.1510  141.8030 C   0  0  0  0  0  0  0  0  0  0  0  0
  187.1910  177.3660  138.0510 N   0  0  0  0  0  0  0  0  0  0  0  0
  189.1690  175.7480  137.3290 S   0  0  0  0  0  0  0  0  0  0  0  0
  188.6300  178.3140  140.3460 C   0  0  2  0  0  3  0  0  0  0  0  0
  187.1600  178.5630  140.1340 C   0  0  0  0  0  2  0  0  0  0  0  0
  188.4880  176.8400  138.3320 C   0  0  0  0  0  0  0  0  0  0  0  0
  189.1150  177.1730  139.5690 N   0  0  0  0  0  2  0  0  0  0  0  0
  186.5150  178.1700  139.0270 C   0  0  0  0  0  0  0  0  0  0  0  0
  185.0980  178.5190  138.8250 C   0  0  0  0  0  0  0  0  0  0  0  0
  182.7600  178.5400  138.2540 S   0  0  0  0  0  0  0  0  0  0  0  0
  183.3050  179.9030  139.0150 N   0  0  0  0  0  0  0  0  0  0  0  0
  184.5980  179.7200  139.2520 N   0  0  0  0  0  0  0  0  0  0  0  0
  184.1800  177.6600  138.2030 C   0  0  0  0  0  3  0  0  0  0  0  0
  1  2  2  0  0  0  0
  1  4  1  0  0  0  0
  2  5  1  0  0  0  0
  3  6  1  0  0  0  0
  4  3  2  0  0  0  0
  5 10  1  0  0  0  0
  5  6  2  0  0  0  0
  7  8  1  0  0  0  0
  8 11  1  0  0  0  0
  9  7  1  0  0  0  0
  9 10  1  0  0  0  0
 10 11  1  0  0  0  0
 12 13  1  0  0  0  0
 13  4  1  0  0  0  0
 13 14  2  0  0  0  0
 15 12  1  0  0  0  0
 17 16  1  0  0  0  0
 17 15  1  0  0  0  0
 18  2  1  0  0  0  0
 20 19  2  0  0  0  0
 20 18  1  0  0  0  0
 21 25  1  0  0  0  0
 21 27  2  0  0  0  0
 22 25  2  0  0  0  0
 23 20  1  1  0  0  0
 24 23  1  0  0  0  0
 25 26  1  0  0  0  0
 26 23  1  0  0  0  0
 27 24  1  0  0  0  0
 28 27  1  0  0  0  0
 28 31  1  0  0  0  0
 29 30  1  0  0  0  0
 30 31  2  0  0  0  0
 32 29  1  0  0  0  0
 32 28  2  0  0  0  0
M  END
>  <MODEL>
5

>  <REMARK>
 VINA RESULT:      -8.2      2.139      4.239
  Name = 
  8 active torsions:
  status: ('A' for Active; 'I' for Inactive)
    1  A    between atoms: N_3  and  C_23
    2  A    between atoms: C_4  and  C_9
    3  A    between atoms: C_4  and  C_13
    4  A    between atoms: C_5  and  C_30
    5  A    between atoms: C_11  and  C_13
    6  A    between atoms: C_18  and  C_20
    7  A    between atoms: C_19  and  N_25
    8  A    between atoms: C_23  and  C_29
                            x       y       z     vdW  Elec       q    Type
                         _______ _______ _______ _____ _____    ______ ____

>  <TORSDO>
F 8

$$$$
=
 OpenBabel11062414093D

 32 35  0  0  1  0  0  0  0  0999 V2000
  187.6680  178.1090  143.1590 C   0  0  0  0  0  3  0  0  0  0  0  0
  188.8630  177.8410  143.8370 C   0  0  0  0  0  0  0  0  0  0  0  0
  186.3890  177.4300  145.0880 C   0  0  0  0  0  3  0  0  0  0  0  0
  186.4280  177.9090  143.7750 C   0  0  0  0  0  0  0  0  0  0  0  0
  188.8230  177.3630  145.1690 C   0  0  0  0  0  0  0  0  0  0  0  0
  187.5730  177.1600  145.7750 C   0  0  0  0  0  3  0  0  0  0  0  0
  192.0860  176.0470  146.4630 C   0  0  0  0  0  2  0  0  0  0  0  0
  191.5300  176.7270  147.7050 C   0  0  0  0  0  2  0  0  0  0  0  0
  191.1920  176.4680  145.3120 C   0  0  0  0  0  2  0  0  0  0  0  0
  190.0180  177.0680  145.9170 N   0  0  0  0  0  0  0  0  0  0  0  0
  190.1150  177.1460  147.3620 C   0  0  0  0  0  2  0  0  0  0  0  0
  185.1930  178.2010  141.6030 N   0  0  0  0  0  2  0  0  0  0  0  0
  185.1810  178.1680  143.0340 C   0  0  0  0  0  0  0  0  0  0  0  0
  184.1000  178.3450  143.6600 O   0  0  0  0  0  0  0  0  0  0  0  0
  183.9960  178.4390  140.8100 C   0  0  0  0  0  2  0  0  0  0  0  0
  183.0270  179.8390  139.0160 C   0  0  0  0  0  1  0  0  0  0  0  0
  184.3160  179.3630  139.6500 C   0  0  0  0  0  2  0  0  0  0  0  0
  190.1410  177.9690  143.0690 C   0  0  0  0  0  2  0  0  0  0  0  0
  190.0400  175.7790  142.2080 O   0  0  0  0  0  0  0  0  0  0  0  0
  190.1910  176.9660  141.9590 C   0  0  0  0  0  0  0  0  0  0  0  0
  190.2910  176.7660  137.7520 N   0  0  0  0  0  0  0  0  0  0  0  0
  192.9030  176.2900  137.7130 S   0  0  0  0  0  0  0  0  0  0  0  0
  190.3240  177.4350  140.5430 C   0  0  2  0  0  3  0  0  0  0  0  0
  189.0560  177.1780  139.7720 C   0  0  0  0  0  2  0  0  0  0  0  0
  191.5190  176.6960  138.4760 C   0  0  0  0  0  0  0  0  0  0  0  0
  191.4950  176.8460  139.8950 N   0  0  0  0  0  2  0  0  0  0  0  0
  189.0520  176.9290  138.4550 C   0  0  0  0  0  0  0  0  0  0  0  0
  187.7800  176.7760  137.7280 C   0  0  0  0  0  0  0  0  0  0  0  0
  185.6520  177.1110  136.6560 S   0  0  0  0  0  0  0  0  0  0  0  0
  186.2460  175.5720  136.5590 N   0  0  0  0  0  0  0  0  0  0  0  0
  187.4110  175.5700  137.1950 N   0  0  0  0  0  0  0  0  0  0  0  0
  186.8810  177.8340  137.5260 C   0  0  0  0  0  3  0  0  0  0  0  0
  1  4  2  0  0  0  0
  1  2  1  0  0  0  0
  2  5  2  0  0  0  0
  3  6  2  0  0  0  0
  4  3  1  0  0  0  0
  5  6  1  0  0  0  0
  5 10  1  0  0  0  0
  7  8  1  0  0  0  0
  9 10  1  0  0  0  0
  9  7  1  0  0  0  0
 10 11  1  0  0  0  0
 11  8  1  0  0  0  0
 12 13  1  0  0  0  0
 13 14  2  0  0  0  0
 13  4  1  0  0  0  0
 15 12  1  0  0  0  0
 16 17  1  0  0  0  0
 17 15  1  0  0  0  0
 18  2  1  0  0  0  0
 20 19  2  0  0  0  0
 20 18  1  0  0  0  0
 21 27  2  0  0  0  0
 21 25  1  0  0  0  0
 22 25  2  0  0  0  0
 23 20  1  1  0  0  0
 24 23  1  0  0  0  0
 25 26  1  0  0  0  0
 26 23  1  0  0  0  0
 27 24  1  0  0  0  0
 28 27  1  0  0  0  0
 29 32  1  0  0  0  0
 30 29  1  0  0  0  0
 30 31  2  0  0  0  0
 31 28  1  0  0  0  0
 32 28  2  0  0  0  0
M  END
>  <MODEL>
6

>  <REMARK>
 VINA RESULT:      -8.2      1.782      3.356
  Name = 
  8 active torsions:
  status: ('A' for Active; 'I' for Inactive)
    1  A    between atoms: N_3  and  C_23
    2  A    between atoms: C_4  and  C_9
    3  A    between atoms: C_4  and  C_13
    4  A    between atoms: C_5  and  C_30
    5  A    between atoms: C_11  and  C_13
    6  A    between atoms: C_18  and  C_20
    7  A    between atoms: C_19  and  N_25
    8  A    between atoms: C_23  and  C_29
                            x       y       z     vdW  Elec       q    Type
                         _______ _______ _______ _____ _____    ______ ____

>  <TORSDO>
F 8

$$$$
=
 OpenBabel11062414093D

 32 35  0  0  1  0  0  0  0  0999 V2000
  185.6820  178.2410  144.2360 C   0  0  0  0  0  3  0  0  0  0  0  0
  184.9210  178.1970  143.0620 C   0  0  0  0  0  0  0  0  0  0  0  0
  183.7660  179.0130  145.4820 C   0  0  0  0  0  3  0  0  0  0  0  0
  185.1150  178.6450  145.4490 C   0  0  0  0  0  0  0  0  0  0  0  0
  183.5540  178.5630  143.0970 C   0  0  0  0  0  0  0  0  0  0  0  0
  182.9970  178.9730  144.3190 C   0  0  0  0  0  3  0  0  0  0  0  0
  180.7420  178.5360  140.6180 C   0  0  0  0  0  2  0  0  0  0  0  0
  181.9060  178.0890  139.7470 C   0  0  0  0  0  2  0  0  0  0  0  0
  181.3460  179.0050  141.9280 C   0  0  0  0  0  2  0  0  0  0  0  0
  182.7210  178.5400  141.9220 N   0  0  0  0  0  0  0  0  0  0  0  0
  183.0790  177.8800  140.6820 C   0  0  0  0  0  2  0  0  0  0  0  0
  186.9870  177.7590  146.8790 N   0  0  0  0  0  2  0  0  0  0  0  0
  185.9400  178.7140  146.6680 C   0  0  0  0  0  0  0  0  0  0  0  0
  185.7350  179.6220  147.5180 O   0  0  0  0  0  0  0  0  0  0  0  0
  187.8450  177.7770  148.0530 C   0  0  0  0  0  2  0  0  0  0  0  0
  189.5350  177.5080  146.2670 C   0  0  0  0  0  1  0  0  0  0  0  0
  189.2060  177.2000  147.7120 C   0  0  0  0  0  2  0  0  0  0  0  0
  185.6310  177.8680  141.7860 C   0  0  0  0  0  2  0  0  0  0  0  0
  186.1300  180.1270  141.3450 O   0  0  0  0  0  0  0  0  0  0  0  0
  186.5510  178.9810  141.3930 C   0  0  0  0  0  0  0  0  0  0  0  0
  190.0080  176.7840  140.4070 N   0  0  0  0  0  2  0  0  0  0  0  0
  190.3760  175.9990  142.9170 S   0  0  0  0  0  0  0  0  0  0  0  0
  188.0030  178.6940  141.1620 C   0  0  2  0  0  3  0  0  0  0  0  0
  188.2450  178.2730  139.7360 C   0  0  0  0  0  3  0  0  0  0  0  0
  189.6340  176.9030  141.7790 C   0  0  0  0  0  0  0  0  0  0  0  0
  188.5110  177.7140  142.1210 N   0  0  0  0  0  2  0  0  0  0  0  0
  189.2270  177.4290  139.3920 C   0  0  0  0  0  0  0  0  0  0  0  0
  189.4830  177.1210  137.9740 C   0  0  0  0  0  0  0  0  0  0  0  0
  189.4430  176.9910  135.5710 S   0  0  0  0  0  0  0  0  0  0  0  0
  190.6330  176.1040  136.2970 N   0  0  0  0  0  0  0  0  0  0  0  0
  190.5080  176.2910  137.6050 N   0  0  0  0  0  0  0  0  0  0  0  0
  188.7180  177.6520  136.9240 C   0  0  0  0  0  3  0  0  0  0  0  0
  1  4  1  0  0  0  0
  2  5  1  0  0  0  0
  2  1  2  0  0  0  0
  4  3  2  0  0  0  0
  4 13  1  0  0  0  0
  5  6  2  0  0  0  0
  6  3  1  0  0  0  0
  7  9  1  0  0  0  0
  8  7  1  0  0  0  0
  8 11  1  0  0  0  0
 10  9  1  0  0  0  0
 10  5  1  0  0  0  0
 11 10  1  0  0  0  0
 12 15  1  0  0  0  0
 13 12  1  0  0  0  0
 13 14  2  0  0  0  0
 16 17  1  0  0  0  0
 17 15  1  0  0  0  0
 18  2  1  0  0  0  0
 19 20  2  0  0  0  0
 20 18  1  0  0  0  0
 21 25  1  0  0  0  0
 23 20  1  6  0  0  0
 23 26  1  0  0  0  0
 24 23  1  0  0  0  0
 25 26  1  0  0  0  0
 25 22  2  0  0  0  0
 27 24  2  0  0  0  0
 27 21  1  0  0  0  0
 28 27  1  0  0  0  0
 29 30  1  0  0  0  0
 29 32  1  0  0  0  0
 30 31  2  0  0  0  0
 31 28  1  0  0  0  0
 32 28  2  0  0  0  0
M  END
>  <MODEL>
7

>  <REMARK>
 VINA RESULT:      -8.1      2.223      5.814
  Name = 
  8 active torsions:
  status: ('A' for Active; 'I' for Inactive)
    1  A    between atoms: N_3  and  C_23
    2  A    between atoms: C_4  and  C_9
    3  A    between atoms: C_4  and  C_13
    4  A    between atoms: C_5  and  C_30
    5  A    between atoms: C_11  and  C_13
    6  A    between atoms: C_18  and  C_20
    7  A    between atoms: C_19  and  N_25
    8  A    between atoms: C_23  and  C_29
                            x       y       z     vdW  Elec       q    Type
                         _______ _______ _______ _____ _____    ______ ____

>  <TORSDO>
F 8

$$$$
=
 OpenBabel11062414093D

 32 35  0  0  1  0  0  0  0  0999 V2000
  184.2410  178.4410  142.7260 C   0  0  0  0  0  3  0  0  0  0  0  0
  185.3740  178.2610  143.5280 C   0  0  0  0  0  0  0  0  0  0  0  0
  182.9410  179.0770  144.6550 C   0  0  0  0  0  3  0  0  0  0  0  0
  183.0230  178.8490  143.2780 C   0  0  0  0  0  0  0  0  0  0  0  0
  185.2930  178.4990  144.9220 C   0  0  0  0  0  0  0  0  0  0  0  0
  184.0630  178.9030  145.4660 C   0  0  0  0  0  3  0  0  0  0  0  0
  188.4530  177.4410  146.6370 C   0  0  0  0  0  2  0  0  0  0  0  0
  187.7790  178.2480  147.7360 C   0  0  0  0  0  2  0  0  0  0  0  0
  187.6570  177.6950  145.3720 C   0  0  0  0  0  2  0  0  0  0  0  0
  186.4230  178.3300  145.7980 N   0  0  0  0  0  0  0  0  0  0  0  0
  186.3920  178.5820  147.2260 C   0  0  0  0  0  2  0  0  0  0  0  0
  181.8460  178.4930  141.0830 N   0  0  0  0  0  2  0  0  0  0  0  0
  181.8340  179.0030  142.4210 C   0  0  0  0  0  0  0  0  0  0  0  0
  180.8010  179.5700  142.8710 O   0  0  0  0  0  0  0  0  0  0  0  0
  180.7030  178.6000  140.1890 C   0  0  0  0  0  2  0  0  0  0  0  0
  182.2950  179.9040  138.8170 C   0  0  0  0  0  1  0  0  0  0  0  0
  180.8600  179.8100  139.2870 C   0  0  0  0  0  2  0  0  0  0  0  0
  186.6050  177.7100  142.8790 C   0  0  0  0  0  2  0  0  0  0  0  0
  186.2680  179.3710  141.2430 O   0  0  0  0  0  0  0  0  0  0  0  0
  187.0620  178.6050  141.7700 C   0  0  0  0  0  0  0  0  0  0  0  0
  190.8880  177.1330  140.8010 N   0  0  0  0  0  2  0  0  0  0  0  0
  191.6820  177.1730  143.3340 S   0  0  0  0  0  0  0  0  0  0  0  0
  188.5100  178.6280  141.3870 C   0  0  2  0  0  3  0  0  0  0  0  0
  188.7300  177.9080  140.0830 C   0  0  0  0  0  3  0  0  0  0  0  0
  190.6200  177.5250  142.1470 C   0  0  0  0  0  0  0  0  0  0  0  0
  189.3530  178.1010  142.4590 N   0  0  0  0  0  2  0  0  0  0  0  0
  189.8720  177.2670  139.7980 C   0  0  0  0  0  0  0  0  0  0  0  0
  190.0750  176.6570  138.4720 C   0  0  0  0  0  0  0  0  0  0  0  0
  190.1700  176.1760  136.1160 S   0  0  0  0  0  0  0  0  0  0  0  0
  190.7830  174.9930  137.0940 N   0  0  0  0  0  0  0  0  0  0  0  0
  190.6510  175.4220  138.3440 N   0  0  0  0  0  0  0  0  0  0  0  0
  189.7090  177.2890  137.2740 C   0  0  0  0  0  3  0  0  0  0  0  0
  1  4  2  0  0  0  0
  1  2  1  0  0  0  0
  2  5  2  0  0  0  0
  3  6  2  0  0  0  0
  4  3  1  0  0  0  0
  5  6  1  0  0  0  0
  5 10  1  0  0  0  0
  7  8  1  0  0  0  0
  9 10  1  0  0  0  0
  9  7  1  0  0  0  0
 10 11  1  0  0  0  0
 11  8  1  0  0  0  0
 12 13  1  0  0  0  0
 13 14  2  0  0  0  0
 13  4  1  0  0  0  0
 15 12  1  0  0  0  0
 16 17  1  0  0  0  0
 17 15  1  0  0  0  0
 18  2  1  0  0  0  0
 19 20  2  0  0  0  0
 20 18  1  0  0  0  0
 21 25  1  0  0  0  0
 23 20  1  1  0  0  0
 23 26  1  0  0  0  0
 24 23  1  0  0  0  0
 25 26  1  0  0  0  0
 25 22  2  0  0  0  0
 27 24  2  0  0  0  0
 27 21  1  0  0  0  0
 28 27  1  0  0  0  0
 29 30  1  0  0  0  0
 29 32  1  0  0  0  0
 30 31  2  0  0  0  0
 31 28  1  0  0  0  0
 32 28  2  0  0  0  0
M  END
>  <MODEL>
8

>  <REMARK>
 VINA RESULT:      -8.0      2.308      3.290
  Name = 
  8 active torsions:
  status: ('A' for Active; 'I' for Inactive)
    1  A    between atoms: N_3  and  C_23
    2  A    between atoms: C_4  and  C_9
    3  A    between atoms: C_4  and  C_13
    4  A    between atoms: C_5  and  C_30
    5  A    between atoms: C_11  and  C_13
    6  A    between atoms: C_18  and  C_20
    7  A    between atoms: C_19  and  N_25
    8  A    between atoms: C_23  and  C_29
                            x       y       z     vdW  Elec       q    Type
                         _______ _______ _______ _____ _____    ______ ____

>  <TORSDO>
F 8

$$$$
=
 OpenBabel11062414093D

 32 35  0  0  1  0  0  0  0  0999 V2000
  184.4880  178.1460  142.2020 C   0  0  0  0  0  3  0  0  0  0  0  0
  183.4450  178.1830  141.2690 C   0  0  0  0  0  0  0  0  0  0  0  0
  183.0300  179.0300  143.9090 C   0  0  0  0  0  3  0  0  0  0  0  0
  184.2910  178.5650  143.5220 C   0  0  0  0  0  0  0  0  0  0  0  0
  182.1670  178.6480  141.6630 C   0  0  0  0  0  0  0  0  0  0  0  0
  181.9820  179.0710  142.9880 C   0  0  0  0  0  3  0  0  0  0  0  0
  179.2950  179.6560  139.4750 C   0  0  0  0  0  2  0  0  0  0  0  0
  179.1110  178.1470  139.5240 C   0  0  0  0  0  2  0  0  0  0  0  0
  180.6510  179.9400  140.0910 C   0  0  0  0  0  2  0  0  0  0  0  0
  181.0550  178.7110  140.7480 N   0  0  0  0  0  0  0  0  0  0  0  0
  180.1110  177.6310  140.5370 C   0  0  0  0  0  2  0  0  0  0  0  0
  186.5540  177.7240  144.2300 N   0  0  0  0  0  2  0  0  0  0  0  0
  185.4090  178.5470  144.4810 C   0  0  0  0  0  0  0  0  0  0  0  0
  185.3650  179.2670  145.5150 O   0  0  0  0  0  0  0  0  0  0  0  0
  187.6970  177.6680  145.1290 C   0  0  0  0  0  2  0  0  0  0  0  0
  188.3650  176.2820  143.1930 C   0  0  0  0  0  1  0  0  0  0  0  0
  188.8550  176.9590  144.4550 C   0  0  0  0  0  2  0  0  0  0  0  0
  183.7690  177.8300  139.8500 C   0  0  0  0  0  2  0  0  0  0  0  0
  184.2740  180.0900  139.4200 O   0  0  0  0  0  0  0  0  0  0  0  0
  184.5620  178.9220  139.2050 C   0  0  0  0  0  0  0  0  0  0  0  0
  187.8180  176.6650  137.7730 N   0  0  0  0  0  2  0  0  0  0  0  0
  189.4870  177.7100  139.5540 S   0  0  0  0  0  0  0  0  0  0  0  0
  185.7660  178.5750  138.3820 C   0  0  2  0  0  3  0  0  0  0  0  0
  185.5180  177.3310  137.5710 C   0  0  0  0  0  3  0  0  0  0  0  0
  188.0490  177.6440  138.7860 C   0  0  0  0  0  0  0  0  0  0  0  0
  186.9640  178.4650  139.2130 N   0  0  0  0  0  2  0  0  0  0  0  0
  186.5000  176.4810  137.2400 C   0  0  0  0  0  0  0  0  0  0  0  0
  186.2250  175.3260  136.3670 C   0  0  0  0  0  0  0  0  0  0  0  0
  185.3360  173.7940  134.7380 S   0  0  0  0  0  0  0  0  0  0  0  0
  186.6570  173.2430  135.5640 N   0  0  0  0  0  0  0  0  0  0  0  0
  187.0100  174.2050  136.4080 N   0  0  0  0  0  0  0  0  0  0  0  0
  185.1690  175.2990  135.4430 C   0  0  0  0  0  3  0  0  0  0  0  0
  1  4  1  0  0  0  0
  2  5  1  0  0  0  0
  2  1  2  0  0  0  0
  4  3  2  0  0  0  0
  4 13  1  0  0  0  0
  5  6  2  0  0  0  0
  6  3  1  0  0  0  0
  7  8  1  0  0  0  0
  7  9  1  0  0  0  0
  8 11  1  0  0  0  0
  9 10  1  0  0  0  0
 10  5  1  0  0  0  0
 11 10  1  0  0  0  0
 12 13  1  0  0  0  0
 12 15  1  0  0  0  0
 13 14  2  0  0  0  0
 16 17  1  0  0  0  0
 17 15  1  0  0  0  0
 18  2  1  0  0  0  0
 20 19  2  0  0  0  0
 20 18  1  0  0  0  0
 21 25  1  0  0  0  0
 23 20  1  1  0  0  0
 23 26  1  0  0  0  0
 24 23  1  0  0  0  0
 25 26  1  0  0  0  0
 25 22  2  0  0  0  0
 27 24  2  0  0  0  0
 27 21  1  0  0  0  0
 28 31  1  0  0  0  0
 28 27  1  0  0  0  0
 29 32  1  0  0  0  0
 29 30  1  0  0  0  0
 30 31  2  0  0  0  0
 32 28  2  0  0  0  0
M  END
>  <MODEL>
9

>  <REMARK>
 VINA RESULT:      -8.0      3.029      6.897
  Name = 
  8 active torsions:
  status: ('A' for Active; 'I' for Inactive)
    1  A    between atoms: N_3  and  C_23
    2  A    between atoms: C_4  and  C_9
    3  A    between atoms: C_4  and  C_13
    4  A    between atoms: C_5  and  C_30
    5  A    between atoms: C_11  and  C_13
    6  A    between atoms: C_18  and  C_20
    7  A    between atoms: C_19  and  N_25
    8  A    between atoms: C_23  and  C_29
                            x       y       z     vdW  Elec       q    Type
                         _______ _______ _______ _____ _____    ______ ____

>  <TORSDO>
F 8

$$$$
