=
 OpenBabel11062415063D

 66 72  0  0  1  0  0  0  0  0999 V2000
  186.9540  178.4820  145.6960 C   0  0  0  0  0  0  0  0  0  0  0  0
  188.5220  176.5250  142.8620 C   0  0  0  0  0  3  0  0  0  0  0  0
  186.4600  177.9530  142.8670 C   0  0  2  0  0  3  0  0  0  0  0  0
  189.9100  176.2840  144.8300 C   0  0  0  0  0  3  0  0  0  0  0  0
  185.7270  179.0600  145.0390 C   0  0  1  0  0  3  0  0  0  0  0  0
  189.6580  176.0000  143.4860 C   0  0  0  0  0  3  0  0  0  0  0  0
  187.8890  177.6270  144.9330 C   0  0  0  0  0  0  0  0  0  0  0  0
  187.2020  178.7710  146.8990 O   0  0  0  0  0  0  0  0  0  0  0  0
  185.2910  178.2330  143.8270 C   0  0  1  0  0  3  0  0  0  0  0  0
  187.6350  177.3360  143.5770 C   0  0  0  0  0  0  0  0  0  0  0  0
  184.6790  179.1230  145.9590 O   0  0  0  0  0  1  0  0  0  0  0  0
  189.0290  177.0910  145.5510 C   0  0  0  0  0  3  0  0  0  0  0  0
  185.8070  179.4280  141.0710 O   0  0  0  0  0  1  0  0  0  0  0  0
  186.8250  179.1610  141.9850 C   0  0  2  0  0  3  0  0  0  0  0  0
  188.1730  179.0590  141.2780 C   0  0  0  0  0  2  0  0  0  0  0  0
  188.1510  178.0420  140.2870 O   0  0  0  0  0  0  0  0  0  0  0  0
  187.0980  178.8570  138.4270 O   0  0  0  0  0  0  0  0  0  0  0  0
  188.1320  178.3350  138.9220 C   0  0  0  0  0  0  0  0  0  0  0  0
  189.3310  178.0410  138.0560 C   0  0  0  0  0  2  0  0  0  0  0  0
  192.7130  175.6320  135.1020 O   0  0  0  0  0  0  0  0  0  0  0  0
  192.9730  175.5910  136.3330 C   0  0  0  0  0  0  0  0  0  0  0  0
  189.8380  176.6080  138.1810 C   0  0  1  0  0  3  0  0  0  0  0  0
  190.5740  176.1970  136.9050 C   0  0  1  0  0  3  0  0  0  0  0  0
  190.8600  176.5340  139.3110 C   0  0  0  0  0  3  0  0  0  0  0  0
  192.1640  176.0230  138.7160 C   0  0  0  0  0  3  0  0  0  0  0  0
  191.9380  175.8750  137.2890 N   0  0  0  0  0  0  0  0  0  0  0  0
  194.3700  175.2200  136.7550 C   0  0  2  0  0  3  0  0  0  0  0  0
  196.8180  175.3640  136.1860 C   0  0  0  0  0  1  0  0  0  0  0  0
  195.1490  175.9350  134.5990 O   0  0  0  0  0  1  0  0  0  0  0  0
  195.4430  175.9760  135.9630 C   0  0  1  0  0  3  0  0  0  0  0  0
  194.5560  173.7240  136.7540 C   0  0  0  0  0  0  0  0  0  0  0  0
  194.5970  173.0830  135.6670 O   0  0  0  0  0  0  0  0  0  0  0  0
  194.6410  173.0230  137.9890 N   0  0  0  0  0  1  0  0  0  0  0  0
  189.9330  175.1350  136.2220 O   0  0  0  0  0  0  0  0  0  0  0  0
  188.7550  174.7670  136.9050 C   0  0  0  0  0  2  0  0  0  0  0  0
  188.4680  173.2660  136.8220 C   0  0  2  0  0  3  0  0  0  0  0  0
  187.9320  172.8870  135.4970 C   0  0  0  0  0  2  0  0  0  0  0  0
  187.0970  173.0240  136.6250 O   0  0  0  0  0  0  0  0  0  0  0  0
  184.2590  178.8850  143.1400 O   0  0  0  0  0  0  0  0  0  0  0  0
  183.3520  177.8940  142.7500 C   0  0  0  0  0  2  0  0  0  0  0  0
  182.9760  178.0220  141.2780 C   0  0  0  0  0  2  0  0  0  0  0  0
  181.9610  179.1280  141.0530 C   0  0  0  0  0  2  0  0  0  0  0  0
  181.3080  178.9260  139.6940 C   0  0  2  0  0  3  0  0  0  0  0  0
  181.4610  176.5860  138.6040 C   0  0  0  0  0  3  0  0  0  0  0  0
  182.4130  174.5520  137.3730 C   0  0  1  0  0  3  0  0  0  0  0  0
  184.3180  174.6930  135.8250 N   0  0  0  0  0  0  0  0  0  0  0  0
  183.7860  173.9960  136.9770 C   0  0  0  0  0  2  0  0  0  0  0  0
  184.8650  176.6620  137.1740 C   0  0  0  0  0  2  0  0  0  0  0  0
  183.1810  177.9880  138.3920 O   0  0  0  0  0  0  0  0  0  0  0  0
  181.9720  177.8490  138.8850 C   0  0  0  0  0  0  0  0  0  0  0  0
  183.5120  176.8800  137.7810 C   0  0  0  0  0  0  0  0  0  0  0  0
  182.4690  175.9680  137.8830 C   0  0  0  0  0  0  0  0  0  0  0  0
  184.7930  175.8890  135.8890 C   0  0  0  0  0  3  0  0  0  0  0  0
  181.5180  174.4490  136.3010 O   0  0  0  0  0  0  0  0  0  0  0  0
  180.1170  172.8670  135.2100 C   0  0  0  0  0  2  0  0  0  0  0  0
  180.8990  173.2070  136.4650 C   0  0  0  0  0  3  0  0  0  0  0  0
  179.3940  173.3890  136.4290 C   0  0  0  0  0  2  0  0  0  0  0  0
  181.2760  180.1880  138.9630 N   0  0  0  0  0  2  0  0  0  0  0  0
  180.1960  180.1260  137.9850 C   0  0  0  0  0  2  0  0  0  0  0  0
  179.4310  181.4440  137.9420 C   0  0  0  0  0  2  0  0  0  0  0  0
  179.7300  182.2660  136.6870 C   0  0  2  0  0  3  0  0  0  0  0  0
  180.4580  181.4430  135.6390 C   0  0  0  0  0  1  0  0  0  0  0  0
  180.7650  184.7280  135.6510 O   0  0  0  0  0  0  0  0  0  0  0  0
  180.6370  183.7990  137.0590 P   0  0  0  0  0  0  0  0  0  0  0  0
  182.0240  183.4800  137.5700 O   0  0  0  0  0  1  0  0  0  0  0  0
  179.7910  184.6780  138.2280 O   0  0  0  0  0  1  0  0  0  0  0  0
  1  8  2  0  0  0  0
  2  6  2  0  0  0  0
  2 10  1  0  0  0  0
  3 14  1  1  0  0  0
  3 10  1  0  0  0  0
  3  9  1  0  0  0  0
  4 12  2  0  0  0  0
  5  1  1  0  0  0  0
  5 11  1  1  0  0  0
  6  4  1  0  0  0  0
  7 12  1  0  0  0  0
  7  1  1  0  0  0  0
  9 39  1  6  0  0  0
  9  5  1  0  0  0  0
 10  7  2  0  0  0  0
 14 13  1  6  0  0  0
 15 14  1  0  0  0  0
 16 15  1  0  0  0  0
 17 18  2  0  0  0  0
 18 16  1  0  0  0  0
 19 18  1  0  0  0  0
 20 21  2  0  0  0  0
 21 26  1  0  0  0  0
 22 19  1  6  0  0  0
 22 24  1  0  0  0  0
 23 34  1  1  0  0  0
 23 26  1  0  0  0  0
 23 22  1  0  0  0  0
 25 24  2  0  0  0  0
 26 25  1  0  0  0  0
 27 21  1  6  0  0  0
 29 30  1  0  0  0  0
 30 28  1  6  0  0  0
 30 27  1  0  0  0  0
 31 27  1  0  0  0  0
 31 33  1  0  0  0  0
 32 31  2  0  0  0  0
 34 35  1  0  0  0  0
 36 35  1  6  0  0  0
 37 38  1  0  0  0  0
 37 36  1  0  0  0  0
 38 36  1  0  0  0  0
 40 39  1  0  0  0  0
 41 40  1  0  0  0  0
 42 41  1  0  0  0  0
 43 42  1  1  0  0  0
 44 50  2  0  0  0  0
 45 54  1  6  0  0  0
 45 52  1  0  0  0  0
 46 53  2  0  0  0  0
 46 47  1  0  0  0  0
 47 45  1  0  0  0  0
 48 51  1  0  0  0  0
 49 50  1  0  0  0  0
 50 43  1  0  0  0  0
 51 52  2  0  0  0  0
 51 49  1  0  0  0  0
 52 44  1  0  0  0  0
 53 48  1  0  0  0  0
 54 56  1  0  0  0  0
 55 57  1  0  0  0  0
 55 56  1  0  0  0  0
 57 56  1  0  0  0  0
 58 43  1  0  0  0  0
 59 58  1  0  0  0  0
 60 59  1  0  0  0  0
 61 62  1  6  0  0  0
 61 64  1  0  0  0  0
 61 60  1  0  0  0  0
 63 64  2  0  0  0  0
 64 65  1  0  0  0  0
 64 66  1  0  0  0  0
M  END
>  <MODEL>
1

>  <REMARK>
 VINA RESULT:      -5.8      0.000      0.000
  Name = 
  25 active torsions:
  status: ('A' for Active; 'I' for Inactive)
    1  A    between atoms: C_1  and  O_33
    2  A    between atoms: C_1  and  C_61
    3  A    between atoms: C_4  and  C_32
    4  A    between atoms: C_5  and  C_40
    5  A    between atoms: C_7  and  C_35
    6  A    between atoms: O_9  and  C_21
    7  A    between atoms: O_9  and  C_59
    8  A    between atoms: C_13  and  C_40
    9  A    between atoms: C_14  and  O_29
   10  A    between atoms: C_20  and  C_39
   11  A    between atoms: C_21  and  C_32
   12  A    between atoms: C_22  and  N_45
   13  A    between atoms: C_22  and  C_53
   14  A    between atoms: C_22  and  C_64
   15  A    between atoms: C_23  and  O_38
   16  A    between atoms: C_28  and  O_33
   17  A    between atoms: O_29  and  C_54
   18  A    between atoms: C_34  and  C_60
   19  A    between atoms: C_34  and  C_63
   20  A    between atoms: C_35  and  O_38
   21  A    between atoms: C_39  and  C_59
   22  A    between atoms: C_40  and  C_48
   23  A    between atoms: P_42  and  C_60
   24  A    between atoms: N_45  and  C_63
   25  A    between atoms: C_61  and  C_64
                            x       y       z     vdW  Elec       q    Type
                         _______ _______ _______ _____ _____    ______ ____

>  <TORSDO>
F 25

$$$$
=
 OpenBabel11062415063D

 66 72  0  0  1  0  0  0  0  0999 V2000
  190.6650  176.6230  144.9810 C   0  0  0  0  0  0  0  0  0  0  0  0
  187.7660  178.4680  146.5650 C   0  0  0  0  0  3  0  0  0  0  0  0
  188.1110  177.7860  144.1750 C   0  0  2  0  0  3  0  0  0  0  0  0
  189.3580  177.8960  148.2960 C   0  0  0  0  0  3  0  0  0  0  0  0
  190.2630  176.5910  143.5280 C   0  0  1  0  0  3  0  0  0  0  0  0
  188.1530  178.4840  147.9090 C   0  0  0  0  0  3  0  0  0  0  0  0
  189.7970  177.2630  145.9920 C   0  0  0  0  0  0  0  0  0  0  0  0
  191.7360  176.0560  145.3350 O   0  0  0  0  0  0  0  0  0  0  0  0
  189.2870  177.7200  143.1860 C   0  0  1  0  0  3  0  0  0  0  0  0
  188.5810  177.8610  145.6030 C   0  0  0  0  0  0  0  0  0  0  0  0
  191.3950  176.6950  142.7180 O   0  0  0  0  0  1  0  0  0  0  0  0
  190.1790  177.2900  147.3420 C   0  0  0  0  0  3  0  0  0  0  0  0
  187.6370  175.5000  143.5640 O   0  0  0  0  0  1  0  0  0  0  0  0
  187.0420  176.7080  143.9230 C   0  0  2  0  0  3  0  0  0  0  0  0
  185.9580  177.0960  142.9230 C   0  0  0  0  0  2  0  0  0  0  0  0
  185.5850  178.4570  143.0810 O   0  0  0  0  0  0  0  0  0  0  0  0
  184.2700  178.6310  144.9460 O   0  0  0  0  0  0  0  0  0  0  0  0
  184.3950  178.8330  143.7080 C   0  0  0  0  0  0  0  0  0  0  0  0
  183.2820  179.4770  142.9210 C   0  0  0  0  0  2  0  0  0  0  0  0
  179.6730  180.6040  139.5050 O   0  0  0  0  0  0  0  0  0  0  0  0
  180.7410  180.1600  139.0080 C   0  0  0  0  0  0  0  0  0  0  0  0
  182.7210  178.5880  141.8160 C   0  0  1  0  0  3  0  0  0  0  0  0
  181.4360  179.1960  141.2530 C   0  0  1  0  0  3  0  0  0  0  0  0
  183.7170  178.5360  140.6610 C   0  0  0  0  0  3  0  0  0  0  0  0
  183.0030  179.0480  139.4190 C   0  0  0  0  0  3  0  0  0  0  0  0
  181.6730  179.4510  139.8420 N   0  0  0  0  0  0  0  0  0  0  0  0
  180.9880  180.3770  137.5390 C   0  0  2  0  0  3  0  0  0  0  0  0
  179.9890  182.6110  138.1280 C   0  0  0  0  0  1  0  0  0  0  0  0
  181.0890  182.2620  136.0550 O   0  0  0  0  0  1  0  0  0  0  0  0
  180.2840  181.6290  137.0040 C   0  0  1  0  0  3  0  0  0  0  0  0
  180.6870  179.1280  136.7500 C   0  0  0  0  0  0  0  0  0  0  0  0
  181.4190  178.7910  135.7790 O   0  0  0  0  0  0  0  0  0  0  0  0
  179.5430  178.3470  137.0760 N   0  0  0  0  0  1  0  0  0  0  0  0
  180.3010  178.3810  141.4780 O   0  0  0  0  0  0  0  0  0  0  0  0
  179.2540  179.1570  142.0190 C   0  0  0  0  0  2  0  0  0  0  0  0
  178.9310  178.7860  143.4690 C   0  0  2  0  0  3  0  0  0  0  0  0
  180.1300  178.8700  144.3310 C   0  0  0  0  0  2  0  0  0  0  0  0
  179.6360  177.6350  143.8640 O   0  0  0  0  0  0  0  0  0  0  0  0
  188.8010  177.5630  141.8820 O   0  0  0  0  0  0  0  0  0  0  0  0
  188.9410  178.8040  141.2530 C   0  0  0  0  0  2  0  0  0  0  0  0
  189.3500  178.6530  139.7920 C   0  0  0  0  0  2  0  0  0  0  0  0
  188.1490  178.4190  138.8940 C   0  0  0  0  0  2  0  0  0  0  0  0
  188.5200  177.3930  137.8350 C   0  0  2  0  0  3  0  0  0  0  0  0
  187.3580  175.5280  136.4710 C   0  0  0  0  0  3  0  0  0  0  0  0
  185.5150  174.1180  135.3910 C   0  0  1  0  0  3  0  0  0  0  0  0
  183.2080  174.0490  136.2380 N   0  0  0  0  0  0  0  0  0  0  0  0
  184.0230  174.2470  135.0590 C   0  0  0  0  0  2  0  0  0  0  0  0
  183.7960  176.2620  137.1080 C   0  0  0  0  0  2  0  0  0  0  0  0
  186.1020  176.9430  137.6510 O   0  0  0  0  0  0  0  0  0  0  0  0
  187.3350  176.6150  137.3400 C   0  0  0  0  0  0  0  0  0  0  0  0
  185.2860  176.1220  137.0410 C   0  0  0  0  0  0  0  0  0  0  0  0
  186.0220  175.2150  136.2880 C   0  0  0  0  0  0  0  0  0  0  0  0
  183.1020  174.9320  137.1720 C   0  0  0  0  0  3  0  0  0  0  0  0
  185.7820  172.8610  135.9470 O   0  0  0  0  0  0  0  0  0  0  0  0
  187.0550  170.9100  135.4660 C   0  0  0  0  0  2  0  0  0  0  0  0
  186.3150  172.1070  134.8970 C   0  0  0  0  0  3  0  0  0  0  0  0
  187.8270  172.1180  134.9910 C   0  0  0  0  0  2  0  0  0  0  0  0
  189.5580  176.5030  138.3440 N   0  0  0  0  0  2  0  0  0  0  0  0
  190.8150  176.8410  137.6880 C   0  0  0  0  0  2  0  0  0  0  0  0
  191.8880  175.8060  138.0100 C   0  0  0  0  0  2  0  0  0  0  0  0
  192.3400  175.0130  136.7830 C   0  0  2  0  0  3  0  0  0  0  0  0
  191.6850  173.6450  136.7270 C   0  0  0  0  0  1  0  0  0  0  0  0
  194.8060  176.3960  136.3240 O   0  0  0  0  0  1  0  0  0  0  0  0
  194.1510  174.8750  136.6710 P   0  0  0  0  0  0  0  0  0  0  0  0
  194.5390  173.9070  135.5770 O   0  0  0  0  0  0  0  0  0  0  0  0
  194.7620  174.3330  138.1500 O   0  0  0  0  0  1  0  0  0  0  0  0
  1  8  2  0  0  0  0
  1  7  1  0  0  0  0
  2  6  1  0  0  0  0
  3 14  1  1  0  0  0
  3 10  1  0  0  0  0
  5 11  1  6  0  0  0
  5  1  1  0  0  0  0
  6  4  2  0  0  0  0
  7 12  2  0  0  0  0
  9 39  1  6  0  0  0
  9  5  1  0  0  0  0
  9  3  1  0  0  0  0
 10  7  1  0  0  0  0
 10  2  2  0  0  0  0
 12  4  1  0  0  0  0
 14 13  1  6  0  0  0
 15 16  1  0  0  0  0
 15 14  1  0  0  0  0
 16 18  1  0  0  0  0
 18 17  2  0  0  0  0
 19 18  1  0  0  0  0
 21 20  2  0  0  0  0
 21 26  1  0  0  0  0
 22 19  1  1  0  0  0
 23 34  1  6  0  0  0
 23 22  1  0  0  0  0
 24 22  1  0  0  0  0
 25 26  1  0  0  0  0
 25 24  2  0  0  0  0
 26 23  1  0  0  0  0
 27 31  1  6  0  0  0
 27 21  1  0  0  0  0
 29 30  1  0  0  0  0
 30 27  1  0  0  0  0
 30 28  1  1  0  0  0
 31 33  1  0  0  0  0
 32 31  2  0  0  0  0
 34 35  1  0  0  0  0
 36 35  1  6  0  0  0
 36 38  1  0  0  0  0
 36 37  1  0  0  0  0
 38 37  1  0  0  0  0
 40 39  1  0  0  0  0
 41 40  1  0  0  0  0
 42 41  1  0  0  0  0
 43 58  1  0  0  0  0
 43 42  1  1  0  0  0
 44 50  2  0  0  0  0
 45 54  1  1  0  0  0
 45 52  1  0  0  0  0
 46 53  2  0  0  0  0
 47 45  1  0  0  0  0
 47 46  1  0  0  0  0
 48 53  1  0  0  0  0
 50 49  1  0  0  0  0
 50 43  1  0  0  0  0
 51 48  1  0  0  0  0
 51 49  1  0  0  0  0
 52 44  1  0  0  0  0
 52 51  2  0  0  0  0
 56 57  1  0  0  0  0
 56 55  1  0  0  0  0
 56 54  1  0  0  0  0
 57 55  1  0  0  0  0
 59 60  1  0  0  0  0
 59 58  1  0  0  0  0
 61 62  1  1  0  0  0
 61 60  1  0  0  0  0
 63 64  1  0  0  0  0
 64 61  1  0  0  0  0
 64 66  1  0  0  0  0
 65 64  2  0  0  0  0
M  END
>  <MODEL>
2

>  <REMARK>
 VINA RESULT:      -5.8      2.946      9.677
  Name = 
  25 active torsions:
  status: ('A' for Active; 'I' for Inactive)
    1  A    between atoms: C_1  and  O_33
    2  A    between atoms: C_1  and  C_61
    3  A    between atoms: C_4  and  C_32
    4  A    between atoms: C_5  and  C_40
    5  A    between atoms: C_7  and  C_35
    6  A    between atoms: O_9  and  C_21
    7  A    between atoms: O_9  and  C_59
    8  A    between atoms: C_13  and  C_40
    9  A    between atoms: C_14  and  O_29
   10  A    between atoms: C_20  and  C_39
   11  A    between atoms: C_21  and  C_32
   12  A    between atoms: C_22  and  N_45
   13  A    between atoms: C_22  and  C_53
   14  A    between atoms: C_22  and  C_64
   15  A    between atoms: C_23  and  O_38
   16  A    between atoms: C_28  and  O_33
   17  A    between atoms: O_29  and  C_54
   18  A    between atoms: C_34  and  C_60
   19  A    between atoms: C_34  and  C_63
   20  A    between atoms: C_35  and  O_38
   21  A    between atoms: C_39  and  C_59
   22  A    between atoms: C_40  and  C_48
   23  A    between atoms: P_42  and  C_60
   24  A    between atoms: N_45  and  C_63
   25  A    between atoms: C_61  and  C_64
                            x       y       z     vdW  Elec       q    Type
                         _______ _______ _______ _____ _____    ______ ____

>  <TORSDO>
F 25

$$$$
=
 OpenBabel11062415063D

 66 72  0  0  1  0  0  0  0  0999 V2000
  185.1710  178.8830  144.9990 C   0  0  0  0  0  0  0  0  0  0  0  0
  188.0330  176.7910  143.6770 C   0  0  0  0  0  3  0  0  0  0  0  0
  186.1230  177.8460  142.4410 C   0  0  2  0  0  3  0  0  0  0  0  0
  188.3290  177.0900  146.0610 C   0  0  0  0  0  3  0  0  0  0  0  0
  184.3680  179.1430  143.7500 C   0  0  1  0  0  3  0  0  0  0  0  0
  188.7680  176.5630  144.8450 C   0  0  0  0  0  3  0  0  0  0  0  0
  186.4140  178.0840  144.9460 C   0  0  0  0  0  0  0  0  0  0  0  0
  184.7930  179.3930  146.0900 O   0  0  0  0  0  0  0  0  0  0  0  0
  184.6210  178.0770  142.6820 C   0  0  1  0  0  3  0  0  0  0  0  0
  186.8580  177.5480  143.7200 C   0  0  0  0  0  0  0  0  0  0  0  0
  183.0060  179.1780  144.0570 O   0  0  0  0  0  1  0  0  0  0  0  0
  187.1550  177.8460  146.1120 C   0  0  0  0  0  3  0  0  0  0  0  0
  185.8990  180.0080  141.3910 O   0  0  0  0  0  1  0  0  0  0  0  0
  186.7780  178.9440  141.5830 C   0  0  2  0  0  3  0  0  0  0  0  0
  187.3480  178.4670  140.2510 C   0  0  0  0  0  2  0  0  0  0  0  0
  187.9890  177.2080  140.3960 O   0  0  0  0  0  0  0  0  0  0  0  0
  189.9720  176.1810  140.8960 O   0  0  0  0  0  0  0  0  0  0  0  0
  189.3640  177.0480  140.2120 C   0  0  0  0  0  0  0  0  0  0  0  0
  190.1080  177.8910  139.2080 C   0  0  0  0  0  2  0  0  0  0  0  0
  187.7990  173.6730  137.5220 O   0  0  0  0  0  0  0  0  0  0  0  0
  187.6310  174.6860  136.7940 C   0  0  0  0  0  0  0  0  0  0  0  0
  190.2030  177.2530  137.8250 C   0  0  1  0  0  3  0  0  0  0  0  0
  189.6290  175.8370  137.8580 C   0  0  1  0  0  3  0  0  0  0  0  0
  189.3420  178.0460  136.8470 C   0  0  0  0  0  3  0  0  0  0  0  0
  188.3140  177.0890  136.2640 C   0  0  0  0  0  3  0  0  0  0  0  0
  188.5160  175.8110  136.9240 N   0  0  0  0  0  0  0  0  0  0  0  0
  186.5080  174.6650  135.7900 C   0  0  2  0  0  3  0  0  0  0  0  0
  184.8920  174.3570  137.6950 C   0  0  0  0  0  1  0  0  0  0  0  0
  185.1890  176.4720  136.6620 O   0  0  0  0  0  1  0  0  0  0  0  0
  185.1700  175.1020  136.3980 C   0  0  1  0  0  3  0  0  0  0  0  0
  186.4470  173.3400  135.0750 C   0  0  0  0  0  0  0  0  0  0  0  0
  185.3350  172.8210  134.7800 O   0  0  0  0  0  0  0  0  0  0  0  0
  187.6520  172.6480  134.7690 N   0  0  0  0  0  1  0  0  0  0  0  0
  190.6000  174.8460  137.5780 O   0  0  0  0  0  0  0  0  0  0  0  0
  191.1320  175.0480  136.2870 C   0  0  0  0  0  2  0  0  0  0  0  0
  192.1480  173.9720  135.8910 C   0  0  2  0  0  3  0  0  0  0  0  0
  191.7600  173.2950  134.6340 C   0  0  0  0  0  2  0  0  0  0  0  0
  191.5570  172.6960  135.8950 O   0  0  0  0  0  0  0  0  0  0  0  0
  183.9980  178.4360  141.4800 O   0  0  0  0  0  0  0  0  0  0  0  0
  184.1960  177.3720  140.5950 C   0  0  0  0  0  2  0  0  0  0  0  0
  182.8940  176.9490  139.9220 C   0  0  0  0  0  2  0  0  0  0  0  0
  181.7350  177.8360  140.3370 C   0  0  0  0  0  2  0  0  0  0  0  0
  180.5690  177.5940  139.3920 C   0  0  2  0  0  3  0  0  0  0  0  0
  179.9530  180.0150  138.7220 C   0  0  0  0  0  3  0  0  0  0  0  0
  179.4200  182.0590  137.2760 C   0  0  1  0  0  3  0  0  0  0  0  0
  180.1770  182.2890  134.9480 N   0  0  0  0  0  0  0  0  0  0  0  0
  179.0270  182.3600  135.8250 C   0  0  0  0  0  2  0  0  0  0  0  0
  180.1910  179.8420  135.0420 C   0  0  0  0  0  2  0  0  0  0  0  0
  180.5030  178.5610  137.1240 O   0  0  0  0  0  0  0  0  0  0  0  0
  180.3630  178.7200  138.4210 C   0  0  0  0  0  0  0  0  0  0  0  0
  180.2160  179.6910  136.5320 C   0  0  0  0  0  0  0  0  0  0  0  0
  179.8650  180.6360  137.4880 C   0  0  0  0  0  0  0  0  0  0  0  0
  180.7200  181.1750  134.5960 C   0  0  0  0  0  3  0  0  0  0  0  0
  180.4040  182.9560  137.7100 O   0  0  0  0  0  0  0  0  0  0  0  0
  180.8710  185.2800  137.8970 C   0  0  0  0  0  2  0  0  0  0  0  0
  179.8720  184.2240  137.4630 C   0  0  0  0  0  3  0  0  0  0  0  0
  179.6880  184.9550  138.7780 C   0  0  0  0  0  2  0  0  0  0  0  0
  179.3540  177.3310  140.1560 N   0  0  0  0  0  2  0  0  0  0  0  0
  179.1190  175.8920  140.1650 C   0  0  0  0  0  2  0  0  0  0  0  0
  179.9030  175.2090  139.0490 C   0  0  0  0  0  2  0  0  0  0  0  0
  179.0180  174.3690  138.1270 C   0  0  2  0  0  3  0  0  0  0  0  0
  178.9360  172.9260  138.5910 C   0  0  0  0  0  1  0  0  0  0  0  0
  178.9310  175.8910  135.7020 O   0  0  0  0  0  1  0  0  0  0  0  0
  179.5360  174.4670  136.3850 P   0  0  0  0  0  0  0  0  0  0  0  0
  179.0070  173.2820  135.6110 O   0  0  0  0  0  0  0  0  0  0  0  0
  181.2240  174.4880  136.3050 O   0  0  0  0  0  1  0  0  0  0  0  0
  1  8  2  0  0  0  0
  2 10  2  0  0  0  0
  2  6  1  0  0  0  0
  3 14  1  1  0  0  0
  3  9  1  0  0  0  0
  3 10  1  0  0  0  0
  4 12  1  0  0  0  0
  5 11  1  1  0  0  0
  5  1  1  0  0  0  0
  6  4  2  0  0  0  0
  7  1  1  0  0  0  0
  7 12  2  0  0  0  0
  9 39  1  6  0  0  0
  9  5  1  0  0  0  0
 10  7  1  0  0  0  0
 14 13  1  6  0  0  0
 15 16  1  0  0  0  0
 15 14  1  0  0  0  0
 18 16  1  0  0  0  0
 18 17  2  0  0  0  0
 19 18  1  0  0  0  0
 21 26  1  0  0  0  0
 21 20  2  0  0  0  0
 22 23  1  0  0  0  0
 22 19  1  1  0  0  0
 23 34  1  6  0  0  0
 24 22  1  0  0  0  0
 25 24  2  0  0  0  0
 25 26  1  0  0  0  0
 26 23  1  0  0  0  0
 27 31  1  1  0  0  0
 27 30  1  0  0  0  0
 27 21  1  0  0  0  0
 30 29  1  0  0  0  0
 30 28  1  1  0  0  0
 32 31  2  0  0  0  0
 33 31  1  0  0  0  0
 35 34  1  0  0  0  0
 36 38  1  0  0  0  0
 36 35  1  1  0  0  0
 37 36  1  0  0  0  0
 37 38  1  0  0  0  0
 40 39  1  0  0  0  0
 41 42  1  0  0  0  0
 41 40  1  0  0  0  0
 43 58  1  0  0  0  0
 43 42  1  1  0  0  0
 45 52  1  0  0  0  0
 45 54  1  6  0  0  0
 46 47  1  0  0  0  0
 47 45  1  0  0  0  0
 48 51  1  0  0  0  0
 49 50  1  0  0  0  0
 50 44  2  0  0  0  0
 50 43  1  0  0  0  0
 51 49  1  0  0  0  0
 51 52  2  0  0  0  0
 52 44  1  0  0  0  0
 53 46  2  0  0  0  0
 53 48  1  0  0  0  0
 55 57  1  0  0  0  0
 56 54  1  0  0  0  0
 56 55  1  0  0  0  0
 56 57  1  0  0  0  0
 58 59  1  0  0  0  0
 60 59  1  0  0  0  0
 61 62  1  1  0  0  0
 61 60  1  0  0  0  0
 63 64  1  0  0  0  0
 64 61  1  0  0  0  0
 65 64  2  0  0  0  0
 66 64  1  0  0  0  0
M  END
>  <MODEL>
3

>  <REMARK>
 VINA RESULT:      -5.6      2.523      6.038
  Name = 
  25 active torsions:
  status: ('A' for Active; 'I' for Inactive)
    1  A    between atoms: C_1  and  O_33
    2  A    between atoms: C_1  and  C_61
    3  A    between atoms: C_4  and  C_32
    4  A    between atoms: C_5  and  C_40
    5  A    between atoms: C_7  and  C_35
    6  A    between atoms: O_9  and  C_21
    7  A    between atoms: O_9  and  C_59
    8  A    between atoms: C_13  and  C_40
    9  A    between atoms: C_14  and  O_29
   10  A    between atoms: C_20  and  C_39
   11  A    between atoms: C_21  and  C_32
   12  A    between atoms: C_22  and  N_45
   13  A    between atoms: C_22  and  C_53
   14  A    between atoms: C_22  and  C_64
   15  A    between atoms: C_23  and  O_38
   16  A    between atoms: C_28  and  O_33
   17  A    between atoms: O_29  and  C_54
   18  A    between atoms: C_34  and  C_60
   19  A    between atoms: C_34  and  C_63
   20  A    between atoms: C_35  and  O_38
   21  A    between atoms: C_39  and  C_59
   22  A    between atoms: C_40  and  C_48
   23  A    between atoms: P_42  and  C_60
   24  A    between atoms: N_45  and  C_63
   25  A    between atoms: C_61  and  C_64
                            x       y       z     vdW  Elec       q    Type
                         _______ _______ _______ _____ _____    ______ ____

>  <TORSDO>
F 25

$$$$
=
 OpenBabel11062415063D

 66 72  0  0  1  0  0  0  0  0999 V2000
  187.0300  176.9720  143.2830 C   0  0  0  0  0  0  0  0  0  0  0  0
  184.7450  179.9730  143.5890 C   0  0  0  0  0  3  0  0  0  0  0  0
  185.9970  179.1160  141.5910 C   0  0  2  0  0  3  0  0  0  0  0  0
  184.8000  178.8220  145.7170 C   0  0  0  0  0  3  0  0  0  0  0  0
  187.4820  177.0660  141.8480 C   0  0  1  0  0  3  0  0  0  0  0  0
  184.3320  179.8690  144.9210 C   0  0  0  0  0  3  0  0  0  0  0  0
  186.0970  177.9710  143.8480 C   0  0  0  0  0  0  0  0  0  0  0  0
  187.4230  176.0030  143.9900 O   0  0  0  0  0  0  0  0  0  0  0  0
  187.3770  178.4960  141.3130 C   0  0  1  0  0  3  0  0  0  0  0  0
  185.6250  179.0310  143.0470 C   0  0  0  0  0  0  0  0  0  0  0  0
  188.8020  176.6240  141.7340 O   0  0  0  0  0  1  0  0  0  0  0  0
  185.6810  177.8780  145.1840 C   0  0  0  0  0  3  0  0  0  0  0  0
  184.6620  179.5490  139.6270 O   0  0  0  0  0  1  0  0  0  0  0  0
  184.9000  178.6160  140.6340 C   0  0  2  0  0  3  0  0  0  0  0  0
  183.5960  178.2030  141.3080 C   0  0  0  0  0  2  0  0  0  0  0  0
  182.4870  178.8640  140.7170 O   0  0  0  0  0  0  0  0  0  0  0  0
  181.1080  178.4750  142.5010 O   0  0  0  0  0  0  0  0  0  0  0  0
  181.2940  179.0790  141.4110 C   0  0  0  0  0  0  0  0  0  0  0  0
  180.2500  180.0220  140.8700 C   0  0  0  0  0  2  0  0  0  0  0  0
  181.8990  178.1420  136.4300 O   0  0  0  0  0  0  0  0  0  0  0  0
  181.1440  177.3690  137.0760 C   0  0  0  0  0  0  0  0  0  0  0  0
  179.4230  179.4330  139.7320 C   0  0  1  0  0  3  0  0  0  0  0  0
  180.2790  179.3070  138.4700 C   0  0  1  0  0  3  0  0  0  0  0  0
  178.9930  178.0170  140.1050 C   0  0  0  0  0  3  0  0  0  0  0  0
  179.5360  177.0780  139.0380 C   0  0  0  0  0  3  0  0  0  0  0  0
  180.3110  177.8960  138.1220 N   0  0  0  0  0  0  0  0  0  0  0  0
  181.1310  175.9100  136.7040 C   0  0  2  0  0  3  0  0  0  0  0  0
  179.2400  176.4630  135.1370 C   0  0  0  0  0  1  0  0  0  0  0  0
  179.9060  174.2180  135.5180 O   0  0  0  0  0  1  0  0  0  0  0  0
  179.7760  175.4580  136.1460 C   0  0  1  0  0  3  0  0  0  0  0  0
  181.6330  175.0570  137.8420 C   0  0  0  0  0  0  0  0  0  0  0  0
  180.8700  174.2240  138.4050 O   0  0  0  0  0  0  0  0  0  0  0  0
  182.9650  175.2260  138.3140 N   0  0  0  0  0  1  0  0  0  0  0  0
  179.8130  180.1210  137.4100 O   0  0  0  0  0  0  0  0  0  0  0  0
  180.5670  181.3130  137.3550 C   0  0  0  0  0  2  0  0  0  0  0  0
  179.7420  182.5520  137.7120 C   0  0  2  0  0  3  0  0  0  0  0  0
  179.6430  183.4870  136.5700 C   0  0  0  0  0  2  0  0  0  0  0  0
  180.5270  183.7170  137.6450 O   0  0  0  0  0  0  0  0  0  0  0  0
  187.6390  178.5200  139.9370 O   0  0  0  0  0  0  0  0  0  0  0  0
  189.0250  178.4010  139.7940 C   0  0  0  0  0  2  0  0  0  0  0  0
  189.4000  177.7400  138.4720 C   0  0  0  0  0  2  0  0  0  0  0  0
  190.8920  177.4770  138.3800 C   0  0  0  0  0  2  0  0  0  0  0  0
  191.1250  176.2880  137.4630 C   0  0  2  0  0  3  0  0  0  0  0  0
  188.6010  175.9960  136.9780 C   0  0  0  0  0  3  0  0  0  0  0  0
  186.3190  174.8860  136.6460 C   0  0  1  0  0  3  0  0  0  0  0  0
  186.0550  172.5180  136.0390 N   0  0  0  0  0  0  0  0  0  0  0  0
  185.6410  173.5480  136.9680 C   0  0  0  0  0  2  0  0  0  0  0  0
  188.2460  172.3230  137.1140 C   0  0  0  0  0  2  0  0  0  0  0  0
  189.8630  174.1790  137.2550 O   0  0  0  0  0  0  0  0  0  0  0  0
  189.8770  175.4920  137.2130 C   0  0  0  0  0  0  0  0  0  0  0  0
  188.6380  173.7680  137.0500 C   0  0  0  0  0  0  0  0  0  0  0  0
  187.8080  174.8670  136.8690 C   0  0  0  0  0  0  0  0  0  0  0  0
  187.2190  171.9660  136.0790 C   0  0  0  0  0  3  0  0  0  0  0  0
  186.0200  175.2800  135.3360 O   0  0  0  0  0  0  0  0  0  0  0  0
  185.2830  177.4160  134.5940 C   0  0  0  0  0  2  0  0  0  0  0  0
  184.9850  176.2100  135.4660 C   0  0  0  0  0  3  0  0  0  0  0  0
  185.5310  177.4830  136.0830 C   0  0  0  0  0  2  0  0  0  0  0  0
  192.1880  175.4440  137.9990 N   0  0  0  0  0  2  0  0  0  0  0  0
  193.4560  176.1470  137.8440 C   0  0  0  0  0  2  0  0  0  0  0  0
  194.1120  175.7900  136.5150 C   0  0  0  0  0  2  0  0  0  0  0  0
  194.9810  174.5340  136.5970 C   0  0  2  0  0  3  0  0  0  0  0  0
  194.7590  173.7840  137.8990 C   0  0  0  0  0  1  0  0  0  0  0  0
  196.9060  176.3490  135.5010 O   0  0  0  0  0  0  0  0  0  0  0  0
  196.7470  174.8900  136.3420 P   0  0  0  0  0  0  0  0  0  0  0  0
  197.3980  173.7840  135.5440 O   0  0  0  0  0  1  0  0  0  0  0  0
  197.5110  175.0290  137.8430 O   0  0  0  0  0  1  0  0  0  0  0  0
  1  7  1  0  0  0  0
  1  8  2  0  0  0  0
  2  6  1  0  0  0  0
  3 14  1  6  0  0  0
  3 10  1  0  0  0  0
  5 11  1  1  0  0  0
  5  1  1  0  0  0  0
  6  4  2  0  0  0  0
  7 12  2  0  0  0  0
  9 39  1  6  0  0  0
  9  3  1  0  0  0  0
  9  5  1  0  0  0  0
 10  2  2  0  0  0  0
 10  7  1  0  0  0  0
 12  4  1  0  0  0  0
 14 13  1  6  0  0  0
 14 15  1  0  0  0  0
 16 15  1  0  0  0  0
 16 18  1  0  0  0  0
 18 17  2  0  0  0  0
 19 18  1  0  0  0  0
 20 21  2  0  0  0  0
 21 26  1  0  0  0  0
 22 24  1  0  0  0  0
 22 19  1  1  0  0  0
 23 34  1  6  0  0  0
 23 22  1  0  0  0  0
 25 24  2  0  0  0  0
 26 23  1  0  0  0  0
 26 25  1  0  0  0  0
 27 21  1  1  0  0  0
 27 31  1  0  0  0  0
 29 30  1  0  0  0  0
 30 28  1  6  0  0  0
 30 27  1  0  0  0  0
 31 33  1  0  0  0  0
 31 32  2  0  0  0  0
 35 34  1  0  0  0  0
 36 35  1  6  0  0  0
 37 38  1  0  0  0  0
 37 36  1  0  0  0  0
 38 36  1  0  0  0  0
 40 39  1  0  0  0  0
 41 40  1  0  0  0  0
 42 41  1  0  0  0  0
 43 58  1  0  0  0  0
 43 42  1  1  0  0  0
 44 50  2  0  0  0  0
 45 54  1  6  0  0  0
 45 52  1  0  0  0  0
 45 47  1  0  0  0  0
 46 53  2  0  0  0  0
 46 47  1  0  0  0  0
 50 49  1  0  0  0  0
 50 43  1  0  0  0  0
 51 48  1  0  0  0  0
 51 49  1  0  0  0  0
 52 44  1  0  0  0  0
 52 51  2  0  0  0  0
 53 48  1  0  0  0  0
 54 56  1  0  0  0  0
 55 56  1  0  0  0  0
 55 57  1  0  0  0  0
 56 57  1  0  0  0  0
 59 58  1  0  0  0  0
 60 61  1  0  0  0  0
 60 59  1  0  0  0  0
 61 62  1  1  0  0  0
 63 64  2  0  0  0  0
 64 61  1  0  0  0  0
 64 66  1  0  0  0  0
 65 64  1  0  0  0  0
M  END
>  <MODEL>
4

>  <REMARK>
 VINA RESULT:      -5.5      2.990     10.305
  Name = 
  25 active torsions:
  status: ('A' for Active; 'I' for Inactive)
    1  A    between atoms: C_1  and  O_33
    2  A    between atoms: C_1  and  C_61
    3  A    between atoms: C_4  and  C_32
    4  A    between atoms: C_5  and  C_40
    5  A    between atoms: C_7  and  C_35
    6  A    between atoms: O_9  and  C_21
    7  A    between atoms: O_9  and  C_59
    8  A    between atoms: C_13  and  C_40
    9  A    between atoms: C_14  and  O_29
   10  A    between atoms: C_20  and  C_39
   11  A    between atoms: C_21  and  C_32
   12  A    between atoms: C_22  and  N_45
   13  A    between atoms: C_22  and  C_53
   14  A    between atoms: C_22  and  C_64
   15  A    between atoms: C_23  and  O_38
   16  A    between atoms: C_28  and  O_33
   17  A    between atoms: O_29  and  C_54
   18  A    between atoms: C_34  and  C_60
   19  A    between atoms: C_34  and  C_63
   20  A    between atoms: C_35  and  O_38
   21  A    between atoms: C_39  and  C_59
   22  A    between atoms: C_40  and  C_48
   23  A    between atoms: P_42  and  C_60
   24  A    between atoms: N_45  and  C_63
   25  A    between atoms: C_61  and  C_64
                            x       y       z     vdW  Elec       q    Type
                         _______ _______ _______ _____ _____    ______ ____

>  <TORSDO>
F 25

$$$$
=
 OpenBabel11062415063D

 66 72  0  0  1  0  0  0  0  0999 V2000
  189.7740  177.1360  146.4880 C   0  0  0  0  0  0  0  0  0  0  0  0
  186.3960  178.6490  145.7030 C   0  0  0  0  0  3  0  0  0  0  0  0
  188.2710  178.0370  144.1530 C   0  0  2  0  0  3  0  0  0  0  0  0
  186.5200  178.2250  148.0820 C   0  0  0  0  0  3  0  0  0  0  0  0
  190.4190  177.0810  145.1270 C   0  0  1  0  0  3  0  0  0  0  0  0
  185.8120  178.6890  146.9730 C   0  0  0  0  0  3  0  0  0  0  0  0
  188.4050  177.6700  146.6560 C   0  0  0  0  0  0  0  0  0  0  0  0
  190.4010  176.6800  147.4840 O   0  0  0  0  0  0  0  0  0  0  0  0
  189.8080  178.1060  144.1680 C   0  0  1  0  0  3  0  0  0  0  0  0
  187.6890  178.1430  145.5360 C   0  0  0  0  0  0  0  0  0  0  0  0
  191.7920  177.3120  145.2390 O   0  0  0  0  0  1  0  0  0  0  0  0
  187.8120  177.7200  147.9260 C   0  0  0  0  0  3  0  0  0  0  0  0
  188.7300  175.9300  143.0680 O   0  0  0  0  0  1  0  0  0  0  0  0
  187.7230  176.8560  143.3310 C   0  0  2  0  0  3  0  0  0  0  0  0
  186.9970  177.2460  142.0470 C   0  0  0  0  0  2  0  0  0  0  0  0
  186.6930  178.6330  142.0370 O   0  0  0  0  0  0  0  0  0  0  0  0
  185.5190  179.2940  140.1880 O   0  0  0  0  0  0  0  0  0  0  0  0
  185.5360  179.1360  141.4380 C   0  0  0  0  0  0  0  0  0  0  0  0
  184.3260  179.4750  142.2690 C   0  0  0  0  0  2  0  0  0  0  0  0
  181.5080  179.7210  138.0300 O   0  0  0  0  0  0  0  0  0  0  0  0
  181.9090  178.5640  138.3230 C   0  0  0  0  0  0  0  0  0  0  0  0
  183.0890  178.6570  141.9120 C   0  0  1  0  0  3  0  0  0  0  0  0
  182.3710  179.2830  140.7150 C   0  0  1  0  0  3  0  0  0  0  0  0
  183.5200  177.2610  141.4740 C   0  0  0  0  0  3  0  0  0  0  0  0
  183.0050  177.0450  140.0590 C   0  0  0  0  0  3  0  0  0  0  0  0
  182.3650  178.2860  139.6580 N   0  0  0  0  0  0  0  0  0  0  0  0
  181.8740  177.5050  137.2550 C   0  0  2  0  0  3  0  0  0  0  0  0
  179.4740  176.9440  136.7390 C   0  0  0  0  0  1  0  0  0  0  0  0
  181.1110  175.2440  136.9820 O   0  0  0  0  0  1  0  0  0  0  0  0
  180.7360  176.4990  137.4640 C   0  0  1  0  0  3  0  0  0  0  0  0
  183.2270  176.8630  137.0830 C   0  0  0  0  0  0  0  0  0  0  0  0
  183.4010  175.6460  137.3710 O   0  0  0  0  0  0  0  0  0  0  0  0
  184.3270  177.6470  136.6360 N   0  0  0  0  0  1  0  0  0  0  0  0
  181.0730  179.7470  141.0370 O   0  0  0  0  0  0  0  0  0  0  0  0
  180.1740  178.6610  141.0820 C   0  0  0  0  0  2  0  0  0  0  0  0
  179.1980  178.7500  142.2580 C   0  0  2  0  0  3  0  0  0  0  0  0
  179.3190  180.0410  142.9690 C   0  0  0  0  0  2  0  0  0  0  0  0
  179.8880  178.8560  143.4790 O   0  0  0  0  0  0  0  0  0  0  0  0
  190.3040  177.9150  142.8720 O   0  0  0  0  0  0  0  0  0  0  0  0
  191.5310  177.2580  143.0080 C   0  0  0  0  0  2  0  0  0  0  0  0
  192.0530  176.7560  141.6670 C   0  0  0  0  0  2  0  0  0  0  0  0
  191.6530  177.6770  140.5290 C   0  0  0  0  0  2  0  0  0  0  0  0
  190.7950  176.8990  139.5450 C   0  0  2  0  0  3  0  0  0  0  0  0
  192.7870  176.5360  137.9350 C   0  0  0  0  0  3  0  0  0  0  0  0
  194.2870  175.4800  136.1490 C   0  0  1  0  0  3  0  0  0  0  0  0
  194.2330  173.0860  135.5970 N   0  0  0  0  0  0  0  0  0  0  0  0
  194.1770  174.4220  135.0450 C   0  0  0  0  0  2  0  0  0  0  0  0
  191.9440  173.2620  136.4500 C   0  0  0  0  0  2  0  0  0  0  0  0
  191.2340  174.9440  138.1060 O   0  0  0  0  0  0  0  0  0  0  0  0
  191.6090  176.1220  138.5510 C   0  0  0  0  0  0  0  0  0  0  0  0
  192.1080  174.5350  137.2230 C   0  0  0  0  0  0  0  0  0  0  0  0
  193.1020  175.4950  137.0780 C   0  0  0  0  0  0  0  0  0  0  0  0
  193.2500  172.5520  136.2390 C   0  0  0  0  0  3  0  0  0  0  0  0
  195.4770  175.3130  136.8680 O   0  0  0  0  0  0  0  0  0  0  0  0
  197.7160  174.5460  136.6310 C   0  0  0  0  0  2  0  0  0  0  0  0
  196.3980  174.8310  135.9340 C   0  0  0  0  0  3  0  0  0  0  0  0
  197.5510  175.8090  135.8190 C   0  0  0  0  0  2  0  0  0  0  0  0
  189.8640  177.7980  138.8720 N   0  0  0  0  0  2  0  0  0  0  0  0
  188.5050  177.3640  139.1740 C   0  0  0  0  0  2  0  0  0  0  0  0
  187.6820  177.2420  137.8960 C   0  0  0  0  0  2  0  0  0  0  0  0
  188.4990  176.7340  136.7070 C   0  0  2  0  0  3  0  0  0  0  0  0
  188.5250  177.7430  135.5730 C   0  0  0  0  0  1  0  0  0  0  0  0
  186.2490  175.1080  136.0010 O   0  0  0  0  0  1  0  0  0  0  0  0
  187.9360  175.1060  136.1190 P   0  0  0  0  0  0  0  0  0  0  0  0
  188.3650  174.0220  137.0810 O   0  0  0  0  0  1  0  0  0  0  0  0
  188.5980  174.8030  134.5940 O   0  0  0  0  0  0  0  0  0  0  0  0
  1  7  1  0  0  0  0
  1  8  2  0  0  0  0
  2  6  1  0  0  0  0
  3 14  1  1  0  0  0
  3  9  1  0  0  0  0
  3 10  1  0  0  0  0
  5 11  1  1  0  0  0
  5  1  1  0  0  0  0
  6  4  2  0  0  0  0
  7 12  2  0  0  0  0
  9 39  1  6  0  0  0
  9  5  1  0  0  0  0
 10  2  2  0  0  0  0
 10  7  1  0  0  0  0
 12  4  1  0  0  0  0
 14 13  1  6  0  0  0
 15 14  1  0  0  0  0
 16 15  1  0  0  0  0
 17 18  2  0  0  0  0
 18 16  1  0  0  0  0
 18 19  1  0  0  0  0
 20 21  2  0  0  0  0
 21 26  1  0  0  0  0
 22 19  1  6  0  0  0
 23 34  1  1  0  0  0
 23 22  1  0  0  0  0
 24 22  1  0  0  0  0
 25 24  2  0  0  0  0
 26 25  1  0  0  0  0
 26 23  1  0  0  0  0
 27 31  1  1  0  0  0
 27 30  1  0  0  0  0
 27 21  1  0  0  0  0
 29 30  1  0  0  0  0
 30 28  1  6  0  0  0
 31 32  2  0  0  0  0
 33 31  1  0  0  0  0
 34 35  1  0  0  0  0
 36 35  1  6  0  0  0
 36 37  1  0  0  0  0
 36 38  1  0  0  0  0
 37 38  1  0  0  0  0
 39 40  1  0  0  0  0
 41 40  1  0  0  0  0
 42 41  1  0  0  0  0
 43 42  1  1  0  0  0
 44 50  2  0  0  0  0
 45 54  1  1  0  0  0
 45 52  1  0  0  0  0
 46 53  2  0  0  0  0
 47 46  1  0  0  0  0
 47 45  1  0  0  0  0
 48 51  1  0  0  0  0
 49 50  1  0  0  0  0
 50 43  1  0  0  0  0
 51 49  1  0  0  0  0
 52 51  2  0  0  0  0
 52 44  1  0  0  0  0
 53 48  1  0  0  0  0
 56 55  1  0  0  0  0
 56 54  1  0  0  0  0
 57 56  1  0  0  0  0
 57 55  1  0  0  0  0
 58 59  1  0  0  0  0
 58 43  1  0  0  0  0
 60 59  1  0  0  0  0
 61 62  1  6  0  0  0
 61 60  1  0  0  0  0
 63 64  1  0  0  0  0
 64 61  1  0  0  0  0
 64 65  1  0  0  0  0
 66 64  2  0  0  0  0
M  END
>  <MODEL>
5

>  <REMARK>
 VINA RESULT:      -5.3      2.845      9.896
  Name = 
  25 active torsions:
  status: ('A' for Active; 'I' for Inactive)
    1  A    between atoms: C_1  and  O_33
    2  A    between atoms: C_1  and  C_61
    3  A    between atoms: C_4  and  C_32
    4  A    between atoms: C_5  and  C_40
    5  A    between atoms: C_7  and  C_35
    6  A    between atoms: O_9  and  C_21
    7  A    between atoms: O_9  and  C_59
    8  A    between atoms: C_13  and  C_40
    9  A    between atoms: C_14  and  O_29
   10  A    between atoms: C_20  and  C_39
   11  A    between atoms: C_21  and  C_32
   12  A    between atoms: C_22  and  N_45
   13  A    between atoms: C_22  and  C_53
   14  A    between atoms: C_22  and  C_64
   15  A    between atoms: C_23  and  O_38
   16  A    between atoms: C_28  and  O_33
   17  A    between atoms: O_29  and  C_54
   18  A    between atoms: C_34  and  C_60
   19  A    between atoms: C_34  and  C_63
   20  A    between atoms: C_35  and  O_38
   21  A    between atoms: C_39  and  C_59
   22  A    between atoms: C_40  and  C_48
   23  A    between atoms: P_42  and  C_60
   24  A    between atoms: N_45  and  C_63
   25  A    between atoms: C_61  and  C_64
                            x       y       z     vdW  Elec       q    Type
                         _______ _______ _______ _____ _____    ______ ____

>  <TORSDO>
F 25

$$$$
=
 OpenBabel11062415063D

 66 72  0  0  1  0  0  0  0  0999 V2000
  190.6980  176.6330  145.0470 C   0  0  0  0  0  0  0  0  0  0  0  0
  187.6920  178.3820  146.5370 C   0  0  0  0  0  3  0  0  0  0  0  0
  188.1250  177.6940  144.1640 C   0  0  2  0  0  3  0  0  0  0  0  0
  189.2580  177.8840  148.3140 C   0  0  0  0  0  3  0  0  0  0  0  0
  190.3350  176.5740  143.5850 C   0  0  1  0  0  3  0  0  0  0  0  0
  188.0420  178.4250  147.8910 C   0  0  0  0  0  3  0  0  0  0  0  0
  189.7800  177.2490  146.0290 C   0  0  0  0  0  0  0  0  0  0  0  0
  191.7790  176.1090  145.4340 O   0  0  0  0  0  0  0  0  0  0  0  0
  189.3280  177.6630  143.2070 C   0  0  1  0  0  3  0  0  0  0  0  0
  188.5530  177.7980  145.6030 C   0  0  0  0  0  0  0  0  0  0  0  0
  191.4840  176.7120  142.8030 O   0  0  0  0  0  1  0  0  0  0  0  0
  190.1250  177.3020  147.3880 C   0  0  0  0  0  3  0  0  0  0  0  0
  187.7490  175.3550  143.7020 O   0  0  0  0  0  1  0  0  0  0  0  0
  187.1030  176.5740  143.8950 C   0  0  2  0  0  3  0  0  0  0  0  0
  186.1260  176.8550  142.7570 C   0  0  0  0  0  2  0  0  0  0  0  0
  185.6400  178.1880  142.8220 O   0  0  0  0  0  0  0  0  0  0  0  0
  184.1720  178.1090  144.5750 O   0  0  0  0  0  0  0  0  0  0  0  0
  184.4090  178.5030  143.4020 C   0  0  0  0  0  0  0  0  0  0  0  0
  183.3860  179.3080  142.6430 C   0  0  0  0  0  2  0  0  0  0  0  0
  179.8980  180.9790  139.3240 O   0  0  0  0  0  0  0  0  0  0  0  0
  181.0030  180.6670  138.8070 C   0  0  0  0  0  0  0  0  0  0  0  0
  182.9070  178.6340  141.3600 C   0  0  1  0  0  3  0  0  0  0  0  0
  181.6280  179.3060  140.8590 C   0  0  1  0  0  3  0  0  0  0  0  0
  183.9550  178.8310  140.2690 C   0  0  0  0  0  3  0  0  0  0  0  0
  183.2810  179.5540  139.1130 C   0  0  0  0  0  3  0  0  0  0  0  0
  181.9200  179.8340  139.5360 N   0  0  0  0  0  0  0  0  0  0  0  0
  181.3090  181.1680  137.4210 C   0  0  2  0  0  3  0  0  0  0  0  0
  180.7450  183.6130  137.2210 C   0  0  0  0  0  1  0  0  0  0  0  0
  182.4950  182.8650  138.6380 O   0  0  0  0  0  1  0  0  0  0  0  0
  181.8610  182.5980  137.4230 C   0  0  1  0  0  3  0  0  0  0  0  0
  180.1290  180.9740  136.5020 C   0  0  0  0  0  0  0  0  0  0  0  0
  179.0810  181.6610  136.6500 O   0  0  0  0  0  0  0  0  0  0  0  0
  180.1820  179.9760  135.4890 N   0  0  0  0  0  1  0  0  0  0  0  0
  180.5130  178.4350  140.8660 O   0  0  0  0  0  0  0  0  0  0  0  0
  180.9530  177.0940  140.8990 C   0  0  0  0  0  2  0  0  0  0  0  0
  180.0210  176.1470  140.1390 C   0  0  2  0  0  3  0  0  0  0  0  0
  179.4870  175.0860  141.0200 C   0  0  0  0  0  2  0  0  0  0  0  0
  180.5390  174.8400  140.1140 O   0  0  0  0  0  0  0  0  0  0  0  0
  188.8830  177.4770  141.8920 O   0  0  0  0  0  0  0  0  0  0  0  0
  189.0580  178.7000  141.2360 C   0  0  0  0  0  2  0  0  0  0  0  0
  189.5080  178.5060  139.7920 C   0  0  0  0  0  2  0  0  0  0  0  0
  188.3330  178.2320  138.8710 C   0  0  0  0  0  2  0  0  0  0  0  0
  188.7330  177.1600  137.8700 C   0  0  2  0  0  3  0  0  0  0  0  0
  186.3330  176.6660  137.0430 C   0  0  0  0  0  3  0  0  0  0  0  0
  184.2010  175.3810  136.4460 C   0  0  1  0  0  3  0  0  0  0  0  0
  184.1830  172.9760  135.9380 N   0  0  0  0  0  0  0  0  0  0  0  0
  183.5710  174.0140  136.7400 C   0  0  0  0  0  2  0  0  0  0  0  0
  186.1990  172.9870  137.3270 C   0  0  0  0  0  2  0  0  0  0  0  0
  187.6540  174.9580  137.5990 O   0  0  0  0  0  0  0  0  0  0  0  0
  187.5890  176.2660  137.4870 C   0  0  0  0  0  0  0  0  0  0  0  0
  186.5030  174.4520  137.2410 C   0  0  0  0  0  0  0  0  0  0  0  0
  185.6380  175.4790  136.8830 C   0  0  0  0  0  0  0  0  0  0  0  0
  185.3610  172.5110  136.1760 C   0  0  0  0  0  3  0  0  0  0  0  0
  184.0740  175.6940  135.0870 O   0  0  0  0  0  0  0  0  0  0  0  0
  183.0110  177.7650  135.5730 C   0  0  0  0  0  2  0  0  0  0  0  0
  182.8580  176.3750  134.9850 C   0  0  0  0  0  3  0  0  0  0  0  0
  182.3360  176.6780  136.3760 C   0  0  0  0  0  2  0  0  0  0  0  0
  189.8540  176.3850  138.3900 N   0  0  0  0  0  2  0  0  0  0  0  0
  191.0410  176.7100  137.6070 C   0  0  0  0  0  2  0  0  0  0  0  0
  192.1780  175.7450  137.9240 C   0  0  0  0  0  2  0  0  0  0  0  0
  192.7260  175.0410  136.6820 C   0  0  2  0  0  3  0  0  0  0  0  0
  192.7850  173.5360  136.8720 C   0  0  0  0  0  1  0  0  0  0  0  0
  195.5390  175.1240  137.2120 O   0  0  0  0  0  1  0  0  0  0  0  0
  194.3420  175.6980  136.1650 P   0  0  0  0  0  0  0  0  0  0  0  0
  194.3330  177.2090  136.2010 O   0  0  0  0  0  1  0  0  0  0  0  0
  194.6820  175.1720  134.5950 O   0  0  0  0  0  0  0  0  0  0  0  0
  1  8  2  0  0  0  0
  1  7  1  0  0  0  0
  2  6  1  0  0  0  0
  3 14  1  1  0  0  0
  3 10  1  0  0  0  0
  5 11  1  6  0  0  0
  5  1  1  0  0  0  0
  6  4  2  0  0  0  0
  7 12  2  0  0  0  0
  9 39  1  6  0  0  0
  9  5  1  0  0  0  0
  9  3  1  0  0  0  0
 10  7  1  0  0  0  0
 10  2  2  0  0  0  0
 12  4  1  0  0  0  0
 14 13  1  6  0  0  0
 15 16  1  0  0  0  0
 15 14  1  0  0  0  0
 16 18  1  0  0  0  0
 18 17  2  0  0  0  0
 19 18  1  0  0  0  0
 21 20  2  0  0  0  0
 21 26  1  0  0  0  0
 22 19  1  1  0  0  0
 23 34  1  6  0  0  0
 23 22  1  0  0  0  0
 24 22  1  0  0  0  0
 25 26  1  0  0  0  0
 25 24  2  0  0  0  0
 26 23  1  0  0  0  0
 27 31  1  6  0  0  0
 27 30  1  0  0  0  0
 27 21  1  0  0  0  0
 30 28  1  1  0  0  0
 30 29  1  0  0  0  0
 31 32  2  0  0  0  0
 33 31  1  0  0  0  0
 34 35  1  0  0  0  0
 36 35  1  1  0  0  0
 36 37  1  0  0  0  0
 38 36  1  0  0  0  0
 38 37  1  0  0  0  0
 40 39  1  0  0  0  0
 41 40  1  0  0  0  0
 42 41  1  0  0  0  0
 43 58  1  0  0  0  0
 43 42  1  1  0  0  0
 44 50  2  0  0  0  0
 45 54  1  6  0  0  0
 45 47  1  0  0  0  0
 45 52  1  0  0  0  0
 46 53  2  0  0  0  0
 46 47  1  0  0  0  0
 50 49  1  0  0  0  0
 50 43  1  0  0  0  0
 51 48  1  0  0  0  0
 51 49  1  0  0  0  0
 52 44  1  0  0  0  0
 52 51  2  0  0  0  0
 53 48  1  0  0  0  0
 55 57  1  0  0  0  0
 56 54  1  0  0  0  0
 56 55  1  0  0  0  0
 56 57  1  0  0  0  0
 59 60  1  0  0  0  0
 59 58  1  0  0  0  0
 61 62  1  1  0  0  0
 61 60  1  0  0  0  0
 64 65  1  0  0  0  0
 64 61  1  0  0  0  0
 64 63  1  0  0  0  0
 66 64  2  0  0  0  0
M  END
>  <MODEL>
6

>  <REMARK>
 VINA RESULT:      -5.0      2.924      9.474
  Name = 
  25 active torsions:
  status: ('A' for Active; 'I' for Inactive)
    1  A    between atoms: C_1  and  O_33
    2  A    between atoms: C_1  and  C_61
    3  A    between atoms: C_4  and  C_32
    4  A    between atoms: C_5  and  C_40
    5  A    between atoms: C_7  and  C_35
    6  A    between atoms: O_9  and  C_21
    7  A    between atoms: O_9  and  C_59
    8  A    between atoms: C_13  and  C_40
    9  A    between atoms: C_14  and  O_29
   10  A    between atoms: C_20  and  C_39
   11  A    between atoms: C_21  and  C_32
   12  A    between atoms: C_22  and  N_45
   13  A    between atoms: C_22  and  C_53
   14  A    between atoms: C_22  and  C_64
   15  A    between atoms: C_23  and  O_38
   16  A    between atoms: C_28  and  O_33
   17  A    between atoms: O_29  and  C_54
   18  A    between atoms: C_34  and  C_60
   19  A    between atoms: C_34  and  C_63
   20  A    between atoms: C_35  and  O_38
   21  A    between atoms: C_39  and  C_59
   22  A    between atoms: C_40  and  C_48
   23  A    between atoms: P_42  and  C_60
   24  A    between atoms: N_45  and  C_63
   25  A    between atoms: C_61  and  C_64
                            x       y       z     vdW  Elec       q    Type
                         _______ _______ _______ _____ _____    ______ ____

>  <TORSDO>
F 25

$$$$
=
 OpenBabel11062415063D

 66 72  0  0  1  0  0  0  0  0999 V2000
  188.9890  177.2160  145.7950 C   0  0  0  0  0  0  0  0  0  0  0  0
  185.8300  179.0610  144.8280 C   0  0  0  0  0  3  0  0  0  0  0  0
  187.8280  178.4730  143.4290 C   0  0  2  0  0  3  0  0  0  0  0  0
  185.6500  178.3780  147.1430 C   0  0  0  0  0  3  0  0  0  0  0  0
  189.7820  177.2560  144.5130 C   0  0  1  0  0  3  0  0  0  0  0  0
  185.1060  179.0110  146.0240 C   0  0  0  0  0  3  0  0  0  0  0  0
  187.6480  177.8330  145.8740 C   0  0  0  0  0  0  0  0  0  0  0  0
  189.4650  176.6100  146.7940 O   0  0  0  0  0  0  0  0  0  0  0  0
  189.3530  178.4210  143.6180 C   0  0  1  0  0  3  0  0  0  0  0  0
  187.0980  178.4760  144.7450 C   0  0  0  0  0  0  0  0  0  0  0  0
  191.1440  177.3660  144.7980 O   0  0  0  0  0  1  0  0  0  0  0  0
  186.9160  177.7940  147.0700 C   0  0  0  0  0  3  0  0  0  0  0  0
  188.1520  176.3300  142.3690 O   0  0  0  0  0  1  0  0  0  0  0  0
  187.3030  177.4320  142.4240 C   0  0  2  0  0  3  0  0  0  0  0  0
  187.0240  177.9710  141.0240 C   0  0  0  0  0  2  0  0  0  0  0  0
  186.2590  179.1660  141.0840 O   0  0  0  0  0  0  0  0  0  0  0  0
  184.5980  180.0220  139.7630 O   0  0  0  0  0  0  0  0  0  0  0  0
  184.9250  179.2160  140.6750 C   0  0  0  0  0  0  0  0  0  0  0  0
  183.8940  178.3160  141.3070 C   0  0  0  0  0  2  0  0  0  0  0  0
  179.5130  179.1910  138.8530 O   0  0  0  0  0  0  0  0  0  0  0  0
  180.4750  178.8710  138.1060 C   0  0  0  0  0  0  0  0  0  0  0  0
  183.1770  177.4130  140.3090 C   0  0  1  0  0  3  0  0  0  0  0  0
  181.7480  177.9080  140.0820 C   0  0  1  0  0  3  0  0  0  0  0  0
  183.8820  177.4970  138.9590 C   0  0  0  0  0  3  0  0  0  0  0  0
  182.8610  177.9750  137.9380 C   0  0  0  0  0  3  0  0  0  0  0  0
  181.6320  178.2300  138.6700 N   0  0  0  0  0  0  0  0  0  0  0  0
  180.3600  179.1580  136.6330 C   0  0  2  0  0  3  0  0  0  0  0  0
  180.1100  177.1790  135.0970 C   0  0  0  0  0  1  0  0  0  0  0  0
  181.8500  178.7630  134.7910 O   0  0  0  0  0  1  0  0  0  0  0  0
  181.0940  178.1220  135.7740 C   0  0  1  0  0  3  0  0  0  0  0  0
  180.7460  180.5830  136.3270 C   0  0  0  0  0  0  0  0  0  0  0  0
  181.5000  181.2250  137.1090 O   0  0  0  0  0  0  0  0  0  0  0  0
  180.2190  181.2230  135.1710 N   0  0  0  0  0  1  0  0  0  0  0  0
  180.7720  176.9780  140.5130 O   0  0  0  0  0  0  0  0  0  0  0  0
  179.7680  177.6430  141.2490 C   0  0  0  0  0  2  0  0  0  0  0  0
  180.3410  178.6010  142.2970 C   0  0  2  0  0  3  0  0  0  0  0  0
  180.0130  178.1630  143.6720 C   0  0  0  0  0  2  0  0  0  0  0  0
  179.3140  179.2110  143.0390 O   0  0  0  0  0  0  0  0  0  0  0  0
  189.9820  178.3310  142.3700 O   0  0  0  0  0  0  0  0  0  0  0  0
  191.0950  177.5010  142.5430 C   0  0  0  0  0  2  0  0  0  0  0  0
  191.4420  176.7490  141.2630 C   0  0  0  0  0  2  0  0  0  0  0  0
  191.1180  177.5680  140.0270 C   0  0  0  0  0  2  0  0  0  0  0  0
  190.5750  176.6400  138.9520 C   0  0  2  0  0  3  0  0  0  0  0  0
  191.8600  174.7020  137.8190 C   0  0  0  0  0  3  0  0  0  0  0  0
  193.6600  173.4390  136.5070 C   0  0  1  0  0  3  0  0  0  0  0  0
  195.1290  174.5230  134.8610 N   0  0  0  0  0  0  0  0  0  0  0  0
  195.0980  173.6690  136.0290 C   0  0  0  0  0  2  0  0  0  0  0  0
  194.6470  176.5100  136.2090 C   0  0  0  0  0  2  0  0  0  0  0  0
  192.5890  176.7900  137.5360 O   0  0  0  0  0  0  0  0  0  0  0  0
  191.6550  176.0510  138.0910 C   0  0  0  0  0  0  0  0  0  0  0  0
  193.4130  176.0050  136.8910 C   0  0  0  0  0  0  0  0  0  0  0  0
  193.0020  174.6860  137.0360 C   0  0  0  0  0  0  0  0  0  0  0  0
  194.9180  175.7940  134.9180 C   0  0  0  0  0  3  0  0  0  0  0  0
  192.8920  172.8700  135.4840 O   0  0  0  0  0  0  0  0  0  0  0  0
  193.8460  170.7330  135.9050 C   0  0  0  0  0  2  0  0  0  0  0  0
  192.5880  171.5820  135.9320 C   0  0  0  0  0  3  0  0  0  0  0  0
  192.8190  170.5930  134.8060 C   0  0  0  0  0  2  0  0  0  0  0  0
  189.5820  177.3390  138.1440 N   0  0  0  0  0  2  0  0  0  0  0  0
  188.2730  176.7610  138.4220 C   0  0  0  0  0  2  0  0  0  0  0  0
  187.5460  176.4200  137.1260 C   0  0  0  0  0  2  0  0  0  0  0  0
  188.2270  175.2990  136.3380 C   0  0  2  0  0  3  0  0  0  0  0  0
  188.7770  175.7990  135.0140 C   0  0  0  0  0  1  0  0  0  0  0  0
  187.7760  172.5320  136.9250 O   0  0  0  0  0  1  0  0  0  0  0  0
  187.1400  173.8610  136.0930 P   0  0  0  0  0  0  0  0  0  0  0  0
  187.0360  173.5230  134.6240 O   0  0  0  0  0  0  0  0  0  0  0  0
  185.6030  174.2120  136.7030 O   0  0  0  0  0  1  0  0  0  0  0  0
  1  7  1  0  0  0  0
  1  8  2  0  0  0  0
  2  6  1  0  0  0  0
  3 14  1  6  0  0  0
  3  9  1  0  0  0  0
  3 10  1  0  0  0  0
  5 11  1  1  0  0  0
  5  1  1  0  0  0  0
  6  4  2  0  0  0  0
  7 12  2  0  0  0  0
  9 39  1  6  0  0  0
  9  5  1  0  0  0  0
 10  2  2  0  0  0  0
 10  7  1  0  0  0  0
 12  4  1  0  0  0  0
 14 13  1  6  0  0  0
 15 16  1  0  0  0  0
 15 14  1  0  0  0  0
 17 18  2  0  0  0  0
 18 16  1  0  0  0  0
 18 19  1  0  0  0  0
 21 26  1  0  0  0  0
 21 20  2  0  0  0  0
 22 19  1  1  0  0  0
 23 22  1  0  0  0  0
 23 34  1  6  0  0  0
 24 22  1  0  0  0  0
 25 26  1  0  0  0  0
 25 24  2  0  0  0  0
 26 23  1  0  0  0  0
 27 31  1  1  0  0  0
 27 21  1  0  0  0  0
 29 30  1  0  0  0  0
 30 28  1  6  0  0  0
 30 27  1  0  0  0  0
 31 32  2  0  0  0  0
 33 31  1  0  0  0  0
 34 35  1  0  0  0  0
 36 35  1  6  0  0  0
 36 38  1  0  0  0  0
 36 37  1  0  0  0  0
 38 37  1  0  0  0  0
 39 40  1  0  0  0  0
 41 40  1  0  0  0  0
 42 41  1  0  0  0  0
 43 42  1  1  0  0  0
 44 50  2  0  0  0  0
 45 54  1  6  0  0  0
 45 52  1  0  0  0  0
 46 53  2  0  0  0  0
 46 47  1  0  0  0  0
 47 45  1  0  0  0  0
 48 51  1  0  0  0  0
 49 50  1  0  0  0  0
 50 43  1  0  0  0  0
 51 52  2  0  0  0  0
 51 49  1  0  0  0  0
 52 44  1  0  0  0  0
 53 48  1  0  0  0  0
 54 56  1  0  0  0  0
 55 56  1  0  0  0  0
 57 55  1  0  0  0  0
 57 56  1  0  0  0  0
 58 59  1  0  0  0  0
 58 43  1  0  0  0  0
 60 59  1  0  0  0  0
 61 62  1  6  0  0  0
 61 60  1  0  0  0  0
 64 61  1  0  0  0  0
 64 66  1  0  0  0  0
 64 63  1  0  0  0  0
 65 64  2  0  0  0  0
M  END
>  <MODEL>
7

>  <REMARK>
 VINA RESULT:      -4.9      2.829      9.938
  Name = 
  25 active torsions:
  status: ('A' for Active; 'I' for Inactive)
    1  A    between atoms: C_1  and  O_33
    2  A    between atoms: C_1  and  C_61
    3  A    between atoms: C_4  and  C_32
    4  A    between atoms: C_5  and  C_40
    5  A    between atoms: C_7  and  C_35
    6  A    between atoms: O_9  and  C_21
    7  A    between atoms: O_9  and  C_59
    8  A    between atoms: C_13  and  C_40
    9  A    between atoms: C_14  and  O_29
   10  A    between atoms: C_20  and  C_39
   11  A    between atoms: C_21  and  C_32
   12  A    between atoms: C_22  and  N_45
   13  A    between atoms: C_22  and  C_53
   14  A    between atoms: C_22  and  C_64
   15  A    between atoms: C_23  and  O_38
   16  A    between atoms: C_28  and  O_33
   17  A    between atoms: O_29  and  C_54
   18  A    between atoms: C_34  and  C_60
   19  A    between atoms: C_34  and  C_63
   20  A    between atoms: C_35  and  O_38
   21  A    between atoms: C_39  and  C_59
   22  A    between atoms: C_40  and  C_48
   23  A    between atoms: P_42  and  C_60
   24  A    between atoms: N_45  and  C_63
   25  A    between atoms: C_61  and  C_64
                            x       y       z     vdW  Elec       q    Type
                         _______ _______ _______ _____ _____    ______ ____

>  <TORSDO>
F 25

$$$$
=
 OpenBabel11062415063D

 66 72  0  0  1  0  0  0  0  0999 V2000
  190.1290  176.6140  136.9750 C   0  0  0  0  0  0  0  0  0  0  0  0
  187.9630  173.5980  136.2470 C   0  0  0  0  0  3  0  0  0  0  0  0
  187.3060  176.0000  136.5500 C   0  0  2  0  0  3  0  0  0  0  0  0
  190.2770  172.8920  136.3120 C   0  0  0  0  0  3  0  0  0  0  0  0
  189.1070  177.7160  137.0850 C   0  0  1  0  0  3  0  0  0  0  0  0
  188.9250  172.5880  136.1430 C   0  0  0  0  0  3  0  0  0  0  0  0
  189.7140  175.2240  136.6850 C   0  0  0  0  0  0  0  0  0  0  0  0
  191.3540  176.8970  137.0880 O   0  0  0  0  0  0  0  0  0  0  0  0
  187.7250  177.1720  137.4530 C   0  0  1  0  0  3  0  0  0  0  0  0
  188.3490  174.9150  136.5180 C   0  0  0  0  0  0  0  0  0  0  0  0
  189.5100  178.6460  138.0460 O   0  0  0  0  0  1  0  0  0  0  0  0
  190.6710  174.2030  136.5850 C   0  0  0  0  0  3  0  0  0  0  0  0
  187.1490  177.7810  134.9290 O   0  0  0  0  0  1  0  0  0  0  0  0
  186.8240  176.4460  135.1570 C   0  0  2  0  0  3  0  0  0  0  0  0
  185.3460  176.1930  134.8760 C   0  0  0  0  0  2  0  0  0  0  0  0
  184.7540  175.4310  135.9170 O   0  0  0  0  0  0  0  0  0  0  0  0
  184.1800  173.6550  134.5940 O   0  0  0  0  0  0  0  0  0  0  0  0
  183.9830  174.2950  135.6610 C   0  0  0  0  0  0  0  0  0  0  0  0
  182.9390  173.8370  136.6470 C   0  0  0  0  0  2  0  0  0  0  0  0
  179.8880  175.9370  140.1470 O   0  0  0  0  0  0  0  0  0  0  0  0
  180.1380  176.6780  139.1600 C   0  0  0  0  0  0  0  0  0  0  0  0
  181.5740  174.4850  136.4390 C   0  0  1  0  0  3  0  0  0  0  0  0
  180.8710  174.6730  137.7840 C   0  0  1  0  0  3  0  0  0  0  0  0
  181.7660  175.8800  135.8530 C   0  0  0  0  0  3  0  0  0  0  0  0
  181.1240  176.8710  136.8120 C   0  0  0  0  0  3  0  0  0  0  0  0
  180.6440  176.0990  137.9450 N   0  0  0  0  0  0  0  0  0  0  0  0
  179.8710  178.1540  139.2900 C   0  0  2  0  0  3  0  0  0  0  0  0
  180.3540  180.4110  138.2850 C   0  0  0  0  0  1  0  0  0  0  0  0
  182.0830  179.0880  139.2290 O   0  0  0  0  0  1  0  0  0  0  0  0
  180.8850  179.0040  138.5160 C   0  0  1  0  0  3  0  0  0  0  0  0
  179.7250  178.5520  140.7370 C   0  0  0  0  0  0  0  0  0  0  0  0
  179.7600  179.7670  141.0760 O   0  0  0  0  0  0  0  0  0  0  0  0
  179.5920  177.5450  141.7340 N   0  0  0  0  0  1  0  0  0  0  0  0
  179.6800  173.9150  137.8890 O   0  0  0  0  0  0  0  0  0  0  0  0
  179.9930  172.5420  137.9830 C   0  0  0  0  0  2  0  0  0  0  0  0
  179.1550  171.6780  137.0370 C   0  0  2  0  0  3  0  0  0  0  0  0
  180.0070  170.8830  136.1280 C   0  0  0  0  0  2  0  0  0  0  0  0
  179.3550  172.0570  135.6980 O   0  0  0  0  0  0  0  0  0  0  0  0
  186.7660  178.1910  137.3810 O   0  0  0  0  0  0  0  0  0  0  0  0
  186.6820  178.7500  138.6600 C   0  0  0  0  0  2  0  0  0  0  0  0
  185.2490  178.7500  139.1820 C   0  0  0  0  0  2  0  0  0  0  0  0
  185.2030  178.8970  140.6920 C   0  0  0  0  0  2  0  0  0  0  0  0
  186.3930  178.1660  141.2930 C   0  0  2  0  0  3  0  0  0  0  0  0
  187.2260  177.4410  143.6320 C   0  0  0  0  0  3  0  0  0  0  0  0
  187.3200  177.1240  146.1710 C   0  0  1  0  0  3  0  0  0  0  0  0
  186.1510  178.6010  147.7510 N   0  0  0  0  0  0  0  0  0  0  0  0
  186.3700  177.2220  147.3700 C   0  0  0  0  0  2  0  0  0  0  0  0
  184.6850  178.9780  145.8260 C   0  0  0  0  0  2  0  0  0  0  0  0
  185.4220  178.7440  143.4860 O   0  0  0  0  0  0  0  0  0  0  0  0
  186.3580  178.1350  142.7940 C   0  0  0  0  0  0  0  0  0  0  0  0
  185.6200  178.5030  144.7560 C   0  0  0  0  0  0  0  0  0  0  0  0
  186.7380  177.6910  144.9040 C   0  0  0  0  0  0  0  0  0  0  0  0
  185.4120  179.4060  147.0680 C   0  0  0  0  0  3  0  0  0  0  0  0
  188.5450  177.7340  146.4690 O   0  0  0  0  0  0  0  0  0  0  0  0
  190.4410  177.5000  147.8850 C   0  0  0  0  0  2  0  0  0  0  0  0
  189.1950  176.8410  147.3250 C   0  0  0  0  0  3  0  0  0  0  0  0
  190.5590  176.5050  146.7560 C   0  0  0  0  0  2  0  0  0  0  0  0
  187.6370  178.7540  140.8090 N   0  0  0  0  0  2  0  0  0  0  0  0
  188.7520  178.0090  141.3810 C   0  0  0  0  0  2  0  0  0  0  0  0
  189.6350  178.9220  142.2250 C   0  0  0  0  0  2  0  0  0  0  0  0
  190.3350  178.1840  143.3670 C   0  0  2  0  0  3  0  0  0  0  0  0
  191.3450  179.0720  144.0720 C   0  0  0  0  0  1  0  0  0  0  0  0
  191.9970  175.9690  144.1000 O   0  0  0  0  0  1  0  0  0  0  0  0
  191.1020  176.6260  142.8230 P   0  0  0  0  0  0  0  0  0  0  0  0
  192.0210  176.8730  141.6490 O   0  0  0  0  0  0  0  0  0  0  0  0
  189.8920  175.5350  142.3760 O   0  0  0  0  0  1  0  0  0  0  0  0
  1  5  1  0  0  0  0
  1  8  2  0  0  0  0
  2 10  1  0  0  0  0
  3 14  1  6  0  0  0
  3  9  1  0  0  0  0
  4 12  2  0  0  0  0
  5  9  1  0  0  0  0
  5 11  1  1  0  0  0
  6  2  2  0  0  0  0
  6  4  1  0  0  0  0
  7  1  1  0  0  0  0
  9 39  1  6  0  0  0
 10  3  1  0  0  0  0
 10  7  2  0  0  0  0
 12  7  1  0  0  0  0
 14 13  1  1  0  0  0
 15 14  1  0  0  0  0
 15 16  1  0  0  0  0
 17 18  2  0  0  0  0
 18 16  1  0  0  0  0
 18 19  1  0  0  0  0
 21 20  2  0  0  0  0
 22 19  1  1  0  0  0
 22 23  1  0  0  0  0
 23 34  1  6  0  0  0
 23 26  1  0  0  0  0
 24 22  1  0  0  0  0
 24 25  2  0  0  0  0
 25 26  1  0  0  0  0
 26 21  1  0  0  0  0
 27 21  1  1  0  0  0
 27 31  1  0  0  0  0
 30 28  1  1  0  0  0
 30 29  1  0  0  0  0
 30 27  1  0  0  0  0
 31 32  2  0  0  0  0
 31 33  1  0  0  0  0
 34 35  1  0  0  0  0
 36 35  1  1  0  0  0
 37 36  1  0  0  0  0
 38 37  1  0  0  0  0
 38 36  1  0  0  0  0
 39 40  1  0  0  0  0
 40 41  1  0  0  0  0
 41 42  1  0  0  0  0
 43 42  1  1  0  0  0
 43 50  1  0  0  0  0
 44 52  1  0  0  0  0
 45 54  1  1  0  0  0
 45 47  1  0  0  0  0
 47 46  1  0  0  0  0
 48 53  1  0  0  0  0
 49 51  1  0  0  0  0
 50 49  1  0  0  0  0
 50 44  2  0  0  0  0
 51 52  2  0  0  0  0
 51 48  1  0  0  0  0
 52 45  1  0  0  0  0
 53 46  2  0  0  0  0
 54 56  1  0  0  0  0
 56 55  1  0  0  0  0
 57 56  1  0  0  0  0
 57 55  1  0  0  0  0
 58 43  1  0  0  0  0
 58 59  1  0  0  0  0
 59 60  1  0  0  0  0
 60 61  1  0  0  0  0
 61 62  1  6  0  0  0
 64 61  1  0  0  0  0
 64 63  1  0  0  0  0
 65 64  2  0  0  0  0
 66 64  1  0  0  0  0
M  END
>  <MODEL>
8

>  <REMARK>
 VINA RESULT:      -3.7      3.462     10.760
  Name = 
  25 active torsions:
  status: ('A' for Active; 'I' for Inactive)
    1  A    between atoms: C_1  and  O_33
    2  A    between atoms: C_1  and  C_61
    3  A    between atoms: C_4  and  C_32
    4  A    between atoms: C_5  and  C_40
    5  A    between atoms: C_7  and  C_35
    6  A    between atoms: O_9  and  C_21
    7  A    between atoms: O_9  and  C_59
    8  A    between atoms: C_13  and  C_40
    9  A    between atoms: C_14  and  O_29
   10  A    between atoms: C_20  and  C_39
   11  A    between atoms: C_21  and  C_32
   12  A    between atoms: C_22  and  N_45
   13  A    between atoms: C_22  and  C_53
   14  A    between atoms: C_22  and  C_64
   15  A    between atoms: C_23  and  O_38
   16  A    between atoms: C_28  and  O_33
   17  A    between atoms: O_29  and  C_54
   18  A    between atoms: C_34  and  C_60
   19  A    between atoms: C_34  and  C_63
   20  A    between atoms: C_35  and  O_38
   21  A    between atoms: C_39  and  C_59
   22  A    between atoms: C_40  and  C_48
   23  A    between atoms: P_42  and  C_60
   24  A    between atoms: N_45  and  C_63
   25  A    between atoms: C_61  and  C_64
                            x       y       z     vdW  Elec       q    Type
                         _______ _______ _______ _____ _____    ______ ____

>  <TORSDO>
F 25

$$$$
=
 OpenBabel11062415063D

 66 72  0  0  1  0  0  0  0  0999 V2000
  190.0400  177.6230  147.0760 C   0  0  0  0  0  0  0  0  0  0  0  0
  192.1170  175.2150  145.0260 C   0  0  0  0  0  3  0  0  0  0  0  0
  190.3360  176.8180  144.2850 C   0  0  2  0  0  3  0  0  0  0  0  0
  192.8260  175.0770  147.3360 C   0  0  0  0  0  3  0  0  0  0  0  0
  189.1400  178.2320  146.0310 C   0  0  1  0  0  3  0  0  0  0  0  0
  192.9470  174.6640  146.0080 C   0  0  0  0  0  3  0  0  0  0  0  0
  191.0450  176.6030  146.7070 C   0  0  0  0  0  0  0  0  0  0  0  0
  189.9570  178.0260  148.2690 O   0  0  0  0  0  0  0  0  0  0  0  0
  188.9800  177.3140  144.8170 C   0  0  1  0  0  3  0  0  0  0  0  0
  191.1660  176.1820  145.3670 C   0  0  0  0  0  0  0  0  0  0  0  0
  187.8840  178.4990  146.5800 O   0  0  0  0  0  1  0  0  0  0  0  0
  191.8780  176.0400  147.6850 C   0  0  0  0  0  3  0  0  0  0  0  0
  190.3420  179.0480  143.3620 O   0  0  0  0  0  1  0  0  0  0  0  0
  191.0890  177.8760  143.4580 C   0  0  2  0  0  3  0  0  0  0  0  0
  191.5450  177.4110  142.0790 C   0  0  0  0  0  2  0  0  0  0  0  0
  190.6180  177.8030  141.0780 O   0  0  0  0  0  0  0  0  0  0  0  0
  189.5510  176.4820  139.5440 O   0  0  0  0  0  0  0  0  0  0  0  0
  190.5620  177.1780  139.8300 C   0  0  0  0  0  0  0  0  0  0  0  0
  191.6860  177.3400  138.8390 C   0  0  0  0  0  2  0  0  0  0  0  0
  195.4620  176.4770  135.5270 O   0  0  0  0  0  0  0  0  0  0  0  0
  195.2820  175.5550  136.3650 C   0  0  0  0  0  0  0  0  0  0  0  0
  191.8990  176.1180  137.9520 C   0  0  1  0  0  3  0  0  0  0  0  0
  192.9510  176.4200  136.8830 C   0  0  1  0  0  3  0  0  0  0  0  0
  192.4570  174.9760  138.7960 C   0  0  0  0  0  3  0  0  0  0  0  0
  193.7920  174.5690  138.1900 C   0  0  0  0  0  3  0  0  0  0  0  0
  194.0400  175.4800  137.0860 N   0  0  0  0  0  0  0  0  0  0  0  0
  196.3820  174.5460  136.5620 C   0  0  2  0  0  3  0  0  0  0  0  0
  197.6710  172.7890  135.3010 C   0  0  0  0  0  1  0  0  0  0  0  0
  195.4640  172.3820  136.0700 O   0  0  0  0  0  1  0  0  0  0  0  0
  196.2960  173.3830  135.5660 C   0  0  1  0  0  3  0  0  0  0  0  0
  196.4620  174.1070  138.0020 C   0  0  0  0  0  0  0  0  0  0  0  0
  196.7690  174.9310  138.9070 O   0  0  0  0  0  0  0  0  0  0  0  0
  196.2340  172.7430  138.3370 N   0  0  0  0  0  1  0  0  0  0  0  0
  192.4260  176.3730  135.5700 O   0  0  0  0  0  0  0  0  0  0  0  0
  191.0980  175.8940  135.6010 C   0  0  0  0  0  2  0  0  0  0  0  0
  190.8750  174.7100  134.6570 C   0  0  2  0  0  3  0  0  0  0  0  0
  190.6900  173.4470  135.4040 C   0  0  0  0  0  2  0  0  0  0  0  0
  191.9110  173.7670  134.7760 O   0  0  0  0  0  0  0  0  0  0  0  0
  188.2830  177.9740  143.7970 O   0  0  0  0  0  0  0  0  0  0  0  0
  187.8290  176.9840  142.9200 C   0  0  0  0  0  2  0  0  0  0  0  0
  186.4360  177.3000  142.3870 C   0  0  0  0  0  2  0  0  0  0  0  0
  186.4080  178.6180  141.6360 C   0  0  0  0  0  2  0  0  0  0  0  0
  185.2040  178.6290  140.7070 C   0  0  2  0  0  3  0  0  0  0  0  0
  184.7000  177.5440  138.4140 C   0  0  0  0  0  3  0  0  0  0  0  0
  185.0490  176.6010  136.0600 C   0  0  1  0  0  3  0  0  0  0  0  0
  186.9230  177.2640  134.6140 N   0  0  0  0  0  0  0  0  0  0  0  0
  186.2120  176.1350  135.1770 C   0  0  0  0  0  2  0  0  0  0  0  0
  187.9940  177.7550  136.7610 C   0  0  0  0  0  2  0  0  0  0  0  0
  186.7450  178.3420  138.8030 O   0  0  0  0  0  0  0  0  0  0  0  0
  185.5430  178.1940  139.3110 C   0  0  0  0  0  0  0  0  0  0  0  0
  186.7550  177.8310  137.5990 C   0  0  0  0  0  0  0  0  0  0  0  0
  185.4980  177.3180  137.3050 C   0  0  0  0  0  0  0  0  0  0  0  0
  187.7150  178.0080  135.3080 C   0  0  0  0  0  3  0  0  0  0  0  0
  184.1660  177.3980  135.3210 O   0  0  0  0  0  0  0  0  0  0  0  0
  181.8880  177.4840  134.6420 C   0  0  0  0  0  2  0  0  0  0  0  0
  183.0180  176.6160  135.1630 C   0  0  0  0  0  3  0  0  0  0  0  0
  181.9400  177.1140  136.1050 C   0  0  0  0  0  2  0  0  0  0  0  0
  184.5830  179.9490  140.7100 N   0  0  0  0  0  2  0  0  0  0  0  0
  183.1380  179.7770  140.8040 C   0  0  0  0  0  2  0  0  0  0  0  0
  182.7920  178.5970  141.7060 C   0  0  0  0  0  2  0  0  0  0  0  0
  181.4700  177.9250  141.3280 C   0  0  2  0  0  3  0  0  0  0  0  0
  181.4160  177.5900  139.8480 C   0  0  0  0  0  1  0  0  0  0  0  0
  179.0860  179.2570  140.4650 O   0  0  0  0  0  0  0  0  0  0  0  0
  180.0220  178.9070  141.8290 P   0  0  0  0  0  0  0  0  0  0  0  0
  180.4610  180.2010  142.4750 O   0  0  0  0  0  1  0  0  0  0  0  0
  179.0940  178.0140  142.9230 O   0  0  0  0  0  1  0  0  0  0  0  0
  1  8  2  0  0  0  0
  2 10  2  0  0  0  0
  2  6  1  0  0  0  0
  3 14  1  1  0  0  0
  3  9  1  0  0  0  0
  3 10  1  0  0  0  0
  4 12  1  0  0  0  0
  5 11  1  1  0  0  0
  5  1  1  0  0  0  0
  6  4  2  0  0  0  0
  7  1  1  0  0  0  0
  7 12  2  0  0  0  0
  9 39  1  6  0  0  0
  9  5  1  0  0  0  0
 10  7  1  0  0  0  0
 14 13  1  6  0  0  0
 15 14  1  0  0  0  0
 16 15  1  0  0  0  0
 17 18  2  0  0  0  0
 18 16  1  0  0  0  0
 19 18  1  0  0  0  0
 20 21  2  0  0  0  0
 21 26  1  0  0  0  0
 22 24  1  0  0  0  0
 22 19  1  1  0  0  0
 23 34  1  6  0  0  0
 23 26  1  0  0  0  0
 23 22  1  0  0  0  0
 25 24  2  0  0  0  0
 26 25  1  0  0  0  0
 27 21  1  1  0  0  0
 27 31  1  0  0  0  0
 30 28  1  1  0  0  0
 30 29  1  0  0  0  0
 30 27  1  0  0  0  0
 31 33  1  0  0  0  0
 31 32  2  0  0  0  0
 34 35  1  0  0  0  0
 36 38  1  0  0  0  0
 36 37  1  0  0  0  0
 36 35  1  1  0  0  0
 38 37  1  0  0  0  0
 40 39  1  0  0  0  0
 41 40  1  0  0  0  0
 42 41  1  0  0  0  0
 43 58  1  0  0  0  0
 43 42  1  1  0  0  0
 44 50  2  0  0  0  0
 45 54  1  6  0  0  0
 45 52  1  0  0  0  0
 46 47  1  0  0  0  0
 46 53  2  0  0  0  0
 47 45  1  0  0  0  0
 48 51  1  0  0  0  0
 49 50  1  0  0  0  0
 50 43  1  0  0  0  0
 51 49  1  0  0  0  0
 52 51  2  0  0  0  0
 52 44  1  0  0  0  0
 53 48  1  0  0  0  0
 55 56  1  0  0  0  0
 55 57  1  0  0  0  0
 56 54  1  0  0  0  0
 56 57  1  0  0  0  0
 58 59  1  0  0  0  0
 59 60  1  0  0  0  0
 61 62  1  6  0  0  0
 61 60  1  0  0  0  0
 61 64  1  0  0  0  0
 63 64  2  0  0  0  0
 64 65  1  0  0  0  0
 64 66  1  0  0  0  0
M  END
>  <MODEL>
9

>  <REMARK>
 VINA RESULT:      -3.6      2.933      4.055
  Name = 
  25 active torsions:
  status: ('A' for Active; 'I' for Inactive)
    1  A    between atoms: C_1  and  O_33
    2  A    between atoms: C_1  and  C_61
    3  A    between atoms: C_4  and  C_32
    4  A    between atoms: C_5  and  C_40
    5  A    between atoms: C_7  and  C_35
    6  A    between atoms: O_9  and  C_21
    7  A    between atoms: O_9  and  C_59
    8  A    between atoms: C_13  and  C_40
    9  A    between atoms: C_14  and  O_29
   10  A    between atoms: C_20  and  C_39
   11  A    between atoms: C_21  and  C_32
   12  A    between atoms: C_22  and  N_45
   13  A    between atoms: C_22  and  C_53
   14  A    between atoms: C_22  and  C_64
   15  A    between atoms: C_23  and  O_38
   16  A    between atoms: C_28  and  O_33
   17  A    between atoms: O_29  and  C_54
   18  A    between atoms: C_34  and  C_60
   19  A    between atoms: C_34  and  C_63
   20  A    between atoms: C_35  and  O_38
   21  A    between atoms: C_39  and  C_59
   22  A    between atoms: C_40  and  C_48
   23  A    between atoms: P_42  and  C_60
   24  A    between atoms: N_45  and  C_63
   25  A    between atoms: C_61  and  C_64
                            x       y       z     vdW  Elec       q    Type
                         _______ _______ _______ _____ _____    ______ ____

>  <TORSDO>
F 25

$$$$
