=
 OpenBabel11062414463D

 33 37  0  0  1  0  0  0  0  0999 V2000
  181.6120  178.1480  141.4690 C   0  0  1  0  0  3  0  0  0  0  0  0
  180.4450  181.0900  138.6720 C   0  0  2  0  0  3  0  0  0  0  0  0
  180.0780  181.1890  140.1360 C   0  0  0  0  0  2  0  0  0  0  0  0
  180.7100  179.6080  138.3940 C   0  0  2  0  0  3  0  0  0  0  0  0
  179.4040  179.8720  140.4550 C   0  0  0  0  0  2  0  0  0  0  0  0
  183.9620  178.3420  141.6420 C   0  0  1  0  0  3  0  0  0  0  0  0
  182.4220  178.8740  143.6540 C   0  0  0  0  0  2  0  0  0  0  0  0
  181.2260  178.9840  142.6740 C   0  0  2  0  0  3  0  0  0  0  0  0
  182.3640  178.1440  139.5010 C   0  0  1  0  0  3  0  0  0  0  0  0
  180.9850  177.8360  140.1110 C   0  0  2  0  0  3  0  0  0  0  0  0
  179.9950  178.8450  139.4970 C   0  0  2  0  0  3  0  0  0  0  0  0
  183.8140  179.0890  142.9880 C   0  0  0  0  0  2  0  0  0  0  0  0
  182.1830  179.2180  138.4440 C   0  0  0  0  0  2  0  0  0  0  0  0
  182.7830  178.7910  140.8130 C   0  0  1  0  0  3  0  0  0  0  0  0
  179.2790  179.2690  144.2510 N   0  0  0  0  0  1  0  0  0  0  0  0
  179.9920  178.4530  143.3320 C   0  0  0  0  0  0  0  0  0  0  0  0
  179.6040  177.2730  143.1140 O   0  0  0  0  0  0  0  0  0  0  0  0
  181.5850  182.0320  138.2920 C   0  0  0  0  0  2  0  0  0  0  0  0
  181.8770  184.3500  137.3370 N   0  0  0  0  0  1  0  0  0  0  0  0
  179.9440  183.1210  136.9460 O   0  0  0  0  0  0  0  0  0  0  0  0
  181.0820  183.1790  137.4820 C   0  0  0  0  0  0  0  0  0  0  0  0
  185.1550  178.7160  141.0170 O   0  0  0  0  0  0  0  0  0  0  0  0
  185.9700  179.0170  142.0070 O   0  0  0  0  0  0  0  0  0  0  0  0
  187.1840  178.6400  141.5760 O   0  0  0  0  0  0  0  0  0  0  0  0
  187.9490  177.7270  142.2980 C   0  0  0  0  0  0  0  0  0  0  0  0
  189.1580  177.5550  141.9940 O   0  0  0  0  0  0  0  0  0  0  0  0
  187.3580  176.9650  143.4400 C   0  0  0  0  0  2  0  0  0  0  0  0
  187.6480  177.7760  147.6760 C   0  0  0  0  0  2  0  0  0  0  0  0
  186.2870  177.6270  145.5810 C   0  0  0  0  0  2  0  0  0  0  0  0
  186.4740  178.3680  146.9020 C   0  0  0  0  0  2  0  0  0  0  0  0
  188.9230  177.8580  146.8420 C   0  0  0  0  0  2  0  0  0  0  0  0
  188.7350  177.1180  145.5210 C   0  0  0  0  0  2  0  0  0  0  0  0
  187.5600  177.7160  144.7450 C   0  0  0  0  0  3  0  0  0  0  0  0
  1  8  1  0  0  0  0
  2  3  1  0  0  0  0
  3  5  1  0  0  0  0
  4 13  1  0  0  0  0
  4  2  1  0  0  0  0
  4 11  1  0  0  0  0
  6 12  1  0  0  0  0
  8 16  1  0  0  0  0
  8  7  1  0  0  0  0
  9 10  1  0  0  0  0
  9 14  1  0  0  0  0
 10  1  1  0  0  0  0
 11 10  1  0  0  0  0
 11  5  1  0  0  0  0
 12  7  1  0  0  0  0
 13  9  1  0  0  0  0
 14  1  1  0  0  0  0
 14  6  1  0  0  0  0
 16 15  1  0  0  0  0
 17 16  2  0  0  0  0
 18  2  1  0  0  0  0
 19 21  1  0  0  0  0
 20 21  2  0  0  0  0
 21 18  1  0  0  0  0
 22  6  1  0  0  0  0
 22 23  1  0  0  0  0
 24 23  1  0  0  0  0
 24 25  1  0  0  0  0
 25 27  1  0  0  0  0
 26 25  2  0  0  0  0
 27 33  1  0  0  0  0
 29 30  1  0  0  0  0
 30 28  1  0  0  0  0
 31 28  1  0  0  0  0
 32 31  1  0  0  0  0
 33 32  1  0  0  0  0
 33 29  1  0  0  0  0
M  END
>  <MODEL>
1

>  <REMARK>
 VINA RESULT:      -8.1      0.000      0.000
  Name = 
  9 active torsions:
  status: ('A' for Active; 'I' for Inactive)
    1  A    between atoms: C_2  and  C_20
    2  A    between atoms: O_4  and  O_11
    3  A    between atoms: O_4  and  C_23
    4  A    between atoms: C_8  and  O_32
    5  A    between atoms: C_10  and  C_23
    6  A    between atoms: C_10  and  C_33
    7  A    between atoms: O_11  and  O_32
    8  A    between atoms: C_12  and  C_26
    9  A    between atoms: C_14  and  C_20
                            x       y       z     vdW  Elec       q    Type
                         _______ _______ _______ _____ _____    ______ ____

>  <TORSDO>
F 9

$$$$
=
 OpenBabel11062414463D

 33 37  0  0  1  0  0  0  0  0999 V2000
  189.7870  177.3340  137.8720 C   0  0  1  0  0  3  0  0  0  0  0  0
  186.9880  174.8570  135.9040 C   0  0  2  0  0  3  0  0  0  0  0  0
  188.1630  174.2860  136.6680 C   0  0  0  0  0  2  0  0  0  0  0  0
  187.3740  176.2900  135.5290 C   0  0  2  0  0  3  0  0  0  0  0  0
  189.3750  174.9830  136.0880 C   0  0  0  0  0  2  0  0  0  0  0  0
  188.6020  178.3230  139.6630 C   0  0  1  0  0  3  0  0  0  0  0  0
  190.5590  176.6840  140.0940 C   0  0  0  0  0  2  0  0  0  0  0  0
  190.4310  176.1890  138.6300 C   0  0  2  0  0  3  0  0  0  0  0  0
  188.0110  178.1230  137.0570 C   0  0  1  0  0  3  0  0  0  0  0  0
  189.3030  177.5590  136.4400 C   0  0  2  0  0  3  0  0  0  0  0  0
  188.8920  176.3410  135.5910 C   0  0  2  0  0  3  0  0  0  0  0  0
  189.2660  177.3440  140.6590 C   0  0  0  0  0  2  0  0  0  0  0  0
  186.8380  177.3510  136.4840 C   0  0  0  0  0  2  0  0  0  0  0  0
  188.4080  177.5220  138.3980 C   0  0  1  0  0  3  0  0  0  0  0  0
  192.1640  174.5220  137.8690 N   0  0  0  0  0  1  0  0  0  0  0  0
  191.7900  175.8760  138.0900 C   0  0  0  0  0  0  0  0  0  0  0  0
  192.6240  176.7960  137.8700 O   0  0  0  0  0  0  0  0  0  0  0  0
  185.6740  174.7220  136.6710 C   0  0  0  0  0  2  0  0  0  0  0  0
  185.2270  172.3330  135.9900 N   0  0  0  0  0  1  0  0  0  0  0  0
  185.3130  172.9510  138.2290 O   0  0  0  0  0  0  0  0  0  0  0  0
  185.4050  173.2980  137.0210 C   0  0  0  0  0  0  0  0  0  0  0  0
  187.3640  178.7410  140.1580 O   0  0  0  0  0  0  0  0  0  0  0  0
  187.5110  178.7450  141.4670 O   0  0  0  0  0  0  0  0  0  0  0  0
  186.2660  178.8650  141.9510 O   0  0  0  0  0  0  0  0  0  0  0  0
  185.8820  178.2040  143.1160 C   0  0  0  0  0  0  0  0  0  0  0  0
  184.7770  178.4800  143.6480 O   0  0  0  0  0  0  0  0  0  0  0  0
  186.7580  177.1590  143.7280 C   0  0  0  0  0  2  0  0  0  0  0  0
  188.8430  177.3680  147.5100 C   0  0  0  0  0  2  0  0  0  0  0  0
  186.7150  177.4560  146.1930 C   0  0  0  0  0  2  0  0  0  0  0  0
  187.4610  178.0080  147.4050 C   0  0  0  0  0  2  0  0  0  0  0  0
  189.6410  177.6290  146.2360 C   0  0  0  0  0  2  0  0  0  0  0  0
  188.8940  177.0790  145.0260 C   0  0  0  0  0  2  0  0  0  0  0  0
  187.5110  177.7250  144.9210 C   0  0  0  0  0  3  0  0  0  0  0  0
  1 14  1  0  0  0  0
  1  8  1  0  0  0  0
  2  3  1  0  0  0  0
  2 18  1  0  0  0  0
  4 11  1  0  0  0  0
  4  2  1  0  0  0  0
  4 13  1  0  0  0  0
  5  3  1  0  0  0  0
  6 22  1  0  0  0  0
  6 12  1  0  0  0  0
  7 12  1  0  0  0  0
  8  7  1  0  0  0  0
  9 14  1  0  0  0  0
 10  9  1  0  0  0  0
 10  1  1  0  0  0  0
 11  5  1  0  0  0  0
 11 10  1  0  0  0  0
 13  9  1  0  0  0  0
 14  6  1  0  0  0  0
 15 16  1  0  0  0  0
 16  8  1  0  0  0  0
 17 16  2  0  0  0  0
 18 21  1  0  0  0  0
 19 21  1  0  0  0  0
 21 20  2  0  0  0  0
 22 23  1  0  0  0  0
 23 24  1  0  0  0  0
 24 25  1  0  0  0  0
 25 26  2  0  0  0  0
 25 27  1  0  0  0  0
 27 33  1  0  0  0  0
 29 30  1  0  0  0  0
 30 28  1  0  0  0  0
 31 28  1  0  0  0  0
 32 31  1  0  0  0  0
 33 32  1  0  0  0  0
 33 29  1  0  0  0  0
M  END
>  <MODEL>
2

>  <REMARK>
 VINA RESULT:      -7.8      5.548      8.108
  Name = 
  9 active torsions:
  status: ('A' for Active; 'I' for Inactive)
    1  A    between atoms: C_2  and  C_20
    2  A    between atoms: O_4  and  O_11
    3  A    between atoms: O_4  and  C_23
    4  A    between atoms: C_8  and  O_32
    5  A    between atoms: C_10  and  C_23
    6  A    between atoms: C_10  and  C_33
    7  A    between atoms: O_11  and  O_32
    8  A    between atoms: C_12  and  C_26
    9  A    between atoms: C_14  and  C_20
                            x       y       z     vdW  Elec       q    Type
                         _______ _______ _______ _____ _____    ______ ____

>  <TORSDO>
F 9

$$$$
=
 OpenBabel11062414463D

 33 37  0  0  1  0  0  0  0  0999 V2000
  188.5120  176.6430  136.8020 C   0  0  1  0  0  3  0  0  0  0  0  0
  185.8840  173.3510  136.4780 C   0  0  2  0  0  3  0  0  0  0  0  0
  187.2220  173.2400  137.1750 C   0  0  0  0  0  2  0  0  0  0  0  0
  185.9970  174.5390  135.5180 C   0  0  2  0  0  3  0  0  0  0  0  0
  188.2280  173.7460  136.1640 C   0  0  0  0  0  2  0  0  0  0  0  0
  187.4380  178.1630  138.2590 C   0  0  1  0  0  3  0  0  0  0  0  0
  189.6600  177.0130  138.9240 C   0  0  0  0  0  2  0  0  0  0  0  0
  189.4160  175.9610  137.8120 C   0  0  2  0  0  3  0  0  0  0  0  0
  186.5460  176.8800  136.0830 C   0  0  1  0  0  3  0  0  0  0  0  0
  187.8150  176.2280  135.5070 C   0  0  2  0  0  3  0  0  0  0  0  0
  187.4850  174.7410  135.2810 C   0  0  2  0  0  3  0  0  0  0  0  0
  188.3680  177.7310  139.4160 C   0  0  0  0  0  2  0  0  0  0  0  0
  185.4370  175.8450  136.0730 C   0  0  0  0  0  2  0  0  0  0  0  0
  187.2020  176.9070  137.4560 C   0  0  1  0  0  3  0  0  0  0  0  0
  191.5420  174.6050  137.8370 N   0  0  0  0  0  1  0  0  0  0  0  0
  190.7230  175.5740  137.1970 C   0  0  0  0  0  0  0  0  0  0  0  0
  191.1280  176.1320  136.1400 O   0  0  0  0  0  0  0  0  0  0  0  0
  184.7190  173.4240  137.4620 C   0  0  0  0  0  2  0  0  0  0  0  0
  182.5100  173.4800  136.2420 N   0  0  0  0  0  1  0  0  0  0  0  0
  183.3780  171.4900  137.0710 O   0  0  0  0  0  0  0  0  0  0  0  0
  183.5160  172.7330  136.9160 C   0  0  0  0  0  0  0  0  0  0  0  0
  186.2270  178.6370  138.7710 O   0  0  0  0  0  0  0  0  0  0  0  0
  186.4540  178.8140  140.0570 O   0  0  0  0  0  0  0  0  0  0  0  0
  185.3260  179.3620  140.5310 O   0  0  0  0  0  0  0  0  0  0  0  0
  184.6290  178.7730  141.5840 C   0  0  0  0  0  0  0  0  0  0  0  0
  183.9060  177.7680  141.3630 O   0  0  0  0  0  0  0  0  0  0  0  0
  184.7470  179.3080  142.9750 C   0  0  0  0  0  2  0  0  0  0  0  0
  187.5730  177.4930  145.6980 C   0  0  0  0  0  2  0  0  0  0  0  0
  186.8050  177.9720  143.3640 C   0  0  0  0  0  2  0  0  0  0  0  0
  187.4880  176.9540  144.2720 C   0  0  0  0  0  2  0  0  0  0  0  0
  186.1770  177.8140  146.2230 C   0  0  0  0  0  2  0  0  0  0  0  0
  185.4940  178.8310  145.3130 C   0  0  0  0  0  2  0  0  0  0  0  0
  185.4070  178.2850  143.8860 C   0  0  0  0  0  3  0  0  0  0  0  0
  1 14  1  0  0  0  0
  1  8  1  0  0  0  0
  2  3  1  0  0  0  0
  2 18  1  0  0  0  0
  4 13  1  0  0  0  0
  4  2  1  0  0  0  0
  5  3  1  0  0  0  0
  6 22  1  0  0  0  0
  6 12  1  0  0  0  0
  7 12  1  0  0  0  0
  8  7  1  0  0  0  0
  9 14  1  0  0  0  0
 10  9  1  0  0  0  0
 10  1  1  0  0  0  0
 11 10  1  0  0  0  0
 11  4  1  0  0  0  0
 11  5  1  0  0  0  0
 13  9  1  0  0  0  0
 14  6  1  0  0  0  0
 16  8  1  0  0  0  0
 16 15  1  0  0  0  0
 17 16  2  0  0  0  0
 19 21  1  0  0  0  0
 21 20  2  0  0  0  0
 21 18  1  0  0  0  0
 22 23  1  0  0  0  0
 23 24  1  0  0  0  0
 24 25  1  0  0  0  0
 25 27  1  0  0  0  0
 26 25  2  0  0  0  0
 27 33  1  0  0  0  0
 28 31  1  0  0  0  0
 29 33  1  0  0  0  0
 29 30  1  0  0  0  0
 30 28  1  0  0  0  0
 32 31  1  0  0  0  0
 33 32  1  0  0  0  0
M  END
>  <MODEL>
3

>  <REMARK>
 VINA RESULT:      -7.5      5.527      8.004
  Name = 
  9 active torsions:
  status: ('A' for Active; 'I' for Inactive)
    1  A    between atoms: C_2  and  C_20
    2  A    between atoms: O_4  and  O_11
    3  A    between atoms: O_4  and  C_23
    4  A    between atoms: C_8  and  O_32
    5  A    between atoms: C_10  and  C_23
    6  A    between atoms: C_10  and  C_33
    7  A    between atoms: O_11  and  O_32
    8  A    between atoms: C_12  and  C_26
    9  A    between atoms: C_14  and  C_20
                            x       y       z     vdW  Elec       q    Type
                         _______ _______ _______ _____ _____    ______ ____

>  <TORSDO>
F 9

$$$$
=
 OpenBabel11062414463D

 33 37  0  0  1  0  0  0  0  0999 V2000
  189.7540  177.6280  137.9240 C   0  0  1  0  0  3  0  0  0  0  0  0
  186.4290  176.0790  135.8290 C   0  0  2  0  0  3  0  0  0  0  0  0
  187.4700  175.1770  136.4560 C   0  0  0  0  0  2  0  0  0  0  0  0
  187.1090  177.4320  135.6070 C   0  0  2  0  0  3  0  0  0  0  0  0
  188.7900  175.6670  135.8980 C   0  0  0  0  0  2  0  0  0  0  0  0
  188.8610  178.6110  139.8800 C   0  0  1  0  0  3  0  0  0  0  0  0
  190.4230  176.5490  140.0090 C   0  0  0  0  0  2  0  0  0  0  0  0
  190.1510  176.2850  138.5060 C   0  0  2  0  0  3  0  0  0  0  0  0
  188.1730  178.8760  137.3050 C   0  0  1  0  0  3  0  0  0  0  0  0
  189.2930  178.1320  136.5570 C   0  0  2  0  0  3  0  0  0  0  0  0
  188.6030  177.1480  135.5930 C   0  0  2  0  0  3  0  0  0  0  0  0
  189.3210  177.3940  140.7160 C   0  0  0  0  0  2  0  0  0  0  0  0
  186.8440  178.4520  136.7080 C   0  0  0  0  0  2  0  0  0  0  0  0
  188.4640  178.0380  138.5420 C   0  0  1  0  0  3  0  0  0  0  0  0
  191.6170  174.3560  137.8040 N   0  0  0  0  0  1  0  0  0  0  0  0
  191.3930  175.7590  137.8600 C   0  0  0  0  0  0  0  0  0  0  0  0
  192.2660  176.5480  137.4050 O   0  0  0  0  0  0  0  0  0  0  0  0
  185.1380  176.1310  136.6440 C   0  0  0  0  0  2  0  0  0  0  0  0
  182.9640  177.3740  136.3310 N   0  0  0  0  0  1  0  0  0  0  0  0
  183.9050  176.1380  134.6020 O   0  0  0  0  0  0  0  0  0  0  0  0
  183.9860  176.5440  135.7920 C   0  0  0  0  0  0  0  0  0  0  0  0
  187.7590  179.2170  140.4880 O   0  0  0  0  0  0  0  0  0  0  0  0
  186.7330  178.4660  140.1450 O   0  0  0  0  0  0  0  0  0  0  0  0
  185.6530  179.1930  140.4690 O   0  0  0  0  0  0  0  0  0  0  0  0
  184.8030  178.7950  141.4980 C   0  0  0  0  0  0  0  0  0  0  0  0
  183.9830  177.8620  141.2980 O   0  0  0  0  0  0  0  0  0  0  0  0
  184.8670  179.4480  142.8410 C   0  0  0  0  0  2  0  0  0  0  0  0
  187.1060  177.6000  146.0450 C   0  0  0  0  0  2  0  0  0  0  0  0
  186.7010  177.9550  143.6000 C   0  0  0  0  0  2  0  0  0  0  0  0
  187.1480  176.9540  144.6620 C   0  0  0  0  0  2  0  0  0  0  0  0
  185.6970  178.0990  146.3500 C   0  0  0  0  0  2  0  0  0  0  0  0
  185.2510  179.0970  145.2870 C   0  0  0  0  0  2  0  0  0  0  0  0
  185.2890  178.4460  143.9030 C   0  0  0  0  0  3  0  0  0  0  0  0
  1  8  1  0  0  0  0
  1 14  1  0  0  0  0
  2  3  1  0  0  0  0
  2 18  1  0  0  0  0
  4  2  1  0  0  0  0
  4 13  1  0  0  0  0
  5  3  1  0  0  0  0
  6 22  1  0  0  0  0
  6 12  1  0  0  0  0
  7 12  1  0  0  0  0
  8  7  1  0  0  0  0
  9 14  1  0  0  0  0
 10  9  1  0  0  0  0
 10  1  1  0  0  0  0
 11  4  1  0  0  0  0
 11  5  1  0  0  0  0
 11 10  1  0  0  0  0
 13  9  1  0  0  0  0
 14  6  1  0  0  0  0
 15 16  1  0  0  0  0
 16  8  1  0  0  0  0
 17 16  2  0  0  0  0
 20 21  2  0  0  0  0
 21 19  1  0  0  0  0
 21 18  1  0  0  0  0
 23 24  1  0  0  0  0
 23 22  1  0  0  0  0
 24 25  1  0  0  0  0
 25 27  1  0  0  0  0
 26 25  2  0  0  0  0
 27 33  1  0  0  0  0
 28 31  1  0  0  0  0
 29 33  1  0  0  0  0
 29 30  1  0  0  0  0
 30 28  1  0  0  0  0
 32 31  1  0  0  0  0
 33 32  1  0  0  0  0
M  END
>  <MODEL>
4

>  <REMARK>
 VINA RESULT:      -7.4      4.897      7.551
  Name = 
  9 active torsions:
  status: ('A' for Active; 'I' for Inactive)
    1  A    between atoms: C_2  and  C_20
    2  A    between atoms: O_4  and  O_11
    3  A    between atoms: O_4  and  C_23
    4  A    between atoms: C_8  and  O_32
    5  A    between atoms: C_10  and  C_23
    6  A    between atoms: C_10  and  C_33
    7  A    between atoms: O_11  and  O_32
    8  A    between atoms: C_12  and  C_26
    9  A    between atoms: C_14  and  C_20
                            x       y       z     vdW  Elec       q    Type
                         _______ _______ _______ _____ _____    ______ ____

>  <TORSDO>
F 9

$$$$
=
 OpenBabel11062414463D

 33 37  0  0  1  0  0  0  0  0999 V2000
  189.7770  178.0020  139.0820 C   0  0  1  0  0  3  0  0  0  0  0  0
  187.6770  175.8350  136.1250 C   0  0  2  0  0  3  0  0  0  0  0  0
  188.8710  175.2500  136.8490 C   0  0  0  0  0  2  0  0  0  0  0  0
  187.8130  177.3560  136.2310 C   0  0  2  0  0  3  0  0  0  0  0  0
  189.9720  176.2720  136.6640 C   0  0  0  0  0  2  0  0  0  0  0  0
  188.2780  178.1990  140.8990 C   0  0  1  0  0  3  0  0  0  0  0  0
  190.4680  176.8350  141.1110 C   0  0  0  0  0  2  0  0  0  0  0  0
  190.5610  176.7960  139.5640 C   0  0  2  0  0  3  0  0  0  0  0  0
  187.9580  178.7130  138.2900 C   0  0  1  0  0  3  0  0  0  0  0  0
  189.3810  178.5730  137.7210 C   0  0  2  0  0  3  0  0  0  0  0  0
  189.2830  177.6230  136.5130 C   0  0  2  0  0  3  0  0  0  0  0  0
  189.0300  177.0810  141.6570 C   0  0  0  0  0  2  0  0  0  0  0  0
  187.0060  177.9780  137.3650 C   0  0  0  0  0  2  0  0  0  0  0  0
  188.3480  177.8020  139.4450 C   0  0  1  0  0  3  0  0  0  0  0  0
  192.9020  177.6710  139.9050 N   0  0  0  0  0  1  0  0  0  0  0  0
  191.9950  176.8800  139.1480 C   0  0  0  0  0  0  0  0  0  0  0  0
  192.3990  176.2920  138.1080 O   0  0  0  0  0  0  0  0  0  0  0  0
  186.3530  175.2680  136.6340 C   0  0  0  0  0  2  0  0  0  0  0  0
  186.2480  172.9990  137.7340 N   0  0  0  0  0  1  0  0  0  0  0  0
  186.4420  173.2110  135.4280 O   0  0  0  0  0  0  0  0  0  0  0  0
  186.3430  173.7800  136.5480 C   0  0  0  0  0  0  0  0  0  0  0  0
  186.9460  178.2460  141.3190 O   0  0  0  0  0  0  0  0  0  0  0  0
  186.9950  178.0280  142.6170 O   0  0  0  0  0  0  0  0  0  0  0  0
  185.8620  178.5610  143.0960 O   0  0  0  0  0  0  0  0  0  0  0  0
  185.6150  178.6090  144.4660 C   0  0  0  0  0  0  0  0  0  0  0  0
  184.9420  179.5590  144.9420 O   0  0  0  0  0  0  0  0  0  0  0  0
  186.1230  177.5360  145.3740 C   0  0  0  0  0  2  0  0  0  0  0  0
  189.8960  177.2720  147.4690 C   0  0  0  0  0  2  0  0  0  0  0  0
  187.4240  177.6690  147.4860 C   0  0  0  0  0  2  0  0  0  0  0  0
  188.7580  178.0580  148.1160 C   0  0  0  0  0  2  0  0  0  0  0  0
  189.9270  177.5330  145.9660 C   0  0  0  0  0  2  0  0  0  0  0  0
  188.5920  177.1460  145.3380 C   0  0  0  0  0  2  0  0  0  0  0  0
  187.4550  177.9380  145.9850 C   0  0  0  0  0  3  0  0  0  0  0  0
  1 14  1  0  0  0  0
  1  8  1  0  0  0  0
  2  4  1  0  0  0  0
  2 18  1  0  0  0  0
  2  3  1  0  0  0  0
  4 11  1  0  0  0  0
  4 13  1  0  0  0  0
  5  3  1  0  0  0  0
  6 22  1  0  0  0  0
  6 12  1  0  0  0  0
  7 12  1  0  0  0  0
  8  7  1  0  0  0  0
  9 14  1  0  0  0  0
 10  9  1  0  0  0  0
 10  1  1  0  0  0  0
 11  5  1  0  0  0  0
 11 10  1  0  0  0  0
 13  9  1  0  0  0  0
 14  6  1  0  0  0  0
 16  8  1  0  0  0  0
 16 15  1  0  0  0  0
 17 16  2  0  0  0  0
 20 21  2  0  0  0  0
 21 18  1  0  0  0  0
 21 19  1  0  0  0  0
 22 23  1  0  0  0  0
 23 24  1  0  0  0  0
 24 25  1  0  0  0  0
 25 26  2  0  0  0  0
 25 27  1  0  0  0  0
 27 33  1  0  0  0  0
 28 30  1  0  0  0  0
 29 30  1  0  0  0  0
 31 28  1  0  0  0  0
 32 31  1  0  0  0  0
 32 33  1  0  0  0  0
 33 29  1  0  0  0  0
M  END
>  <MODEL>
5

>  <REMARK>
 VINA RESULT:      -7.2      5.577      7.966
  Name = 
  9 active torsions:
  status: ('A' for Active; 'I' for Inactive)
    1  A    between atoms: C_2  and  C_20
    2  A    between atoms: O_4  and  O_11
    3  A    between atoms: O_4  and  C_23
    4  A    between atoms: C_8  and  O_32
    5  A    between atoms: C_10  and  C_23
    6  A    between atoms: C_10  and  C_33
    7  A    between atoms: O_11  and  O_32
    8  A    between atoms: C_12  and  C_26
    9  A    between atoms: C_14  and  C_20
                            x       y       z     vdW  Elec       q    Type
                         _______ _______ _______ _____ _____    ______ ____

>  <TORSDO>
F 9

$$$$
=
 OpenBabel11062414463D

 33 37  0  0  1  0  0  0  0  0999 V2000
  190.8560  177.4740  146.0560 C   0  0  1  0  0  3  0  0  0  0  0  0
  190.1560  176.6960  141.9630 C   0  0  2  0  0  3  0  0  0  0  0  0
  190.4480  175.5870  142.9500 C   0  0  0  0  0  2  0  0  0  0  0  0
  190.7340  177.9760  142.5730 C   0  0  2  0  0  3  0  0  0  0  0  0
  191.7400  175.9990  143.6220 C   0  0  0  0  0  2  0  0  0  0  0  0
  188.7850  178.2240  146.9160 C   0  0  1  0  0  3  0  0  0  0  0  0
  189.8390  175.9980  147.7130 C   0  0  0  0  0  2  0  0  0  0  0  0
  190.7550  176.0160  146.4630 C   0  0  2  0  0  3  0  0  0  0  0  0
  190.1750  178.9860  144.7570 C   0  0  1  0  0  3  0  0  0  0  0  0
  191.5140  178.2460  144.9140 C   0  0  2  0  0  3  0  0  0  0  0  0
  191.7780  177.5220  143.5790 C   0  0  2  0  0  3  0  0  0  0  0  0
  188.5380  176.8410  147.5620 C   0  0  0  0  0  2  0  0  0  0  0  0
  189.7130  178.8280  143.3200 C   0  0  0  0  0  2  0  0  0  0  0  0
  189.5060  177.9290  145.6240 C   0  0  1  0  0  3  0  0  0  0  0  0
  192.8060  175.9880  147.9300 N   0  0  0  0  0  1  0  0  0  0  0  0
  192.0960  175.4580  146.8190 C   0  0  0  0  0  0  0  0  0  0  0  0
  192.6250  174.5530  146.1160 O   0  0  0  0  0  0  0  0  0  0  0  0
  188.6760  176.7690  141.5910 C   0  0  0  0  0  2  0  0  0  0  0  0
  187.6360  178.6300  140.2410 N   0  0  0  0  0  1  0  0  0  0  0  0
  189.0610  177.0810  139.2570 O   0  0  0  0  0  0  0  0  0  0  0  0
  188.4870  177.4920  140.3000 C   0  0  0  0  0  0  0  0  0  0  0  0
  187.5650  178.8510  146.6500 O   0  0  0  0  0  0  0  0  0  0  0  0
  186.6530  177.9500  146.9530 O   0  0  0  0  0  0  0  0  0  0  0  0
  185.6860  178.1230  146.0400 O   0  0  0  0  0  0  0  0  0  0  0  0
  185.9220  177.8770  144.6890 C   0  0  0  0  0  0  0  0  0  0  0  0
  186.5440  176.8380  144.3490 O   0  0  0  0  0  0  0  0  0  0  0  0
  185.4280  178.8210  143.6410 C   0  0  0  0  0  2  0  0  0  0  0  0
  181.4800  179.0150  141.8910 C   0  0  0  0  0  2  0  0  0  0  0  0
  182.9800  179.1540  143.8900 C   0  0  0  0  0  2  0  0  0  0  0  0
  181.5990  178.7420  143.3880 C   0  0  0  0  0  2  0  0  0  0  0  0
  182.5640  178.2580  141.1300 C   0  0  0  0  0  2  0  0  0  0  0  0
  183.9440  178.6690  141.6340 C   0  0  0  0  0  2  0  0  0  0  0  0
  184.0620  178.3900  143.1340 C   0  0  0  0  0  3  0  0  0  0  0  0
  1  8  1  0  0  0  0
  2  4  1  0  0  0  0
  2  3  1  0  0  0  0
  3  5  1  0  0  0  0
  4 13  1  0  0  0  0
  4 11  1  0  0  0  0
  6 12  1  0  0  0  0
  8 16  1  0  0  0  0
  8  7  1  0  0  0  0
  9 10  1  0  0  0  0
  9 14  1  0  0  0  0
 10  1  1  0  0  0  0
 11  5  1  0  0  0  0
 11 10  1  0  0  0  0
 12  7  1  0  0  0  0
 13  9  1  0  0  0  0
 14  1  1  0  0  0  0
 14  6  1  0  0  0  0
 16 15  1  0  0  0  0
 17 16  2  0  0  0  0
 18  2  1  0  0  0  0
 19 21  1  0  0  0  0
 20 21  2  0  0  0  0
 21 18  1  0  0  0  0
 22  6  1  0  0  0  0
 22 23  1  0  0  0  0
 24 23  1  0  0  0  0
 25 24  1  0  0  0  0
 26 25  2  0  0  0  0
 27 25  1  0  0  0  0
 28 30  1  0  0  0  0
 30 29  1  0  0  0  0
 31 32  1  0  0  0  0
 31 28  1  0  0  0  0
 32 33  1  0  0  0  0
 33 27  1  0  0  0  0
 33 29  1  0  0  0  0
M  END
>  <MODEL>
6

>  <REMARK>
 VINA RESULT:      -7.2      4.006      9.235
  Name = 
  9 active torsions:
  status: ('A' for Active; 'I' for Inactive)
    1  A    between atoms: C_2  and  C_20
    2  A    between atoms: O_4  and  O_11
    3  A    between atoms: O_4  and  C_23
    4  A    between atoms: C_8  and  O_32
    5  A    between atoms: C_10  and  C_23
    6  A    between atoms: C_10  and  C_33
    7  A    between atoms: O_11  and  O_32
    8  A    between atoms: C_12  and  C_26
    9  A    between atoms: C_14  and  C_20
                            x       y       z     vdW  Elec       q    Type
                         _______ _______ _______ _____ _____    ______ ____

>  <TORSDO>
F 9

$$$$
=
 OpenBabel11062414463D

 33 37  0  0  1  0  0  0  0  0999 V2000
  189.8300  177.2750  137.0230 C   0  0  1  0  0  3  0  0  0  0  0  0
  186.0000  175.9670  135.8110 C   0  0  2  0  0  3  0  0  0  0  0  0
  187.1430  175.0000  136.0300 C   0  0  0  0  0  2  0  0  0  0  0  0
  186.6380  177.3320  135.5360 C   0  0  2  0  0  3  0  0  0  0  0  0
  188.2700  175.5350  135.1730 C   0  0  0  0  0  2  0  0  0  0  0  0
  189.5550  178.0600  139.2360 C   0  0  1  0  0  3  0  0  0  0  0  0
  191.0170  175.9860  138.7220 C   0  0  0  0  0  2  0  0  0  0  0  0
  190.3270  175.8760  137.3380 C   0  0  2  0  0  3  0  0  0  0  0  0
  188.1840  178.5890  136.9960 C   0  0  1  0  0  3  0  0  0  0  0  0
  189.0230  177.9170  135.8950 C   0  0  2  0  0  3  0  0  0  0  0  0
  188.0570  177.0410  135.0760 C   0  0  2  0  0  3  0  0  0  0  0  0
  190.1870  176.7610  139.7880 C   0  0  0  0  0  2  0  0  0  0  0  0
  186.7270  178.2370  136.7600 C   0  0  0  0  0  2  0  0  0  0  0  0
  188.7790  177.6280  138.0150 C   0  0  1  0  0  3  0  0  0  0  0  0
  192.0070  174.1820  136.5210 N   0  0  0  0  0  1  0  0  0  0  0  0
  191.3200  175.4110  136.3220 C   0  0  0  0  0  0  0  0  0  0  0  0
  191.5890  176.1180  135.3120 O   0  0  0  0  0  0  0  0  0  0  0  0
  184.9910  175.9460  136.9570 C   0  0  0  0  0  2  0  0  0  0  0  0
  183.0890  175.6260  135.3300 N   0  0  0  0  0  1  0  0  0  0  0  0
  182.9500  177.1780  137.0540 O   0  0  0  0  0  0  0  0  0  0  0  0
  183.6240  176.2870  136.4700 C   0  0  0  0  0  0  0  0  0  0  0  0
  188.6870  178.6090  140.1840 O   0  0  0  0  0  0  0  0  0  0  0  0
  188.4770  177.6370  141.0470 O   0  0  0  0  0  0  0  0  0  0  0  0
  188.4310  178.2460  142.2420 O   0  0  0  0  0  0  0  0  0  0  0  0
  189.3230  177.9040  143.2560 C   0  0  0  0  0  0  0  0  0  0  0  0
  190.4710  178.4180  143.2700 O   0  0  0  0  0  0  0  0  0  0  0  0
  188.9260  176.9510  144.3370 C   0  0  0  0  0  2  0  0  0  0  0  0
  187.9340  177.7080  148.4770 C   0  0  0  0  0  2  0  0  0  0  0  0
  187.2470  177.5210  146.0760 C   0  0  0  0  0  2  0  0  0  0  0  0
  187.0030  178.2490  147.3950 C   0  0  0  0  0  2  0  0  0  0  0  0
  189.3890  177.8700  148.0470 C   0  0  0  0  0  2  0  0  0  0  0  0
  189.6320  177.1430  146.7280 C   0  0  0  0  0  2  0  0  0  0  0  0
  188.7000  177.6910  145.6450 C   0  0  0  0  0  3  0  0  0  0  0  0
  1  8  1  0  0  0  0
  1 14  1  0  0  0  0
  2  3  1  0  0  0  0
  2 18  1  0  0  0  0
  4  2  1  0  0  0  0
  4 13  1  0  0  0  0
  5  3  1  0  0  0  0
  6 12  1  0  0  0  0
  6 22  1  0  0  0  0
  7 12  1  0  0  0  0
  8  7  1  0  0  0  0
  9 14  1  0  0  0  0
 10  9  1  0  0  0  0
 10  1  1  0  0  0  0
 11  5  1  0  0  0  0
 11  4  1  0  0  0  0
 11 10  1  0  0  0  0
 13  9  1  0  0  0  0
 14  6  1  0  0  0  0
 16 15  1  0  0  0  0
 16  8  1  0  0  0  0
 17 16  2  0  0  0  0
 19 21  1  0  0  0  0
 21 18  1  0  0  0  0
 21 20  2  0  0  0  0
 22 23  1  0  0  0  0
 23 24  1  0  0  0  0
 24 25  1  0  0  0  0
 25 26  2  0  0  0  0
 25 27  1  0  0  0  0
 27 33  1  0  0  0  0
 29 30  1  0  0  0  0
 30 28  1  0  0  0  0
 31 28  1  0  0  0  0
 32 31  1  0  0  0  0
 33 29  1  0  0  0  0
 33 32  1  0  0  0  0
M  END
>  <MODEL>
7

>  <REMARK>
 VINA RESULT:      -7.0      5.260      7.683
  Name = 
  9 active torsions:
  status: ('A' for Active; 'I' for Inactive)
    1  A    between atoms: C_2  and  C_20
    2  A    between atoms: O_4  and  O_11
    3  A    between atoms: O_4  and  C_23
    4  A    between atoms: C_8  and  O_32
    5  A    between atoms: C_10  and  C_23
    6  A    between atoms: C_10  and  C_33
    7  A    between atoms: O_11  and  O_32
    8  A    between atoms: C_12  and  C_26
    9  A    between atoms: C_14  and  C_20
                            x       y       z     vdW  Elec       q    Type
                         _______ _______ _______ _____ _____    ______ ____

>  <TORSDO>
F 9

$$$$
=
 OpenBabel11062414463D

 33 37  0  0  1  0  0  0  0  0999 V2000
  186.6190  178.5550  138.4470 C   0  0  1  0  0  3  0  0  0  0  0  0
  185.3080  174.9530  136.6730 C   0  0  2  0  0  3  0  0  0  0  0  0
  186.7090  175.1100  137.2230 C   0  0  0  0  0  2  0  0  0  0  0  0
  184.8040  176.3660  136.3700 C   0  0  2  0  0  3  0  0  0  0  0  0
  187.2520  176.3500  136.5460 C   0  0  0  0  0  2  0  0  0  0  0  0
  185.3870  178.7500  140.4560 C   0  0  1  0  0  3  0  0  0  0  0  0
  187.9570  178.4310  140.4850 C   0  0  0  0  0  2  0  0  0  0  0  0
  187.8840  177.9420  139.0160 C   0  0  2  0  0  3  0  0  0  0  0  0
  184.5940  178.2570  137.9450 C   0  0  1  0  0  3  0  0  0  0  0  0
  185.8720  178.4790  137.1170 C   0  0  2  0  0  3  0  0  0  0  0  0
  186.0480  177.2300  136.2330 C   0  0  2  0  0  3  0  0  0  0  0  0
  186.6180  178.2890  141.2700 C   0  0  0  0  0  2  0  0  0  0  0  0
  183.9420  176.9720  137.4720 C   0  0  0  0  0  2  0  0  0  0  0  0
  185.4550  177.9690  139.1670 C   0  0  1  0  0  3  0  0  0  0  0  0
  189.0560  179.6470  137.5730 N   0  0  0  0  0  1  0  0  0  0  0  0
  189.0960  178.4110  138.2740 C   0  0  0  0  0  0  0  0  0  0  0  0
  190.1370  177.7010  138.2270 O   0  0  0  0  0  0  0  0  0  0  0  0
  184.4090  174.1310  137.5940 C   0  0  0  0  0  2  0  0  0  0  0  0
  183.0790  173.3260  135.6060 N   0  0  0  0  0  1  0  0  0  0  0  0
  183.7050  171.8700  137.3060 O   0  0  0  0  0  0  0  0  0  0  0  0
  183.7280  173.0400  136.8400 C   0  0  0  0  0  0  0  0  0  0  0  0
  184.2140  178.4340  141.1450 O   0  0  0  0  0  0  0  0  0  0  0  0
  184.6230  177.8490  142.2520 O   0  0  0  0  0  0  0  0  0  0  0  0
  183.8800  178.3980  143.2240 O   0  0  0  0  0  0  0  0  0  0  0  0
  184.4630  179.1810  144.2180 C   0  0  0  0  0  0  0  0  0  0  0  0
  184.7590  180.3780  143.9690 O   0  0  0  0  0  0  0  0  0  0  0  0
  184.7220  178.6220  145.5800 C   0  0  0  0  0  2  0  0  0  0  0  0
  188.6190  177.1760  146.7690 C   0  0  0  0  0  2  0  0  0  0  0  0
  186.4330  178.2540  147.3420 C   0  0  0  0  0  2  0  0  0  0  0  0
  187.9270  178.2110  147.6520 C   0  0  0  0  0  2  0  0  0  0  0  0
  188.3960  177.5080  145.2970 C   0  0  0  0  0  2  0  0  0  0  0  0
  186.9030  177.5530  144.9880 C   0  0  0  0  0  2  0  0  0  0  0  0
  186.2130  178.5940  145.8720 C   0  0  0  0  0  3  0  0  0  0  0  0
  1  8  1  0  0  0  0
  1 14  1  0  0  0  0
  2  3  1  0  0  0  0
  2 18  1  0  0  0  0
  4  2  1  0  0  0  0
  4 13  1  0  0  0  0
  5  3  1  0  0  0  0
  6 22  1  0  0  0  0
  6 12  1  0  0  0  0
  7 12  1  0  0  0  0
  8  7  1  0  0  0  0
  9 14  1  0  0  0  0
 10  9  1  0  0  0  0
 10  1  1  0  0  0  0
 11  4  1  0  0  0  0
 11  5  1  0  0  0  0
 11 10  1  0  0  0  0
 13  9  1  0  0  0  0
 14  6  1  0  0  0  0
 15 16  1  0  0  0  0
 16  8  1  0  0  0  0
 17 16  2  0  0  0  0
 19 21  1  0  0  0  0
 21 20  2  0  0  0  0
 21 18  1  0  0  0  0
 22 23  1  0  0  0  0
 23 24  1  0  0  0  0
 24 25  1  0  0  0  0
 25 27  1  0  0  0  0
 26 25  2  0  0  0  0
 27 33  1  0  0  0  0
 28 30  1  0  0  0  0
 29 30  1  0  0  0  0
 31 28  1  0  0  0  0
 32 31  1  0  0  0  0
 32 33  1  0  0  0  0
 33 29  1  0  0  0  0
M  END
>  <MODEL>
8

>  <REMARK>
 VINA RESULT:      -7.0      4.282      6.666
  Name = 
  9 active torsions:
  status: ('A' for Active; 'I' for Inactive)
    1  A    between atoms: C_2  and  C_20
    2  A    between atoms: O_4  and  O_11
    3  A    between atoms: O_4  and  C_23
    4  A    between atoms: C_8  and  O_32
    5  A    between atoms: C_10  and  C_23
    6  A    between atoms: C_10  and  C_33
    7  A    between atoms: O_11  and  O_32
    8  A    between atoms: C_12  and  C_26
    9  A    between atoms: C_14  and  C_20
                            x       y       z     vdW  Elec       q    Type
                         _______ _______ _______ _____ _____    ______ ____

>  <TORSDO>
F 9

$$$$
=
 OpenBabel11062414463D

 33 37  0  0  1  0  0  0  0  0999 V2000
  184.4070  177.4620  137.1800 C   0  0  1  0  0  3  0  0  0  0  0  0
  182.5150  177.9930  140.9190 C   0  0  2  0  0  3  0  0  0  0  0  0
  182.6450  176.6300  140.2750 C   0  0  0  0  0  2  0  0  0  0  0  0
  182.6180  179.0160  139.7840 C   0  0  2  0  0  3  0  0  0  0  0  0
  182.0590  176.7990  138.8900 C   0  0  0  0  0  2  0  0  0  0  0  0
  186.6930  177.9340  137.5600 C   0  0  1  0  0  3  0  0  0  0  0  0
  185.9080  175.5580  136.8940 C   0  0  0  0  0  2  0  0  0  0  0  0
  184.4650  175.9500  137.3010 C   0  0  2  0  0  3  0  0  0  0  0  0
  184.4820  179.3090  138.1900 C   0  0  1  0  0  3  0  0  0  0  0  0
  183.3640  178.5400  137.4650 C   0  0  2  0  0  3  0  0  0  0  0  0
  182.2680  178.2600  138.5120 C   0  0  2  0  0  3  0  0  0  0  0  0
  187.0170  176.4220  137.5660 C   0  0  0  0  0  2  0  0  0  0  0  0
  184.0110  179.6070  139.6010 C   0  0  0  0  0  2  0  0  0  0  0  0
  185.3280  178.0440  138.1940 C   0  0  1  0  0  3  0  0  0  0  0  0
  182.7570  174.1590  136.8170 N   0  0  0  0  0  1  0  0  0  0  0  0
  183.4900  175.2940  136.3760 C   0  0  0  0  0  0  0  0  0  0  0  0
  183.3450  175.7080  135.1930 O   0  0  0  0  0  0  0  0  0  0  0  0
  183.5070  178.1950  142.0620 C   0  0  0  0  0  2  0  0  0  0  0  0
  183.7350  179.7020  144.0730 N   0  0  0  0  0  1  0  0  0  0  0  0
  181.6470  179.0440  143.2920 O   0  0  0  0  0  0  0  0  0  0  0  0
  182.9000  179.0020  143.1590 C   0  0  0  0  0  0  0  0  0  0  0  0
  187.6330  178.6260  138.3270 O   0  0  0  0  0  0  0  0  0  0  0  0
  187.3530  178.3030  139.5720 O   0  0  0  0  0  0  0  0  0  0  0  0
  188.4400  178.6620  140.2710 O   0  0  0  0  0  0  0  0  0  0  0  0
  189.3730  177.7130  140.6840 C   0  0  0  0  0  0  0  0  0  0  0  0
  190.5040  177.6770  140.1340 O   0  0  0  0  0  0  0  0  0  0  0  0
  189.0550  176.7520  141.7840 C   0  0  0  0  0  2  0  0  0  0  0  0
  187.7430  177.5070  145.8340 C   0  0  0  0  0  2  0  0  0  0  0  0
  187.2210  177.1380  143.4130 C   0  0  0  0  0  2  0  0  0  0  0  0
  186.8050  177.8710  144.6860 C   0  0  0  0  0  2  0  0  0  0  0  0
  189.1820  177.8590  145.4690 C   0  0  0  0  0  2  0  0  0  0  0  0
  189.5960  177.1280  144.1960 C   0  0  0  0  0  2  0  0  0  0  0  0
  188.6560  177.4990  143.0460 C   0  0  0  0  0  3  0  0  0  0  0  0
  1  8  1  0  0  0  0
  1 10  1  0  0  0  0
  1 14  1  0  0  0  0
  2 18  1  0  0  0  0
  3  2  1  0  0  0  0
  4  2  1  0  0  0  0
  5  3  1  0  0  0  0
  6 12  1  0  0  0  0
  6 14  1  0  0  0  0
  6 22  1  0  0  0  0
  7  8  1  0  0  0  0
  7 12  1  0  0  0  0
  9 14  1  0  0  0  0
  9 13  1  0  0  0  0
 10  9  1  0  0  0  0
 10 11  1  0  0  0  0
 11  5  1  0  0  0  0
 11  4  1  0  0  0  0
 13  4  1  0  0  0  0
 16 15  1  0  0  0  0
 16  8  1  0  0  0  0
 17 16  2  0  0  0  0
 18 21  1  0  0  0  0
 21 20  2  0  0  0  0
 21 19  1  0  0  0  0
 22 23  1  0  0  0  0
 23 24  1  0  0  0  0
 24 25  1  0  0  0  0
 25 27  1  0  0  0  0
 26 25  2  0  0  0  0
 27 33  1  0  0  0  0
 29 30  1  0  0  0  0
 30 28  1  0  0  0  0
 31 28  1  0  0  0  0
 32 31  1  0  0  0  0
 33 29  1  0  0  0  0
 33 32  1  0  0  0  0
M  END
>  <MODEL>
9

>  <REMARK>
 VINA RESULT:      -6.6      3.263      5.090
  Name = 
  9 active torsions:
  status: ('A' for Active; 'I' for Inactive)
    1  A    between atoms: C_2  and  C_20
    2  A    between atoms: O_4  and  O_11
    3  A    between atoms: O_4  and  C_23
    4  A    between atoms: C_8  and  O_32
    5  A    between atoms: C_10  and  C_23
    6  A    between atoms: C_10  and  C_33
    7  A    between atoms: O_11  and  O_32
    8  A    between atoms: C_12  and  C_26
    9  A    between atoms: C_14  and  C_20
                            x       y       z     vdW  Elec       q    Type
                         _______ _______ _______ _____ _____    ______ ____

>  <TORSDO>
F 9

$$$$
