=
 OpenBabel11062411043D

 66 71  0  0  1  0  0  0  0  0999 V2000
  189.9890  177.2990  140.9680 C   0  0  0  0  0  0  0  0  0  0  0  0
  190.5780  176.4490  141.6210 O   0  0  0  0  0  0  0  0  0  0  0  0
  188.3010  178.9690  140.8350 O   0  0  0  0  0  1  0  0  0  0  0  0
  189.2360  178.3760  141.6850 C   0  0  1  0  0  3  0  0  0  0  0  0
  188.5670  177.8240  142.9050 C   0  0  0  0  0  0  0  0  0  0  0  0
  187.6580  177.0150  142.7970 O   0  0  0  0  0  0  0  0  0  0  0  0
  189.0770  178.2000  144.2680 C   0  0  0  0  0  2  0  0  0  0  0  0
  189.2900  177.0000  145.2030 C   0  0  2  0  0  3  0  0  0  0  0  0
  186.9920  178.8270  147.2060 C   0  0  0  0  0  3  0  0  0  0  0  0
  186.2870  176.1780  145.0730 O   0  0  0  0  0  0  0  0  0  0  0  0
  188.2480  176.9130  146.3410 C   0  0  1  0  0  3  0  0  0  0  0  0
  186.1840  178.1930  146.3770 C   0  0  0  0  0  0  0  0  0  0  0  0
  188.2810  178.1390  147.2100 C   0  0  0  0  0  0  0  0  0  0  0  0
  186.8460  177.0190  145.8270 C   0  0  0  0  0  0  0  0  0  0  0  0
  189.1770  178.3410  148.1650 C   0  0  0  0  0  2  0  0  0  0  0  0
  184.7490  178.5460  146.1900 C   0  0  0  0  0  2  0  0  0  0  0  0
  184.3940  178.4900  144.7150 C   0  0  0  0  0  2  0  0  0  0  0  0
  182.9500  178.9090  144.4860 C   0  0  0  0  0  2  0  0  0  0  0  0
  181.4410  178.0090  141.5210 O   0  0  0  0  0  0  0  0  0  0  0  0
  182.6980  179.3150  143.0370 C   0  0  2  0  0  3  0  0  0  0  0  0
  184.3580  179.5440  141.3360 O   0  0  0  0  0  1  0  0  0  0  0  0
  181.2810  178.8810  142.6290 C   0  0  1  0  0  3  0  0  0  0  0  0
  183.1670  177.0250  140.3360 O   0  0  0  0  0  0  0  0  0  0  0  0
  182.7710  177.8160  141.2300 C   0  0  0  0  0  0  0  0  0  0  0  0
  183.6730  178.5980  142.0990 C   0  0  2  0  0  3  0  0  0  0  0  0
  179.3480  180.2200  143.0570 O   0  0  0  0  0  1  0  0  0  0  0  0
  180.4540  180.0880  142.2150 C   0  0  0  0  0  2  0  0  0  0  0  0
  191.1370  175.8990  146.5600 N   0  0  0  0  0  2  0  0  0  0  0  0
  190.7050  176.9490  145.6880 C   0  0  0  0  0  0  0  0  0  0  0  0
  191.5070  177.8530  145.3340 O   0  0  0  0  0  0  0  0  0  0  0  0
  192.5240  175.7490  146.9720 C   0  0  0  0  0  2  0  0  0  0  0  0
  192.6230  175.8170  148.4860 C   0  0  0  0  0  2  0  0  0  0  0  0
  193.6510  177.1070  149.9390 C   0  0  0  0  0  1  0  0  0  0  0  0
  192.7340  177.1450  148.8910 O   0  0  0  0  0  0  0  0  0  0  0  0
  189.9610  177.2200  139.4630 C   0  0  2  0  0  3  0  0  0  0  0  0
  188.7010  176.7860  139.0280 O   0  0  0  0  0  1  0  0  0  0  0  0
  191.0710  176.3210  138.9150 C   0  0  0  0  0  2  0  0  0  0  0  0
  190.9110  176.1000  137.4160 C   0  0  1  0  0  3  0  0  0  0  0  0
  192.2560  176.2220  136.7360 C   0  0  0  0  0  2  0  0  0  0  0  0
  191.6500  174.8430  136.9840 C   0  0  2  0  0  3  0  0  0  0  0  0
  190.9120  174.2890  135.8430 N   0  0  0  0  0  0  0  0  0  0  0  0
  191.7250  173.4180  135.0990 N   0  0  0  0  0  2  0  0  0  0  0  0
  195.5560  173.4320  135.7130 C   0  0  0  0  0  0  0  0  0  0  0  0
  193.1000  173.2630  135.4480 C   0  0  0  0  0  0  0  0  0  0  0  0
  194.3680  174.0960  134.7230 S   0  0  0  0  0  0  0  0  0  0  0  0
  193.5710  172.4590  136.4760 C   0  0  0  0  0  3  0  0  0  0  0  0
  194.9670  172.5520  136.6260 C   0  0  0  0  0  0  0  0  0  0  0  0
  195.2040  171.6680  138.8150 O   0  0  0  0  0  1  0  0  0  0  0  0
  195.7000  171.8100  137.6670 C   0  0  0  0  0  0  0  0  0  0  0  0
  196.9490  171.2750  137.4010 O   0  0  0  0  0  0  0  0  0  0  0  0
  197.4670  174.6100  134.5940 C   0  0  0  0  0  1  0  0  0  0  0  0
  196.9520  173.7270  135.6210 N   0  0  0  0  0  2  0  0  0  0  0  0
  189.8190  173.4940  136.3740 C   0  0  0  0  0  2  0  0  0  0  0  0
  187.2440  177.6800  135.6570 F   0  0  0  0  0  0  0  0  0  0  0  0
  186.1630  172.9490  136.2500 C   0  0  0  0  0  2  0  0  0  0  0  0
  186.3890  176.7990  136.2970 C   0  0  1  0  0  3  0  0  0  0  0  0
  184.9510  177.0890  135.8700 C   0  0  0  0  0  2  0  0  0  0  0  0
  187.5380  172.8020  135.7590 N   0  0  0  0  0  0  0  0  0  0  0  0
  186.7600  175.3580  135.9410 C   0  0  2  0  0  3  0  0  0  0  0  0
  185.7970  174.3860  136.6170 C   0  0  1  0  0  3  0  0  0  0  0  0
  184.3620  174.6740  136.1950 C   0  0  0  0  0  2  0  0  0  0  0  0
  188.5070  173.9240  135.7310 C   0  0  1  0  0  3  0  0  0  0  0  0
  188.0410  175.0670  136.4150 O   0  0  0  0  0  0  0  0  0  0  0  0
  183.9910  176.1120  136.5500 C   0  0  0  0  0  2  0  0  0  0  0  0
  188.1600  170.4540  135.7290 C   0  0  0  0  0  2  0  0  0  0  0  0
  187.8080  171.5640  135.0860 C   0  0  0  0  0  3  0  0  0  0  0  0
  1  2  2  0  0  0  0
  1  4  1  0  0  0  0
  4  3  1  6  0  0  0
  4  5  1  0  0  0  0
  5  7  1  0  0  0  0
  6  5  2  0  0  0  0
  8  7  1  1  0  0  0
  8 29  1  0  0  0  0
  9 13  1  0  0  0  0
 10 14  2  0  0  0  0
 11  8  1  6  0  0  0
 11 13  1  0  0  0  0
 12  9  2  0  0  0  0
 13 15  2  0  0  0  0
 14 11  1  0  0  0  0
 14 12  1  0  0  0  0
 16 12  1  0  0  0  0
 17 16  1  0  0  0  0
 18 17  1  0  0  0  0
 19 22  1  0  0  0  0
 20 18  1  1  0  0  0
 22 27  1  6  0  0  0
 22 20  1  0  0  0  0
 23 24  2  0  0  0  0
 24 19  1  0  0  0  0
 24 25  1  0  0  0  0
 25 21  1  6  0  0  0
 25 20  1  0  0  0  0
 27 26  1  0  0  0  0
 28 31  1  0  0  0  0
 29 28  1  0  0  0  0
 30 29  2  0  0  0  0
 31 32  1  0  0  0  0
 32 34  1  0  0  0  0
 34 33  1  0  0  0  0
 35 36  1  1  0  0  0
 35  1  1  0  0  0  0
 37 35  1  0  0  0  0
 38 37  1  1  0  0  0
 39 40  1  0  0  0  0
 39 38  1  0  0  0  0
 40 41  1  6  0  0  0
 40 38  1  0  0  0  0
 41 53  1  0  0  0  0
 42 44  1  0  0  0  0
 42 41  1  0  0  0  0
 43 47  2  0  0  0  0
 44 46  2  0  0  0  0
 45 44  1  0  0  0  0
 45 43  1  0  0  0  0
 46 47  1  0  0  0  0
 47 49  1  0  0  0  0
 49 48  1  0  0  0  0
 50 49  2  0  0  0  0
 51 52  1  0  0  0  0
 52 43  1  0  0  0  0
 55 60  1  0  0  0  0
 56 54  1  6  0  0  0
 57 56  1  0  0  0  0
 57 64  1  0  0  0  0
 58 55  1  0  0  0  0
 59 56  1  0  0  0  0
 59 63  1  1  0  0  0
 59 60  1  0  0  0  0
 60 61  1  6  0  0  0
 61 64  1  0  0  0  0
 62 58  1  0  0  0  0
 62 53  1  1  0  0  0
 62 63  1  0  0  0  0
 66 65  2  0  0  0  0
 66 58  1  0  0  0  0
M  END
>  <MODEL>
1

>  <REMARK>
 VINA RESULT:      -6.5      0.000      0.000
  Name = 
  25 active torsions:
  status: ('A' for Active; 'I' for Inactive)
    1  A    between atoms: C_2  and  N_20
    2  A    between atoms: C_2  and  C_27
    3  A    between atoms: C_3  and  N_56
    4  A    between atoms: C_4  and  C_23
    5  A    between atoms: C_4  and  C_44
    6  A    between atoms: C_5  and  N_61
    7  A    between atoms: C_6  and  C_34
    8  A    between atoms: C_6  and  C_53
    9  A    between atoms: C_9  and  C_16
   10  A    between atoms: C_11  and  C_53
   11  A    between atoms: C_12  and  C_16
   12  A    between atoms: C_12  and  C_32
   13  A    between atoms: C_14  and  C_44
   14  A    between atoms: C_18  and  C_23
   15  A    between atoms: C_27  and  O_45
   16  A    between atoms: C_29  and  C_62
   17  A    between atoms: C_32  and  C_54
   18  A    between atoms: N_33  and  C_42
   19  A    between atoms: C_34  and  C_54
   20  A    between atoms: C_36  and  C_40
   21  A    between atoms: C_37  and  N_47
   22  A    between atoms: C_37  and  C_52
   23  A    between atoms: C_41  and  C_53
   24  A    between atoms: N_47  and  C_60
   25  A    between atoms: N_47  and  N_61
                            x       y       z     vdW  Elec       q    Type
                         _______ _______ _______ _____ _____    ______ ____

>  <TORSDO>
F 25

$$$$
=
 OpenBabel11062411043D

 66 71  0  0  1  0  0  0  0  0999 V2000
  190.9290  177.0400  141.6940 C   0  0  0  0  0  0  0  0  0  0  0  0
  191.5180  177.9500  142.2620 O   0  0  0  0  0  0  0  0  0  0  0  0
  191.0480  175.7810  143.7080 O   0  0  0  0  0  1  0  0  0  0  0  0
  190.3480  175.9280  142.5100 C   0  0  1  0  0  3  0  0  0  0  0  0
  188.8940  176.1740  142.7730 C   0  0  0  0  0  0  0  0  0  0  0  0
  188.1710  175.2610  143.1400 O   0  0  0  0  0  0  0  0  0  0  0  0
  188.3450  177.5700  142.6700 C   0  0  0  0  0  2  0  0  0  0  0  0
  186.9710  177.7460  143.3340 C   0  0  2  0  0  3  0  0  0  0  0  0
  184.9070  178.2410  140.4840 C   0  0  0  0  0  3  0  0  0  0  0  0
  183.9640  178.3950  143.8230 O   0  0  0  0  0  0  0  0  0  0  0  0
  186.0500  178.7390  142.5900 C   0  0  1  0  0  3  0  0  0  0  0  0
  184.0130  178.0820  141.4420 C   0  0  0  0  0  0  0  0  0  0  0  0
  186.1830  178.5990  141.0990 C   0  0  0  0  0  0  0  0  0  0  0  0
  184.6050  178.3800  142.7380 C   0  0  0  0  0  0  0  0  0  0  0  0
  187.1730  179.1270  140.3950 C   0  0  0  0  0  2  0  0  0  0  0  0
  182.5700  177.8140  141.1880 C   0  0  0  0  0  2  0  0  0  0  0  0
  182.4240  176.8300  140.0410 C   0  0  0  0  0  2  0  0  0  0  0  0
  180.9580  176.5940  139.7090 C   0  0  0  0  0  2  0  0  0  0  0  0
  182.2190  177.1100  136.5440 O   0  0  0  0  0  0  0  0  0  0  0  0
  180.7470  176.3330  138.2210 C   0  0  2  0  0  3  0  0  0  0  0  0
  178.9360  177.1540  136.8970 O   0  0  0  0  0  1  0  0  0  0  0  0
  182.1100  176.1130  137.5470 C   0  0  1  0  0  3  0  0  0  0  0  0
  181.0220  178.9450  135.7990 O   0  0  0  0  0  0  0  0  0  0  0  0
  181.1220  177.9390  136.5480 C   0  0  0  0  0  0  0  0  0  0  0  0
  180.1060  177.5500  137.5470 C   0  0  2  0  0  3  0  0  0  0  0  0
  181.6120  174.7780  135.6280 O   0  0  0  0  0  1  0  0  0  0  0  0
  182.1700  174.7350  136.9070 C   0  0  0  0  0  2  0  0  0  0  0  0
  188.3330  177.7280  145.4810 N   0  0  0  0  0  2  0  0  0  0  0  0
  187.1200  178.0510  144.7920 C   0  0  0  0  0  0  0  0  0  0  0  0
  186.1570  178.5770  145.4090 O   0  0  0  0  0  0  0  0  0  0  0  0
  188.5630  178.0990  146.8690 C   0  0  0  0  0  2  0  0  0  0  0  0
  188.5250  176.8610  147.7480 C   0  0  0  0  0  2  0  0  0  0  0  0
  190.7080  177.0870  147.6080 C   0  0  0  0  0  1  0  0  0  0  0  0
  189.6970  176.1280  147.5780 O   0  0  0  0  0  0  0  0  0  0  0  0
  190.8540  177.0040  140.1900 C   0  0  2  0  0  3  0  0  0  0  0  0
  189.9250  176.0380  139.7780 O   0  0  0  0  0  1  0  0  0  0  0  0
  192.2220  176.7570  139.5530 C   0  0  0  0  0  2  0  0  0  0  0  0
  192.1070  176.6110  138.0410 C   0  0  1  0  0  3  0  0  0  0  0  0
  193.4820  176.6850  137.4150 C   0  0  0  0  0  2  0  0  0  0  0  0
  192.7900  175.3340  137.5770 C   0  0  2  0  0  3  0  0  0  0  0  0
  192.0670  174.8750  136.3860 N   0  0  0  0  0  0  0  0  0  0  0  0
  192.8840  174.0520  135.5930 N   0  0  0  0  0  2  0  0  0  0  0  0
  196.3160  172.8440  136.9380 C   0  0  0  0  0  0  0  0  0  0  0  0
  194.2230  173.7780  136.0040 C   0  0  0  0  0  0  0  0  0  0  0  0
  194.6660  172.5350  137.0450 S   0  0  0  0  0  0  0  0  0  0  0  0
  195.3460  174.4530  135.5470 C   0  0  0  0  0  3  0  0  0  0  0  0
  196.5360  173.9250  136.0780 C   0  0  0  0  0  0  0  0  0  0  0  0
  198.1960  175.6200  136.0760 O   0  0  0  0  0  1  0  0  0  0  0  0
  197.8640  174.4570  135.7250 C   0  0  0  0  0  0  0  0  0  0  0  0
  198.7540  173.6950  134.9890 O   0  0  0  0  0  0  0  0  0  0  0  0
  197.8170  170.8420  137.1200 C   0  0  0  0  0  1  0  0  0  0  0  0
  197.3300  172.1080  137.6290 N   0  0  0  0  0  2  0  0  0  0  0  0
  190.9570  174.0550  136.8390 C   0  0  0  0  0  2  0  0  0  0  0  0
  188.9270  178.4240  135.6330 F   0  0  0  0  0  0  0  0  0  0  0  0
  187.2700  174.0740  137.1280 C   0  0  0  0  0  2  0  0  0  0  0  0
  188.0330  177.8000  136.4870 C   0  0  1  0  0  3  0  0  0  0  0  0
  186.6120  178.2400  136.1430 C   0  0  0  0  0  2  0  0  0  0  0  0
  188.5470  173.6390  136.5520 N   0  0  0  0  0  0  0  0  0  0  0  0
  188.1580  176.2810  136.3550 C   0  0  2  0  0  3  0  0  0  0  0  0
  187.1500  175.5910  137.2700 C   0  0  1  0  0  3  0  0  0  0  0  0
  185.7320  176.0280  136.9300 C   0  0  0  0  0  2  0  0  0  0  0  0
  189.6540  174.5770  136.2460 C   0  0  1  0  0  3  0  0  0  0  0  0
  189.4310  175.8730  136.7610 O   0  0  0  0  0  0  0  0  0  0  0  0
  185.6060  177.5440  137.0620 C   0  0  0  0  0  2  0  0  0  0  0  0
  188.1030  171.9270  134.8870 C   0  0  0  0  0  2  0  0  0  0  0  0
  188.5650  172.2830  136.0830 C   0  0  0  0  0  3  0  0  0  0  0  0
  1  2  2  0  0  0  0
  1  4  1  0  0  0  0
  4  5  1  0  0  0  0
  4  3  1  1  0  0  0
  5  6  2  0  0  0  0
  7  5  1  0  0  0  0
  8  7  1  6  0  0  0
  8 29  1  0  0  0  0
  9 13  1  0  0  0  0
  9 12  2  0  0  0  0
 11 14  1  0  0  0  0
 11  8  1  1  0  0  0
 12 14  1  0  0  0  0
 13 11  1  0  0  0  0
 14 10  2  0  0  0  0
 15 13  2  0  0  0  0
 16 12  1  0  0  0  0
 17 16  1  0  0  0  0
 18 17  1  0  0  0  0
 19 24  1  0  0  0  0
 19 22  1  0  0  0  0
 20 18  1  1  0  0  0
 22 27  1  6  0  0  0
 22 20  1  0  0  0  0
 23 24  2  0  0  0  0
 24 25  1  0  0  0  0
 25 21  1  6  0  0  0
 25 20  1  0  0  0  0
 26 27  1  0  0  0  0
 28 31  1  0  0  0  0
 29 30  2  0  0  0  0
 29 28  1  0  0  0  0
 31 32  1  0  0  0  0
 34 33  1  0  0  0  0
 34 32  1  0  0  0  0
 35 36  1  1  0  0  0
 35  1  1  0  0  0  0
 37 35  1  0  0  0  0
 38 37  1  1  0  0  0
 39 40  1  0  0  0  0
 39 38  1  0  0  0  0
 40 41  1  6  0  0  0
 40 38  1  0  0  0  0
 41 53  1  0  0  0  0
 42 44  1  0  0  0  0
 42 41  1  0  0  0  0
 43 45  1  0  0  0  0
 43 52  1  0  0  0  0
 44 45  1  0  0  0  0
 46 44  2  0  0  0  0
 46 47  1  0  0  0  0
 47 43  2  0  0  0  0
 49 48  1  0  0  0  0
 49 47  1  0  0  0  0
 50 49  2  0  0  0  0
 51 52  1  0  0  0  0
 55 60  1  0  0  0  0
 56 54  1  6  0  0  0
 57 56  1  0  0  0  0
 57 64  1  0  0  0  0
 58 55  1  0  0  0  0
 59 56  1  0  0  0  0
 59 63  1  1  0  0  0
 59 60  1  0  0  0  0
 60 61  1  6  0  0  0
 61 64  1  0  0  0  0
 62 58  1  0  0  0  0
 62 63  1  0  0  0  0
 62 53  1  1  0  0  0
 65 66  2  0  0  0  0
 66 58  1  0  0  0  0
M  END
>  <MODEL>
2

>  <REMARK>
 VINA RESULT:      -5.9      2.369      4.029
  Name = 
  25 active torsions:
  status: ('A' for Active; 'I' for Inactive)
    1  A    between atoms: C_2  and  N_20
    2  A    between atoms: C_2  and  C_27
    3  A    between atoms: C_3  and  N_56
    4  A    between atoms: C_4  and  C_23
    5  A    between atoms: C_4  and  C_44
    6  A    between atoms: C_5  and  N_61
    7  A    between atoms: C_6  and  C_34
    8  A    between atoms: C_6  and  C_53
    9  A    between atoms: C_9  and  C_16
   10  A    between atoms: C_11  and  C_53
   11  A    between atoms: C_12  and  C_16
   12  A    between atoms: C_12  and  C_32
   13  A    between atoms: C_14  and  C_44
   14  A    between atoms: C_18  and  C_23
   15  A    between atoms: C_27  and  O_45
   16  A    between atoms: C_29  and  C_62
   17  A    between atoms: C_32  and  C_54
   18  A    between atoms: N_33  and  C_42
   19  A    between atoms: C_34  and  C_54
   20  A    between atoms: C_36  and  C_40
   21  A    between atoms: C_37  and  N_47
   22  A    between atoms: C_37  and  C_52
   23  A    between atoms: C_41  and  C_53
   24  A    between atoms: N_47  and  C_60
   25  A    between atoms: N_47  and  N_61
                            x       y       z     vdW  Elec       q    Type
                         _______ _______ _______ _____ _____    ______ ____

>  <TORSDO>
F 25

$$$$
=
 OpenBabel11062411043D

 66 71  0  0  1  0  0  0  0  0999 V2000
  191.2510  177.0350  141.7110 C   0  0  0  0  0  0  0  0  0  0  0  0
  191.8040  177.9670  142.2790 O   0  0  0  0  0  0  0  0  0  0  0  0
  191.4230  175.7800  143.7240 O   0  0  0  0  0  1  0  0  0  0  0  0
  190.7180  175.8980  142.5260 C   0  0  1  0  0  3  0  0  0  0  0  0
  189.2550  176.0830  142.7890 C   0  0  0  0  0  0  0  0  0  0  0  0
  188.5780  175.1480  143.1880 O   0  0  0  0  0  0  0  0  0  0  0  0
  188.6400  177.4470  142.6470 C   0  0  0  0  0  2  0  0  0  0  0  0
  187.2980  177.6010  143.3780 C   0  0  2  0  0  3  0  0  0  0  0  0
  185.7550  178.7520  140.3910 C   0  0  0  0  0  3  0  0  0  0  0  0
  184.1860  177.7390  143.3200 O   0  0  0  0  0  0  0  0  0  0  0  0
  186.3770  178.6750  142.7570 C   0  0  1  0  0  3  0  0  0  0  0  0
  184.7370  178.2040  141.0280 C   0  0  0  0  0  0  0  0  0  0  0  0
  186.8100  179.0290  141.3620 C   0  0  0  0  0  0  0  0  0  0  0  0
  185.0130  178.1370  142.4560 C   0  0  0  0  0  0  0  0  0  0  0  0
  187.8090  179.8560  141.0890 C   0  0  0  0  0  2  0  0  0  0  0  0
  183.4360  177.8780  140.3800 C   0  0  0  0  0  2  0  0  0  0  0  0
  182.8590  179.1230  139.7320 C   0  0  0  0  0  2  0  0  0  0  0  0
  181.7130  179.6880  140.5580 C   0  0  0  0  0  2  0  0  0  0  0  0
  178.9740  178.4560  142.2490 O   0  0  0  0  0  0  0  0  0  0  0  0
  181.2390  178.7020  141.6220 C   0  0  2  0  0  3  0  0  0  0  0  0
  181.7900  178.7730  143.9450 O   0  0  0  0  0  1  0  0  0  0  0  0
  179.8760  178.1240  141.2060 C   0  0  1  0  0  3  0  0  0  0  0  0
  178.9830  179.6760  144.2150 O   0  0  0  0  0  0  0  0  0  0  0  0
  179.5960  179.2000  143.2240 C   0  0  0  0  0  0  0  0  0  0  0  0
  181.0330  179.4130  142.9630 C   0  0  2  0  0  3  0  0  0  0  0  0
  179.9570  176.2610  139.7120 O   0  0  0  0  0  1  0  0  0  0  0  0
  179.9610  176.6130  141.0630 C   0  0  0  0  0  2  0  0  0  0  0  0
  188.5130  177.0210  145.5350 N   0  0  0  0  0  2  0  0  0  0  0  0
  187.5120  177.7800  144.8490 C   0  0  0  0  0  0  0  0  0  0  0  0
  186.7860  178.5940  145.4790 O   0  0  0  0  0  0  0  0  0  0  0  0
  188.8280  177.2350  146.9390 C   0  0  0  0  0  2  0  0  0  0  0  0
  190.2420  177.7720  147.0760 C   0  0  0  0  0  2  0  0  0  0  0  0
  191.7760  176.2400  147.4470 C   0  0  0  0  0  1  0  0  0  0  0  0
  190.9010  177.1030  148.1050 O   0  0  0  0  0  0  0  0  0  0  0  0
  191.1740  176.9980  140.2070 C   0  0  2  0  0  3  0  0  0  0  0  0
  190.3330  175.9560  139.7940 O   0  0  0  0  0  1  0  0  0  0  0  0
  192.5570  176.8750  139.5640 C   0  0  0  0  0  2  0  0  0  0  0  0
  192.4520  176.7620  138.0490 C   0  0  1  0  0  3  0  0  0  0  0  0
  193.8370  176.7350  137.4420 C   0  0  0  0  0  2  0  0  0  0  0  0
  193.0370  175.4410  137.5730 C   0  0  2  0  0  3  0  0  0  0  0  0
  192.2960  175.0600  136.3650 N   0  0  0  0  0  0  0  0  0  0  0  0
  193.0950  174.2760  135.5170 N   0  0  0  0  0  2  0  0  0  0  0  0
  196.3280  172.5720  136.8200 C   0  0  0  0  0  0  0  0  0  0  0  0
  194.3750  173.8290  135.9640 C   0  0  0  0  0  0  0  0  0  0  0  0
  194.6650  172.3470  136.7020 S   0  0  0  0  0  0  0  0  0  0  0  0
  195.5630  174.5250  135.7870 C   0  0  0  0  0  3  0  0  0  0  0  0
  196.6730  173.8120  136.2750 C   0  0  0  0  0  0  0  0  0  0  0  0
  198.6180  174.8080  137.1980 O   0  0  0  0  0  1  0  0  0  0  0  0
  198.0490  174.3330  136.1810 C   0  0  0  0  0  0  0  0  0  0  0  0
  198.7240  174.3210  134.9730 O   0  0  0  0  0  0  0  0  0  0  0  0
  198.3850  171.1460  136.6530 C   0  0  0  0  0  1  0  0  0  0  0  0
  197.2390  171.6300  137.3940 N   0  0  0  0  0  2  0  0  0  0  0  0
  191.1810  174.2280  136.7820 C   0  0  0  0  0  2  0  0  0  0  0  0
  189.0000  178.6330  136.0740 F   0  0  0  0  0  0  0  0  0  0  0  0
  187.4880  174.0530  136.8750 C   0  0  0  0  0  2  0  0  0  0  0  0
  188.0990  177.8610  136.7870 C   0  0  1  0  0  3  0  0  0  0  0  0
  186.6760  178.2840  136.4310 C   0  0  0  0  0  2  0  0  0  0  0  0
  188.8110  173.7550  136.3150 N   0  0  0  0  0  0  0  0  0  0  0  0
  188.3030  176.3800  136.4570 C   0  0  2  0  0  3  0  0  0  0  0  0
  187.2890  175.5290  137.2150 C   0  0  1  0  0  3  0  0  0  0  0  0
  185.8680  175.9500  136.8630 C   0  0  0  0  0  2  0  0  0  0  0  0
  189.8840  174.7710  136.1980 C   0  0  1  0  0  3  0  0  0  0  0  0
  189.5740  175.9740  136.8700 O   0  0  0  0  0  0  0  0  0  0  0  0
  185.6630  177.4270  137.1920 C   0  0  0  0  0  2  0  0  0  0  0  0
  188.0910  171.4680  135.9240 C   0  0  0  0  0  2  0  0  0  0  0  0
  188.9160  172.4780  135.6670 C   0  0  0  0  0  3  0  0  0  0  0  0
  1  2  2  0  0  0  0
  1  4  1  0  0  0  0
  4  5  1  0  0  0  0
  4  3  1  1  0  0  0
  5  6  2  0  0  0  0
  7  5  1  0  0  0  0
  8  7  1  6  0  0  0
  8 29  1  0  0  0  0
  9 12  2  0  0  0  0
  9 13  1  0  0  0  0
 11  8  1  6  0  0  0
 12 14  1  0  0  0  0
 13 11  1  0  0  0  0
 14 11  1  0  0  0  0
 14 10  2  0  0  0  0
 15 13  2  0  0  0  0
 16 12  1  0  0  0  0
 17 16  1  0  0  0  0
 17 18  1  0  0  0  0
 19 24  1  0  0  0  0
 20 18  1  6  0  0  0
 20 25  1  0  0  0  0
 22 27  1  1  0  0  0
 22 20  1  0  0  0  0
 22 19  1  0  0  0  0
 24 23  2  0  0  0  0
 25 24  1  0  0  0  0
 25 21  1  1  0  0  0
 26 27  1  0  0  0  0
 28 31  1  0  0  0  0
 29 30  2  0  0  0  0
 29 28  1  0  0  0  0
 31 32  1  0  0  0  0
 32 34  1  0  0  0  0
 33 34  1  0  0  0  0
 35 36  1  1  0  0  0
 35  1  1  0  0  0  0
 37 35  1  0  0  0  0
 38 37  1  1  0  0  0
 39 40  1  0  0  0  0
 39 38  1  0  0  0  0
 40 41  1  6  0  0  0
 40 38  1  0  0  0  0
 41 53  1  0  0  0  0
 42 44  1  0  0  0  0
 42 41  1  0  0  0  0
 43 52  1  0  0  0  0
 44 45  1  0  0  0  0
 45 43  1  0  0  0  0
 46 44  2  0  0  0  0
 46 47  1  0  0  0  0
 47 43  2  0  0  0  0
 49 47  1  0  0  0  0
 49 48  1  0  0  0  0
 50 49  2  0  0  0  0
 51 52  1  0  0  0  0
 55 60  1  0  0  0  0
 56 54  1  6  0  0  0
 57 56  1  0  0  0  0
 57 64  1  0  0  0  0
 58 55  1  0  0  0  0
 59 56  1  0  0  0  0
 59 63  1  1  0  0  0
 59 60  1  0  0  0  0
 60 61  1  6  0  0  0
 61 64  1  0  0  0  0
 62 58  1  0  0  0  0
 62 53  1  1  0  0  0
 62 63  1  0  0  0  0
 66 65  2  0  0  0  0
 66 58  1  0  0  0  0
M  END
>  <MODEL>
3

>  <REMARK>
 VINA RESULT:      -5.3      2.024      3.389
  Name = 
  25 active torsions:
  status: ('A' for Active; 'I' for Inactive)
    1  A    between atoms: C_2  and  N_20
    2  A    between atoms: C_2  and  C_27
    3  A    between atoms: C_3  and  N_56
    4  A    between atoms: C_4  and  C_23
    5  A    between atoms: C_4  and  C_44
    6  A    between atoms: C_5  and  N_61
    7  A    between atoms: C_6  and  C_34
    8  A    between atoms: C_6  and  C_53
    9  A    between atoms: C_9  and  C_16
   10  A    between atoms: C_11  and  C_53
   11  A    between atoms: C_12  and  C_16
   12  A    between atoms: C_12  and  C_32
   13  A    between atoms: C_14  and  C_44
   14  A    between atoms: C_18  and  C_23
   15  A    between atoms: C_27  and  O_45
   16  A    between atoms: C_29  and  C_62
   17  A    between atoms: C_32  and  C_54
   18  A    between atoms: N_33  and  C_42
   19  A    between atoms: C_34  and  C_54
   20  A    between atoms: C_36  and  C_40
   21  A    between atoms: C_37  and  N_47
   22  A    between atoms: C_37  and  C_52
   23  A    between atoms: C_41  and  C_53
   24  A    between atoms: N_47  and  C_60
   25  A    between atoms: N_47  and  N_61
                            x       y       z     vdW  Elec       q    Type
                         _______ _______ _______ _____ _____    ______ ____

>  <TORSDO>
F 25

$$$$
=
 OpenBabel11062411043D

 66 71  0  0  1  0  0  0  0  0999 V2000
  190.3290  177.3880  141.6260 C   0  0  0  0  0  0  0  0  0  0  0  0
  191.0970  176.6090  142.1750 O   0  0  0  0  0  0  0  0  0  0  0  0
  188.4910  178.8960  141.6850 O   0  0  0  0  0  1  0  0  0  0  0  0
  189.4610  178.2690  142.4690 C   0  0  1  0  0  3  0  0  0  0  0  0
  188.8230  177.4790  143.5690 C   0  0  0  0  0  0  0  0  0  0  0  0
  188.4980  176.3160  143.3840 O   0  0  0  0  0  0  0  0  0  0  0  0
  188.6660  178.0930  144.9320 C   0  0  0  0  0  2  0  0  0  0  0  0
  188.1870  177.1040  146.0060 C   0  0  2  0  0  3  0  0  0  0  0  0
  185.5010  179.4310  145.9670 C   0  0  0  0  0  3  0  0  0  0  0  0
  185.3830  176.0600  145.1380 O   0  0  0  0  0  0  0  0  0  0  0  0
  186.7940  177.4450  146.5810 C   0  0  1  0  0  3  0  0  0  0  0  0
  185.0010  178.4280  145.2700 C   0  0  0  0  0  0  0  0  0  0  0  0
  186.6220  178.9280  146.7580 C   0  0  0  0  0  0  0  0  0  0  0  0
  185.7020  177.1930  145.5900 C   0  0  0  0  0  0  0  0  0  0  0  0
  187.1140  179.6090  147.7830 C   0  0  0  0  0  2  0  0  0  0  0  0
  183.7810  178.5390  144.4240 C   0  0  0  0  0  2  0  0  0  0  0  0
  184.0740  179.4030  143.2100 C   0  0  0  0  0  2  0  0  0  0  0  0
  184.3890  178.5450  141.9940 C   0  0  0  0  0  2  0  0  0  0  0  0
  182.9190  177.4520  139.0740 O   0  0  0  0  0  0  0  0  0  0  0  0
  183.5650  178.9570  140.7780 C   0  0  2  0  0  3  0  0  0  0  0  0
  184.2540  180.4720  139.0650 O   0  0  0  0  0  1  0  0  0  0  0  0
  182.6020  177.8170  140.4080 C   0  0  1  0  0  3  0  0  0  0  0  0
  184.4910  177.9920  137.4650 O   0  0  0  0  0  0  0  0  0  0  0  0
  183.9790  178.1870  138.5980 C   0  0  0  0  0  0  0  0  0  0  0  0
  184.4720  179.1880  139.5650 C   0  0  2  0  0  3  0  0  0  0  0  0
  180.2970  177.1990  140.5260 O   0  0  0  0  0  1  0  0  0  0  0  0
  181.1610  178.2950  140.4800 C   0  0  0  0  0  2  0  0  0  0  0  0
  190.6250  176.9850  146.7210 N   0  0  0  0  0  2  0  0  0  0  0  0
  189.2350  176.9150  147.0580 C   0  0  0  0  0  0  0  0  0  0  0  0
  188.8770  176.6730  148.2410 O   0  0  0  0  0  0  0  0  0  0  0  0
  191.6750  176.9110  147.7250 C   0  0  0  0  0  2  0  0  0  0  0  0
  192.0210  175.4590  148.0050 C   0  0  0  0  0  2  0  0  0  0  0  0
  193.4620  176.7260  149.0780 C   0  0  0  0  0  1  0  0  0  0  0  0
  193.1240  175.3930  148.8530 O   0  0  0  0  0  0  0  0  0  0  0  0
  190.2070  177.4060  140.1240 C   0  0  2  0  0  3  0  0  0  0  0  0
  188.9320  176.9690  139.7400 O   0  0  0  0  0  1  0  0  0  0  0  0
  191.2990  176.5750  139.4500 C   0  0  0  0  0  2  0  0  0  0  0  0
  191.1000  176.5250  137.9400 C   0  0  1  0  0  3  0  0  0  0  0  0
  192.4450  176.5270  137.2470 C   0  0  0  0  0  2  0  0  0  0  0  0
  191.6550  175.2270  137.3740 C   0  0  2  0  0  3  0  0  0  0  0  0
  190.8400  174.8940  136.2000 N   0  0  0  0  0  0  0  0  0  0  0  0
  191.6310  174.3230  135.1900 N   0  0  0  0  0  2  0  0  0  0  0  0
  195.1900  173.0550  136.0690 C   0  0  0  0  0  0  0  0  0  0  0  0
  192.8540  173.6720  135.5320 C   0  0  0  0  0  0  0  0  0  0  0  0
  194.3710  174.3940  135.4630 S   0  0  0  0  0  0  0  0  0  0  0  0
  192.9520  172.3820  136.0320 C   0  0  0  0  0  3  0  0  0  0  0  0
  194.2790  172.0290  136.3360 C   0  0  0  0  0  0  0  0  0  0  0  0
  194.0490  169.6740  136.5140 O   0  0  0  0  0  0  0  0  0  0  0  0
  194.6380  170.7170  136.9040 C   0  0  0  0  0  0  0  0  0  0  0  0
  195.6120  170.6160  137.8820 O   0  0  0  0  0  1  0  0  0  0  0  0
  197.4710  172.3310  135.3150 C   0  0  0  0  0  1  0  0  0  0  0  0
  196.6050  172.9890  136.2720 N   0  0  0  0  0  2  0  0  0  0  0  0
  189.8810  173.8820  136.6070 C   0  0  0  0  0  2  0  0  0  0  0  0
  185.4090  172.7140  138.4220 F   0  0  0  0  0  0  0  0  0  0  0  0
  187.0950  175.2720  134.6120 C   0  0  0  0  0  2  0  0  0  0  0  0
  185.2310  172.9560  137.0710 C   0  0  1  0  0  3  0  0  0  0  0  0
  183.8250  173.5040  136.8350 C   0  0  0  0  0  2  0  0  0  0  0  0
  188.2720  175.3670  135.4810 N   0  0  0  0  0  0  0  0  0  0  0  0
  186.2740  173.9630  136.5790 C   0  0  2  0  0  3  0  0  0  0  0  0
  186.0590  174.2590  135.0970 C   0  0  1  0  0  3  0  0  0  0  0  0
  184.6560  174.8030  134.8580 C   0  0  0  0  0  2  0  0  0  0  0  0
  188.4830  174.4830  136.6530 C   0  0  1  0  0  3  0  0  0  0  0  0
  187.5540  173.4200  136.7090 O   0  0  0  0  0  0  0  0  0  0  0  0
  183.6150  173.8000  135.3490 C   0  0  0  0  0  2  0  0  0  0  0  0
  188.5990  177.7650  135.2730 C   0  0  0  0  0  2  0  0  0  0  0  0
  189.0880  176.5280  135.2660 C   0  0  0  0  0  3  0  0  0  0  0  0
  1  2  2  0  0  0  0
  1  4  1  0  0  0  0
  4  3  1  6  0  0  0
  4  5  1  0  0  0  0
  5  7  1  0  0  0  0
  6  5  2  0  0  0  0
  8  7  1  6  0  0  0
  8 29  1  0  0  0  0
  9 13  1  0  0  0  0
 10 14  2  0  0  0  0
 11  8  1  6  0  0  0
 11 13  1  0  0  0  0
 12 14  1  0  0  0  0
 12  9  2  0  0  0  0
 13 15  2  0  0  0  0
 14 11  1  0  0  0  0
 16 12  1  0  0  0  0
 17 16  1  0  0  0  0
 18 17  1  0  0  0  0
 19 22  1  0  0  0  0
 20 18  1  1  0  0  0
 22 27  1  6  0  0  0
 22 20  1  0  0  0  0
 23 24  2  0  0  0  0
 24 19  1  0  0  0  0
 24 25  1  0  0  0  0
 25 21  1  6  0  0  0
 25 20  1  0  0  0  0
 27 26  1  0  0  0  0
 28 29  1  0  0  0  0
 28 31  1  0  0  0  0
 29 30  2  0  0  0  0
 31 32  1  0  0  0  0
 32 34  1  0  0  0  0
 34 33  1  0  0  0  0
 35 36  1  1  0  0  0
 35  1  1  0  0  0  0
 37 35  1  0  0  0  0
 38 37  1  1  0  0  0
 39 40  1  0  0  0  0
 39 38  1  0  0  0  0
 40 41  1  6  0  0  0
 40 38  1  0  0  0  0
 41 53  1  0  0  0  0
 42 44  1  0  0  0  0
 42 41  1  0  0  0  0
 43 52  1  0  0  0  0
 43 47  2  0  0  0  0
 44 46  2  0  0  0  0
 45 44  1  0  0  0  0
 45 43  1  0  0  0  0
 46 47  1  0  0  0  0
 47 49  1  0  0  0  0
 48 49  2  0  0  0  0
 49 50  1  0  0  0  0
 51 52  1  0  0  0  0
 55 58  1  0  0  0  0
 56 54  1  1  0  0  0
 57 56  1  0  0  0  0
 58 62  1  0  0  0  0
 59 63  1  6  0  0  0
 59 56  1  0  0  0  0
 60 55  1  1  0  0  0
 60 59  1  0  0  0  0
 61 60  1  0  0  0  0
 61 64  1  0  0  0  0
 62 53  1  6  0  0  0
 62 63  1  0  0  0  0
 64 57  1  0  0  0  0
 66 65  2  0  0  0  0
 66 58  1  0  0  0  0
M  END
>  <MODEL>
4

>  <REMARK>
 VINA RESULT:      -4.6      1.740      2.347
  Name = 
  25 active torsions:
  status: ('A' for Active; 'I' for Inactive)
    1  A    between atoms: C_2  and  N_20
    2  A    between atoms: C_2  and  C_27
    3  A    between atoms: C_3  and  N_56
    4  A    between atoms: C_4  and  C_23
    5  A    between atoms: C_4  and  C_44
    6  A    between atoms: C_5  and  N_61
    7  A    between atoms: C_6  and  C_34
    8  A    between atoms: C_6  and  C_53
    9  A    between atoms: C_9  and  C_16
   10  A    between atoms: C_11  and  C_53
   11  A    between atoms: C_12  and  C_16
   12  A    between atoms: C_12  and  C_32
   13  A    between atoms: C_14  and  C_44
   14  A    between atoms: C_18  and  C_23
   15  A    between atoms: C_27  and  O_45
   16  A    between atoms: C_29  and  C_62
   17  A    between atoms: C_32  and  C_54
   18  A    between atoms: N_33  and  C_42
   19  A    between atoms: C_34  and  C_54
   20  A    between atoms: C_36  and  C_40
   21  A    between atoms: C_37  and  N_47
   22  A    between atoms: C_37  and  C_52
   23  A    between atoms: C_41  and  C_53
   24  A    between atoms: N_47  and  C_60
   25  A    between atoms: N_47  and  N_61
                            x       y       z     vdW  Elec       q    Type
                         _______ _______ _______ _____ _____    ______ ____

>  <TORSDO>
F 25

$$$$
=
 OpenBabel11062411043D

 66 71  0  0  1  0  0  0  0  0999 V2000
  186.3530  177.0110  136.1020 C   0  0  0  0  0  0  0  0  0  0  0  0
  185.1920  177.3890  136.0150 O   0  0  0  0  0  0  0  0  0  0  0  0
  187.7980  178.2580  134.6840 O   0  0  0  0  0  1  0  0  0  0  0  0
  187.2110  177.0060  134.8760 C   0  0  1  0  0  3  0  0  0  0  0  0
  188.2580  175.9390  134.9730 C   0  0  0  0  0  0  0  0  0  0  0  0
  189.4350  176.2410  135.0950 O   0  0  0  0  0  0  0  0  0  0  0  0
  187.8460  174.4940  135.0100 C   0  0  0  0  0  2  0  0  0  0  0  0
  187.9050  173.8700  136.4120 C   0  0  2  0  0  3  0  0  0  0  0  0
  190.9240  172.6490  134.9910 C   0  0  0  0  0  3  0  0  0  0  0  0
  190.5620  174.4780  137.9210 O   0  0  0  0  0  0  0  0  0  0  0  0
  189.1360  172.9630  136.6320 C   0  0  1  0  0  3  0  0  0  0  0  0
  191.3730  173.5230  135.8720 C   0  0  0  0  0  0  0  0  0  0  0  0
  189.5560  172.2890  135.3560 C   0  0  0  0  0  0  0  0  0  0  0  0
  190.3750  173.7560  136.9050 C   0  0  0  0  0  0  0  0  0  0  0  0
  188.9620  171.2130  134.8610 C   0  0  0  0  0  2  0  0  0  0  0  0
  192.7700  174.0410  135.8820 C   0  0  0  0  0  2  0  0  0  0  0  0
  193.3470  173.9320  137.2820 C   0  0  0  0  0  2  0  0  0  0  0  0
  194.5750  174.8180  137.4350 C   0  0  0  0  0  2  0  0  0  0  0  0
  197.5530  173.1870  138.0230 O   0  0  0  0  0  0  0  0  0  0  0  0
  195.8090  174.1960  136.7890 C   0  0  2  0  0  3  0  0  0  0  0  0
  197.4780  175.3650  135.5430 O   0  0  0  0  0  1  0  0  0  0  0  0
  196.2240  172.9490  137.5860 C   0  0  1  0  0  3  0  0  0  0  0  0
  199.1060  174.9010  137.9730 O   0  0  0  0  0  0  0  0  0  0  0  0
  197.9870  174.4340  137.6380 C   0  0  0  0  0  0  0  0  0  0  0  0
  196.9900  175.1710  136.8360 C   0  0  2  0  0  3  0  0  0  0  0  0
  196.6330  170.6010  137.4130 O   0  0  0  0  0  1  0  0  0  0  0  0
  196.1900  171.7160  136.6980 C   0  0  0  0  0  2  0  0  0  0  0  0
  185.5050  173.2540  135.8390 N   0  0  0  0  0  2  0  0  0  0  0  0
  186.6070  173.2040  136.7520 C   0  0  0  0  0  0  0  0  0  0  0  0
  186.4920  172.6170  137.8590 O   0  0  0  0  0  0  0  0  0  0  0  0
  184.2620  172.5360  136.0790 C   0  0  0  0  0  2  0  0  0  0  0  0
  183.7910  171.8760  134.7950 C   0  0  0  0  0  2  0  0  0  0  0  0
  182.2790  171.2350  136.2570 C   0  0  0  0  0  1  0  0  0  0  0  0
  182.9290  170.8240  135.0950 O   0  0  0  0  0  0  0  0  0  0  0  0
  186.8870  176.4880  137.4100 C   0  0  2  0  0  3  0  0  0  0  0  0
  185.8350  176.2890  138.3140 O   0  0  0  0  0  1  0  0  0  0  0  0
  187.9540  177.4090  138.0040 C   0  0  0  0  0  2  0  0  0  0  0  0
  187.3240  178.5080  138.8510 C   0  0  1  0  0  3  0  0  0  0  0  0
  186.3260  179.2840  138.0210 C   0  0  0  0  0  2  0  0  0  0  0  0
  185.8360  178.2510  139.0320 C   0  0  2  0  0  3  0  0  0  0  0  0
  185.4660  178.8080  140.3390 N   0  0  0  0  0  0  0  0  0  0  0  0
  184.6000  177.9390  141.0230 N   0  0  0  0  0  2  0  0  0  0  0  0
  180.7930  177.9530  140.2760 C   0  0  0  0  0  0  0  0  0  0  0  0
  183.1880  178.0950  140.8870 C   0  0  0  0  0  0  0  0  0  0  0  0
  182.2540  177.3380  139.7110 S   0  0  0  0  0  0  0  0  0  0  0  0
  182.3850  178.8330  141.7440 C   0  0  0  0  0  3  0  0  0  0  0  0
  181.0240  178.7550  141.3970 C   0  0  0  0  0  0  0  0  0  0  0  0
  178.9770  178.7900  142.5960 O   0  0  0  0  0  1  0  0  0  0  0  0
  179.9710  179.4360  142.1720 C   0  0  0  0  0  0  0  0  0  0  0  0
  180.0530  180.7940  142.4270 O   0  0  0  0  0  0  0  0  0  0  0  0
  179.0470  176.3340  139.4870 C   0  0  0  0  0  1  0  0  0  0  0  0
  179.5160  177.6900  139.6870 N   0  0  0  0  0  2  0  0  0  0  0  0
  186.6790  178.9050  141.1310 C   0  0  0  0  0  2  0  0  0  0  0  0
  183.4850  178.6010  144.9220 F   0  0  0  0  0  0  0  0  0  0  0  0
  188.2830  177.8920  144.3050 C   0  0  0  0  0  2  0  0  0  0  0  0
  184.7310  178.8340  145.4780 C   0  0  1  0  0  3  0  0  0  0  0  0
  184.7980  178.1870  146.8600 C   0  0  0  0  0  2  0  0  0  0  0  0
  187.8490  177.6830  142.9200 N   0  0  0  0  0  0  0  0  0  0  0  0
  185.8230  178.2550  144.5760 C   0  0  2  0  0  3  0  0  0  0  0  0
  187.1960  178.4800  145.2040 C   0  0  1  0  0  3  0  0  0  0  0  0
  187.2650  177.8380  146.5830 C   0  0  0  0  0  2  0  0  0  0  0  0
  186.5190  178.1090  142.4200 C   0  0  1  0  0  3  0  0  0  0  0  0
  185.8190  178.9150  143.3450 O   0  0  0  0  0  0  0  0  0  0  0  0
  186.1760  178.4150  147.4840 C   0  0  0  0  0  2  0  0  0  0  0  0
  189.6530  176.0730  142.6870 C   0  0  0  0  0  2  0  0  0  0  0  0
  188.6990  176.8260  142.1450 C   0  0  0  0  0  3  0  0  0  0  0  0
  1 35  1  0  0  0  0
  2  1  2  0  0  0  0
  4  3  1  1  0  0  0
  4  5  1  0  0  0  0
  4  1  1  0  0  0  0
  5  7  1  0  0  0  0
  5  6  2  0  0  0  0
  8  7  1  6  0  0  0
  8 29  1  0  0  0  0
  9 13  1  0  0  0  0
  9 12  2  0  0  0  0
 11  8  1  6  0  0  0
 11 14  1  0  0  0  0
 12 16  1  0  0  0  0
 12 14  1  0  0  0  0
 13 11  1  0  0  0  0
 14 10  2  0  0  0  0
 15 13  2  0  0  0  0
 16 17  1  0  0  0  0
 17 18  1  0  0  0  0
 20 25  1  0  0  0  0
 20 18  1  1  0  0  0
 20 22  1  0  0  0  0
 22 27  1  6  0  0  0
 22 19  1  0  0  0  0
 24 23  2  0  0  0  0
 24 19  1  0  0  0  0
 25 21  1  6  0  0  0
 25 24  1  0  0  0  0
 27 26  1  0  0  0  0
 28 31  1  0  0  0  0
 28 29  1  0  0  0  0
 29 30  2  0  0  0  0
 32 34  1  0  0  0  0
 32 31  1  0  0  0  0
 34 33  1  0  0  0  0
 35 37  1  0  0  0  0
 35 36  1  1  0  0  0
 38 37  1  6  0  0  0
 38 40  1  0  0  0  0
 39 38  1  0  0  0  0
 39 40  1  0  0  0  0
 40 41  1  1  0  0  0
 41 42  1  0  0  0  0
 41 53  1  0  0  0  0
 43 47  2  0  0  0  0
 44 42  1  0  0  0  0
 44 46  2  0  0  0  0
 45 43  1  0  0  0  0
 45 44  1  0  0  0  0
 47 46  1  0  0  0  0
 47 49  1  0  0  0  0
 49 50  2  0  0  0  0
 49 48  1  0  0  0  0
 51 52  1  0  0  0  0
 52 43  1  0  0  0  0
 56 54  1  6  0  0  0
 56 57  1  0  0  0  0
 57 64  1  0  0  0  0
 58 55  1  0  0  0  0
 59 63  1  6  0  0  0
 59 60  1  0  0  0  0
 59 56  1  0  0  0  0
 60 55  1  6  0  0  0
 60 61  1  0  0  0  0
 61 64  1  0  0  0  0
 62 53  1  6  0  0  0
 62 58  1  0  0  0  0
 62 63  1  0  0  0  0
 66 65  2  0  0  0  0
 66 58  1  0  0  0  0
M  END
>  <MODEL>
5

>  <REMARK>
 VINA RESULT:      -4.3      3.815     12.664
  Name = 
  25 active torsions:
  status: ('A' for Active; 'I' for Inactive)
    1  A    between atoms: C_2  and  N_20
    2  A    between atoms: C_2  and  C_27
    3  A    between atoms: C_3  and  N_56
    4  A    between atoms: C_4  and  C_23
    5  A    between atoms: C_4  and  C_44
    6  A    between atoms: C_5  and  N_61
    7  A    between atoms: C_6  and  C_34
    8  A    between atoms: C_6  and  C_53
    9  A    between atoms: C_9  and  C_16
   10  A    between atoms: C_11  and  C_53
   11  A    between atoms: C_12  and  C_16
   12  A    between atoms: C_12  and  C_32
   13  A    between atoms: C_14  and  C_44
   14  A    between atoms: C_18  and  C_23
   15  A    between atoms: C_27  and  O_45
   16  A    between atoms: C_29  and  C_62
   17  A    between atoms: C_32  and  C_54
   18  A    between atoms: N_33  and  C_42
   19  A    between atoms: C_34  and  C_54
   20  A    between atoms: C_36  and  C_40
   21  A    between atoms: C_37  and  N_47
   22  A    between atoms: C_37  and  C_52
   23  A    between atoms: C_41  and  C_53
   24  A    between atoms: N_47  and  C_60
   25  A    between atoms: N_47  and  N_61
                            x       y       z     vdW  Elec       q    Type
                         _______ _______ _______ _____ _____    ______ ____

>  <TORSDO>
F 25

$$$$
=
 OpenBabel11062411043D

 66 71  0  0  1  0  0  0  0  0999 V2000
  190.8720  177.0450  141.9220 C   0  0  0  0  0  0  0  0  0  0  0  0
  191.6060  177.8350  142.5000 O   0  0  0  0  0  0  0  0  0  0  0  0
  191.0350  175.6150  143.8150 O   0  0  0  0  0  1  0  0  0  0  0  0
  190.2590  175.9190  142.6960 C   0  0  1  0  0  3  0  0  0  0  0  0
  188.8580  176.2630  143.1000 C   0  0  0  0  0  0  0  0  0  0  0  0
  188.0350  175.3790  143.2780 O   0  0  0  0  0  0  0  0  0  0  0  0
  188.4930  177.6950  143.3750 C   0  0  0  0  0  2  0  0  0  0  0  0
  187.2980  177.8570  144.3260 C   0  0  2  0  0  3  0  0  0  0  0  0
  184.5020  178.8400  142.3650 C   0  0  0  0  0  3  0  0  0  0  0  0
  184.7940  178.9490  145.8250 O   0  0  0  0  0  0  0  0  0  0  0  0
  186.3620  179.0260  143.9460 C   0  0  1  0  0  3  0  0  0  0  0  0
  183.9750  178.7710  143.5740 C   0  0  0  0  0  0  0  0  0  0  0  0
  185.9520  178.9530  142.5010 C   0  0  0  0  0  0  0  0  0  0  0  0
  185.0150  178.8950  144.5850 C   0  0  0  0  0  0  0  0  0  0  0  0
  186.7180  179.3560  141.4980 C   0  0  0  0  0  2  0  0  0  0  0  0
  182.5090  178.7520  143.8350 C   0  0  0  0  0  2  0  0  0  0  0  0
  181.7560  179.1080  142.5660 C   0  0  0  0  0  2  0  0  0  0  0  0
  181.4670  177.8660  141.7360 C   0  0  0  0  0  2  0  0  0  0  0  0
  181.4270  180.3850  139.3850 O   0  0  0  0  0  0  0  0  0  0  0  0
  181.1960  178.2080  140.2740 C   0  0  2  0  0  3  0  0  0  0  0  0
  179.0830  178.0700  139.1700 O   0  0  0  0  0  1  0  0  0  0  0  0
  182.2010  179.2750  139.8090 C   0  0  1  0  0  3  0  0  0  0  0  0
  179.2030  181.0230  139.3410 O   0  0  0  0  0  0  0  0  0  0  0  0
  180.0840  180.1550  139.5740 C   0  0  0  0  0  0  0  0  0  0  0  0
  179.7970  178.8110  140.1120 C   0  0  2  0  0  3  0  0  0  0  0  0
  184.3110  179.3050  138.6880 O   0  0  0  0  0  1  0  0  0  0  0  0
  183.0290  178.7530  138.6460 C   0  0  0  0  0  2  0  0  0  0  0  0
  187.8210  176.7030  146.5310 N   0  0  0  0  0  2  0  0  0  0  0  0
  187.7560  177.9020  145.7510 C   0  0  0  0  0  0  0  0  0  0  0  0
  188.0640  179.0110  146.2600 O   0  0  0  0  0  0  0  0  0  0  0  0
  188.3570  176.6810  147.8830 C   0  0  0  0  0  2  0  0  0  0  0  0
  187.9540  177.9470  148.6190 C   0  0  0  0  0  2  0  0  0  0  0  0
  190.0680  178.2190  149.1590 C   0  0  0  0  0  1  0  0  0  0  0  0
  188.9920  178.8730  148.5630 O   0  0  0  0  0  0  0  0  0  0  0  0
  190.6460  177.1610  140.4370 C   0  0  2  0  0  3  0  0  0  0  0  0
  189.9690  176.0290  139.9630 O   0  0  0  0  0  1  0  0  0  0  0  0
  191.9530  177.3790  139.6730 C   0  0  0  0  0  2  0  0  0  0  0  0
  191.7860  177.0610  138.1930 C   0  0  1  0  0  3  0  0  0  0  0  0
  193.0460  176.4110  137.6640 C   0  0  0  0  0  2  0  0  0  0  0  0
  191.8160  175.5580  137.9650 C   0  0  2  0  0  3  0  0  0  0  0  0
  190.9630  175.2880  136.8020 N   0  0  0  0  0  0  0  0  0  0  0  0
  191.7110  174.7230  135.7560 N   0  0  0  0  0  2  0  0  0  0  0  0
  193.8920  171.5370  136.1390 C   0  0  0  0  0  0  0  0  0  0  0  0
  192.6220  173.6590  136.0330 C   0  0  0  0  0  0  0  0  0  0  0  0
  192.4450  172.0830  135.4770 S   0  0  0  0  0  0  0  0  0  0  0  0
  193.8090  173.7960  136.7370 C   0  0  0  0  0  3  0  0  0  0  0  0
  194.5320  172.5900  136.8000 C   0  0  0  0  0  0  0  0  0  0  0  0
  195.9040  172.1050  138.6730 O   0  0  0  0  0  1  0  0  0  0  0  0
  195.8380  172.4860  137.4750 C   0  0  0  0  0  0  0  0  0  0  0  0
  197.0030  172.8210  136.8070 O   0  0  0  0  0  0  0  0  0  0  0  0
  194.7780  169.6370  134.7610 C   0  0  0  0  0  1  0  0  0  0  0  0
  194.3810  170.1970  136.0370 N   0  0  0  0  0  2  0  0  0  0  0  0
  189.9800  174.2970  137.2010 C   0  0  0  0  0  2  0  0  0  0  0  0
  187.2370  177.9110  135.1820 F   0  0  0  0  0  0  0  0  0  0  0  0
  186.4150  173.3850  136.8370 C   0  0  0  0  0  2  0  0  0  0  0  0
  186.3700  177.1340  135.9310 C   0  0  1  0  0  3  0  0  0  0  0  0
  184.9810  177.1700  135.2960 C   0  0  0  0  0  2  0  0  0  0  0  0
  187.8470  173.2570  136.5460 N   0  0  0  0  0  0  0  0  0  0  0  0
  186.8800  175.6920  135.9920 C   0  0  2  0  0  3  0  0  0  0  0  0
  185.9080  174.8250  136.7870 C   0  0  1  0  0  3  0  0  0  0  0  0
  184.5210  174.8610  136.1580 C   0  0  0  0  0  2  0  0  0  0  0  0
  188.7340  174.4270  136.3360 C   0  0  1  0  0  3  0  0  0  0  0  0
  188.1080  175.6520  136.6560 O   0  0  0  0  0  0  0  0  0  0  0  0
  184.0120  176.2990  136.0970 C   0  0  0  0  0  2  0  0  0  0  0  0
  187.4850  171.0120  135.6940 C   0  0  0  0  0  2  0  0  0  0  0  0
  188.2830  171.9250  136.2400 C   0  0  0  0  0  3  0  0  0  0  0  0
  1  2  2  0  0  0  0
  1  4  1  0  0  0  0
  4  5  1  0  0  0  0
  4  3  1  1  0  0  0
  5  6  2  0  0  0  0
  5  7  1  0  0  0  0
  8  7  1  6  0  0  0
  8 29  1  0  0  0  0
  9 13  1  0  0  0  0
  9 12  2  0  0  0  0
 11  8  1  1  0  0  0
 11 14  1  0  0  0  0
 12 16  1  0  0  0  0
 12 14  1  0  0  0  0
 13 11  1  0  0  0  0
 14 10  2  0  0  0  0
 15 13  2  0  0  0  0
 17 16  1  0  0  0  0
 18 17  1  0  0  0  0
 19 24  1  0  0  0  0
 19 22  1  0  0  0  0
 20 18  1  1  0  0  0
 22 27  1  6  0  0  0
 22 20  1  0  0  0  0
 23 24  2  0  0  0  0
 24 25  1  0  0  0  0
 25 21  1  6  0  0  0
 25 20  1  0  0  0  0
 27 26  1  0  0  0  0
 28 31  1  0  0  0  0
 29 30  2  0  0  0  0
 29 28  1  0  0  0  0
 31 32  1  0  0  0  0
 34 32  1  0  0  0  0
 34 33  1  0  0  0  0
 35 36  1  6  0  0  0
 35  1  1  0  0  0  0
 37 35  1  0  0  0  0
 38 37  1  1  0  0  0
 39 40  1  0  0  0  0
 39 38  1  0  0  0  0
 40 41  1  6  0  0  0
 40 38  1  0  0  0  0
 41 53  1  0  0  0  0
 42 44  1  0  0  0  0
 42 41  1  0  0  0  0
 43 47  2  0  0  0  0
 44 46  2  0  0  0  0
 45 44  1  0  0  0  0
 45 43  1  0  0  0  0
 46 47  1  0  0  0  0
 47 49  1  0  0  0  0
 49 48  1  0  0  0  0
 50 49  2  0  0  0  0
 51 52  1  0  0  0  0
 52 43  1  0  0  0  0
 56 54  1  6  0  0  0
 56 59  1  0  0  0  0
 57 56  1  0  0  0  0
 57 64  1  0  0  0  0
 58 55  1  0  0  0  0
 59 63  1  1  0  0  0
 59 60  1  0  0  0  0
 60 61  1  6  0  0  0
 60 55  1  0  0  0  0
 62 58  1  0  0  0  0
 62 63  1  0  0  0  0
 62 53  1  1  0  0  0
 64 61  1  0  0  0  0
 65 66  2  0  0  0  0
 66 58  1  0  0  0  0
M  END
>  <MODEL>
6

>  <REMARK>
 VINA RESULT:      -4.2      1.997      3.138
  Name = 
  25 active torsions:
  status: ('A' for Active; 'I' for Inactive)
    1  A    between atoms: C_2  and  N_20
    2  A    between atoms: C_2  and  C_27
    3  A    between atoms: C_3  and  N_56
    4  A    between atoms: C_4  and  C_23
    5  A    between atoms: C_4  and  C_44
    6  A    between atoms: C_5  and  N_61
    7  A    between atoms: C_6  and  C_34
    8  A    between atoms: C_6  and  C_53
    9  A    between atoms: C_9  and  C_16
   10  A    between atoms: C_11  and  C_53
   11  A    between atoms: C_12  and  C_16
   12  A    between atoms: C_12  and  C_32
   13  A    between atoms: C_14  and  C_44
   14  A    between atoms: C_18  and  C_23
   15  A    between atoms: C_27  and  O_45
   16  A    between atoms: C_29  and  C_62
   17  A    between atoms: C_32  and  C_54
   18  A    between atoms: N_33  and  C_42
   19  A    between atoms: C_34  and  C_54
   20  A    between atoms: C_36  and  C_40
   21  A    between atoms: C_37  and  N_47
   22  A    between atoms: C_37  and  C_52
   23  A    between atoms: C_41  and  C_53
   24  A    between atoms: N_47  and  C_60
   25  A    between atoms: N_47  and  N_61
                            x       y       z     vdW  Elec       q    Type
                         _______ _______ _______ _____ _____    ______ ____

>  <TORSDO>
F 25

$$$$
=
 OpenBabel11062411043D

 66 71  0  0  1  0  0  0  0  0999 V2000
  189.7300  176.8380  141.4320 C   0  0  0  0  0  0  0  0  0  0  0  0
  188.8080  176.3560  142.0750 O   0  0  0  0  0  0  0  0  0  0  0  0
  191.9920  177.5350  141.6610 O   0  0  0  0  0  1  0  0  0  0  0  0
  191.1350  176.4390  141.7620 C   0  0  1  0  0  3  0  0  0  0  0  0
  191.2010  175.8390  143.1330 C   0  0  0  0  0  0  0  0  0  0  0  0
  190.8730  174.6760  143.3120 O   0  0  0  0  0  0  0  0  0  0  0  0
  191.7580  176.6460  144.2720 C   0  0  0  0  0  2  0  0  0  0  0  0
  191.0310  176.4190  145.6050 C   0  0  2  0  0  3  0  0  0  0  0  0
  188.0190  178.1970  144.9790 C   0  0  0  0  0  3  0  0  0  0  0  0
  188.9520  176.5990  147.9190 O   0  0  0  0  0  0  0  0  0  0  0  0
  190.1470  177.6100  146.0360 C   0  0  1  0  0  3  0  0  0  0  0  0
  187.7190  177.5370  146.0820 C   0  0  0  0  0  0  0  0  0  0  0  0
  189.4740  178.2490  144.8540 C   0  0  0  0  0  0  0  0  0  0  0  0
  188.9340  177.1640  146.7920 C   0  0  0  0  0  0  0  0  0  0  0  0
  190.0730  179.1040  144.0390 C   0  0  0  0  0  2  0  0  0  0  0  0
  186.3300  177.3710  146.5930 C   0  0  0  0  0  2  0  0  0  0  0  0
  185.3420  177.5010  145.4480 C   0  0  0  0  0  2  0  0  0  0  0  0
  184.3730  178.6480  145.6920 C   0  0  0  0  0  2  0  0  0  0  0  0
  182.5870  177.8180  142.8640 O   0  0  0  0  0  0  0  0  0  0  0  0
  183.7760  179.1750  144.3900 C   0  0  2  0  0  3  0  0  0  0  0  0
  185.0030  180.0450  142.5350 O   0  0  0  0  0  1  0  0  0  0  0  0
  182.4410  178.4610  144.1210 C   0  0  1  0  0  3  0  0  0  0  0  0
  184.2410  177.4710  141.2850 O   0  0  0  0  0  0  0  0  0  0  0  0
  183.8500  178.0070  142.3540 C   0  0  0  0  0  0  0  0  0  0  0  0
  184.6980  178.8610  143.2090 C   0  0  2  0  0  3  0  0  0  0  0  0
  180.9800  179.7320  142.7200 O   0  0  0  0  0  1  0  0  0  0  0  0
  181.3050  179.4680  144.0530 C   0  0  0  0  0  2  0  0  0  0  0  0
  192.0990  176.7020  147.8960 N   0  0  0  0  0  2  0  0  0  0  0  0
  191.9910  175.9770  146.6660 C   0  0  0  0  0  0  0  0  0  0  0  0
  192.7180  174.9710  146.4530 O   0  0  0  0  0  0  0  0  0  0  0  0
  192.9400  176.2520  148.9940 C   0  0  0  0  0  2  0  0  0  0  0  0
  193.6380  177.4410  149.6310 C   0  0  0  0  0  2  0  0  0  0  0  0
  193.7870  175.9080  151.2010 C   0  0  0  0  0  1  0  0  0  0  0  0
  194.4620  177.0040  150.6660 O   0  0  0  0  0  0  0  0  0  0  0  0
  189.4590  177.8730  140.3710 C   0  0  2  0  0  3  0  0  0  0  0  0
  188.2870  178.5780  140.6760 O   0  0  0  0  0  1  0  0  0  0  0  0
  189.3810  177.2570  138.9740 C   0  0  0  0  0  2  0  0  0  0  0  0
  187.9360  177.1220  138.5110 C   0  0  1  0  0  3  0  0  0  0  0  0
  187.2130  178.4370  138.7030 C   0  0  0  0  0  2  0  0  0  0  0  0
  187.6770  178.0180  137.3100 C   0  0  2  0  0  3  0  0  0  0  0  0
  186.6480  177.3550  136.5010 N   0  0  0  0  0  0  0  0  0  0  0  0
  185.5070  178.1640  136.3840 N   0  0  0  0  0  2  0  0  0  0  0  0
  182.0020  176.5070  136.5140 C   0  0  0  0  0  0  0  0  0  0  0  0
  184.2160  177.6080  136.6300 C   0  0  0  0  0  0  0  0  0  0  0  0
  183.1880  177.0190  135.4370 S   0  0  0  0  0  0  0  0  0  0  0  0
  183.6630  177.4130  137.8870 C   0  0  0  0  0  3  0  0  0  0  0  0
  182.4040  176.7880  137.8230 C   0  0  0  0  0  0  0  0  0  0  0  0
  181.4560  175.2510  139.3610 O   0  0  0  0  0  0  0  0  0  0  0  0
  181.6260  176.4530  139.0290 C   0  0  0  0  0  0  0  0  0  0  0  0
  181.0610  177.4530  139.8010 O   0  0  0  0  0  1  0  0  0  0  0  0
  179.5020  176.5590  136.3060 C   0  0  0  0  0  1  0  0  0  0  0  0
  180.7720  175.8820  136.1350 N   0  0  0  0  0  2  0  0  0  0  0  0
  187.1860  177.1890  135.1620 C   0  0  0  0  0  2  0  0  0  0  0  0
  184.1930  173.2510  134.7230 F   0  0  0  0  0  0  0  0  0  0  0  0
  188.8490  173.9970  136.0110 C   0  0  0  0  0  2  0  0  0  0  0  0
  185.1710  172.8990  135.6370 C   0  0  1  0  0  3  0  0  0  0  0  0
  185.4180  171.3940  135.5590 C   0  0  0  0  0  2  0  0  0  0  0  0
  188.6450  175.2070  135.2070 N   0  0  0  0  0  0  0  0  0  0  0  0
  186.4650  173.6580  135.3360 C   0  0  2  0  0  3  0  0  0  0  0  0
  187.5560  173.2460  136.3210 C   0  0  1  0  0  3  0  0  0  0  0  0
  187.8030  171.7450  136.2470 C   0  0  0  0  0  2  0  0  0  0  0  0
  187.3010  175.7070  134.8300 C   0  0  1  0  0  3  0  0  0  0  0  0
  186.2590  175.0300  135.5000 O   0  0  0  0  0  0  0  0  0  0  0  0
  186.5120  170.9860  136.5470 C   0  0  0  0  0  2  0  0  0  0  0  0
  191.0580  175.4240  135.0260 C   0  0  0  0  0  2  0  0  0  0  0  0
  189.8360  175.7390  134.6070 C   0  0  0  0  0  3  0  0  0  0  0  0
  1  4  1  0  0  0  0
  1  2  2  0  0  0  0
  4  3  1  1  0  0  0
  4  5  1  0  0  0  0
  5  6  2  0  0  0  0
  5  7  1  0  0  0  0
  8  7  1  6  0  0  0
  8 29  1  0  0  0  0
  9 12  2  0  0  0  0
 11  8  1  6  0  0  0
 11 14  1  0  0  0  0
 12 16  1  0  0  0  0
 12 14  1  0  0  0  0
 13  9  1  0  0  0  0
 13 11  1  0  0  0  0
 14 10  2  0  0  0  0
 15 13  2  0  0  0  0
 17 18  1  0  0  0  0
 17 16  1  0  0  0  0
 19 22  1  0  0  0  0
 20 18  1  1  0  0  0
 22 27  1  6  0  0  0
 22 20  1  0  0  0  0
 23 24  2  0  0  0  0
 24 19  1  0  0  0  0
 24 25  1  0  0  0  0
 25 21  1  6  0  0  0
 25 20  1  0  0  0  0
 26 27  1  0  0  0  0
 28 31  1  0  0  0  0
 29 28  1  0  0  0  0
 30 29  2  0  0  0  0
 31 32  1  0  0  0  0
 32 34  1  0  0  0  0
 34 33  1  0  0  0  0
 35 36  1  1  0  0  0
 35  1  1  0  0  0  0
 37 35  1  0  0  0  0
 38 39  1  0  0  0  0
 38 37  1  1  0  0  0
 40 41  1  6  0  0  0
 40 38  1  0  0  0  0
 40 39  1  0  0  0  0
 42 41  1  0  0  0  0
 42 44  1  0  0  0  0
 43 47  2  0  0  0  0
 44 46  2  0  0  0  0
 45 43  1  0  0  0  0
 45 44  1  0  0  0  0
 47 46  1  0  0  0  0
 47 49  1  0  0  0  0
 49 48  2  0  0  0  0
 49 50  1  0  0  0  0
 52 51  1  0  0  0  0
 52 43  1  0  0  0  0
 53 41  1  0  0  0  0
 56 54  1  6  0  0  0
 57 56  1  0  0  0  0
 57 64  1  0  0  0  0
 58 55  1  0  0  0  0
 59 63  1  1  0  0  0
 59 56  1  0  0  0  0
 59 60  1  0  0  0  0
 60 55  1  6  0  0  0
 61 60  1  0  0  0  0
 61 64  1  0  0  0  0
 62 53  1  1  0  0  0
 62 58  1  0  0  0  0
 62 63  1  0  0  0  0
 66 65  2  0  0  0  0
 66 58  1  0  0  0  0
M  END
>  <MODEL>
7

>  <REMARK>
 VINA RESULT:      -4.1      3.232      6.351
  Name = 
  25 active torsions:
  status: ('A' for Active; 'I' for Inactive)
    1  A    between atoms: C_2  and  N_20
    2  A    between atoms: C_2  and  C_27
    3  A    between atoms: C_3  and  N_56
    4  A    between atoms: C_4  and  C_23
    5  A    between atoms: C_4  and  C_44
    6  A    between atoms: C_5  and  N_61
    7  A    between atoms: C_6  and  C_34
    8  A    between atoms: C_6  and  C_53
    9  A    between atoms: C_9  and  C_16
   10  A    between atoms: C_11  and  C_53
   11  A    between atoms: C_12  and  C_16
   12  A    between atoms: C_12  and  C_32
   13  A    between atoms: C_14  and  C_44
   14  A    between atoms: C_18  and  C_23
   15  A    between atoms: C_27  and  O_45
   16  A    between atoms: C_29  and  C_62
   17  A    between atoms: C_32  and  C_54
   18  A    between atoms: N_33  and  C_42
   19  A    between atoms: C_34  and  C_54
   20  A    between atoms: C_36  and  C_40
   21  A    between atoms: C_37  and  N_47
   22  A    between atoms: C_37  and  C_52
   23  A    between atoms: C_41  and  C_53
   24  A    between atoms: N_47  and  C_60
   25  A    between atoms: N_47  and  N_61
                            x       y       z     vdW  Elec       q    Type
                         _______ _______ _______ _____ _____    ______ ____

>  <TORSDO>
F 25

$$$$
=
 OpenBabel11062411043D

 66 71  0  0  1  0  0  0  0  0999 V2000
  190.8840  177.0700  141.9540 C   0  0  0  0  0  0  0  0  0  0  0  0
  191.6210  177.8430  142.5520 O   0  0  0  0  0  0  0  0  0  0  0  0
  190.9340  175.6860  143.8870 O   0  0  0  0  0  1  0  0  0  0  0  0
  190.2360  175.9520  142.7090 C   0  0  1  0  0  3  0  0  0  0  0  0
  188.8040  176.2790  143.0040 C   0  0  0  0  0  0  0  0  0  0  0  0
  188.0010  175.3850  143.2220 O   0  0  0  0  0  0  0  0  0  0  0  0
  188.3780  177.7160  143.1190 C   0  0  0  0  0  2  0  0  0  0  0  0
  187.1230  177.9220  143.9800 C   0  0  2  0  0  3  0  0  0  0  0  0
  184.2680  178.3440  141.9070 C   0  0  0  0  0  3  0  0  0  0  0  0
  184.5780  179.1780  145.2650 O   0  0  0  0  0  0  0  0  0  0  0  0
  186.1270  178.9410  143.3840 C   0  0  1  0  0  3  0  0  0  0  0  0
  183.7530  178.5000  143.1130 C   0  0  0  0  0  0  0  0  0  0  0  0
  185.7120  178.5520  141.9930 C   0  0  0  0  0  0  0  0  0  0  0  0
  184.7920  178.8800  144.0590 C   0  0  0  0  0  0  0  0  0  0  0  0
  186.4490  178.7770  140.9150 C   0  0  0  0  0  2  0  0  0  0  0  0
  182.2920  178.4650  143.3970 C   0  0  0  0  0  2  0  0  0  0  0  0
  181.5250  179.0450  142.2220 C   0  0  0  0  0  2  0  0  0  0  0  0
  180.4610  178.0740  141.7330 C   0  0  0  0  0  2  0  0  0  0  0  0
  181.2570  177.0420  138.5430 O   0  0  0  0  0  0  0  0  0  0  0  0
  180.1620  178.2570  140.2480 C   0  0  2  0  0  3  0  0  0  0  0  0
  180.5510  180.2390  138.9740 O   0  0  0  0  0  1  0  0  0  0  0  0
  180.2590  176.8960  139.5400 C   0  0  1  0  0  3  0  0  0  0  0  0
  182.7720  178.6430  137.8400 O   0  0  0  0  0  0  0  0  0  0  0  0
  181.8140  178.2990  138.5790 C   0  0  0  0  0  0  0  0  0  0  0  0
  181.2020  179.1750  139.5990 C   0  0  2  0  0  3  0  0  0  0  0  0
  179.1100  175.4870  137.9890 O   0  0  0  0  0  1  0  0  0  0  0  0
  178.9320  176.5390  138.8900 C   0  0  0  0  0  2  0  0  0  0  0  0
  186.4950  178.2520  146.4220 N   0  0  0  0  0  2  0  0  0  0  0  0
  187.4970  178.2170  145.4000 C   0  0  0  0  0  0  0  0  0  0  0  0
  188.7010  178.4530  145.6800 O   0  0  0  0  0  0  0  0  0  0  0  0
  186.8220  178.4300  147.8290 C   0  0  0  0  0  2  0  0  0  0  0  0
  188.2750  178.0610  148.0720 C   0  0  0  0  0  2  0  0  0  0  0  0
  189.8150  176.5100  147.8370 C   0  0  0  0  0  1  0  0  0  0  0  0
  188.4370  176.6830  147.9510 O   0  0  0  0  0  0  0  0  0  0  0  0
  190.6910  177.2000  140.4650 C   0  0  2  0  0  3  0  0  0  0  0  0
  190.0790  176.0460  139.9580 O   0  0  0  0  0  1  0  0  0  0  0  0
  192.0050  177.4890  139.7390 C   0  0  0  0  0  2  0  0  0  0  0  0
  191.9240  177.0850  138.2720 C   0  0  1  0  0  3  0  0  0  0  0  0
  193.1330  176.2530  137.9050 C   0  0  0  0  0  2  0  0  0  0  0  0
  191.7850  175.5770  138.1440 C   0  0  2  0  0  3  0  0  0  0  0  0
  191.0070  175.3250  136.9260 N   0  0  0  0  0  0  0  0  0  0  0  0
  191.8320  175.3600  135.7900 N   0  0  0  0  0  2  0  0  0  0  0  0
  194.8660  173.0490  135.0770 C   0  0  0  0  0  0  0  0  0  0  0  0
  192.8360  174.3620  135.6140 C   0  0  0  0  0  0  0  0  0  0  0  0
  194.2470  174.5740  134.7250 S   0  0  0  0  0  0  0  0  0  0  0  0
  192.8200  173.1070  136.2070 C   0  0  0  0  0  3  0  0  0  0  0  0
  193.9720  172.3600  135.9010 C   0  0  0  0  0  0  0  0  0  0  0  0
  193.6590  170.0080  135.8820 O   0  0  0  0  0  0  0  0  0  0  0  0
  194.1970  171.0040  136.4330 C   0  0  0  0  0  0  0  0  0  0  0  0
  194.9880  170.8100  137.5520 O   0  0  0  0  0  1  0  0  0  0  0  0
  197.3080  172.5900  135.4190 C   0  0  0  0  0  1  0  0  0  0  0  0
  196.1160  172.5460  134.5970 N   0  0  0  0  0  2  0  0  0  0  0  0
  190.4750  173.9760  137.0190 C   0  0  0  0  0  2  0  0  0  0  0  0
  186.1850  176.4710  137.1780 F   0  0  0  0  0  0  0  0  0  0  0  0
  187.5330  171.8540  136.3000 C   0  0  0  0  0  2  0  0  0  0  0  0
  185.8770  175.1470  137.4390 C   0  0  1  0  0  3  0  0  0  0  0  0
  184.4660  174.8460  136.9360 C   0  0  0  0  0  2  0  0  0  0  0  0
  188.7940  172.5220  135.9610 N   0  0  0  0  0  0  0  0  0  0  0  0
  186.8860  174.2290  136.7460 C   0  0  2  0  0  3  0  0  0  0  0  0
  186.5290  172.7680  137.0030 C   0  0  1  0  0  3  0  0  0  0  0  0
  185.1220  172.4650  136.5040 C   0  0  0  0  0  2  0  0  0  0  0  0
  189.1020  173.9150  136.3630 C   0  0  1  0  0  3  0  0  0  0  0  0
  188.1610  174.4420  137.2750 O   0  0  0  0  0  0  0  0  0  0  0  0
  184.1140  173.3800  137.1950 C   0  0  0  0  0  2  0  0  0  0  0  0
  189.4680  170.5230  134.7560 C   0  0  0  0  0  2  0  0  0  0  0  0
  189.6090  171.8210  135.0090 C   0  0  0  0  0  3  0  0  0  0  0  0
  1  2  2  0  0  0  0
  1  4  1  0  0  0  0
  4  5  1  0  0  0  0
  4  3  1  1  0  0  0
  5  7  1  0  0  0  0
  5  6  2  0  0  0  0
  8  7  1  6  0  0  0
  8 29  1  0  0  0  0
  9 13  1  0  0  0  0
  9 12  2  0  0  0  0
 11  8  1  1  0  0  0
 11 14  1  0  0  0  0
 12 16  1  0  0  0  0
 12 14  1  0  0  0  0
 13 11  1  0  0  0  0
 14 10  2  0  0  0  0
 15 13  2  0  0  0  0
 17 16  1  0  0  0  0
 18 17  1  0  0  0  0
 19 24  1  0  0  0  0
 19 22  1  0  0  0  0
 20 18  1  1  0  0  0
 22 27  1  6  0  0  0
 22 20  1  0  0  0  0
 23 24  2  0  0  0  0
 24 25  1  0  0  0  0
 25 21  1  6  0  0  0
 25 20  1  0  0  0  0
 26 27  1  0  0  0  0
 28 31  1  0  0  0  0
 29 30  2  0  0  0  0
 29 28  1  0  0  0  0
 31 32  1  0  0  0  0
 33 34  1  0  0  0  0
 34 32  1  0  0  0  0
 35 36  1  6  0  0  0
 35  1  1  0  0  0  0
 37 35  1  0  0  0  0
 38 37  1  1  0  0  0
 39 40  1  0  0  0  0
 39 38  1  0  0  0  0
 40 41  1  6  0  0  0
 40 38  1  0  0  0  0
 41 53  1  0  0  0  0
 42 41  1  0  0  0  0
 43 47  2  0  0  0  0
 44 42  1  0  0  0  0
 44 46  2  0  0  0  0
 45 43  1  0  0  0  0
 45 44  1  0  0  0  0
 47 46  1  0  0  0  0
 47 49  1  0  0  0  0
 48 49  2  0  0  0  0
 49 50  1  0  0  0  0
 52 43  1  0  0  0  0
 52 51  1  0  0  0  0
 56 54  1  6  0  0  0
 57 64  1  0  0  0  0
 57 56  1  0  0  0  0
 58 55  1  0  0  0  0
 58 62  1  0  0  0  0
 59 60  1  0  0  0  0
 59 63  1  1  0  0  0
 59 56  1  0  0  0  0
 60 55  1  6  0  0  0
 61 60  1  0  0  0  0
 61 64  1  0  0  0  0
 62 53  1  1  0  0  0
 62 63  1  0  0  0  0
 65 66  2  0  0  0  0
 66 58  1  0  0  0  0
M  END
>  <MODEL>
8

>  <REMARK>
 VINA RESULT:      -4.1      2.111      3.267
  Name = 
  25 active torsions:
  status: ('A' for Active; 'I' for Inactive)
    1  A    between atoms: C_2  and  N_20
    2  A    between atoms: C_2  and  C_27
    3  A    between atoms: C_3  and  N_56
    4  A    between atoms: C_4  and  C_23
    5  A    between atoms: C_4  and  C_44
    6  A    between atoms: C_5  and  N_61
    7  A    between atoms: C_6  and  C_34
    8  A    between atoms: C_6  and  C_53
    9  A    between atoms: C_9  and  C_16
   10  A    between atoms: C_11  and  C_53
   11  A    between atoms: C_12  and  C_16
   12  A    between atoms: C_12  and  C_32
   13  A    between atoms: C_14  and  C_44
   14  A    between atoms: C_18  and  C_23
   15  A    between atoms: C_27  and  O_45
   16  A    between atoms: C_29  and  C_62
   17  A    between atoms: C_32  and  C_54
   18  A    between atoms: N_33  and  C_42
   19  A    between atoms: C_34  and  C_54
   20  A    between atoms: C_36  and  C_40
   21  A    between atoms: C_37  and  N_47
   22  A    between atoms: C_37  and  C_52
   23  A    between atoms: C_41  and  C_53
   24  A    between atoms: N_47  and  C_60
   25  A    between atoms: N_47  and  N_61
                            x       y       z     vdW  Elec       q    Type
                         _______ _______ _______ _____ _____    ______ ____

>  <TORSDO>
F 25

$$$$
=
 OpenBabel11062411043D

 66 71  0  0  1  0  0  0  0  0999 V2000
  188.6760  177.2500  138.7740 C   0  0  0  0  0  0  0  0  0  0  0  0
  189.7040  176.7720  139.2350 O   0  0  0  0  0  0  0  0  0  0  0  0
  186.5660  177.0610  137.6930 O   0  0  0  0  0  1  0  0  0  0  0  0
  187.7050  176.3510  138.0740 C   0  0  1  0  0  3  0  0  0  0  0  0
  188.3500  175.7080  136.8850 C   0  0  0  0  0  0  0  0  0  0  0  0
  187.9610  175.9690  135.7570 O   0  0  0  0  0  0  0  0  0  0  0  0
  189.5370  174.8060  137.0790 C   0  0  0  0  0  2  0  0  0  0  0  0
  189.4840  173.5230  136.2370 C   0  0  2  0  0  3  0  0  0  0  0  0
  192.6900  174.2420  134.8820 C   0  0  0  0  0  3  0  0  0  0  0  0
  190.9490  171.2420  134.7020 O   0  0  0  0  0  0  0  0  0  0  0  0
  190.3300  173.5970  134.9460 C   0  0  1  0  0  3  0  0  0  0  0  0
  192.6600  172.9240  134.8230 C   0  0  0  0  0  0  0  0  0  0  0  0
  191.3170  174.7290  135.0020 C   0  0  0  0  0  0  0  0  0  0  0  0
  191.2840  172.4500  134.8340 C   0  0  0  0  0  0  0  0  0  0  0  0
  191.0030  175.9940  134.7630 C   0  0  0  0  0  2  0  0  0  0  0  0
  193.8660  172.0800  134.5940 C   0  0  0  0  0  2  0  0  0  0  0  0
  195.1120  172.9470  134.6230 C   0  0  0  0  0  2  0  0  0  0  0  0
  195.7360  172.9580  136.0100 C   0  0  0  0  0  2  0  0  0  0  0  0
  197.6810  175.7920  136.2720 O   0  0  0  0  0  0  0  0  0  0  0  0
  195.8200  174.3690  136.5850 C   0  0  2  0  0  3  0  0  0  0  0  0
  195.8790  174.9380  138.9040 O   0  0  0  0  0  1  0  0  0  0  0  0
  196.5500  175.2810  135.5850 C   0  0  1  0  0  3  0  0  0  0  0  0
  198.7220  175.5220  138.3210 O   0  0  0  0  0  0  0  0  0  0  0  0
  197.7640  175.2750  137.5440 C   0  0  0  0  0  0  0  0  0  0  0  0
  196.6410  174.3760  137.8780 C   0  0  2  0  0  3  0  0  0  0  0  0
  194.7870  176.7730  136.2010 O   0  0  0  0  0  1  0  0  0  0  0  0
  195.6490  176.4280  135.1570 C   0  0  0  0  0  2  0  0  0  0  0  0
  187.1220  173.0890  137.0720 N   0  0  0  0  0  2  0  0  0  0  0  0
  188.0680  173.1030  135.9970 C   0  0  0  0  0  0  0  0  0  0  0  0
  187.7230  172.7430  134.8410 O   0  0  0  0  0  0  0  0  0  0  0  0
  185.7130  172.7900  136.8670 C   0  0  0  0  0  2  0  0  0  0  0  0
  184.8590  173.9230  137.4090 C   0  0  0  0  0  2  0  0  0  0  0  0
  183.5080  172.2950  136.8080 C   0  0  0  0  0  1  0  0  0  0  0  0
  183.5110  173.6240  137.2260 O   0  0  0  0  0  0  0  0  0  0  0  0
  188.4270  178.7350  138.8450 C   0  0  2  0  0  3  0  0  0  0  0  0
  188.7260  179.3320  137.6130 O   0  0  0  0  0  1  0  0  0  0  0  0
  189.2130  179.3940  139.9800 C   0  0  0  0  0  2  0  0  0  0  0  0
  188.6800  178.9660  141.3410 C   0  0  1  0  0  3  0  0  0  0  0  0
  187.9290  180.1130  141.9800 C   0  0  0  0  0  2  0  0  0  0  0  0
  187.1590  178.9620  141.3380 C   0  0  2  0  0  3  0  0  0  0  0  0
  186.7360  177.9160  142.2770 N   0  0  0  0  0  0  0  0  0  0  0  0
  185.6020  177.2420  141.7940 N   0  0  0  0  0  2  0  0  0  0  0  0
  182.2900  179.1290  142.5170 C   0  0  0  0  0  0  0  0  0  0  0  0
  184.3200  177.8630  141.8800 C   0  0  0  0  0  0  0  0  0  0  0  0
  183.7290  178.6480  143.2440 S   0  0  0  0  0  0  0  0  0  0  0  0
  183.4170  177.9640  140.8310 C   0  0  0  0  0  3  0  0  0  0  0  0
  182.2620  178.6820  141.1930 C   0  0  0  0  0  0  0  0  0  0  0  0
  180.5930  177.9890  139.6560 O   0  0  0  0  0  0  0  0  0  0  0  0
  181.1660  178.9440  140.2430 C   0  0  0  0  0  0  0  0  0  0  0  0
  180.7640  180.2410  139.9740 O   0  0  0  0  0  1  0  0  0  0  0  0
  180.3650  179.2540  144.1200 C   0  0  0  0  0  1  0  0  0  0  0  0
  181.2600  179.8780  143.1670 N   0  0  0  0  0  2  0  0  0  0  0  0
  187.8070  176.9380  142.3520 C   0  0  0  0  0  2  0  0  0  0  0  0
  185.5230  177.1240  146.7580 F   0  0  0  0  0  0  0  0  0  0  0  0
  190.1220  177.5770  145.1640 C   0  0  0  0  0  2  0  0  0  0  0  0
  186.6840  177.8660  146.8880 C   0  0  1  0  0  3  0  0  0  0  0  0
  187.1760  177.7880  148.3310 C   0  0  0  0  0  2  0  0  0  0  0  0
  189.5800  176.7870  144.0540 N   0  0  0  0  0  0  0  0  0  0  0  0
  187.7570  177.3290  145.9390 C   0  0  2  0  0  3  0  0  0  0  0  0
  189.0500  178.1230  146.1050 C   0  0  1  0  0  3  0  0  0  0  0  0
  189.5420  178.0490  147.5450 C   0  0  0  0  0  2  0  0  0  0  0  0
  188.1260  176.6320  143.8100 C   0  0  1  0  0  3  0  0  0  0  0  0
  187.3420  177.4880  144.6150 O   0  0  0  0  0  0  0  0  0  0  0  0
  188.4710  178.5860  148.4920 C   0  0  0  0  0  2  0  0  0  0  0  0
  191.1370  174.9280  143.9220 C   0  0  0  0  0  2  0  0  0  0  0  0
  190.5440  175.9790  143.3630 C   0  0  0  0  0  3  0  0  0  0  0  0
  1 35  1  0  0  0  0
  1  2  2  0  0  0  0
  4  3  1  6  0  0  0
  4  1  1  0  0  0  0
  5  7  1  0  0  0  0
  5  4  1  0  0  0  0
  6  5  2  0  0  0  0
  8  7  1  6  0  0  0
  9 13  1  0  0  0  0
 10 14  2  0  0  0  0
 11 13  1  0  0  0  0
 11  8  1  1  0  0  0
 12 14  1  0  0  0  0
 12  9  2  0  0  0  0
 14 11  1  0  0  0  0
 15 13  2  0  0  0  0
 16 17  1  0  0  0  0
 16 12  1  0  0  0  0
 17 18  1  0  0  0  0
 19 24  1  0  0  0  0
 20 18  1  6  0  0  0
 20 25  1  0  0  0  0
 22 27  1  1  0  0  0
 22 19  1  0  0  0  0
 22 20  1  0  0  0  0
 24 25  1  0  0  0  0
 24 23  2  0  0  0  0
 25 21  1  1  0  0  0
 27 26  1  0  0  0  0
 29  8  1  0  0  0  0
 29 28  1  0  0  0  0
 30 29  2  0  0  0  0
 31 28  1  0  0  0  0
 31 32  1  0  0  0  0
 33 34  1  0  0  0  0
 34 32  1  0  0  0  0
 35 36  1  6  0  0  0
 35 37  1  0  0  0  0
 38 37  1  6  0  0  0
 38 39  1  0  0  0  0
 40 38  1  0  0  0  0
 40 39  1  0  0  0  0
 40 41  1  1  0  0  0
 41 53  1  0  0  0  0
 42 44  1  0  0  0  0
 42 41  1  0  0  0  0
 43 52  1  0  0  0  0
 43 45  1  0  0  0  0
 44 45  1  0  0  0  0
 46 47  1  0  0  0  0
 46 44  2  0  0  0  0
 47 43  2  0  0  0  0
 48 49  2  0  0  0  0
 49 47  1  0  0  0  0
 50 49  1  0  0  0  0
 52 51  1  0  0  0  0
 56 54  1  1  0  0  0
 56 57  1  0  0  0  0
 57 64  1  0  0  0  0
 58 55  1  0  0  0  0
 59 63  1  6  0  0  0
 59 60  1  0  0  0  0
 59 56  1  0  0  0  0
 60 55  1  6  0  0  0
 60 61  1  0  0  0  0
 61 64  1  0  0  0  0
 62 53  1  6  0  0  0
 62 58  1  0  0  0  0
 62 63  1  0  0  0  0
 66 65  2  0  0  0  0
 66 58  1  0  0  0  0
M  END
>  <MODEL>
9

>  <REMARK>
 VINA RESULT:      -3.7      3.633     12.504
  Name = 
  25 active torsions:
  status: ('A' for Active; 'I' for Inactive)
    1  A    between atoms: C_2  and  N_20
    2  A    between atoms: C_2  and  C_27
    3  A    between atoms: C_3  and  N_56
    4  A    between atoms: C_4  and  C_23
    5  A    between atoms: C_4  and  C_44
    6  A    between atoms: C_5  and  N_61
    7  A    between atoms: C_6  and  C_34
    8  A    between atoms: C_6  and  C_53
    9  A    between atoms: C_9  and  C_16
   10  A    between atoms: C_11  and  C_53
   11  A    between atoms: C_12  and  C_16
   12  A    between atoms: C_12  and  C_32
   13  A    between atoms: C_14  and  C_44
   14  A    between atoms: C_18  and  C_23
   15  A    between atoms: C_27  and  O_45
   16  A    between atoms: C_29  and  C_62
   17  A    between atoms: C_32  and  C_54
   18  A    between atoms: N_33  and  C_42
   19  A    between atoms: C_34  and  C_54
   20  A    between atoms: C_36  and  C_40
   21  A    between atoms: C_37  and  N_47
   22  A    between atoms: C_37  and  C_52
   23  A    between atoms: C_41  and  C_53
   24  A    between atoms: N_47  and  C_60
   25  A    between atoms: N_47  and  N_61
                            x       y       z     vdW  Elec       q    Type
                         _______ _______ _______ _____ _____    ______ ____

>  <TORSDO>
F 25

$$$$
