=
 OpenBabel11062417513D

 39 45  0  0  1  0  0  0  0  0999 V2000
  187.1820  177.6130  145.7420 C   0  0  0  0  0  2  0  0  0  0  0  0
  188.0740  178.6180  142.1060 C   0  0  0  0  0  2  0  0  0  0  0  0
  190.6130  175.7200  136.7280 C   0  0  1  0  0  3  0  0  0  0  0  0
  188.8310  176.0590  138.3450 C   0  0  1  0  0  3  0  0  0  0  0  0
  189.4060  176.5160  141.6490 C   0  0  1  0  0  3  0  0  0  0  0  0
  191.9170  173.5510  136.5970 C   0  0  0  0  0  0  0  0  0  0  0  0
  191.0990  177.2560  138.6590 C   0  0  2  0  0  3  0  0  0  0  0  0
  188.0390  177.1850  146.9390 C   0  0  2  0  0  3  0  0  0  0  0  0
  187.3110  177.3440  148.1170 O   0  0  0  0  0  1  0  0  0  0  0  0
  189.5070  173.5050  136.5910 N   0  0  0  0  0  0  0  0  0  0  0  0
  189.3990  174.9320  136.2490 C   0  0  1  0  0  3  0  0  0  0  0  0
  193.0280  177.0830  137.5290 C   0  0  0  0  0  2  0  0  0  0  0  0
  190.3630  175.9790  138.2060 C   0  0  2  0  0  3  0  0  0  0  0  0
  190.6300  172.8630  136.7220 C   0  0  0  0  0  3  0  0  0  0  0  0
  188.9880  178.0660  139.8860 C   0  0  1  0  0  3  0  0  0  0  0  0
  189.0000  174.4420  142.7280 O   0  0  0  0  0  0  0  0  0  0  0  0
  189.3960  177.5690  144.4810 C   0  0  2  0  0  3  0  0  0  0  0  0
  188.0000  178.2130  144.5830 C   0  0  1  0  0  3  0  0  0  0  0  0
  189.3330  177.9870  147.0200 C   0  0  0  0  0  2  0  0  0  0  0  0
  190.7840  176.8970  141.1550 C   0  0  1  0  0  3  0  0  0  0  0  0
  192.4710  177.0130  138.8120 O   0  0  0  0  0  0  0  0  0  0  0  0
  189.2930  176.1820  144.1800 O   0  0  0  0  0  0  0  0  0  0  0  0
  187.2190  178.1400  143.2680 C   0  0  1  0  0  3  0  0  0  0  0  0
  190.2000  177.7540  145.7770 C   0  0  0  0  0  2  0  0  0  0  0  0
  189.2140  175.6720  142.8810 C   0  0  0  0  0  0  0  0  0  0  0  0
  185.9760  179.0080  143.3400 C   0  0  0  0  0  1  0  0  0  0  0  0
  188.3370  177.4800  138.6290 C   0  0  0  0  0  2  0  0  0  0  0  0
  188.2480  175.5820  137.0170 C   0  0  1  0  0  3  0  0  0  0  0  0
  188.3500  177.4780  141.1370 C   0  0  2  0  0  3  0  0  0  0  0  0
  191.9570  175.0380  136.3830 C   0  0  2  0  0  3  0  0  0  0  0  0
  190.5140  177.8170  139.9660 C   0  0  1  0  0  3  0  0  0  0  0  0
  193.2220  175.6690  136.9950 C   0  0  0  0  0  2  0  0  0  0  0  0
  191.5660  177.6640  142.2050 C   0  0  0  0  0  1  0  0  0  0  0  0
  192.9810  172.8760  136.6180 O   0  0  0  0  0  0  0  0  0  0  0  0
  186.7810  173.9120  136.0570 O   0  0  0  0  0  1  0  0  0  0  0  0
  187.0190  174.6770  137.2040 C   0  0  2  0  0  3  0  0  0  0  0  0
  185.8230  175.4370  137.5770 N   0  0  0  0  0  2  0  0  0  0  0  0
  184.9670  177.6040  137.1110 N   0  0  0  0  0  1  0  0  0  0  0  0
  185.4730  176.3790  136.5200 C   0  0  0  0  0  2  0  0  0  0  0  0
  1  8  1  0  0  0  0
  2 23  1  0  0  0  0
  3 13  1  0  0  0  0
  4 27  1  0  0  0  0
  5 25  1  0  0  0  0
  6 34  2  0  0  0  0
  6 14  1  0  0  0  0
  7 21  1  0  0  0  0
  7 31  1  0  0  0  0
  8 19  1  0  0  0  0
  8  9  1  0  0  0  0
 10 14  2  0  0  0  0
 11 10  1  0  0  0  0
 11  3  1  0  0  0  0
 11 28  1  0  0  0  0
 12 21  1  0  0  0  0
 13  4  1  0  0  0  0
 13  7  1  0  0  0  0
 15 31  1  0  0  0  0
 15 29  1  0  0  0  0
 16 25  2  0  0  0  0
 17 18  1  0  0  0  0
 17 24  1  0  0  0  0
 18  1  1  0  0  0  0
 20  5  1  0  0  0  0
 20 33  1  0  0  0  0
 22 17  1  0  0  0  0
 23 26  1  0  0  0  0
 23 18  1  0  0  0  0
 24 19  1  0  0  0  0
 25 22  1  0  0  0  0
 27 15  1  0  0  0  0
 28 36  1  0  0  0  0
 28  4  1  0  0  0  0
 29  5  1  0  0  0  0
 29  2  1  0  0  0  0
 30  6  1  0  0  0  0
 30  3  1  0  0  0  0
 30 32  1  0  0  0  0
 31 20  1  0  0  0  0
 32 12  1  0  0  0  0
 35 36  1  0  0  0  0
 36 37  1  0  0  0  0
 39 38  1  0  0  0  0
 39 37  1  0  0  0  0
M  END
>  <MODEL>
1

>  <REMARK>
 VINA RESULT:      -4.8      0.000      0.000
  Name = 
  3 active torsions:
  status: ('A' for Active; 'I' for Inactive)
    1  A    between atoms: N_8  and  C_30
    2  A    between atoms: N_8  and  C_38
    3  A    between atoms: C_30  and  C_32
                            x       y       z     vdW  Elec       q    Type
                         _______ _______ _______ _____ _____    ______ ____

>  <TORSDO>
F 3

$$$$
=
 OpenBabel11062417513D

 39 45  0  0  1  0  0  0  0  0999 V2000
  195.5470  175.1480  137.1800 C   0  0  0  0  0  2  0  0  0  0  0  0
  192.4590  175.6990  134.9040 C   0  0  0  0  0  2  0  0  0  0  0  0
  185.8910  176.0830  135.6020 C   0  0  1  0  0  3  0  0  0  0  0  0
  188.1360  176.9630  135.8990 C   0  0  1  0  0  3  0  0  0  0  0  0
  190.7910  175.0110  136.6770 C   0  0  1  0  0  3  0  0  0  0  0  0
  184.4840  175.2960  137.5570 C   0  0  0  0  0  0  0  0  0  0  0  0
  187.7990  174.6160  134.8740 C   0  0  2  0  0  3  0  0  0  0  0  0
  196.0250  173.9490  138.0080 C   0  0  2  0  0  3  0  0  0  0  0  0
  197.3800  174.0920  138.2990 O   0  0  0  0  0  1  0  0  0  0  0  0
  185.5250  177.4690  137.6250 N   0  0  0  0  0  0  0  0  0  0  0  0
  185.7630  177.4910  136.1730 C   0  0  1  0  0  3  0  0  0  0  0  0
  185.9500  173.3780  134.5990 C   0  0  0  0  0  2  0  0  0  0  0  0
  187.3190  175.6570  135.9050 C   0  0  2  0  0  3  0  0  0  0  0  0
  184.9270  176.5050  138.2570 C   0  0  0  0  0  3  0  0  0  0  0  0
  190.0220  175.8810  134.5940 C   0  0  1  0  0  3  0  0  0  0  0  0
  191.1760  175.2450  139.0060 O   0  0  0  0  0  0  0  0  0  0  0  0
  193.5060  173.6890  136.7340 C   0  0  2  0  0  3  0  0  0  0  0  0
  194.4210  174.8030  136.1880 C   0  0  1  0  0  3  0  0  0  0  0  0
  195.7900  172.6330  137.2760 C   0  0  0  0  0  2  0  0  0  0  0  0
  189.8980  173.9200  136.1260 C   0  0  1  0  0  3  0  0  0  0  0  0
  187.2410  173.3570  135.1400 O   0  0  0  0  0  0  0  0  0  0  0  0
  192.8390  174.1170  137.9160 O   0  0  0  0  0  0  0  0  0  0  0  0
  193.6440  176.0590  135.7830 C   0  0  1  0  0  3  0  0  0  0  0  0
  194.2940  172.4030  137.0280 C   0  0  0  0  0  2  0  0  0  0  0  0
  191.6200  174.8030  137.9150 C   0  0  0  0  0  0  0  0  0  0  0  0
  194.5410  177.0130  135.0160 C   0  0  0  0  0  1  0  0  0  0  0  0
  189.0640  177.0730  134.6860 C   0  0  0  0  0  2  0  0  0  0  0  0
  187.1270  178.1080  135.8630 C   0  0  1  0  0  3  0  0  0  0  0  0
  191.1490  176.0250  135.6060 C   0  0  2  0  0  3  0  0  0  0  0  0
  184.7840  175.1230  136.0950 C   0  0  2  0  0  3  0  0  0  0  0  0
  189.3330  174.5150  134.8370 C   0  0  1  0  0  3  0  0  0  0  0  0
  184.9480  173.6390  135.7170 C   0  0  0  0  0  2  0  0  0  0  0  0
  190.6850  172.6680  135.7870 C   0  0  0  0  0  1  0  0  0  0  0  0
  183.8080  174.4350  138.1810 O   0  0  0  0  0  0  0  0  0  0  0  0
  187.1880  180.5030  136.2140 O   0  0  0  0  0  1  0  0  0  0  0  0
  187.5230  179.2710  136.7870 C   0  0  2  0  0  3  0  0  0  0  0  0
  188.9440  179.2370  137.1440 N   0  0  0  0  0  2  0  0  0  0  0  0
  188.6730  178.9980  139.4920 N   0  0  0  0  0  1  0  0  0  0  0  0
  189.1580  178.3540  138.2850 C   0  0  0  0  0  2  0  0  0  0  0  0
  1  8  1  0  0  0  0
  2 29  1  0  0  0  0
  2 23  1  0  0  0  0
  3 13  1  0  0  0  0
  3 30  1  0  0  0  0
  3 11  1  0  0  0  0
  4 13  1  0  0  0  0
  5 25  1  0  0  0  0
  6 34  2  0  0  0  0
  6 14  1  0  0  0  0
  7 21  1  0  0  0  0
  7 13  1  0  0  0  0
  8  9  1  0  0  0  0
 10 14  2  0  0  0  0
 11 10  1  0  0  0  0
 12 21  1  0  0  0  0
 12 32  1  0  0  0  0
 15 27  1  0  0  0  0
 15 31  1  0  0  0  0
 15 29  1  0  0  0  0
 17 24  1  0  0  0  0
 17 22  1  0  0  0  0
 18 17  1  0  0  0  0
 18  1  1  0  0  0  0
 19  8  1  0  0  0  0
 20  5  1  0  0  0  0
 23 18  1  0  0  0  0
 24 19  1  0  0  0  0
 25 22  1  0  0  0  0
 25 16  2  0  0  0  0
 26 23  1  0  0  0  0
 27  4  1  0  0  0  0
 28  4  1  0  0  0  0
 28 11  1  0  0  0  0
 28 36  1  0  0  0  0
 29  5  1  0  0  0  0
 30  6  1  0  0  0  0
 31  7  1  0  0  0  0
 31 20  1  0  0  0  0
 32 30  1  0  0  0  0
 33 20  1  0  0  0  0
 35 36  1  0  0  0  0
 36 37  1  0  0  0  0
 37 39  1  0  0  0  0
 39 38  1  0  0  0  0
M  END
>  <MODEL>
2

>  <REMARK>
 VINA RESULT:      -4.2      4.409      7.891
  Name = 
  3 active torsions:
  status: ('A' for Active; 'I' for Inactive)
    1  A    between atoms: N_8  and  C_30
    2  A    between atoms: N_8  and  C_38
    3  A    between atoms: C_30  and  C_32
                            x       y       z     vdW  Elec       q    Type
                         _______ _______ _______ _____ _____    ______ ____

>  <TORSDO>
F 3

$$$$
=
 OpenBabel11062417513D

 39 45  0  0  1  0  0  0  0  0999 V2000
  186.8600  177.5560  147.2210 C   0  0  0  0  0  2  0  0  0  0  0  0
  186.2500  179.2860  143.8070 C   0  0  0  0  0  2  0  0  0  0  0  0
  186.5410  177.6690  137.3980 C   0  0  1  0  0  3  0  0  0  0  0  0
  185.5230  177.5390  139.6000 C   0  0  1  0  0  3  0  0  0  0  0  0
  187.3320  177.4370  142.4600 C   0  0  1  0  0  3  0  0  0  0  0  0
  187.7240  175.6920  136.3420 C   0  0  0  0  0  0  0  0  0  0  0  0
  187.7160  178.8660  139.2710 C   0  0  2  0  0  3  0  0  0  0  0  0
  188.1220  176.9980  147.8900 C   0  0  2  0  0  3  0  0  0  0  0  0
  187.9070  176.8710  149.2610 O   0  0  0  0  0  1  0  0  0  0  0  0
  185.5030  175.4230  137.2390 N   0  0  0  0  0  0  0  0  0  0  0  0
  185.2480  176.8720  137.2630 C   0  0  1  0  0  3  0  0  0  0  0  0
  189.0550  179.0820  137.4860 C   0  0  0  0  0  2  0  0  0  0  0  0
  186.8810  177.6290  138.8790 C   0  0  2  0  0  3  0  0  0  0  0  0
  186.5970  174.8760  136.8020 C   0  0  0  0  0  3  0  0  0  0  0  0
  186.2360  179.2370  141.3440 C   0  0  1  0  0  3  0  0  0  0  0  0
  187.4090  175.1720  143.1630 O   0  0  0  0  0  0  0  0  0  0  0  0
  188.4090  177.9500  145.2360 C   0  0  2  0  0  3  0  0  0  0  0  0
  187.1530  178.4310  145.9880 C   0  0  1  0  0  3  0  0  0  0  0  0
  189.3330  177.8890  147.6380 C   0  0  0  0  0  2  0  0  0  0  0  0
  188.4030  178.0290  141.5710 C   0  0  1  0  0  3  0  0  0  0  0  0
  189.0430  178.7280  138.8410 O   0  0  0  0  0  0  0  0  0  0  0  0
  188.2180  176.6380  144.7200 O   0  0  0  0  0  0  0  0  0  0  0  0
  185.9230  178.5270  145.0810 C   0  0  1  0  0  3  0  0  0  0  0  0
  189.6510  177.9690  146.1400 C   0  0  0  0  0  2  0  0  0  0  0  0
  187.6470  176.3680  143.4720 C   0  0  0  0  0  0  0  0  0  0  0  0
  184.7920  179.2470  145.7930 C   0  0  0  0  0  1  0  0  0  0  0  0
  185.1570  178.8320  140.3340 C   0  0  0  0  0  2  0  0  0  0  0  0
  184.4770  177.2600  138.5250 C   0  0  1  0  0  3  0  0  0  0  0  0
  186.1450  178.3730  142.5940 C   0  0  2  0  0  3  0  0  0  0  0  0
  187.6540  177.1900  136.4380 C   0  0  2  0  0  3  0  0  0  0  0  0
  187.6770  179.1210  140.7870 C   0  0  1  0  0  3  0  0  0  0  0  0
  189.0480  177.8140  136.6420 C   0  0  0  0  0  2  0  0  0  0  0  0
  189.5200  178.6610  142.3790 C   0  0  0  0  0  1  0  0  0  0  0  0
  188.7220  175.1260  135.8220 O   0  0  0  0  0  0  0  0  0  0  0  0
  182.5310  175.9420  137.9410 O   0  0  0  0  0  1  0  0  0  0  0  0
  183.4320  176.2260  138.9740 C   0  0  2  0  0  3  0  0  0  0  0  0
  182.7170  176.6480  140.1810 N   0  0  0  0  0  2  0  0  0  0  0  0
  181.5520  178.6240  140.7980 N   0  0  0  0  0  1  0  0  0  0  0  0
  181.6200  177.5440  139.8320 C   0  0  0  0  0  2  0  0  0  0  0  0
  1  8  1  0  0  0  0
  2 23  1  0  0  0  0
  3 13  1  0  0  0  0
  4 27  1  0  0  0  0
  5 29  1  0  0  0  0
  5 25  1  0  0  0  0
  6 30  1  0  0  0  0
  6 14  1  0  0  0  0
  7 31  1  0  0  0  0
  8  9  1  0  0  0  0
 10 11  1  0  0  0  0
 11  3  1  0  0  0  0
 11 28  1  0  0  0  0
 12 21  1  0  0  0  0
 13  7  1  0  0  0  0
 13  4  1  0  0  0  0
 14 10  2  0  0  0  0
 15 29  1  0  0  0  0
 16 25  2  0  0  0  0
 17 18  1  0  0  0  0
 17 24  1  0  0  0  0
 18  1  1  0  0  0  0
 19  8  1  0  0  0  0
 20 33  1  0  0  0  0
 20  5  1  0  0  0  0
 21  7  1  0  0  0  0
 22 17  1  0  0  0  0
 23 26  1  0  0  0  0
 23 18  1  0  0  0  0
 24 19  1  0  0  0  0
 25 22  1  0  0  0  0
 27 15  1  0  0  0  0
 28 36  1  0  0  0  0
 28  4  1  0  0  0  0
 29  2  1  0  0  0  0
 30 32  1  0  0  0  0
 30  3  1  0  0  0  0
 31 15  1  0  0  0  0
 31 20  1  0  0  0  0
 32 12  1  0  0  0  0
 34  6  2  0  0  0  0
 35 36  1  0  0  0  0
 36 37  1  0  0  0  0
 39 37  1  0  0  0  0
 39 38  1  0  0  0  0
M  END
>  <MODEL>
3

>  <REMARK>
 VINA RESULT:      -4.2      2.490      3.539
  Name = 
  3 active torsions:
  status: ('A' for Active; 'I' for Inactive)
    1  A    between atoms: N_8  and  C_30
    2  A    between atoms: N_8  and  C_38
    3  A    between atoms: C_30  and  C_32
                            x       y       z     vdW  Elec       q    Type
                         _______ _______ _______ _____ _____    ______ ____

>  <TORSDO>
F 3

$$$$
=
 OpenBabel11062417513D

 39 45  0  0  1  0  0  0  0  0999 V2000
  190.3380  174.7210  135.5890 C   0  0  0  0  0  2  0  0  0  0  0  0
  186.8430  176.0690  134.5940 C   0  0  0  0  0  2  0  0  0  0  0  0
  180.6910  175.9410  137.0270 C   0  0  1  0  0  3  0  0  0  0  0  0
  183.0040  176.6860  137.0750 C   0  0  1  0  0  3  0  0  0  0  0  0
  185.6060  174.6640  136.2960 C   0  0  1  0  0  3  0  0  0  0  0  0
  179.7430  174.3790  138.7830 C   0  0  0  0  0  0  0  0  0  0  0  0
  182.2440  174.9590  135.3100 C   0  0  2  0  0  3  0  0  0  0  0  0
  190.9060  173.3020  135.7100 C   0  0  2  0  0  3  0  0  0  0  0  0
  192.2990  173.3520  135.6800 O   0  0  0  0  0  1  0  0  0  0  0  0
  180.9380  176.3610  139.4580 N   0  0  0  0  0  0  0  0  0  0  0  0
  180.8170  176.9850  138.1310 C   0  0  1  0  0  3  0  0  0  0  0  0
  180.2920  173.8890  135.0370 C   0  0  0  0  0  2  0  0  0  0  0  0
  182.1120  175.4700  136.7590 C   0  0  2  0  0  3  0  0  0  0  0  0
  180.4360  175.2050  139.7750 C   0  0  0  0  0  3  0  0  0  0  0  0
  184.4250  176.2910  135.0120 C   0  0  1  0  0  3  0  0  0  0  0  0
  186.5620  173.9310  138.3400 O   0  0  0  0  0  0  0  0  0  0  0  0
  188.1410  173.5150  135.1240 C   0  0  2  0  0  3  0  0  0  0  0  0
  188.9810  174.7810  134.8630 C   0  0  1  0  0  3  0  0  0  0  0  0
  190.3980  172.3960  134.5940 C   0  0  0  0  0  2  0  0  0  0  0  0
  184.5230  173.8710  135.5970 C   0  0  1  0  0  3  0  0  0  0  0  0
  181.6700  173.6860  135.1760 O   0  0  0  0  0  0  0  0  0  0  0  0
  187.8160  173.4000  136.5040 O   0  0  0  0  0  0  0  0  0  0  0  0
  188.2300  176.0690  135.2110 C   0  0  1  0  0  3  0  0  0  0  0  0
  188.8740  172.2460  134.6620 C   0  0  0  0  0  2  0  0  0  0  0  0
  186.6910  173.9890  137.0900 C   0  0  0  0  0  0  0  0  0  0  0  0
  188.9870  177.2800  134.6960 C   0  0  0  0  0  1  0  0  0  0  0  0
  183.6160  177.3110  135.8180 C   0  0  0  0  0  2  0  0  0  0  0  0
  182.1090  177.7140  137.7620 C   0  0  1  0  0  3  0  0  0  0  0  0
  185.7720  176.0390  135.6750 C   0  0  2  0  0  3  0  0  0  0  0  0
  179.6650  174.8310  137.3520 C   0  0  2  0  0  3  0  0  0  0  0  0
  183.7100  174.9260  134.8490 C   0  0  1  0  0  3  0  0  0  0  0  0
  179.6150  173.6390  136.3780 C   0  0  0  0  0  2  0  0  0  0  0  0
  185.1030  172.8920  134.5940 C   0  0  0  0  0  1  0  0  0  0  0  0
  179.1740  173.3180  139.1540 O   0  0  0  0  0  0  0  0  0  0  0  0
  182.8830  179.7880  138.7430 O   0  0  0  0  0  1  0  0  0  0  0  0
  182.8080  178.4060  138.9440 C   0  0  2  0  0  3  0  0  0  0  0  0
  184.1380  177.8490  139.2050 N   0  0  0  0  0  2  0  0  0  0  0  0
  186.3510  178.6870  138.9970 N   0  0  0  0  0  1  0  0  0  0  0  0
  185.0560  178.9050  139.6150 C   0  0  0  0  0  2  0  0  0  0  0  0
  1  8  1  0  0  0  0
  2 23  1  0  0  0  0
  2 29  1  0  0  0  0
  3 30  1  0  0  0  0
  3 11  1  0  0  0  0
  4 28  1  0  0  0  0
  5 25  1  0  0  0  0
  6 34  2  0  0  0  0
  6 14  1  0  0  0  0
  7 13  1  0  0  0  0
  9  8  1  0  0  0  0
 10 14  2  0  0  0  0
 11 10  1  0  0  0  0
 12 21  1  0  0  0  0
 12 32  1  0  0  0  0
 13  3  1  0  0  0  0
 13  4  1  0  0  0  0
 15 29  1  0  0  0  0
 15 27  1  0  0  0  0
 17 22  1  0  0  0  0
 18 17  1  0  0  0  0
 18 23  1  0  0  0  0
 18  1  1  0  0  0  0
 19 24  1  0  0  0  0
 19  8  1  0  0  0  0
 20  5  1  0  0  0  0
 21  7  1  0  0  0  0
 22 25  1  0  0  0  0
 24 17  1  0  0  0  0
 25 16  2  0  0  0  0
 26 23  1  0  0  0  0
 27  4  1  0  0  0  0
 28 11  1  0  0  0  0
 28 36  1  0  0  0  0
 29  5  1  0  0  0  0
 30  6  1  0  0  0  0
 31 15  1  0  0  0  0
 31  7  1  0  0  0  0
 31 20  1  0  0  0  0
 32 30  1  0  0  0  0
 33 20  1  0  0  0  0
 35 36  1  0  0  0  0
 36 37  1  0  0  0  0
 37 39  1  0  0  0  0
 38 39  1  0  0  0  0
M  END
>  <MODEL>
4

>  <REMARK>
 VINA RESULT:      -3.5      4.927      9.603
  Name = 
  3 active torsions:
  status: ('A' for Active; 'I' for Inactive)
    1  A    between atoms: N_8  and  C_30
    2  A    between atoms: N_8  and  C_38
    3  A    between atoms: C_30  and  C_32
                            x       y       z     vdW  Elec       q    Type
                         _______ _______ _______ _____ _____    ______ ____

>  <TORSDO>
F 3

$$$$
=
 OpenBabel11062417513D

 39 45  0  0  1  0  0  0  0  0999 V2000
  192.8930  173.7360  136.9630 C   0  0  0  0  0  2  0  0  0  0  0  0
  190.5080  176.7490  136.4530 C   0  0  0  0  0  2  0  0  0  0  0  0
  184.2020  178.2550  137.7720 C   0  0  1  0  0  3  0  0  0  0  0  0
  186.4920  177.8190  138.4550 C   0  0  1  0  0  3  0  0  0  0  0  0
  188.4200  175.4360  137.0170 C   0  0  1  0  0  3  0  0  0  0  0  0
  182.3060  176.6690  138.3300 C   0  0  0  0  0  0  0  0  0  0  0  0
  185.8160  177.5550  135.9750 C   0  0  2  0  0  3  0  0  0  0  0  0
  192.9110  172.3180  136.3800 C   0  0  2  0  0  3  0  0  0  0  0  0
  194.1820  171.7670  136.5330 O   0  0  0  0  0  1  0  0  0  0  0  0
  183.7940  177.4200  140.0710 N   0  0  0  0  0  0  0  0  0  0  0  0
  184.3010  178.5430  139.2660 C   0  0  1  0  0  3  0  0  0  0  0  0
  183.8150  177.6770  134.9710 C   0  0  0  0  0  2  0  0  0  0  0  0
  185.4070  177.3840  137.4520 C   0  0  2  0  0  3  0  0  0  0  0  0
  182.8780  176.5880  139.6770 C   0  0  0  0  0  3  0  0  0  0  0  0
  188.2850  177.7900  136.6610 C   0  0  1  0  0  3  0  0  0  0  0  0
  188.4010  173.5520  138.4600 O   0  0  0  0  0  0  0  0  0  0  0  0
  190.6900  173.9410  135.6990 C   0  0  2  0  0  3  0  0  0  0  0  0
  191.9260  174.6890  136.2350 C   0  0  1  0  0  3  0  0  0  0  0  0
  192.5180  172.3100  134.9080 C   0  0  0  0  0  2  0  0  0  0  0  0
  187.4180  175.5840  135.8930 C   0  0  1  0  0  3  0  0  0  0  0  0
  184.9390  176.8580  135.1320 O   0  0  0  0  0  0  0  0  0  0  0  0
  189.9300  173.3890  136.7670 O   0  0  0  0  0  0  0  0  0  0  0  0
  191.5560  175.8780  137.1250 C   0  0  1  0  0  3  0  0  0  0  0  0
  191.0850  172.8230  134.7210 C   0  0  0  0  0  2  0  0  0  0  0  0
  188.9280  174.0870  137.4500 C   0  0  0  0  0  0  0  0  0  0  0  0
  192.7800  176.7300  137.4090 C   0  0  0  0  0  1  0  0  0  0  0  0
  187.6330  178.5950  137.7900 C   0  0  0  0  0  2  0  0  0  0  0  0
  185.8050  178.7190  139.4780 C   0  0  1  0  0  3  0  0  0  0  0  0
  189.2020  176.7180  137.2330 C   0  0  2  0  0  3  0  0  0  0  0  0
  182.8280  177.6830  137.3520 C   0  0  2  0  0  3  0  0  0  0  0  0
  187.2620  177.0950  135.7280 C   0  0  1  0  0  3  0  0  0  0  0  0
  182.7090  177.1880  135.8980 C   0  0  0  0  0  2  0  0  0  0  0  0
  187.9390  174.9970  134.5940 C   0  0  0  0  0  1  0  0  0  0  0  0
  181.3420  175.9180  138.0240 O   0  0  0  0  0  0  0  0  0  0  0  0
  185.5230  179.1740  141.8390 O   0  0  0  0  0  1  0  0  0  0  0  0
  186.2790  178.4460  140.9150 C   0  0  2  0  0  3  0  0  0  0  0  0
  187.7090  178.7190  141.0880 N   0  0  0  0  0  2  0  0  0  0  0  0
  189.3970  177.1400  140.5400 N   0  0  0  0  0  1  0  0  0  0  0  0
  188.4030  177.5140  141.5290 C   0  0  0  0  0  2  0  0  0  0  0  0
  2 23  1  0  0  0  0
  2 29  1  0  0  0  0
  3 11  1  0  0  0  0
  4 28  1  0  0  0  0
  5 29  1  0  0  0  0
  5 25  1  0  0  0  0
  6 14  1  0  0  0  0
  7 13  1  0  0  0  0
  8  9  1  0  0  0  0
  8  1  1  0  0  0  0
 11 28  1  0  0  0  0
 11 10  1  0  0  0  0
 12 21  1  0  0  0  0
 12 32  1  0  0  0  0
 13  3  1  0  0  0  0
 13  4  1  0  0  0  0
 14 10  2  0  0  0  0
 15 29  1  0  0  0  0
 15 27  1  0  0  0  0
 17 18  1  0  0  0  0
 17 22  1  0  0  0  0
 18  1  1  0  0  0  0
 18 23  1  0  0  0  0
 19  8  1  0  0  0  0
 20  5  1  0  0  0  0
 21  7  1  0  0  0  0
 22 25  1  0  0  0  0
 23 26  1  0  0  0  0
 24 19  1  0  0  0  0
 24 17  1  0  0  0  0
 25 16  2  0  0  0  0
 27  4  1  0  0  0  0
 28 36  1  0  0  0  0
 30  3  1  0  0  0  0
 30  6  1  0  0  0  0
 31 20  1  0  0  0  0
 31  7  1  0  0  0  0
 31 15  1  0  0  0  0
 32 30  1  0  0  0  0
 33 20  1  0  0  0  0
 34  6  2  0  0  0  0
 36 37  1  0  0  0  0
 36 35  1  0  0  0  0
 37 39  1  0  0  0  0
 38 39  1  0  0  0  0
M  END
>  <MODEL>
5

>  <REMARK>
 VINA RESULT:      -3.1      3.100      8.265
  Name = 
  3 active torsions:
  status: ('A' for Active; 'I' for Inactive)
    1  A    between atoms: N_8  and  C_30
    2  A    between atoms: N_8  and  C_38
    3  A    between atoms: C_30  and  C_32
                            x       y       z     vdW  Elec       q    Type
                         _______ _______ _______ _____ _____    ______ ____

>  <TORSDO>
F 3

$$$$
=
 OpenBabel11062417513D

 39 45  0  0  1  0  0  0  0  0999 V2000
  190.1310  176.3280  146.9530 C   0  0  0  0  0  2  0  0  0  0  0  0
  189.1800  178.7550  144.0850 C   0  0  0  0  0  2  0  0  0  0  0  0
  186.3230  178.3860  138.1290 C   0  0  1  0  0  3  0  0  0  0  0  0
  186.2480  178.2890  140.5550 C   0  0  1  0  0  3  0  0  0  0  0  0
  188.7130  176.9080  142.4200 C   0  0  1  0  0  3  0  0  0  0  0  0
  185.9860  176.3290  136.6880 C   0  0  0  0  0  0  0  0  0  0  0  0
  188.5100  178.6080  139.3500 C   0  0  2  0  0  3  0  0  0  0  0  0
  191.1410  175.1780  147.0470 C   0  0  2  0  0  3  0  0  0  0  0  0
  191.4110  174.9010  148.3860 O   0  0  0  0  0  1  0  0  0  0  0  0
  184.3940  176.8560  138.4190 N   0  0  0  0  0  0  0  0  0  0  0  0
  184.8610  178.2460  138.5400 C   0  0  1  0  0  3  0  0  0  0  0  0
  189.0390  178.5690  137.1710 C   0  0  0  0  0  2  0  0  0  0  0  0
  187.1240  177.9320  139.3390 C   0  0  2  0  0  3  0  0  0  0  0  0
  184.8680  175.9910  137.5730 C   0  0  0  0  0  3  0  0  0  0  0  0
  188.2430  179.1740  141.8450 C   0  0  1  0  0  3  0  0  0  0  0  0
  187.9930  174.7330  143.0370 O   0  0  0  0  0  0  0  0  0  0  0  0
  190.8370  176.3960  144.5060 C   0  0  2  0  0  3  0  0  0  0  0  0
  190.3170  177.2110  145.7060 C   0  0  1  0  0  3  0  0  0  0  0  0
  192.4370  175.5080  146.3170 C   0  0  0  0  0  2  0  0  0  0  0  0
  189.5250  177.1480  141.1670 C   0  0  1  0  0  3  0  0  0  0  0  0
  189.3630  178.0080  138.4120 O   0  0  0  0  0  0  0  0  0  0  0  0
  189.8910  175.4060  144.1190 O   0  0  0  0  0  0  0  0  0  0  0  0
  189.0340  177.9810  145.3840 C   0  0  1  0  0  3  0  0  0  0  0  0
  192.1830  175.7230  144.8200 C   0  0  0  0  0  2  0  0  0  0  0  0
  188.8480  175.6380  143.2170 C   0  0  0  0  0  0  0  0  0  0  0  0
  188.7110  178.9630  146.4960 C   0  0  0  0  0  1  0  0  0  0  0  0
  186.8140  179.4550  141.3700 C   0  0  0  0  0  2  0  0  0  0  0  0
  184.8780  178.6800  140.0060 C   0  0  1  0  0  3  0  0  0  0  0  0
  188.2310  178.2130  143.0260 C   0  0  2  0  0  3  0  0  0  0  0  0
  186.6520  177.6710  136.7980 C   0  0  2  0  0  3  0  0  0  0  0  0
  189.1520  178.5690  140.7460 C   0  0  1  0  0  3  0  0  0  0  0  0
  188.1410  177.6020  136.4090 C   0  0  0  0  0  2  0  0  0  0  0  0
  191.0160  177.0910  141.4430 C   0  0  0  0  0  1  0  0  0  0  0  0
  186.3430  175.5040  135.8050 O   0  0  0  0  0  0  0  0  0  0  0  0
  182.5090  178.7200  140.5010 O   0  0  0  0  0  1  0  0  0  0  0  0
  183.7220  178.1170  140.8480 C   0  0  2  0  0  3  0  0  0  0  0  0
  183.9700  178.2470  142.2870 N   0  0  0  0  0  2  0  0  0  0  0  0
  183.1000  179.0130  144.3600 N   0  0  0  0  0  1  0  0  0  0  0  0
  182.8400  178.9000  142.9370 C   0  0  0  0  0  2  0  0  0  0  0  0
  1  8  1  0  0  0  0
  2 23  1  0  0  0  0
  3 11  1  0  0  0  0
  3 13  1  0  0  0  0
  4 27  1  0  0  0  0
  5 29  1  0  0  0  0
  5 25  1  0  0  0  0
  6 30  1  0  0  0  0
  6 14  1  0  0  0  0
  7 31  1  0  0  0  0
  8  9  1  0  0  0  0
 10 11  1  0  0  0  0
 11 28  1  0  0  0  0
 12 21  1  0  0  0  0
 13  7  1  0  0  0  0
 13  4  1  0  0  0  0
 14 10  2  0  0  0  0
 15 29  1  0  0  0  0
 16 25  2  0  0  0  0
 17 24  1  0  0  0  0
 17 18  1  0  0  0  0
 18  1  1  0  0  0  0
 19  8  1  0  0  0  0
 20 33  1  0  0  0  0
 20  5  1  0  0  0  0
 21  7  1  0  0  0  0
 22 17  1  0  0  0  0
 23 18  1  0  0  0  0
 23 26  1  0  0  0  0
 24 19  1  0  0  0  0
 25 22  1  0  0  0  0
 27 15  1  0  0  0  0
 28  4  1  0  0  0  0
 28 36  1  0  0  0  0
 29  2  1  0  0  0  0
 30  3  1  0  0  0  0
 31 20  1  0  0  0  0
 31 15  1  0  0  0  0
 32 30  1  0  0  0  0
 32 12  1  0  0  0  0
 34  6  2  0  0  0  0
 35 36  1  0  0  0  0
 36 37  1  0  0  0  0
 37 39  1  0  0  0  0
 39 38  1  0  0  0  0
M  END
>  <MODEL>
6

>  <REMARK>
 VINA RESULT:      -1.9      2.923      4.528
  Name = 
  3 active torsions:
  status: ('A' for Active; 'I' for Inactive)
    1  A    between atoms: N_8  and  C_30
    2  A    between atoms: N_8  and  C_38
    3  A    between atoms: C_30  and  C_32
                            x       y       z     vdW  Elec       q    Type
                         _______ _______ _______ _____ _____    ______ ____

>  <TORSDO>
F 3

$$$$
