=
 OpenBabel11062412433D

 32 36  0  0  1  0  0  0  0  0999 V2000
  184.2360  178.7240  145.5630 N   0  0  0  0  0  0  0  0  0  0  0  0
  185.3060  178.6990  143.4290 C   0  0  0  0  0  0  0  0  0  0  0  0
  186.4350  178.3670  141.2080 C   0  0  1  0  0  3  0  0  0  0  0  0
  186.5000  178.6230  142.6460 N   0  0  0  0  0  2  0  0  0  0  0  0
  183.0090  178.7960  144.9790 C   0  0  0  0  0  3  0  0  0  0  0  0
  182.8940  178.8320  143.5870 C   0  0  0  0  0  3  0  0  0  0  0  0
  184.0520  178.7910  142.8020 C   0  0  0  0  0  0  0  0  0  0  0  0
  185.3760  178.6770  144.8230 C   0  0  0  0  0  3  0  0  0  0  0  0
  183.9870  178.8720  141.3270 C   0  0  0  0  0  0  0  0  0  0  0  0
  185.2610  179.1270  140.5650 C   0  0  0  0  0  2  0  0  0  0  0  0
  182.8420  178.7630  140.7180 N   0  0  0  0  0  0  0  0  0  0  0  0
  183.1500  180.1930  138.7280 C   0  0  0  0  0  2  0  0  0  0  0  0
  181.0230  179.7420  137.4010 C   0  0  0  0  0  2  0  0  0  0  0  0
  179.5060  179.6890  137.5490 C   0  0  0  0  0  2  0  0  0  0  0  0
  179.9420  181.7080  139.1090 C   0  0  0  0  0  2  0  0  0  0  0  0
  182.6490  178.8590  139.2720 C   0  0  2  0  0  0  0  0  0  0  0  0
  181.6560  179.9150  138.7800 C   0  0  0  0  0  0  0  0  0  0  0  0
  180.9250  180.7770  139.8120 C   0  0  0  0  0  2  0  0  0  0  0  0
  178.9310  180.9340  138.2490 C   0  0  0  0  0  2  0  0  0  0  0  0
  184.4960  174.0700  136.6540 O   0  0  0  0  0  1  0  0  0  0  0  0
  182.7910  176.2690  139.1780 C   0  0  0  0  0  2  0  0  0  0  0  0
  182.9940  177.6000  138.4440 C   0  0  2  0  0  3  0  0  0  0  0  0
  184.6370  176.5480  136.8830 C   0  0  0  0  0  2  0  0  0  0  0  0
  183.2320  175.1000  138.3450 C   0  0  0  0  0  3  0  0  0  0  0  0
  184.1100  175.2120  137.3420 C   0  0  0  0  0  0  0  0  0  0  0  0
  184.4200  177.6620  137.9060 C   0  0  0  0  0  2  0  0  0  0  0  0
  188.7830  178.1460  141.4630 C   0  0  0  0  0  1  0  0  0  0  0  0
  187.7360  178.6340  140.5780 N   0  0  0  0  0  0  0  0  0  0  0  0
  187.8650  177.9260  139.3080 C   0  0  0  0  0  2  0  0  0  0  0  0
  189.0560  178.4220  138.5640 C   0  0  0  0  0  0  0  0  0  0  0  0
  190.1800  177.6170  138.4370 O   0  0  0  0  0  1  0  0  0  0  0  0
  189.0350  179.5610  138.0280 O   0  0  0  0  0  0  0  0  0  0  0  0
  2  8  1  0  0  0  0
  3 28  1  6  0  0  0
  3  4  1  0  0  0  0
  4  2  1  0  0  0  0
  5  1  1  0  0  0  0
  6  5  2  0  0  0  0
  7  2  2  0  0  0  0
  7  6  1  0  0  0  0
  8  1  2  0  0  0  0
  9  7  1  0  0  0  0
 10  3  1  0  0  0  0
 10  9  1  0  0  0  0
 11  9  2  0  0  0  0
 12 17  1  0  0  0  0
 12 16  1  0  0  0  0
 13 14  1  0  0  0  0
 13 17  1  0  0  0  0
 14 19  1  0  0  0  0
 15 18  1  0  0  0  0
 16 11  1  1  0  0  0
 17 16  1  0  0  0  0
 17 18  1  0  0  0  0
 19 15  1  0  0  0  0
 20 25  1  0  0  0  0
 22 26  1  1  0  0  0
 22 21  1  0  0  0  0
 22 16  1  0  0  0  0
 23 25  1  0  0  0  0
 23 26  1  0  0  0  0
 24 21  1  0  0  0  0
 25 24  2  0  0  0  0
 28 27  1  0  0  0  0
 29 28  1  0  0  0  0
 30 29  1  0  0  0  0
 31 30  1  0  0  0  0
 32 30  2  0  0  0  0
M  END
>  <MODEL>
1

>  <REMARK>
 VINA RESULT:      -7.1      0.000      0.000
  Name = 
  5 active torsions:
  status: ('A' for Active; 'I' for Inactive)
    1  A    between atoms: C_3  and  N_15
    2  A    between atoms: C_4  and  C_20
    3  A    between atoms: N_15  and  C_20
    4  A    between atoms: C_19  and  C_24
    5  A    between atoms: C_19  and  N_32
                            x       y       z     vdW  Elec       q    Type
                         _______ _______ _______ _____ _____    ______ ____

>  <TORSDO>
F 5

$$$$
=
 OpenBabel11062412433D

 32 36  0  0  1  0  0  0  0  0999 V2000
  184.0340  179.0670  144.8030 N   0  0  0  0  0  0  0  0  0  0  0  0
  184.9190  178.8680  142.5950 C   0  0  0  0  0  0  0  0  0  0  0  0
  185.8770  178.3580  140.3280 C   0  0  1  0  0  3  0  0  0  0  0  0
  186.0460  178.7740  141.7190 N   0  0  0  0  0  2  0  0  0  0  0  0
  182.7600  179.0030  144.3290 C   0  0  0  0  0  3  0  0  0  0  0  0
  182.5260  178.8790  142.9580 C   0  0  0  0  0  3  0  0  0  0  0  0
  183.6140  178.8180  142.0790 C   0  0  0  0  0  0  0  0  0  0  0  0
  185.1080  179.0040  143.9720 C   0  0  0  0  0  3  0  0  0  0  0  0
  183.4200  178.7310  140.6160 C   0  0  0  0  0  0  0  0  0  0  0  0
  184.6050  178.9740  139.7180 C   0  0  0  0  0  2  0  0  0  0  0  0
  182.2370  178.4900  140.1280 N   0  0  0  0  0  0  0  0  0  0  0  0
  180.8890  177.3260  138.4170 C   0  0  0  0  0  2  0  0  0  0  0  0
  182.5070  177.1800  136.4560 C   0  0  0  0  0  2  0  0  0  0  0  0
  183.9330  176.7640  136.1060 C   0  0  0  0  0  2  0  0  0  0  0  0
  183.4300  174.8940  137.8230 C   0  0  0  0  0  2  0  0  0  0  0  0
  181.9170  178.4150  138.7030 C   0  0  2  0  0  0  0  0  0  0  0  0
  182.3300  177.1360  137.9720 C   0  0  0  0  0  0  0  0  0  0  0  0
  183.0560  176.0410  138.7570 C   0  0  0  0  0  2  0  0  0  0  0  0
  184.2970  175.3690  136.6470 C   0  0  0  0  0  2  0  0  0  0  0  0
  180.5460  183.4730  136.3080 O   0  0  0  0  0  1  0  0  0  0  0  0
  181.7310  180.9980  138.8740 C   0  0  0  0  0  2  0  0  0  0  0  0
  181.7220  179.7610  137.9690 C   0  0  2  0  0  3  0  0  0  0  0  0
  180.4230  180.9850  136.2200 C   0  0  0  0  0  2  0  0  0  0  0  0
  181.4470  182.2560  138.1030 C   0  0  0  0  0  3  0  0  0  0  0  0
  180.8060  182.2600  136.9290 C   0  0  0  0  0  0  0  0  0  0  0  0
  180.4460  179.7610  137.1340 C   0  0  0  0  0  2  0  0  0  0  0  0
  188.2470  178.2670  140.3770 C   0  0  0  0  0  1  0  0  0  0  0  0
  187.1000  178.6280  139.5570 N   0  0  0  0  0  0  0  0  0  0  0  0
  187.1510  177.8170  138.3440 C   0  0  0  0  0  2  0  0  0  0  0  0
  187.6540  178.6340  137.2050 C   0  0  0  0  0  0  0  0  0  0  0  0
  188.6880  179.5400  137.4030 O   0  0  0  0  0  1  0  0  0  0  0  0
  187.1610  178.4840  136.0560 O   0  0  0  0  0  0  0  0  0  0  0  0
  2  8  1  0  0  0  0
  3 28  1  6  0  0  0
  3  4  1  0  0  0  0
  4  2  1  0  0  0  0
  5  1  1  0  0  0  0
  6  5  2  0  0  0  0
  7  2  2  0  0  0  0
  7  6  1  0  0  0  0
  8  1  2  0  0  0  0
  9  7  1  0  0  0  0
 10  3  1  0  0  0  0
 10  9  1  0  0  0  0
 11  9  2  0  0  0  0
 12 16  1  0  0  0  0
 13 17  1  0  0  0  0
 14 13  1  0  0  0  0
 14 19  1  0  0  0  0
 15 18  1  0  0  0  0
 16 11  1  1  0  0  0
 17 12  1  0  0  0  0
 17 16  1  0  0  0  0
 17 18  1  0  0  0  0
 19 15  1  0  0  0  0
 20 25  1  0  0  0  0
 22 26  1  1  0  0  0
 22 16  1  0  0  0  0
 22 21  1  0  0  0  0
 23 25  1  0  0  0  0
 23 26  1  0  0  0  0
 24 21  1  0  0  0  0
 25 24  2  0  0  0  0
 28 27  1  0  0  0  0
 29 28  1  0  0  0  0
 30 31  1  0  0  0  0
 30 29  1  0  0  0  0
 32 30  2  0  0  0  0
M  END
>  <MODEL>
2

>  <REMARK>
 VINA RESULT:      -6.8      2.124      4.165
  Name = 
  5 active torsions:
  status: ('A' for Active; 'I' for Inactive)
    1  A    between atoms: C_3  and  N_15
    2  A    between atoms: C_4  and  C_20
    3  A    between atoms: N_15  and  C_20
    4  A    between atoms: C_19  and  C_24
    5  A    between atoms: C_19  and  N_32
                            x       y       z     vdW  Elec       q    Type
                         _______ _______ _______ _____ _____    ______ ____

>  <TORSDO>
F 5

$$$$
=
 OpenBabel11062412433D

 32 36  0  0  1  0  0  0  0  0999 V2000
  184.5460  178.7560  145.9990 N   0  0  0  0  0  0  0  0  0  0  0  0
  185.7400  178.3650  143.9700 C   0  0  0  0  0  0  0  0  0  0  0  0
  186.9500  177.6540  141.8840 C   0  0  1  0  0  3  0  0  0  0  0  0
  186.9580  178.0320  143.2970 N   0  0  0  0  0  2  0  0  0  0  0  0
  183.3890  178.9600  145.3130 C   0  0  0  0  0  3  0  0  0  0  0  0
  183.3760  178.8820  143.9180 C   0  0  0  0  0  3  0  0  0  0  0  0
  184.5630  178.5890  143.2370 C   0  0  0  0  0  0  0  0  0  0  0  0
  185.7110  178.4640  145.3620 C   0  0  0  0  0  3  0  0  0  0  0  0
  184.6120  178.5390  141.7600 C   0  0  0  0  0  0  0  0  0  0  0  0
  185.9590  178.5220  141.0860 C   0  0  0  0  0  2  0  0  0  0  0  0
  183.5080  178.5500  141.0700 N   0  0  0  0  0  0  0  0  0  0  0  0
  183.7640  179.9040  139.0210 C   0  0  0  0  0  2  0  0  0  0  0  0
  181.8610  179.0470  137.5610 C   0  0  0  0  0  2  0  0  0  0  0  0
  180.3640  178.7570  137.5920 C   0  0  0  0  0  2  0  0  0  0  0  0
  180.3380  180.8990  139.0440 C   0  0  0  0  0  2  0  0  0  0  0  0
  183.4320  178.5380  139.6100 C   0  0  2  0  0  0  0  0  0  0  0  0
  182.3340  179.3910  138.9720 C   0  0  0  0  0  0  0  0  0  0  0  0
  181.3890  180.1770  139.8830 C   0  0  0  0  0  2  0  0  0  0  0  0
  179.5410  179.9270  138.1600 C   0  0  0  0  0  2  0  0  0  0  0  0
  185.2460  174.1060  136.4060 O   0  0  0  0  0  1  0  0  0  0  0  0
  184.8650  177.6310  137.6440 C   0  0  0  0  0  2  0  0  0  0  0  0
  184.0430  177.3100  138.8980 C   0  0  2  0  0  3  0  0  0  0  0  0
  183.6320  174.9800  138.0920 C   0  0  0  0  0  2  0  0  0  0  0  0
  185.3480  176.3860  136.9580 C   0  0  0  0  0  3  0  0  0  0  0  0
  184.7590  175.1950  137.1140 C   0  0  0  0  0  0  0  0  0  0  0  0
  182.9730  176.2820  138.5430 C   0  0  0  0  0  2  0  0  0  0  0  0
  188.3560  178.5610  140.2030 C   0  0  0  0  0  1  0  0  0  0  0  0
  188.3170  177.6570  141.3430 N   0  0  0  0  0  0  0  0  0  0  0  0
  189.2750  178.1470  142.3290 C   0  0  0  0  0  2  0  0  0  0  0  0
  190.4430  177.2260  142.4060 C   0  0  0  0  0  0  0  0  0  0  0  0
  190.2710  175.8650  142.1880 O   0  0  0  0  0  0  0  0  0  0  0  0
  191.5920  177.6830  142.6430 O   0  0  0  0  0  1  0  0  0  0  0  0
  2  8  2  0  0  0  0
  3 28  1  6  0  0  0
  3  4  1  0  0  0  0
  4  2  1  0  0  0  0
  5  1  2  0  0  0  0
  6  5  1  0  0  0  0
  7  6  2  0  0  0  0
  7  2  1  0  0  0  0
  8  1  1  0  0  0  0
  9  7  1  0  0  0  0
 10  9  1  0  0  0  0
 10  3  1  0  0  0  0
 11  9  2  0  0  0  0
 12 16  1  0  0  0  0
 13 14  1  0  0  0  0
 13 17  1  0  0  0  0
 14 19  1  0  0  0  0
 15 18  1  0  0  0  0
 16 11  1  1  0  0  0
 17 12  1  0  0  0  0
 17 16  1  0  0  0  0
 17 18  1  0  0  0  0
 19 15  1  0  0  0  0
 20 25  1  0  0  0  0
 22 21  1  6  0  0  0
 22 16  1  0  0  0  0
 23 26  1  0  0  0  0
 24 25  2  0  0  0  0
 24 21  1  0  0  0  0
 25 23  1  0  0  0  0
 26 22  1  0  0  0  0
 27 28  1  0  0  0  0
 28 29  1  0  0  0  0
 29 30  1  0  0  0  0
 30 32  1  0  0  0  0
 31 30  2  0  0  0  0
M  END
>  <MODEL>
3

>  <REMARK>
 VINA RESULT:      -6.5      1.503      1.975
  Name = 
  5 active torsions:
  status: ('A' for Active; 'I' for Inactive)
    1  A    between atoms: C_3  and  N_15
    2  A    between atoms: C_4  and  C_20
    3  A    between atoms: N_15  and  C_20
    4  A    between atoms: C_19  and  C_24
    5  A    between atoms: C_19  and  N_32
                            x       y       z     vdW  Elec       q    Type
                         _______ _______ _______ _____ _____    ______ ____

>  <TORSDO>
F 5

$$$$
=
 OpenBabel11062412433D

 32 36  0  0  1  0  0  0  0  0999 V2000
  188.1070  177.7260  145.1640 N   0  0  0  0  0  0  0  0  0  0  0  0
  187.7750  177.9870  142.8140 C   0  0  0  0  0  0  0  0  0  0  0  0
  187.4510  177.9560  140.3220 C   0  0  1  0  0  3  0  0  0  0  0  0
  188.3150  178.0920  141.4940 N   0  0  0  0  0  2  0  0  0  0  0  0
  186.7640  177.7300  145.3830 C   0  0  0  0  0  3  0  0  0  0  0  0
  185.8780  177.8750  144.3130 C   0  0  0  0  0  3  0  0  0  0  0  0
  186.3850  178.0130  143.0160 C   0  0  0  0  0  0  0  0  0  0  0  0
  188.6250  177.8510  143.9130 C   0  0  0  0  0  3  0  0  0  0  0  0
  185.4910  178.2140  141.8550 C   0  0  0  0  0  0  0  0  0  0  0  0
  186.0980  178.6540  140.5490 C   0  0  0  0  0  2  0  0  0  0  0  0
  184.2060  178.0480  141.9860 N   0  0  0  0  0  0  0  0  0  0  0  0
  182.8640  179.7240  140.7650 C   0  0  0  0  0  2  0  0  0  0  0  0
  180.6510  178.5080  140.4290 C   0  0  0  0  0  2  0  0  0  0  0  0
  179.5930  177.7120  141.1870 C   0  0  0  0  0  2  0  0  0  0  0  0
  180.1290  179.4400  143.0380 C   0  0  0  0  0  2  0  0  0  0  0  0
  183.2230  178.2510  140.9220 C   0  0  2  0  0  0  0  0  0  0  0  0
  181.8440  178.7590  141.3490 C   0  0  0  0  0  0  0  0  0  0  0  0
  181.5770  179.0040  142.8360 C   0  0  0  0  0  2  0  0  0  0  0  0
  179.1340  178.4110  142.4800 C   0  0  0  0  0  2  0  0  0  0  0  0
  183.3110  175.3040  135.9720 O   0  0  0  0  0  1  0  0  0  0  0  0
  183.1710  178.2270  138.3270 C   0  0  0  0  0  2  0  0  0  0  0  0
  183.4410  177.4480  139.6200 C   0  0  2  0  0  3  0  0  0  0  0  0
  183.0560  175.2730  138.4510 C   0  0  0  0  0  2  0  0  0  0  0  0
  183.3150  177.3570  137.1110 C   0  0  0  0  0  3  0  0  0  0  0  0
  183.2080  176.0250  137.1520 C   0  0  0  0  0  0  0  0  0  0  0  0
  182.6170  176.1650  139.6120 C   0  0  0  0  0  2  0  0  0  0  0  0
  189.5860  178.2530  139.3310 C   0  0  0  0  0  1  0  0  0  0  0  0
  188.1550  178.3990  139.1090 N   0  0  0  0  0  0  0  0  0  0  0  0
  187.8000  177.5730  137.9590 C   0  0  0  0  0  2  0  0  0  0  0  0
  187.3030  178.4320  136.8480 C   0  0  0  0  0  0  0  0  0  0  0  0
  186.5360  177.8780  135.8320 O   0  0  0  0  0  0  0  0  0  0  0  0
  187.5550  179.6650  136.8430 O   0  0  0  0  0  1  0  0  0  0  0  0
  1  5  1  0  0  0  0
  2  7  2  0  0  0  0
  2  8  1  0  0  0  0
  3 28  1  6  0  0  0
  3 10  1  0  0  0  0
  3  4  1  0  0  0  0
  4  2  1  0  0  0  0
  6  5  2  0  0  0  0
  7  6  1  0  0  0  0
  8  1  2  0  0  0  0
  9 11  2  0  0  0  0
  9  7  1  0  0  0  0
 10  9  1  0  0  0  0
 12 16  1  0  0  0  0
 12 17  1  0  0  0  0
 13 14  1  0  0  0  0
 13 17  1  0  0  0  0
 14 19  1  0  0  0  0
 16 17  1  0  0  0  0
 16 11  1  1  0  0  0
 17 18  1  0  0  0  0
 18 15  1  0  0  0  0
 19 15  1  0  0  0  0
 20 25  1  0  0  0  0
 22 21  1  6  0  0  0
 22 16  1  0  0  0  0
 23 26  1  0  0  0  0
 24 25  2  0  0  0  0
 24 21  1  0  0  0  0
 25 23  1  0  0  0  0
 26 22  1  0  0  0  0
 28 27  1  0  0  0  0
 29 28  1  0  0  0  0
 30 29  1  0  0  0  0
 31 30  2  0  0  0  0
 32 30  1  0  0  0  0
M  END
>  <MODEL>
4

>  <REMARK>
 VINA RESULT:      -6.4      2.055      2.825
  Name = 
  5 active torsions:
  status: ('A' for Active; 'I' for Inactive)
    1  A    between atoms: C_3  and  N_15
    2  A    between atoms: C_4  and  C_20
    3  A    between atoms: N_15  and  C_20
    4  A    between atoms: C_19  and  C_24
    5  A    between atoms: C_19  and  N_32
                            x       y       z     vdW  Elec       q    Type
                         _______ _______ _______ _____ _____    ______ ____

>  <TORSDO>
F 5

$$$$
=
 OpenBabel11062412433D

 32 36  0  0  1  0  0  0  0  0999 V2000
  187.9750  178.2820  139.0630 N   0  0  0  0  0  0  0  0  0  0  0  0
  186.3110  178.6300  140.7390 C   0  0  0  0  0  0  0  0  0  0  0  0
  184.6050  179.2970  142.4600 C   0  0  1  0  0  3  0  0  0  0  0  0
  185.9660  178.9010  142.1000 N   0  0  0  0  0  2  0  0  0  0  0  0
  187.0200  178.1540  138.1010 C   0  0  0  0  0  3  0  0  0  0  0  0
  185.6680  178.2510  138.4370 C   0  0  0  0  0  3  0  0  0  0  0  0
  185.3060  178.4840  139.7690 C   0  0  0  0  0  0  0  0  0  0  0  0
  187.6500  178.5140  140.3630 C   0  0  0  0  0  3  0  0  0  0  0  0
  183.8880  178.5500  140.1820 C   0  0  0  0  0  0  0  0  0  0  0  0
  183.5660  178.4980  141.6530 C   0  0  0  0  0  2  0  0  0  0  0  0
  182.9490  178.6110  139.2830 N   0  0  0  0  0  0  0  0  0  0  0  0
  181.2060  178.0810  140.9510 C   0  0  0  0  0  2  0  0  0  0  0  0
  179.2990  177.2310  139.4930 C   0  0  0  0  0  2  0  0  0  0  0  0
  178.9980  176.2510  138.3630 C   0  0  0  0  0  2  0  0  0  0  0  0
  180.7140  174.7980  139.6440 C   0  0  0  0  0  2  0  0  0  0  0  0
  181.5150  178.6470  139.5690 C   0  0  2  0  0  0  0  0  0  0  0  0
  180.8090  177.2970  139.7100 C   0  0  0  0  0  0  0  0  0  0  0  0
  181.6260  176.0160  139.5290 C   0  0  0  0  0  2  0  0  0  0  0  0
  179.5610  174.8430  138.6290 C   0  0  0  0  0  2  0  0  0  0  0  0
  179.1660  183.8020  138.5160 O   0  0  0  0  0  1  0  0  0  0  0  0
  181.5880  180.9350  138.3460 C   0  0  0  0  0  2  0  0  0  0  0  0
  180.7630  179.9350  139.1650 C   0  0  2  0  0  3  0  0  0  0  0  0
  179.2270  181.7510  139.9310 C   0  0  0  0  0  2  0  0  0  0  0  0
  180.8210  182.1970  138.0690 C   0  0  0  0  0  3  0  0  0  0  0  0
  179.7880  182.5990  138.8180 C   0  0  0  0  0  0  0  0  0  0  0  0
  180.1810  180.6460  140.3820 C   0  0  0  0  0  2  0  0  0  0  0  0
  183.0080  178.9630  144.1830 C   0  0  0  0  0  1  0  0  0  0  0  0
  184.4150  179.2220  143.9170 N   0  0  0  0  0  0  0  0  0  0  0  0
  185.1840  178.1240  144.4950 C   0  0  0  0  0  2  0  0  0  0  0  0
  185.9430  178.6020  145.6840 C   0  0  0  0  0  0  0  0  0  0  0  0
  185.3070  179.3690  146.6510 O   0  0  0  0  0  1  0  0  0  0  0  0
  187.1540  178.2890  145.8260 O   0  0  0  0  0  0  0  0  0  0  0  0
  1  8  1  0  0  0  0
  2  4  1  0  0  0  0
  3 28  1  1  0  0  0
  4  3  1  0  0  0  0
  5  6  1  0  0  0  0
  5  1  2  0  0  0  0
  6  7  2  0  0  0  0
  7  9  1  0  0  0  0
  7  2  1  0  0  0  0
  8  2  2  0  0  0  0
  9 10  1  0  0  0  0
 10  3  1  0  0  0  0
 11  9  2  0  0  0  0
 13 17  1  0  0  0  0
 14 19  1  0  0  0  0
 14 13  1  0  0  0  0
 16 11  1  6  0  0  0
 16 17  1  0  0  0  0
 16 12  1  0  0  0  0
 17 12  1  0  0  0  0
 18 15  1  0  0  0  0
 18 17  1  0  0  0  0
 19 15  1  0  0  0  0
 20 25  1  0  0  0  0
 22 21  1  1  0  0  0
 22 16  1  0  0  0  0
 22 26  1  0  0  0  0
 23 26  1  0  0  0  0
 24 21  1  0  0  0  0
 24 25  2  0  0  0  0
 25 23  1  0  0  0  0
 28 27  1  0  0  0  0
 28 29  1  0  0  0  0
 29 30  1  0  0  0  0
 30 32  2  0  0  0  0
 30 31  1  0  0  0  0
M  END
>  <MODEL>
5

>  <REMARK>
 VINA RESULT:      -6.3      3.312      5.817
  Name = 
  5 active torsions:
  status: ('A' for Active; 'I' for Inactive)
    1  A    between atoms: C_3  and  N_15
    2  A    between atoms: C_4  and  C_20
    3  A    between atoms: N_15  and  C_20
    4  A    between atoms: C_19  and  C_24
    5  A    between atoms: C_19  and  N_32
                            x       y       z     vdW  Elec       q    Type
                         _______ _______ _______ _____ _____    ______ ____

>  <TORSDO>
F 5

$$$$
=
 OpenBabel11062412433D

 32 36  0  0  1  0  0  0  0  0999 V2000
  183.1240  178.9470  145.4250 N   0  0  0  0  0  0  0  0  0  0  0  0
  185.4400  178.4490  145.7250 C   0  0  0  0  0  0  0  0  0  0  0  0
  187.7930  177.6310  146.0580 C   0  0  1  0  0  3  0  0  0  0  0  0
  186.5400  178.1620  146.5920 N   0  0  0  0  0  2  0  0  0  0  0  0
  183.2720  178.9610  144.0730 C   0  0  0  0  0  3  0  0  0  0  0  0
  184.5250  178.7280  143.5010 C   0  0  0  0  0  3  0  0  0  0  0  0
  185.6230  178.4770  144.3320 C   0  0  0  0  0  0  0  0  0  0  0  0
  184.1730  178.7000  146.2550 C   0  0  0  0  0  3  0  0  0  0  0  0
  186.9780  178.2680  143.7790 C   0  0  0  0  0  0  0  0  0  0  0  0
  188.1520  178.3060  144.7210 C   0  0  0  0  0  2  0  0  0  0  0  0
  187.1400  178.0960  142.4990 N   0  0  0  0  0  0  0  0  0  0  0  0
  188.8670  179.1810  141.1060 C   0  0  0  0  0  2  0  0  0  0  0  0
  189.5710  177.2950  139.5450 C   0  0  0  0  0  2  0  0  0  0  0  0
  188.9960  176.2360  138.6100 C   0  0  0  0  0  2  0  0  0  0  0  0
  187.3200  178.1320  138.0670 C   0  0  0  0  0  2  0  0  0  0  0  0
  188.4300  177.9150  141.8340 C   0  0  2  0  0  0  0  0  0  0  0  0
  188.4280  177.9660  140.3050 C   0  0  0  0  0  0  0  0  0  0  0  0
  187.1000  178.1820  139.5760 C   0  0  0  0  0  2  0  0  0  0  0  0
  187.9620  176.8090  137.6230 C   0  0  0  0  0  2  0  0  0  0  0  0
  192.6440  174.7700  144.1920 O   0  0  0  0  0  1  0  0  0  0  0  0
  190.9610  177.5010  142.2370 C   0  0  0  0  0  2  0  0  0  0  0  0
  189.5190  177.1650  142.6340 C   0  0  2  0  0  3  0  0  0  0  0  0
  190.2370  174.9630  143.5720 C   0  0  0  0  0  2  0  0  0  0  0  0
  191.9570  176.6690  142.9920 C   0  0  0  0  0  3  0  0  0  0  0  0
  191.6480  175.4930  143.5500 C   0  0  0  0  0  0  0  0  0  0  0  0
  189.3200  175.6540  142.5640 C   0  0  0  0  0  2  0  0  0  0  0  0
  188.2370  177.7360  148.3850 C   0  0  0  0  0  1  0  0  0  0  0  0
  188.8570  177.7050  147.0690 N   0  0  0  0  0  0  0  0  0  0  0  0
  189.7210  176.5290  147.0160 C   0  0  0  0  0  2  0  0  0  0  0  0
  191.1500  176.9470  146.9700 C   0  0  0  0  0  0  0  0  0  0  0  0
  192.0270  176.5320  147.9620 O   0  0  0  0  0  1  0  0  0  0  0  0
  191.5690  177.6540  146.0160 O   0  0  0  0  0  0  0  0  0  0  0  0
  1  8  1  0  0  0  0
  2  8  2  0  0  0  0
  2  4  1  0  0  0  0
  3  4  1  0  0  0  0
  3 28  1  1  0  0  0
  5  1  2  0  0  0  0
  6  5  1  0  0  0  0
  6  7  2  0  0  0  0
  7  2  1  0  0  0  0
  9  7  1  0  0  0  0
  9 10  1  0  0  0  0
 10  3  1  0  0  0  0
 11  9  2  0  0  0  0
 12 16  1  0  0  0  0
 13 17  1  0  0  0  0
 14 13  1  0  0  0  0
 15 18  1  0  0  0  0
 16 11  1  1  0  0  0
 16 22  1  0  0  0  0
 17 12  1  0  0  0  0
 17 16  1  0  0  0  0
 18 17  1  0  0  0  0
 19 15  1  0  0  0  0
 19 14  1  0  0  0  0
 21 24  1  0  0  0  0
 22 21  1  6  0  0  0
 24 25  2  0  0  0  0
 25 23  1  0  0  0  0
 25 20  1  0  0  0  0
 26 22  1  0  0  0  0
 26 23  1  0  0  0  0
 28 27  1  0  0  0  0
 29 28  1  0  0  0  0
 30 29  1  0  0  0  0
 30 31  1  0  0  0  0
 32 30  2  0  0  0  0
M  END
>  <MODEL>
6

>  <REMARK>
 VINA RESULT:      -6.2      4.665      7.169
  Name = 
  5 active torsions:
  status: ('A' for Active; 'I' for Inactive)
    1  A    between atoms: C_3  and  N_15
    2  A    between atoms: C_4  and  C_20
    3  A    between atoms: N_15  and  C_20
    4  A    between atoms: C_19  and  C_24
    5  A    between atoms: C_19  and  N_32
                            x       y       z     vdW  Elec       q    Type
                         _______ _______ _______ _____ _____    ______ ____

>  <TORSDO>
F 5

$$$$
=
 OpenBabel11062412433D

 32 36  0  0  1  0  0  0  0  0999 V2000
  179.8980  179.1990  144.1320 N   0  0  0  0  0  0  0  0  0  0  0  0
  181.5260  178.9350  142.4050 C   0  0  0  0  0  0  0  0  0  0  0  0
  183.1780  178.3550  140.6030 C   0  0  1  0  0  3  0  0  0  0  0  0
  182.8630  178.6260  142.0050 N   0  0  0  0  0  2  0  0  0  0  0  0
  178.9310  179.4800  143.2180 C   0  0  0  0  0  3  0  0  0  0  0  0
  179.2390  179.5070  141.8560 C   0  0  0  0  0  3  0  0  0  0  0  0
  180.5500  179.2400  141.4430 C   0  0  0  0  0  0  0  0  0  0  0  0
  181.1780  178.9300  143.7580 C   0  0  0  0  0  3  0  0  0  0  0  0
  180.9370  179.3000  140.0170 C   0  0  0  0  0  0  0  0  0  0  0  0
  182.4020  179.3030  139.6700 C   0  0  0  0  0  2  0  0  0  0  0  0
  180.0210  179.3880  139.0960 N   0  0  0  0  0  0  0  0  0  0  0  0
  179.2290  178.7430  136.8470 C   0  0  0  0  0  2  0  0  0  0  0  0
  181.4090  178.2700  135.6180 C   0  0  0  0  0  2  0  0  0  0  0  0
  182.7170  177.4970  135.7520 C   0  0  0  0  0  2  0  0  0  0  0  0
  181.1580  175.7420  136.8410 C   0  0  0  0  0  2  0  0  0  0  0  0
  180.2820  179.4870  137.6600 C   0  0  2  0  0  0  0  0  0  0  0  0
  180.6410  178.1880  136.9360 C   0  0  0  0  0  0  0  0  0  0  0  0
  180.7220  176.8920  137.7450 C   0  0  0  0  0  2  0  0  0  0  0  0
  182.5030  176.0270  136.1550 C   0  0  0  0  0  2  0  0  0  0  0  0
  181.2020  184.8780  135.8450 O   0  0  0  0  0  1  0  0  0  0  0  0
  180.7810  181.9780  138.1950 C   0  0  0  0  0  2  0  0  0  0  0  0
  180.7120  180.8740  137.1320 C   0  0  2  0  0  3  0  0  0  0  0  0
  180.4240  182.5690  135.3190 C   0  0  0  0  0  2  0  0  0  0  0  0
  181.1160  183.3130  137.5930 C   0  0  0  0  0  3  0  0  0  0  0  0
  180.9040  183.6030  136.3050 C   0  0  0  0  0  0  0  0  0  0  0  0
  179.8160  181.3380  135.9890 C   0  0  0  0  0  2  0  0  0  0  0  0
  184.8960  178.8660  139.0490 C   0  0  0  0  0  1  0  0  0  0  0  0
  184.6330  178.3680  140.3900 N   0  0  0  0  0  0  0  0  0  0  0  0
  185.2980  179.2640  141.3320 C   0  0  0  0  0  2  0  0  0  0  0  0
  186.5080  178.6050  141.8970 C   0  0  0  0  0  0  0  0  0  0  0  0
  187.7370  178.7510  141.2660 O   0  0  0  0  0  0  0  0  0  0  0  0
  186.4240  177.9370  142.9600 O   0  0  0  0  0  1  0  0  0  0  0  0
  2  8  2  0  0  0  0
  3 28  1  1  0  0  0
  3  4  1  0  0  0  0
  4  2  1  0  0  0  0
  5  1  2  0  0  0  0
  6  5  1  0  0  0  0
  7  6  2  0  0  0  0
  7  2  1  0  0  0  0
  8  1  1  0  0  0  0
  9  7  1  0  0  0  0
 10  9  1  0  0  0  0
 10  3  1  0  0  0  0
 11  9  2  0  0  0  0
 12 17  1  0  0  0  0
 12 16  1  0  0  0  0
 13 14  1  0  0  0  0
 13 17  1  0  0  0  0
 14 19  1  0  0  0  0
 15 18  1  0  0  0  0
 16 11  1  1  0  0  0
 17 16  1  0  0  0  0
 17 18  1  0  0  0  0
 19 15  1  0  0  0  0
 20 25  1  0  0  0  0
 22 26  1  6  0  0  0
 22 16  1  0  0  0  0
 22 21  1  0  0  0  0
 23 26  1  0  0  0  0
 23 25  1  0  0  0  0
 24 21  1  0  0  0  0
 25 24  2  0  0  0  0
 27 28  1  0  0  0  0
 28 29  1  0  0  0  0
 29 30  1  0  0  0  0
 30 32  1  0  0  0  0
 31 30  2  0  0  0  0
M  END
>  <MODEL>
7

>  <REMARK>
 VINA RESULT:      -5.8      3.038      5.211
  Name = 
  5 active torsions:
  status: ('A' for Active; 'I' for Inactive)
    1  A    between atoms: C_3  and  N_15
    2  A    between atoms: C_4  and  C_20
    3  A    between atoms: N_15  and  C_20
    4  A    between atoms: C_19  and  C_24
    5  A    between atoms: C_19  and  N_32
                            x       y       z     vdW  Elec       q    Type
                         _______ _______ _______ _____ _____    ______ ____

>  <TORSDO>
F 5

$$$$
=
 OpenBabel11062412433D

 32 36  0  0  1  0  0  0  0  0999 V2000
  182.2060  179.3960  142.2100 N   0  0  0  0  0  0  0  0  0  0  0  0
  184.4500  178.9550  141.5230 C   0  0  0  0  0  0  0  0  0  0  0  0
  186.8630  178.7900  140.8410 C   0  0  1  0  0  3  0  0  0  0  0  0
  185.4490  178.9430  140.5000 N   0  0  0  0  0  2  0  0  0  0  0  0
  182.4970  179.0390  143.4900 C   0  0  0  0  0  3  0  0  0  0  0  0
  183.7850  178.6140  143.8250 C   0  0  0  0  0  3  0  0  0  0  0  0
  184.7710  178.5630  142.8330 C   0  0  0  0  0  0  0  0  0  0  0  0
  183.1470  179.3620  141.2280 C   0  0  0  0  0  3  0  0  0  0  0  0
  186.1370  178.0790  143.1270 C   0  0  0  0  0  0  0  0  0  0  0  0
  187.0510  177.7640  141.9720 C   0  0  0  0  0  2  0  0  0  0  0  0
  186.5120  177.8960  144.3600 N   0  0  0  0  0  0  0  0  0  0  0  0
  187.6980  176.0900  145.5560 C   0  0  0  0  0  2  0  0  0  0  0  0
  189.5600  177.3560  146.7460 C   0  0  0  0  0  2  0  0  0  0  0  0
  189.8050  178.5710  147.6370 C   0  0  0  0  0  2  0  0  0  0  0  0
  187.5530  177.8240  148.6710 C   0  0  0  0  0  2  0  0  0  0  0  0
  187.8220  177.3910  144.7720 C   0  0  2  0  0  0  0  0  0  0  0  0
  188.1070  177.3650  146.2740 C   0  0  0  0  0  0  0  0  0  0  0  0
  187.0340  177.8780  147.2370 C   0  0  0  0  0  2  0  0  0  0  0  0
  188.8510  178.6280  148.8440 C   0  0  0  0  0  2  0  0  0  0  0  0
  192.4870  177.5040  141.3920 O   0  0  0  0  0  1  0  0  0  0  0  0
  189.6520  176.1260  143.4340 C   0  0  0  0  0  2  0  0  0  0  0  0
  188.9490  177.4590  143.7170 C   0  0  2  0  0  3  0  0  0  0  0  0
  190.9380  178.7370  142.9060 C   0  0  0  0  0  2  0  0  0  0  0  0
  190.7920  176.2880  142.4700 C   0  0  0  0  0  3  0  0  0  0  0  0
  191.4130  177.4560  142.2690 C   0  0  0  0  0  0  0  0  0  0  0  0
  189.9940  178.5060  144.0850 C   0  0  0  0  0  2  0  0  0  0  0  0
  188.6780  177.5280  139.9820 C   0  0  0  0  0  1  0  0  0  0  0  0
  187.6550  178.5020  139.6360 N   0  0  0  0  0  0  0  0  0  0  0  0
  186.8260  177.9180  138.5850 C   0  0  0  0  0  2  0  0  0  0  0  0
  187.4260  178.1920  137.2500 C   0  0  0  0  0  0  0  0  0  0  0  0
  187.8140  177.1380  136.4330 O   0  0  0  0  0  0  0  0  0  0  0  0
  187.5580  179.3780  136.8490 O   0  0  0  0  0  1  0  0  0  0  0  0
  1  5  1  0  0  0  0
  2  7  2  0  0  0  0
  3 28  1  6  0  0  0
  3 10  1  0  0  0  0
  4  3  1  0  0  0  0
  4  2  1  0  0  0  0
  5  6  2  0  0  0  0
  7  9  1  0  0  0  0
  7  6  1  0  0  0  0
  8  2  1  0  0  0  0
  8  1  2  0  0  0  0
  9 11  2  0  0  0  0
 10  9  1  0  0  0  0
 12 17  1  0  0  0  0
 13 14  1  0  0  0  0
 14 19  1  0  0  0  0
 15 19  1  0  0  0  0
 16 11  1  6  0  0  0
 16 12  1  0  0  0  0
 16 17  1  0  0  0  0
 17 13  1  0  0  0  0
 17 18  1  0  0  0  0
 18 15  1  0  0  0  0
 20 25  1  0  0  0  0
 22 21  1  1  0  0  0
 22 26  1  0  0  0  0
 22 16  1  0  0  0  0
 23 26  1  0  0  0  0
 24 21  1  0  0  0  0
 25 24  2  0  0  0  0
 25 23  1  0  0  0  0
 28 27  1  0  0  0  0
 29 28  1  0  0  0  0
 30 29  1  0  0  0  0
 31 30  2  0  0  0  0
 32 30  1  0  0  0  0
M  END
>  <MODEL>
8

>  <REMARK>
 VINA RESULT:      -5.6      2.888      7.404
  Name = 
  5 active torsions:
  status: ('A' for Active; 'I' for Inactive)
    1  A    between atoms: C_3  and  N_15
    2  A    between atoms: C_4  and  C_20
    3  A    between atoms: N_15  and  C_20
    4  A    between atoms: C_19  and  C_24
    5  A    between atoms: C_19  and  N_32
                            x       y       z     vdW  Elec       q    Type
                         _______ _______ _______ _____ _____    ______ ____

>  <TORSDO>
F 5

$$$$
=
 OpenBabel11062412433D

 32 36  0  0  1  0  0  0  0  0999 V2000
  182.9920  179.5750  139.3740 N   0  0  0  0  0  0  0  0  0  0  0  0
  185.2680  178.8620  139.4810 C   0  0  0  0  0  0  0  0  0  0  0  0
  187.7370  178.4100  139.6170 C   0  0  1  0  0  3  0  0  0  0  0  0
  186.5210  178.6280  138.8340 N   0  0  0  0  0  2  0  0  0  0  0  0
  182.8370  179.3760  140.7110 C   0  0  0  0  0  3  0  0  0  0  0  0
  183.9020  178.8990  141.4790 C   0  0  0  0  0  3  0  0  0  0  0  0
  185.1280  178.6320  140.8600 C   0  0  0  0  0  0  0  0  0  0  0  0
  184.1740  179.3280  138.7490 C   0  0  0  0  0  3  0  0  0  0  0  0
  186.2730  178.0840  141.6190 C   0  0  0  0  0  0  0  0  0  0  0  0
  187.4480  177.5390  140.8520 C   0  0  0  0  0  2  0  0  0  0  0  0
  186.2330  178.0450  142.9200 N   0  0  0  0  0  0  0  0  0  0  0  0
  186.8070  176.2620  144.5310 C   0  0  0  0  0  2  0  0  0  0  0  0
  188.2520  177.5030  146.2220 C   0  0  0  0  0  2  0  0  0  0  0  0
  188.2750  178.7610  147.0850 C   0  0  0  0  0  2  0  0  0  0  0  0
  185.7570  178.2140  147.3260 C   0  0  0  0  0  2  0  0  0  0  0  0
  187.2860  177.4970  143.7750 C   0  0  2  0  0  0  0  0  0  0  0  0
  187.0470  177.5600  145.2850 C   0  0  0  0  0  0  0  0  0  0  0  0
  185.7550  178.1970  145.8000 C   0  0  0  0  0  2  0  0  0  0  0  0
  186.9780  178.9550  147.8920 C   0  0  0  0  0  2  0  0  0  0  0  0
  192.8110  177.1280  142.1810 O   0  0  0  0  0  1  0  0  0  0  0  0
  189.3660  176.0470  143.2210 C   0  0  0  0  0  2  0  0  0  0  0  0
  188.7040  177.4290  143.1640 C   0  0  2  0  0  3  0  0  0  0  0  0
  190.9320  178.5470  142.9980 C   0  0  0  0  0  2  0  0  0  0  0  0
  190.7720  176.0800  142.6930 C   0  0  0  0  0  3  0  0  0  0  0  0
  191.5040  177.1990  142.6430 C   0  0  0  0  0  0  0  0  0  0  0  0
  189.6340  178.4560  143.7990 C   0  0  0  0  0  2  0  0  0  0  0  0
  188.9700  178.7940  137.6270 C   0  0  0  0  0  1  0  0  0  0  0  0
  188.8160  177.8950  138.7610 N   0  0  0  0  0  0  0  0  0  0  0  0
  190.0880  177.8620  139.4750 C   0  0  0  0  0  2  0  0  0  0  0  0
  190.9050  176.7060  139.0110 C   0  0  0  0  0  0  0  0  0  0  0  0
  192.2860  176.8190  138.9310 O   0  0  0  0  0  1  0  0  0  0  0  0
  190.3450  175.6170  138.7170 O   0  0  0  0  0  0  0  0  0  0  0  0
  1  5  1  0  0  0  0
  2  7  2  0  0  0  0
  3 28  1  6  0  0  0
  3 10  1  0  0  0  0
  4  2  1  0  0  0  0
  4  3  1  0  0  0  0
  5  6  2  0  0  0  0
  7  6  1  0  0  0  0
  7  9  1  0  0  0  0
  8  1  2  0  0  0  0
  8  2  1  0  0  0  0
  9 11  2  0  0  0  0
 10  9  1  0  0  0  0
 12 17  1  0  0  0  0
 13 14  1  0  0  0  0
 14 19  1  0  0  0  0
 15 19  1  0  0  0  0
 16 11  1  6  0  0  0
 16 12  1  0  0  0  0
 16 17  1  0  0  0  0
 17 18  1  0  0  0  0
 17 13  1  0  0  0  0
 18 15  1  0  0  0  0
 20 25  1  0  0  0  0
 22 21  1  1  0  0  0
 22 16  1  0  0  0  0
 22 26  1  0  0  0  0
 23 26  1  0  0  0  0
 24 21  1  0  0  0  0
 25 24  2  0  0  0  0
 25 23  1  0  0  0  0
 27 28  1  0  0  0  0
 28 29  1  0  0  0  0
 30 29  1  0  0  0  0
 31 30  1  0  0  0  0
 32 30  2  0  0  0  0
M  END
>  <MODEL>
9

>  <REMARK>
 VINA RESULT:      -5.5      2.883      7.040
  Name = 
  5 active torsions:
  status: ('A' for Active; 'I' for Inactive)
    1  A    between atoms: C_3  and  N_15
    2  A    between atoms: C_4  and  C_20
    3  A    between atoms: N_15  and  C_20
    4  A    between atoms: C_19  and  C_24
    5  A    between atoms: C_19  and  N_32
                            x       y       z     vdW  Elec       q    Type
                         _______ _______ _______ _____ _____    ______ ____

>  <TORSDO>
F 5

$$$$
