=
 OpenBabel11062412043D

 48 54  0  0  1  0  0  0  0  0999 V2000
  182.9920  174.2250  135.5930 N   0  0  0  0  0  0  0  0  0  0  0  0
  185.5620  177.5800  137.4700 C   0  0  0  0  0  2  0  0  0  0  0  0
  181.1260  175.8330  134.8700 C   0  0  0  0  0  3  0  0  0  0  0  0
  180.6680  177.1970  135.3900 C   0  0  0  0  0  3  0  0  0  0  0  0
  186.0890  172.6870  136.3270 C   0  0  0  0  0  3  0  0  0  0  0  0
  184.9280  172.8370  135.7450 N   0  0  0  0  0  0  0  0  0  0  0  0
  185.0430  175.2660  136.1080 C   0  0  0  0  0  2  0  0  0  0  0  0
  181.2370  178.5460  137.4600 C   0  0  0  0  0  0  0  0  0  0  0  0
  186.7650  173.8180  137.0920 C   0  0  2  0  0  3  0  0  0  0  0  0
  182.3840  176.3680  136.7710 C   0  0  0  0  0  0  0  0  0  0  0  0
  181.4200  177.4040  136.6150 N   0  0  0  0  0  0  0  0  0  0  0  0
  188.5650  175.0960  135.7750 C   0  0  0  0  0  2  0  0  0  0  0  0
  181.0370  177.3570  139.4930 O   0  0  0  0  0  0  0  0  0  0  0  0
  183.3080  176.2740  137.9760 C   0  0  0  0  0  2  0  0  0  0  0  0
  181.1890  179.8040  136.9310 N   0  0  0  0  0  0  0  0  0  0  0  0
  184.2820  174.1140  135.7190 C   0  0  0  0  0  0  0  0  0  0  0  0
  180.9690  180.7350  138.2820 S   0  0  0  0  0  0  0  0  0  0  0  0
  180.8990  179.6370  139.5060 N   0  0  0  0  0  0  0  0  0  0  0  0
  188.6000  176.4990  136.4410 C   0  0  1  0  0  3  0  0  0  0  0  0
  186.4680  176.3390  137.7320 C   0  0  2  0  0  3  0  0  0  0  0  0
  187.9360  176.5690  137.7710 N   0  0  0  0  0  0  0  0  0  0  0  0
  184.2040  177.5160  138.2150 C   0  0  0  0  0  2  0  0  0  0  0  0
  182.2410  175.4550  135.7870 C   0  0  0  0  0  0  0  0  0  0  0  0
  186.0740  175.1450  136.9130 C   0  0  2  0  0  3  0  0  0  0  0  0
  181.0630  178.4530  138.8720 C   0  0  0  0  0  0  0  0  0  0  0  0
  188.2570  173.9330  136.7380 C   0  0  0  0  0  2  0  0  0  0  0  0
  179.8970  180.9570  141.1380 O   0  0  0  0  0  1  0  0  0  0  0  0
  180.7800  179.8990  140.9300 C   0  0  0  0  0  2  0  0  0  0  0  0
  190.0660  176.9700  136.4880 C   0  0  0  0  0  2  0  0  0  0  0  0
  191.9760  176.1890  135.3920 C   0  0  0  0  0  2  0  0  0  0  0  0
  193.2700  175.9150  135.8610 O   0  0  0  0  0  0  0  0  0  0  0  0
  190.9970  175.8490  136.4130 N   0  0  0  0  0  0  0  0  0  0  0  0
  191.7600  175.8230  137.6400 C   0  0  0  0  0  2  0  0  0  0  0  0
  193.1890  176.0680  137.2470 C   0  0  1  0  0  3  0  0  0  0  0  0
  194.0720  175.0780  137.9280 C   0  0  0  0  0  3  0  0  0  0  0  0
  194.9040  175.4510  138.7390 O   0  0  0  0  0  0  0  0  0  0  0  0
  188.2020  177.8580  138.4160 C   0  0  0  0  0  2  0  0  0  0  0  0
  189.1570  177.6740  139.5820 C   0  0  0  0  0  2  0  0  0  0  0  0
  187.0040  178.3530  140.5890 C   0  0  0  0  0  2  0  0  0  0  0  0
  186.2850  178.8190  141.8560 C   0  0  1  0  0  3  0  0  0  0  0  0
  189.8190  176.6170  142.2630 F   0  0  0  0  0  0  0  0  0  0  0  0
  184.7880  178.8040  141.6070 C   0  0  0  0  0  1  0  0  0  0  0  0
  186.6440  178.0100  143.0900 C   0  0  0  0  0  0  0  0  0  0  0  0
  188.4650  178.0390  140.8840 C   0  0  1  0  0  3  0  0  0  0  0  0
  188.5160  176.8760  141.8780 C   0  0  2  0  0  3  0  0  0  0  0  0
  187.6940  177.1710  143.1010 C   0  0  0  0  0  3  0  0  0  0  0  0
  186.6760  177.8090  145.4520 O   0  0  0  0  0  1  0  0  0  0  0  0
  185.9180  178.2650  144.3730 C   0  0  0  0  0  2  0  0  0  0  0  0
  1 16  2  0  0  0  0
  1 23  1  0  0  0  0
  2 22  1  0  0  0  0
  3  4  2  0  0  0  0
  3 23  1  0  0  0  0
  4 11  1  0  0  0  0
  6  5  2  0  0  0  0
  8 25  1  0  0  0  0
  9  5  1  6  0  0  0
 10 14  1  0  0  0  0
 11 10  1  0  0  0  0
 11  8  1  0  0  0  0
 12 19  1  0  0  0  0
 12 26  1  0  0  0  0
 14 22  1  0  0  0  0
 15  8  2  0  0  0  0
 15 17  1  0  0  0  0
 16  6  1  0  0  0  0
 16  7  1  0  0  0  0
 17 18  1  0  0  0  0
 18 28  1  0  0  0  0
 19 29  1  1  0  0  0
 19 21  1  0  0  0  0
 20  2  1  6  0  0  0
 20 21  1  0  0  0  0
 21 37  1  0  0  0  0
 23 10  2  0  0  0  0
 24  7  1  1  0  0  0
 24  9  1  0  0  0  0
 24 20  1  0  0  0  0
 25 13  2  0  0  0  0
 25 18  1  0  0  0  0
 26  9  1  0  0  0  0
 28 27  1  0  0  0  0
 30 31  1  0  0  0  0
 30 32  1  0  0  0  0
 31 34  1  0  0  0  0
 32 29  1  0  0  0  0
 32 33  1  0  0  0  0
 34 33  1  0  0  0  0
 34 35  1  1  0  0  0
 35 36  2  0  0  0  0
 37 38  1  0  0  0  0
 39 44  1  0  0  0  0
 39 40  1  0  0  0  0
 40 42  1  6  0  0  0
 40 43  1  0  0  0  0
 43 46  2  0  0  0  0
 43 48  1  0  0  0  0
 44 38  1  6  0  0  0
 44 45  1  0  0  0  0
 45 41  1  1  0  0  0
 45 46  1  0  0  0  0
 48 47  1  0  0  0  0
M  END
>  <MODEL>
1

>  <REMARK>
 VINA RESULT:      -7.2      0.000      0.000
  Name = 
  8 active torsions:
  status: ('A' for Active; 'I' for Inactive)
    1  A    between atoms: C_2  and  C_42
    2  A    between atoms: C_16  and  N_28
    3  A    between atoms: C_16  and  C_33
    4  A    between atoms: C_21  and  C_23
    5  A    between atoms: C_21  and  N_37
    6  A    between atoms: C_23  and  C_29
    7  A    between atoms: C_27  and  C_40
    8  A    between atoms: N_32  and  C_38
                            x       y       z     vdW  Elec       q    Type
                         _______ _______ _______ _____ _____    ______ ____

>  <TORSDO>
F 8

$$$$
=
 OpenBabel11062412043D

 48 54  0  0  1  0  0  0  0  0999 V2000
  182.3740  177.0570  135.4020 N   0  0  0  0  0  0  0  0  0  0  0  0
  184.3860  178.9380  139.1150 C   0  0  0  0  0  2  0  0  0  0  0  0
  180.6180  178.9190  135.2060 C   0  0  0  0  0  3  0  0  0  0  0  0
  180.0100  179.8880  136.2210 C   0  0  0  0  0  3  0  0  0  0  0  0
  185.3310  175.1790  135.8740 C   0  0  0  0  0  3  0  0  0  0  0  0
  184.3000  175.6580  135.2290 N   0  0  0  0  0  0  0  0  0  0  0  0
  184.2400  177.6010  136.7340 C   0  0  0  0  0  2  0  0  0  0  0  0
  180.1090  180.0380  138.7510 C   0  0  0  0  0  0  0  0  0  0  0  0
  185.7970  175.7610  137.2030 C   0  0  2  0  0  3  0  0  0  0  0  0
  181.4600  178.3990  137.3270 C   0  0  0  0  0  0  0  0  0  0  0  0
  180.5010  179.4350  137.5120 N   0  0  0  0  0  0  0  0  0  0  0  0
  187.7640  177.4090  137.0380 C   0  0  0  0  0  2  0  0  0  0  0  0
  179.5680  178.0310  139.8760 O   0  0  0  0  0  0  0  0  0  0  0  0
  182.1340  177.6830  138.4880 C   0  0  0  0  0  2  0  0  0  0  0  0
  180.1120  181.3960  138.8980 N   0  0  0  0  0  0  0  0  0  0  0  0
  183.6180  176.8250  135.7010 C   0  0  0  0  0  0  0  0  0  0  0  0
  179.5940  181.5720  140.4610 S   0  0  0  0  0  0  0  0  0  0  0  0
  179.3340  180.0260  140.9620 N   0  0  0  0  0  0  0  0  0  0  0  0
  187.6090  178.3130  138.2910 C   0  0  1  0  0  3  0  0  0  0  0  0
  185.2760  177.6750  138.9110 C   0  0  2  0  0  3  0  0  0  0  0  0
  186.6980  177.7720  139.3350 N   0  0  0  0  0  0  0  0  0  0  0  0
  182.9140  178.6020  139.4630 C   0  0  0  0  0  2  0  0  0  0  0  0
  181.5480  178.0820  136.0190 C   0  0  0  0  0  0  0  0  0  0  0  0
  185.1000  177.0480  137.5600 C   0  0  2  0  0  3  0  0  0  0  0  0
  179.6680  179.2870  139.8800 C   0  0  0  0  0  0  0  0  0  0  0  0
  187.3240  175.9460  137.2400 C   0  0  0  0  0  2  0  0  0  0  0  0
  180.0610  179.2370  143.0260 O   0  0  0  0  0  1  0  0  0  0  0  0
  178.9310  179.5760  142.2830 C   0  0  0  0  0  2  0  0  0  0  0  0
  189.0170  178.6170  138.8380 C   0  0  0  0  0  2  0  0  0  0  0  0
  190.8000  177.1080  138.7870 C   0  0  0  0  0  2  0  0  0  0  0  0
  191.8560  176.8860  139.6850 O   0  0  0  0  0  0  0  0  0  0  0  0
  189.5940  177.4640  139.5200 N   0  0  0  0  0  0  0  0  0  0  0  0
  190.0800  177.9060  140.8070 C   0  0  0  0  0  2  0  0  0  0  0  0
  191.5670  177.6970  140.7850 C   0  0  1  0  0  3  0  0  0  0  0  0
  191.9970  177.0260  142.0460 C   0  0  0  0  0  3  0  0  0  0  0  0
  191.5880  177.4250  143.1240 O   0  0  0  0  0  0  0  0  0  0  0  0
  186.7780  178.5740  140.5600 C   0  0  0  0  0  2  0  0  0  0  0  0
  185.8490  178.0070  141.6200 C   0  0  0  0  0  2  0  0  0  0  0  0
  185.3820  178.4070  144.0140 C   0  0  0  0  0  2  0  0  0  0  0  0
  185.9780  178.6490  145.4020 C   0  0  1  0  0  3  0  0  0  0  0  0
  188.2940  176.6360  142.5580 F   0  0  0  0  0  0  0  0  0  0  0  0
  184.8690  178.5760  146.4350 C   0  0  0  0  0  1  0  0  0  0  0  0
  187.1130  177.7020  145.7480 C   0  0  0  0  0  0  0  0  0  0  0  0
  186.4820  178.1460  142.9930 C   0  0  1  0  0  3  0  0  0  0  0  0
  187.2150  176.8630  143.3930 C   0  0  2  0  0  3  0  0  0  0  0  0
  187.7020  176.9370  144.8130 C   0  0  0  0  0  3  0  0  0  0  0  0
  188.9790  177.1710  147.1100 O   0  0  0  0  0  1  0  0  0  0  0  0
  187.7030  177.7340  147.1230 C   0  0  0  0  0  2  0  0  0  0  0  0
  1 16  2  0  0  0  0
  1 23  1  0  0  0  0
  2 22  1  0  0  0  0
  3 23  1  0  0  0  0
  3  4  2  0  0  0  0
  4 11  1  0  0  0  0
  6 16  1  0  0  0  0
  6  5  2  0  0  0  0
  8 15  2  0  0  0  0
  8 25  1  0  0  0  0
  9  5  1  6  0  0  0
  9 26  1  0  0  0  0
  9 24  1  0  0  0  0
 10 11  1  0  0  0  0
 10 14  1  0  0  0  0
 11  8  1  0  0  0  0
 12 26  1  0  0  0  0
 12 19  1  0  0  0  0
 13 25  2  0  0  0  0
 14 22  1  0  0  0  0
 15 17  1  0  0  0  0
 16  7  1  0  0  0  0
 17 18  1  0  0  0  0
 18 28  1  0  0  0  0
 19 29  1  1  0  0  0
 19 21  1  0  0  0  0
 20  2  1  6  0  0  0
 20 21  1  0  0  0  0
 21 37  1  0  0  0  0
 23 10  2  0  0  0  0
 24  7  1  1  0  0  0
 24 20  1  0  0  0  0
 25 18  1  0  0  0  0
 28 27  1  0  0  0  0
 29 32  1  0  0  0  0
 30 32  1  0  0  0  0
 30 31  1  0  0  0  0
 31 34  1  0  0  0  0
 32 33  1  0  0  0  0
 34 33  1  0  0  0  0
 34 35  1  1  0  0  0
 35 36  2  0  0  0  0
 37 38  1  0  0  0  0
 39 40  1  0  0  0  0
 40 43  1  0  0  0  0
 40 42  1  1  0  0  0
 43 48  1  0  0  0  0
 44 38  1  6  0  0  0
 44 45  1  0  0  0  0
 44 39  1  0  0  0  0
 45 41  1  6  0  0  0
 45 46  1  0  0  0  0
 46 43  2  0  0  0  0
 47 48  1  0  0  0  0
M  END
>  <MODEL>
2

>  <REMARK>
 VINA RESULT:      -6.7      2.092      3.024
  Name = 
  8 active torsions:
  status: ('A' for Active; 'I' for Inactive)
    1  A    between atoms: C_2  and  C_42
    2  A    between atoms: C_16  and  N_28
    3  A    between atoms: C_16  and  C_33
    4  A    between atoms: C_21  and  C_23
    5  A    between atoms: C_21  and  N_37
    6  A    between atoms: C_23  and  C_29
    7  A    between atoms: C_27  and  C_40
    8  A    between atoms: N_32  and  C_38
                            x       y       z     vdW  Elec       q    Type
                         _______ _______ _______ _____ _____    ______ ____

>  <TORSDO>
F 8

$$$$
=
 OpenBabel11062412043D

 48 54  0  0  1  0  0  0  0  0999 V2000
  186.4380  175.2080  135.3300 N   0  0  0  0  0  0  0  0  0  0  0  0
  188.8560  176.9240  138.8780 C   0  0  0  0  0  2  0  0  0  0  0  0
  187.9440  173.1440  135.0870 C   0  0  0  0  0  3  0  0  0  0  0  0
  189.4030  172.8710  135.4570 C   0  0  0  0  0  3  0  0  0  0  0  0
  184.4850  177.8950  136.5390 C   0  0  0  0  0  3  0  0  0  0  0  0
  184.7370  176.7850  135.8970 N   0  0  0  0  0  0  0  0  0  0  0  0
  186.6390  176.3360  137.3900 C   0  0  0  0  0  2  0  0  0  0  0  0
  191.3080  174.3600  136.2210 C   0  0  0  0  0  0  0  0  0  0  0  0
  185.4530  178.4790  137.5600 C   0  0  2  0  0  3  0  0  0  0  0  0
  188.8870  175.1230  135.9100 C   0  0  0  0  0  0  0  0  0  0  0  0
  189.9360  174.1610  135.8580 N   0  0  0  0  0  0  0  0  0  0  0  0
  184.8920  177.9520  140.0140 C   0  0  0  0  0  2  0  0  0  0  0  0
  191.6840  176.2530  134.8560 O   0  0  0  0  0  0  0  0  0  0  0  0
  189.1240  176.5840  136.2590 C   0  0  0  0  0  2  0  0  0  0  0  0
  191.9320  173.5060  137.0840 N   0  0  0  0  0  0  0  0  0  0  0  0
  185.9030  176.0120  136.2020 C   0  0  0  0  0  0  0  0  0  0  0  0
  193.4530  174.1550  137.1690 S   0  0  0  0  0  0  0  0  0  0  0  0
  193.3840  175.4450  136.1500 N   0  0  0  0  0  0  0  0  0  0  0  0
  186.2610  178.0380  140.7430 C   0  0  1  0  0  3  0  0  0  0  0  0
  187.7440  178.0060  138.7340 C   0  0  2  0  0  3  0  0  0  0  0  0
  187.3330  178.7220  139.9700 N   0  0  0  0  0  0  0  0  0  0  0  0
  189.7850  176.8310  137.6400 C   0  0  0  0  0  2  0  0  0  0  0  0
  187.7360  174.5700  135.4750 C   0  0  0  0  0  0  0  0  0  0  0  0
  186.5860  177.5460  137.8990 C   0  0  2  0  0  3  0  0  0  0  0  0
  192.1090  175.4170  135.6970 C   0  0  0  0  0  0  0  0  0  0  0  0
  184.7270  178.9350  138.8380 C   0  0  0  0  0  2  0  0  0  0  0  0
  195.6460  175.9450  136.3520 O   0  0  0  0  0  1  0  0  0  0  0  0
  194.4230  176.4230  135.8830 C   0  0  0  0  0  2  0  0  0  0  0  0
  186.0280  178.6800  142.1240 C   0  0  0  0  0  2  0  0  0  0  0  0
  185.1760  178.3150  144.2680 C   0  0  0  0  0  2  0  0  0  0  0  0
  183.9590  178.6880  144.8610 O   0  0  0  0  0  0  0  0  0  0  0  0
  184.9670  178.0040  142.8630 N   0  0  0  0  0  0  0  0  0  0  0  0
  183.7170  178.6530  142.5390 C   0  0  0  0  0  2  0  0  0  0  0  0
  183.2110  179.2460  143.8220 C   0  0  1  0  0  3  0  0  0  0  0  0
  181.7660  178.9150  143.9920 C   0  0  0  0  0  3  0  0  0  0  0  0
  180.9310  179.4190  143.2600 O   0  0  0  0  0  0  0  0  0  0  0  0
  188.5130  178.9470  140.8090 C   0  0  0  0  0  2  0  0  0  0  0  0
  189.0980  177.6190  141.2600 C   0  0  0  0  0  2  0  0  0  0  0  0
  188.6900  177.5310  143.6960 C   0  0  0  0  0  2  0  0  0  0  0  0
  189.2720  177.7690  145.0910 C   0  0  1  0  0  3  0  0  0  0  0  0
  191.9080  176.9950  141.9350 F   0  0  0  0  0  0  0  0  0  0  0  0
  188.3140  177.2090  146.1270 C   0  0  0  0  0  1  0  0  0  0  0  0
  190.6680  177.2000  145.2710 C   0  0  0  0  0  0  0  0  0  0  0  0
  189.7450  177.7730  142.6240 C   0  0  1  0  0  3  0  0  0  0  0  0
  190.8710  176.7530  142.8170 C   0  0  2  0  0  3  0  0  0  0  0  0
  191.4040  176.7930  144.2220 C   0  0  0  0  0  3  0  0  0  0  0  0
  192.2600  176.2240  146.7320 O   0  0  0  0  0  1  0  0  0  0  0  0
  191.3090  177.2390  146.6230 C   0  0  0  0  0  2  0  0  0  0  0  0
  1 23  1  0  0  0  0
  1 16  2  0  0  0  0
  3  4  2  0  0  0  0
  3 23  1  0  0  0  0
  4 11  1  0  0  0  0
  6 16  1  0  0  0  0
  6  5  2  0  0  0  0
  8 15  2  0  0  0  0
  9  5  1  6  0  0  0
  9 24  1  0  0  0  0
  9 26  1  0  0  0  0
 10 14  1  0  0  0  0
 11 10  1  0  0  0  0
 11  8  1  0  0  0  0
 12 19  1  0  0  0  0
 13 25  2  0  0  0  0
 14 22  1  0  0  0  0
 15 17  1  0  0  0  0
 16  7  1  0  0  0  0
 18 17  1  0  0  0  0
 19 29  1  1  0  0  0
 20  2  1  1  0  0  0
 20 21  1  0  0  0  0
 21 19  1  0  0  0  0
 21 37  1  0  0  0  0
 22  2  1  0  0  0  0
 23 10  2  0  0  0  0
 24  7  1  6  0  0  0
 24 20  1  0  0  0  0
 25 18  1  0  0  0  0
 25  8  1  0  0  0  0
 26 12  1  0  0  0  0
 28 18  1  0  0  0  0
 28 27  1  0  0  0  0
 29 32  1  0  0  0  0
 30 31  1  0  0  0  0
 32 30  1  0  0  0  0
 33 32  1  0  0  0  0
 33 34  1  0  0  0  0
 34 35  1  1  0  0  0
 34 31  1  0  0  0  0
 36 35  2  0  0  0  0
 37 38  1  0  0  0  0
 39 40  1  0  0  0  0
 40 43  1  0  0  0  0
 40 42  1  1  0  0  0
 43 48  1  0  0  0  0
 44 38  1  6  0  0  0
 44 45  1  0  0  0  0
 44 39  1  0  0  0  0
 45 41  1  6  0  0  0
 45 46  1  0  0  0  0
 46 43  2  0  0  0  0
 48 47  1  0  0  0  0
M  END
>  <MODEL>
3

>  <REMARK>
 VINA RESULT:      -6.5      3.205      8.412
  Name = 
  8 active torsions:
  status: ('A' for Active; 'I' for Inactive)
    1  A    between atoms: C_2  and  C_42
    2  A    between atoms: C_16  and  N_28
    3  A    between atoms: C_16  and  C_33
    4  A    between atoms: C_21  and  C_23
    5  A    between atoms: C_21  and  N_37
    6  A    between atoms: C_23  and  C_29
    7  A    between atoms: C_27  and  C_40
    8  A    between atoms: N_32  and  C_38
                            x       y       z     vdW  Elec       q    Type
                         _______ _______ _______ _____ _____    ______ ____

>  <TORSDO>
F 8

$$$$
=
 OpenBabel11062412043D

 48 54  0  0  1  0  0  0  0  0999 V2000
  179.2090  176.7610  140.4010 N   0  0  0  0  0  0  0  0  0  0  0  0
  183.7870  177.3000  140.7520 C   0  0  0  0  0  2  0  0  0  0  0  0
  179.4010  174.5060  139.1890 C   0  0  0  0  0  3  0  0  0  0  0  0
  180.4960  173.8790  138.3240 C   0  0  0  0  0  3  0  0  0  0  0  0
  179.6290  179.5390  142.5450 C   0  0  0  0  0  3  0  0  0  0  0  0
  179.0100  178.5300  141.9920 N   0  0  0  0  0  0  0  0  0  0  0  0
  181.1660  177.4480  141.5180 C   0  0  0  0  0  2  0  0  0  0  0  0
  182.6240  174.7900  137.2890 C   0  0  0  0  0  0  0  0  0  0  0  0
  181.1370  179.7260  142.4350 C   0  0  2  0  0  3  0  0  0  0  0  0
  181.1150  176.0750  138.9040 C   0  0  0  0  0  0  0  0  0  0  0  0
  181.4630  174.9430  138.1140 N   0  0  0  0  0  0  0  0  0  0  0  0
  182.4850  178.9060  144.4650 C   0  0  0  0  0  2  0  0  0  0  0  0
  182.3370  176.7730  136.0360 O   0  0  0  0  0  0  0  0  0  0  0  0
  181.9080  177.3730  138.8800 C   0  0  0  0  0  2  0  0  0  0  0  0
  183.4230  173.6890  137.4070 N   0  0  0  0  0  0  0  0  0  0  0  0
  179.7450  177.4930  141.3330 C   0  0  0  0  0  0  0  0  0  0  0  0
  184.5880  173.9870  136.2690 S   0  0  0  0  0  0  0  0  0  0  0  0
  184.1270  175.4210  135.6060 N   0  0  0  0  0  0  0  0  0  0  0  0
  183.8880  178.5810  143.8830 C   0  0  1  0  0  3  0  0  0  0  0  0
  183.2870  178.5950  141.4590 C   0  0  2  0  0  3  0  0  0  0  0  0
  184.1470  179.1540  142.5350 N   0  0  0  0  0  0  0  0  0  0  0  0
  183.4070  177.2350  139.2500 C   0  0  0  0  0  2  0  0  0  0  0  0
  179.9410  175.8550  139.5310 C   0  0  0  0  0  0  0  0  0  0  0  0
  181.8350  178.5350  141.8300 C   0  0  2  0  0  3  0  0  0  0  0  0
  183.0030  175.7340  136.2900 C   0  0  0  0  0  0  0  0  0  0  0  0
  181.7670  180.0910  143.7890 C   0  0  0  0  0  2  0  0  0  0  0  0
  185.8920  176.8740  135.1780 O   0  0  0  0  0  1  0  0  0  0  0  0
  184.8220  176.1970  134.5940 C   0  0  0  0  0  2  0  0  0  0  0  0
  184.9460  179.0070  144.9190 C   0  0  0  0  0  2  0  0  0  0  0  0
  186.7040  177.4740  144.7970 C   0  0  0  0  0  2  0  0  0  0  0  0
  187.8040  177.2520  145.6410 O   0  0  0  0  0  0  0  0  0  0  0  0
  185.5440  177.8570  145.5860 N   0  0  0  0  0  0  0  0  0  0  0  0
  186.1030  178.3110  146.8390 C   0  0  0  0  0  2  0  0  0  0  0  0
  187.5840  178.0820  146.7420 C   0  0  1  0  0  3  0  0  0  0  0  0
  188.0720  177.4240  147.9890 C   0  0  0  0  0  3  0  0  0  0  0  0
  188.0420  178.0220  149.0510 O   0  0  0  0  0  0  0  0  0  0  0  0
  185.5540  178.9830  142.1610 C   0  0  0  0  0  2  0  0  0  0  0  0
  185.7030  179.0200  140.6490 C   0  0  0  0  0  2  0  0  0  0  0  0
  187.8130  177.9970  141.4320 C   0  0  0  0  0  2  0  0  0  0  0  0
  189.2880  177.7330  141.1230 C   0  0  1  0  0  3  0  0  0  0  0  0
  186.6670  178.3830  137.9280 F   0  0  0  0  0  0  0  0  0  0  0  0
  189.8410  176.7620  142.1500 C   0  0  0  0  0  1  0  0  0  0  0  0
  189.5330  177.2360  139.7100 C   0  0  0  0  0  0  0  0  0  0  0  0
  187.1340  178.6950  140.2600 C   0  0  1  0  0  3  0  0  0  0  0  0
  187.1760  177.7570  139.0510 C   0  0  2  0  0  3  0  0  0  0  0  0
  188.5800  177.3030  138.7640 C   0  0  0  0  0  3  0  0  0  0  0  0
  190.8550  175.5970  138.6220 O   0  0  0  0  0  1  0  0  0  0  0  0
  190.9100  176.8100  139.3090 C   0  0  0  0  0  2  0  0  0  0  0  0
  1 16  2  0  0  0  0
  3 23  1  0  0  0  0
  4  3  2  0  0  0  0
  6  5  2  0  0  0  0
  8 15  2  0  0  0  0
  8 11  1  0  0  0  0
  9  5  1  1  0  0  0
  9 26  1  0  0  0  0
 10 23  2  0  0  0  0
 11  4  1  0  0  0  0
 11 10  1  0  0  0  0
 13 25  2  0  0  0  0
 14 10  1  0  0  0  0
 14 22  1  0  0  0  0
 16  7  1  0  0  0  0
 16  6  1  0  0  0  0
 17 15  1  0  0  0  0
 18 17  1  0  0  0  0
 18 25  1  0  0  0  0
 19 12  1  0  0  0  0
 19 29  1  1  0  0  0
 20  2  1  1  0  0  0
 20 24  1  0  0  0  0
 20 21  1  0  0  0  0
 21 19  1  0  0  0  0
 22  2  1  0  0  0  0
 23  1  1  0  0  0  0
 24  7  1  6  0  0  0
 24  9  1  0  0  0  0
 25  8  1  0  0  0  0
 26 12  1  0  0  0  0
 28 27  1  0  0  0  0
 28 18  1  0  0  0  0
 29 32  1  0  0  0  0
 30 32  1  0  0  0  0
 30 31  1  0  0  0  0
 31 34  1  0  0  0  0
 32 33  1  0  0  0  0
 34 33  1  0  0  0  0
 34 35  1  1  0  0  0
 35 36  2  0  0  0  0
 37 21  1  0  0  0  0
 38 37  1  0  0  0  0
 40 39  1  0  0  0  0
 40 42  1  1  0  0  0
 43 40  1  0  0  0  0
 44 38  1  1  0  0  0
 44 39  1  0  0  0  0
 45 41  1  6  0  0  0
 45 44  1  0  0  0  0
 46 45  1  0  0  0  0
 46 43  2  0  0  0  0
 47 48  1  0  0  0  0
 48 43  1  0  0  0  0
M  END
>  <MODEL>
4

>  <REMARK>
 VINA RESULT:      -6.3      3.226      7.506
  Name = 
  8 active torsions:
  status: ('A' for Active; 'I' for Inactive)
    1  A    between atoms: C_2  and  C_42
    2  A    between atoms: C_16  and  N_28
    3  A    between atoms: C_16  and  C_33
    4  A    between atoms: C_21  and  C_23
    5  A    between atoms: C_21  and  N_37
    6  A    between atoms: C_23  and  C_29
    7  A    between atoms: C_27  and  C_40
    8  A    between atoms: N_32  and  C_38
                            x       y       z     vdW  Elec       q    Type
                         _______ _______ _______ _____ _____    ______ ____

>  <TORSDO>
F 8

$$$$
=
 OpenBabel11062412043D

 48 54  0  0  1  0  0  0  0  0999 V2000
  189.9430  175.4430  135.0210 N   0  0  0  0  0  0  0  0  0  0  0  0
  191.7500  175.9720  139.2440 C   0  0  0  0  0  2  0  0  0  0  0  0
  191.0770  173.1720  134.6400 C   0  0  0  0  0  3  0  0  0  0  0  0
  192.3410  172.5300  135.2150 C   0  0  0  0  0  3  0  0  0  0  0  0
  188.2710  178.2490  136.3730 C   0  0  0  0  0  3  0  0  0  0  0  0
  188.4640  177.2340  135.5720 N   0  0  0  0  0  0  0  0  0  0  0  0
  189.8630  176.1380  137.2710 C   0  0  0  0  0  2  0  0  0  0  0  0
  194.2530  173.4200  136.6240 C   0  0  0  0  0  0  0  0  0  0  0  0
  189.0680  178.4290  137.6600 C   0  0  2  0  0  3  0  0  0  0  0  0
  192.1410  174.7310  136.0250 C   0  0  0  0  0  0  0  0  0  0  0  0
  192.9870  173.5870  135.9730 N   0  0  0  0  0  0  0  0  0  0  0  0
  187.8770  177.6320  139.7950 C   0  0  0  0  0  2  0  0  0  0  0  0
  195.2590  175.3870  135.7850 O   0  0  0  0  0  0  0  0  0  0  0  0
  192.5450  176.0260  136.7130 C   0  0  0  0  0  2  0  0  0  0  0  0
  194.5010  172.3170  137.3910 N   0  0  0  0  0  0  0  0  0  0  0  0
  189.3740  176.1860  135.9240 C   0  0  0  0  0  0  0  0  0  0  0  0
  196.0520  172.5970  137.8980 S   0  0  0  0  0  0  0  0  0  0  0  0
  196.4470  174.0230  137.1800 N   0  0  0  0  0  0  0  0  0  0  0  0
  189.0350  177.2940  140.7730 C   0  0  1  0  0  3  0  0  0  0  0  0
  190.9090  177.2780  139.1220 C   0  0  2  0  0  3  0  0  0  0  0  0
  190.3580  177.8480  140.3800 N   0  0  0  0  0  0  0  0  0  0  0  0
  192.9060  175.8880  138.2140 C   0  0  0  0  0  2  0  0  0  0  0  0
  191.0410  174.5230  135.2720 C   0  0  0  0  0  0  0  0  0  0  0  0
  189.9100  177.2280  138.0050 C   0  0  2  0  0  3  0  0  0  0  0  0
  195.3260  174.3490  136.4960 C   0  0  0  0  0  0  0  0  0  0  0  0
  188.1610  178.8100  138.8430 C   0  0  0  0  0  2  0  0  0  0  0  0
  197.9160  175.0240  138.6790 O   0  0  0  0  0  1  0  0  0  0  0  0
  197.6760  174.7830  137.3270 C   0  0  0  0  0  2  0  0  0  0  0  0
  188.6090  177.7300  142.1880 C   0  0  0  0  0  2  0  0  0  0  0  0
  187.4010  176.6950  143.8980 C   0  0  0  0  0  2  0  0  0  0  0  0
  186.3090  177.1350  144.6640 O   0  0  0  0  0  0  0  0  0  0  0  0
  187.2940  177.2090  142.5420 N   0  0  0  0  0  0  0  0  0  0  0  0
  186.3890  178.3300  142.6590 C   0  0  0  0  0  2  0  0  0  0  0  0
  185.9400  178.3540  144.0920 C   0  0  1  0  0  3  0  0  0  0  0  0
  184.4590  178.5230  144.1500 C   0  0  0  0  0  3  0  0  0  0  0  0
  183.9230  178.9050  145.1780 O   0  0  0  0  0  0  0  0  0  0  0  0
  191.3370  177.6680  141.4560 C   0  0  0  0  0  2  0  0  0  0  0  0
  190.9940  178.5650  142.6330 C   0  0  0  0  0  2  0  0  0  0  0  0
  190.3670  178.1740  144.9920 C   0  0  0  0  0  2  0  0  0  0  0  0
  190.8030  177.6120  146.3460 C   0  0  1  0  0  3  0  0  0  0  0  0
  192.5960  176.0930  142.8840 F   0  0  0  0  0  0  0  0  0  0  0  0
  189.6080  177.5980  147.2820 C   0  0  0  0  0  1  0  0  0  0  0  0
  191.4450  176.2390  146.2550 C   0  0  0  0  0  0  0  0  0  0  0  0
  191.4280  177.9080  143.9310 C   0  0  1  0  0  3  0  0  0  0  0  0
  191.5690  176.3940  143.7600 C   0  0  2  0  0  3  0  0  0  0  0  0
  191.8370  175.7220  145.0780 C   0  0  0  0  0  3  0  0  0  0  0  0
  193.0560  175.9130  147.9630 O   0  0  0  0  0  1  0  0  0  0  0  0
  191.7990  175.5090  147.5120 C   0  0  0  0  0  2  0  0  0  0  0  0
  1 23  1  0  0  0  0
  1 16  2  0  0  0  0
  3  4  2  0  0  0  0
  3 23  1  0  0  0  0
  4 11  1  0  0  0  0
  6 16  1  0  0  0  0
  6  5  2  0  0  0  0
  8 15  2  0  0  0  0
  9  5  1  6  0  0  0
  9 24  1  0  0  0  0
  9 26  1  0  0  0  0
 10 14  1  0  0  0  0
 11 10  1  0  0  0  0
 11  8  1  0  0  0  0
 12 19  1  0  0  0  0
 13 25  2  0  0  0  0
 14 22  1  0  0  0  0
 15 17  1  0  0  0  0
 16  7  1  0  0  0  0
 18 28  1  0  0  0  0
 18 17  1  0  0  0  0
 19 29  1  1  0  0  0
 20  2  1  1  0  0  0
 20 21  1  0  0  0  0
 21 19  1  0  0  0  0
 21 37  1  0  0  0  0
 22  2  1  0  0  0  0
 23 10  2  0  0  0  0
 24  7  1  6  0  0  0
 24 20  1  0  0  0  0
 25  8  1  0  0  0  0
 25 18  1  0  0  0  0
 26 12  1  0  0  0  0
 28 27  1  0  0  0  0
 29 32  1  0  0  0  0
 30 31  1  0  0  0  0
 32 33  1  0  0  0  0
 32 30  1  0  0  0  0
 33 34  1  0  0  0  0
 34 35  1  6  0  0  0
 34 31  1  0  0  0  0
 35 36  2  0  0  0  0
 37 38  1  0  0  0  0
 39 40  1  0  0  0  0
 40 42  1  1  0  0  0
 43 40  1  0  0  0  0
 43 48  1  0  0  0  0
 44 38  1  6  0  0  0
 44 39  1  0  0  0  0
 45 41  1  6  0  0  0
 45 44  1  0  0  0  0
 45 46  1  0  0  0  0
 46 43  2  0  0  0  0
 48 47  1  0  0  0  0
M  END
>  <MODEL>
5

>  <REMARK>
 VINA RESULT:      -6.2      4.894      9.597
  Name = 
  8 active torsions:
  status: ('A' for Active; 'I' for Inactive)
    1  A    between atoms: C_2  and  C_42
    2  A    between atoms: C_16  and  N_28
    3  A    between atoms: C_16  and  C_33
    4  A    between atoms: C_21  and  C_23
    5  A    between atoms: C_21  and  N_37
    6  A    between atoms: C_23  and  C_29
    7  A    between atoms: C_27  and  C_40
    8  A    between atoms: N_32  and  C_38
                            x       y       z     vdW  Elec       q    Type
                         _______ _______ _______ _____ _____    ______ ____

>  <TORSDO>
F 8

$$$$
=
 OpenBabel11062412043D

 48 54  0  0  1  0  0  0  0  0999 V2000
  181.0410  178.6530  142.6160 N   0  0  0  0  0  0  0  0  0  0  0  0
  184.5430  178.2060  139.6310 C   0  0  0  0  0  2  0  0  0  0  0  0
  179.3810  177.4000  141.1120 C   0  0  0  0  0  3  0  0  0  0  0  0
  179.3120  177.1740  139.6000 C   0  0  0  0  0  3  0  0  0  0  0  0
  183.8910  179.7460  144.3980 C   0  0  0  0  0  3  0  0  0  0  0  0
  182.6740  179.3000  144.2330 N   0  0  0  0  0  0  0  0  0  0  0  0
  183.3090  178.3220  142.0680 C   0  0  0  0  0  2  0  0  0  0  0  0
  180.5850  178.1560  137.6380 C   0  0  0  0  0  0  0  0  0  0  0  0
  184.9210  179.7270  143.2750 C   0  0  2  0  0  3  0  0  0  0  0  0
  181.1250  178.5910  140.1000 C   0  0  0  0  0  0  0  0  0  0  0  0
  180.3550  178.0210  139.0460 N   0  0  0  0  0  0  0  0  0  0  0  0
  186.5650  177.7520  143.3410 C   0  0  0  0  0  2  0  0  0  0  0  0
  180.6530  180.5180  137.5960 O   0  0  0  0  0  0  0  0  0  0  0  0
  182.2710  179.5590  139.8530 C   0  0  0  0  0  2  0  0  0  0  0  0
  180.6440  177.0550  136.8320 N   0  0  0  0  0  0  0  0  0  0  0  0
  182.2830  178.6790  143.0040 C   0  0  0  0  0  0  0  0  0  0  0  0
  180.9180  177.7330  135.3470 S   0  0  0  0  0  0  0  0  0  0  0  0
  180.9380  179.3500  135.6540 N   0  0  0  0  0  0  0  0  0  0  0  0
  187.0080  177.5760  141.8630 C   0  0  1  0  0  3  0  0  0  0  0  0
  185.2440  178.9790  140.7880 C   0  0  2  0  0  3  0  0  0  0  0  0
  186.6980  178.7340  140.9820 N   0  0  0  0  0  0  0  0  0  0  0  0
  183.4090  179.0150  138.9510 C   0  0  0  0  0  2  0  0  0  0  0  0
  180.5920  178.2540  141.2930 C   0  0  0  0  0  0  0  0  0  0  0  0
  184.4610  178.9550  142.0660 C   0  0  2  0  0  3  0  0  0  0  0  0
  180.7320  179.4170  136.9890 C   0  0  0  0  0  0  0  0  0  0  0  0
  186.2850  179.2080  143.7610 C   0  0  0  0  0  2  0  0  0  0  0  0
  180.0750  181.2360  134.6020 O   0  0  0  0  0  1  0  0  0  0  0  0
  181.2050  180.4290  134.7190 C   0  0  0  0  0  2  0  0  0  0  0  0
  188.5050  177.2120  141.8530 C   0  0  0  0  0  2  0  0  0  0  0  0
  189.8590  175.5960  142.8600 C   0  0  0  0  0  2  0  0  0  0  0  0
  191.0060  175.7120  143.6610 O   0  0  0  0  0  0  0  0  0  0  0  0
  188.9440  176.6920  143.1420 N   0  0  0  0  0  0  0  0  0  0  0  0
  189.7770  177.6950  143.7660 C   0  0  0  0  0  2  0  0  0  0  0  0
  191.1420  177.0820  143.8950 C   0  0  1  0  0  3  0  0  0  0  0  0
  191.6700  177.3200  145.2700 C   0  0  0  0  0  3  0  0  0  0  0  0
  191.7540  176.3970  146.0640 O   0  0  0  0  0  0  0  0  0  0  0  0
  187.3360  178.5760  139.6730 C   0  0  0  0  0  2  0  0  0  0  0  0
  188.8480  178.6210  139.8170 C   0  0  0  0  0  2  0  0  0  0  0  0
  189.3340  176.5510  138.5560 C   0  0  0  0  0  2  0  0  0  0  0  0
  190.0640  175.9320  137.3620 C   0  0  1  0  0  3  0  0  0  0  0  0
  189.0740  179.9940  137.2080 F   0  0  0  0  0  0  0  0  0  0  0  0
  189.6060  174.4950  137.1960 C   0  0  0  0  0  1  0  0  0  0  0  0
  189.8910  176.7160  136.0730 C   0  0  0  0  0  0  0  0  0  0  0  0
  189.5060  178.0640  138.5670 C   0  0  1  0  0  3  0  0  0  0  0  0
  188.8540  178.6320  137.3030 C   0  0  2  0  0  3  0  0  0  0  0  0
  189.3910  177.9630  136.0690 C   0  0  0  0  0  3  0  0  0  0  0  0
  191.8190  175.9930  134.8970 O   0  0  0  0  0  1  0  0  0  0  0  0
  190.4370  176.1580  134.7960 C   0  0  0  0  0  2  0  0  0  0  0  0
  1 16  2  0  0  0  0
  3 23  1  0  0  0  0
  4  3  2  0  0  0  0
  6  5  2  0  0  0  0
  7 16  1  0  0  0  0
  8 11  1  0  0  0  0
  9 26  1  1  0  0  0
  9  5  1  0  0  0  0
 10 23  2  0  0  0  0
 11  4  1  0  0  0  0
 11 10  1  0  0  0  0
 12 26  1  0  0  0  0
 14 10  1  0  0  0  0
 15  8  2  0  0  0  0
 16  6  1  0  0  0  0
 17 18  1  0  0  0  0
 17 15  1  0  0  0  0
 18 25  1  0  0  0  0
 19 29  1  1  0  0  0
 19 12  1  0  0  0  0
 20  2  1  6  0  0  0
 20 21  1  0  0  0  0
 20 24  1  0  0  0  0
 21 19  1  0  0  0  0
 22  2  1  0  0  0  0
 22 14  1  0  0  0  0
 23  1  1  0  0  0  0
 24  7  1  6  0  0  0
 24  9  1  0  0  0  0
 25 13  2  0  0  0  0
 25  8  1  0  0  0  0
 27 28  1  0  0  0  0
 28 18  1  0  0  0  0
 29 32  1  0  0  0  0
 30 32  1  0  0  0  0
 30 31  1  0  0  0  0
 31 34  1  0  0  0  0
 32 33  1  0  0  0  0
 33 34  1  0  0  0  0
 34 35  1  1  0  0  0
 35 36  2  0  0  0  0
 37 38  1  0  0  0  0
 37 21  1  0  0  0  0
 39 44  1  0  0  0  0
 40 42  1  6  0  0  0
 40 39  1  0  0  0  0
 43 40  1  0  0  0  0
 44 38  1  1  0  0  0
 45 41  1  6  0  0  0
 45 44  1  0  0  0  0
 46 43  2  0  0  0  0
 46 45  1  0  0  0  0
 48 47  1  0  0  0  0
 48 43  1  0  0  0  0
M  END
>  <MODEL>
6

>  <REMARK>
 VINA RESULT:      -6.1      3.131      6.556
  Name = 
  8 active torsions:
  status: ('A' for Active; 'I' for Inactive)
    1  A    between atoms: C_2  and  C_42
    2  A    between atoms: C_16  and  N_28
    3  A    between atoms: C_16  and  C_33
    4  A    between atoms: C_21  and  C_23
    5  A    between atoms: C_21  and  N_37
    6  A    between atoms: C_23  and  C_29
    7  A    between atoms: C_27  and  C_40
    8  A    between atoms: N_32  and  C_38
                            x       y       z     vdW  Elec       q    Type
                         _______ _______ _______ _____ _____    ______ ____

>  <TORSDO>
F 8

$$$$
=
 OpenBabel11062412043D

 48 54  0  0  1  0  0  0  0  0999 V2000
  179.3490  176.1880  137.6100 N   0  0  0  0  0  0  0  0  0  0  0  0
  183.5830  176.5390  139.4350 C   0  0  0  0  0  2  0  0  0  0  0  0
  179.5580  173.6640  137.1930 C   0  0  0  0  0  3  0  0  0  0  0  0
  180.7590  172.7400  136.9810 C   0  0  0  0  0  3  0  0  0  0  0  0
  179.4900  179.4590  138.9430 C   0  0  0  0  0  3  0  0  0  0  0  0
  178.9310  178.3670  138.4920 N   0  0  0  0  0  0  0  0  0  0  0  0
  180.9170  177.0670  139.1340 C   0  0  0  0  0  2  0  0  0  0  0  0
  183.2270  173.1640  136.5840 C   0  0  0  0  0  0  0  0  0  0  0  0
  180.9600  179.5140  139.3390 C   0  0  2  0  0  3  0  0  0  0  0  0
  181.5020  174.9680  137.1420 C   0  0  0  0  0  0  0  0  0  0  0  0
  181.9010  173.6300  136.8610 N   0  0  0  0  0  0  0  0  0  0  0  0
  181.4160  179.2760  141.8580 C   0  0  0  0  0  2  0  0  0  0  0  0
  183.6930  174.6830  134.8340 O   0  0  0  0  0  0  0  0  0  0  0  0
  182.4590  176.1470  137.0630 C   0  0  0  0  0  2  0  0  0  0  0  0
  183.7530  172.1070  137.2690 N   0  0  0  0  0  0  0  0  0  0  0  0
  179.6630  177.1380  138.4430 C   0  0  0  0  0  0  0  0  0  0  0  0
  185.2580  171.9740  136.5930 S   0  0  0  0  0  0  0  0  0  0  0  0
  185.2800  173.1620  135.4540 N   0  0  0  0  0  0  0  0  0  0  0  0
  182.8590  178.7060  141.9320 C   0  0  1  0  0  3  0  0  0  0  0  0
  183.0970  178.0150  139.5440 C   0  0  2  0  0  3  0  0  0  0  0  0
  183.6360  178.8240  140.6680 N   0  0  0  0  0  0  0  0  0  0  0  0
  183.7110  176.0410  137.9720 C   0  0  0  0  0  2  0  0  0  0  0  0
  180.1680  175.0190  137.3360 C   0  0  0  0  0  0  0  0  0  0  0  0
  181.6140  178.1570  139.3660 C   0  0  2  0  0  3  0  0  0  0  0  0
  184.0600  173.7350  135.5770 C   0  0  0  0  0  0  0  0  0  0  0  0
  181.1620  180.2380  140.6810 C   0  0  0  0  0  2  0  0  0  0  0  0
  187.4820  172.7260  134.8460 O   0  0  0  0  0  1  0  0  0  0  0  0
  186.3850  173.5490  134.5950 C   0  0  0  0  0  2  0  0  0  0  0  0
  183.5730  179.3650  143.1270 C   0  0  0  0  0  2  0  0  0  0  0  0
  185.3600  177.9860  143.7300 C   0  0  0  0  0  2  0  0  0  0  0  0
  186.1910  177.9820  144.8620 O   0  0  0  0  0  0  0  0  0  0  0  0
  184.0110  178.3780  144.1070 N   0  0  0  0  0  0  0  0  0  0  0  0
  184.1800  179.0550  145.3730 C   0  0  0  0  0  2  0  0  0  0  0  0
  185.6380  178.9410  145.7140 C   0  0  1  0  0  3  0  0  0  0  0  0
  185.7880  178.5130  147.1360 C   0  0  0  0  0  3  0  0  0  0  0  0
  186.7930  177.9250  147.4980 O   0  0  0  0  0  0  0  0  0  0  0  0
  185.0400  178.4650  140.8870 C   0  0  0  0  0  2  0  0  0  0  0  0
  185.8980  178.9810  139.7450 C   0  0  0  0  0  2  0  0  0  0  0  0
  187.3630  177.9570  138.0360 C   0  0  0  0  0  2  0  0  0  0  0  0
  188.4950  176.9650  137.7630 C   0  0  1  0  0  3  0  0  0  0  0  0
  188.1830  178.6320  141.5880 F   0  0  0  0  0  0  0  0  0  0  0  0
  188.9590  177.1310  136.3280 C   0  0  0  0  0  1  0  0  0  0  0  0
  189.6560  177.0880  138.7330 C   0  0  0  0  0  0  0  0  0  0  0  0
  187.0870  178.0620  139.5310 C   0  0  1  0  0  3  0  0  0  0  0  0
  188.3400  178.6160  140.2140 C   0  0  2  0  0  3  0  0  0  0  0  0
  189.5530  177.7970  139.8700 C   0  0  0  0  0  3  0  0  0  0  0  0
  190.5520  174.9350  138.3070 O   0  0  0  0  0  1  0  0  0  0  0  0
  190.8910  176.2740  138.5070 C   0  0  0  0  0  2  0  0  0  0  0  0
  1 16  2  0  0  0  0
  3 23  1  0  0  0  0
  4  3  2  0  0  0  0
  6  5  2  0  0  0  0
  8 11  1  0  0  0  0
  8 15  2  0  0  0  0
  9  5  1  1  0  0  0
  9 24  1  0  0  0  0
  9 26  1  0  0  0  0
 10 23  2  0  0  0  0
 11  4  1  0  0  0  0
 11 10  1  0  0  0  0
 12 19  1  0  0  0  0
 13 25  2  0  0  0  0
 14 10  1  0  0  0  0
 14 22  1  0  0  0  0
 16  6  1  0  0  0  0
 16  7  1  0  0  0  0
 17 15  1  0  0  0  0
 18 25  1  0  0  0  0
 18 17  1  0  0  0  0
 19 29  1  1  0  0  0
 20  2  1  1  0  0  0
 20 21  1  0  0  0  0
 21 37  1  0  0  0  0
 21 19  1  0  0  0  0
 22  2  1  0  0  0  0
 23  1  1  0  0  0  0
 24  7  1  6  0  0  0
 24 20  1  0  0  0  0
 25  8  1  0  0  0  0
 26 12  1  0  0  0  0
 28 27  1  0  0  0  0
 28 18  1  0  0  0  0
 29 32  1  0  0  0  0
 30 32  1  0  0  0  0
 30 31  1  0  0  0  0
 31 34  1  0  0  0  0
 32 33  1  0  0  0  0
 33 34  1  0  0  0  0
 34 35  1  1  0  0  0
 35 36  2  0  0  0  0
 38 37  1  0  0  0  0
 39 44  1  0  0  0  0
 40 42  1  6  0  0  0
 40 39  1  0  0  0  0
 40 43  1  0  0  0  0
 43 46  2  0  0  0  0
 44 38  1  6  0  0  0
 44 45  1  0  0  0  0
 45 41  1  1  0  0  0
 46 45  1  0  0  0  0
 47 48  1  0  0  0  0
 48 43  1  0  0  0  0
M  END
>  <MODEL>
7

>  <REMARK>
 VINA RESULT:      -5.6      3.057      7.554
  Name = 
  8 active torsions:
  status: ('A' for Active; 'I' for Inactive)
    1  A    between atoms: C_2  and  C_42
    2  A    between atoms: C_16  and  N_28
    3  A    between atoms: C_16  and  C_33
    4  A    between atoms: C_21  and  C_23
    5  A    between atoms: C_21  and  N_37
    6  A    between atoms: C_23  and  C_29
    7  A    between atoms: C_27  and  C_40
    8  A    between atoms: N_32  and  C_38
                            x       y       z     vdW  Elec       q    Type
                         _______ _______ _______ _____ _____    ______ ____

>  <TORSDO>
F 8

$$$$
=
 OpenBabel11062412043D

 48 54  0  0  1  0  0  0  0  0999 V2000
  180.1630  176.1930  138.8630 N   0  0  0  0  0  0  0  0  0  0  0  0
  184.3530  177.4520  140.3570 C   0  0  0  0  0  2  0  0  0  0  0  0
  181.0200  174.0360  137.7690 C   0  0  0  0  0  3  0  0  0  0  0  0
  182.3840  173.6180  137.2180 C   0  0  0  0  0  3  0  0  0  0  0  0
  179.5690  178.9390  141.0090 C   0  0  0  0  0  3  0  0  0  0  0  0
  179.2830  177.8600  140.3290 N   0  0  0  0  0  0  0  0  0  0  0  0
  181.6360  177.1530  140.4320 C   0  0  0  0  0  2  0  0  0  0  0  0
  184.5270  174.8900  136.7450 C   0  0  0  0  0  0  0  0  0  0  0  0
  181.0050  179.3690  141.2820 C   0  0  2  0  0  3  0  0  0  0  0  0
  182.4700  175.8670  137.9080 C   0  0  0  0  0  0  0  0  0  0  0  0
  183.1860  174.8300  137.2460 N   0  0  0  0  0  0  0  0  0  0  0  0
  181.9120  178.7180  143.5970 C   0  0  0  0  0  2  0  0  0  0  0  0
  184.2460  176.8370  135.4350 O   0  0  0  0  0  0  0  0  0  0  0  0
  183.0210  177.2760  138.0690 C   0  0  0  0  0  2  0  0  0  0  0  0
  185.4390  173.9290  137.0750 N   0  0  0  0  0  0  0  0  0  0  0  0
  180.3200  176.9750  139.8910 C   0  0  0  0  0  0  0  0  0  0  0  0
  186.7880  174.4440  136.2660 S   0  0  0  0  0  0  0  0  0  0  0  0
  186.2820  175.8040  135.4900 N   0  0  0  0  0  0  0  0  0  0  0  0
  183.4510  178.6400  143.3950 C   0  0  1  0  0  3  0  0  0  0  0  0
  183.4870  178.6280  140.8980 C   0  0  2  0  0  3  0  0  0  0  0  0
  183.9440  179.2870  142.1500 N   0  0  0  0  0  0  0  0  0  0  0  0
  184.3800  177.3700  138.8090 C   0  0  0  0  0  2  0  0  0  0  0  0
  181.2280  175.4430  138.2190 C   0  0  0  0  0  0  0  0  0  0  0  0
  182.0180  178.3250  140.8890 C   0  0  2  0  0  3  0  0  0  0  0  0
  184.9860  175.9120  135.8630 C   0  0  0  0  0  0  0  0  0  0  0  0
  181.2050  179.7910  142.7470 C   0  0  0  0  0  2  0  0  0  0  0  0
  187.8340  177.5360  135.5050 O   0  0  0  0  0  1  0  0  0  0  0  0
  187.0740  176.7110  134.6770 C   0  0  0  0  0  2  0  0  0  0  0  0
  184.1280  179.2000  144.6600 C   0  0  0  0  0  2  0  0  0  0  0  0
  185.7410  177.5120  144.7330 C   0  0  0  0  0  2  0  0  0  0  0  0
  186.8750  177.3420  145.5440 O   0  0  0  0  0  0  0  0  0  0  0  0
  184.6740  178.1380  145.4970 N   0  0  0  0  0  0  0  0  0  0  0  0
  185.3540  178.7560  146.6120 C   0  0  0  0  0  2  0  0  0  0  0  0
  186.8010  178.3750  146.4810 C   0  0  1  0  0  3  0  0  0  0  0  0
  187.3170  177.9100  147.8010 C   0  0  0  0  0  3  0  0  0  0  0  0
  187.9780  176.8870  147.8770 O   0  0  0  0  0  0  0  0  0  0  0  0
  185.4080  179.3550  142.1470 C   0  0  0  0  0  2  0  0  0  0  0  0
  185.9410  179.1450  140.7390 C   0  0  0  0  0  2  0  0  0  0  0  0
  187.7090  178.0540  142.0790 C   0  0  0  0  0  2  0  0  0  0  0  0
  189.2070  177.7770  142.2200 C   0  0  1  0  0  3  0  0  0  0  0  0
  187.6810  178.6010  138.4120 F   0  0  0  0  0  0  0  0  0  0  0  0
  189.4180  176.7550  143.3220 C   0  0  0  0  0  1  0  0  0  0  0  0
  189.8660  177.3330  140.9270 C   0  0  0  0  0  0  0  0  0  0  0  0
  187.4210  178.8110  140.7880 C   0  0  1  0  0  3  0  0  0  0  0  0
  187.8230  177.9220  139.6080 C   0  0  2  0  0  3  0  0  0  0  0  0
  189.2460  177.4550  139.7410 C   0  0  0  0  0  3  0  0  0  0  0  0
  192.1050  177.9270  141.4310 O   0  0  0  0  0  1  0  0  0  0  0  0
  191.2990  176.8990  140.9440 C   0  0  0  0  0  2  0  0  0  0  0  0
  1 16  2  0  0  0  0
  3 23  1  0  0  0  0
  4 11  1  0  0  0  0
  4  3  2  0  0  0  0
  6  5  2  0  0  0  0
  8 15  2  0  0  0  0
  8 11  1  0  0  0  0
  9  5  1  1  0  0  0
  9 26  1  0  0  0  0
 10 14  1  0  0  0  0
 10 23  2  0  0  0  0
 11 10  1  0  0  0  0
 13 25  2  0  0  0  0
 14 22  1  0  0  0  0
 16  6  1  0  0  0  0
 16  7  1  0  0  0  0
 17 15  1  0  0  0  0
 18 25  1  0  0  0  0
 18 17  1  0  0  0  0
 19 12  1  0  0  0  0
 19 29  1  1  0  0  0
 20  2  1  1  0  0  0
 20 21  1  0  0  0  0
 21 19  1  0  0  0  0
 22  2  1  0  0  0  0
 23  1  1  0  0  0  0
 24  7  1  6  0  0  0
 24 20  1  0  0  0  0
 24  9  1  0  0  0  0
 25  8  1  0  0  0  0
 26 12  1  0  0  0  0
 28 18  1  0  0  0  0
 28 27  1  0  0  0  0
 29 32  1  0  0  0  0
 30 32  1  0  0  0  0
 30 31  1  0  0  0  0
 31 34  1  0  0  0  0
 32 33  1  0  0  0  0
 34 33  1  0  0  0  0
 34 35  1  1  0  0  0
 35 36  2  0  0  0  0
 37 21  1  0  0  0  0
 38 37  1  0  0  0  0
 39 40  1  0  0  0  0
 40 42  1  1  0  0  0
 43 48  1  0  0  0  0
 43 40  1  0  0  0  0
 44 38  1  6  0  0  0
 44 39  1  0  0  0  0
 45 41  1  6  0  0  0
 45 46  1  0  0  0  0
 45 44  1  0  0  0  0
 46 43  2  0  0  0  0
 48 47  1  0  0  0  0
M  END
>  <MODEL>
8

>  <REMARK>
 VINA RESULT:      -5.5      3.262      7.346
  Name = 
  8 active torsions:
  status: ('A' for Active; 'I' for Inactive)
    1  A    between atoms: C_2  and  C_42
    2  A    between atoms: C_16  and  N_28
    3  A    between atoms: C_16  and  C_33
    4  A    between atoms: C_21  and  C_23
    5  A    between atoms: C_21  and  N_37
    6  A    between atoms: C_23  and  C_29
    7  A    between atoms: C_27  and  C_40
    8  A    between atoms: N_32  and  C_38
                            x       y       z     vdW  Elec       q    Type
                         _______ _______ _______ _____ _____    ______ ____

>  <TORSDO>
F 8

$$$$
=
 OpenBabel11062412043D

 48 54  0  0  1  0  0  0  0  0999 V2000
  183.0570  178.5350  145.2180 N   0  0  0  0  0  0  0  0  0  0  0  0
  185.1010  179.1220  141.1120 C   0  0  0  0  0  2  0  0  0  0  0  0
  185.1420  179.2340  146.5410 C   0  0  0  0  0  3  0  0  0  0  0  0
  186.6370  179.2110  146.2170 C   0  0  0  0  0  3  0  0  0  0  0  0
  180.4430  178.2400  142.8580 C   0  0  0  0  0  3  0  0  0  0  0  0
  180.9900  178.4360  144.0280 N   0  0  0  0  0  0  0  0  0  0  0  0
  183.0740  179.1670  142.9480 C   0  0  0  0  0  2  0  0  0  0  0  0
  187.9900  178.1770  144.3370 C   0  0  0  0  0  0  0  0  0  0  0  0
  181.2540  178.2650  141.5680 C   0  0  2  0  0  3  0  0  0  0  0  0
  185.4360  178.2250  144.4490 C   0  0  0  0  0  0  0  0  0  0  0  0
  186.7380  178.4840  144.9630 N   0  0  0  0  0  0  0  0  0  0  0  0
  181.1640  180.4830  140.2710 C   0  0  0  0  0  2  0  0  0  0  0  0
  187.5560  175.8850  143.9610 O   0  0  0  0  0  0  0  0  0  0  0  0
  185.1960  177.4440  143.1660 C   0  0  0  0  0  2  0  0  0  0  0  0
  188.9530  179.1350  144.1970 N   0  0  0  0  0  0  0  0  0  0  0  0
  182.3740  178.7850  144.1390 C   0  0  0  0  0  0  0  0  0  0  0  0
  190.1620  178.2960  143.4390 S   0  0  0  0  0  0  0  0  0  0  0  0
  189.5530  176.7740  143.3000 N   0  0  0  0  0  0  0  0  0  0  0  0
  182.4900  180.5050  139.4620 C   0  0  1  0  0  3  0  0  0  0  0  0
  183.6780  178.6690  140.6660 C   0  0  2  0  0  3  0  0  0  0  0  0
  183.1780  179.1900  139.3670 N   0  0  0  0  0  0  0  0  0  0  0  0
  185.8730  178.0340  141.9020 C   0  0  0  0  0  2  0  0  0  0  0  0
  184.5030  178.6430  145.3300 C   0  0  0  0  0  0  0  0  0  0  0  0
  182.6660  178.7510  141.7700 C   0  0  2  0  0  3  0  0  0  0  0  0
  188.3250  176.8770  143.8580 C   0  0  0  0  0  0  0  0  0  0  0  0
  180.5530  179.0820  140.4700 C   0  0  0  0  0  2  0  0  0  0  0  0
  190.5580  175.9790  141.3590 O   0  0  0  0  0  1  0  0  0  0  0  0
  190.1640  175.6280  142.6500 C   0  0  0  0  0  2  0  0  0  0  0  0
  182.1960  181.1180  138.0790 C   0  0  0  0  0  2  0  0  0  0  0  0
  182.3960  183.4460  138.1060 C   0  0  0  0  0  2  0  0  0  0  0  0
  181.9300  184.4290  137.2190 O   0  0  0  0  0  0  0  0  0  0  0  0
  181.4340  182.3570  138.1880 N   0  0  0  0  0  0  0  0  0  0  0  0
  180.6390  182.4970  136.9890 C   0  0  0  0  0  2  0  0  0  0  0  0
  181.1360  183.7370  136.3020 C   0  0  1  0  0  3  0  0  0  0  0  0
  179.9750  184.5780  135.8880 C   0  0  0  0  0  3  0  0  0  0  0  0
  179.3450  185.2090  136.7210 O   0  0  0  0  0  0  0  0  0  0  0  0
  184.2910  179.2550  138.4160 C   0  0  0  0  0  2  0  0  0  0  0  0
  184.3590  177.9760  137.5980 C   0  0  0  0  0  2  0  0  0  0  0  0
  186.7050  178.2530  138.3250 C   0  0  0  0  0  2  0  0  0  0  0  0
  188.1780  178.0370  137.9720 C   0  0  1  0  0  3  0  0  0  0  0  0
  185.3160  175.5600  136.1900 F   0  0  0  0  0  0  0  0  0  0  0  0
  189.0270  178.3420  139.1930 C   0  0  0  0  0  1  0  0  0  0  0  0
  188.4750  176.6510  137.4300 C   0  0  0  0  0  0  0  0  0  0  0  0
  185.8020  177.6540  137.2540 C   0  0  1  0  0  3  0  0  0  0  0  0
  186.0340  176.1420  137.2190 C   0  0  2  0  0  3  0  0  0  0  0  0
  187.4920  175.8210  137.0400 C   0  0  0  0  0  3  0  0  0  0  0  0
  190.2780  175.2410  138.0500 O   0  0  0  0  0  1  0  0  0  0  0  0
  189.8940  176.2530  137.1690 C   0  0  0  0  0  2  0  0  0  0  0  0
  1 23  1  0  0  0  0
  2 22  1  0  0  0  0
  4  3  2  0  0  0  0
  5  6  2  0  0  0  0
  6 16  1  0  0  0  0
  7 16  1  0  0  0  0
  8 11  1  0  0  0  0
  9 26  1  6  0  0  0
  9 24  1  0  0  0  0
  9  5  1  0  0  0  0
 10 11  1  0  0  0  0
 10 23  2  0  0  0  0
 11  4  1  0  0  0  0
 12 26  1  0  0  0  0
 14 10  1  0  0  0  0
 15  8  2  0  0  0  0
 16  1  2  0  0  0  0
 17 15  1  0  0  0  0
 18 17  1  0  0  0  0
 18 25  1  0  0  0  0
 19 29  1  6  0  0  0
 19 12  1  0  0  0  0
 20  2  1  1  0  0  0
 20 24  1  0  0  0  0
 21 19  1  0  0  0  0
 21 20  1  0  0  0  0
 22 14  1  0  0  0  0
 23  3  1  0  0  0  0
 24  7  1  1  0  0  0
 25 13  2  0  0  0  0
 25  8  1  0  0  0  0
 27 28  1  0  0  0  0
 28 18  1  0  0  0  0
 29 32  1  0  0  0  0
 30 32  1  0  0  0  0
 31 30  1  0  0  0  0
 33 32  1  0  0  0  0
 34 35  1  1  0  0  0
 34 33  1  0  0  0  0
 34 31  1  0  0  0  0
 35 36  2  0  0  0  0
 37 21  1  0  0  0  0
 38 37  1  0  0  0  0
 40 39  1  0  0  0  0
 40 42  1  1  0  0  0
 43 40  1  0  0  0  0
 44 38  1  1  0  0  0
 44 39  1  0  0  0  0
 45 41  1  6  0  0  0
 45 44  1  0  0  0  0
 46 45  1  0  0  0  0
 46 43  2  0  0  0  0
 48 43  1  0  0  0  0
 48 47  1  0  0  0  0
M  END
>  <MODEL>
9

>  <REMARK>
 VINA RESULT:      -5.4      3.818      9.587
  Name = 
  8 active torsions:
  status: ('A' for Active; 'I' for Inactive)
    1  A    between atoms: C_2  and  C_42
    2  A    between atoms: C_16  and  N_28
    3  A    between atoms: C_16  and  C_33
    4  A    between atoms: C_21  and  C_23
    5  A    between atoms: C_21  and  N_37
    6  A    between atoms: C_23  and  C_29
    7  A    between atoms: C_27  and  C_40
    8  A    between atoms: N_32  and  C_38
                            x       y       z     vdW  Elec       q    Type
                         _______ _______ _______ _____ _____    ______ ____

>  <TORSDO>
F 8

$$$$
