=
 OpenBabel11062413223D

 46 49  0  0  1  0  0  0  0  0999 V2000
  184.7870  173.8950  137.2900 C   0  0  0  0  0  0  0  0  0  0  0  0
  185.1160  173.2420  138.3180 O   0  0  0  0  0  0  0  0  0  0  0  0
  180.8560  173.7050  137.5020 C   0  0  0  0  0  2  0  0  0  0  0  0
  183.3170  177.3750  136.1730 C   0  0  0  0  0  1  0  0  0  0  0  0
  181.8960  177.0310  138.1730 C   0  0  2  0  0  3  0  0  0  0  0  0
  183.3400  174.0340  136.9990 C   0  0  1  0  0  3  0  0  0  0  0  0
  182.2530  172.6060  137.0650 S   0  0  0  0  0  0  0  0  0  0  0  0
  182.6580  175.1750  137.0010 C   0  0  1  0  0  3  0  0  0  0  0  0
  180.7400  176.1750  137.8500 N   0  0  0  0  0  2  0  0  0  0  0  0
  181.2830  175.0580  137.2010 N   0  0  2  0  0  0  0  0  0  0  0  0
  183.1200  176.5110  137.4040 C   0  0  1  0  0  3  0  0  0  0  0  0
  182.1590  176.9720  139.6700 C   0  0  0  0  0  2  0  0  0  0  0  0
  181.8720  178.3170  140.3170 C   0  0  0  0  0  2  0  0  0  0  0  0
  182.8510  178.9070  143.9640 C   0  0  0  0  0  3  0  0  0  0  0  0
  182.0410  178.8220  142.8190 C   0  0  0  0  0  0  0  0  0  0  0  0
  184.7990  178.2610  142.6920 C   0  0  0  0  0  3  0  0  0  0  0  0
  184.0140  178.1690  141.5430 C   0  0  0  0  0  3  0  0  0  0  0  0
  182.6430  178.4500  141.5900 C   0  0  0  0  0  0  0  0  0  0  0  0
  184.2190  178.6360  143.9030 C   0  0  0  0  0  0  0  0  0  0  0  0
  179.7790  178.2080  143.2250 O   0  0  0  0  0  1  0  0  0  0  0  0
  180.5960  179.1310  142.9620 C   0  0  0  0  0  0  0  0  0  0  0  0
  180.1120  180.4250  142.8160 O   0  0  0  0  0  0  0  0  0  0  0  0
  185.0510  178.7170  145.1360 C   0  0  0  0  0  2  0  0  0  0  0  0
  186.3110  177.8890  144.9710 C   0  0  0  0  0  1  0  0  0  0  0  0
  185.4220  174.6340  134.9700 C   0  0  0  0  0  1  0  0  0  0  0  0
  187.7420  175.8090  137.3450 C   0  0  2  0  0  3  0  0  0  0  0  0
  188.3390  174.6330  136.5800 C   0  0  1  0  0  3  0  0  0  0  0  0
  187.1710  173.6670  136.5190 C   0  0  1  0  0  3  0  0  0  0  0  0
  188.7120  175.0280  135.2900 O   0  0  0  0  0  1  0  0  0  0  0  0
  186.2700  175.8710  136.9430 C   0  0  0  0  0  2  0  0  0  0  0  0
  185.8760  174.4930  136.4190 C   0  0  2  0  0  0  0  0  0  0  0  0
  187.8300  171.3370  136.3460 O   0  0  0  0  0  1  0  0  0  0  0  0
  187.3300  172.4260  135.6310 C   0  0  0  0  0  2  0  0  0  0  0  0
  188.4720  177.1460  137.1240 C   0  0  1  0  0  3  0  0  0  0  0  0
  187.3970  178.9840  136.0350 O   0  0  0  0  0  0  0  0  0  0  0  0
  187.5200  178.3090  137.0900 C   0  0  0  0  0  0  0  0  0  0  0  0
  186.7800  178.6520  138.2160 O   0  0  0  0  0  1  0  0  0  0  0  0
  189.6170  177.3470  138.1300 C   0  0  1  0  0  3  0  0  0  0  0  0
  189.3480  176.5790  139.4200 C   0  0  0  0  0  2  0  0  0  0  0  0
  189.4550  177.4740  140.6050 C   0  0  0  0  0  0  0  0  0  0  0  0
  188.3500  178.1980  141.0320 O   0  0  0  0  0  0  0  0  0  0  0  0
  190.5510  177.5850  141.2130 O   0  0  0  0  0  1  0  0  0  0  0  0
  190.9820  176.9930  137.5350 C   0  0  0  0  0  2  0  0  0  0  0  0
  191.5670  175.7480  138.1910 C   0  0  0  0  0  2  0  0  0  0  0  0
  192.7460  175.2090  137.3970 C   0  0  0  0  0  2  0  0  0  0  0  0
  193.9880  175.4790  138.1010 N   0  0  0  0  0  1  0  0  0  0  0  0
  1  2  2  0  0  0  0
  4 11  1  0  0  0  0
  5 12  1  1  0  0  0
  6  8  1  0  0  0  0
  6  7  1  0  0  0  0
  6  1  1  1  0  0  0
  7  3  1  0  0  0  0
  8 10  1  0  0  0  0
  8 11  1  0  0  0  0
  9  5  1  0  0  0  0
 10  3  1  0  0  0  0
 10  9  1  0  0  0  0
 11  5  1  0  0  0  0
 12 13  1  0  0  0  0
 13 18  1  0  0  0  0
 15 21  1  0  0  0  0
 15 14  2  0  0  0  0
 16 19  2  0  0  0  0
 17 18  2  0  0  0  0
 17 16  1  0  0  0  0
 18 15  1  0  0  0  0
 19 14  1  0  0  0  0
 19 23  1  0  0  0  0
 21 20  1  0  0  0  0
 22 21  2  0  0  0  0
 24 23  1  0  0  0  0
 25 31  1  0  0  0  0
 27 26  1  0  0  0  0
 28 27  1  0  0  0  0
 29 27  1  0  0  0  0
 30 26  1  0  0  0  0
 31 28  1  0  0  0  0
 31 30  1  0  0  0  0
 31  1  1  0  0  0  0
 33 32  1  0  0  0  0
 33 28  1  0  0  0  0
 34 26  1  0  0  0  0
 34 38  1  0  0  0  0
 35 36  2  0  0  0  0
 36 34  1  0  0  0  0
 36 37  1  0  0  0  0
 38 39  1  0  0  0  0
 39 40  1  0  0  0  0
 40 41  2  0  0  0  0
 40 42  1  0  0  0  0
 43 38  1  0  0  0  0
 43 44  1  0  0  0  0
 45 46  1  0  0  0  0
 45 44  1  0  0  0  0
M  END
>  <MODEL>
1

>  <REMARK>
 VINA RESULT:      -6.7      0.000      0.000
  Name = 
  16 active torsions:
  status: ('A' for Active; 'I' for Inactive)
    1  A    between atoms: C_2  and  C_45
    2  A    between atoms: C_5  and  C_22
    3  A    between atoms: C_5  and  C_23
    4  A    between atoms: C_7  and  C_15
    5  A    between atoms: C_8  and  C_24
    6  A    between atoms: C_8  and  C_31
    7  A    between atoms: C_9  and  C_44
    8  A    between atoms: C_11  and  C_13
    9  A    between atoms: C_11  and  C_35
   10  A    between atoms: C_13  and  C_15
   11  A    between atoms: C_13  and  C_34
   12  A    between atoms: C_14  and  C_15
   13  A    between atoms: C_16  and  C_25
   14  A    between atoms: C_19  and  C_27
   15  A    between atoms: C_23  and  C_39
   16  A    between atoms: C_25  and  C_34
                            x       y       z     vdW  Elec       q    Type
                         _______ _______ _______ _____ _____    ______ ____

>  <TORSDO>
F 16

$$$$
=
 OpenBabel11062413223D

 46 49  0  0  1  0  0  0  0  0999 V2000
  184.3610  174.0580  137.1710 C   0  0  0  0  0  0  0  0  0  0  0  0
  184.5590  173.3850  138.2190 O   0  0  0  0  0  0  0  0  0  0  0  0
  180.4250  173.9870  136.9610 C   0  0  0  0  0  2  0  0  0  0  0  0
  183.0920  177.7210  136.4720 C   0  0  0  0  0  1  0  0  0  0  0  0
  181.4630  177.1290  138.2430 C   0  0  2  0  0  3  0  0  0  0  0  0
  182.9540  174.2940  136.7640 C   0  0  1  0  0  3  0  0  0  0  0  0
  181.8350  172.9160  136.4980 S   0  0  0  0  0  0  0  0  0  0  0  0
  182.3020  175.4460  136.8760 C   0  0  1  0  0  3  0  0  0  0  0  0
  180.3280  176.3760  137.6770 N   0  0  0  0  0  2  0  0  0  0  0  0
  180.9100  175.3530  136.9180 N   0  0  2  0  0  0  0  0  0  0  0  0
  182.7490  176.6860  137.5270 C   0  0  1  0  0  3  0  0  0  0  0  0
  181.5680  176.8310  139.7310 C   0  0  0  0  0  2  0  0  0  0  0  0
  181.1230  178.0320  140.5490 C   0  0  0  0  0  2  0  0  0  0  0  0
  182.8450  179.1120  143.7860 C   0  0  0  0  0  3  0  0  0  0  0  0
  181.8080  178.8520  142.8730 C   0  0  0  0  0  0  0  0  0  0  0  0
  184.5010  178.3900  142.1830 C   0  0  0  0  0  3  0  0  0  0  0  0
  183.4880  178.1240  141.2620 C   0  0  0  0  0  3  0  0  0  0  0  0
  182.1460  178.3530  141.5880 C   0  0  0  0  0  0  0  0  0  0  0  0
  184.1800  178.8900  143.4450 C   0  0  0  0  0  0  0  0  0  0  0  0
  179.9040  180.2550  143.1180 O   0  0  0  0  0  0  0  0  0  0  0  0
  180.4140  179.1180  143.3060 C   0  0  0  0  0  0  0  0  0  0  0  0
  179.6430  178.1370  143.9160 O   0  0  0  0  0  1  0  0  0  0  0  0
  185.2580  179.1570  144.4370 C   0  0  0  0  0  2  0  0  0  0  0  0
  185.9010  177.8550  144.8740 C   0  0  0  0  0  1  0  0  0  0  0  0
  185.2040  174.8420  134.9350 C   0  0  0  0  0  1  0  0  0  0  0  0
  187.4880  175.6430  137.4940 C   0  0  2  0  0  3  0  0  0  0  0  0
  188.0050  174.4500  136.6970 C   0  0  1  0  0  3  0  0  0  0  0  0
  186.7490  173.6180  136.5180 C   0  0  1  0  0  3  0  0  0  0  0  0
  188.4920  174.8680  135.4530 O   0  0  0  0  0  1  0  0  0  0  0  0
  186.0560  175.8800  137.0170 C   0  0  0  0  0  2  0  0  0  0  0  0
  185.5550  174.5800  136.3960 C   0  0  2  0  0  0  0  0  0  0  0  0
  187.8640  171.5440  135.9270 O   0  0  0  0  0  1  0  0  0  0  0  0
  186.8320  172.4140  135.5710 C   0  0  0  0  0  2  0  0  0  0  0  0
  188.3630  176.9040  137.3880 C   0  0  1  0  0  3  0  0  0  0  0  0
  187.6300  179.1280  136.9050 O   0  0  0  0  0  0  0  0  0  0  0  0
  187.5900  178.1550  137.7010 C   0  0  0  0  0  0  0  0  0  0  0  0
  186.8380  178.2500  138.8670 O   0  0  0  0  0  1  0  0  0  0  0  0
  189.6500  176.7790  138.2200 C   0  0  1  0  0  3  0  0  0  0  0  0
  190.8730  176.6720  137.3160 C   0  0  0  0  0  2  0  0  0  0  0  0
  191.8150  175.6310  137.8130 C   0  0  0  0  0  0  0  0  0  0  0  0
  193.0990  175.9850  138.2070 O   0  0  0  0  0  1  0  0  0  0  0  0
  191.4520  174.4270  137.8640 O   0  0  0  0  0  0  0  0  0  0  0  0
  189.7970  177.9130  139.2380 C   0  0  0  0  0  2  0  0  0  0  0  0
  190.1490  177.3750  140.6190 C   0  0  0  0  0  2  0  0  0  0  0  0
  188.9030  177.1780  141.4680 C   0  0  0  0  0  2  0  0  0  0  0  0
  188.3650  178.4660  141.8720 N   0  0  0  0  0  1  0  0  0  0  0  0
  1  2  2  0  0  0  0
  4 11  1  0  0  0  0
  5 12  1  1  0  0  0
  6  8  1  0  0  0  0
  6  1  1  1  0  0  0
  7  6  1  0  0  0  0
  7  3  1  0  0  0  0
  8 10  1  0  0  0  0
  8 11  1  0  0  0  0
  9  5  1  0  0  0  0
 10  3  1  0  0  0  0
 10  9  1  0  0  0  0
 11  5  1  0  0  0  0
 12 13  1  0  0  0  0
 13 18  1  0  0  0  0
 15 21  1  0  0  0  0
 15 14  2  0  0  0  0
 16 19  2  0  0  0  0
 17 18  2  0  0  0  0
 17 16  1  0  0  0  0
 18 15  1  0  0  0  0
 19 14  1  0  0  0  0
 19 23  1  0  0  0  0
 20 21  2  0  0  0  0
 21 22  1  0  0  0  0
 23 24  1  0  0  0  0
 25 31  1  0  0  0  0
 27 26  1  0  0  0  0
 28 27  1  0  0  0  0
 29 27  1  0  0  0  0
 30 26  1  0  0  0  0
 31 28  1  0  0  0  0
 31 30  1  0  0  0  0
 31  1  1  0  0  0  0
 33 32  1  0  0  0  0
 33 28  1  0  0  0  0
 34 26  1  0  0  0  0
 34 36  1  0  0  0  0
 34 38  1  0  0  0  0
 35 36  2  0  0  0  0
 36 37  1  0  0  0  0
 38 43  1  0  0  0  0
 39 40  1  0  0  0  0
 39 38  1  0  0  0  0
 40 42  2  0  0  0  0
 40 41  1  0  0  0  0
 43 44  1  0  0  0  0
 44 45  1  0  0  0  0
 45 46  1  0  0  0  0
M  END
>  <MODEL>
2

>  <REMARK>
 VINA RESULT:      -6.7      1.490      2.126
  Name = 
  16 active torsions:
  status: ('A' for Active; 'I' for Inactive)
    1  A    between atoms: C_2  and  C_45
    2  A    between atoms: C_5  and  C_22
    3  A    between atoms: C_5  and  C_23
    4  A    between atoms: C_7  and  C_15
    5  A    between atoms: C_8  and  C_24
    6  A    between atoms: C_8  and  C_31
    7  A    between atoms: C_9  and  C_44
    8  A    between atoms: C_11  and  C_13
    9  A    between atoms: C_11  and  C_35
   10  A    between atoms: C_13  and  C_15
   11  A    between atoms: C_13  and  C_34
   12  A    between atoms: C_14  and  C_15
   13  A    between atoms: C_16  and  C_25
   14  A    between atoms: C_19  and  C_27
   15  A    between atoms: C_23  and  C_39
   16  A    between atoms: C_25  and  C_34
                            x       y       z     vdW  Elec       q    Type
                         _______ _______ _______ _____ _____    ______ ____

>  <TORSDO>
F 16

$$$$
=
 OpenBabel11062413223D

 46 49  0  0  1  0  0  0  0  0999 V2000
  182.9820  175.9630  138.3230 C   0  0  0  0  0  0  0  0  0  0  0  0
  183.1180  174.7710  138.7140 O   0  0  0  0  0  0  0  0  0  0  0  0
  180.3460  177.3180  140.9210 C   0  0  0  0  0  2  0  0  0  0  0  0
  183.8290  179.7320  139.0950 C   0  0  0  0  0  1  0  0  0  0  0  0
  183.4370  178.9870  141.4250 C   0  0  2  0  0  3  0  0  0  0  0  0
  182.0040  176.8140  139.0440 C   0  0  1  0  0  3  0  0  0  0  0  0
  180.3910  176.1700  139.4960 S   0  0  0  0  0  0  0  0  0  0  0  0
  182.2920  177.9340  139.6990 C   0  0  1  0  0  3  0  0  0  0  0  0
  181.9970  179.0010  141.7420 N   0  0  0  0  0  2  0  0  0  0  0  0
  181.3850  178.3040  140.6930 N   0  0  2  0  0  0  0  0  0  0  0  0
  183.6140  178.5140  139.9740 C   0  0  1  0  0  3  0  0  0  0  0  0
  184.1470  178.0320  142.3730 C   0  0  0  0  0  2  0  0  0  0  0  0
  185.6500  178.2530  142.3270 C   0  0  0  0  0  2  0  0  0  0  0  0
  186.3170  178.2570  146.0910 C   0  0  0  0  0  3  0  0  0  0  0  0
  185.6890  178.5490  144.8680 C   0  0  0  0  0  0  0  0  0  0  0  0
  188.0000  176.9390  144.9660 C   0  0  0  0  0  3  0  0  0  0  0  0
  187.3920  177.2140  143.7420 C   0  0  0  0  0  3  0  0  0  0  0  0
  186.2460  178.0170  143.6770 C   0  0  0  0  0  0  0  0  0  0  0  0
  187.4660  177.4650  146.1420 C   0  0  0  0  0  0  0  0  0  0  0  0
  183.4350  178.9990  145.4790 O   0  0  0  0  0  1  0  0  0  0  0  0
  184.4750  179.4020  144.8930 C   0  0  0  0  0  0  0  0  0  0  0  0
  184.4530  180.6520  144.2860 O   0  0  0  0  0  0  0  0  0  0  0  0
  188.1020  177.1580  147.4530 C   0  0  0  0  0  2  0  0  0  0  0  0
  189.6000  176.9950  147.2820 C   0  0  0  0  0  1  0  0  0  0  0  0
  183.0820  177.5240  136.3530 C   0  0  0  0  0  1  0  0  0  0  0  0
  186.2630  176.1910  137.0650 C   0  0  2  0  0  3  0  0  0  0  0  0
  185.6780  175.5010  135.8370 C   0  0  1  0  0  3  0  0  0  0  0  0
  184.2370  175.2770  136.2540 C   0  0  1  0  0  3  0  0  0  0  0  0
  185.7380  176.3500  134.7270 O   0  0  0  0  0  1  0  0  0  0  0  0
  185.1330  177.0330  137.6540 C   0  0  0  0  0  2  0  0  0  0  0  0
  183.8140  176.4520  137.1530 C   0  0  2  0  0  0  0  0  0  0  0  0
  183.4640  173.4300  134.8810 O   0  0  0  0  0  1  0  0  0  0  0  0
  183.2630  174.7790  135.1780 C   0  0  0  0  0  2  0  0  0  0  0  0
  187.5320  177.0150  136.7870 C   0  0  1  0  0  3  0  0  0  0  0  0
  187.5480  179.4060  136.7730 O   0  0  0  0  0  0  0  0  0  0  0  0
  187.4930  178.3560  137.4640 C   0  0  0  0  0  0  0  0  0  0  0  0
  187.4070  178.4480  138.8490 O   0  0  0  0  0  1  0  0  0  0  0  0
  188.8110  176.2240  137.1090 C   0  0  1  0  0  3  0  0  0  0  0  0
  189.2960  175.4530  135.8870 C   0  0  0  0  0  2  0  0  0  0  0  0
  189.2430  173.9840  136.1260 C   0  0  0  0  0  0  0  0  0  0  0  0
  189.8900  173.4340  137.2240 O   0  0  0  0  0  1  0  0  0  0  0  0
  188.6220  173.2390  135.3240 O   0  0  0  0  0  0  0  0  0  0  0  0
  189.9130  177.1130  137.6920 C   0  0  0  0  0  2  0  0  0  0  0  0
  190.5790  176.4540  138.8940 C   0  0  0  0  0  2  0  0  0  0  0  0
  190.8370  177.4630  140.0020 C   0  0  0  0  0  2  0  0  0  0  0  0
  189.8330  177.3300  141.0430 N   0  0  0  0  0  1  0  0  0  0  0  0
  1  2  2  0  0  0  0
  4 11  1  0  0  0  0
  5  9  1  0  0  0  0
  5 12  1  1  0  0  0
  6  1  1  1  0  0  0
  6  7  1  0  0  0  0
  6  8  1  0  0  0  0
  7  3  1  0  0  0  0
  8 11  1  0  0  0  0
  8 10  1  0  0  0  0
 10  3  1  0  0  0  0
 10  9  1  0  0  0  0
 11  5  1  0  0  0  0
 13 12  1  0  0  0  0
 13 18  1  0  0  0  0
 14 19  1  0  0  0  0
 15 21  1  0  0  0  0
 15 14  2  0  0  0  0
 16 19  2  0  0  0  0
 17 16  1  0  0  0  0
 18 17  2  0  0  0  0
 18 15  1  0  0  0  0
 19 23  1  0  0  0  0
 21 20  1  0  0  0  0
 22 21  2  0  0  0  0
 24 23  1  0  0  0  0
 25 31  1  0  0  0  0
 26 30  1  0  0  0  0
 27 28  1  0  0  0  0
 27 26  1  0  0  0  0
 28 31  1  0  0  0  0
 29 27  1  0  0  0  0
 31 30  1  0  0  0  0
 31  1  1  0  0  0  0
 32 33  1  0  0  0  0
 33 28  1  0  0  0  0
 34 26  1  0  0  0  0
 34 38  1  0  0  0  0
 34 36  1  0  0  0  0
 35 36  2  0  0  0  0
 36 37  1  0  0  0  0
 38 43  1  0  0  0  0
 39 40  1  0  0  0  0
 39 38  1  0  0  0  0
 40 41  1  0  0  0  0
 42 40  2  0  0  0  0
 43 44  1  0  0  0  0
 44 45  1  0  0  0  0
 45 46  1  0  0  0  0
M  END
>  <MODEL>
3

>  <REMARK>
 VINA RESULT:      -6.5      2.356      3.935
  Name = 
  16 active torsions:
  status: ('A' for Active; 'I' for Inactive)
    1  A    between atoms: C_2  and  C_45
    2  A    between atoms: C_5  and  C_22
    3  A    between atoms: C_5  and  C_23
    4  A    between atoms: C_7  and  C_15
    5  A    between atoms: C_8  and  C_24
    6  A    between atoms: C_8  and  C_31
    7  A    between atoms: C_9  and  C_44
    8  A    between atoms: C_11  and  C_13
    9  A    between atoms: C_11  and  C_35
   10  A    between atoms: C_13  and  C_15
   11  A    between atoms: C_13  and  C_34
   12  A    between atoms: C_14  and  C_15
   13  A    between atoms: C_16  and  C_25
   14  A    between atoms: C_19  and  C_27
   15  A    between atoms: C_23  and  C_39
   16  A    between atoms: C_25  and  C_34
                            x       y       z     vdW  Elec       q    Type
                         _______ _______ _______ _____ _____    ______ ____

>  <TORSDO>
F 16

$$$$
=
 OpenBabel11062413223D

 46 49  0  0  1  0  0  0  0  0999 V2000
  189.6270  175.1780  137.1260 C   0  0  0  0  0  0  0  0  0  0  0  0
  188.9740  174.2420  137.6630 O   0  0  0  0  0  0  0  0  0  0  0  0
  187.6520  178.3850  138.2900 C   0  0  0  0  0  2  0  0  0  0  0  0
  191.9480  177.2540  139.5400 C   0  0  0  0  0  1  0  0  0  0  0  0
  189.8650  177.3820  140.8760 C   0  0  2  0  0  3  0  0  0  0  0  0
  189.2630  176.5680  137.4970 C   0  0  1  0  0  3  0  0  0  0  0  0
  187.8150  177.3540  136.7860 S   0  0  0  0  0  0  0  0  0  0  0  0
  189.7100  177.2240  138.5630 C   0  0  1  0  0  3  0  0  0  0  0  0
  189.0000  178.4720  140.3900 N   0  0  0  0  0  2  0  0  0  0  0  0
  188.9080  178.2760  139.0060 N   0  0  2  0  0  0  0  0  0  0  0  0
  190.5360  176.7130  139.6660 C   0  0  1  0  0  3  0  0  0  0  0  0
  189.0170  176.3670  141.6270 C   0  0  0  0  0  2  0  0  0  0  0  0
  189.5960  176.1020  143.0060 C   0  0  0  0  0  2  0  0  0  0  0  0
  188.3910  177.7890  146.2170 C   0  0  0  0  0  3  0  0  0  0  0  0
  189.2660  177.1750  145.3050 C   0  0  0  0  0  0  0  0  0  0  0  0
  186.5490  177.5710  144.6700 C   0  0  0  0  0  3  0  0  0  0  0  0
  187.4000  176.9600  143.7500 C   0  0  0  0  0  3  0  0  0  0  0  0
  188.7510  176.7520  144.0520 C   0  0  0  0  0  0  0  0  0  0  0  0
  187.0430  177.9810  145.9080 C   0  0  0  0  0  0  0  0  0  0  0  0
  190.9650  176.3730  146.7640 O   0  0  0  0  0  1  0  0  0  0  0  0
  190.6840  177.0000  145.7070 C   0  0  0  0  0  0  0  0  0  0  0  0
  191.7240  177.5100  144.9410 O   0  0  0  0  0  0  0  0  0  0  0  0
  186.1410  178.6500  146.8870 C   0  0  0  0  0  2  0  0  0  0  0  0
  184.6920  178.3850  146.5280 C   0  0  0  0  0  1  0  0  0  0  0  0
  190.5500  175.5690  134.8190 C   0  0  0  0  0  1  0  0  0  0  0  0
  192.9090  173.9310  136.8580 C   0  0  2  0  0  3  0  0  0  0  0  0
  192.2880  172.9340  135.8850 C   0  0  1  0  0  3  0  0  0  0  0  0
  190.8200  173.3150  135.9320 C   0  0  1  0  0  3  0  0  0  0  0  0
  192.8000  173.1260  134.5970 O   0  0  0  0  0  1  0  0  0  0  0  0
  192.0890  175.2130  136.7280 C   0  0  0  0  0  2  0  0  0  0  0  0
  190.7310  174.8360  136.1440 C   0  0  2  0  0  0  0  0  0  0  0  0
  190.2150  171.3100  134.7040 O   0  0  0  0  0  1  0  0  0  0  0  0
  189.8900  172.6520  134.9080 C   0  0  0  0  0  2  0  0  0  0  0  0
  194.4140  174.1680  136.6500 C   0  0  1  0  0  3  0  0  0  0  0  0
  194.4870  176.5520  136.8310 O   0  0  0  0  0  1  0  0  0  0  0  0
  194.6990  175.5430  136.1100 C   0  0  0  0  0  0  0  0  0  0  0  0
  195.1860  175.7100  134.8190 O   0  0  0  0  0  0  0  0  0  0  0  0
  195.2260  173.8490  137.9160 C   0  0  1  0  0  3  0  0  0  0  0  0
  195.2040  172.3530  138.2120 C   0  0  0  0  0  2  0  0  0  0  0  0
  195.8040  171.5780  137.0900 C   0  0  0  0  0  0  0  0  0  0  0  0
  194.9840  170.9520  136.1600 O   0  0  0  0  0  0  0  0  0  0  0  0
  197.0540  171.4790  136.9920 O   0  0  0  0  0  1  0  0  0  0  0  0
  196.6550  174.3910  137.8440 C   0  0  0  0  0  2  0  0  0  0  0  0
  197.3960  174.1760  139.1580 C   0  0  0  0  0  2  0  0  0  0  0  0
  196.9760  175.1990  140.2020 C   0  0  0  0  0  2  0  0  0  0  0  0
  197.9150  175.1950  141.3110 N   0  0  0  0  0  1  0  0  0  0  0  0
  1  2  2  0  0  0  0
  3 10  1  0  0  0  0
  4 11  1  0  0  0  0
  5 12  1  6  0  0  0
  6  1  1  1  0  0  0
  6  8  1  0  0  0  0
  7  6  1  0  0  0  0
  7  3  1  0  0  0  0
  8 10  1  0  0  0  0
  8 11  1  0  0  0  0
  9  5  1  0  0  0  0
 10  9  1  0  0  0  0
 11  5  1  0  0  0  0
 12 13  1  0  0  0  0
 13 18  1  0  0  0  0
 15 21  1  0  0  0  0
 15 14  2  0  0  0  0
 16 19  2  0  0  0  0
 17 18  2  0  0  0  0
 17 16  1  0  0  0  0
 18 15  1  0  0  0  0
 19 14  1  0  0  0  0
 19 23  1  0  0  0  0
 21 20  1  0  0  0  0
 22 21  2  0  0  0  0
 24 23  1  0  0  0  0
 25 31  1  0  0  0  0
 27 28  1  0  0  0  0
 27 26  1  0  0  0  0
 28 31  1  0  0  0  0
 29 27  1  0  0  0  0
 30 26  1  0  0  0  0
 31 30  1  0  0  0  0
 31  1  1  0  0  0  0
 32 33  1  0  0  0  0
 33 28  1  0  0  0  0
 34 26  1  0  0  0  0
 34 38  1  0  0  0  0
 36 34  1  0  0  0  0
 36 35  1  0  0  0  0
 37 36  2  0  0  0  0
 38 39  1  0  0  0  0
 40 39  1  0  0  0  0
 41 40  2  0  0  0  0
 42 40  1  0  0  0  0
 43 38  1  0  0  0  0
 43 44  1  0  0  0  0
 44 45  1  0  0  0  0
 45 46  1  0  0  0  0
M  END
>  <MODEL>
4

>  <REMARK>
 VINA RESULT:      -6.5      4.997      7.094
  Name = 
  16 active torsions:
  status: ('A' for Active; 'I' for Inactive)
    1  A    between atoms: C_2  and  C_45
    2  A    between atoms: C_5  and  C_22
    3  A    between atoms: C_5  and  C_23
    4  A    between atoms: C_7  and  C_15
    5  A    between atoms: C_8  and  C_24
    6  A    between atoms: C_8  and  C_31
    7  A    between atoms: C_9  and  C_44
    8  A    between atoms: C_11  and  C_13
    9  A    between atoms: C_11  and  C_35
   10  A    between atoms: C_13  and  C_15
   11  A    between atoms: C_13  and  C_34
   12  A    between atoms: C_14  and  C_15
   13  A    between atoms: C_16  and  C_25
   14  A    between atoms: C_19  and  C_27
   15  A    between atoms: C_23  and  C_39
   16  A    between atoms: C_25  and  C_34
                            x       y       z     vdW  Elec       q    Type
                         _______ _______ _______ _____ _____    ______ ____

>  <TORSDO>
F 16

$$$$
=
 OpenBabel11062413223D

 46 49  0  0  1  0  0  0  0  0999 V2000
  190.0780  174.9990  137.0780 C   0  0  0  0  0  0  0  0  0  0  0  0
  189.4730  174.0840  137.7010 O   0  0  0  0  0  0  0  0  0  0  0  0
  187.9850  178.2150  137.9780 C   0  0  0  0  0  2  0  0  0  0  0  0
  192.2830  177.3050  139.3880 C   0  0  0  0  0  1  0  0  0  0  0  0
  190.1690  177.4600  140.6710 C   0  0  2  0  0  3  0  0  0  0  0  0
  189.6660  176.3980  137.3440 C   0  0  1  0  0  3  0  0  0  0  0  0
  188.2110  177.0900  136.5520 S   0  0  0  0  0  0  0  0  0  0  0  0
  190.0690  177.1390  138.3710 C   0  0  1  0  0  3  0  0  0  0  0  0
  189.2820  178.4870  140.0930 N   0  0  0  0  0  2  0  0  0  0  0  0
  189.2280  178.1940  138.7250 N   0  0  2  0  0  0  0  0  0  0  0  0
  190.8850  176.7310  139.5240 C   0  0  1  0  0  3  0  0  0  0  0  0
  189.3340  176.4720  141.4730 C   0  0  0  0  0  2  0  0  0  0  0  0
  189.9620  176.2230  142.8340 C   0  0  0  0  0  2  0  0  0  0  0  0
  188.5540  177.5360  146.1350 C   0  0  0  0  0  3  0  0  0  0  0  0
  189.5000  177.1120  145.1880 C   0  0  0  0  0  0  0  0  0  0  0  0
  186.7480  177.1190  144.5870 C   0  0  0  0  0  3  0  0  0  0  0  0
  187.6700  176.6950  143.6310 C   0  0  0  0  0  3  0  0  0  0  0  0
  189.0410  176.6810  143.9170 C   0  0  0  0  0  0  0  0  0  0  0  0
  187.1890  177.5350  145.8430 C   0  0  0  0  0  0  0  0  0  0  0  0
  191.7150  177.9670  145.0370 O   0  0  0  0  0  0  0  0  0  0  0  0
  190.9340  177.1360  145.5740 C   0  0  0  0  0  0  0  0  0  0  0  0
  191.4450  176.2620  146.5240 O   0  0  0  0  0  1  0  0  0  0  0  0
  186.2080  178.0060  146.8600 C   0  0  0  0  0  2  0  0  0  0  0  0
  185.7720  179.4250  146.5470 C   0  0  0  0  0  1  0  0  0  0  0  0
  191.0040  175.3260  134.7620 C   0  0  0  0  0  1  0  0  0  0  0  0
  193.3450  173.7080  136.8370 C   0  0  2  0  0  3  0  0  0  0  0  0
  192.7120  172.6960  135.8870 C   0  0  1  0  0  3  0  0  0  0  0  0
  191.2490  173.0950  135.9250 C   0  0  1  0  0  3  0  0  0  0  0  0
  193.2260  172.8530  134.5950 O   0  0  0  0  0  1  0  0  0  0  0  0
  192.5400  174.9960  136.6790 C   0  0  0  0  0  2  0  0  0  0  0  0
  191.1770  174.6210  136.1040 C   0  0  2  0  0  0  0  0  0  0  0  0
  189.9110  171.1540  135.3470 O   0  0  0  0  0  1  0  0  0  0  0  0
  190.3100  172.4200  134.9170 C   0  0  0  0  0  2  0  0  0  0  0  0
  194.8530  173.9230  136.6230 C   0  0  1  0  0  3  0  0  0  0  0  0
  194.6590  176.2700  137.0350 O   0  0  0  0  0  1  0  0  0  0  0  0
  195.1830  175.3620  136.3400 C   0  0  0  0  0  0  0  0  0  0  0  0
  196.0540  175.6990  135.3100 O   0  0  0  0  0  0  0  0  0  0  0  0
  195.6850  173.3400  137.7780 C   0  0  1  0  0  3  0  0  0  0  0  0
  195.5260  174.1820  139.0400 C   0  0  0  0  0  2  0  0  0  0  0  0
  196.8280  174.7760  139.4530 C   0  0  0  0  0  0  0  0  0  0  0  0
  197.0160  175.1980  140.7620 O   0  0  0  0  0  1  0  0  0  0  0  0
  197.7540  174.9080  138.6110 O   0  0  0  0  0  0  0  0  0  0  0  0
  195.3680  171.8660  138.0380 C   0  0  0  0  0  2  0  0  0  0  0  0
  196.3950  170.9540  137.3780 C   0  0  0  0  0  2  0  0  0  0  0  0
  197.7460  171.6410  137.2580 C   0  0  0  0  0  2  0  0  0  0  0  0
  198.1880  171.6360  135.8740 N   0  0  0  0  0  1  0  0  0  0  0  0
  1  2  2  0  0  0  0
  3 10  1  0  0  0  0
  4 11  1  0  0  0  0
  5 12  1  6  0  0  0
  6  1  1  1  0  0  0
  6  8  1  0  0  0  0
  7  6  1  0  0  0  0
  7  3  1  0  0  0  0
  8 10  1  0  0  0  0
  8 11  1  0  0  0  0
  9  5  1  0  0  0  0
 10  9  1  0  0  0  0
 11  5  1  0  0  0  0
 12 13  1  0  0  0  0
 13 18  1  0  0  0  0
 15 21  1  0  0  0  0
 15 14  2  0  0  0  0
 16 19  2  0  0  0  0
 17 18  2  0  0  0  0
 17 16  1  0  0  0  0
 18 15  1  0  0  0  0
 19 14  1  0  0  0  0
 19 23  1  0  0  0  0
 20 21  2  0  0  0  0
 21 22  1  0  0  0  0
 24 23  1  0  0  0  0
 25 31  1  0  0  0  0
 27 28  1  0  0  0  0
 27 26  1  0  0  0  0
 28 31  1  0  0  0  0
 29 27  1  0  0  0  0
 30 26  1  0  0  0  0
 31 30  1  0  0  0  0
 31  1  1  0  0  0  0
 33 32  1  0  0  0  0
 33 28  1  0  0  0  0
 34 26  1  0  0  0  0
 34 38  1  0  0  0  0
 36 34  1  0  0  0  0
 36 35  1  0  0  0  0
 37 36  2  0  0  0  0
 38 43  1  0  0  0  0
 38 39  1  0  0  0  0
 39 40  1  0  0  0  0
 40 41  1  0  0  0  0
 42 40  2  0  0  0  0
 44 43  1  0  0  0  0
 45 44  1  0  0  0  0
 46 45  1  0  0  0  0
M  END
>  <MODEL>
5

>  <REMARK>
 VINA RESULT:      -6.4      5.226      7.238
  Name = 
  16 active torsions:
  status: ('A' for Active; 'I' for Inactive)
    1  A    between atoms: C_2  and  C_45
    2  A    between atoms: C_5  and  C_22
    3  A    between atoms: C_5  and  C_23
    4  A    between atoms: C_7  and  C_15
    5  A    between atoms: C_8  and  C_24
    6  A    between atoms: C_8  and  C_31
    7  A    between atoms: C_9  and  C_44
    8  A    between atoms: C_11  and  C_13
    9  A    between atoms: C_11  and  C_35
   10  A    between atoms: C_13  and  C_15
   11  A    between atoms: C_13  and  C_34
   12  A    between atoms: C_14  and  C_15
   13  A    between atoms: C_16  and  C_25
   14  A    between atoms: C_19  and  C_27
   15  A    between atoms: C_23  and  C_39
   16  A    between atoms: C_25  and  C_34
                            x       y       z     vdW  Elec       q    Type
                         _______ _______ _______ _____ _____    ______ ____

>  <TORSDO>
F 16

$$$$
=
 OpenBabel11062413223D

 46 49  0  0  1  0  0  0  0  0999 V2000
  182.2580  175.9960  138.9960 C   0  0  0  0  0  0  0  0  0  0  0  0
  183.0100  175.6170  139.9350 O   0  0  0  0  0  0  0  0  0  0  0  0
  178.9310  177.0410  140.8330 C   0  0  0  0  0  2  0  0  0  0  0  0
  182.0220  179.9280  138.9890 C   0  0  0  0  0  1  0  0  0  0  0  0
  181.3830  179.5530  141.3530 C   0  0  2  0  0  3  0  0  0  0  0  0
  180.9870  176.6670  139.3630 C   0  0  1  0  0  3  0  0  0  0  0  0
  179.5170  175.7040  139.7290 S   0  0  0  0  0  0  0  0  0  0  0  0
  180.8700  177.9250  139.7760 C   0  0  1  0  0  3  0  0  0  0  0  0
  179.9470  179.2330  141.4610 N   0  0  0  0  0  2  0  0  0  0  0  0
  179.7300  178.2120  140.5270 N   0  0  2  0  0  0  0  0  0  0  0  0
  181.9390  178.8840  140.0870 C   0  0  1  0  0  3  0  0  0  0  0  0
  182.1060  179.0220  142.5820 C   0  0  0  0  0  2  0  0  0  0  0  0
  183.5210  178.5980  142.2260 C   0  0  0  0  0  2  0  0  0  0  0  0
  186.4610  178.2820  144.6490 C   0  0  0  0  0  3  0  0  0  0  0  0
  185.7650  178.3490  143.4300 C   0  0  0  0  0  0  0  0  0  0  0  0
  184.4030  178.5220  145.8900 C   0  0  0  0  0  3  0  0  0  0  0  0
  183.6930  178.5920  144.6930 C   0  0  0  0  0  3  0  0  0  0  0  0
  184.3550  178.5020  143.4620 C   0  0  0  0  0  0  0  0  0  0  0  0
  185.7890  178.3610  145.8700 C   0  0  0  0  0  0  0  0  0  0  0  0
  186.1150  178.7920  141.1190 O   0  0  0  0  0  0  0  0  0  0  0  0
  186.5480  178.2520  142.1730 C   0  0  0  0  0  0  0  0  0  0  0  0
  187.7630  177.5790  142.1230 O   0  0  0  0  0  1  0  0  0  0  0  0
  186.5530  178.3050  147.1470 C   0  0  0  0  0  2  0  0  0  0  0  0
  188.0020  177.9480  146.8740 C   0  0  0  0  0  1  0  0  0  0  0  0
  181.6430  176.2420  136.5690 C   0  0  0  0  0  1  0  0  0  0  0  0
  185.0430  175.3940  136.9270 C   0  0  2  0  0  3  0  0  0  0  0  0
  184.2510  174.1710  136.4750 C   0  0  1  0  0  3  0  0  0  0  0  0
  183.0080  174.2580  137.3400 C   0  0  1  0  0  3  0  0  0  0  0  0
  183.9120  174.2830  135.1220 O   0  0  0  0  0  1  0  0  0  0  0  0
  184.0070  176.4600  137.2800 C   0  0  0  0  0  2  0  0  0  0  0  0
  182.6880  175.7470  137.5630 C   0  0  2  0  0  0  0  0  0  0  0  0
  182.2940  171.9670  136.9740 O   0  0  0  0  0  1  0  0  0  0  0  0
  181.8600  173.2930  137.0190 C   0  0  0  0  0  2  0  0  0  0  0  0
  186.0800  175.8920  135.9070 C   0  0  1  0  0  3  0  0  0  0  0  0
  185.3090  177.7360  134.5940 O   0  0  0  0  0  0  0  0  0  0  0  0
  185.9310  177.3600  135.6210 C   0  0  0  0  0  0  0  0  0  0  0  0
  186.4810  178.3080  136.4760 O   0  0  0  0  0  1  0  0  0  0  0  0
  187.5130  175.5100  136.3140 C   0  0  1  0  0  3  0  0  0  0  0  0
  187.8800  174.1290  135.7810 C   0  0  0  0  0  2  0  0  0  0  0  0
  188.0960  173.1670  136.8970 C   0  0  0  0  0  0  0  0  0  0  0  0
  189.3070  173.1480  137.5760 O   0  0  0  0  0  1  0  0  0  0  0  0
  187.1850  172.3600  137.2170 O   0  0  0  0  0  0  0  0  0  0  0  0
  188.5380  176.5680  135.8960 C   0  0  0  0  0  2  0  0  0  0  0  0
  189.7220  176.6010  136.8540 C   0  0  0  0  0  2  0  0  0  0  0  0
  189.2580  176.6590  138.3010 C   0  0  0  0  0  2  0  0  0  0  0  0
  190.2710  176.0880  139.1730 N   0  0  0  0  0  1  0  0  0  0  0  0
  1  2  2  0  0  0  0
  4 11  1  0  0  0  0
  5  9  1  0  0  0  0
  5 12  1  1  0  0  0
  6  1  1  1  0  0  0
  6  7  1  0  0  0  0
  6  8  1  0  0  0  0
  7  3  1  0  0  0  0
  8 11  1  0  0  0  0
  8 10  1  0  0  0  0
 10  3  1  0  0  0  0
 10  9  1  0  0  0  0
 11  5  1  0  0  0  0
 13 12  1  0  0  0  0
 13 18  1  0  0  0  0
 14 19  1  0  0  0  0
 15 18  1  0  0  0  0
 15 14  2  0  0  0  0
 17 16  1  0  0  0  0
 18 17  2  0  0  0  0
 19 16  2  0  0  0  0
 19 23  1  0  0  0  0
 20 21  2  0  0  0  0
 21 15  1  0  0  0  0
 22 21  1  0  0  0  0
 24 23  1  0  0  0  0
 25 31  1  0  0  0  0
 26 30  1  0  0  0  0
 27 26  1  0  0  0  0
 27 28  1  0  0  0  0
 28 31  1  0  0  0  0
 29 27  1  0  0  0  0
 30 31  1  0  0  0  0
 31  1  1  0  0  0  0
 32 33  1  0  0  0  0
 33 28  1  0  0  0  0
 34 38  1  0  0  0  0
 34 26  1  0  0  0  0
 35 36  2  0  0  0  0
 36 34  1  0  0  0  0
 36 37  1  0  0  0  0
 39 38  1  0  0  0  0
 39 40  1  0  0  0  0
 40 42  2  0  0  0  0
 40 41  1  0  0  0  0
 43 38  1  0  0  0  0
 43 44  1  0  0  0  0
 44 45  1  0  0  0  0
 45 46  1  0  0  0  0
M  END
>  <MODEL>
6

>  <REMARK>
 VINA RESULT:      -5.9      2.291      4.294
  Name = 
  16 active torsions:
  status: ('A' for Active; 'I' for Inactive)
    1  A    between atoms: C_2  and  C_45
    2  A    between atoms: C_5  and  C_22
    3  A    between atoms: C_5  and  C_23
    4  A    between atoms: C_7  and  C_15
    5  A    between atoms: C_8  and  C_24
    6  A    between atoms: C_8  and  C_31
    7  A    between atoms: C_9  and  C_44
    8  A    between atoms: C_11  and  C_13
    9  A    between atoms: C_11  and  C_35
   10  A    between atoms: C_13  and  C_15
   11  A    between atoms: C_13  and  C_34
   12  A    between atoms: C_14  and  C_15
   13  A    between atoms: C_16  and  C_25
   14  A    between atoms: C_19  and  C_27
   15  A    between atoms: C_23  and  C_39
   16  A    between atoms: C_25  and  C_34
                            x       y       z     vdW  Elec       q    Type
                         _______ _______ _______ _____ _____    ______ ____

>  <TORSDO>
F 16

$$$$
=
 OpenBabel11062413223D

 46 49  0  0  1  0  0  0  0  0999 V2000
  188.9060  175.5030  137.5990 C   0  0  0  0  0  0  0  0  0  0  0  0
  188.3470  174.5420  138.1960 O   0  0  0  0  0  0  0  0  0  0  0  0
  186.9420  178.6410  138.9520 C   0  0  0  0  0  2  0  0  0  0  0  0
  191.3440  177.6050  139.8700 C   0  0  0  0  0  1  0  0  0  0  0  0
  189.3620  177.6610  141.3560 C   0  0  2  0  0  3  0  0  0  0  0  0
  188.5360  176.8770  138.0160 C   0  0  1  0  0  3  0  0  0  0  0  0
  187.0210  177.6360  137.4250 S   0  0  0  0  0  0  0  0  0  0  0  0
  189.0430  177.5300  139.0570 C   0  0  1  0  0  3  0  0  0  0  0  0
  188.4360  178.7350  140.9500 N   0  0  0  0  0  2  0  0  0  0  0  0
  188.2490  178.5550  139.5730 N   0  0  2  0  0  0  0  0  0  0  0  0
  189.9590  177.0260  140.0900 C   0  0  1  0  0  3  0  0  0  0  0  0
  188.5950  176.6140  142.1500 C   0  0  0  0  0  2  0  0  0  0  0  0
  187.3320  177.2140  142.7450 C   0  0  0  0  0  2  0  0  0  0  0  0
  186.7320  178.0590  146.4240 C   0  0  0  0  0  3  0  0  0  0  0  0
  186.5120  177.9990  145.0380 C   0  0  0  0  0  0  0  0  0  0  0  0
  188.8060  176.8440  146.1950 C   0  0  0  0  0  3  0  0  0  0  0  0
  188.6080  176.7720  144.8170 C   0  0  0  0  0  3  0  0  0  0  0  0
  187.4750  177.3450  144.2270 C   0  0  0  0  0  0  0  0  0  0  0  0
  187.8710  177.4930  147.0000 C   0  0  0  0  0  0  0  0  0  0  0  0
  185.3700  179.5880  143.6850 O   0  0  0  0  0  0  0  0  0  0  0  0
  185.2810  178.6290  144.4990 C   0  0  0  0  0  0  0  0  0  0  0  0
  184.0170  178.1840  144.8650 O   0  0  0  0  0  1  0  0  0  0  0  0
  188.0700  177.5550  148.4750 C   0  0  0  0  0  2  0  0  0  0  0  0
  189.0900  178.6240  148.8190 C   0  0  0  0  0  1  0  0  0  0  0  0
  189.6140  176.0010  135.2380 C   0  0  0  0  0  1  0  0  0  0  0  0
  192.1350  174.2520  136.9650 C   0  0  2  0  0  3  0  0  0  0  0  0
  191.4170  173.3070  136.0070 C   0  0  1  0  0  3  0  0  0  0  0  0
  189.9640  173.6940  136.2090 C   0  0  1  0  0  3  0  0  0  0  0  0
  191.8090  173.5600  134.6880 O   0  0  0  0  0  1  0  0  0  0  0  0
  191.3200  175.5430  136.9750 C   0  0  0  0  0  2  0  0  0  0  0  0
  189.9100  175.2030  136.5030 C   0  0  2  0  0  0  0  0  0  0  0  0
  188.7210  171.7320  135.5010 O   0  0  0  0  0  1  0  0  0  0  0  0
  188.9350  173.0870  135.2460 C   0  0  0  0  0  2  0  0  0  0  0  0
  193.6180  174.4900  136.6290 C   0  0  1  0  0  3  0  0  0  0  0  0
  194.4830  176.6900  136.2670 O   0  0  0  0  0  0  0  0  0  0  0  0
  194.0940  175.8350  137.1040 C   0  0  0  0  0  0  0  0  0  0  0  0
  194.1190  176.1380  138.4600 O   0  0  0  0  0  1  0  0  0  0  0  0
  194.5100  173.3380  137.1190 C   0  0  1  0  0  3  0  0  0  0  0  0
  195.0940  172.5650  135.9420 C   0  0  0  0  0  2  0  0  0  0  0  0
  194.7920  171.1110  136.0550 C   0  0  0  0  0  0  0  0  0  0  0  0
  193.5250  170.6910  136.4340 O   0  0  0  0  0  1  0  0  0  0  0  0
  195.6910  170.2620  135.8200 O   0  0  0  0  0  0  0  0  0  0  0  0
  195.6000  173.8150  138.0810 C   0  0  0  0  0  2  0  0  0  0  0  0
  196.8770  173.0000  137.9190 C   0  0  0  0  0  2  0  0  0  0  0  0
  198.0560  173.8890  137.5540 C   0  0  0  0  0  2  0  0  0  0  0  0
  197.6350  175.2790  137.5000 N   0  0  0  0  0  1  0  0  0  0  0  0
  1  2  2  0  0  0  0
  3 10  1  0  0  0  0
  4 11  1  0  0  0  0
  5 12  1  6  0  0  0
  6  1  1  1  0  0  0
  6  8  1  0  0  0  0
  7  6  1  0  0  0  0
  7  3  1  0  0  0  0
  8 10  1  0  0  0  0
  8 11  1  0  0  0  0
  9  5  1  0  0  0  0
 10  9  1  0  0  0  0
 11  5  1  0  0  0  0
 12 13  1  0  0  0  0
 13 18  1  0  0  0  0
 14 19  1  0  0  0  0
 15 14  2  0  0  0  0
 16 19  2  0  0  0  0
 17 16  1  0  0  0  0
 18 17  2  0  0  0  0
 18 15  1  0  0  0  0
 19 23  1  0  0  0  0
 20 21  2  0  0  0  0
 21 22  1  0  0  0  0
 21 15  1  0  0  0  0
 23 24  1  0  0  0  0
 25 31  1  0  0  0  0
 26 30  1  0  0  0  0
 27 28  1  0  0  0  0
 27 26  1  0  0  0  0
 28 31  1  0  0  0  0
 29 27  1  0  0  0  0
 31 30  1  0  0  0  0
 31  1  1  0  0  0  0
 33 32  1  0  0  0  0
 33 28  1  0  0  0  0
 34 26  1  0  0  0  0
 34 36  1  0  0  0  0
 34 38  1  0  0  0  0
 35 36  2  0  0  0  0
 36 37  1  0  0  0  0
 38 43  1  0  0  0  0
 39 40  1  0  0  0  0
 39 38  1  0  0  0  0
 40 41  1  0  0  0  0
 42 40  2  0  0  0  0
 44 43  1  0  0  0  0
 45 44  1  0  0  0  0
 46 45  1  0  0  0  0
M  END
>  <MODEL>
7

>  <REMARK>
 VINA RESULT:      -5.8      4.059      6.230
  Name = 
  16 active torsions:
  status: ('A' for Active; 'I' for Inactive)
    1  A    between atoms: C_2  and  C_45
    2  A    between atoms: C_5  and  C_22
    3  A    between atoms: C_5  and  C_23
    4  A    between atoms: C_7  and  C_15
    5  A    between atoms: C_8  and  C_24
    6  A    between atoms: C_8  and  C_31
    7  A    between atoms: C_9  and  C_44
    8  A    between atoms: C_11  and  C_13
    9  A    between atoms: C_11  and  C_35
   10  A    between atoms: C_13  and  C_15
   11  A    between atoms: C_13  and  C_34
   12  A    between atoms: C_14  and  C_15
   13  A    between atoms: C_16  and  C_25
   14  A    between atoms: C_19  and  C_27
   15  A    between atoms: C_23  and  C_39
   16  A    between atoms: C_25  and  C_34
                            x       y       z     vdW  Elec       q    Type
                         _______ _______ _______ _____ _____    ______ ____

>  <TORSDO>
F 16

$$$$
=
 OpenBabel11062413223D

 46 49  0  0  1  0  0  0  0  0999 V2000
  183.0910  176.4830  138.0450 C   0  0  0  0  0  0  0  0  0  0  0  0
  183.6030  176.9150  139.1140 O   0  0  0  0  0  0  0  0  0  0  0  0
  179.2540  176.0690  138.8470 C   0  0  0  0  0  2  0  0  0  0  0  0
  181.1840  179.6260  136.6300 C   0  0  0  0  0  1  0  0  0  0  0  0
  180.0740  179.5220  138.8420 C   0  0  2  0  0  3  0  0  0  0  0  0
  181.6110  176.4750  137.9480 C   0  0  1  0  0  3  0  0  0  0  0  0
  180.6740  175.0090  138.3880 S   0  0  0  0  0  0  0  0  0  0  0  0
  180.8380  177.5530  137.8720 C   0  0  1  0  0  3  0  0  0  0  0  0
  178.9660  178.5480  138.8250 N   0  0  0  0  0  2  0  0  0  0  0  0
  179.5160  177.3790  138.2840 N   0  0  2  0  0  0  0  0  0  0  0  0
  181.2280  178.9650  137.9950 C   0  0  1  0  0  3  0  0  0  0  0  0
  180.5350  179.7270  140.2780 C   0  0  0  0  0  2  0  0  0  0  0  0
  180.9410  178.4030  140.9030 C   0  0  0  0  0  2  0  0  0  0  0  0
  182.5080  179.0110  144.3360 C   0  0  0  0  0  3  0  0  0  0  0  0
  181.5140  178.8110  143.3620 C   0  0  0  0  0  0  0  0  0  0  0  0
  184.2430  178.8550  142.6630 C   0  0  0  0  0  3  0  0  0  0  0  0
  183.2740  178.6540  141.6820 C   0  0  0  0  0  3  0  0  0  0  0  0
  181.9130  178.6350  142.0130 C   0  0  0  0  0  0  0  0  0  0  0  0
  183.8600  179.0390  143.9920 C   0  0  0  0  0  0  0  0  0  0  0  0
  179.6190  177.7710  144.3540 O   0  0  0  0  0  1  0  0  0  0  0  0
  180.0970  178.7990  143.8040 C   0  0  0  0  0  0  0  0  0  0  0  0
  179.2730  179.9040  143.6300 O   0  0  0  0  0  0  0  0  0  0  0  0
  184.8940  179.2350  145.0460 C   0  0  0  0  0  2  0  0  0  0  0  0
  184.6580  178.2720  146.1940 C   0  0  0  0  0  1  0  0  0  0  0  0
  183.2840  175.9640  135.5910 C   0  0  0  0  0  1  0  0  0  0  0  0
  186.4620  176.0930  137.1050 C   0  0  2  0  0  3  0  0  0  0  0  0
  186.0670  174.6400  136.8580 C   0  0  1  0  0  3  0  0  0  0  0  0
  184.6100  174.6300  137.2810 C   0  0  1  0  0  3  0  0  0  0  0  0
  186.1820  174.3280  135.4990 O   0  0  0  0  0  1  0  0  0  0  0  0
  185.2140  176.9240  136.8130 C   0  0  0  0  0  2  0  0  0  0  0  0
  184.0050  176.0010  136.9350 C   0  0  2  0  0  0  0  0  0  0  0  0
  184.5650  172.2070  137.1380 O   0  0  0  0  0  1  0  0  0  0  0  0
  183.8000  173.3630  136.9780 C   0  0  0  0  0  2  0  0  0  0  0  0
  187.6870  176.5630  136.3020 C   0  0  1  0  0  3  0  0  0  0  0  0
  187.7070  178.2980  134.6570 O   0  0  0  0  0  0  0  0  0  0  0  0
  187.5610  177.9970  135.8690 C   0  0  0  0  0  0  0  0  0  0  0  0
  187.2960  178.9960  136.7990 O   0  0  0  0  0  1  0  0  0  0  0  0
  189.0030  176.2810  137.0460 C   0  0  1  0  0  3  0  0  0  0  0  0
  190.0670  175.7550  136.0890 C   0  0  0  0  0  2  0  0  0  0  0  0
  191.1330  175.0220  136.8260 C   0  0  0  0  0  0  0  0  0  0  0  0
  190.8140  173.8980  137.5760 O   0  0  0  0  0  1  0  0  0  0  0  0
  192.3230  175.4290  136.7810 O   0  0  0  0  0  0  0  0  0  0  0  0
  189.4990  177.4970  137.8310 C   0  0  0  0  0  2  0  0  0  0  0  0
  189.1920  177.3610  139.3170 C   0  0  0  0  0  2  0  0  0  0  0  0
  190.3640  176.7490  140.0690 C   0  0  0  0  0  2  0  0  0  0  0  0
  191.6040  177.3910  139.6670 N   0  0  0  0  0  1  0  0  0  0  0  0
  1  2  2  0  0  0  0
  4 11  1  0  0  0  0
  5 12  1  1  0  0  0
  6  1  1  1  0  0  0
  6  7  1  0  0  0  0
  7  3  1  0  0  0  0
  8  6  1  0  0  0  0
  8 11  1  0  0  0  0
  8 10  1  0  0  0  0
  9  5  1  0  0  0  0
 10  9  1  0  0  0  0
 10  3  1  0  0  0  0
 11  5  1  0  0  0  0
 12 13  1  0  0  0  0
 13 18  1  0  0  0  0
 15 21  1  0  0  0  0
 15 14  2  0  0  0  0
 16 19  2  0  0  0  0
 17 18  2  0  0  0  0
 17 16  1  0  0  0  0
 18 15  1  0  0  0  0
 19 14  1  0  0  0  0
 19 23  1  0  0  0  0
 21 20  1  0  0  0  0
 22 21  2  0  0  0  0
 23 24  1  0  0  0  0
 25 31  1  0  0  0  0
 27 26  1  0  0  0  0
 27 28  1  0  0  0  0
 29 27  1  0  0  0  0
 30 31  1  0  0  0  0
 30 26  1  0  0  0  0
 31 28  1  0  0  0  0
 31  1  1  0  0  0  0
 33 32  1  0  0  0  0
 33 28  1  0  0  0  0
 34 38  1  0  0  0  0
 34 26  1  0  0  0  0
 35 36  2  0  0  0  0
 36 34  1  0  0  0  0
 36 37  1  0  0  0  0
 38 43  1  0  0  0  0
 39 40  1  0  0  0  0
 39 38  1  0  0  0  0
 40 41  1  0  0  0  0
 42 40  2  0  0  0  0
 43 44  1  0  0  0  0
 44 45  1  0  0  0  0
 46 45  1  0  0  0  0
M  END
>  <MODEL>
8

>  <REMARK>
 VINA RESULT:      -5.8      1.923      2.769
  Name = 
  16 active torsions:
  status: ('A' for Active; 'I' for Inactive)
    1  A    between atoms: C_2  and  C_45
    2  A    between atoms: C_5  and  C_22
    3  A    between atoms: C_5  and  C_23
    4  A    between atoms: C_7  and  C_15
    5  A    between atoms: C_8  and  C_24
    6  A    between atoms: C_8  and  C_31
    7  A    between atoms: C_9  and  C_44
    8  A    between atoms: C_11  and  C_13
    9  A    between atoms: C_11  and  C_35
   10  A    between atoms: C_13  and  C_15
   11  A    between atoms: C_13  and  C_34
   12  A    between atoms: C_14  and  C_15
   13  A    between atoms: C_16  and  C_25
   14  A    between atoms: C_19  and  C_27
   15  A    between atoms: C_23  and  C_39
   16  A    between atoms: C_25  and  C_34
                            x       y       z     vdW  Elec       q    Type
                         _______ _______ _______ _____ _____    ______ ____

>  <TORSDO>
F 16

$$$$
=
 OpenBabel11062413223D

 46 49  0  0  1  0  0  0  0  0999 V2000
  186.9340  177.5960  142.7170 C   0  0  0  0  0  0  0  0  0  0  0  0
  187.0880  176.7920  143.6770 O   0  0  0  0  0  0  0  0  0  0  0  0
  189.3460  178.3670  139.6970 C   0  0  0  0  0  2  0  0  0  0  0  0
  189.9360  175.0490  142.8490 C   0  0  0  0  0  1  0  0  0  0  0  0
  191.2510  177.1020  142.4100 C   0  0  2  0  0  3  0  0  0  0  0  0
  187.8470  177.4600  141.5560 C   0  0  1  0  0  3  0  0  0  0  0  0
  187.5500  178.3840  140.0460 S   0  0  0  0  0  0  0  0  0  0  0  0
  189.0780  176.9620  141.5980 C   0  0  1  0  0  3  0  0  0  0  0  0
  191.2700  177.4120  140.9690 N   0  0  0  0  0  2  0  0  0  0  0  0
  189.9290  177.3650  140.5680 N   0  0  2  0  0  0  0  0  0  0  0  0
  189.8600  176.5620  142.7760 C   0  0  1  0  0  3  0  0  0  0  0  0
  191.5390  178.3720  143.1980 C   0  0  0  0  0  2  0  0  0  0  0  0
  192.0550  178.0330  144.5870 C   0  0  0  0  0  2  0  0  0  0  0  0
  189.8250  176.5600  147.3200 C   0  0  0  0  0  3  0  0  0  0  0  0
  190.9490  176.7370  146.4960 C   0  0  0  0  0  0  0  0  0  0  0  0
  188.6650  178.3600  146.2030 C   0  0  0  0  0  3  0  0  0  0  0  0
  189.7700  178.5540  145.3750 C   0  0  0  0  0  3  0  0  0  0  0  0
  190.9110  177.7520  145.5050 C   0  0  0  0  0  0  0  0  0  0  0  0
  188.6890  177.3580  147.1730 C   0  0  0  0  0  0  0  0  0  0  0  0
  192.8480  175.9990  147.7240 O   0  0  0  0  0  1  0  0  0  0  0  0
  192.1170  175.8460  146.7080 C   0  0  0  0  0  0  0  0  0  0  0  0
  192.4310  174.8320  145.8120 O   0  0  0  0  0  0  0  0  0  0  0  0
  187.5180  177.1610  148.0710 C   0  0  0  0  0  2  0  0  0  0  0  0
  187.4810  178.2470  149.1290 C   0  0  0  0  0  1  0  0  0  0  0  0
  186.4190  180.0550  142.8560 C   0  0  0  0  0  1  0  0  0  0  0  0
  183.5200  178.2010  142.1070 C   0  0  2  0  0  3  0  0  0  0  0  0
  183.4910  178.6340  143.5690 C   0  0  1  0  0  3  0  0  0  0  0  0
  184.9200  178.3750  144.0060 C   0  0  1  0  0  3  0  0  0  0  0  0
  183.1920  179.9980  143.6680 O   0  0  0  0  0  1  0  0  0  0  0  0
  184.9180  178.5400  141.5940 C   0  0  0  0  0  2  0  0  0  0  0  0
  185.8410  178.6440  142.8040 C   0  0  2  0  0  0  0  0  0  0  0  0
  184.3660  178.6210  146.3570 O   0  0  0  0  0  1  0  0  0  0  0  0
  185.3360  178.8900  145.3900 C   0  0  0  0  0  2  0  0  0  0  0  0
  182.4070  178.8150  141.2410 C   0  0  1  0  0  3  0  0  0  0  0  0
  182.6110  179.7970  139.0700 O   0  0  0  0  0  0  0  0  0  0  0  0
  182.7390  178.7630  139.7750 C   0  0  0  0  0  0  0  0  0  0  0  0
  183.1780  177.5810  139.1900 O   0  0  0  0  0  1  0  0  0  0  0  0
  181.0310  178.2050  141.5580 C   0  0  1  0  0  3  0  0  0  0  0  0
  180.0790  179.2650  142.1000 C   0  0  0  0  0  2  0  0  0  0  0  0
  179.6610  178.9460  143.4940 C   0  0  0  0  0  0  0  0  0  0  0  0
  178.9320  179.8690  144.2310 O   0  0  0  0  0  1  0  0  0  0  0  0
  179.9820  177.8440  144.0090 O   0  0  0  0  0  0  0  0  0  0  0  0
  180.4320  177.4660  140.3600 C   0  0  0  0  0  2  0  0  0  0  0  0
  179.1610  176.7200  140.7480 C   0  0  0  0  0  2  0  0  0  0  0  0
  179.2370  175.2550  140.3460 C   0  0  0  0  0  2  0  0  0  0  0  0
  180.4200  175.0210  139.5350 N   0  0  0  0  0  1  0  0  0  0  0  0
  1 31  1  0  0  0  0
  1  2  2  0  0  0  0
  3  7  1  0  0  0  0
  3 10  1  0  0  0  0
  5 11  1  0  0  0  0
  5 12  1  1  0  0  0
  6  8  1  0  0  0  0
  6  1  1  1  0  0  0
  7  6  1  0  0  0  0
  8 11  1  0  0  0  0
  9  5  1  0  0  0  0
 10  9  1  0  0  0  0
 10  8  1  0  0  0  0
 11  4  1  0  0  0  0
 12 13  1  0  0  0  0
 13 18  1  0  0  0  0
 15 21  1  0  0  0  0
 15 14  2  0  0  0  0
 16 19  2  0  0  0  0
 17 18  2  0  0  0  0
 17 16  1  0  0  0  0
 18 15  1  0  0  0  0
 19 14  1  0  0  0  0
 19 23  1  0  0  0  0
 21 20  1  0  0  0  0
 22 21  2  0  0  0  0
 23 24  1  0  0  0  0
 26 27  1  0  0  0  0
 27 29  1  0  0  0  0
 27 28  1  0  0  0  0
 28 33  1  0  0  0  0
 30 26  1  0  0  0  0
 30 31  1  0  0  0  0
 31 25  1  0  0  0  0
 31 28  1  0  0  0  0
 33 32  1  0  0  0  0
 34 38  1  0  0  0  0
 34 26  1  0  0  0  0
 35 36  2  0  0  0  0
 36 34  1  0  0  0  0
 37 36  1  0  0  0  0
 38 39  1  0  0  0  0
 39 40  1  0  0  0  0
 40 42  2  0  0  0  0
 40 41  1  0  0  0  0
 43 44  1  0  0  0  0
 43 38  1  0  0  0  0
 45 44  1  0  0  0  0
 46 45  1  0  0  0  0
M  END
>  <MODEL>
9

>  <REMARK>
 VINA RESULT:      -5.8      4.130      9.516
  Name = 
  16 active torsions:
  status: ('A' for Active; 'I' for Inactive)
    1  A    between atoms: C_2  and  C_45
    2  A    between atoms: C_5  and  C_22
    3  A    between atoms: C_5  and  C_23
    4  A    between atoms: C_7  and  C_15
    5  A    between atoms: C_8  and  C_24
    6  A    between atoms: C_8  and  C_31
    7  A    between atoms: C_9  and  C_44
    8  A    between atoms: C_11  and  C_13
    9  A    between atoms: C_11  and  C_35
   10  A    between atoms: C_13  and  C_15
   11  A    between atoms: C_13  and  C_34
   12  A    between atoms: C_14  and  C_15
   13  A    between atoms: C_16  and  C_25
   14  A    between atoms: C_19  and  C_27
   15  A    between atoms: C_23  and  C_39
   16  A    between atoms: C_25  and  C_34
                            x       y       z     vdW  Elec       q    Type
                         _______ _______ _______ _____ _____    ______ ____

>  <TORSDO>
F 16

$$$$
