=
 OpenBabel11062416123D

 67 73  0  0  1  0  0  0  0  0999 V2000
  181.9290  176.0270  134.5940 C   0  0  0  0  0  2  0  0  0  0  0  0
  182.8530  174.8980  136.8410 C   0  0  1  0  0  0  0  0  0  0  0  0
  182.2370  174.7170  135.3910 C   0  0  0  0  0  0  0  0  0  0  0  0
  180.0960  176.9380  139.0110 C   0  0  0  0  0  3  0  0  0  0  0  0
  181.3110  176.7710  136.8560 C   0  0  1  0  0  3  0  0  0  0  0  0
  180.2970  175.4800  139.4950 C   0  0  2  0  0  3  0  0  0  0  0  0
  181.9370  177.2420  135.5340 C   0  0  1  0  0  0  0  0  0  0  0  0
  183.3010  177.3410  136.3140 C   0  0  0  0  0  2  0  0  0  0  0  0
  182.1380  173.5100  134.7620 C   0  0  0  0  0  2  0  0  0  0  0  0
  182.6910  176.3710  137.3300 C   0  0  2  0  0  3  0  0  0  0  0  0
  182.0600  174.0330  137.8540 C   0  0  0  0  0  3  0  0  0  0  0  0
  181.1660  174.3260  138.8360 C   0  0  0  0  0  3  0  0  0  0  0  0
  181.4250  178.4390  135.0300 O   0  0  0  0  0  1  0  0  0  0  0  0
  180.5610  177.5920  137.9090 C   0  0  0  0  0  0  0  0  0  0  0  0
  180.3040  179.0710  137.8300 C   0  0  0  0  0  0  0  0  0  0  0  0
  179.2790  179.5930  136.9750 C   0  0  0  0  0  3  0  0  0  0  0  0
  179.1840  180.9690  136.6920 C   0  0  0  0  0  3  0  0  0  0  0  0
  181.1270  180.0210  138.5280 C   0  0  0  0  0  0  0  0  0  0  0  0
  181.0850  181.3440  138.1190 C   0  0  0  0  0  3  0  0  0  0  0  0
  180.1760  181.8410  137.1780 C   0  0  0  0  0  0  0  0  0  0  0  0
  185.2100  178.4600  141.4810 C   0  0  0  0  0  3  0  0  0  0  0  0
  181.7700  180.1200  140.8250 O   0  0  0  0  0  0  0  0  0  0  0  0
  184.3370  178.9900  138.2790 C   0  0  0  0  0  2  0  0  0  0  0  0
  181.9440  178.6910  143.5350 C   0  0  0  0  0  2  0  0  0  0  0  0
  184.2210  178.9300  144.1860 O   0  0  0  0  0  1  0  0  0  0  0  0
  180.6920  179.3520  141.3910 C   0  0  1  0  0  3  0  0  0  0  0  0
  180.8300  179.5240  142.8980 C   0  0  0  0  0  2  0  0  0  0  0  0
  183.7560  178.2030  141.9040 C   0  0  0  0  0  2  0  0  0  0  0  0
  183.5140  179.9740  139.1050 C   0  0  0  0  0  0  0  0  0  0  0  0
  184.0710  180.9220  139.6710 O   0  0  0  0  0  0  0  0  0  0  0  0
  184.7400  177.7980  139.1470 C   0  0  0  0  0  2  0  0  0  0  0  0
  185.6580  178.2810  140.2260 C   0  0  0  0  0  3  0  0  0  0  0  0
  182.1280  179.5580  139.5640 C   0  0  2  0  0  3  0  0  0  0  0  0
  183.3390  179.0850  143.0960 C   0  0  1  0  0  3  0  0  0  0  0  0
  179.3250  179.8950  141.0040 C   0  0  0  0  0  3  0  0  0  0  0  0
  179.0040  181.0510  141.2560 O   0  0  0  0  0  0  0  0  0  0  0  0
  180.2100  183.2690  136.8060 C   0  0  0  0  0  0  0  0  0  0  0  0
  180.5040  183.5530  135.5900 O   0  0  0  0  0  0  0  0  0  0  0  0
  179.9440  184.2820  137.7000 O   0  0  0  0  0  1  0  0  0  0  0  0
  184.3180  174.5650  136.8850 N   0  0  0  0  0  2  0  0  0  0  0  0
  184.9190  174.0220  135.6050 C   0  0  1  0  0  3  0  0  0  0  0  0
  187.6620  173.9160  136.9900 O   0  0  0  0  0  1  0  0  0  0  0  0
  187.4720  173.9300  135.5880 C   0  0  1  0  0  3  0  0  0  0  0  0
  186.2360  174.7610  135.1990 C   0  0  2  0  0  3  0  0  0  0  0  0
  188.5740  174.4760  134.9160 O   0  0  0  0  0  0  0  0  0  0  0  0
  186.4140  176.1920  135.8100 C   0  0  0  0  0  2  0  0  0  0  0  0
  189.0290  175.6430  135.5790 C   0  0  1  0  0  3  0  0  0  0  0  0
  187.9060  176.6750  136.0020 C   0  0  2  0  0  3  0  0  0  0  0  0
  190.1640  175.2670  136.5720 C   0  0  0  0  0  2  0  0  0  0  0  0
  191.2510  174.4440  135.7990 C   0  0  0  0  0  2  0  0  0  0  0  0
  193.4790  174.0590  136.6720 C   0  0  1  0  0  3  0  0  0  0  0  0
  194.0530  173.7350  137.8880 O   0  0  0  0  0  1  0  0  0  0  0  0
  193.2760  172.7950  135.8500 C   0  0  0  0  0  2  0  0  0  0  0  0
  192.0810  173.4180  136.5960 C   0  0  2  0  0  3  0  0  0  0  0  0
  188.1440  177.3820  137.3730 C   0  0  0  0  0  2  0  0  0  0  0  0
  189.5740  177.6370  137.6150 N   0  0  0  0  0  2  0  0  0  0  0  0
  189.0990  179.3060  139.2240 O   0  0  0  0  0  1  0  0  0  0  0  0
  189.7100  178.0580  139.0270 C   0  0  1  0  0  3  0  0  0  0  0  0
  189.0960  177.0610  140.0150 C   0  0  0  0  0  2  0  0  0  0  0  0
  189.8020  177.1810  141.3350 C   0  0  0  0  0  0  0  0  0  0  0  0
  189.4290  178.2000  142.2100 O   0  0  0  0  0  1  0  0  0  0  0  0
  190.5720  176.2360  141.7250 O   0  0  0  0  0  0  0  0  0  0  0  0
  185.0580  172.5260  135.6880 C   0  0  0  0  0  3  0  0  0  0  0  0
  185.4040  171.8410  134.7350 O   0  0  0  0  0  0  0  0  0  0  0  0
  178.9340  174.8060  139.8410 C   0  0  0  0  0  2  0  0  0  0  0  0
  179.0630  173.9140  141.9070 C   0  0  0  0  0  1  0  0  0  0  0  0
  179.0470  173.5720  140.5480 O   0  0  0  0  0  0  0  0  0  0  0  0
  1  3  1  0  0  0  0
  1  7  1  0  0  0  0
  2 40  1  1  0  0  0
  2 10  1  0  0  0  0
  2 11  1  0  0  0  0
  3  2  1  0  0  0  0
  4  6  1  0  0  0  0
  5 10  1  0  0  0  0
  5 14  1  1  0  0  0
  6 65  1  6  0  0  0
  7 13  1  6  0  0  0
  7  8  1  0  0  0  0
  7  5  1  0  0  0  0
  9  3  2  0  0  0  0
 10  8  1  6  0  0  0
 11 12  2  0  0  0  0
 12  6  1  0  0  0  0
 14  4  2  0  0  0  0
 15 14  1  0  0  0  0
 15 18  1  0  0  0  0
 16 15  2  0  0  0  0
 17 16  1  0  0  0  0
 17 20  2  0  0  0  0
 19 18  2  0  0  0  0
 20 19  1  0  0  0  0
 21 28  1  0  0  0  0
 22 26  1  0  0  0  0
 23 29  1  0  0  0  0
 23 31  1  0  0  0  0
 26 35  1  6  0  0  0
 26 27  1  0  0  0  0
 27 24  1  0  0  0  0
 28 34  1  0  0  0  0
 29 33  1  0  0  0  0
 29 30  2  0  0  0  0
 31 32  1  0  0  0  0
 32 21  2  0  0  0  0
 33 18  1  6  0  0  0
 33 22  1  0  0  0  0
 34 24  1  0  0  0  0
 34 25  1  1  0  0  0
 35 36  2  0  0  0  0
 37 20  1  0  0  0  0
 37 39  1  0  0  0  0
 38 37  2  0  0  0  0
 41 63  1  1  0  0  0
 41 40  1  0  0  0  0
 43 42  1  1  0  0  0
 44 43  1  0  0  0  0
 44 41  1  1  0  0  0
 44 46  1  0  0  0  0
 45 47  1  0  0  0  0
 45 43  1  0  0  0  0
 46 48  1  0  0  0  0
 47 48  1  0  0  0  0
 47 49  1  1  0  0  0
 48 55  1  1  0  0  0
 50 49  1  0  0  0  0
 51 52  1  1  0  0  0
 53 54  1  0  0  0  0
 53 51  1  0  0  0  0
 54 50  1  6  0  0  0
 54 51  1  0  0  0  0
 55 56  1  0  0  0  0
 56 58  1  0  0  0  0
 58 57  1  6  0  0  0
 58 59  1  0  0  0  0
 59 60  1  0  0  0  0
 60 62  2  0  0  0  0
 60 61  1  0  0  0  0
 64 63  2  0  0  0  0
 65 67  1  0  0  0  0
 67 66  1  0  0  0  0
M  END
>  <MODEL>
1

>  <REMARK>
 VINA RESULT:      -4.9      0.000      0.000
  Name = 
  18 active torsions:
  status: ('A' for Active; 'I' for Inactive)
    1  A    between atoms: C_2  and  C_65
    2  A    between atoms: C_4  and  N_43
    3  A    between atoms: C_13  and  N_47
    4  A    between atoms: C_13  and  C_55
    5  A    between atoms: C_14  and  C_29
    6  A    between atoms: C_15  and  C_18
    7  A    between atoms: C_15  and  O_63
    8  A    between atoms: C_20  and  CA_46
    9  A    between atoms: C_22  and  C_36
   10  A    between atoms: C_22  and  C_66
   11  A    between atoms: C_23  and  C_59
   12  A    between atoms: C_28  and  C_33
   13  A    between atoms: C_33  and  C_67
   14  A    between atoms: C_36  and  C_52
   15  A    between atoms: C_39  and  C_62
   16  A    between atoms: C_41  and  CA_46
   17  A    between atoms: N_43  and  CA_46
   18  A    between atoms: N_47  and  C_67
                            x       y       z     vdW  Elec       q    Type
                         _______ _______ _______ _____ _____    ______ ____

>  <TORSDO>
F 18

$$$$
=
 OpenBabel11062416123D

 67 73  0  0  1  0  0  0  0  0999 V2000
  186.9970  178.5900  136.4470 C   0  0  0  0  0  2  0  0  0  0  0  0
  187.4000  175.9760  136.8740 C   0  0  1  0  0  0  0  0  0  0  0  0
  187.4020  177.1970  135.8620 C   0  0  0  0  0  0  0  0  0  0  0  0
  183.5840  175.5950  138.2020 C   0  0  0  0  0  3  0  0  0  0  0  0
  185.4480  177.1520  137.7070 C   0  0  1  0  0  3  0  0  0  0  0  0
  184.0470  174.4060  137.3240 C   0  0  2  0  0  3  0  0  0  0  0  0
  186.3090  178.4210  137.8100 C   0  0  1  0  0  0  0  0  0  0  0  0
  187.2260  177.6150  138.8060 C   0  0  0  0  0  2  0  0  0  0  0  0
  187.8990  177.1200  134.5940 C   0  0  0  0  0  2  0  0  0  0  0  0
  186.6360  176.3460  138.1840 C   0  0  2  0  0  3  0  0  0  0  0  0
  186.6170  174.7900  136.2560 C   0  0  0  0  0  3  0  0  0  0  0  0
  185.3990  174.2400  136.5070 C   0  0  0  0  0  3  0  0  0  0  0  0
  185.6580  179.5380  138.3370 O   0  0  0  0  0  1  0  0  0  0  0  0
  184.1710  176.7950  138.4720 C   0  0  0  0  0  0  0  0  0  0  0  0
  183.5140  177.6610  139.5110 C   0  0  0  0  0  0  0  0  0  0  0  0
  184.2400  178.0990  140.6660 C   0  0  0  0  0  3  0  0  0  0  0  0
  183.5900  178.6910  141.7660 C   0  0  0  0  0  3  0  0  0  0  0  0
  182.1210  178.0050  139.4390 C   0  0  0  0  0  0  0  0  0  0  0  0
  181.5030  178.4640  140.5900 C   0  0  0  0  0  3  0  0  0  0  0  0
  182.1840  178.7650  141.7750 C   0  0  0  0  0  0  0  0  0  0  0  0
  179.6620  177.7650  134.7780 C   0  0  0  0  0  3  0  0  0  0  0  0
  181.3180  176.3070  137.9640 O   0  0  0  0  0  0  0  0  0  0  0  0
  181.3930  179.8870  136.7260 C   0  0  0  0  0  2  0  0  0  0  0  0
  178.9340  174.6580  136.9590 C   0  0  0  0  0  2  0  0  0  0  0  0
  178.9760  174.9330  134.5950 O   0  0  0  0  0  1  0  0  0  0  0  0
  180.3490  175.6970  138.8360 C   0  0  1  0  0  3  0  0  0  0  0  0
  179.9110  174.4280  138.1140 C   0  0  0  0  0  2  0  0  0  0  0  0
  179.2040  176.9280  135.9820 C   0  0  0  0  0  2  0  0  0  0  0  0
  181.9350  178.4950  137.0390 C   0  0  0  0  0  0  0  0  0  0  0  0
  182.5980  177.8850  136.1920 O   0  0  0  0  0  0  0  0  0  0  0  0
  179.9700  179.7750  136.1810 C   0  0  0  0  0  2  0  0  0  0  0  0
  180.0150  179.0590  134.8680 C   0  0  0  0  0  3  0  0  0  0  0  0
  181.3200  177.7160  138.1880 C   0  0  2  0  0  3  0  0  0  0  0  0
  179.5210  175.4320  135.7980 C   0  0  1  0  0  3  0  0  0  0  0  0
  180.9510  175.2670  140.1650 C   0  0  0  0  0  3  0  0  0  0  0  0
  180.2430  175.0260  141.1370 O   0  0  0  0  0  0  0  0  0  0  0  0
  181.4360  179.2490  142.9520 C   0  0  0  0  0  0  0  0  0  0  0  0
  180.5450  180.1490  142.7530 O   0  0  0  0  0  0  0  0  0  0  0  0
  181.6600  178.7770  144.2270 O   0  0  0  0  0  1  0  0  0  0  0  0
  188.7890  175.5550  137.2640 N   0  0  0  0  0  2  0  0  0  0  0  0
  189.6860  175.0860  136.1370 C   0  0  1  0  0  3  0  0  0  0  0  0
  192.1100  173.9680  137.6630 O   0  0  0  0  0  1  0  0  0  0  0  0
  192.1750  174.5640  136.3810 C   0  0  1  0  0  3  0  0  0  0  0  0
  191.1290  175.6820  136.2300 C   0  0  2  0  0  3  0  0  0  0  0  0
  193.4330  175.1270  136.1280 O   0  0  0  0  0  0  0  0  0  0  0  0
  191.3540  176.7040  137.3950 C   0  0  0  0  0  2  0  0  0  0  0  0
  193.8910  175.8430  137.2630 C   0  0  1  0  0  3  0  0  0  0  0  0
  192.8330  176.8050  137.9420 C   0  0  2  0  0  3  0  0  0  0  0  0
  194.7830  174.9170  138.1360 C   0  0  0  0  0  2  0  0  0  0  0  0
  195.2680  173.7150  137.2540 C   0  0  0  0  0  2  0  0  0  0  0  0
  197.4490  174.6740  137.7000 C   0  0  1  0  0  3  0  0  0  0  0  0
  198.7480  174.2230  137.8420 O   0  0  0  0  0  1  0  0  0  0  0  0
  197.2230  175.1400  136.2700 C   0  0  0  0  0  2  0  0  0  0  0  0
  196.7090  173.7550  136.7090 C   0  0  2  0  0  3  0  0  0  0  0  0
  192.9020  176.8650  139.5000 C   0  0  0  0  0  2  0  0  0  0  0  0
  191.9020  177.7930  140.0550 N   0  0  0  0  0  2  0  0  0  0  0  0
  192.1270  177.2340  142.3440 O   0  0  0  0  0  1  0  0  0  0  0  0
  191.2880  177.1250  141.2240 C   0  0  1  0  0  3  0  0  0  0  0  0
  189.9160  177.7000  141.5940 C   0  0  0  0  0  2  0  0  0  0  0  0
  189.3020  176.8490  142.6690 C   0  0  0  0  0  0  0  0  0  0  0  0
  187.9260  176.6260  142.6500 O   0  0  0  0  0  0  0  0  0  0  0  0
  190.0610  176.1780  143.4510 O   0  0  0  0  0  1  0  0  0  0  0  0
  189.6510  173.5850  136.0340 C   0  0  0  0  0  3  0  0  0  0  0  0
  189.5500  172.9990  134.9630 O   0  0  0  0  0  0  0  0  0  0  0  0
  182.9250  173.9640  136.3340 C   0  0  0  0  0  2  0  0  0  0  0  0
  182.3090  172.3660  134.8680 C   0  0  0  0  0  1  0  0  0  0  0  0
  183.3850  173.1880  135.2280 O   0  0  0  0  0  0  0  0  0  0  0  0
  1  7  1  0  0  0  0
  2 40  1  1  0  0  0
  2 10  1  0  0  0  0
  3  1  1  0  0  0  0
  3  2  1  0  0  0  0
  4 14  2  0  0  0  0
  5  7  1  0  0  0  0
  5 10  1  0  0  0  0
  5 14  1  1  0  0  0
  6 65  1  6  0  0  0
  6  4  1  0  0  0  0
  7 13  1  1  0  0  0
  7  8  1  0  0  0  0
  9  3  2  0  0  0  0
 10  8  1  1  0  0  0
 11 12  2  0  0  0  0
 11  2  1  0  0  0  0
 12  6  1  0  0  0  0
 14 15  1  0  0  0  0
 15 16  1  0  0  0  0
 16 17  2  0  0  0  0
 17 20  1  0  0  0  0
 18 15  2  0  0  0  0
 18 19  1  0  0  0  0
 19 20  2  0  0  0  0
 20 37  1  0  0  0  0
 21 32  2  0  0  0  0
 21 28  1  0  0  0  0
 22 33  1  0  0  0  0
 22 26  1  0  0  0  0
 23 29  1  0  0  0  0
 24 27  1  0  0  0  0
 26 35  1  1  0  0  0
 27 26  1  0  0  0  0
 29 33  1  0  0  0  0
 30 29  2  0  0  0  0
 31 23  1  0  0  0  0
 32 31  1  0  0  0  0
 33 18  1  1  0  0  0
 34 25  1  6  0  0  0
 34 28  1  0  0  0  0
 34 24  1  0  0  0  0
 35 36  2  0  0  0  0
 37 39  1  0  0  0  0
 38 37  2  0  0  0  0
 41 63  1  1  0  0  0
 41 40  1  0  0  0  0
 43 42  1  1  0  0  0
 44 41  1  1  0  0  0
 44 43  1  0  0  0  0
 44 46  1  0  0  0  0
 45 43  1  0  0  0  0
 45 47  1  0  0  0  0
 46 48  1  0  0  0  0
 47 48  1  0  0  0  0
 47 49  1  1  0  0  0
 48 55  1  1  0  0  0
 50 49  1  0  0  0  0
 51 52  1  6  0  0  0
 53 54  1  0  0  0  0
 53 51  1  0  0  0  0
 54 50  1  1  0  0  0
 54 51  1  0  0  0  0
 55 56  1  0  0  0  0
 56 58  1  0  0  0  0
 58 59  1  0  0  0  0
 58 57  1  1  0  0  0
 59 60  1  0  0  0  0
 60 62  1  0  0  0  0
 61 60  2  0  0  0  0
 64 63  2  0  0  0  0
 66 67  1  0  0  0  0
 67 65  1  0  0  0  0
M  END
>  <MODEL>
2

>  <REMARK>
 VINA RESULT:      -3.8      2.186      5.506
  Name = 
  18 active torsions:
  status: ('A' for Active; 'I' for Inactive)
    1  A    between atoms: C_2  and  C_65
    2  A    between atoms: C_4  and  N_43
    3  A    between atoms: C_13  and  N_47
    4  A    between atoms: C_13  and  C_55
    5  A    between atoms: C_14  and  C_29
    6  A    between atoms: C_15  and  C_18
    7  A    between atoms: C_15  and  O_63
    8  A    between atoms: C_20  and  CA_46
    9  A    between atoms: C_22  and  C_36
   10  A    between atoms: C_22  and  C_66
   11  A    between atoms: C_23  and  C_59
   12  A    between atoms: C_28  and  C_33
   13  A    between atoms: C_33  and  C_67
   14  A    between atoms: C_36  and  C_52
   15  A    between atoms: C_39  and  C_62
   16  A    between atoms: C_41  and  CA_46
   17  A    between atoms: N_43  and  CA_46
   18  A    between atoms: N_47  and  C_67
                            x       y       z     vdW  Elec       q    Type
                         _______ _______ _______ _____ _____    ______ ____

>  <TORSDO>
F 18

$$$$
=
 OpenBabel11062416123D

 67 73  0  0  1  0  0  0  0  0999 V2000
  187.1880  178.8800  136.8140 C   0  0  0  0  0  2  0  0  0  0  0  0
  187.3490  176.2070  136.7600 C   0  0  1  0  0  0  0  0  0  0  0  0
  187.4400  177.5830  135.9780 C   0  0  0  0  0  0  0  0  0  0  0  0
  183.5530  175.9400  138.1720 C   0  0  0  0  0  3  0  0  0  0  0  0
  185.5440  177.3870  137.8730 C   0  0  1  0  0  3  0  0  0  0  0  0
  183.8740  174.8890  137.0800 C   0  0  2  0  0  3  0  0  0  0  0  0
  186.5260  178.5340  138.1570 C   0  0  1  0  0  0  0  0  0  0  0  0
  187.3880  177.4850  138.9540 C   0  0  0  0  0  2  0  0  0  0  0  0
  187.8910  177.6890  134.6950 C   0  0  0  0  0  2  0  0  0  0  0  0
  186.6620  176.4050  138.1480 C   0  0  2  0  0  3  0  0  0  0  0  0
  186.4380  175.2250  135.9810 C   0  0  0  0  0  3  0  0  0  0  0  0
  185.1800  174.7510  136.1860 C   0  0  0  0  0  3  0  0  0  0  0  0
  186.0010  179.5940  138.8990 O   0  0  0  0  0  1  0  0  0  0  0  0
  184.2610  177.0150  138.6210 C   0  0  0  0  0  0  0  0  0  0  0  0
  183.7200  177.7380  139.8230 C   0  0  0  0  0  0  0  0  0  0  0  0
  184.5250  177.9140  140.9950 C   0  0  0  0  0  3  0  0  0  0  0  0
  183.9700  178.3570  142.2120 C   0  0  0  0  0  3  0  0  0  0  0  0
  182.3590  178.1950  139.8830 C   0  0  0  0  0  0  0  0  0  0  0  0
  181.8270  178.4970  141.1250 C   0  0  0  0  0  3  0  0  0  0  0  0
  182.5770  178.5370  142.3060 C   0  0  0  0  0  0  0  0  0  0  0  0
  178.9490  177.4490  135.9270 C   0  0  0  0  0  3  0  0  0  0  0  0
  181.2340  179.5370  138.2590 O   0  0  0  0  0  0  0  0  0  0  0  0
  180.1800  175.9200  138.6550 C   0  0  0  0  0  2  0  0  0  0  0  0
  181.1370  180.5880  135.3780 C   0  0  0  0  0  2  0  0  0  0  0  0
  178.9390  180.0630  134.6290 O   0  0  0  0  0  1  0  0  0  0  0  0
  182.3830  180.0490  137.5600 C   0  0  1  0  0  3  0  0  0  0  0  0
  181.8350  181.1240  136.6290 C   0  0  0  0  0  2  0  0  0  0  0  0
  180.2070  178.3140  135.7630 C   0  0  0  0  0  2  0  0  0  0  0  0
  180.2210  177.4150  138.9600 C   0  0  0  0  0  0  0  0  0  0  0  0
  179.1670  178.0400  139.1270 O   0  0  0  0  0  0  0  0  0  0  0  0
  180.2020  175.7010  137.1430 C   0  0  0  0  0  2  0  0  0  0  0  0
  178.9440  176.2620  136.5600 C   0  0  0  0  0  3  0  0  0  0  0  0
  181.4890  178.1880  138.6450 C   0  0  2  0  0  3  0  0  0  0  0  0
  179.8670  179.8120  135.6630 C   0  0  1  0  0  3  0  0  0  0  0  0
  183.3750  180.7290  138.4900 C   0  0  0  0  0  3  0  0  0  0  0  0
  183.3090  181.9310  138.7240 O   0  0  0  0  0  0  0  0  0  0  0  0
  181.9180  178.8670  143.5860 C   0  0  0  0  0  0  0  0  0  0  0  0
  180.8530  179.5790  143.5320 O   0  0  0  0  0  0  0  0  0  0  0  0
  182.4010  178.4480  144.8060 O   0  0  0  0  0  1  0  0  0  0  0  0
  188.7010  175.6000  137.0080 N   0  0  0  0  0  2  0  0  0  0  0  0
  189.6270  175.5200  135.8120 C   0  0  1  0  0  3  0  0  0  0  0  0
  191.7940  174.0590  137.4330 O   0  0  0  0  0  1  0  0  0  0  0  0
  192.0400  174.8070  136.2570 C   0  0  1  0  0  3  0  0  0  0  0  0
  191.0780  176.0030  136.1420 C   0  0  2  0  0  3  0  0  0  0  0  0
  193.3460  175.3130  136.2220 O   0  0  0  0  0  0  0  0  0  0  0  0
  191.2170  176.8510  137.4510 C   0  0  0  0  0  2  0  0  0  0  0  0
  193.7030  175.8470  137.4860 C   0  0  1  0  0  3  0  0  0  0  0  0
  192.6240  176.7830  138.1660 C   0  0  2  0  0  3  0  0  0  0  0  0
  194.4370  174.7600  138.3200 C   0  0  0  0  0  2  0  0  0  0  0  0
  195.9260  174.6800  137.8370 C   0  0  0  0  0  2  0  0  0  0  0  0
  195.3130  172.5260  136.9110 C   0  0  1  0  0  3  0  0  0  0  0  0
  194.9230  172.0200  135.6840 O   0  0  0  0  0  1  0  0  0  0  0  0
  196.8120  172.3410  137.0870 C   0  0  0  0  0  2  0  0  0  0  0  0
  196.2590  173.7190  136.6790 C   0  0  2  0  0  3  0  0  0  0  0  0
  192.5110  176.6400  139.7160 C   0  0  0  0  0  2  0  0  0  0  0  0
  191.4790  177.5320  140.2730 N   0  0  0  0  0  2  0  0  0  0  0  0
  191.3790  178.3400  142.4950 O   0  0  0  0  0  1  0  0  0  0  0  0
  191.3260  177.1830  141.7030 C   0  0  1  0  0  3  0  0  0  0  0  0
  190.0140  176.4520  142.0070 C   0  0  0  0  0  2  0  0  0  0  0  0
  189.0800  177.3930  142.7120 C   0  0  0  0  0  0  0  0  0  0  0  0
  188.6070  178.5130  142.0280 O   0  0  0  0  0  0  0  0  0  0  0  0
  188.5700  177.0510  143.8340 O   0  0  0  0  0  1  0  0  0  0  0  0
  189.5660  174.1490  135.1950 C   0  0  0  0  0  3  0  0  0  0  0  0
  189.0800  173.1850  135.7740 O   0  0  0  0  0  0  0  0  0  0  0  0
  182.6870  174.7330  136.0790 C   0  0  0  0  0  2  0  0  0  0  0  0
  181.7710  172.7920  135.3890 C   0  0  0  0  0  1  0  0  0  0  0  0
  182.8390  173.6660  135.1440 O   0  0  0  0  0  0  0  0  0  0  0  0
  1  7  1  0  0  0  0
  2 40  1  1  0  0  0
  2 10  1  0  0  0  0
  3  2  1  0  0  0  0
  3  1  1  0  0  0  0
  4 14  2  0  0  0  0
  5 10  1  0  0  0  0
  5  7  1  0  0  0  0
  5 14  1  1  0  0  0
  6 65  1  6  0  0  0
  6  4  1  0  0  0  0
  7 13  1  1  0  0  0
  7  8  1  0  0  0  0
  9  3  2  0  0  0  0
 10  8  1  1  0  0  0
 11 12  2  0  0  0  0
 11  2  1  0  0  0  0
 12  6  1  0  0  0  0
 14 15  1  0  0  0  0
 15 18  2  0  0  0  0
 15 16  1  0  0  0  0
 16 17  2  0  0  0  0
 17 20  1  0  0  0  0
 18 19  1  0  0  0  0
 19 20  2  0  0  0  0
 20 37  1  0  0  0  0
 21 32  2  0  0  0  0
 22 33  1  0  0  0  0
 23 29  1  0  0  0  0
 24 34  1  0  0  0  0
 24 27  1  0  0  0  0
 26 22  1  0  0  0  0
 26 35  1  1  0  0  0
 27 26  1  0  0  0  0
 28 21  1  0  0  0  0
 29 30  2  0  0  0  0
 31 23  1  0  0  0  0
 32 31  1  0  0  0  0
 33 29  1  0  0  0  0
 33 18  1  1  0  0  0
 34 25  1  6  0  0  0
 34 28  1  0  0  0  0
 35 36  2  0  0  0  0
 37 39  1  0  0  0  0
 38 37  2  0  0  0  0
 41 63  1  1  0  0  0
 41 40  1  0  0  0  0
 43 42  1  1  0  0  0
 44 41  1  1  0  0  0
 44 43  1  0  0  0  0
 44 46  1  0  0  0  0
 45 43  1  0  0  0  0
 45 47  1  0  0  0  0
 46 48  1  0  0  0  0
 47 48  1  0  0  0  0
 47 49  1  1  0  0  0
 48 55  1  1  0  0  0
 50 49  1  0  0  0  0
 51 52  1  6  0  0  0
 51 53  1  0  0  0  0
 54 51  1  0  0  0  0
 54 53  1  0  0  0  0
 54 50  1  1  0  0  0
 55 56  1  0  0  0  0
 56 58  1  0  0  0  0
 58 59  1  0  0  0  0
 58 57  1  1  0  0  0
 59 60  1  0  0  0  0
 60 62  1  0  0  0  0
 61 60  2  0  0  0  0
 63 64  2  0  0  0  0
 67 66  1  0  0  0  0
 67 65  1  0  0  0  0
M  END
>  <MODEL>
3

>  <REMARK>
 VINA RESULT:      -3.2      2.078      5.490
  Name = 
  18 active torsions:
  status: ('A' for Active; 'I' for Inactive)
    1  A    between atoms: C_2  and  C_65
    2  A    between atoms: C_4  and  N_43
    3  A    between atoms: C_13  and  N_47
    4  A    between atoms: C_13  and  C_55
    5  A    between atoms: C_14  and  C_29
    6  A    between atoms: C_15  and  C_18
    7  A    between atoms: C_15  and  O_63
    8  A    between atoms: C_20  and  CA_46
    9  A    between atoms: C_22  and  C_36
   10  A    between atoms: C_22  and  C_66
   11  A    between atoms: C_23  and  C_59
   12  A    between atoms: C_28  and  C_33
   13  A    between atoms: C_33  and  C_67
   14  A    between atoms: C_36  and  C_52
   15  A    between atoms: C_39  and  C_62
   16  A    between atoms: C_41  and  CA_46
   17  A    between atoms: N_43  and  CA_46
   18  A    between atoms: N_47  and  C_67
                            x       y       z     vdW  Elec       q    Type
                         _______ _______ _______ _____ _____    ______ ____

>  <TORSDO>
F 18

$$$$
=
 OpenBabel11062416123D

 67 73  0  0  1  0  0  0  0  0999 V2000
  189.1190  178.5740  136.9760 C   0  0  0  0  0  2  0  0  0  0  0  0
  188.3430  176.0920  136.3330 C   0  0  1  0  0  0  0  0  0  0  0  0
  188.9430  177.4840  135.8680 C   0  0  0  0  0  0  0  0  0  0  0  0
  184.6300  176.8700  137.7750 C   0  0  0  0  0  3  0  0  0  0  0  0
  187.0110  177.5580  137.7350 C   0  0  1  0  0  3  0  0  0  0  0  0
  184.6160  176.0360  136.4700 C   0  0  2  0  0  3  0  0  0  0  0  0
  188.3170  178.1990  138.2310 C   0  0  1  0  0  0  0  0  0  0  0  0
  188.7220  176.7690  138.7510 C   0  0  0  0  0  2  0  0  0  0  0  0
  189.4620  177.7000  134.6250 C   0  0  0  0  0  2  0  0  0  0  0  0
  187.7030  176.2130  137.7520 C   0  0  2  0  0  3  0  0  0  0  0  0
  187.1850  175.6840  135.3880 C   0  0  0  0  0  3  0  0  0  0  0  0
  185.8320  175.6470  135.5260 C   0  0  0  0  0  3  0  0  0  0  0  0
  188.1590  179.1880  139.2040 O   0  0  0  0  0  1  0  0  0  0  0  0
  185.6450  177.5060  138.4250 C   0  0  0  0  0  0  0  0  0  0  0  0
  185.3350  178.0940  139.7740 C   0  0  0  0  0  0  0  0  0  0  0  0
  186.3880  178.5030  140.6550 C   0  0  0  0  0  3  0  0  0  0  0  0
  186.1390  178.8170  142.0050 C   0  0  0  0  0  3  0  0  0  0  0  0
  183.9890  178.1830  140.2690 C   0  0  0  0  0  0  0  0  0  0  0  0
  183.8060  178.3670  141.6290 C   0  0  0  0  0  3  0  0  0  0  0  0
  184.8460  178.6310  142.5270 C   0  0  0  0  0  0  0  0  0  0  0  0
  179.7600  176.5320  137.5800 C   0  0  0  0  0  3  0  0  0  0  0  0
  182.2310  179.1660  138.9860 O   0  0  0  0  0  0  0  0  0  0  0  0
  181.9690  175.4980  139.8930 C   0  0  0  0  0  2  0  0  0  0  0  0
  181.1280  179.8790  136.2130 C   0  0  0  0  0  2  0  0  0  0  0  0
  178.9310  178.9640  136.1960 O   0  0  0  0  0  1  0  0  0  0  0  0
  183.0240  179.7620  137.9430 C   0  0  1  0  0  3  0  0  0  0  0  0
  182.0560  180.6410  137.1610 C   0  0  0  0  0  2  0  0  0  0  0  0
  180.7510  177.5490  136.9930 C   0  0  0  0  0  2  0  0  0  0  0  0
  181.8400  177.0070  140.0830 C   0  0  0  0  0  0  0  0  0  0  0  0
  180.7900  177.4860  140.5240 O   0  0  0  0  0  0  0  0  0  0  0  0
  181.5900  175.1250  138.4600 C   0  0  0  0  0  2  0  0  0  0  0  0
  180.1410  175.4320  138.2520 C   0  0  0  0  0  3  0  0  0  0  0  0
  182.8130  177.9170  139.3550 C   0  0  2  0  0  3  0  0  0  0  0  0
  180.1470  178.9620  136.9130 C   0  0  1  0  0  3  0  0  0  0  0  0
  184.1120  180.6740  138.4890 C   0  0  0  0  0  3  0  0  0  0  0  0
  183.8890  181.8540  138.7380 O   0  0  0  0  0  0  0  0  0  0  0  0
  184.5510  178.8110  143.9630 C   0  0  0  0  0  0  0  0  0  0  0  0
  185.1950  178.0750  144.7930 O   0  0  0  0  0  1  0  0  0  0  0  0
  183.6280  179.7220  144.4290 O   0  0  0  0  0  0  0  0  0  0  0  0
  189.3860  175.0120  136.3980 N   0  0  0  0  0  2  0  0  0  0  0  0
  189.4950  174.1160  135.1810 C   0  0  1  0  0  3  0  0  0  0  0  0
  191.8360  172.8700  136.7380 O   0  0  0  0  0  1  0  0  0  0  0  0
  191.5930  172.6680  135.3590 C   0  0  1  0  0  3  0  0  0  0  0  0
  190.9730  173.9190  134.7110 C   0  0  2  0  0  3  0  0  0  0  0  0
  192.7690  172.3700  134.6580 O   0  0  0  0  0  0  0  0  0  0  0  0
  191.9300  175.1250  134.9960 C   0  0  0  0  0  2  0  0  0  0  0  0
  193.8210  173.2250  135.0720 C   0  0  1  0  0  3  0  0  0  0  0  0
  193.4580  174.7620  135.1760 C   0  0  2  0  0  3  0  0  0  0  0  0
  194.6390  172.5340  136.1980 C   0  0  0  0  0  2  0  0  0  0  0  0
  196.1660  172.7100  135.8870 C   0  0  0  0  0  2  0  0  0  0  0  0
  198.4090  172.1920  136.6450 C   0  0  1  0  0  3  0  0  0  0  0  0
  198.9980  171.3970  137.6110 O   0  0  0  0  0  1  0  0  0  0  0  0
  198.3800  171.4470  135.3190 C   0  0  0  0  0  2  0  0  0  0  0  0
  197.1030  171.5210  136.1780 C   0  0  2  0  0  3  0  0  0  0  0  0
  194.1260  175.5180  136.3660 C   0  0  0  0  0  2  0  0  0  0  0  0
  195.5840  175.6350  136.1900 N   0  0  0  0  0  2  0  0  0  0  0  0
  195.4900  177.9020  135.5190 O   0  0  0  0  0  1  0  0  0  0  0  0
  195.8150  176.6050  135.0960 C   0  0  1  0  0  3  0  0  0  0  0  0
  197.2620  176.6110  134.5940 C   0  0  0  0  0  2  0  0  0  0  0  0
  198.0520  175.5880  135.3600 C   0  0  0  0  0  0  0  0  0  0  0  0
  198.7970  174.6430  134.6560 O   0  0  0  0  0  0  0  0  0  0  0  0
  198.2000  175.7250  136.6240 O   0  0  0  0  0  1  0  0  0  0  0  0
  188.7520  172.8280  135.4150 C   0  0  0  0  0  3  0  0  0  0  0  0
  188.4930  172.4090  136.5360 O   0  0  0  0  0  0  0  0  0  0  0  0
  183.4970  176.5250  135.4990 C   0  0  0  0  0  2  0  0  0  0  0  0
  183.0780  174.3640  135.0090 C   0  0  0  0  0  1  0  0  0  0  0  0
  182.4460  175.5840  135.2870 O   0  0  0  0  0  0  0  0  0  0  0  0
  1  7  1  0  0  0  0
  2 40  1  6  0  0  0
  2 10  1  0  0  0  0
  3  2  1  0  0  0  0
  3  1  1  0  0  0  0
  4 14  2  0  0  0  0
  5 10  1  0  0  0  0
  5  7  1  0  0  0  0
  5 14  1  1  0  0  0
  6 65  1  6  0  0  0
  6  4  1  0  0  0  0
  7  8  1  0  0  0  0
  7 13  1  1  0  0  0
  9  3  2  0  0  0  0
 10  8  1  1  0  0  0
 11 12  2  0  0  0  0
 11  2  1  0  0  0  0
 12  6  1  0  0  0  0
 14 15  1  0  0  0  0
 15 18  2  0  0  0  0
 15 16  1  0  0  0  0
 16 17  2  0  0  0  0
 17 20  1  0  0  0  0
 18 19  1  0  0  0  0
 19 20  2  0  0  0  0
 20 37  1  0  0  0  0
 21 32  2  0  0  0  0
 22 33  1  0  0  0  0
 23 29  1  0  0  0  0
 24 34  1  0  0  0  0
 24 27  1  0  0  0  0
 26 35  1  1  0  0  0
 26 22  1  0  0  0  0
 27 26  1  0  0  0  0
 28 21  1  0  0  0  0
 29 30  2  0  0  0  0
 31 23  1  0  0  0  0
 32 31  1  0  0  0  0
 33 29  1  0  0  0  0
 33 18  1  1  0  0  0
 34 25  1  6  0  0  0
 34 28  1  0  0  0  0
 35 36  2  0  0  0  0
 37 39  2  0  0  0  0
 37 38  1  0  0  0  0
 41 63  1  1  0  0  0
 41 40  1  0  0  0  0
 43 42  1  1  0  0  0
 44 46  1  0  0  0  0
 44 41  1  1  0  0  0
 44 43  1  0  0  0  0
 45 47  1  0  0  0  0
 45 43  1  0  0  0  0
 46 48  1  0  0  0  0
 47 48  1  0  0  0  0
 47 49  1  1  0  0  0
 48 55  1  1  0  0  0
 50 49  1  0  0  0  0
 51 52  1  1  0  0  0
 53 54  1  0  0  0  0
 53 51  1  0  0  0  0
 54 50  1  6  0  0  0
 54 51  1  0  0  0  0
 56 55  1  0  0  0  0
 58 57  1  1  0  0  0
 58 56  1  0  0  0  0
 59 58  1  0  0  0  0
 59 60  1  0  0  0  0
 60 62  1  0  0  0  0
 61 60  2  0  0  0  0
 63 64  2  0  0  0  0
 66 67  1  0  0  0  0
 67 65  1  0  0  0  0
M  END
>  <MODEL>
4

>  <REMARK>
 VINA RESULT:      -2.3      2.586      6.564
  Name = 
  18 active torsions:
  status: ('A' for Active; 'I' for Inactive)
    1  A    between atoms: C_2  and  C_65
    2  A    between atoms: C_4  and  N_43
    3  A    between atoms: C_13  and  N_47
    4  A    between atoms: C_13  and  C_55
    5  A    between atoms: C_14  and  C_29
    6  A    between atoms: C_15  and  C_18
    7  A    between atoms: C_15  and  O_63
    8  A    between atoms: C_20  and  CA_46
    9  A    between atoms: C_22  and  C_36
   10  A    between atoms: C_22  and  C_66
   11  A    between atoms: C_23  and  C_59
   12  A    between atoms: C_28  and  C_33
   13  A    between atoms: C_33  and  C_67
   14  A    between atoms: C_36  and  C_52
   15  A    between atoms: C_39  and  C_62
   16  A    between atoms: C_41  and  CA_46
   17  A    between atoms: N_43  and  CA_46
   18  A    between atoms: N_47  and  C_67
                            x       y       z     vdW  Elec       q    Type
                         _______ _______ _______ _____ _____    ______ ____

>  <TORSDO>
F 18

$$$$
