=
 OpenBabel11062412343D

 51 58  0  0  1  0  0  0  0  0999 V2000
  184.2060  176.6410  136.3480 C   0  0  0  0  0  2  0  0  0  0  0  0
  190.5810  175.8790  136.3840 C   0  0  2  0  0  3  0  0  0  0  0  0
  187.2910  174.0270  137.8960 O   0  0  0  0  0  0  0  0  0  0  0  0
  189.7730  177.1350  135.9990 C   0  0  2  0  0  3  0  0  0  0  0  0
  188.5880  177.3790  136.9540 C   0  0  0  0  0  2  0  0  0  0  0  0
  183.9970  174.3710  137.5600 C   0  0  0  0  0  2  0  0  0  0  0  0
  186.7460  178.8600  137.3250 O   0  0  0  0  0  1  0  0  0  0  0  0
  185.9790  174.8390  136.0650 C   0  0  1  0  0  3  0  0  0  0  0  0
  185.6940  176.3060  136.4530 C   0  0  1  0  0  3  0  0  0  0  0  0
  186.4840  177.2580  135.5520 C   0  0  0  0  0  2  0  0  0  0  0  0
  189.3530  177.0270  134.6690 O   0  0  0  0  0  1  0  0  0  0  0  0
  183.3270  175.7070  137.2000 C   0  0  1  0  0  3  0  0  0  0  0  0
  188.4660  174.5500  135.9450 N   0  0  0  0  0  2  0  0  0  0  0  0
  187.2600  174.3910  136.6890 C   0  0  0  0  0  0  0  0  0  0  0  0
  184.8340  173.8680  136.3910 C   0  0  0  0  0  2  0  0  0  0  0  0
  190.2610  173.5740  137.1170 N   0  0  0  0  0  2  0  0  0  0  0  0
  187.4390  178.1680  136.3320 C   0  0  2  0  0  3  0  0  0  0  0  0
  189.7440  174.6350  136.5770 C   0  0  0  0  0  0  0  0  0  0  0  0
  182.7570  176.4230  138.4210 C   0  0  1  0  0  3  0  0  0  0  0  0
  186.4790  179.0120  142.2920 C   0  0  1  0  0  3  0  0  0  0  0  0
  182.5200  177.9090  138.1050 C   0  0  1  0  0  3  0  0  0  0  0  0
  185.2690  179.3520  141.4970 C   0  0  1  0  0  3  0  0  0  0  0  0
  183.4100  178.3290  140.8580 O   0  0  0  0  0  0  0  0  0  0  0  0
  185.3020  179.5990  140.1380 O   0  0  0  0  0  0  0  0  0  0  0  0
  184.5640  178.0860  141.5760 C   0  0  2  0  0  3  0  0  0  0  0  0
  181.2930  178.5570  138.7140 C   0  0  0  0  0  3  0  0  0  0  0  0
  184.4580  177.8050  142.9330 O   0  0  0  0  0  0  0  0  0  0  0  0
  184.0010  179.1230  139.8400 C   0  0  1  0  0  0  0  0  0  0  0  0
  181.7020  179.8140  139.3320 N   0  0  0  0  0  0  0  0  0  0  0  0
  183.7170  178.7900  138.3830 C   0  0  2  0  0  3  0  0  0  0  0  0
  185.7500  178.1910  143.3980 C   0  0  1  0  0  3  0  0  0  0  0  0
  183.1140  180.0470  139.0270 C   0  0  2  0  0  3  0  0  0  0  0  0
  187.3210  177.3410  144.9810 O   0  0  0  0  0  1  0  0  0  0  0  0
  186.5310  176.9820  143.8930 C   0  0  0  0  0  2  0  0  0  0  0  0
  187.3630  178.2140  141.5470 O   0  0  0  0  0  0  0  0  0  0  0  0
  188.6410  178.5470  142.0000 C   0  0  0  0  0  2  0  0  0  0  0  0
  190.5920  177.3850  142.9720 C   0  0  0  0  0  2  0  0  0  0  0  0
  190.3430  177.4740  140.6360 N   0  0  0  0  0  2  0  0  0  0  0  0
  189.5820  177.3610  141.8590 C   0  0  2  0  0  3  0  0  0  0  0  0
  191.7280  177.3930  141.0710 C   0  0  0  0  0  2  0  0  0  0  0  0
  191.8140  177.7720  142.4180 O   0  0  0  0  0  0  0  0  0  0  0  0
  180.4840  175.2030  137.9270 O   0  0  0  0  0  0  0  0  0  0  0  0
  181.3330  175.5470  139.1440 S   0  0  0  0  0  3  0  0  0  0  0  0
  191.5610  176.1410  137.5360 C   0  0  0  0  0  2  0  0  0  0  0  0
  193.0140  175.9970  137.1130 C   0  0  0  0  0  2  0  0  0  0  0  0
  195.6540  174.3270  138.3760 C   0  0  0  0  0  2  0  0  0  0  0  0
  193.6080  174.8520  137.7760 N   0  0  0  0  0  0  0  0  0  0  0  0
  193.3670  172.8500  136.6360 F   0  0  0  0  0  0  0  0  0  0  0  0
  194.6700  175.3180  138.4840 O   0  0  0  0  0  0  0  0  0  0  0  0
  195.4830  173.6300  137.1190 N   0  0  0  0  0  2  0  0  0  0  0  0
  194.1420  173.9900  136.7370 C   0  0  2  0  0  3  0  0  0  0  0  0
  1  9  1  0  0  0  0
  1 12  1  0  0  0  0
  2 18  1  0  0  0  0
  2 44  1  1  0  0  0
  4 11  1  6  0  0  0
  4  2  1  0  0  0  0
  4  5  1  0  0  0  0
  8 15  1  1  0  0  0
  8  9  1  0  0  0  0
  8 14  1  0  0  0  0
  9 10  1  6  0  0  0
 10 17  1  0  0  0  0
 12  6  1  0  0  0  0
 12 19  1  1  0  0  0
 13 18  1  0  0  0  0
 13 14  1  0  0  0  0
 14  3  2  0  0  0  0
 15  6  1  0  0  0  0
 17  5  1  0  0  0  0
 17  7  1  1  0  0  0
 18 16  2  0  0  0  0
 19 43  1  6  0  0  0
 20 35  1  6  0  0  0
 20 31  1  0  0  0  0
 21 30  1  0  0  0  0
 21 19  1  1  0  0  0
 21 26  1  0  0  0  0
 22 24  1  6  0  0  0
 22 25  1  0  0  0  0
 22 20  1  0  0  0  0
 25 23  1  1  0  0  0
 25 27  1  0  0  0  0
 26 29  2  0  0  0  0
 27 31  1  0  0  0  0
 28 24  1  1  0  0  0
 28 23  1  0  0  0  0
 30 32  1  0  0  0  0
 30 28  1  0  0  0  0
 31 34  1  0  0  0  0
 32 29  1  0  0  0  0
 32 28  1  0  0  0  0
 34 33  1  0  0  0  0
 35 36  1  0  0  0  0
 38 40  1  0  0  0  0
 38 39  1  0  0  0  0
 39 36  1  0  0  0  0
 39 37  1  0  0  0  0
 40 41  1  0  0  0  0
 41 37  1  0  0  0  0
 42 43  2  0  0  0  0
 45 44  1  0  0  0  0
 45 47  1  0  0  0  0
 46 49  1  0  0  0  0
 47 49  1  0  0  0  0
 48 51  1  0  0  0  0
 50 46  1  0  0  0  0
 51 50  1  0  0  0  0
 51 47  1  0  0  0  0
M  END
>  <MODEL>
1

>  <REMARK>
 VINA RESULT:      -7.6      0.000      0.000
  Name = 
  10 active torsions:
  status: ('A' for Active; 'I' for Inactive)
    1  A    between atoms: C_2  and  O_10
    2  A    between atoms: C_3  and  C_20
    3  A    between atoms: C_9  and  C_23
    4  A    between atoms: O_10  and  C_19
    5  A    between atoms: C_14  and  C_48
    6  A    between atoms: S_18  and  C_20
    7  A    between atoms: C_19  and  C_29
    8  A    between atoms: C_20  and  C_38
    9  A    between atoms: N_22  and  C_28
   10  A    between atoms: C_23  and  C_28
                            x       y       z     vdW  Elec       q    Type
                         _______ _______ _______ _____ _____    ______ ____

>  <TORSDO>
F 10

$$$$
=
 OpenBabel11062412343D

 51 58  0  0  1  0  0  0  0  0999 V2000
  183.4890  178.0870  137.5230 C   0  0  0  0  0  2  0  0  0  0  0  0
  188.2160  178.4010  141.8570 C   0  0  2  0  0  3  0  0  0  0  0  0
  187.4400  176.5140  138.3390 O   0  0  0  0  0  0  0  0  0  0  0  0
  186.7480  178.8450  142.0140 C   0  0  2  0  0  3  0  0  0  0  0  0
  185.7660  177.8400  141.3790 C   0  0  0  0  0  2  0  0  0  0  0  0
  185.0440  176.6630  136.0330 C   0  0  0  0  0  2  0  0  0  0  0  0
  183.4330  177.4850  140.9820 O   0  0  0  0  0  1  0  0  0  0  0  0
  186.0170  178.3220  137.6700 C   0  0  1  0  0  3  0  0  0  0  0  0
  184.7090  178.0510  138.4440 C   0  0  1  0  0  3  0  0  0  0  0  0
  184.5250  179.0830  139.5570 C   0  0  0  0  0  2  0  0  0  0  0  0
  186.5910  180.1290  141.4820 O   0  0  0  0  0  1  0  0  0  0  0  0
  183.6030  177.0980  136.3490 C   0  0  1  0  0  3  0  0  0  0  0  0
  187.8590  178.5770  139.3520 N   0  0  0  0  0  2  0  0  0  0  0  0
  187.1750  177.7450  138.4180 C   0  0  0  0  0  0  0  0  0  0  0  0
  186.0000  177.8340  136.2140 C   0  0  0  0  0  2  0  0  0  0  0  0
  189.7370  177.4430  140.2080 N   0  0  0  0  0  2  0  0  0  0  0  0
  184.4350  178.4540  140.9520 C   0  0  2  0  0  3  0  0  0  0  0  0
  188.6100  178.0420  140.4420 C   0  0  0  0  0  0  0  0  0  0  0  0
  182.6570  175.9110  136.5120 C   0  0  1  0  0  3  0  0  0  0  0  0
  179.3170  180.2530  138.8640 C   0  0  1  0  0  3  0  0  0  0  0  0
  181.5180  175.9940  135.4830 C   0  0  1  0  0  3  0  0  0  0  0  0
  179.1780  179.1190  137.9140 C   0  0  1  0  0  3  0  0  0  0  0  0
  179.9700  177.0580  137.7240 O   0  0  0  0  0  0  0  0  0  0  0  0
  179.6580  179.1530  136.6180 O   0  0  0  0  0  0  0  0  0  0  0  0
  180.0550  178.1560  138.5550 C   0  0  2  0  0  3  0  0  0  0  0  0
  180.4130  174.9630  135.5920 C   0  0  0  0  0  3  0  0  0  0  0  0
  179.5890  178.0430  139.8600 O   0  0  0  0  0  0  0  0  0  0  0  0
  179.9370  177.7690  136.4960 C   0  0  1  0  0  0  0  0  0  0  0  0
  179.1320  175.6600  135.5340 N   0  0  0  0  0  0  0  0  0  0  0  0
  180.8870  177.3640  135.3790 C   0  0  2  0  0  3  0  0  0  0  0  0
  179.3000  179.4040  140.1710 C   0  0  1  0  0  3  0  0  0  0  0  0
  179.3830  177.0770  135.2660 C   0  0  2  0  0  3  0  0  0  0  0  0
  179.6510  181.0100  141.9030 O   0  0  0  0  0  1  0  0  0  0  0  0
  180.2310  179.9190  141.2600 C   0  0  0  0  0  2  0  0  0  0  0  0
  180.5450  180.9120  138.6850 O   0  0  0  0  0  0  0  0  0  0  0  0
  180.2180  182.2140  138.2980 C   0  0  0  0  0  2  0  0  0  0  0  0
  181.3520  184.1920  137.3480 C   0  0  0  0  0  2  0  0  0  0  0  0
  180.6000  182.4880  135.9130 N   0  0  0  0  0  2  0  0  0  0  0  0
  181.1730  182.7040  137.2220 C   0  0  2  0  0  3  0  0  0  0  0  0
  180.6260  183.8030  135.2930 C   0  0  0  0  0  2  0  0  0  0  0  0
  180.6600  184.7870  136.2910 O   0  0  0  0  0  0  0  0  0  0  0  0
  183.9990  174.2320  138.0210 O   0  0  0  0  0  0  0  0  0  0  0  0
  183.5360  174.3180  136.5710 S   0  0  0  0  0  3  0  0  0  0  0  0
  188.6250  177.3440  142.8920 C   0  0  0  0  0  2  0  0  0  0  0  0
  189.6820  177.8520  143.8610 C   0  0  0  0  0  2  0  0  0  0  0  0
  190.4150  176.8330  146.9870 C   0  0  0  0  0  2  0  0  0  0  0  0
  189.9920  176.8210  144.8330 N   0  0  0  0  0  0  0  0  0  0  0  0
  191.9390  175.6450  144.3980 F   0  0  0  0  0  0  0  0  0  0  0  0
  189.4860  177.2410  146.0220 O   0  0  0  0  0  0  0  0  0  0  0  0
  191.7310  176.7950  146.3870 N   0  0  0  0  0  2  0  0  0  0  0  0
  191.4360  176.7950  144.9780 C   0  0  2  0  0  3  0  0  0  0  0  0
  2  4  1  0  0  0  0
  2 44  1  1  0  0  0
  3 14  2  0  0  0  0
  4 11  1  6  0  0  0
  5  4  1  0  0  0  0
  6 15  1  0  0  0  0
  6 12  1  0  0  0  0
  8 15  1  6  0  0  0
  8 14  1  0  0  0  0
  8  9  1  0  0  0  0
  9  1  1  6  0  0  0
  9 10  1  0  0  0  0
 10 17  1  0  0  0  0
 12 19  1  1  0  0  0
 12  1  1  0  0  0  0
 13 18  1  0  0  0  0
 14 13  1  0  0  0  0
 16 18  2  0  0  0  0
 17  7  1  6  0  0  0
 17  5  1  0  0  0  0
 18  2  1  0  0  0  0
 19 43  1  6  0  0  0
 20 35  1  6  0  0  0
 20 31  1  0  0  0  0
 21 26  1  0  0  0  0
 21 19  1  1  0  0  0
 22 24  1  6  0  0  0
 22 25  1  0  0  0  0
 22 20  1  0  0  0  0
 25 23  1  6  0  0  0
 25 27  1  0  0  0  0
 27 31  1  0  0  0  0
 28 24  1  1  0  0  0
 28 23  1  0  0  0  0
 29 26  2  0  0  0  0
 30 21  1  0  0  0  0
 30 28  1  0  0  0  0
 31 34  1  0  0  0  0
 32 30  1  0  0  0  0
 32 29  1  0  0  0  0
 32 28  1  0  0  0  0
 34 33  1  0  0  0  0
 36 35  1  0  0  0  0
 38 39  1  0  0  0  0
 39 37  1  0  0  0  0
 39 36  1  0  0  0  0
 40 38  1  0  0  0  0
 40 41  1  0  0  0  0
 41 37  1  0  0  0  0
 43 42  2  0  0  0  0
 44 45  1  0  0  0  0
 45 47  1  0  0  0  0
 47 51  1  0  0  0  0
 47 49  1  0  0  0  0
 48 51  1  0  0  0  0
 49 46  1  0  0  0  0
 50 46  1  0  0  0  0
 51 50  1  0  0  0  0
M  END
>  <MODEL>
2

>  <REMARK>
 VINA RESULT:      -7.0      3.648      7.225
  Name = 
  10 active torsions:
  status: ('A' for Active; 'I' for Inactive)
    1  A    between atoms: C_2  and  O_10
    2  A    between atoms: C_3  and  C_20
    3  A    between atoms: C_9  and  C_23
    4  A    between atoms: O_10  and  C_19
    5  A    between atoms: C_14  and  C_48
    6  A    between atoms: S_18  and  C_20
    7  A    between atoms: C_19  and  C_29
    8  A    between atoms: C_20  and  C_38
    9  A    between atoms: N_22  and  C_28
   10  A    between atoms: C_23  and  C_28
                            x       y       z     vdW  Elec       q    Type
                         _______ _______ _______ _____ _____    ______ ____

>  <TORSDO>
F 10

$$$$
=
 OpenBabel11062412343D

 51 58  0  0  1  0  0  0  0  0999 V2000
  184.6520  177.2580  135.9300 C   0  0  0  0  0  2  0  0  0  0  0  0
  190.0990  177.3740  139.3270 C   0  0  2  0  0  3  0  0  0  0  0  0
  187.9320  174.7090  137.1510 O   0  0  0  0  0  0  0  0  0  0  0  0
  188.9420  178.3940  139.3450 C   0  0  2  0  0  3  0  0  0  0  0  0
  187.5630  177.7080  139.3130 C   0  0  0  0  0  2  0  0  0  0  0  0
  185.2480  174.8580  135.1880 C   0  0  0  0  0  2  0  0  0  0  0  0
  185.2200  178.1950  139.2660 O   0  0  0  0  0  1  0  0  0  0  0  0
  187.0740  176.4920  135.8010 C   0  0  1  0  0  3  0  0  0  0  0  0
  185.9720  177.1120  136.6870 C   0  0  1  0  0  3  0  0  0  0  0  0
  186.4100  178.4850  137.1970 C   0  0  0  0  0  2  0  0  0  0  0  0
  189.0990  179.2930  138.2850 O   0  0  0  0  0  1  0  0  0  0  0  0
  184.1510  175.9240  135.3490 C   0  0  1  0  0  3  0  0  0  0  0  0
  189.2390  176.6430  137.0560 N   0  0  0  0  0  2  0  0  0  0  0  0
  188.1170  175.8570  136.6620 C   0  0  0  0  0  0  0  0  0  0  0  0
  186.5520  175.5060  134.7450 C   0  0  0  0  0  2  0  0  0  0  0  0
  190.7810  175.3050  138.2300 N   0  0  0  0  0  2  0  0  0  0  0  0
  186.4500  178.5730  138.7270 C   0  0  2  0  0  3  0  0  0  0  0  0
  190.0050  176.3460  138.2230 C   0  0  0  0  0  0  0  0  0  0  0  0
  182.9320  175.3990  136.1040 C   0  0  1  0  0  3  0  0  0  0  0  0
  179.5540  178.9350  139.5120 C   0  0  1  0  0  3  0  0  0  0  0  0
  181.6720  175.5270  135.2320 C   0  0  1  0  0  3  0  0  0  0  0  0
  179.3940  177.9600  138.4010 C   0  0  1  0  0  3  0  0  0  0  0  0
  180.3280  176.0500  137.7760 O   0  0  0  0  0  0  0  0  0  0  0  0
  179.7060  178.2520  137.0870 O   0  0  0  0  0  0  0  0  0  0  0  0
  180.4220  177.0040  138.7700 C   0  0  2  0  0  3  0  0  0  0  0  0
  180.6800  174.3820  135.2810 C   0  0  0  0  0  3  0  0  0  0  0  0
  180.1320  176.6340  140.0780 O   0  0  0  0  0  0  0  0  0  0  0  0
  180.0840  176.9420  136.6990 C   0  0  1  0  0  0  0  0  0  0  0  0
  179.3480  174.9430  135.4820 N   0  0  0  0  0  0  0  0  0  0  0  0
  180.9190  176.8230  135.4340 C   0  0  2  0  0  3  0  0  0  0  0  0
  179.7700  177.8910  140.6480 C   0  0  1  0  0  3  0  0  0  0  0  0
  179.4430  176.4030  135.4350 C   0  0  2  0  0  3  0  0  0  0  0  0
  180.1320  178.9820  142.7390 O   0  0  0  0  0  1  0  0  0  0  0  0
  180.7810  178.3180  141.7020 C   0  0  0  0  0  2  0  0  0  0  0  0
  180.6890  179.7390  139.3170 O   0  0  0  0  0  0  0  0  0  0  0  0
  180.2680  181.0480  139.5610 C   0  0  0  0  0  2  0  0  0  0  0  0
  180.8950  181.9520  137.3490 C   0  0  0  0  0  2  0  0  0  0  0  0
  179.1690  182.9780  138.5730 N   0  0  0  0  0  2  0  0  0  0  0  0
  179.7470  181.6860  138.2830 C   0  0  2  0  0  3  0  0  0  0  0  0
  179.8790  183.8910  137.6910 C   0  0  0  0  0  2  0  0  0  0  0  0
  181.1180  183.3310  137.3450 O   0  0  0  0  0  0  0  0  0  0  0  0
  183.9460  174.0630  138.1250 O   0  0  0  0  0  0  0  0  0  0  0  0
  183.2120  173.7510  136.8260 S   0  0  0  0  0  3  0  0  0  0  0  0
  190.3680  176.7650  140.7100 C   0  0  0  0  0  2  0  0  0  0  0  0
  191.4790  177.4820  141.4600 C   0  0  0  0  0  2  0  0  0  0  0  0
  189.6480  176.8750  144.2230 C   0  0  0  0  0  2  0  0  0  0  0  0
  191.3510  177.2330  142.8840 N   0  0  0  0  0  0  0  0  0  0  0  0
  192.1260  178.9480  144.2330 F   0  0  0  0  0  0  0  0  0  0  0  0
  190.2630  176.4350  143.0440 O   0  0  0  0  0  0  0  0  0  0  0  0
  189.9230  178.2850  144.3990 N   0  0  0  0  0  2  0  0  0  0  0  0
  191.0350  178.5040  143.5100 C   0  0  2  0  0  3  0  0  0  0  0  0
  2  4  1  0  0  0  0
  2 44  1  1  0  0  0
  4 11  1  6  0  0  0
  5  4  1  0  0  0  0
  6 12  1  0  0  0  0
  8 15  1  6  0  0  0
  8 14  1  0  0  0  0
  8  9  1  0  0  0  0
  9  1  1  6  0  0  0
  9 10  1  0  0  0  0
 10 17  1  0  0  0  0
 12  1  1  0  0  0  0
 12 19  1  1  0  0  0
 13 18  1  0  0  0  0
 14 13  1  0  0  0  0
 14  3  2  0  0  0  0
 15  6  1  0  0  0  0
 17  7  1  1  0  0  0
 17  5  1  0  0  0  0
 18 16  2  0  0  0  0
 18  2  1  0  0  0  0
 19 43  1  6  0  0  0
 20 35  1  6  0  0  0
 20 31  1  0  0  0  0
 21 26  1  0  0  0  0
 21 30  1  0  0  0  0
 21 19  1  1  0  0  0
 22 24  1  6  0  0  0
 22 25  1  0  0  0  0
 22 20  1  0  0  0  0
 25 23  1  6  0  0  0
 25 27  1  0  0  0  0
 26 29  2  0  0  0  0
 27 31  1  0  0  0  0
 28 24  1  1  0  0  0
 28 23  1  0  0  0  0
 30 32  1  0  0  0  0
 30 28  1  0  0  0  0
 31 34  1  0  0  0  0
 32 29  1  0  0  0  0
 32 28  1  0  0  0  0
 34 33  1  0  0  0  0
 35 36  1  0  0  0  0
 37 39  1  0  0  0  0
 39 38  1  0  0  0  0
 39 36  1  0  0  0  0
 40 38  1  0  0  0  0
 41 37  1  0  0  0  0
 41 40  1  0  0  0  0
 43 42  2  0  0  0  0
 44 45  1  0  0  0  0
 45 47  1  0  0  0  0
 46 50  1  0  0  0  0
 47 49  1  0  0  0  0
 47 51  1  0  0  0  0
 49 46  1  0  0  0  0
 51 48  1  0  0  0  0
 51 50  1  0  0  0  0
M  END
>  <MODEL>
3

>  <REMARK>
 VINA RESULT:      -6.8      3.160      6.403
  Name = 
  10 active torsions:
  status: ('A' for Active; 'I' for Inactive)
    1  A    between atoms: C_2  and  O_10
    2  A    between atoms: C_3  and  C_20
    3  A    between atoms: C_9  and  C_23
    4  A    between atoms: O_10  and  C_19
    5  A    between atoms: C_14  and  C_48
    6  A    between atoms: S_18  and  C_20
    7  A    between atoms: C_19  and  C_29
    8  A    between atoms: C_20  and  C_38
    9  A    between atoms: N_22  and  C_28
   10  A    between atoms: C_23  and  C_28
                            x       y       z     vdW  Elec       q    Type
                         _______ _______ _______ _____ _____    ______ ____

>  <TORSDO>
F 10

$$$$
=
 OpenBabel11062412343D

 51 58  0  0  1  0  0  0  0  0999 V2000
  185.2120  178.4210  137.9220 C   0  0  0  0  0  2  0  0  0  0  0  0
  189.8450  177.5310  142.2780 C   0  0  2  0  0  3  0  0  0  0  0  0
  188.7030  175.9800  138.6960 O   0  0  0  0  0  0  0  0  0  0  0  0
  188.5110  178.2860  142.4450 C   0  0  2  0  0  3  0  0  0  0  0  0
  187.3360  177.5470  141.7740 C   0  0  0  0  0  2  0  0  0  0  0  0
  186.4250  176.7340  136.3890 C   0  0  0  0  0  2  0  0  0  0  0  0
  184.9870  177.7350  141.3580 O   0  0  0  0  0  1  0  0  0  0  0  0
  187.7270  178.0800  138.0850 C   0  0  1  0  0  3  0  0  0  0  0  0
  186.3830  178.0830  138.8450 C   0  0  1  0  0  3  0  0  0  0  0  0
  186.4220  179.0940  139.9910 C   0  0  0  0  0  2  0  0  0  0  0  0
  188.6500  179.5890  141.9560 O   0  0  0  0  0  1  0  0  0  0  0  0
  185.1150  177.4700  136.7160 C   0  0  1  0  0  3  0  0  0  0  0  0
  189.5620  177.8640  139.7790 N   0  0  0  0  0  2  0  0  0  0  0  0
  188.7190  177.2360  138.8160 C   0  0  0  0  0  0  0  0  0  0  0  0
  187.6160  177.6560  136.6120 C   0  0  0  0  0  2  0  0  0  0  0  0
  191.1310  176.3110  140.6020 N   0  0  0  0  0  2  0  0  0  0  0  0
  186.1810  178.4560  141.3640 C   0  0  2  0  0  3  0  0  0  0  0  0
  190.1630  177.1390  140.8520 C   0  0  0  0  0  0  0  0  0  0  0  0
  183.9260  176.5200  136.8360 C   0  0  1  0  0  3  0  0  0  0  0  0
  178.9340  178.9140  139.0460 C   0  0  1  0  0  3  0  0  0  0  0  0
  183.0540  176.5960  135.5720 C   0  0  1  0  0  3  0  0  0  0  0  0
  179.3730  178.1180  137.8700 C   0  0  1  0  0  3  0  0  0  0  0  0
  180.8270  176.4960  137.4640 O   0  0  0  0  0  0  0  0  0  0  0  0
  180.0620  178.6610  136.8030 O   0  0  0  0  0  0  0  0  0  0  0  0
  180.3730  177.2800  138.5050 C   0  0  2  0  0  3  0  0  0  0  0  0
  182.3570  175.3230  135.1370 C   0  0  0  0  0  3  0  0  0  0  0  0
  179.7210  176.6650  139.5680 O   0  0  0  0  0  0  0  0  0  0  0  0
  180.8040  177.5020  136.4630 C   0  0  1  0  0  0  0  0  0  0  0  0
  180.9560  175.6380  134.8750 N   0  0  0  0  0  0  0  0  0  0  0  0
  182.0370  177.7150  135.5980 C   0  0  2  0  0  3  0  0  0  0  0  0
  178.9400  177.7440  140.0760 C   0  0  1  0  0  3  0  0  0  0  0  0
  180.7700  177.0840  135.0060 C   0  0  2  0  0  3  0  0  0  0  0  0
  179.3910  177.0350  142.3100 O   0  0  0  0  0  1  0  0  0  0  0  0
  179.4090  178.1430  141.4680 C   0  0  0  0  0  2  0  0  0  0  0  0
  179.8820  179.8990  139.3690 O   0  0  0  0  0  0  0  0  0  0  0  0
  179.1840  181.1100  139.3550 C   0  0  0  0  0  2  0  0  0  0  0  0
  179.1600  183.1490  137.9610 C   0  0  0  0  0  2  0  0  0  0  0  0
  180.9550  181.6420  137.7770 N   0  0  0  0  0  2  0  0  0  0  0  0
  180.0370  182.2080  138.7390 C   0  0  2  0  0  3  0  0  0  0  0  0
  180.6890  182.3820  136.5540 C   0  0  0  0  0  2  0  0  0  0  0  0
  179.3900  182.9100  136.6050 O   0  0  0  0  0  0  0  0  0  0  0  0
  183.3840  174.4770  138.3950 O   0  0  0  0  0  0  0  0  0  0  0  0
  184.4200  174.8400  137.3380 S   0  0  0  0  0  3  0  0  0  0  0  0
  189.9970  176.3770  143.2780 C   0  0  0  0  0  2  0  0  0  0  0  0
  191.3600  176.3610  143.9510 C   0  0  0  0  0  2  0  0  0  0  0  0
  191.3240  176.5090  147.3170 C   0  0  0  0  0  2  0  0  0  0  0  0
  191.2990  177.0950  145.2010 N   0  0  0  0  0  0  0  0  0  0  0  0
  189.3550  178.3170  145.5040 F   0  0  0  0  0  0  0  0  0  0  0  0
  192.0180  176.3830  146.1070 O   0  0  0  0  0  0  0  0  0  0  0  0
  189.9160  176.6860  147.0350 N   0  0  0  0  0  2  0  0  0  0  0  0
  189.9170  177.0620  145.6450 C   0  0  2  0  0  3  0  0  0  0  0  0
  2  4  1  0  0  0  0
  2 44  1  1  0  0  0
  3 14  2  0  0  0  0
  4 11  1  6  0  0  0
  5  4  1  0  0  0  0
  6 15  1  0  0  0  0
  6 12  1  0  0  0  0
  8 15  1  6  0  0  0
  8 14  1  0  0  0  0
  8  9  1  0  0  0  0
  9  1  1  6  0  0  0
  9 10  1  0  0  0  0
 10 17  1  0  0  0  0
 12 19  1  1  0  0  0
 12  1  1  0  0  0  0
 13 18  1  0  0  0  0
 14 13  1  0  0  0  0
 16 18  2  0  0  0  0
 17  7  1  6  0  0  0
 17  5  1  0  0  0  0
 18  2  1  0  0  0  0
 19 43  1  6  0  0  0
 20 35  1  1  0  0  0
 20 31  1  0  0  0  0
 21 30  1  0  0  0  0
 21 19  1  1  0  0  0
 22 24  1  6  0  0  0
 22 25  1  0  0  0  0
 22 20  1  0  0  0  0
 25 23  1  6  0  0  0
 25 27  1  0  0  0  0
 26 21  1  0  0  0  0
 27 31  1  0  0  0  0
 28 24  1  1  0  0  0
 28 23  1  0  0  0  0
 29 32  1  0  0  0  0
 29 26  2  0  0  0  0
 30 28  1  0  0  0  0
 31 34  1  0  0  0  0
 32 30  1  0  0  0  0
 32 28  1  0  0  0  0
 34 33  1  0  0  0  0
 36 35  1  0  0  0  0
 37 39  1  0  0  0  0
 38 39  1  0  0  0  0
 39 36  1  0  0  0  0
 40 41  1  0  0  0  0
 40 38  1  0  0  0  0
 41 37  1  0  0  0  0
 43 42  2  0  0  0  0
 44 45  1  0  0  0  0
 45 47  1  0  0  0  0
 47 51  1  0  0  0  0
 47 49  1  0  0  0  0
 48 51  1  0  0  0  0
 49 46  1  0  0  0  0
 50 46  1  0  0  0  0
 51 50  1  0  0  0  0
M  END
>  <MODEL>
4

>  <REMARK>
 VINA RESULT:      -5.5      3.415      7.224
  Name = 
  10 active torsions:
  status: ('A' for Active; 'I' for Inactive)
    1  A    between atoms: C_2  and  O_10
    2  A    between atoms: C_3  and  C_20
    3  A    between atoms: C_9  and  C_23
    4  A    between atoms: O_10  and  C_19
    5  A    between atoms: C_14  and  C_48
    6  A    between atoms: S_18  and  C_20
    7  A    between atoms: C_19  and  C_29
    8  A    between atoms: C_20  and  C_38
    9  A    between atoms: N_22  and  C_28
   10  A    between atoms: C_23  and  C_28
                            x       y       z     vdW  Elec       q    Type
                         _______ _______ _______ _____ _____    ______ ____

>  <TORSDO>
F 10

$$$$
=
 OpenBabel11062412343D

 51 58  0  0  1  0  0  0  0  0999 V2000
  189.0320  178.5710  139.8600 C   0  0  0  0  0  2  0  0  0  0  0  0
  184.8020  178.6940  144.6890 C   0  0  2  0  0  3  0  0  0  0  0  0
  187.6700  176.2110  143.2240 O   0  0  0  0  0  0  0  0  0  0  0  0
  184.8280  179.5710  143.4210 C   0  0  2  0  0  3  0  0  0  0  0  0
  185.1870  178.7600  142.1600 C   0  0  0  0  0  2  0  0  0  0  0  0
  190.0060  176.3990  140.8600 C   0  0  0  0  0  2  0  0  0  0  0  0
  185.5480  179.0020  139.8070 O   0  0  0  0  0  1  0  0  0  0  0  0
  188.8700  178.0910  142.3520 C   0  0  1  0  0  3  0  0  0  0  0  0
  188.0970  178.4400  141.0620 C   0  0  1  0  0  3  0  0  0  0  0  0
  187.3270  179.7490  141.2400 C   0  0  0  0  0  2  0  0  0  0  0  0
  185.7050  180.6430  143.6150 O   0  0  0  0  0  1  0  0  0  0  0  0
  189.8750  177.3050  139.6240 C   0  0  1  0  0  3  0  0  0  0  0  0
  187.2660  178.2590  144.2720 N   0  0  0  0  0  2  0  0  0  0  0  0
  187.9500  177.4360  143.3300 C   0  0  0  0  0  0  0  0  0  0  0  0
  190.1300  177.2430  142.1210 C   0  0  0  0  0  2  0  0  0  0  0  0
  186.0610  176.9140  145.7830 N   0  0  0  0  0  2  0  0  0  0  0  0
  185.8150  179.5890  141.0430 C   0  0  2  0  0  3  0  0  0  0  0  0
  186.0440  177.8550  144.8900 C   0  0  0  0  0  0  0  0  0  0  0  0
  189.4170  176.5400  138.3850 C   0  0  1  0  0  3  0  0  0  0  0  0
  184.0670  174.6250  136.5830 C   0  0  1  0  0  3  0  0  0  0  0  0
  189.1300  177.5160  137.2330 C   0  0  1  0  0  3  0  0  0  0  0  0
  185.2150  175.4110  136.0570 C   0  0  1  0  0  3  0  0  0  0  0  0
  187.4230  175.3650  136.2300 O   0  0  0  0  0  0  0  0  0  0  0  0
  185.4650  176.7200  136.4200 O   0  0  0  0  0  0  0  0  0  0  0  0
  186.3080  174.6900  136.6830 C   0  0  2  0  0  3  0  0  0  0  0  0
  189.7840  177.2210  135.8990 C   0  0  0  0  0  3  0  0  0  0  0  0
  186.1360  173.3610  136.3130 O   0  0  0  0  0  0  0  0  0  0  0  0
  186.8750  176.6720  136.2940 C   0  0  1  0  0  0  0  0  0  0  0  0
  188.7630  177.3100  134.8610 N   0  0  0  0  0  0  0  0  0  0  0  0
  187.6570  177.7700  137.0000 C   0  0  2  0  0  3  0  0  0  0  0  0
  184.7230  173.2180  136.4390 C   0  0  1  0  0  3  0  0  0  0  0  0
  187.5160  177.7740  135.4710 C   0  0  2  0  0  3  0  0  0  0  0  0
  183.2510  171.5060  137.2150 O   0  0  0  0  0  1  0  0  0  0  0  0
  184.3740  172.2520  137.5620 C   0  0  0  0  0  2  0  0  0  0  0  0
  183.8100  174.9470  137.9250 O   0  0  0  0  0  0  0  0  0  0  0  0
  182.6250  175.6880  137.9130 C   0  0  0  0  0  2  0  0  0  0  0  0
  181.5490  177.0420  139.6760 C   0  0  0  0  0  2  0  0  0  0  0  0
  182.7720  178.1130  137.9780 N   0  0  0  0  0  2  0  0  0  0  0  0
  182.7600  176.9200  138.7930 C   0  0  2  0  0  3  0  0  0  0  0  0
  181.6970  178.9270  138.5230 C   0  0  0  0  0  2  0  0  0  0  0  0
  180.7800  178.0990  139.1860 O   0  0  0  0  0  0  0  0  0  0  0  0
  191.9110  175.7550  138.1410 O   0  0  0  0  0  0  0  0  0  0  0  0
  190.5220  175.1530  137.9700 S   0  0  0  0  0  3  0  0  0  0  0  0
  183.4980  177.8970  144.8270 C   0  0  0  0  0  2  0  0  0  0  0  0
  182.2610  178.7750  144.7160 C   0  0  0  0  0  2  0  0  0  0  0  0
  179.9540  179.0930  142.2820 C   0  0  0  0  0  2  0  0  0  0  0  0
  181.3510  178.2200  143.7320 N   0  0  0  0  0  0  0  0  0  0  0  0
  179.6860  176.8740  144.6150 F   0  0  0  0  0  0  0  0  0  0  0  0
  181.2860  179.1140  142.7120 O   0  0  0  0  0  0  0  0  0  0  0  0
  179.1040  178.7470  143.4010 N   0  0  0  0  0  2  0  0  0  0  0  0
  180.0350  178.1840  144.3430 C   0  0  2  0  0  3  0  0  0  0  0  0
  2 44  1  6  0  0  0
  2 18  1  0  0  0  0
  3 14  2  0  0  0  0
  4 11  1  1  0  0  0
  4  2  1  0  0  0  0
  5  4  1  0  0  0  0
  6 15  1  0  0  0  0
  8 15  1  6  0  0  0
  8 14  1  0  0  0  0
  9  1  1  6  0  0  0
  9 10  1  0  0  0  0
  9  8  1  0  0  0  0
 12 19  1  6  0  0  0
 12  1  1  0  0  0  0
 12  6  1  0  0  0  0
 13 18  1  0  0  0  0
 14 13  1  0  0  0  0
 17  7  1  6  0  0  0
 17 10  1  0  0  0  0
 17  5  1  0  0  0  0
 18 16  2  0  0  0  0
 19 43  1  6  0  0  0
 20 35  1  1  0  0  0
 21 19  1  1  0  0  0
 22 24  1  1  0  0  0
 22 20  1  0  0  0  0
 22 25  1  0  0  0  0
 25 23  1  6  0  0  0
 26 21  1  0  0  0  0
 27 31  1  0  0  0  0
 27 25  1  0  0  0  0
 28 23  1  6  0  0  0
 28 24  1  0  0  0  0
 28 30  1  0  0  0  0
 29 32  1  0  0  0  0
 29 26  2  0  0  0  0
 30 21  1  0  0  0  0
 31 20  1  0  0  0  0
 31 34  1  0  0  0  0
 32 28  1  0  0  0  0
 32 30  1  0  0  0  0
 33 34  1  0  0  0  0
 36 35  1  0  0  0  0
 36 39  1  0  0  0  0
 38 40  1  0  0  0  0
 38 39  1  0  0  0  0
 39 37  1  0  0  0  0
 40 41  1  0  0  0  0
 41 37  1  0  0  0  0
 43 42  2  0  0  0  0
 45 44  1  0  0  0  0
 46 49  1  0  0  0  0
 46 50  1  0  0  0  0
 47 51  1  0  0  0  0
 47 45  1  0  0  0  0
 49 47  1  0  0  0  0
 50 51  1  0  0  0  0
 51 48  1  0  0  0  0
M  END
>  <MODEL>
5

>  <REMARK>
 VINA RESULT:      -5.1      3.808      9.484
  Name = 
  10 active torsions:
  status: ('A' for Active; 'I' for Inactive)
    1  A    between atoms: C_2  and  O_10
    2  A    between atoms: C_3  and  C_20
    3  A    between atoms: C_9  and  C_23
    4  A    between atoms: O_10  and  C_19
    5  A    between atoms: C_14  and  C_48
    6  A    between atoms: S_18  and  C_20
    7  A    between atoms: C_19  and  C_29
    8  A    between atoms: C_20  and  C_38
    9  A    between atoms: N_22  and  C_28
   10  A    between atoms: C_23  and  C_28
                            x       y       z     vdW  Elec       q    Type
                         _______ _______ _______ _____ _____    ______ ____

>  <TORSDO>
F 10

$$$$
=
 OpenBabel11062412343D

 51 58  0  0  1  0  0  0  0  0999 V2000
  180.6200  179.0070  139.7720 C   0  0  0  0  0  2  0  0  0  0  0  0
  185.2990  178.9340  144.1680 C   0  0  2  0  0  3  0  0  0  0  0  0
  184.6160  177.4770  140.4340 O   0  0  0  0  0  0  0  0  0  0  0  0
  183.8150  179.3060  144.3610 C   0  0  2  0  0  3  0  0  0  0  0  0
  182.8740  178.3560  143.5950 C   0  0  0  0  0  2  0  0  0  0  0  0
  182.2350  177.8320  138.1350 C   0  0  0  0  0  2  0  0  0  0  0  0
  180.5580  177.9760  143.1280 O   0  0  0  0  0  1  0  0  0  0  0  0
  183.1380  179.3050  139.9780 C   0  0  1  0  0  3  0  0  0  0  0  0
  181.8330  178.8960  140.6960 C   0  0  1  0  0  3  0  0  0  0  0  0
  181.6050  179.7750  141.9260 C   0  0  0  0  0  2  0  0  0  0  0  0
  183.6190  180.6410  143.9910 O   0  0  0  0  0  1  0  0  0  0  0  0
  180.7780  178.1770  138.4860 C   0  0  1  0  0  3  0  0  0  0  0  0
  184.9560  179.4100  141.7000 N   0  0  0  0  0  2  0  0  0  0  0  0
  184.3080  178.6780  140.6620 C   0  0  0  0  0  0  0  0  0  0  0  0
  183.1490  179.0030  138.4720 C   0  0  0  0  0  2  0  0  0  0  0  0
  186.8660  178.2410  142.4320 N   0  0  0  0  0  2  0  0  0  0  0  0
  181.5260  178.9740  143.2310 C   0  0  2  0  0  3  0  0  0  0  0  0
  185.7170  178.7680  142.7240 C   0  0  0  0  0  0  0  0  0  0  0  0
  179.8710  176.9480  138.4880 C   0  0  1  0  0  3  0  0  0  0  0  0
  182.9460  173.6410  134.5980 C   0  0  1  0  0  3  0  0  0  0  0  0
  178.9310  176.9780  137.2720 C   0  0  1  0  0  3  0  0  0  0  0  0
  181.8710  174.6670  134.5960 C   0  0  1  0  0  3  0  0  0  0  0  0
  181.3770  176.4970  135.7450 O   0  0  0  0  0  0  0  0  0  0  0  0
  180.5640  174.3950  134.9510 O   0  0  0  0  0  0  0  0  0  0  0  0
  182.3330  175.5030  135.6890 C   0  0  2  0  0  3  0  0  0  0  0  0
  178.9770  178.2130  136.3950 C   0  0  0  0  0  3  0  0  0  0  0  0
  183.6390  175.8500  135.3640 O   0  0  0  0  0  0  0  0  0  0  0  0
  180.2520  175.6740  135.4750 C   0  0  1  0  0  0  0  0  0  0  0  0
  179.0840  177.7800  135.0060 N   0  0  0  0  0  0  0  0  0  0  0  0
  179.0380  175.7560  136.3880 C   0  0  2  0  0  3  0  0  0  0  0  0
  184.1350  174.6160  134.8500 C   0  0  1  0  0  3  0  0  0  0  0  0
  178.9800  176.3210  134.9610 C   0  0  2  0  0  3  0  0  0  0  0  0
  185.3220  174.8190  136.9120 O   0  0  0  0  0  1  0  0  0  0  0  0
  185.2220  174.0510  135.7540 C   0  0  0  0  0  2  0  0  0  0  0  0
  182.7770  172.7360  135.6590 O   0  0  0  0  0  0  0  0  0  0  0  0
  182.1140  171.6350  135.1110 C   0  0  0  0  0  2  0  0  0  0  0  0
  179.8970  170.6270  135.5210 C   0  0  0  0  0  2  0  0  0  0  0  0
  180.9050  171.9300  137.1990 N   0  0  0  0  0  2  0  0  0  0  0  0
  181.2150  170.9850  136.1500 C   0  0  2  0  0  3  0  0  0  0  0  0
  179.4510  171.9500  137.2410 C   0  0  0  0  0  2  0  0  0  0  0  0
  178.9460  171.5300  136.0020 O   0  0  0  0  0  0  0  0  0  0  0  0
  180.2150  174.8330  140.0070 O   0  0  0  0  0  0  0  0  0  0  0  0
  180.7970  175.3960  138.7160 S   0  0  0  0  0  3  0  0  0  0  0  0
  185.7360  177.7710  145.0690 C   0  0  0  0  0  2  0  0  0  0  0  0
  186.0620  178.2180  146.4850 C   0  0  0  0  0  2  0  0  0  0  0  0
  189.2270  177.1680  146.0030 C   0  0  0  0  0  2  0  0  0  0  0  0
  187.4980  178.3620  146.6360 N   0  0  0  0  0  0  0  0  0  0  0  0
  188.2370  178.3740  148.8310 F   0  0  0  0  0  0  0  0  0  0  0  0
  188.0650  177.7960  145.5390 O   0  0  0  0  0  0  0  0  0  0  0  0
  189.0280  176.7670  147.3790 N   0  0  0  0  0  2  0  0  0  0  0  0
  187.8890  177.5520  147.7760 C   0  0  2  0  0  3  0  0  0  0  0  0
  2  4  1  0  0  0  0
  2 44  1  1  0  0  0
  3 14  2  0  0  0  0
  4 11  1  6  0  0  0
  5  4  1  0  0  0  0
  6 15  1  0  0  0  0
  6 12  1  0  0  0  0
  8 15  1  6  0  0  0
  8 14  1  0  0  0  0
  8  9  1  0  0  0  0
  9  1  1  6  0  0  0
  9 10  1  0  0  0  0
 10 17  1  0  0  0  0
 12 19  1  1  0  0  0
 12  1  1  0  0  0  0
 13 18  1  0  0  0  0
 14 13  1  0  0  0  0
 16 18  2  0  0  0  0
 17  7  1  6  0  0  0
 17  5  1  0  0  0  0
 18  2  1  0  0  0  0
 19 43  1  6  0  0  0
 20 31  1  0  0  0  0
 20 35  1  1  0  0  0
 21 19  1  1  0  0  0
 22 20  1  0  0  0  0
 22 24  1  1  0  0  0
 22 25  1  0  0  0  0
 25 27  1  6  0  0  0
 25 23  1  0  0  0  0
 26 21  1  0  0  0  0
 28 24  1  6  0  0  0
 28 23  1  0  0  0  0
 28 30  1  0  0  0  0
 29 26  2  0  0  0  0
 30 21  1  0  0  0  0
 31 27  1  0  0  0  0
 31 34  1  0  0  0  0
 32 29  1  0  0  0  0
 32 28  1  0  0  0  0
 32 30  1  0  0  0  0
 34 33  1  0  0  0  0
 36 35  1  0  0  0  0
 36 39  1  0  0  0  0
 37 41  1  0  0  0  0
 37 39  1  0  0  0  0
 38 40  1  0  0  0  0
 39 38  1  0  0  0  0
 41 40  1  0  0  0  0
 43 42  2  0  0  0  0
 44 45  1  0  0  0  0
 45 47  1  0  0  0  0
 46 50  1  0  0  0  0
 47 51  1  0  0  0  0
 49 46  1  0  0  0  0
 49 47  1  0  0  0  0
 50 51  1  0  0  0  0
 51 48  1  0  0  0  0
M  END
>  <MODEL>
6

>  <REMARK>
 VINA RESULT:      -5.0      5.054      9.062
  Name = 
  10 active torsions:
  status: ('A' for Active; 'I' for Inactive)
    1  A    between atoms: C_2  and  O_10
    2  A    between atoms: C_3  and  C_20
    3  A    between atoms: C_9  and  C_23
    4  A    between atoms: O_10  and  C_19
    5  A    between atoms: C_14  and  C_48
    6  A    between atoms: S_18  and  C_20
    7  A    between atoms: C_19  and  C_29
    8  A    between atoms: C_20  and  C_38
    9  A    between atoms: N_22  and  C_28
   10  A    between atoms: C_23  and  C_28
                            x       y       z     vdW  Elec       q    Type
                         _______ _______ _______ _____ _____    ______ ____

>  <TORSDO>
F 10

$$$$
=
 OpenBabel11062412343D

 51 58  0  0  1  0  0  0  0  0999 V2000
  186.2140  174.6200  134.5940 C   0  0  0  0  0  2  0  0  0  0  0  0
  180.6240  176.8280  136.8540 C   0  0  2  0  0  3  0  0  0  0  0  0
  184.5870  177.6760  137.1940 O   0  0  0  0  0  0  0  0  0  0  0  0
  180.9100  175.4740  136.1730 C   0  0  2  0  0  3  0  0  0  0  0  0
  182.2360  174.8510  136.6520 C   0  0  0  0  0  2  0  0  0  0  0  0
  187.3840  176.6210  135.7310 C   0  0  0  0  0  2  0  0  0  0  0  0
  183.6500  172.9500  136.3160 O   0  0  0  0  0  1  0  0  0  0  0  0
  184.9740  176.8040  134.9970 C   0  0  1  0  0  3  0  0  0  0  0  0
  184.9810  175.2760  135.2160 C   0  0  1  0  0  3  0  0  0  0  0  0
  183.7240  174.6460  134.6140 C   0  0  0  0  0  2  0  0  0  0  0  0
  180.8860  175.6380  134.7840 O   0  0  0  0  0  1  0  0  0  0  0  0
  187.5310  175.2180  135.1190 C   0  0  1  0  0  3  0  0  0  0  0  0
  182.7480  177.6730  135.7540 N   0  0  0  0  0  2  0  0  0  0  0  0
  184.1280  177.4590  136.0400 C   0  0  0  0  0  0  0  0  0  0  0  0
  186.3720  177.4380  134.9390 C   0  0  0  0  0  2  0  0  0  0  0  0
  181.7480  178.8930  137.5040 N   0  0  0  0  0  2  0  0  0  0  0  0
  182.8740  173.8960  135.6470 C   0  0  2  0  0  3  0  0  0  0  0  0
  181.7690  177.8130  136.7840 C   0  0  0  0  0  0  0  0  0  0  0  0
  188.2640  174.2510  136.0450 C   0  0  1  0  0  3  0  0  0  0  0  0
  189.6260  177.6400  140.7560 C   0  0  1  0  0  3  0  0  0  0  0  0
  189.7850  174.3960  135.8700 C   0  0  1  0  0  3  0  0  0  0  0  0
  190.1950  177.2760  139.4310 C   0  0  1  0  0  3  0  0  0  0  0  0
  189.4240  176.8640  137.3950 O   0  0  0  0  0  0  0  0  0  0  0  0
  190.8010  176.0610  139.1750 O   0  0  0  0  0  0  0  0  0  0  0  0
  188.9710  177.1940  138.6570 C   0  0  2  0  0  3  0  0  0  0  0  0
  190.2690  175.4300  134.8740 C   0  0  0  0  0  3  0  0  0  0  0  0
  188.3340  178.4170  138.8380 O   0  0  0  0  0  0  0  0  0  0  0  0
  190.4510  175.9740  137.8050 C   0  0  1  0  0  0  0  0  0  0  0  0
  191.3030  176.2330  135.5180 N   0  0  0  0  0  0  0  0  0  0  0  0
  190.5330  174.5940  137.1700 C   0  0  2  0  0  3  0  0  0  0  0  0
  188.5520  178.6390  140.2300 C   0  0  1  0  0  3  0  0  0  0  0  0
  191.5790  175.6670  136.8390 C   0  0  2  0  0  3  0  0  0  0  0  0
  186.1730  178.7910  140.1210 O   0  0  0  0  0  1  0  0  0  0  0  0
  187.2380  178.6000  140.9970 C   0  0  0  0  0  2  0  0  0  0  0  0
  189.0420  176.5230  141.3760 O   0  0  0  0  0  0  0  0  0  0  0  0
  189.8630  176.2290  142.4680 C   0  0  0  0  0  2  0  0  0  0  0  0
  191.6890  177.4080  143.6410 C   0  0  0  0  0  2  0  0  0  0  0  0
  189.4780  177.6460  144.4050 N   0  0  0  0  0  2  0  0  0  0  0  0
  190.2560  177.5050  143.1960 C   0  0  2  0  0  3  0  0  0  0  0  0
  190.4750  177.7890  145.4540 C   0  0  0  0  0  2  0  0  0  0  0  0
  191.6840  177.2220  145.0260 O   0  0  0  0  0  0  0  0  0  0  0  0
  186.6030  173.2520  137.8170 O   0  0  0  0  0  0  0  0  0  0  0  0
  187.6680  174.3400  137.7640 S   0  0  0  0  0  3  0  0  0  0  0  0
  180.0410  176.6660  138.2640 C   0  0  0  0  0  2  0  0  0  0  0  0
  181.0090  175.9920  139.2240 C   0  0  0  0  0  2  0  0  0  0  0  0
  179.7090  178.2500  141.3610 C   0  0  0  0  0  2  0  0  0  0  0  0
  180.9170  176.6150  140.5310 N   0  0  0  0  0  0  0  0  0  0  0  0
  182.8750  177.6150  141.2590 F   0  0  0  0  0  0  0  0  0  0  0  0
  179.6310  177.0310  140.6760 O   0  0  0  0  0  0  0  0  0  0  0  0
  180.9660  178.8910  141.0400 N   0  0  0  0  0  2  0  0  0  0  0  0
  181.7420  177.8090  140.4910 C   0  0  2  0  0  3  0  0  0  0  0  0
  1 12  1  0  0  0  0
  2 44  1  1  0  0  0
  4 11  1  6  0  0  0
  4  5  1  0  0  0  0
  4  2  1  0  0  0  0
  8 15  1  1  0  0  0
  8  9  1  0  0  0  0
  8 14  1  0  0  0  0
  9  1  1  6  0  0  0
 10  9  1  0  0  0  0
 10 17  1  0  0  0  0
 12  6  1  0  0  0  0
 12 19  1  1  0  0  0
 13 14  1  0  0  0  0
 13 18  1  0  0  0  0
 14  3  2  0  0  0  0
 15  6  1  0  0  0  0
 17  7  1  1  0  0  0
 17  5  1  0  0  0  0
 18  2  1  0  0  0  0
 18 16  2  0  0  0  0
 19 43  1  1  0  0  0
 20 35  1  6  0  0  0
 21 19  1  1  0  0  0
 21 30  1  0  0  0  0
 22 24  1  1  0  0  0
 22 20  1  0  0  0  0
 25 23  1  6  0  0  0
 25 27  1  0  0  0  0
 25 22  1  0  0  0  0
 26 29  2  0  0  0  0
 26 21  1  0  0  0  0
 27 31  1  0  0  0  0
 28 23  1  6  0  0  0
 28 24  1  0  0  0  0
 29 32  1  0  0  0  0
 30 28  1  0  0  0  0
 31 20  1  0  0  0  0
 31 34  1  0  0  0  0
 32 30  1  0  0  0  0
 32 28  1  0  0  0  0
 33 34  1  0  0  0  0
 35 36  1  0  0  0  0
 36 39  1  0  0  0  0
 37 41  1  0  0  0  0
 38 40  1  0  0  0  0
 39 37  1  0  0  0  0
 39 38  1  0  0  0  0
 41 40  1  0  0  0  0
 43 42  2  0  0  0  0
 44 45  1  0  0  0  0
 45 47  1  0  0  0  0
 47 49  1  0  0  0  0
 49 46  1  0  0  0  0
 50 46  1  0  0  0  0
 51 47  1  0  0  0  0
 51 50  1  0  0  0  0
 51 48  1  0  0  0  0
M  END
>  <MODEL>
7

>  <REMARK>
 VINA RESULT:      -4.7      3.151      7.985
  Name = 
  10 active torsions:
  status: ('A' for Active; 'I' for Inactive)
    1  A    between atoms: C_2  and  O_10
    2  A    between atoms: C_3  and  C_20
    3  A    between atoms: C_9  and  C_23
    4  A    between atoms: O_10  and  C_19
    5  A    between atoms: C_14  and  C_48
    6  A    between atoms: S_18  and  C_20
    7  A    between atoms: C_19  and  C_29
    8  A    between atoms: C_20  and  C_38
    9  A    between atoms: N_22  and  C_28
   10  A    between atoms: C_23  and  C_28
                            x       y       z     vdW  Elec       q    Type
                         _______ _______ _______ _____ _____    ______ ____

>  <TORSDO>
F 10

$$$$
