=
 OpenBabel11062416483D

 28 33  0  0  1  0  0  0  0  0999 V2000
  185.2750  178.1890  143.7560 C   0  0  2  0  0  3  0  0  0  0  0  0
  192.0490  178.1900  142.6510 N   0  0  0  0  0  1  0  0  0  0  0  0
  191.0000  177.9730  143.5880 C   0  0  0  0  0  0  0  0  0  0  0  0
  184.5320  178.5110  142.4640 C   0  0  0  0  0  2  0  0  0  0  0  0
  189.9010  177.6500  145.3940 C   0  0  0  0  0  0  0  0  0  0  0  0
  191.2160  177.7730  144.8550 N   0  0  0  0  0  0  0  0  0  0  0  0
  185.7450  177.4160  146.3900 C   0  0  0  0  0  2  0  0  0  0  0  0
  188.8080  178.1020  141.9830 C   0  0  1  0  0  3  0  0  0  0  0  0
  184.9910  179.2750  144.7900 C   0  0  0  0  0  2  0  0  0  0  0  0
  186.7750  178.0140  143.5700 C   0  0  0  0  0  0  0  0  0  0  0  0
  187.3620  178.2790  142.2520 N   0  0  0  0  0  0  0  0  0  0  0  0
  188.1530  177.3750  147.0010 C   0  0  0  0  0  3  0  0  0  0  0  0
  186.5340  178.5070  141.1330 N   0  0  0  0  0  2  0  0  0  0  0  0
  187.1810  177.5330  145.9830 C   0  0  0  0  0  0  0  0  0  0  0  0
  189.5650  177.9940  143.2730 C   0  0  0  0  0  0  0  0  0  0  0  0
  187.5930  177.7600  144.6310 C   0  0  0  0  0  0  0  0  0  0  0  0
  189.5300  177.4390  146.7160 C   0  0  0  0  0  3  0  0  0  0  0  0
  185.4020  179.3300  141.5300 C   0  0  0  0  0  2  0  0  0  0  0  0
  184.9920  178.7360  146.2240 C   0  0  0  0  0  2  0  0  0  0  0  0
  188.9650  177.7910  144.4120 C   0  0  0  0  0  0  0  0  0  0  0  0
  190.4190  176.7590  140.5760 C   0  0  0  0  0  2  0  0  0  0  0  0
  189.0170  176.8290  141.1490 C   0  0  2  0  0  3  0  0  0  0  0  0
  189.2620  177.0730  139.6520 C   0  0  1  0  0  3  0  0  0  0  0  0
  189.3540  178.5380  139.2330 C   0  0  0  0  0  2  0  0  0  0  0  0
  188.8930  178.7130  137.7940 C   0  0  0  0  0  2  0  0  0  0  0  0
  187.6110  177.9400  137.5320 C   0  0  0  0  0  3  0  0  0  0  0  0
  186.5190  178.7930  137.6830 O   0  0  0  0  0  1  0  0  0  0  0  0
  187.6210  177.4280  136.2340 O   0  0  0  0  0  1  0  0  0  0  0  0
  1  4  1  6  0  0  0
  1  9  1  0  0  0  0
  2  3  1  0  0  0  0
  3  6  2  0  0  0  0
  5 17  2  0  0  0  0
  6  5  1  0  0  0  0
  8 11  1  0  0  0  0
  8 15  1  1  0  0  0
  9 19  1  0  0  0  0
 10  1  1  0  0  0  0
 10 16  2  0  0  0  0
 11 10  1  0  0  0  0
 13 18  1  0  0  0  0
 13 11  1  0  0  0  0
 14  7  1  0  0  0  0
 14 12  2  0  0  0  0
 15  3  1  0  0  0  0
 15 20  2  0  0  0  0
 16 14  1  0  0  0  0
 17 12  1  0  0  0  0
 18  4  1  0  0  0  0
 19  7  1  0  0  0  0
 20 16  1  0  0  0  0
 20  5  1  0  0  0  0
 22 21  1  1  0  0  0
 22  8  1  0  0  0  0
 23 24  1  1  0  0  0
 23 21  1  0  0  0  0
 23 22  1  0  0  0  0
 25 24  1  0  0  0  0
 26 27  1  0  0  0  0
 26 25  1  0  0  0  0
 28 26  1  0  0  0  0
M  END
>  <MODEL>
1

>  <REMARK>
 VINA RESULT:      -9.5      0.000      0.000
  Name = 
  4 active torsions:
  status: ('A' for Active; 'I' for Inactive)
    1  A    between atoms: C_7  and  C_11
    2  A    between atoms: C_8  and  C_14
    3  A    between atoms: C_8  and  C_22
    4  A    between atoms: C_14  and  C_18
                            x       y       z     vdW  Elec       q    Type
                         _______ _______ _______ _____ _____    ______ ____

>  <TORSDO>
F 4

$$$$
=
 OpenBabel11062416483D

 28 33  0  0  1  0  0  0  0  0999 V2000
  185.3850  178.4020  142.9770 C   0  0  2  0  0  3  0  0  0  0  0  0
  191.6030  177.5300  145.7500 N   0  0  0  0  0  1  0  0  0  0  0  0
  190.2040  177.6420  145.9850 C   0  0  0  0  0  0  0  0  0  0  0  0
  185.4920  178.4660  141.4570 C   0  0  0  0  0  2  0  0  0  0  0  0
  188.2970  177.8650  146.9270 C   0  0  0  0  0  0  0  0  0  0  0  0
  189.6950  177.7360  147.1790 N   0  0  0  0  0  0  0  0  0  0  0  0
  184.2710  178.2510  145.5240 C   0  0  0  0  0  2  0  0  0  0  0  0
  189.2220  177.5720  143.4500 C   0  0  1  0  0  3  0  0  0  0  0  0
  184.8430  179.7270  143.5040 C   0  0  0  0  0  2  0  0  0  0  0  0
  186.6960  178.0540  143.6660 C   0  0  0  0  0  0  0  0  0  0  0  0
  187.9140  177.9370  142.8580 N   0  0  0  0  0  0  0  0  0  0  0  0
  185.9600  178.1450  147.3440 C   0  0  0  0  0  3  0  0  0  0  0  0
  187.8420  177.9600  141.4490 N   0  0  0  0  0  2  0  0  0  0  0  0
  185.7020  178.1380  145.9520 C   0  0  0  0  0  0  0  0  0  0  0  0
  189.1710  177.7130  144.9410 C   0  0  0  0  0  0  0  0  0  0  0  0
  186.7840  177.9920  145.0260 C   0  0  0  0  0  0  0  0  0  0  0  0
  187.2680  178.0140  147.8480 C   0  0  0  0  0  3  0  0  0  0  0  0
  186.8640  178.9530  141.0320 C   0  0  0  0  0  2  0  0  0  0  0  0
  184.0000  179.5540  144.7720 C   0  0  0  0  0  2  0  0  0  0  0  0
  188.0460  177.8470  145.5870 C   0  0  0  0  0  0  0  0  0  0  0  0
  190.9830  175.7620  143.4610 C   0  0  0  0  0  2  0  0  0  0  0  0
  189.5610  176.1220  143.0750 C   0  0  2  0  0  3  0  0  0  0  0  0
  190.6480  175.9710  141.9990 C   0  0  1  0  0  3  0  0  0  0  0  0
  191.2920  177.2750  141.5330 C   0  0  0  0  0  2  0  0  0  0  0  0
  191.5390  177.2410  140.0320 C   0  0  0  0  0  2  0  0  0  0  0  0
  190.3760  176.5910  139.3000 C   0  0  0  0  0  3  0  0  0  0  0  0
  189.7980  177.5200  138.4350 O   0  0  0  0  0  1  0  0  0  0  0  0
  190.8290  175.4960  138.5650 O   0  0  0  0  0  1  0  0  0  0  0  0
  1  4  1  6  0  0  0
  1  9  1  0  0  0  0
  1 10  1  0  0  0  0
  2  3  1  0  0  0  0
  3  6  2  0  0  0  0
  5  6  1  0  0  0  0
  5 17  2  0  0  0  0
  7 14  1  0  0  0  0
  8 15  1  1  0  0  0
  9 19  1  0  0  0  0
 10 16  2  0  0  0  0
 11  8  1  0  0  0  0
 11 10  1  0  0  0  0
 12 17  1  0  0  0  0
 13 11  1  0  0  0  0
 14 12  2  0  0  0  0
 15 20  2  0  0  0  0
 15  3  1  0  0  0  0
 16 20  1  0  0  0  0
 16 14  1  0  0  0  0
 18 13  1  0  0  0  0
 18  4  1  0  0  0  0
 19  7  1  0  0  0  0
 20  5  1  0  0  0  0
 22  8  1  0  0  0  0
 22 21  1  1  0  0  0
 23 24  1  1  0  0  0
 23 22  1  0  0  0  0
 23 21  1  0  0  0  0
 25 24  1  0  0  0  0
 26 25  1  0  0  0  0
 27 26  1  0  0  0  0
 28 26  1  0  0  0  0
M  END
>  <MODEL>
2

>  <REMARK>
 VINA RESULT:      -9.4      1.750      2.411
  Name = 
  4 active torsions:
  status: ('A' for Active; 'I' for Inactive)
    1  A    between atoms: C_7  and  C_11
    2  A    between atoms: C_8  and  C_14
    3  A    between atoms: C_8  and  C_22
    4  A    between atoms: C_14  and  C_18
                            x       y       z     vdW  Elec       q    Type
                         _______ _______ _______ _____ _____    ______ ____

>  <TORSDO>
F 4

$$$$
=
 OpenBabel11062416483D

 28 33  0  0  1  0  0  0  0  0999 V2000
  185.7040  178.8980  145.8480 C   0  0  2  0  0  3  0  0  0  0  0  0
  190.2400  176.6420  141.2180 N   0  0  0  0  0  1  0  0  0  0  0  0
  188.9940  177.2920  141.4380 C   0  0  0  0  0  0  0  0  0  0  0  0
  186.2330  178.6640  147.2590 C   0  0  0  0  0  2  0  0  0  0  0  0
  187.0630  178.1680  141.1580 C   0  0  0  0  0  0  0  0  0  0  0  0
  188.1650  177.5730  140.4750 N   0  0  0  0  0  0  0  0  0  0  0  0
  184.0940  179.8120  143.7680 C   0  0  0  0  0  2  0  0  0  0  0  0
  189.0420  177.6530  144.1330 C   0  0  1  0  0  3  0  0  0  0  0  0
  184.4230  178.0950  145.6460 C   0  0  0  0  0  2  0  0  0  0  0  0
  186.7120  178.5710  144.7560 C   0  0  0  0  0  0  0  0  0  0  0  0
  187.9970  177.9730  145.1330 N   0  0  0  0  0  0  0  0  0  0  0  0
  184.9250  179.1750  141.5140 C   0  0  0  0  0  3  0  0  0  0  0  0
  188.3700  177.8750  146.4910 N   0  0  0  0  0  2  0  0  0  0  0  0
  185.1600  179.2010  142.9100 C   0  0  0  0  0  0  0  0  0  0  0  0
  188.4620  177.6810  142.7520 C   0  0  0  0  0  0  0  0  0  0  0  0
  186.3880  178.6890  143.4370 C   0  0  0  0  0  0  0  0  0  0  0  0
  185.8770  178.6490  140.6200 C   0  0  0  0  0  3  0  0  0  0  0  0
  187.2090  177.5040  147.2850 C   0  0  0  0  0  2  0  0  0  0  0  0
  183.4420  178.7830  144.6910 C   0  0  0  0  0  2  0  0  0  0  0  0
  187.2930  178.2040  142.5020 C   0  0  0  0  0  0  0  0  0  0  0  0
  191.4220  178.2210  143.5050 C   0  0  0  0  0  2  0  0  0  0  0  0
  190.1780  178.6810  144.2420 C   0  0  2  0  0  3  0  0  0  0  0  0
  191.4130  178.1980  145.0180 C   0  0  1  0  0  3  0  0  0  0  0  0
  191.3660  176.7450  145.4850 C   0  0  0  0  0  2  0  0  0  0  0  0
  191.2630  176.6740  147.0010 C   0  0  0  0  0  2  0  0  0  0  0  0
  192.1160  175.5440  147.5550 C   0  0  0  0  0  3  0  0  0  0  0  0
  192.7220  174.8630  146.5000 O   0  0  0  0  0  1  0  0  0  0  0  0
  193.1000  176.0600  148.3980 O   0  0  0  0  0  1  0  0  0  0  0  0
  1  9  1  6  0  0  0
  1  4  1  0  0  0  0
  2  3  1  0  0  0  0
  3 15  1  0  0  0  0
  4 18  1  0  0  0  0
  5 20  1  0  0  0  0
  6  5  1  0  0  0  0
  6  3  2  0  0  0  0
  7 19  1  0  0  0  0
  8 15  1  6  0  0  0
  8 22  1  0  0  0  0
  8 11  1  0  0  0  0
 10 11  1  0  0  0  0
 10  1  1  0  0  0  0
 11 13  1  0  0  0  0
 12 14  2  0  0  0  0
 13 18  1  0  0  0  0
 14 16  1  0  0  0  0
 14  7  1  0  0  0  0
 16 10  2  0  0  0  0
 17  5  2  0  0  0  0
 17 12  1  0  0  0  0
 19  9  1  0  0  0  0
 20 15  2  0  0  0  0
 20 16  1  0  0  0  0
 21 23  1  0  0  0  0
 22 21  1  6  0  0  0
 22 23  1  0  0  0  0
 23 24  1  6  0  0  0
 24 25  1  0  0  0  0
 25 26  1  0  0  0  0
 26 28  1  0  0  0  0
 27 26  1  0  0  0  0
M  END
>  <MODEL>
3

>  <REMARK>
 VINA RESULT:      -8.9      3.644      5.905
  Name = 
  4 active torsions:
  status: ('A' for Active; 'I' for Inactive)
    1  A    between atoms: C_7  and  C_11
    2  A    between atoms: C_8  and  C_14
    3  A    between atoms: C_8  and  C_22
    4  A    between atoms: C_14  and  C_18
                            x       y       z     vdW  Elec       q    Type
                         _______ _______ _______ _____ _____    ______ ____

>  <TORSDO>
F 4

$$$$
=
 OpenBabel11062416483D

 28 33  0  0  1  0  0  0  0  0999 V2000
  189.6770  177.5250  146.0780 C   0  0  2  0  0  3  0  0  0  0  0  0
  184.7040  177.7340  141.3530 N   0  0  0  0  0  1  0  0  0  0  0  0
  185.0600  177.9660  142.7110 C   0  0  0  0  0  0  0  0  0  0  0  0
  190.9920  177.0940  145.4370 C   0  0  0  0  0  2  0  0  0  0  0  0
  184.9780  178.3540  144.8120 C   0  0  0  0  0  0  0  0  0  0  0  0
  184.1850  178.2530  143.6300 N   0  0  0  0  0  0  0  0  0  0  0  0
  187.8680  178.4780  147.9670 C   0  0  0  0  0  2  0  0  0  0  0  0
  187.7600  177.6480  142.6220 C   0  0  1  0  0  3  0  0  0  0  0  0
  189.2580  176.4940  147.1220 C   0  0  0  0  0  2  0  0  0  0  0  0
  188.5550  177.7500  145.0750 C   0  0  0  0  0  0  0  0  0  0  0  0
  188.7900  177.4290  143.6630 N   0  0  0  0  0  0  0  0  0  0  0  0
  185.5400  178.6560  147.1150 C   0  0  0  0  0  3  0  0  0  0  0  0
  190.0850  177.0980  143.2110 N   0  0  0  0  0  2  0  0  0  0  0  0
  186.9020  178.3950  146.8260 C   0  0  0  0  0  0  0  0  0  0  0  0
  186.4200  177.8660  143.2590 C   0  0  0  0  0  0  0  0  0  0  0  0
  187.3030  178.1030  145.4840 C   0  0  0  0  0  0  0  0  0  0  0  0
  184.5580  178.6320  146.1070 C   0  0  0  0  0  3  0  0  0  0  0  0
  190.7410  176.2550  144.1990 C   0  0  0  0  0  2  0  0  0  0  0  0
  188.4910  177.1210  148.2910 C   0  0  0  0  0  2  0  0  0  0  0  0
  186.2910  178.1150  144.5320 C   0  0  0  0  0  0  0  0  0  0  0  0
  187.4130  178.8900  140.4500 C   0  0  0  0  0  2  0  0  0  0  0  0
  188.1430  178.8740  141.7800 C   0  0  2  0  0  3  0  0  0  0  0  0
  188.8880  178.5530  140.4750 C   0  0  1  0  0  3  0  0  0  0  0  0
  189.0560  177.0680  140.1660 C   0  0  0  0  0  2  0  0  0  0  0  0
  190.4660  176.7800  139.6750 C   0  0  0  0  0  2  0  0  0  0  0  0
  190.4480  176.1630  138.2860 C   0  0  0  0  0  3  0  0  0  0  0  0
  190.9870  174.8790  138.3430 O   0  0  0  0  0  1  0  0  0  0  0  0
  189.1370  176.0930  137.8140 O   0  0  0  0  0  1  0  0  0  0  0  0
  1  4  1  6  0  0  0
  1  9  1  0  0  0  0
  2  3  1  0  0  0  0
  3 15  1  0  0  0  0
  3  6  2  0  0  0  0
  5 17  2  0  0  0  0
  6  5  1  0  0  0  0
  7 19  1  0  0  0  0
  8 15  1  1  0  0  0
  8 11  1  0  0  0  0
  9 19  1  0  0  0  0
 10 16  2  0  0  0  0
 10  1  1  0  0  0  0
 11 10  1  0  0  0  0
 13 11  1  0  0  0  0
 13 18  1  0  0  0  0
 14 12  2  0  0  0  0
 14  7  1  0  0  0  0
 15 20  2  0  0  0  0
 16 14  1  0  0  0  0
 17 12  1  0  0  0  0
 18  4  1  0  0  0  0
 20  5  1  0  0  0  0
 20 16  1  0  0  0  0
 21 23  1  0  0  0  0
 22 21  1  6  0  0  0
 22  8  1  0  0  0  0
 23 24  1  1  0  0  0
 23 22  1  0  0  0  0
 25 24  1  0  0  0  0
 26 27  1  0  0  0  0
 26 25  1  0  0  0  0
 28 26  1  0  0  0  0
M  END
>  <MODEL>
4

>  <REMARK>
 VINA RESULT:      -8.8      1.753      4.326
  Name = 
  4 active torsions:
  status: ('A' for Active; 'I' for Inactive)
    1  A    between atoms: C_7  and  C_11
    2  A    between atoms: C_8  and  C_14
    3  A    between atoms: C_8  and  C_22
    4  A    between atoms: C_14  and  C_18
                            x       y       z     vdW  Elec       q    Type
                         _______ _______ _______ _____ _____    ______ ____

>  <TORSDO>
F 4

$$$$
=
 OpenBabel11062416483D

 28 33  0  0  1  0  0  0  0  0999 V2000
  185.5830  178.1640  139.9050 C   0  0  2  0  0  3  0  0  0  0  0  0
  185.6810  179.2020  146.6890 N   0  0  0  0  0  1  0  0  0  0  0  0
  184.8780  179.0180  145.5290 C   0  0  0  0  0  0  0  0  0  0  0  0
  187.0060  178.0180  139.3760 C   0  0  0  0  0  2  0  0  0  0  0  0
  183.2260  178.9320  144.1750 C   0  0  0  0  0  0  0  0  0  0  0  0
  183.5860  179.1730  145.5330 N   0  0  0  0  0  0  0  0  0  0  0  0
  182.8000  178.1500  139.9880 C   0  0  0  0  0  2  0  0  0  0  0  0
  186.7510  178.3350  143.6790 C   0  0  1  0  0  3  0  0  0  0  0  0
  184.9300  179.3910  139.2760 C   0  0  0  0  0  2  0  0  0  0  0  0
  185.5020  178.2410  141.4230 C   0  0  0  0  0  0  0  0  0  0  0  0
  186.7460  178.2900  142.1980 N   0  0  0  0  0  0  0  0  0  0  0  0
  181.8670  178.7190  142.2190 C   0  0  0  0  0  3  0  0  0  0  0  0
  187.9910  178.0800  141.5680 N   0  0  0  0  0  2  0  0  0  0  0  0
  183.0170  178.4400  141.4410 C   0  0  0  0  0  0  0  0  0  0  0  0
  185.3870  178.6870  144.1900 C   0  0  0  0  0  0  0  0  0  0  0  0
  184.3070  178.4100  142.0580 C   0  0  0  0  0  0  0  0  0  0  0  0
  181.9620  178.9770  143.6000 C   0  0  0  0  0  3  0  0  0  0  0  0
  187.9930  178.7410  140.2720 C   0  0  0  0  0  2  0  0  0  0  0  0
  183.4180  179.2220  139.0910 C   0  0  0  0  0  2  0  0  0  0  0  0
  184.3310  178.6510  143.4260 C   0  0  0  0  0  0  0  0  0  0  0  0
  187.4990  177.0290  145.7070 C   0  0  0  0  0  2  0  0  0  0  0  0
  187.1760  176.9640  144.2260 C   0  0  2  0  0  3  0  0  0  0  0  0
  188.6310  176.8860  144.7120 C   0  0  1  0  0  3  0  0  0  0  0  0
  189.4080  178.1990  144.6650 C   0  0  0  0  0  2  0  0  0  0  0  0
  190.9040  177.9330  144.5940 C   0  0  0  0  0  2  0  0  0  0  0  0
  191.2490  176.5800  145.1950 C   0  0  0  0  0  3  0  0  0  0  0  0
  191.9320  175.8160  144.2500 O   0  0  0  0  0  1  0  0  0  0  0  0
  192.0550  176.7520  146.3210 O   0  0  0  0  0  1  0  0  0  0  0  0
  1  9  1  6  0  0  0
  1 10  1  0  0  0  0
  3  6  2  0  0  0  0
  3  2  1  0  0  0  0
  4  1  1  0  0  0  0
  4 18  1  0  0  0  0
  5  6  1  0  0  0  0
  7 14  1  0  0  0  0
  8 15  1  1  0  0  0
  8 22  1  0  0  0  0
 10 16  2  0  0  0  0
 10 11  1  0  0  0  0
 11  8  1  0  0  0  0
 12 17  1  0  0  0  0
 13 11  1  0  0  0  0
 14 16  1  0  0  0  0
 14 12  2  0  0  0  0
 15  3  1  0  0  0  0
 16 20  1  0  0  0  0
 17  5  2  0  0  0  0
 18 13  1  0  0  0  0
 19  9  1  0  0  0  0
 19  7  1  0  0  0  0
 20  5  1  0  0  0  0
 20 15  2  0  0  0  0
 22 23  1  0  0  0  0
 22 21  1  1  0  0  0
 23 24  1  6  0  0  0
 23 21  1  0  0  0  0
 25 24  1  0  0  0  0
 25 26  1  0  0  0  0
 26 28  1  0  0  0  0
 27 26  1  0  0  0  0
M  END
>  <MODEL>
5

>  <REMARK>
 VINA RESULT:      -8.6      3.323      6.159
  Name = 
  4 active torsions:
  status: ('A' for Active; 'I' for Inactive)
    1  A    between atoms: C_7  and  C_11
    2  A    between atoms: C_8  and  C_14
    3  A    between atoms: C_8  and  C_22
    4  A    between atoms: C_14  and  C_18
                            x       y       z     vdW  Elec       q    Type
                         _______ _______ _______ _____ _____    ______ ____

>  <TORSDO>
F 4

$$$$
=
 OpenBabel11062416483D

 28 33  0  0  1  0  0  0  0  0999 V2000
  189.6460  177.1340  138.9100 C   0  0  2  0  0  3  0  0  0  0  0  0
  185.3140  179.5900  143.6340 N   0  0  0  0  0  1  0  0  0  0  0  0
  185.4930  179.1990  142.2770 C   0  0  0  0  0  0  0  0  0  0  0  0
  190.9930  176.8150  139.5480 C   0  0  0  0  0  2  0  0  0  0  0  0
  185.2130  178.9010  140.1790 C   0  0  0  0  0  0  0  0  0  0  0  0
  184.5950  179.4090  141.3590 N   0  0  0  0  0  0  0  0  0  0  0  0
  187.6000  177.2630  137.0250 C   0  0  0  0  0  2  0  0  0  0  0  0
  187.9580  178.0540  142.3650 C   0  0  1  0  0  3  0  0  0  0  0  0
  189.8270  178.2260  137.8600 C   0  0  0  0  0  2  0  0  0  0  0  0
  188.5750  177.5370  139.9130 C   0  0  0  0  0  0  0  0  0  0  0  0
  188.9470  177.6940  141.3230 N   0  0  0  0  0  0  0  0  0  0  0  0
  185.5280  178.3370  137.8770 C   0  0  0  0  0  3  0  0  0  0  0  0
  190.2240  177.2980  141.7750 N   0  0  0  0  0  2  0  0  0  0  0  0
  186.8240  177.8460  138.1660 C   0  0  0  0  0  0  0  0  0  0  0  0
  186.7010  178.5670  141.7290 C   0  0  0  0  0  0  0  0  0  0  0  0
  187.3230  177.8910  139.5060 C   0  0  0  0  0  0  0  0  0  0  0  0
  184.7070  178.8780  138.8850 C   0  0  0  0  0  3  0  0  0  0  0  0
  191.2220  177.6670  140.7820 C   0  0  0  0  0  2  0  0  0  0  0  0
  188.8420  178.0900  136.6940 C   0  0  0  0  0  2  0  0  0  0  0  0
  186.4580  178.4170  140.4570 C   0  0  0  0  0  0  0  0  0  0  0  0
  186.8660  177.1750  144.4670 C   0  0  0  0  0  2  0  0  0  0  0  0
  187.6430  176.8130  143.2150 C   0  0  2  0  0  3  0  0  0  0  0  0
  188.3230  176.7850  144.5920 C   0  0  1  0  0  3  0  0  0  0  0  0
  189.1330  178.0290  144.9470 C   0  0  0  0  0  2  0  0  0  0  0  0
  190.5520  177.6480  145.3420 C   0  0  0  0  0  2  0  0  0  0  0  0
  190.5700  176.8900  146.6590 C   0  0  0  0  0  3  0  0  0  0  0  0
  191.8830  176.7930  147.1180 O   0  0  0  0  0  1  0  0  0  0  0  0
  189.7990  177.5650  147.6060 O   0  0  0  0  0  1  0  0  0  0  0  0
  1  9  1  6  0  0  0
  1  4  1  0  0  0  0
  1 10  1  0  0  0  0
  3  2  1  0  0  0  0
  4 18  1  0  0  0  0
  5 20  1  0  0  0  0
  5  6  1  0  0  0  0
  6  3  2  0  0  0  0
  7 14  1  0  0  0  0
  8 15  1  6  0  0  0
  8 22  1  0  0  0  0
 10 11  1  0  0  0  0
 11 13  1  0  0  0  0
 11  8  1  0  0  0  0
 12 14  2  0  0  0  0
 12 17  1  0  0  0  0
 14 16  1  0  0  0  0
 15  3  1  0  0  0  0
 16 10  2  0  0  0  0
 16 20  1  0  0  0  0
 17  5  2  0  0  0  0
 18 13  1  0  0  0  0
 19  7  1  0  0  0  0
 19  9  1  0  0  0  0
 20 15  2  0  0  0  0
 21 23  1  0  0  0  0
 22 21  1  1  0  0  0
 22 23  1  0  0  0  0
 23 24  1  6  0  0  0
 24 25  1  0  0  0  0
 25 26  1  0  0  0  0
 26 27  1  0  0  0  0
 26 28  1  0  0  0  0
M  END
>  <MODEL>
6

>  <REMARK>
 VINA RESULT:      -8.2      3.396      7.154
  Name = 
  4 active torsions:
  status: ('A' for Active; 'I' for Inactive)
    1  A    between atoms: C_7  and  C_11
    2  A    between atoms: C_8  and  C_14
    3  A    between atoms: C_8  and  C_22
    4  A    between atoms: C_14  and  C_18
                            x       y       z     vdW  Elec       q    Type
                         _______ _______ _______ _____ _____    ______ ____

>  <TORSDO>
F 4

$$$$
=
 OpenBabel11062416483D

 28 33  0  0  1  0  0  0  0  0999 V2000
  190.2930  177.3010  143.1060 C   0  0  2  0  0  3  0  0  0  0  0  0
  184.2250  177.9750  146.2410 N   0  0  0  0  0  1  0  0  0  0  0  0
  185.6370  177.9010  146.3950 C   0  0  0  0  0  0  0  0  0  0  0  0
  190.1000  177.2460  141.5940 C   0  0  0  0  0  2  0  0  0  0  0  0
  187.6000  177.7240  147.2230 C   0  0  0  0  0  0  0  0  0  0  0  0
  186.2170  177.8120  147.5560 N   0  0  0  0  0  0  0  0  0  0  0  0
  191.5480  177.4620  145.5860 C   0  0  0  0  0  2  0  0  0  0  0  0
  186.4680  178.0180  143.8080 C   0  0  1  0  0  3  0  0  0  0  0  0
  190.9010  175.9880  143.5890 C   0  0  0  0  0  2  0  0  0  0  0  0
  189.0150  177.6070  143.8740 C   0  0  0  0  0  0  0  0  0  0  0  0
  187.7490  177.6950  143.1380 N   0  0  0  0  0  0  0  0  0  0  0  0
  189.9650  177.5070  147.5020 C   0  0  0  0  0  3  0  0  0  0  0  0
  187.7390  177.6860  141.7270 N   0  0  0  0  0  2  0  0  0  0  0  0
  190.1410  177.5320  146.0970 C   0  0  0  0  0  0  0  0  0  0  0  0
  186.6090  177.8670  145.2920 C   0  0  0  0  0  0  0  0  0  0  0  0
  189.0040  177.6550  145.2360 C   0  0  0  0  0  0  0  0  0  0  0  0
  188.6850  177.5960  148.0820 C   0  0  0  0  0  3  0  0  0  0  0  0
  188.7190  176.7240  141.2450 C   0  0  0  0  0  2  0  0  0  0  0  0
  191.8110  176.1750  144.8070 C   0  0  0  0  0  2  0  0  0  0  0  0
  187.7730  177.7600  145.8700 C   0  0  0  0  0  0  0  0  0  0  0  0
  184.6670  179.7840  143.9530 C   0  0  0  0  0  2  0  0  0  0  0  0
  186.0680  179.4620  143.4670 C   0  0  2  0  0  3  0  0  0  0  0  0
  184.9050  179.5900  142.4700 C   0  0  1  0  0  3  0  0  0  0  0  0
  184.2630  178.2730  142.0410 C   0  0  0  0  0  2  0  0  0  0  0  0
  184.0480  178.2500  140.5350 C   0  0  0  0  0  2  0  0  0  0  0  0
  184.9770  179.2280  139.8330 C   0  0  0  0  0  3  0  0  0  0  0  0
  185.8260  178.5260  138.9790 O   0  0  0  0  0  1  0  0  0  0  0  0
  184.2310  180.1440  139.0920 O   0  0  0  0  0  1  0  0  0  0  0  0
  1  4  1  6  0  0  0
  1  9  1  0  0  0  0
  1 10  1  0  0  0  0
  2  3  1  0  0  0  0
  3  6  2  0  0  0  0
  5  6  1  0  0  0  0
  5 17  2  0  0  0  0
  7 14  1  0  0  0  0
  8 15  1  1  0  0  0
  9 19  1  0  0  0  0
 10 16  2  0  0  0  0
 11  8  1  0  0  0  0
 11 10  1  0  0  0  0
 12 17  1  0  0  0  0
 13 11  1  0  0  0  0
 14 12  2  0  0  0  0
 15 20  2  0  0  0  0
 15  3  1  0  0  0  0
 16 20  1  0  0  0  0
 16 14  1  0  0  0  0
 18  4  1  0  0  0  0
 18 13  1  0  0  0  0
 19  7  1  0  0  0  0
 20  5  1  0  0  0  0
 22  8  1  0  0  0  0
 22 21  1  1  0  0  0
 23 24  1  1  0  0  0
 23 22  1  0  0  0  0
 23 21  1  0  0  0  0
 25 24  1  0  0  0  0
 26 25  1  0  0  0  0
 27 26  1  0  0  0  0
 28 26  1  0  0  0  0
M  END
>  <MODEL>
7

>  <REMARK>
 VINA RESULT:      -8.2      1.958      4.757
  Name = 
  4 active torsions:
  status: ('A' for Active; 'I' for Inactive)
    1  A    between atoms: C_7  and  C_11
    2  A    between atoms: C_8  and  C_14
    3  A    between atoms: C_8  and  C_22
    4  A    between atoms: C_14  and  C_18
                            x       y       z     vdW  Elec       q    Type
                         _______ _______ _______ _____ _____    ______ ____

>  <TORSDO>
F 4

$$$$
=
 OpenBabel11062416483D

 28 33  0  0  1  0  0  0  0  0999 V2000
  185.1170  178.7820  142.8610 C   0  0  2  0  0  3  0  0  0  0  0  0
  191.1840  176.3830  140.7290 N   0  0  0  0  0  1  0  0  0  0  0  0
  189.9430  176.9690  140.3550 C   0  0  0  0  0  0  0  0  0  0  0  0
  185.0340  178.7230  144.3820 C   0  0  0  0  0  2  0  0  0  0  0  0
  188.2730  177.6830  139.2260 C   0  0  0  0  0  0  0  0  0  0  0  0
  189.5690  177.0980  139.1150 N   0  0  0  0  0  0  0  0  0  0  0  0
  184.4690  179.3780  140.2190 C   0  0  0  0  0  2  0  0  0  0  0  0
  188.8880  177.5960  142.7820 C   0  0  1  0  0  3  0  0  0  0  0  0
  184.0440  177.8800  142.2580 C   0  0  0  0  0  2  0  0  0  0  0  0
  186.4870  178.4160  142.3100 C   0  0  0  0  0  0  0  0  0  0  0  0
  187.5220  177.9430  143.2360 N   0  0  0  0  0  0  0  0  0  0  0  0
  186.1540  178.5780  138.5760 C   0  0  0  0  0  3  0  0  0  0  0  0
  187.3150  178.0050  144.6300 N   0  0  0  0  0  2  0  0  0  0  0  0
  185.8030  178.7570  139.9370 C   0  0  0  0  0  0  0  0  0  0  0  0
  188.9160  177.4500  141.2910 C   0  0  0  0  0  0  0  0  0  0  0  0
  186.7220  178.3810  140.9670 C   0  0  0  0  0  0  0  0  0  0  0  0
  187.3970  178.0300  138.2060 C   0  0  0  0  0  3  0  0  0  0  0  0
  185.9400  177.6380  144.9310 C   0  0  0  0  0  2  0  0  0  0  0  0
  183.5200  178.4040  140.9180 C   0  0  0  0  0  2  0  0  0  0  0  0
  187.9380  177.8670  140.5360 C   0  0  0  0  0  0  0  0  0  0  0  0
  191.3060  178.2500  143.1090 C   0  0  0  0  0  2  0  0  0  0  0  0
  189.8620  178.7020  143.2150 C   0  0  2  0  0  3  0  0  0  0  0  0
  190.6770  178.3860  144.4790 C   0  0  1  0  0  3  0  0  0  0  0  0
  190.4670  176.9900  145.0610 C   0  0  0  0  0  2  0  0  0  0  0  0
  191.6820  176.5590  145.8670 C   0  0  0  0  0  2  0  0  0  0  0  0
  191.3100  176.2850  147.3150 C   0  0  0  0  0  3  0  0  0  0  0  0
  192.4290  176.4790  148.1240 O   0  0  0  0  0  1  0  0  0  0  0  0
  190.2940  177.1520  147.7170 O   0  0  0  0  0  1  0  0  0  0  0  0
  1  9  1  6  0  0  0
  1  4  1  0  0  0  0
  3  2  1  0  0  0  0
  3 15  1  0  0  0  0
  4 18  1  0  0  0  0
  5 20  1  0  0  0  0
  6  5  1  0  0  0  0
  6  3  2  0  0  0  0
  7 19  1  0  0  0  0
  8 15  1  6  0  0  0
  8 22  1  0  0  0  0
  8 11  1  0  0  0  0
 10  1  1  0  0  0  0
 10 11  1  0  0  0  0
 11 13  1  0  0  0  0
 12 14  2  0  0  0  0
 13 18  1  0  0  0  0
 14  7  1  0  0  0  0
 14 16  1  0  0  0  0
 16 10  2  0  0  0  0
 17 12  1  0  0  0  0
 17  5  2  0  0  0  0
 19  9  1  0  0  0  0
 20 16  1  0  0  0  0
 20 15  2  0  0  0  0
 21 23  1  0  0  0  0
 22 21  1  6  0  0  0
 22 23  1  0  0  0  0
 23 24  1  6  0  0  0
 24 25  1  0  0  0  0
 25 26  1  0  0  0  0
 26 28  1  0  0  0  0
 26 27  1  0  0  0  0
M  END
>  <MODEL>
8

>  <REMARK>
 VINA RESULT:      -8.0      3.468      5.996
  Name = 
  4 active torsions:
  status: ('A' for Active; 'I' for Inactive)
    1  A    between atoms: C_7  and  C_11
    2  A    between atoms: C_8  and  C_14
    3  A    between atoms: C_8  and  C_22
    4  A    between atoms: C_14  and  C_18
                            x       y       z     vdW  Elec       q    Type
                         _______ _______ _______ _____ _____    ______ ____

>  <TORSDO>
F 4

$$$$
=
 OpenBabel11062416483D

 28 33  0  0  1  0  0  0  0  0999 V2000
  191.0230  176.6050  141.8900 C   0  0  2  0  0  3  0  0  0  0  0  0
  184.9550  179.7520  142.5010 N   0  0  0  0  0  1  0  0  0  0  0  0
  185.8860  179.1330  141.6220 C   0  0  0  0  0  0  0  0  0  0  0  0
  191.6670  176.4340  143.2620 C   0  0  0  0  0  2  0  0  0  0  0  0
  186.9180  178.4630  139.8730 C   0  0  0  0  0  0  0  0  0  0  0  0
  185.7580  179.1570  140.3270 N   0  0  0  0  0  0  0  0  0  0  0  0
  190.5720  176.3520  139.1540 C   0  0  0  0  0  2  0  0  0  0  0  0
  187.6710  178.0780  143.3820 C   0  0  1  0  0  3  0  0  0  0  0  0
  191.9040  177.4990  141.0230 C   0  0  0  0  0  2  0  0  0  0  0  0
  189.6050  177.1530  141.9450 C   0  0  0  0  0  0  0  0  0  0  0  0
  189.0530  177.5640  143.2410 N   0  0  0  0  0  0  0  0  0  0  0  0
  188.5170  177.5110  138.3730 C   0  0  0  0  0  3  0  0  0  0  0  0
  189.7490  177.2840  144.4360 N   0  0  0  0  0  2  0  0  0  0  0  0
  189.3180  177.1090  139.4690 C   0  0  0  0  0  0  0  0  0  0  0  0
  187.1150  178.4420  142.0390 C   0  0  0  0  0  0  0  0  0  0  0  0
  188.8990  177.4000  140.8060 C   0  0  0  0  0  0  0  0  0  0  0  0
  187.3060  178.2020  138.5650 C   0  0  0  0  0  3  0  0  0  0  0  0
  191.1730  177.4950  144.2260 C   0  0  0  0  0  2  0  0  0  0  0  0
  191.8270  177.1370  139.5360 C   0  0  0  0  0  2  0  0  0  0  0  0
  187.6850  178.0650  140.9280 C   0  0  0  0  0  0  0  0  0  0  0  0
  185.4800  177.5730  144.5320 C   0  0  0  0  0  2  0  0  0  0  0  0
  186.7930  177.0000  144.0340 C   0  0  2  0  0  3  0  0  0  0  0  0
  186.5450  177.1920  145.5390 C   0  0  1  0  0  3  0  0  0  0  0  0
  187.1280  178.4690  146.1390 C   0  0  0  0  0  2  0  0  0  0  0  0
  187.5290  178.2430  147.5890 C   0  0  0  0  0  2  0  0  0  0  0  0
  189.0070  177.9060  147.7030 C   0  0  0  0  0  3  0  0  0  0  0  0
  189.5060  178.4150  148.9010 O   0  0  0  0  0  1  0  0  0  0  0  0
  189.1820  176.5220  147.6800 O   0  0  0  0  0  1  0  0  0  0  0  0
  1  9  1  6  0  0  0
  1 10  1  0  0  0  0
  1  4  1  0  0  0  0
  3 15  1  0  0  0  0
  3  2  1  0  0  0  0
  4 18  1  0  0  0  0
  5  6  1  0  0  0  0
  5 20  1  0  0  0  0
  6  3  2  0  0  0  0
  7 14  1  0  0  0  0
  7 19  1  0  0  0  0
  8 15  1  6  0  0  0
  8 22  1  0  0  0  0
 10 11  1  0  0  0  0
 11  8  1  0  0  0  0
 11 13  1  0  0  0  0
 12 17  1  0  0  0  0
 12 14  2  0  0  0  0
 14 16  1  0  0  0  0
 16 20  1  0  0  0  0
 16 10  2  0  0  0  0
 17  5  2  0  0  0  0
 18 13  1  0  0  0  0
 19  9  1  0  0  0  0
 20 15  2  0  0  0  0
 21 23  1  0  0  0  0
 22 21  1  6  0  0  0
 22 23  1  0  0  0  0
 23 24  1  6  0  0  0
 24 25  1  0  0  0  0
 25 26  1  0  0  0  0
 26 27  1  0  0  0  0
 28 26  1  0  0  0  0
M  END
>  <MODEL>
9

>  <REMARK>
 VINA RESULT:      -7.8      3.285      7.186
  Name = 
  4 active torsions:
  status: ('A' for Active; 'I' for Inactive)
    1  A    between atoms: C_7  and  C_11
    2  A    between atoms: C_8  and  C_14
    3  A    between atoms: C_8  and  C_22
    4  A    between atoms: C_14  and  C_18
                            x       y       z     vdW  Elec       q    Type
                         _______ _______ _______ _____ _____    ______ ____

>  <TORSDO>
F 4

$$$$
