=
 OpenBabel11062417373D

 57 66  0  0  1  0  0  0  0  0999 V2000
  181.0110  176.6060  137.2110 C   0  0  2  0  0  3  0  0  0  0  0  0
  183.5730  174.0660  134.8430 C   0  0  0  0  0  2  0  0  0  0  0  0
  184.4830  177.1320  136.0650 C   0  0  1  0  0  3  0  0  0  0  0  0
  186.6840  173.7520  135.8900 C   0  0  1  0  0  3  0  0  0  0  0  0
  181.4980  175.7410  138.3670 C   0  0  2  0  0  3  0  0  0  0  0  0
  182.9530  171.4960  137.3420 O   0  0  0  0  0  1  0  0  0  0  0  0
  184.4950  173.5820  138.3040 O   0  0  0  0  0  0  0  0  0  0  0  0
  184.3360  176.3130  137.2110 O   0  0  0  0  0  0  0  0  0  0  0  0
  186.4890  178.0710  137.0550 C   0  0  2  0  0  3  0  0  0  0  0  0
  183.7900  172.2260  136.4930 C   0  0  2  0  0  0  0  0  0  0  0  0
  184.4140  171.2440  135.5080 C   0  0  0  0  0  1  0  0  0  0  0  0
  180.8570  174.3400  136.5930 C   0  0  1  0  0  3  0  0  0  0  0  0
  179.7110  174.7730  139.5430 C   0  0  1  0  0  3  0  0  0  0  0  0
  185.4620  178.1850  138.0130 O   0  0  0  0  0  0  0  0  0  0  0  0
  186.9910  179.3350  136.7560 O   0  0  0  0  0  1  0  0  0  0  0  0
  186.7210  176.1940  135.3290 C   0  0  2  0  0  3  0  0  0  0  0  0
  181.4770  173.2190  135.7580 C   0  0  0  0  0  2  0  0  0  0  0  0
  181.3660  174.3360  137.9660 N   0  0  2  0  0  0  0  0  0  0  0  0
  184.2930  177.7010  137.4070 C   0  0  1  0  0  0  0  0  0  0  0  0
  186.3110  172.8180  137.0320 C   0  0  0  0  0  2  0  0  0  0  0  0
  184.8440  172.9140  137.3420 C   0  0  0  0  0  0  0  0  0  0  0  0
  182.9800  173.2540  135.7240 C   0  0  0  0  0  0  0  0  0  0  0  0
  180.6280  175.9570  139.5750 C   0  0  0  0  0  2  0  0  0  0  0  0
  182.9430  178.1840  137.9360 C   0  0  0  0  0  2  0  0  0  0  0  0
  185.9330  177.4260  135.7920 C   0  0  1  0  0  3  0  0  0  0  0  0
  181.0830  175.7130  136.0050 C   0  0  0  0  0  2  0  0  0  0  0  0
  186.9130  175.1560  136.4320 C   0  0  0  0  0  2  0  0  0  0  0  0
  187.9660  176.5870  134.8330 O   0  0  0  0  0  1  0  0  0  0  0  0
  180.3820  173.7290  138.7770 N   0  0  0  0  0  2  0  0  0  0  0  0
  181.7690  177.9230  136.9780 C   0  0  2  0  0  3  0  0  0  0  0  0
  180.6060  181.5850  136.6200 C   0  0  0  0  0  2  0  0  0  0  0  0
  180.2820  180.7710  140.2970 O   0  0  0  0  0  1  0  0  0  0  0  0
  180.7740  180.6050  139.0000 C   0  0  2  0  0  3  0  0  0  0  0  0
  180.5630  181.8680  138.1330 C   0  0  2  0  0  3  0  0  0  0  0  0
  180.7820  179.0910  136.9610 C   0  0  1  0  0  3  0  0  0  0  0  0
  180.1650  179.3640  138.3500 C   0  0  0  0  0  2  0  0  0  0  0  0
  181.4120  180.3300  136.3010 C   0  0  0  0  0  2  0  0  0  0  0  0
  179.2970  182.6510  138.4830 C   0  0  0  0  0  2  0  0  0  0  0  0
  179.4070  183.9820  138.0840 O   0  0  0  0  0  1  0  0  0  0  0  0
  179.4210  174.2990  140.9250 C   0  0  0  0  0  0  0  0  0  0  0  0
  179.7000  172.9890  141.2950 O   0  0  0  0  0  0  0  0  0  0  0  0
  178.9330  175.0960  141.7690 O   0  0  0  0  0  1  0  0  0  0  0  0
  189.1280  173.7700  135.8640 N   0  0  0  0  0  0  0  0  0  0  0  0
  187.9340  173.2280  135.1990 C   0  0  2  0  0  3  0  0  0  0  0  0
  188.6600  174.3400  134.5950 C   0  0  0  0  0  2  0  0  0  0  0  0
  190.2300  172.8880  135.5280 C   0  0  0  0  0  2  0  0  0  0  0  0
  191.3730  173.7020  134.9290 C   0  0  0  0  0  2  0  0  0  0  0  0
  192.4980  173.9480  135.9360 C   0  0  1  0  0  3  0  0  0  0  0  0
  194.8260  173.3420  136.6230 C   0  0  2  0  0  3  0  0  0  0  0  0
  193.9660  172.1150  136.7500 C   0  0  1  0  0  3  0  0  0  0  0  0
  193.7190  173.0940  135.6170 C   0  0  1  0  0  3  0  0  0  0  0  0
  195.4610  172.0090  136.9730 C   0  0  0  0  0  2  0  0  0  0  0  0
  192.8580  175.4400  135.9980 C   0  0  2  0  0  3  0  0  0  0  0  0
  193.5420  175.7810  137.3110 C   0  0  0  0  0  2  0  0  0  0  0  0
  192.1110  176.2460  137.0750 C   0  0  2  0  0  3  0  0  0  0  0  0
  191.1830  175.4250  137.9630 C   0  0  0  0  0  2  0  0  0  0  0  0
  190.0780  176.3100  138.4920 C   0  0  0  0  0  1  0  0  0  0  0  0
  1 26  1  6  0  0  0
  1  5  1  0  0  0  0
  2 22  2  0  0  0  0
  3  8  1  1  0  0  0
  3 19  1  0  0  0  0
  4 27  1  1  0  0  0
  4 20  1  0  0  0  0
  5 23  1  1  0  0  0
  8 19  1  0  0  0  0
  9 15  1  6  0  0  0
  9 14  1  0  0  0  0
 10 11  1  6  0  0  0
 10 21  1  0  0  0  0
 10  6  1  0  0  0  0
 12 17  1  6  0  0  0
 12 18  1  0  0  0  0
 13 23  1  0  0  0  0
 13 40  1  1  0  0  0
 16 28  1  1  0  0  0
 16 25  1  0  0  0  0
 16 27  1  0  0  0  0
 18  5  1  0  0  0  0
 18 29  1  1  0  0  0
 19 24  1  1  0  0  0
 19 14  1  0  0  0  0
 20 21  1  0  0  0  0
 21  7  2  0  0  0  0
 22 17  1  0  0  0  0
 22 10  1  0  0  0  0
 25  3  1  0  0  0  0
 25  9  1  0  0  0  0
 26 12  1  0  0  0  0
 29 13  1  0  0  0  0
 30  1  1  0  0  0  0
 30 24  1  0  0  0  0
 31 34  1  0  0  0  0
 33 32  1  0  0  0  0
 34 38  1  0  0  0  0
 34 33  1  0  0  0  0
 35 30  1  0  0  0  0
 35 36  1  0  0  0  0
 36 33  1  0  0  0  0
 37 31  1  0  0  0  0
 37 35  1  0  0  0  0
 39 38  1  0  0  0  0
 40 41  2  0  0  0  0
 40 42  1  0  0  0  0
 44 43  1  0  0  0  0
 44  4  1  0  0  0  0
 45 44  1  0  0  0  0
 45 43  1  0  0  0  0
 46 43  1  0  0  0  0
 47 46  1  0  0  0  0
 47 48  1  0  0  0  0
 48 53  1  0  0  0  0
 49 50  1  0  0  0  0
 49 52  1  0  0  0  0
 50 52  1  0  0  0  0
 51 48  1  0  0  0  0
 51 49  1  0  0  0  0
 51 50  1  0  0  0  0
 53 55  1  0  0  0  0
 53 54  1  0  0  0  0
 55 54  1  0  0  0  0
 55 56  1  0  0  0  0
 56 57  1  0  0  0  0
M  END
>  <MODEL>
1

>  <REMARK>
 VINA RESULT:      -6.4      0.000      0.000
  Name = 
  10 active torsions:
  status: ('A' for Active; 'I' for Inactive)
    1  A    between atoms: C_1  and  C_23
    2  A    between atoms: C_4  and  N_5
    3  A    between atoms: C_4  and  C_7
    4  A    between atoms: C_7  and  C_43
    5  A    between atoms: C_11  and  C_32
    6  A    between atoms: C_13  and  C_35
    7  A    between atoms: C_16  and  C_45
    8  A    between atoms: C_30  and  C_43
    9  A    between atoms: C_37  and  C_43
   10  A    between atoms: C_38  and  C_57
                            x       y       z     vdW  Elec       q    Type
                         _______ _______ _______ _____ _____    ______ ____

>  <TORSDO>
F 10

$$$$
=
 OpenBabel11062417373D

 57 66  0  0  1  0  0  0  0  0999 V2000
  181.0100  176.5680  137.0600 C   0  0  2  0  0  3  0  0  0  0  0  0
  183.6670  174.0510  134.7750 C   0  0  0  0  0  2  0  0  0  0  0  0
  184.5000  177.1390  135.9960 C   0  0  1  0  0  3  0  0  0  0  0  0
  186.7560  173.7930  135.9000 C   0  0  1  0  0  3  0  0  0  0  0  0
  181.4800  175.7190  138.2340 C   0  0  2  0  0  3  0  0  0  0  0  0
  183.0250  171.4890  137.2770 O   0  0  0  0  0  1  0  0  0  0  0  0
  184.5120  173.6070  138.2610 O   0  0  0  0  0  0  0  0  0  0  0  0
  184.3380  176.3260  137.1430 O   0  0  0  0  0  0  0  0  0  0  0  0
  186.4660  178.1160  137.0270 C   0  0  2  0  0  3  0  0  0  0  0  0
  183.8720  172.2270  136.4430 C   0  0  2  0  0  0  0  0  0  0  0  0
  184.5350  171.2470  135.4810 C   0  0  0  0  0  1  0  0  0  0  0  0
  180.9060  174.2950  136.4550 C   0  0  1  0  0  3  0  0  0  0  0  0
  179.6800  174.7310  139.3720 C   0  0  1  0  0  3  0  0  0  0  0  0
  185.4140  178.2210  137.9590 O   0  0  0  0  0  0  0  0  0  0  0  0
  186.9560  179.3860  136.7310 O   0  0  0  0  0  1  0  0  0  0  0  0
  186.7700  176.2310  135.3220 C   0  0  2  0  0  3  0  0  0  0  0  0
  181.5640  173.1780  135.6440 C   0  0  0  0  0  2  0  0  0  0  0  0
  181.3800  174.3090  137.8400 N   0  0  2  0  0  0  0  0  0  0  0  0
  184.2680  177.7150  137.3280 C   0  0  1  0  0  0  0  0  0  0  0  0
  186.3700  172.8610  137.0400 C   0  0  0  0  0  2  0  0  0  0  0  0
  184.8940  172.9360  137.3130 C   0  0  0  0  0  0  0  0  0  0  0  0
  183.0660  173.2360  135.6470 C   0  0  0  0  0  0  0  0  0  0  0  0
  180.5780  175.9300  139.4180 C   0  0  0  0  0  2  0  0  0  0  0  0
  182.8990  178.1810  137.8200 C   0  0  0  0  0  2  0  0  0  0  0  0
  185.9520  177.4540  135.7560 C   0  0  1  0  0  3  0  0  0  0  0  0
  181.1250  175.6670  135.8620 C   0  0  0  0  0  2  0  0  0  0  0  0
  186.9500  175.2040  136.4370 C   0  0  0  0  0  2  0  0  0  0  0  0
  188.0200  176.6390  134.8530 O   0  0  0  0  0  1  0  0  0  0  0  0
  180.3860  173.6920  138.6310 N   0  0  0  0  0  2  0  0  0  0  0  0
  181.7520  177.8950  136.8350 C   0  0  2  0  0  3  0  0  0  0  0  0
  180.1630  181.1670  135.5470 C   0  0  0  0  0  2  0  0  0  0  0  0
  181.6670  182.0220  138.9080 O   0  0  0  0  0  1  0  0  0  0  0  0
  181.5180  181.2710  137.7390 C   0  0  2  0  0  3  0  0  0  0  0  0
  180.7940  182.0650  136.6270 C   0  0  2  0  0  3  0  0  0  0  0  0
  180.7480  179.0470  136.7840 C   0  0  1  0  0  3  0  0  0  0  0  0
  180.8180  179.9470  138.0380 C   0  0  0  0  0  2  0  0  0  0  0  0
  180.8630  179.8140  135.4550 C   0  0  0  0  0  2  0  0  0  0  0  0
  179.7560  183.0570  137.1540 C   0  0  0  0  0  2  0  0  0  0  0  0
  180.2260  184.3660  137.0620 O   0  0  0  0  0  1  0  0  0  0  0  0
  179.3630  174.2640  140.7500 C   0  0  0  0  0  0  0  0  0  0  0  0
  179.5540  172.9340  141.1050 O   0  0  0  0  0  0  0  0  0  0  0  0
  178.9340  175.0820  141.6050 O   0  0  0  0  0  1  0  0  0  0  0  0
  189.2000  173.7930  135.9770 N   0  0  0  0  0  0  0  0  0  0  0  0
  188.0310  173.2830  135.2440 C   0  0  2  0  0  3  0  0  0  0  0  0
  188.7880  174.4090  134.7090 C   0  0  0  0  0  2  0  0  0  0  0  0
  190.3090  172.9150  135.6570 C   0  0  0  0  0  2  0  0  0  0  0  0
  191.4590  173.7330  135.0760 C   0  0  0  0  0  2  0  0  0  0  0  0
  192.7540  173.5550  135.8720 C   0  0  1  0  0  3  0  0  0  0  0  0
  193.5540  175.3180  137.4560 C   0  0  2  0  0  3  0  0  0  0  0  0
  192.0920  175.5540  137.1920 C   0  0  1  0  0  3  0  0  0  0  0  0
  192.6230  174.1350  137.2750 C   0  0  1  0  0  3  0  0  0  0  0  0
  192.8120  176.3950  138.2250 C   0  0  0  0  0  2  0  0  0  0  0  0
  193.1710  172.0770  135.9120 C   0  0  2  0  0  3  0  0  0  0  0  0
  194.3660  171.8740  136.8270 C   0  0  0  0  0  2  0  0  0  0  0  0
  194.5590  171.7750  135.3200 C   0  0  2  0  0  3  0  0  0  0  0  0
  195.3370  172.9980  134.8500 C   0  0  0  0  0  2  0  0  0  0  0  0
  196.3490  173.3870  135.9040 C   0  0  0  0  0  1  0  0  0  0  0  0
  1 26  1  6  0  0  0
  1  5  1  0  0  0  0
  2 22  2  0  0  0  0
  3  8  1  1  0  0  0
  3 19  1  0  0  0  0
  4 27  1  1  0  0  0
  4 20  1  0  0  0  0
  5 23  1  1  0  0  0
  8 19  1  0  0  0  0
  9 15  1  6  0  0  0
  9 14  1  0  0  0  0
 10 11  1  6  0  0  0
 10  6  1  0  0  0  0
 10 21  1  0  0  0  0
 12 17  1  6  0  0  0
 12 18  1  0  0  0  0
 13 23  1  0  0  0  0
 13 40  1  1  0  0  0
 16 28  1  1  0  0  0
 16 25  1  0  0  0  0
 16 27  1  0  0  0  0
 17 22  1  0  0  0  0
 18  5  1  0  0  0  0
 18 29  1  1  0  0  0
 19 24  1  1  0  0  0
 19 14  1  0  0  0  0
 20 21  1  0  0  0  0
 21  7  2  0  0  0  0
 22 10  1  0  0  0  0
 25  3  1  0  0  0  0
 25  9  1  0  0  0  0
 26 12  1  0  0  0  0
 29 13  1  0  0  0  0
 30  1  1  0  0  0  0
 30 24  1  0  0  0  0
 31 34  1  0  0  0  0
 33 36  1  0  0  0  0
 33 32  1  0  0  0  0
 34 38  1  0  0  0  0
 34 33  1  0  0  0  0
 35 30  1  0  0  0  0
 35 36  1  0  0  0  0
 37 31  1  0  0  0  0
 37 35  1  0  0  0  0
 39 38  1  0  0  0  0
 40 41  2  0  0  0  0
 40 42  1  0  0  0  0
 44  4  1  0  0  0  0
 44 43  1  0  0  0  0
 45 44  1  0  0  0  0
 45 43  1  0  0  0  0
 46 43  1  0  0  0  0
 47 46  1  0  0  0  0
 47 48  1  0  0  0  0
 48 53  1  0  0  0  0
 48 51  1  0  0  0  0
 49 52  1  0  0  0  0
 50 51  1  0  0  0  0
 50 49  1  0  0  0  0
 50 52  1  0  0  0  0
 51 49  1  0  0  0  0
 53 54  1  0  0  0  0
 55 53  1  0  0  0  0
 55 54  1  0  0  0  0
 56 55  1  0  0  0  0
 56 57  1  0  0  0  0
M  END
>  <MODEL>
2

>  <REMARK>
 VINA RESULT:      -6.4      0.738      1.954
  Name = 
  10 active torsions:
  status: ('A' for Active; 'I' for Inactive)
    1  A    between atoms: C_1  and  C_23
    2  A    between atoms: C_4  and  N_5
    3  A    between atoms: C_4  and  C_7
    4  A    between atoms: C_7  and  C_43
    5  A    between atoms: C_11  and  C_32
    6  A    between atoms: C_13  and  C_35
    7  A    between atoms: C_16  and  C_45
    8  A    between atoms: C_30  and  C_43
    9  A    between atoms: C_37  and  C_43
   10  A    between atoms: C_38  and  C_57
                            x       y       z     vdW  Elec       q    Type
                         _______ _______ _______ _____ _____    ______ ____

>  <TORSDO>
F 10

$$$$
=
 OpenBabel11062417373D

 57 66  0  0  1  0  0  0  0  0999 V2000
  189.9550  176.1470  136.5520 C   0  0  2  0  0  3  0  0  0  0  0  0
  185.9370  177.2420  135.4220 C   0  0  0  0  0  2  0  0  0  0  0  0
  187.1450  174.0380  135.4100 C   0  0  1  0  0  3  0  0  0  0  0  0
  183.5190  175.3420  136.6140 C   0  0  1  0  0  3  0  0  0  0  0  0
  189.3890  176.1770  137.9670 C   0  0  2  0  0  3  0  0  0  0  0  0
  185.6900  178.8190  138.6910 O   0  0  0  0  0  1  0  0  0  0  0  0
  185.8000  176.0580  138.8350 O   0  0  0  0  0  0  0  0  0  0  0  0
  187.1130  174.4100  136.7760 O   0  0  0  0  0  0  0  0  0  0  0  0
  186.2740  171.8610  136.0330 C   0  0  2  0  0  3  0  0  0  0  0  0
  185.1920  178.0220  137.6560 C   0  0  2  0  0  0  0  0  0  0  0  0
  183.9170  178.6820  137.1430 C   0  0  0  0  0  1  0  0  0  0  0  0
  188.7140  178.1260  136.8420 C   0  0  1  0  0  3  0  0  0  0  0  0
  190.6100  177.6180  139.3620 C   0  0  1  0  0  3  0  0  0  0  0  0
  187.4050  172.1020  136.8400 O   0  0  0  0  0  0  0  0  0  0  0  0
  186.4700  170.6990  135.2910 O   0  0  0  0  0  1  0  0  0  0  0  0
  184.6520  173.6420  135.1640 C   0  0  2  0  0  3  0  0  0  0  0  0
  187.4050  178.8490  136.5200 C   0  0  0  0  0  2  0  0  0  0  0  0
  188.6450  177.4300  138.1290 N   0  0  2  0  0  0  0  0  0  0  0  0
  187.9390  173.3310  136.4260 C   0  0  1  0  0  0  0  0  0  0  0  0
  183.6070  175.9350  138.0130 C   0  0  0  0  0  2  0  0  0  0  0  0
  184.9210  176.6360  138.2140 C   0  0  0  0  0  0  0  0  0  0  0  0
  186.2020  177.9470  136.5260 C   0  0  0  0  0  0  0  0  0  0  0  0
  190.5090  176.1750  138.9700 C   0  0  0  0  0  2  0  0  0  0  0  0
  189.4190  173.6080  136.6840 C   0  0  0  0  0  2  0  0  0  0  0  0
  186.0620  173.0420  135.0940 C   0  0  1  0  0  3  0  0  0  0  0  0
  189.1170  177.1280  135.7820 C   0  0  0  0  0  2  0  0  0  0  0  0
  184.2200  173.9910  136.5860 C   0  0  0  0  0  2  0  0  0  0  0  0
  183.7330  172.7570  134.5980 O   0  0  0  0  0  1  0  0  0  0  0  0
  189.3180  178.2320  139.0770 N   0  0  0  0  0  2  0  0  0  0  0  0
  189.9880  174.7750  135.8590 C   0  0  2  0  0  3  0  0  0  0  0  0
  193.3530  172.9000  135.6320 C   0  0  0  0  0  2  0  0  0  0  0  0
  194.1360  176.1920  137.3160 O   0  0  0  0  0  1  0  0  0  0  0  0
  193.3110  175.1420  136.9060 C   0  0  2  0  0  3  0  0  0  0  0  0
  194.1190  173.8750  136.5450 C   0  0  2  0  0  3  0  0  0  0  0  0
  191.4040  174.4810  135.3630 C   0  0  1  0  0  3  0  0  0  0  0  0
  192.4100  175.5860  135.7560 C   0  0  0  0  0  2  0  0  0  0  0  0
  191.8430  173.0630  135.7710 C   0  0  0  0  0  2  0  0  0  0  0  0
  195.4980  174.1720  135.9530 C   0  0  0  0  0  2  0  0  0  0  0  0
  196.4610  173.3110  136.4760 O   0  0  0  0  0  1  0  0  0  0  0  0
  190.9370  177.7440  140.8100 C   0  0  0  0  0  0  0  0  0  0  0  0
  189.9250  177.8510  141.7550 O   0  0  0  0  0  1  0  0  0  0  0  0
  192.1400  177.7390  141.1810 O   0  0  0  0  0  0  0  0  0  0  0  0
  181.2010  175.6670  137.3200 N   0  0  0  0  0  0  0  0  0  0  0  0
  182.0570  175.2020  136.2190 C   0  0  2  0  0  3  0  0  0  0  0  0
  181.4060  174.2310  137.0920 C   0  0  0  0  0  2  0  0  0  0  0  0
  179.9100  175.9880  136.7410 C   0  0  0  0  0  2  0  0  0  0  0  0
  179.0310  176.6610  137.7900 C   0  0  0  0  0  2  0  0  0  0  0  0
  179.6540  177.9530  138.3240 C   0  0  1  0  0  3  0  0  0  0  0  0
  180.3260  180.2590  137.6270 C   0  0  2  0  0  3  0  0  0  0  0  0
  180.4670  179.3510  136.4370 C   0  0  1  0  0  3  0  0  0  0  0  0
  179.3300  179.1350  137.4190 C   0  0  1  0  0  3  0  0  0  0  0  0
  180.6800  180.8410  136.2710 C   0  0  0  0  0  2  0  0  0  0  0  0
  179.2080  178.2150  139.7710 C   0  0  2  0  0  3  0  0  0  0  0  0
  179.9500  179.4020  140.3620 C   0  0  0  0  0  2  0  0  0  0  0  0
  180.2960  177.9970  140.8370 C   0  0  2  0  0  3  0  0  0  0  0  0
  181.6680  177.6260  140.2880 C   0  0  0  0  0  2  0  0  0  0  0  0
  182.6830  178.6560  140.7260 C   0  0  0  0  0  1  0  0  0  0  0  0
  1 26  1  6  0  0  0
  1  5  1  0  0  0  0
  2 22  2  0  0  0  0
  3 19  1  0  0  0  0
  3  8  1  1  0  0  0
  4 27  1  1  0  0  0
  4 20  1  0  0  0  0
  5 18  1  0  0  0  0
  5 23  1  1  0  0  0
  9 15  1  6  0  0  0
  9 14  1  0  0  0  0
 10 11  1  6  0  0  0
 10 21  1  0  0  0  0
 10  6  1  0  0  0  0
 12 26  1  6  0  0  0
 12 18  1  0  0  0  0
 13 40  1  1  0  0  0
 16 28  1  1  0  0  0
 16 27  1  0  0  0  0
 17 22  1  0  0  0  0
 17 12  1  0  0  0  0
 18 29  1  1  0  0  0
 19 24  1  1  0  0  0
 19  8  1  0  0  0  0
 19 14  1  0  0  0  0
 20 21  1  0  0  0  0
 21  7  2  0  0  0  0
 22 10  1  0  0  0  0
 23 13  1  0  0  0  0
 25 16  1  0  0  0  0
 25  3  1  0  0  0  0
 25  9  1  0  0  0  0
 29 13  1  0  0  0  0
 30  1  1  0  0  0  0
 30 24  1  0  0  0  0
 31 37  1  0  0  0  0
 31 34  1  0  0  0  0
 33 32  1  0  0  0  0
 34 33  1  0  0  0  0
 35 36  1  0  0  0  0
 35 37  1  0  0  0  0
 35 30  1  0  0  0  0
 36 33  1  0  0  0  0
 38 39  1  0  0  0  0
 38 34  1  0  0  0  0
 40 42  2  0  0  0  0
 40 41  1  0  0  0  0
 44  4  1  0  0  0  0
 44 45  1  0  0  0  0
 44 43  1  0  0  0  0
 45 43  1  0  0  0  0
 46 43  1  0  0  0  0
 46 47  1  0  0  0  0
 47 48  1  0  0  0  0
 48 53  1  0  0  0  0
 50 51  1  0  0  0  0
 50 49  1  0  0  0  0
 51 49  1  0  0  0  0
 51 48  1  0  0  0  0
 52 50  1  0  0  0  0
 52 49  1  0  0  0  0
 53 54  1  0  0  0  0
 53 55  1  0  0  0  0
 54 55  1  0  0  0  0
 56 57  1  0  0  0  0
 56 55  1  0  0  0  0
M  END
>  <MODEL>
3

>  <REMARK>
 VINA RESULT:      -6.3      2.723     10.620
  Name = 
  10 active torsions:
  status: ('A' for Active; 'I' for Inactive)
    1  A    between atoms: C_1  and  C_23
    2  A    between atoms: C_4  and  N_5
    3  A    between atoms: C_4  and  C_7
    4  A    between atoms: C_7  and  C_43
    5  A    between atoms: C_11  and  C_32
    6  A    between atoms: C_13  and  C_35
    7  A    between atoms: C_16  and  C_45
    8  A    between atoms: C_30  and  C_43
    9  A    between atoms: C_37  and  C_43
   10  A    between atoms: C_38  and  C_57
                            x       y       z     vdW  Elec       q    Type
                         _______ _______ _______ _____ _____    ______ ____

>  <TORSDO>
F 10

$$$$
=
 OpenBabel11062417373D

 57 66  0  0  1  0  0  0  0  0999 V2000
  182.3440  177.6630  137.9120 C   0  0  2  0  0  3  0  0  0  0  0  0
  185.6800  176.5650  135.4050 C   0  0  0  0  0  2  0  0  0  0  0  0
  185.9540  178.3230  138.3300 C   0  0  1  0  0  3  0  0  0  0  0  0
  188.3340  175.3670  136.9530 C   0  0  1  0  0  3  0  0  0  0  0  0
  182.5120  176.2550  138.4700 C   0  0  2  0  0  3  0  0  0  0  0  0
  184.5060  173.1380  135.7320 O   0  0  0  0  0  1  0  0  0  0  0  0
  185.5280  174.1550  138.0940 O   0  0  0  0  0  0  0  0  0  0  0  0
  185.5210  177.0330  138.7200 O   0  0  0  0  0  0  0  0  0  0  0  0
  187.4880  178.3220  140.2090 C   0  0  2  0  0  3  0  0  0  0  0  0
  185.5100  174.1110  135.7240 C   0  0  2  0  0  0  0  0  0  0  0  0
  186.4730  173.7680  134.5940 C   0  0  0  0  0  1  0  0  0  0  0  0
  182.5470  176.1460  136.1230 C   0  0  1  0  0  3  0  0  0  0  0  0
  180.5230  175.0160  138.3200 C   0  0  1  0  0  3  0  0  0  0  0  0
  186.2110  178.0090  140.7160 O   0  0  0  0  0  0  0  0  0  0  0  0
  187.9670  179.4740  140.8280 O   0  0  0  0  0  1  0  0  0  0  0  0
  188.3700  177.6910  137.8900 C   0  0  2  0  0  3  0  0  0  0  0  0
  183.4710  175.6060  135.0300 C   0  0  0  0  0  2  0  0  0  0  0  0
  182.6080  175.3290  137.3360 N   0  0  2  0  0  0  0  0  0  0  0  0
  185.3210  178.0790  139.6340 C   0  0  1  0  0  0  0  0  0  0  0  0
  187.6950  174.0100  137.2100 C   0  0  0  0  0  2  0  0  0  0  0  0
  186.2010  174.0900  137.0760 C   0  0  0  0  0  0  0  0  0  0  0  0
  184.9050  175.4780  135.4630 C   0  0  0  0  0  0  0  0  0  0  0  0
  181.3010  175.8720  139.2740 C   0  0  0  0  0  2  0  0  0  0  0  0
  183.8440  178.3440  139.9200 C   0  0  0  0  0  2  0  0  0  0  0  0
  187.3940  178.5480  138.7060 C   0  0  1  0  0  3  0  0  0  0  0  0
  182.8460  177.5790  136.4980 C   0  0  0  0  0  2  0  0  0  0  0  0
  188.2870  176.2040  138.2240 C   0  0  0  0  0  2  0  0  0  0  0  0
  189.6760  178.1440  138.0870 O   0  0  0  0  0  1  0  0  0  0  0  0
  181.4680  174.4950  137.3400 N   0  0  0  0  0  2  0  0  0  0  0  0
  183.0420  178.7930  138.6860 C   0  0  2  0  0  3  0  0  0  0  0  0
  179.5600  180.3990  139.1120 C   0  0  0  0  0  2  0  0  0  0  0  0
  181.1450  182.1760  136.1770 O   0  0  0  0  0  1  0  0  0  0  0  0
  180.9780  181.1270  137.0860 C   0  0  2  0  0  3  0  0  0  0  0  0
  179.6010  181.1790  137.7860 C   0  0  2  0  0  3  0  0  0  0  0  0
  182.0280  179.8830  139.0350 C   0  0  1  0  0  3  0  0  0  0  0  0
  182.1260  181.1040  138.0930 C   0  0  0  0  0  2  0  0  0  0  0  0
  180.6110  179.2940  139.1530 C   0  0  0  0  0  2  0  0  0  0  0  0
  179.0710  182.5980  137.9970 C   0  0  0  0  0  2  0  0  0  0  0  0
  179.0710  182.9340  139.3500 O   0  0  0  0  0  1  0  0  0  0  0  0
  179.8570  173.8990  139.0460 C   0  0  0  0  0  0  0  0  0  0  0  0
  178.9840  173.0460  138.3800 O   0  0  0  0  0  0  0  0  0  0  0  0
  180.0970  173.7150  140.2670 O   0  0  0  0  0  1  0  0  0  0  0  0
  189.9420  173.7930  135.9970 N   0  0  0  0  0  0  0  0  0  0  0  0
  189.7690  175.1680  136.4900 C   0  0  2  0  0  3  0  0  0  0  0  0
  190.4210  174.1710  137.3330 C   0  0  0  0  0  2  0  0  0  0  0  0
  191.1080  173.8020  135.1340 C   0  0  0  0  0  2  0  0  0  0  0  0
  192.1980  172.9220  135.7370 C   0  0  0  0  0  2  0  0  0  0  0  0
  193.5890  173.5440  135.5920 C   0  0  1  0  0  3  0  0  0  0  0  0
  195.7930  172.3750  135.7700 C   0  0  2  0  0  3  0  0  0  0  0  0
  194.7090  171.3330  135.7690 C   0  0  1  0  0  3  0  0  0  0  0  0
  194.5560  172.5800  134.9170 C   0  0  1  0  0  3  0  0  0  0  0  0
  196.1610  170.9040  135.7320 C   0  0  0  0  0  2  0  0  0  0  0  0
  193.5130  174.8810  134.8380 C   0  0  2  0  0  3  0  0  0  0  0  0
  194.7930  175.6790  135.0150 C   0  0  0  0  0  2  0  0  0  0  0  0
  193.5290  176.1340  135.7320 C   0  0  2  0  0  3  0  0  0  0  0  0
  193.6920  175.8590  137.2220 C   0  0  0  0  0  2  0  0  0  0  0  0
  192.7130  176.7070  138.0020 C   0  0  0  0  0  1  0  0  0  0  0  0
  1 26  1  6  0  0  0
  1  5  1  0  0  0  0
  1 30  1  0  0  0  0
  2 22  2  0  0  0  0
  3 25  1  0  0  0  0
  3  8  1  6  0  0  0
  3 19  1  0  0  0  0
  4 20  1  1  0  0  0
  4 27  1  0  0  0  0
  5 23  1  1  0  0  0
  8 19  1  0  0  0  0
  9 14  1  0  0  0  0
  9 15  1  1  0  0  0
 10 11  1  6  0  0  0
 10  6  1  0  0  0  0
 10 21  1  0  0  0  0
 12 17  1  6  0  0  0
 12 26  1  0  0  0  0
 12 18  1  0  0  0  0
 13 40  1  1  0  0  0
 13 23  1  0  0  0  0
 16 28  1  1  0  0  0
 16 27  1  0  0  0  0
 16 25  1  0  0  0  0
 17 22  1  0  0  0  0
 18 29  1  6  0  0  0
 18  5  1  0  0  0  0
 19 24  1  1  0  0  0
 19 14  1  0  0  0  0
 21 20  1  0  0  0  0
 21  7  2  0  0  0  0
 22 10  1  0  0  0  0
 25  9  1  0  0  0  0
 29 13  1  0  0  0  0
 30 35  1  0  0  0  0
 30 24  1  0  0  0  0
 31 37  1  0  0  0  0
 32 33  1  0  0  0  0
 33 34  1  0  0  0  0
 33 36  1  0  0  0  0
 34 38  1  0  0  0  0
 34 31  1  0  0  0  0
 35 37  1  0  0  0  0
 36 35  1  0  0  0  0
 38 39  1  0  0  0  0
 40 42  1  0  0  0  0
 41 40  2  0  0  0  0
 43 44  1  0  0  0  0
 43 45  1  0  0  0  0
 44  4  1  0  0  0  0
 44 45  1  0  0  0  0
 46 47  1  0  0  0  0
 46 43  1  0  0  0  0
 48 47  1  0  0  0  0
 50 49  1  0  0  0  0
 51 48  1  0  0  0  0
 51 50  1  0  0  0  0
 51 49  1  0  0  0  0
 52 50  1  0  0  0  0
 52 49  1  0  0  0  0
 53 54  1  0  0  0  0
 53 48  1  0  0  0  0
 53 55  1  0  0  0  0
 54 55  1  0  0  0  0
 55 56  1  0  0  0  0
 56 57  1  0  0  0  0
M  END
>  <MODEL>
4

>  <REMARK>
 VINA RESULT:      -5.8      1.728      2.477
  Name = 
  10 active torsions:
  status: ('A' for Active; 'I' for Inactive)
    1  A    between atoms: C_1  and  C_23
    2  A    between atoms: C_4  and  N_5
    3  A    between atoms: C_4  and  C_7
    4  A    between atoms: C_7  and  C_43
    5  A    between atoms: C_11  and  C_32
    6  A    between atoms: C_13  and  C_35
    7  A    between atoms: C_16  and  C_45
    8  A    between atoms: C_30  and  C_43
    9  A    between atoms: C_37  and  C_43
   10  A    between atoms: C_38  and  C_57
                            x       y       z     vdW  Elec       q    Type
                         _______ _______ _______ _____ _____    ______ ____

>  <TORSDO>
F 10

$$$$
=
 OpenBabel11062417373D

 57 66  0  0  1  0  0  0  0  0999 V2000
  185.1740  178.2970  138.9910 C   0  0  2  0  0  3  0  0  0  0  0  0
  188.9760  178.6000  136.9740 C   0  0  0  0  0  2  0  0  0  0  0  0
  188.6060  178.2160  140.3560 C   0  0  1  0  0  3  0  0  0  0  0  0
  191.3010  176.4590  137.9170 C   0  0  1  0  0  3  0  0  0  0  0  0
  185.2680  176.8280  138.5990 C   0  0  2  0  0  3  0  0  0  0  0  0
  187.8640  175.7960  134.9400 O   0  0  0  0  0  1  0  0  0  0  0  0
  188.3610  175.0880  137.5690 O   0  0  0  0  0  0  0  0  0  0  0  0
  188.1420  177.0000  139.7990 O   0  0  0  0  0  0  0  0  0  0  0  0
  189.7310  176.9390  142.0830 C   0  0  2  0  0  3  0  0  0  0  0  0
  188.8190  176.4750  135.7030 C   0  0  2  0  0  0  0  0  0  0  0  0
  189.9990  176.7850  134.7890 C   0  0  0  0  0  1  0  0  0  0  0  0
  185.7760  178.1440  136.7210 C   0  0  1  0  0  3  0  0  0  0  0  0
  183.3880  176.1290  137.3800 C   0  0  1  0  0  3  0  0  0  0  0  0
  188.3890  176.5120  142.0610 O   0  0  0  0  0  0  0  0  0  0  0  0
  190.0420  177.4360  143.3470 O   0  0  0  0  0  1  0  0  0  0  0  0
  191.0790  177.7410  140.0590 C   0  0  2  0  0  3  0  0  0  0  0  0
  186.9160  178.2790  135.7100 C   0  0  0  0  0  2  0  0  0  0  0  0
  185.6180  176.7620  137.1770 N   0  0  2  0  0  0  0  0  0  0  0  0
  187.7320  177.3030  141.1060 C   0  0  1  0  0  0  0  0  0  0  0  0
  190.6650  175.2900  137.1810 C   0  0  0  0  0  2  0  0  0  0  0  0
  189.2260  175.5810  136.8600 C   0  0  0  0  0  0  0  0  0  0  0  0
  188.2380  177.7770  136.2220 C   0  0  0  0  0  0  0  0  0  0  0  0
  183.9330  176.1600  138.7760 C   0  0  0  0  0  2  0  0  0  0  0  0
  186.2200  177.4880  141.2270 C   0  0  0  0  0  2  0  0  0  0  0  0
  189.9330  178.0280  141.0380 C   0  0  1  0  0  3  0  0  0  0  0  0
  185.9510  179.0290  137.9330 C   0  0  0  0  0  2  0  0  0  0  0  0
  190.9740  176.3680  139.4020 C   0  0  0  0  0  2  0  0  0  0  0  0
  192.3040  177.8540  140.7180 O   0  0  0  0  0  1  0  0  0  0  0  0
  184.5260  176.2090  136.4720 N   0  0  0  0  0  2  0  0  0  0  0  0
  185.6680  178.6620  140.4010 C   0  0  2  0  0  3  0  0  0  0  0  0
  183.2060  179.4170  143.2730 C   0  0  0  0  0  2  0  0  0  0  0  0
  181.0640  178.2860  140.3710 O   0  0  0  0  0  1  0  0  0  0  0  0
  182.2470  178.3990  141.1060 C   0  0  2  0  0  3  0  0  0  0  0  0
  181.9810  178.7950  142.5770 C   0  0  2  0  0  3  0  0  0  0  0  0
  184.5730  179.4190  141.1530 C   0  0  1  0  0  3  0  0  0  0  0  0
  183.2120  179.3670  140.4240 C   0  0  0  0  0  2  0  0  0  0  0  0
  184.5130  178.9730  142.6250 C   0  0  0  0  0  2  0  0  0  0  0  0
  180.7610  179.6980  142.7600 C   0  0  0  0  0  2  0  0  0  0  0  0
  179.9980  179.2910  143.8540 O   0  0  0  0  0  1  0  0  0  0  0  0
  182.6240  174.8720  137.1460 C   0  0  0  0  0  0  0  0  0  0  0  0
  181.2630  174.9140  136.8700 O   0  0  0  0  0  0  0  0  0  0  0  0
  183.2190  173.7630  137.1850 O   0  0  0  0  0  1  0  0  0  0  0  0
  193.1210  175.5550  136.5580 N   0  0  0  0  0  0  0  0  0  0  0  0
  192.8050  176.4380  137.6920 C   0  0  2  0  0  3  0  0  0  0  0  0
  193.3160  175.0940  137.9380 C   0  0  0  0  0  2  0  0  0  0  0  0
  194.4310  175.9480  136.0750 C   0  0  0  0  0  2  0  0  0  0  0  0
  195.4530  174.8760  136.4370 C   0  0  0  0  0  2  0  0  0  0  0  0
  195.4350  173.7040  135.4520 C   0  0  1  0  0  3  0  0  0  0  0  0
  197.6280  174.8060  134.9660 C   0  0  2  0  0  3  0  0  0  0  0  0
  197.9010  173.5270  135.7090 C   0  0  1  0  0  3  0  0  0  0  0  0
  196.7610  173.5890  134.7100 C   0  0  1  0  0  3  0  0  0  0  0  0
  199.0580  174.3400  135.1660 C   0  0  0  0  0  2  0  0  0  0  0  0
  195.0790  172.3930  136.1700 C   0  0  2  0  0  3  0  0  0  0  0  0
  195.0520  171.2290  135.1950 C   0  0  0  0  0  2  0  0  0  0  0  0
  193.7390  171.7650  135.7500 C   0  0  2  0  0  3  0  0  0  0  0  0
  193.0060  172.4990  134.6340 C   0  0  0  0  0  2  0  0  0  0  0  0
  191.5160  172.4190  134.8700 C   0  0  0  0  0  1  0  0  0  0  0  0
  1 26  1  6  0  0  0
  1 30  1  0  0  0  0
  3  8  1  6  0  0  0
  3 25  1  0  0  0  0
  3 19  1  0  0  0  0
  4 20  1  6  0  0  0
  4 27  1  0  0  0  0
  5 23  1  6  0  0  0
  5  1  1  0  0  0  0
  6 10  1  0  0  0  0
  8 19  1  0  0  0  0
  9 15  1  1  0  0  0
 10 11  1  6  0  0  0
 10 22  1  0  0  0  0
 10 21  1  0  0  0  0
 12 17  1  6  0  0  0
 12 18  1  0  0  0  0
 12 26  1  0  0  0  0
 13 40  1  6  0  0  0
 13 23  1  0  0  0  0
 14  9  1  0  0  0  0
 16 28  1  1  0  0  0
 16 25  1  0  0  0  0
 17 22  1  0  0  0  0
 18 29  1  6  0  0  0
 18  5  1  0  0  0  0
 19 24  1  1  0  0  0
 19 14  1  0  0  0  0
 21 20  1  0  0  0  0
 21  7  2  0  0  0  0
 22  2  2  0  0  0  0
 25  9  1  0  0  0  0
 27 16  1  0  0  0  0
 29 13  1  0  0  0  0
 30 35  1  0  0  0  0
 30 24  1  0  0  0  0
 32 33  1  0  0  0  0
 33 34  1  0  0  0  0
 34 38  1  0  0  0  0
 34 31  1  0  0  0  0
 35 37  1  0  0  0  0
 36 33  1  0  0  0  0
 36 35  1  0  0  0  0
 37 31  1  0  0  0  0
 38 39  1  0  0  0  0
 40 42  1  0  0  0  0
 41 40  2  0  0  0  0
 43 44  1  0  0  0  0
 43 45  1  0  0  0  0
 44  4  1  0  0  0  0
 44 45  1  0  0  0  0
 46 47  1  0  0  0  0
 46 43  1  0  0  0  0
 48 53  1  0  0  0  0
 48 47  1  0  0  0  0
 49 52  1  0  0  0  0
 49 50  1  0  0  0  0
 51 49  1  0  0  0  0
 51 48  1  0  0  0  0
 51 50  1  0  0  0  0
 52 50  1  0  0  0  0
 54 55  1  0  0  0  0
 54 53  1  0  0  0  0
 55 53  1  0  0  0  0
 56 57  1  0  0  0  0
 56 55  1  0  0  0  0
M  END
>  <MODEL>
5

>  <REMARK>
 VINA RESULT:      -5.2      3.132      5.543
  Name = 
  10 active torsions:
  status: ('A' for Active; 'I' for Inactive)
    1  A    between atoms: C_1  and  C_23
    2  A    between atoms: C_4  and  N_5
    3  A    between atoms: C_4  and  C_7
    4  A    between atoms: C_7  and  C_43
    5  A    between atoms: C_11  and  C_32
    6  A    between atoms: C_13  and  C_35
    7  A    between atoms: C_16  and  C_45
    8  A    between atoms: C_30  and  C_43
    9  A    between atoms: C_37  and  C_43
   10  A    between atoms: C_38  and  C_57
                            x       y       z     vdW  Elec       q    Type
                         _______ _______ _______ _____ _____    ______ ____

>  <TORSDO>
F 10

$$$$
=
 OpenBabel11062417373D

 57 66  0  0  1  0  0  0  0  0999 V2000
  182.0960  177.4540  137.7770 C   0  0  2  0  0  3  0  0  0  0  0  0
  185.7040  176.8840  135.4800 C   0  0  0  0  0  2  0  0  0  0  0  0
  185.5610  178.5220  138.4830 C   0  0  1  0  0  3  0  0  0  0  0  0
  188.3740  175.9400  137.1710 C   0  0  1  0  0  3  0  0  0  0  0  0
  182.3970  176.0520  138.2910 C   0  0  2  0  0  3  0  0  0  0  0  0
  184.9400  173.3280  135.5880 O   0  0  0  0  0  1  0  0  0  0  0  0
  185.6670  174.3480  138.0560 O   0  0  0  0  0  0  0  0  0  0  0  0
  185.2640  177.1720  138.7900 O   0  0  0  0  0  0  0  0  0  0  0  0
  186.9530  178.6160  140.4680 C   0  0  2  0  0  3  0  0  0  0  0  0
  185.8150  174.4150  135.6920 C   0  0  2  0  0  0  0  0  0  0  0  0
  186.8880  174.2420  134.6220 C   0  0  0  0  0  1  0  0  0  0  0  0
  182.6050  176.0590  135.9510 C   0  0  1  0  0  3  0  0  0  0  0  0
  180.5900  174.5920  137.9490 C   0  0  1  0  0  3  0  0  0  0  0  0
  185.6930  178.1290  140.8680 O   0  0  0  0  0  0  0  0  0  0  0  0
  187.2440  179.7860  141.1640 O   0  0  0  0  0  1  0  0  0  0  0  0
  188.0610  178.2050  138.1960 C   0  0  2  0  0  3  0  0  0  0  0  0
  183.6600  175.6850  134.9080 C   0  0  0  0  0  2  0  0  0  0  0  0
  182.6840  175.1990  137.1330 N   0  0  2  0  0  0  0  0  0  0  0  0
  184.8760  178.1420  139.7270 C   0  0  1  0  0  0  0  0  0  0  0  0
  187.8910  174.5060  137.3280 C   0  0  0  0  0  2  0  0  0  0  0  0
  186.4110  174.4120  137.0880 C   0  0  0  0  0  0  0  0  0  0  0  0
  185.0660  175.7100  135.4400 C   0  0  0  0  0  0  0  0  0  0  0  0
  181.1910  175.4890  138.9900 C   0  0  0  0  0  2  0  0  0  0  0  0
  183.3620  178.2150  139.9140 C   0  0  0  0  0  2  0  0  0  0  0  0
  186.9340  178.8990  138.9710 C   0  0  1  0  0  3  0  0  0  0  0  0
  182.6990  177.4980  136.4010 C   0  0  0  0  0  2  0  0  0  0  0  0
  188.1380  176.7050  138.4660 C   0  0  0  0  0  2  0  0  0  0  0  0
  189.2850  178.8020  138.5060 O   0  0  0  0  0  1  0  0  0  0  0  0
  181.6570  174.2350  137.0210 N   0  0  0  0  0  2  0  0  0  0  0  0
  182.5960  178.6220  138.6430 C   0  0  2  0  0  3  0  0  0  0  0  0
  179.2150  180.3980  138.0960 C   0  0  0  0  0  2  0  0  0  0  0  0
  181.8520  183.0660  137.6260 O   0  0  0  0  0  1  0  0  0  0  0  0
  181.3670  181.7560  137.6760 C   0  0  2  0  0  3  0  0  0  0  0  0
  179.8270  181.7010  137.5500 C   0  0  2  0  0  3  0  0  0  0  0  0
  181.4350  179.5650  138.9590 C   0  0  1  0  0  3  0  0  0  0  0  0
  181.8580  181.0510  138.9380 C   0  0  0  0  0  2  0  0  0  0  0  0
  180.2170  179.2490  138.0730 C   0  0  0  0  0  2  0  0  0  0  0  0
  179.1160  182.9100  138.1620 C   0  0  0  0  0  2  0  0  0  0  0  0
  178.9650  182.7550  139.5390 O   0  0  0  0  0  1  0  0  0  0  0  0
  180.0190  173.3700  138.5800 C   0  0  0  0  0  0  0  0  0  0  0  0
  179.1160  173.4740  139.6310 O   0  0  0  0  0  1  0  0  0  0  0  0
  180.3450  172.2340  138.1490 O   0  0  0  0  0  0  0  0  0  0  0  0
  190.0900  174.9650  135.7290 N   0  0  0  0  0  0  0  0  0  0  0  0
  189.8510  175.9370  136.8060 C   0  0  2  0  0  3  0  0  0  0  0  0
  190.4270  174.6330  137.1180 C   0  0  0  0  0  2  0  0  0  0  0  0
  191.3360  175.3460  135.0910 C   0  0  0  0  0  2  0  0  0  0  0  0
  192.2330  174.1210  134.9460 C   0  0  0  0  0  2  0  0  0  0  0  0
  193.5940  174.3170  135.6200 C   0  0  1  0  0  3  0  0  0  0  0  0
  195.3020  176.0230  136.2750 C   0  0  2  0  0  3  0  0  0  0  0  0
  194.7800  176.3830  134.9110 C   0  0  1  0  0  3  0  0  0  0  0  0
  193.8410  175.7850  135.9430 C   0  0  1  0  0  3  0  0  0  0  0  0
  195.7350  177.3210  135.6190 C   0  0  0  0  0  2  0  0  0  0  0  0
  193.7120  173.4380  136.8750 C   0  0  2  0  0  3  0  0  0  0  0  0
  195.1670  173.2420  137.2650 C   0  0  0  0  0  2  0  0  0  0  0  0
  194.3980  172.0780  136.6540 C   0  0  2  0  0  3  0  0  0  0  0  0
  194.9180  171.8430  135.2420 C   0  0  0  0  0  2  0  0  0  0  0  0
  195.0280  170.3570  134.9860 C   0  0  0  0  0  1  0  0  0  0  0  0
  1 26  1  6  0  0  0
  1  5  1  0  0  0  0
  1 30  1  0  0  0  0
  3  8  1  6  0  0  0
  3 25  1  0  0  0  0
  3 19  1  0  0  0  0
  4 20  1  1  0  0  0
  4 27  1  0  0  0  0
  5 23  1  6  0  0  0
  6 10  1  0  0  0  0
  8 19  1  0  0  0  0
  9 14  1  0  0  0  0
  9 15  1  1  0  0  0
 10 11  1  6  0  0  0
 10 21  1  0  0  0  0
 12 17  1  6  0  0  0
 12 26  1  0  0  0  0
 12 18  1  0  0  0  0
 13 40  1  1  0  0  0
 13 23  1  0  0  0  0
 16 27  1  0  0  0  0
 16 28  1  1  0  0  0
 16 25  1  0  0  0  0
 17 22  1  0  0  0  0
 18 29  1  6  0  0  0
 18  5  1  0  0  0  0
 19 24  1  1  0  0  0
 19 14  1  0  0  0  0
 21 20  1  0  0  0  0
 21  7  2  0  0  0  0
 22  2  2  0  0  0  0
 22 10  1  0  0  0  0
 25  9  1  0  0  0  0
 29 13  1  0  0  0  0
 30 35  1  0  0  0  0
 30 24  1  0  0  0  0
 32 33  1  0  0  0  0
 33 36  1  0  0  0  0
 34 33  1  0  0  0  0
 34 31  1  0  0  0  0
 34 38  1  0  0  0  0
 36 35  1  0  0  0  0
 37 31  1  0  0  0  0
 37 35  1  0  0  0  0
 38 39  1  0  0  0  0
 40 41  1  0  0  0  0
 42 40  2  0  0  0  0
 43 44  1  0  0  0  0
 43 45  1  0  0  0  0
 44 45  1  0  0  0  0
 44  4  1  0  0  0  0
 46 43  1  0  0  0  0
 47 46  1  0  0  0  0
 47 48  1  0  0  0  0
 48 51  1  0  0  0  0
 48 53  1  0  0  0  0
 50 52  1  0  0  0  0
 50 51  1  0  0  0  0
 50 49  1  0  0  0  0
 51 49  1  0  0  0  0
 52 49  1  0  0  0  0
 53 54  1  0  0  0  0
 55 53  1  0  0  0  0
 55 54  1  0  0  0  0
 56 55  1  0  0  0  0
 57 56  1  0  0  0  0
M  END
>  <MODEL>
6

>  <REMARK>
 VINA RESULT:      -5.1      1.829      3.156
  Name = 
  10 active torsions:
  status: ('A' for Active; 'I' for Inactive)
    1  A    between atoms: C_1  and  C_23
    2  A    between atoms: C_4  and  N_5
    3  A    between atoms: C_4  and  C_7
    4  A    between atoms: C_7  and  C_43
    5  A    between atoms: C_11  and  C_32
    6  A    between atoms: C_13  and  C_35
    7  A    between atoms: C_16  and  C_45
    8  A    between atoms: C_30  and  C_43
    9  A    between atoms: C_37  and  C_43
   10  A    between atoms: C_38  and  C_57
                            x       y       z     vdW  Elec       q    Type
                         _______ _______ _______ _____ _____    ______ ____

>  <TORSDO>
F 10

$$$$
=
 OpenBabel11062417373D

 57 66  0  0  1  0  0  0  0  0999 V2000
  190.2600  175.9230  136.4750 C   0  0  2  0  0  3  0  0  0  0  0  0
  186.2350  176.9370  135.2950 C   0  0  0  0  0  2  0  0  0  0  0  0
  187.4810  173.7490  135.3830 C   0  0  1  0  0  3  0  0  0  0  0  0
  183.8340  175.0450  136.5320 C   0  0  1  0  0  3  0  0  0  0  0  0
  189.6880  175.9890  137.8850 C   0  0  2  0  0  3  0  0  0  0  0  0
  185.9540  178.6070  138.5140 O   0  0  0  0  0  1  0  0  0  0  0  0
  186.0960  175.8530  138.7400 O   0  0  0  0  0  0  0  0  0  0  0  0
  187.4380  174.1610  136.7370 O   0  0  0  0  0  0  0  0  0  0  0  0
  186.6330  171.5810  136.0660 C   0  0  2  0  0  3  0  0  0  0  0  0
  185.4700  177.7740  137.5010 C   0  0  2  0  0  0  0  0  0  0  0  0
  184.1900  178.4030  136.9630 C   0  0  0  0  0  1  0  0  0  0  0  0
  188.9950  177.8960  136.7000 C   0  0  1  0  0  3  0  0  0  0  0  0
  190.8840  177.4850  139.2420 C   0  0  1  0  0  3  0  0  0  0  0  0
  187.7560  171.8590  136.8700 O   0  0  0  0  0  0  0  0  0  0  0  0
  186.8460  170.4000  135.3600 O   0  0  0  0  0  1  0  0  0  0  0  0
  184.9940  173.3160  135.1380 C   0  0  2  0  0  3  0  0  0  0  0  0
  187.6790  178.5930  136.3510 C   0  0  0  0  0  2  0  0  0  0  0  0
  188.9280  177.2380  138.0060 N   0  0  2  0  0  0  0  0  0  0  0  0
  188.2780  173.0820  136.4230 C   0  0  1  0  0  0  0  0  0  0  0  0
  183.9080  175.6790  137.9130 C   0  0  0  0  0  2  0  0  0  0  0  0
  185.2130  176.4020  138.0980 C   0  0  0  0  0  0  0  0  0  0  0  0
  186.4870  177.6780  136.3790 C   0  0  0  0  0  0  0  0  0  0  0  0
  190.8030  176.0300  138.8930 C   0  0  0  0  0  2  0  0  0  0  0  0
  189.7530  173.3840  136.6790 C   0  0  0  0  0  2  0  0  0  0  0  0
  186.4120  172.7310  135.0920 C   0  0  1  0  0  3  0  0  0  0  0  0
  189.4150  176.8720  135.6720 C   0  0  0  0  0  2  0  0  0  0  0  0
  184.5510  173.7020  136.5460 C   0  0  0  0  0  2  0  0  0  0  0  0
  184.0880  172.4030  134.5940 O   0  0  0  0  0  1  0  0  0  0  0  0
  189.5870  178.0750  138.9330 N   0  0  0  0  0  2  0  0  0  0  0  0
  190.3130  174.5320  135.8220 C   0  0  2  0  0  3  0  0  0  0  0  0
  193.6540  172.6190  135.5740 C   0  0  0  0  0  2  0  0  0  0  0  0
  194.4490  175.8130  137.4310 O   0  0  0  0  0  1  0  0  0  0  0  0
  193.6170  174.7970  136.9540 C   0  0  2  0  0  3  0  0  0  0  0  0
  194.4150  173.5360  136.5480 C   0  0  2  0  0  3  0  0  0  0  0  0
  191.7350  174.2410  135.3420 C   0  0  1  0  0  3  0  0  0  0  0  0
  192.7480  175.3100  135.8090 C   0  0  0  0  0  2  0  0  0  0  0  0
  192.1440  172.7980  135.6890 C   0  0  0  0  0  2  0  0  0  0  0  0
  195.8100  173.8400  135.9990 C   0  0  0  0  0  2  0  0  0  0  0  0
  195.7330  174.4060  134.7280 O   0  0  0  0  0  1  0  0  0  0  0  0
  191.2030  177.6580  140.6870 C   0  0  0  0  0  0  0  0  0  0  0  0
  192.5230  177.6860  141.1200 O   0  0  0  0  0  0  0  0  0  0  0  0
  190.2700  177.7940  141.5210 O   0  0  0  0  0  1  0  0  0  0  0  0
  181.5310  174.8900  137.3380 N   0  0  0  0  0  0  0  0  0  0  0  0
  182.3750  174.8760  136.1340 C   0  0  2  0  0  3  0  0  0  0  0  0
  181.8640  173.6220  136.6760 C   0  0  0  0  0  2  0  0  0  0  0  0
  180.1900  175.2310  136.9040 C   0  0  0  0  0  2  0  0  0  0  0  0
  179.7400  176.5160  137.5920 C   0  0  0  0  0  2  0  0  0  0  0  0
  179.1460  176.2520  138.9780 C   0  0  1  0  0  3  0  0  0  0  0  0
  179.4620  175.0960  141.1730 C   0  0  2  0  0  3  0  0  0  0  0  0
  179.1950  174.0490  140.1270 C   0  0  1  0  0  3  0  0  0  0  0  0
  180.0090  175.2790  139.7710 C   0  0  1  0  0  3  0  0  0  0  0  0
  179.5590  173.6250  141.5350 C   0  0  0  0  0  2  0  0  0  0  0  0
  178.9380  177.5690  139.7420 C   0  0  2  0  0  3  0  0  0  0  0  0
  179.4580  178.7500  138.9410 C   0  0  0  0  0  2  0  0  0  0  0  0
  180.2320  178.2860  140.1670 C   0  0  2  0  0  3  0  0  0  0  0  0
  181.5200  177.6170  139.7020 C   0  0  0  0  0  2  0  0  0  0  0  0
  182.5860  177.7840  140.7600 C   0  0  0  0  0  1  0  0  0  0  0  0
  1 26  1  6  0  0  0
  1  5  1  0  0  0  0
  2 22  2  0  0  0  0
  3 19  1  0  0  0  0
  3  8  1  1  0  0  0
  4 27  1  1  0  0  0
  4 20  1  0  0  0  0
  5 18  1  0  0  0  0
  5 23  1  1  0  0  0
  9 15  1  6  0  0  0
  9 14  1  0  0  0  0
 10 11  1  6  0  0  0
 10 21  1  0  0  0  0
 10  6  1  0  0  0  0
 12 26  1  6  0  0  0
 12 18  1  0  0  0  0
 13 40  1  1  0  0  0
 16 28  1  1  0  0  0
 16 27  1  0  0  0  0
 17 22  1  0  0  0  0
 17 12  1  0  0  0  0
 18 29  1  1  0  0  0
 19 24  1  1  0  0  0
 19  8  1  0  0  0  0
 19 14  1  0  0  0  0
 20 21  1  0  0  0  0
 21  7  2  0  0  0  0
 22 10  1  0  0  0  0
 23 13  1  0  0  0  0
 25 16  1  0  0  0  0
 25  3  1  0  0  0  0
 25  9  1  0  0  0  0
 29 13  1  0  0  0  0
 30  1  1  0  0  0  0
 30 24  1  0  0  0  0
 31 37  1  0  0  0  0
 31 34  1  0  0  0  0
 33 32  1  0  0  0  0
 34 33  1  0  0  0  0
 35 37  1  0  0  0  0
 35 36  1  0  0  0  0
 35 30  1  0  0  0  0
 36 33  1  0  0  0  0
 38 34  1  0  0  0  0
 39 38  1  0  0  0  0
 40 41  2  0  0  0  0
 40 42  1  0  0  0  0
 44  4  1  0  0  0  0
 44 45  1  0  0  0  0
 44 43  1  0  0  0  0
 45 43  1  0  0  0  0
 46 43  1  0  0  0  0
 46 47  1  0  0  0  0
 47 48  1  0  0  0  0
 48 53  1  0  0  0  0
 48 51  1  0  0  0  0
 49 52  1  0  0  0  0
 50 49  1  0  0  0  0
 50 52  1  0  0  0  0
 51 50  1  0  0  0  0
 51 49  1  0  0  0  0
 53 55  1  0  0  0  0
 54 53  1  0  0  0  0
 54 55  1  0  0  0  0
 56 55  1  0  0  0  0
 56 57  1  0  0  0  0
M  END
>  <MODEL>
7

>  <REMARK>
 VINA RESULT:      -4.8      2.714     10.650
  Name = 
  10 active torsions:
  status: ('A' for Active; 'I' for Inactive)
    1  A    between atoms: C_1  and  C_23
    2  A    between atoms: C_4  and  N_5
    3  A    between atoms: C_4  and  C_7
    4  A    between atoms: C_7  and  C_43
    5  A    between atoms: C_11  and  C_32
    6  A    between atoms: C_13  and  C_35
    7  A    between atoms: C_16  and  C_45
    8  A    between atoms: C_30  and  C_43
    9  A    between atoms: C_37  and  C_43
   10  A    between atoms: C_38  and  C_57
                            x       y       z     vdW  Elec       q    Type
                         _______ _______ _______ _____ _____    ______ ____

>  <TORSDO>
F 10

$$$$
=
 OpenBabel11062417373D

 57 66  0  0  1  0  0  0  0  0999 V2000
  189.8980  176.1820  136.9840 C   0  0  2  0  0  3  0  0  0  0  0  0
  185.9740  177.5290  135.7970 C   0  0  0  0  0  2  0  0  0  0  0  0
  187.0430  174.2820  135.6100 C   0  0  1  0  0  3  0  0  0  0  0  0
  183.4350  175.6670  136.7780 C   0  0  1  0  0  3  0  0  0  0  0  0
  189.2840  176.1450  138.3780 C   0  0  2  0  0  3  0  0  0  0  0  0
  185.6780  178.8990  139.1540 O   0  0  0  0  0  1  0  0  0  0  0  0
  185.6640  176.1320  139.1160 O   0  0  0  0  0  0  0  0  0  0  0  0
  186.9780  174.5650  136.9960 O   0  0  0  0  0  0  0  0  0  0  0  0
  186.0580  172.1110  136.0570 C   0  0  2  0  0  3  0  0  0  0  0  0
  185.1830  178.1940  138.0520 C   0  0  2  0  0  0  0  0  0  0  0  0
  183.9570  178.9430  137.5420 C   0  0  0  0  0  1  0  0  0  0  0  0
  188.7340  178.1920  137.3650 C   0  0  1  0  0  3  0  0  0  0  0  0
  190.5140  177.4350  139.9060 C   0  0  1  0  0  3  0  0  0  0  0  0
  187.1670  172.2470  136.9150 O   0  0  0  0  0  0  0  0  0  0  0  0
  186.2300  170.9920  135.2450 O   0  0  0  0  0  1  0  0  0  0  0  0
  184.5460  174.0160  135.2560 C   0  0  2  0  0  3  0  0  0  0  0  0
  187.4700  178.9930  137.0480 C   0  0  0  0  0  2  0  0  0  0  0  0
  188.5890  177.4170  138.5980 N   0  0  2  0  0  0  0  0  0  0  0  0
  187.7690  173.4750  136.6020 C   0  0  1  0  0  0  0  0  0  0  0  0
  183.4980  176.1620  138.2160 C   0  0  0  0  0  2  0  0  0  0  0  0
  184.8330  176.7890  138.5060 C   0  0  0  0  0  0  0  0  0  0  0  0
  186.2290  178.1480  136.9540 C   0  0  0  0  0  0  0  0  0  0  0  0
  190.3660  176.0260  139.4150 C   0  0  0  0  0  2  0  0  0  0  0  0
  189.2490  173.6670  136.9270 C   0  0  0  0  0  2  0  0  0  0  0  0
  185.9310  173.3590  135.1930 C   0  0  1  0  0  3  0  0  0  0  0  0
  189.1320  177.2480  136.2530 C   0  0  0  0  0  2  0  0  0  0  0  0
  184.0780  174.2900  136.6820 C   0  0  0  0  0  2  0  0  0  0  0  0
  183.6110  173.2120  134.6010 O   0  0  0  0  0  1  0  0  0  0  0  0
  189.2610  178.1240  139.6200 N   0  0  0  0  0  2  0  0  0  0  0  0
  189.8970  174.8580  136.2010 C   0  0  2  0  0  3  0  0  0  0  0  0
  193.1750  172.8390  135.9410 C   0  0  0  0  0  2  0  0  0  0  0  0
  194.0470  175.9390  137.9200 O   0  0  0  0  0  1  0  0  0  0  0  0
  193.1890  174.9690  137.3950 C   0  0  2  0  0  3  0  0  0  0  0  0
  193.9500  173.6950  136.9590 C   0  0  2  0  0  3  0  0  0  0  0  0
  191.3160  174.5330  135.7350 C   0  0  1  0  0  3  0  0  0  0  0  0
  192.3570  175.5500  136.2540 C   0  0  0  0  0  2  0  0  0  0  0  0
  191.6700  173.0660  136.0380 C   0  0  0  0  0  2  0  0  0  0  0  0
  195.3630  173.9690  136.4430 C   0  0  0  0  0  2  0  0  0  0  0  0
  196.3170  173.3570  137.2550 O   0  0  0  0  0  1  0  0  0  0  0  0
  190.7940  177.4510  141.3690 C   0  0  0  0  0  0  0  0  0  0  0  0
  192.0070  177.9270  141.8500 O   0  0  0  0  0  0  0  0  0  0  0  0
  189.9190  177.0440  142.1770 O   0  0  0  0  0  1  0  0  0  0  0  0
  181.2000  176.6120  137.0770 N   0  0  0  0  0  0  0  0  0  0  0  0
  181.9840  175.6200  136.3260 C   0  0  2  0  0  3  0  0  0  0  0  0
  181.1400  175.1900  137.4360 C   0  0  0  0  0  2  0  0  0  0  0  0
  180.0080  176.8820  136.2960 C   0  0  0  0  0  2  0  0  0  0  0  0
  179.9340  178.3700  135.9720 C   0  0  0  0  0  2  0  0  0  0  0  0
  179.5370  179.2090  137.1890 C   0  0  1  0  0  3  0  0  0  0  0  0
  180.2880  178.4330  139.4450 C   0  0  2  0  0  3  0  0  0  0  0  0
  178.9970  179.1860  139.6140 C   0  0  1  0  0  3  0  0  0  0  0  0
  179.2100  178.3230  138.3850 C   0  0  1  0  0  3  0  0  0  0  0  0
  179.6160  178.4840  140.8050 C   0  0  0  0  0  2  0  0  0  0  0  0
  180.6350  180.2280  137.5300 C   0  0  2  0  0  3  0  0  0  0  0  0
  180.0380  181.5980  137.8040 C   0  0  0  0  0  2  0  0  0  0  0  0
  180.8050  181.3670  136.5090 C   0  0  2  0  0  3  0  0  0  0  0  0
  179.8110  181.3490  135.3540 C   0  0  0  0  0  2  0  0  0  0  0  0
  179.1060  182.6830  135.2750 C   0  0  0  0  0  1  0  0  0  0  0  0
  1 26  1  6  0  0  0
  1  5  1  0  0  0  0
  2 22  2  0  0  0  0
  3 19  1  0  0  0  0
  3  8  1  1  0  0  0
  4 27  1  1  0  0  0
  4 20  1  0  0  0  0
  5 18  1  0  0  0  0
  5 23  1  1  0  0  0
  9 15  1  6  0  0  0
  9 14  1  0  0  0  0
 10 11  1  6  0  0  0
 10 21  1  0  0  0  0
 10  6  1  0  0  0  0
 12 26  1  6  0  0  0
 12 18  1  0  0  0  0
 13 40  1  1  0  0  0
 16 28  1  1  0  0  0
 16 27  1  0  0  0  0
 17 12  1  0  0  0  0
 18 29  1  1  0  0  0
 19 14  1  0  0  0  0
 19 24  1  1  0  0  0
 19  8  1  0  0  0  0
 20 21  1  0  0  0  0
 21  7  2  0  0  0  0
 22 17  1  0  0  0  0
 22 10  1  0  0  0  0
 23 13  1  0  0  0  0
 25 16  1  0  0  0  0
 25  3  1  0  0  0  0
 25  9  1  0  0  0  0
 29 13  1  0  0  0  0
 30 24  1  0  0  0  0
 30  1  1  0  0  0  0
 31 37  1  0  0  0  0
 31 34  1  0  0  0  0
 33 32  1  0  0  0  0
 34 33  1  0  0  0  0
 35 37  1  0  0  0  0
 35 30  1  0  0  0  0
 35 36  1  0  0  0  0
 36 33  1  0  0  0  0
 38 34  1  0  0  0  0
 38 39  1  0  0  0  0
 40 41  2  0  0  0  0
 40 42  1  0  0  0  0
 43 45  1  0  0  0  0
 44  4  1  0  0  0  0
 44 43  1  0  0  0  0
 44 45  1  0  0  0  0
 46 43  1  0  0  0  0
 47 46  1  0  0  0  0
 47 48  1  0  0  0  0
 48 53  1  0  0  0  0
 48 51  1  0  0  0  0
 49 50  1  0  0  0  0
 49 52  1  0  0  0  0
 50 52  1  0  0  0  0
 51 49  1  0  0  0  0
 51 50  1  0  0  0  0
 53 54  1  0  0  0  0
 55 53  1  0  0  0  0
 55 54  1  0  0  0  0
 56 55  1  0  0  0  0
 57 56  1  0  0  0  0
M  END
>  <MODEL>
8

>  <REMARK>
 VINA RESULT:      -4.2      2.769     10.739
  Name = 
  10 active torsions:
  status: ('A' for Active; 'I' for Inactive)
    1  A    between atoms: C_1  and  C_23
    2  A    between atoms: C_4  and  N_5
    3  A    between atoms: C_4  and  C_7
    4  A    between atoms: C_7  and  C_43
    5  A    between atoms: C_11  and  C_32
    6  A    between atoms: C_13  and  C_35
    7  A    between atoms: C_16  and  C_45
    8  A    between atoms: C_30  and  C_43
    9  A    between atoms: C_37  and  C_43
   10  A    between atoms: C_38  and  C_57
                            x       y       z     vdW  Elec       q    Type
                         _______ _______ _______ _____ _____    ______ ____

>  <TORSDO>
F 10

$$$$
=
 OpenBabel11062417373D

 57 66  0  0  1  0  0  0  0  0999 V2000
  181.5900  176.1440  136.6980 C   0  0  2  0  0  3  0  0  0  0  0  0
  184.2960  176.4050  140.0490 C   0  0  0  0  0  2  0  0  0  0  0  0
  185.2200  175.4820  136.8840 C   0  0  1  0  0  3  0  0  0  0  0  0
  187.1940  177.8700  139.4720 C   0  0  1  0  0  3  0  0  0  0  0  0
  181.8440  177.6420  136.5870 C   0  0  2  0  0  3  0  0  0  0  0  0
  183.1500  179.8380  140.4160 O   0  0  0  0  0  1  0  0  0  0  0  0
  184.6700  179.4490  138.1370 O   0  0  0  0  0  0  0  0  0  0  0  0
  184.8530  176.8450  136.7730 O   0  0  0  0  0  0  0  0  0  0  0  0
  187.1170  175.9250  135.4390 C   0  0  2  0  0  3  0  0  0  0  0  0
  184.1480  178.8600  140.3720 C   0  0  2  0  0  0  0  0  0  0  0  0
  184.8430  178.8530  141.7300 C   0  0  0  0  0  1  0  0  0  0  0  0
  181.3790  177.1200  138.8300 C   0  0  1  0  0  3  0  0  0  0  0  0
  179.8450  178.8710  136.6430 C   0  0  1  0  0  3  0  0  0  0  0  0
  185.9710  176.4110  134.7790 O   0  0  0  0  0  0  0  0  0  0  0  0
  187.7390  174.9630  134.6480 O   0  0  0  0  0  1  0  0  0  0  0  0
  187.4740  175.8810  137.9750 C   0  0  2  0  0  3  0  0  0  0  0  0
  182.0390  177.3130  140.1960 C   0  0  0  0  0  2  0  0  0  0  0  0
  181.6800  178.2280  137.9210 N   0  0  2  0  0  0  0  0  0  0  0  0
  184.8730  176.0890  135.5910 C   0  0  1  0  0  0  0  0  0  0  0  0
  186.5970  179.2700  139.4610 C   0  0  0  0  0  2  0  0  0  0  0  0
  185.1100  179.2150  139.2520 C   0  0  0  0  0  0  0  0  0  0  0  0
  183.5290  177.4970  140.1240 C   0  0  0  0  0  0  0  0  0  0  0  0
  180.8240  178.2720  135.6800 C   0  0  0  0  0  2  0  0  0  0  0  0
  183.4960  175.9660  134.9420 C   0  0  0  0  0  2  0  0  0  0  0  0
  186.7100  175.3110  136.7730 C   0  0  1  0  0  3  0  0  0  0  0  0
  181.7790  175.8280  138.1550 C   0  0  0  0  0  2  0  0  0  0  0  0
  187.4340  177.4050  138.0420 C   0  0  0  0  0  2  0  0  0  0  0  0
  188.8010  175.4470  137.9410 O   0  0  0  0  0  1  0  0  0  0  0  0
  180.5500  179.0750  137.9030 N   0  0  0  0  0  2  0  0  0  0  0  0
  182.4590  175.2360  135.8130 C   0  0  2  0  0  3  0  0  0  0  0  0
  179.1660  173.6320  134.6000 C   0  0  0  0  0  2  0  0  0  0  0  0
  180.9930  170.9060  136.4750 O   0  0  0  0  0  1  0  0  0  0  0  0
  180.6950  172.2260  136.1290 C   0  0  2  0  0  3  0  0  0  0  0  0
  179.3180  172.3480  135.4360 C   0  0  2  0  0  3  0  0  0  0  0  0
  181.5650  174.3180  134.9800 C   0  0  1  0  0  3  0  0  0  0  0  0
  181.8130  172.8220  135.2760 C   0  0  0  0  0  2  0  0  0  0  0  0
  180.0890  174.7420  135.0930 C   0  0  0  0  0  2  0  0  0  0  0  0
  178.9430  171.1280  134.5940 C   0  0  0  0  0  2  0  0  0  0  0  0
  179.2760  169.9450  135.2520 O   0  0  0  0  0  1  0  0  0  0  0  0
  179.3260  180.1660  136.1220 C   0  0  0  0  0  0  0  0  0  0  0  0
  178.9820  181.1920  136.9950 O   0  0  0  0  0  1  0  0  0  0  0  0
  179.2110  180.3390  134.8810 O   0  0  0  0  0  0  0  0  0  0  0  0
  188.2040  177.6970  141.6910 N   0  0  0  0  0  0  0  0  0  0  0  0
  188.4940  177.8840  140.2620 C   0  0  2  0  0  3  0  0  0  0  0  0
  188.5070  179.0330  141.1610 C   0  0  0  0  0  2  0  0  0  0  0  0
  189.4280  177.2210  142.3070 C   0  0  0  0  0  2  0  0  0  0  0  0
  189.6950  178.0050  143.5880 C   0  0  0  0  0  2  0  0  0  0  0  0
  189.3920  177.1820  144.8430 C   0  0  1  0  0  3  0  0  0  0  0  0
  191.6800  176.8920  145.8110 C   0  0  2  0  0  3  0  0  0  0  0  0
  190.7170  176.0870  146.6380 C   0  0  1  0  0  3  0  0  0  0  0  0
  190.5140  176.1940  145.1380 C   0  0  1  0  0  3  0  0  0  0  0  0
  192.2030  175.9910  146.9150 C   0  0  0  0  0  2  0  0  0  0  0  0
  189.1230  178.1000  146.0450 C   0  0  2  0  0  3  0  0  0  0  0  0
  188.5910  177.3070  147.2270 C   0  0  0  0  0  2  0  0  0  0  0  0
  187.6440  178.2170  146.4560 C   0  0  2  0  0  3  0  0  0  0  0  0
  186.6840  177.3480  145.6540 C   0  0  0  0  0  2  0  0  0  0  0  0
  185.6250  178.2190  145.0190 C   0  0  0  0  0  1  0  0  0  0  0  0
  1 26  1  1  0  0  0
  2 22  2  0  0  0  0
  3  8  1  1  0  0  0
  4 27  1  6  0  0  0
  4 44  1  0  0  0  0
  5 23  1  6  0  0  0
  5  1  1  0  0  0  0
  5 18  1  0  0  0  0
  7 21  2  0  0  0  0
  9 15  1  6  0  0  0
  9 25  1  0  0  0  0
 10  6  1  0  0  0  0
 10 11  1  1  0  0  0
 12 26  1  6  0  0  0
 12 17  1  0  0  0  0
 13 40  1  6  0  0  0
 13 29  1  0  0  0  0
 14  9  1  0  0  0  0
 14 19  1  0  0  0  0
 16 28  1  6  0  0  0
 16 27  1  0  0  0  0
 18 29  1  6  0  0  0
 18 12  1  0  0  0  0
 19 24  1  6  0  0  0
 19  8  1  0  0  0  0
 19  3  1  0  0  0  0
 20  4  1  0  0  0  0
 21 20  1  0  0  0  0
 21 10  1  0  0  0  0
 22 17  1  0  0  0  0
 22 10  1  0  0  0  0
 23 13  1  0  0  0  0
 24 30  1  0  0  0  0
 25  3  1  0  0  0  0
 25 16  1  0  0  0  0
 30  1  1  0  0  0  0
 31 37  1  0  0  0  0
 31 34  1  0  0  0  0
 33 32  1  0  0  0  0
 34 33  1  0  0  0  0
 35 37  1  0  0  0  0
 35 36  1  0  0  0  0
 35 30  1  0  0  0  0
 36 33  1  0  0  0  0
 38 39  1  0  0  0  0
 38 34  1  0  0  0  0
 40 41  1  0  0  0  0
 42 40  2  0  0  0  0
 43 46  1  0  0  0  0
 44 45  1  0  0  0  0
 44 43  1  0  0  0  0
 45 43  1  0  0  0  0
 46 47  1  0  0  0  0
 47 48  1  0  0  0  0
 48 51  1  0  0  0  0
 48 53  1  0  0  0  0
 49 50  1  0  0  0  0
 49 52  1  0  0  0  0
 50 52  1  0  0  0  0
 51 49  1  0  0  0  0
 51 50  1  0  0  0  0
 53 55  1  0  0  0  0
 53 54  1  0  0  0  0
 55 54  1  0  0  0  0
 56 55  1  0  0  0  0
 57 56  1  0  0  0  0
M  END
>  <MODEL>
9

>  <REMARK>
 VINA RESULT:      -4.0      4.167      7.463
  Name = 
  10 active torsions:
  status: ('A' for Active; 'I' for Inactive)
    1  A    between atoms: C_1  and  C_23
    2  A    between atoms: C_4  and  N_5
    3  A    between atoms: C_4  and  C_7
    4  A    between atoms: C_7  and  C_43
    5  A    between atoms: C_11  and  C_32
    6  A    between atoms: C_13  and  C_35
    7  A    between atoms: C_16  and  C_45
    8  A    between atoms: C_30  and  C_43
    9  A    between atoms: C_37  and  C_43
   10  A    between atoms: C_38  and  C_57
                            x       y       z     vdW  Elec       q    Type
                         _______ _______ _______ _____ _____    ______ ____

>  <TORSDO>
F 10

$$$$
