=
 OpenBabel11062417003D

 26 30  0  0  1  0  0  0  0  0999 V2000
  190.0800  176.7510  140.8910 C   0  0  0  0  0  2  0  0  0  0  0  0
  191.9800  178.4320  144.5980 S   0  0  0  0  0  0  0  0  0  0  0  0
  188.1910  177.3560  145.7400 C   0  0  0  0  0  0  0  0  0  0  0  0
  189.9990  178.5960  142.7050 C   0  0  1  0  0  3  0  0  0  0  0  0
  190.9250  179.4690  143.5400 C   0  0  0  0  0  2  0  0  0  0  0  0
  190.7530  177.9890  141.5100 C   0  0  0  0  0  2  0  0  0  0  0  0
  188.7000  176.5600  142.9000 N   0  0  0  0  0  0  0  0  0  0  0  0
  189.2960  177.5340  143.5200 C   0  0  0  0  0  0  0  0  0  0  0  0
  189.0900  176.3580  147.7100 O   0  0  0  0  0  0  0  0  0  0  0  0
  190.6120  177.9520  145.7140 C   0  0  1  0  0  3  0  0  0  0  0  0
  190.3510  176.9510  147.8350 C   0  0  0  0  0  2  0  0  0  0  0  0
  189.3140  177.5770  145.0070 C   0  0  0  0  0  0  0  0  0  0  0  0
  188.2460  177.3720  147.2440 C   0  0  0  0  0  2  0  0  0  0  0  0
  188.6750  176.5040  141.4410 C   0  0  0  0  0  2  0  0  0  0  0  0
  191.0670  176.8610  146.5690 N   0  0  0  0  0  2  0  0  0  0  0  0
  185.8230  177.4460  146.0000 O   0  0  0  0  0  0  0  0  0  0  0  0
  186.8540  177.0670  145.1160 C   0  0  1  0  0  3  0  0  0  0  0  0
  186.0740  178.3200  144.9280 C   0  0  1  0  0  3  0  0  0  0  0  0
  185.9080  179.4500  141.8950 C   0  0  0  0  0  1  0  0  0  0  0  0
  185.2570  178.1730  142.4130 C   0  0  1  0  0  3  0  0  0  0  0  0
  184.9100  178.2430  143.9180 C   0  0  2  0  0  3  0  0  0  0  0  0
  182.5720  178.9620  143.3730 C   0  0  0  0  0  2  0  0  0  0  0  0
  183.9910  177.8760  141.6080 C   0  0  0  0  0  2  0  0  0  0  0  0
  183.8150  179.2820  144.2010 C   0  0  1  0  0  3  0  0  0  0  0  0
  182.9040  178.9170  141.8850 C   0  0  0  0  0  2  0  0  0  0  0  0
  183.4720  179.2710  145.5540 O   0  0  0  0  0  1  0  0  0  0  0  0
  1 14  1  0  0  0  0
  1  6  1  0  0  0  0
  3 13  1  0  0  0  0
  4  6  1  6  0  0  0
  4  8  1  0  0  0  0
  4  5  1  0  0  0  0
  5  2  1  0  0  0  0
  7  8  2  0  0  0  0
  8 12  1  0  0  0  0
  9 11  1  0  0  0  0
 10  2  1  6  0  0  0
 10 15  1  0  0  0  0
 12 10  1  0  0  0  0
 12  3  2  0  0  0  0
 13  9  1  0  0  0  0
 14  7  1  0  0  0  0
 15 11  1  0  0  0  0
 17  3  1  1  0  0  0
 17 16  1  0  0  0  0
 18 17  1  0  0  0  0
 18 16  1  1  0  0  0
 20 19  1  6  0  0  0
 20 21  1  0  0  0  0
 21 24  1  0  0  0  0
 21 18  1  1  0  0  0
 22 24  1  0  0  0  0
 23 25  1  0  0  0  0
 23 20  1  0  0  0  0
 24 26  1  1  0  0  0
 25 22  1  0  0  0  0
M  END
>  <MODEL>
1

>  <REMARK>
 VINA RESULT:      -7.3      0.000      0.000
  Name = 
  2 active torsions:
  status: ('A' for Active; 'I' for Inactive)
    1  A    between atoms: C_5  and  C_18
    2  A    between atoms: C_6  and  C_23
                            x       y       z     vdW  Elec       q    Type
                         _______ _______ _______ _____ _____    ______ ____

>  <TORSDO>
F 2

$$$$
=
 OpenBabel11062417003D

 26 30  0  0  1  0  0  0  0  0999 V2000
  193.2430  176.3070  138.2820 C   0  0  0  0  0  2  0  0  0  0  0  0
  189.6450  175.2450  135.8100 S   0  0  0  0  0  0  0  0  0  0  0  0
  188.2520  177.8570  138.6480 C   0  0  0  0  0  0  0  0  0  0  0  0
  190.8890  175.2290  138.2580 C   0  0  1  0  0  3  0  0  0  0  0  0
  189.9920  174.3770  137.3700 C   0  0  0  0  0  2  0  0  0  0  0  0
  192.3510  175.1530  137.7870 C   0  0  0  0  0  2  0  0  0  0  0  0
  191.2210  177.5500  138.8690 N   0  0  0  0  0  0  0  0  0  0  0  0
  190.4130  176.6590  138.3760 C   0  0  0  0  0  0  0  0  0  0  0  0
  187.0350  179.0160  136.9560 O   0  0  0  0  0  0  0  0  0  0  0  0
  188.5410  176.4780  136.5920 C   0  0  1  0  0  3  0  0  0  0  0  0
  186.9530  178.0860  135.9130 C   0  0  0  0  0  2  0  0  0  0  0  0
  189.0580  177.0540  137.9050 C   0  0  0  0  0  0  0  0  0  0  0  0
  186.9000  178.2690  138.1320 C   0  0  0  0  0  2  0  0  0  0  0  0
  192.5540  177.1770  139.3330 C   0  0  0  0  0  2  0  0  0  0  0  0
  188.2760  177.5430  135.6300 N   0  0  0  0  0  2  0  0  0  0  0  0
  187.5240  178.9260  140.6510 O   0  0  0  0  0  0  0  0  0  0  0  0
  188.6530  178.3960  139.9930 C   0  0  1  0  0  3  0  0  0  0  0  0
  187.9590  177.6630  141.0870 C   0  0  1  0  0  3  0  0  0  0  0  0
  190.3560  175.9410  142.4250 C   0  0  0  0  0  1  0  0  0  0  0  0
  190.0830  177.4240  142.6500 C   0  0  1  0  0  3  0  0  0  0  0  0
  188.5900  177.7910  142.4890 C   0  0  2  0  0  3  0  0  0  0  0  0
  188.2400  177.5680  144.9600 C   0  0  0  0  0  2  0  0  0  0  0  0
  190.5640  177.8310  144.0440 C   0  0  0  0  0  2  0  0  0  0  0  0
  187.7250  177.1500  143.5840 C   0  0  1  0  0  3  0  0  0  0  0  0
  189.7060  177.1840  145.1340 C   0  0  0  0  0  2  0  0  0  0  0  0
  186.3960  177.5570  143.4560 O   0  0  0  0  0  1  0  0  0  0  0  0
  1 14  1  0  0  0  0
  2 10  1  0  0  0  0
  2  5  1  0  0  0  0
  4  5  1  6  0  0  0
  4  8  1  0  0  0  0
  6  4  1  0  0  0  0
  6  1  1  0  0  0  0
  7 14  1  0  0  0  0
  8  7  2  0  0  0  0
  9 13  1  0  0  0  0
 10 15  1  6  0  0  0
 10 12  1  0  0  0  0
 11  9  1  0  0  0  0
 12  8  1  0  0  0  0
 12  3  2  0  0  0  0
 13  3  1  0  0  0  0
 15 11  1  0  0  0  0
 17  3  1  6  0  0  0
 17 16  1  0  0  0  0
 17 18  1  0  0  0  0
 18 16  1  1  0  0  0
 20 19  1  1  0  0  0
 20 23  1  0  0  0  0
 21 18  1  6  0  0  0
 21 20  1  0  0  0  0
 21 24  1  0  0  0  0
 22 25  1  0  0  0  0
 23 25  1  0  0  0  0
 24 26  1  6  0  0  0
 24 22  1  0  0  0  0
M  END
>  <MODEL>
2

>  <REMARK>
 VINA RESULT:      -7.1      4.325      7.144
  Name = 
  2 active torsions:
  status: ('A' for Active; 'I' for Inactive)
    1  A    between atoms: C_5  and  C_18
    2  A    between atoms: C_6  and  C_23
                            x       y       z     vdW  Elec       q    Type
                         _______ _______ _______ _____ _____    ______ ____

>  <TORSDO>
F 2

$$$$
=
 OpenBabel11062417003D

 26 30  0  0  1  0  0  0  0  0999 V2000
  184.7610  179.5420  143.5340 C   0  0  0  0  0  2  0  0  0  0  0  0
  188.2240  177.9290  145.8980 S   0  0  0  0  0  0  0  0  0  0  0  0
  189.2660  177.3700  141.9710 C   0  0  0  0  0  0  0  0  0  0  0  0
  186.1940  177.4640  144.1090 C   0  0  1  0  0  3  0  0  0  0  0  0
  186.9200  176.8200  145.2830 C   0  0  0  0  0  2  0  0  0  0  0  0
  185.1900  178.5180  144.6020 C   0  0  0  0  0  2  0  0  0  0  0  0
  186.6650  178.8380  142.1710 N   0  0  0  0  0  0  0  0  0  0  0  0
  187.1380  178.0310  143.0720 C   0  0  0  0  0  0  0  0  0  0  0  0
  191.4460  178.2090  142.4500 O   0  0  0  0  0  0  0  0  0  0  0  0
  189.3070  177.6720  144.4450 C   0  0  1  0  0  3  0  0  0  0  0  0
  191.5520  178.0790  143.8400 C   0  0  0  0  0  2  0  0  0  0  0  0
  188.5880  177.7040  143.1010 C   0  0  0  0  0  0  0  0  0  0  0  0
  190.7410  177.0780  142.0240 C   0  0  0  0  0  2  0  0  0  0  0  0
  185.2440  179.1700  142.1320 C   0  0  0  0  0  2  0  0  0  0  0  0
  190.3790  178.6610  144.4810 N   0  0  0  0  0  2  0  0  0  0  0  0
  188.6400  178.5610  140.0020 O   0  0  0  0  0  0  0  0  0  0  0  0
  188.6100  177.2940  140.6200 C   0  0  1  0  0  3  0  0  0  0  0  0
  189.5800  177.6230  139.5400 C   0  0  1  0  0  3  0  0  0  0  0  0
  191.1650  175.6530  137.5140 C   0  0  0  0  0  1  0  0  0  0  0  0
  189.6520  175.7590  137.6610 C   0  0  1  0  0  3  0  0  0  0  0  0
  189.1890  177.1600  138.1210 C   0  0  2  0  0  3  0  0  0  0  0  0
  188.7940  177.8410  135.7420 C   0  0  0  0  0  2  0  0  0  0  0  0
  188.9790  175.4060  136.3330 C   0  0  0  0  0  2  0  0  0  0  0  0
  189.4700  178.2300  137.0550 C   0  0  1  0  0  3  0  0  0  0  0  0
  189.2670  176.4690  135.2700 C   0  0  0  0  0  2  0  0  0  0  0  0
  188.9760  179.4690  137.4680 O   0  0  0  0  0  1  0  0  0  0  0  0
  1  6  1  0  0  0  0
  3 13  1  0  0  0  0
  3 12  2  0  0  0  0
  4  6  1  1  0  0  0
  4  5  1  0  0  0  0
  5  2  1  0  0  0  0
  7  8  2  0  0  0  0
  8 12  1  0  0  0  0
  8  4  1  0  0  0  0
  9 11  1  0  0  0  0
 10 12  1  6  0  0  0
 10 15  1  0  0  0  0
 10  2  1  0  0  0  0
 11 15  1  0  0  0  0
 13  9  1  0  0  0  0
 14  7  1  0  0  0  0
 14  1  1  0  0  0  0
 16 17  1  0  0  0  0
 17  3  1  1  0  0  0
 18 16  1  6  0  0  0
 18 17  1  0  0  0  0
 20 19  1  6  0  0  0
 20 21  1  0  0  0  0
 21 18  1  1  0  0  0
 22 24  1  0  0  0  0
 23 20  1  0  0  0  0
 24 26  1  1  0  0  0
 24 21  1  0  0  0  0
 25 22  1  0  0  0  0
 25 23  1  0  0  0  0
M  END
>  <MODEL>
3

>  <REMARK>
 VINA RESULT:      -7.1      3.708      6.194
  Name = 
  2 active torsions:
  status: ('A' for Active; 'I' for Inactive)
    1  A    between atoms: C_5  and  C_18
    2  A    between atoms: C_6  and  C_23
                            x       y       z     vdW  Elec       q    Type
                         _______ _______ _______ _____ _____    ______ ____

>  <TORSDO>
F 2

$$$$
=
 OpenBabel11062417003D

 26 30  0  0  1  0  0  0  0  0999 V2000
  189.0560  178.1460  136.5160 C   0  0  0  0  0  2  0  0  0  0  0  0
  184.8290  176.6340  136.3450 S   0  0  0  0  0  0  0  0  0  0  0  0
  185.1410  178.5100  139.9780 C   0  0  0  0  0  0  0  0  0  0  0  0
  187.2810  176.5910  137.5800 C   0  0  1  0  0  3  0  0  0  0  0  0
  186.1270  175.6780  137.1880 C   0  0  0  0  0  2  0  0  0  0  0  0
  188.1710  176.8950  136.3640 C   0  0  0  0  0  2  0  0  0  0  0  0
  187.6680  178.8350  138.4070 N   0  0  0  0  0  0  0  0  0  0  0  0
  186.8240  177.8560  138.2690 C   0  0  0  0  0  0  0  0  0  0  0  0
  183.0420  179.5720  139.5870 O   0  0  0  0  0  0  0  0  0  0  0  0
  184.2890  177.4900  137.8690 C   0  0  1  0  0  3  0  0  0  0  0  0
  182.4520  178.7820  138.5940 C   0  0  0  0  0  2  0  0  0  0  0  0
  185.4240  177.9990  138.7500 C   0  0  0  0  0  0  0  0  0  0  0  0
  183.7140  178.6750  140.4260 C   0  0  0  0  0  2  0  0  0  0  0  0
  189.0440  178.7090  137.9370 C   0  0  0  0  0  2  0  0  0  0  0  0
  183.3930  178.5810  137.4990 N   0  0  0  0  0  2  0  0  0  0  0  0
  185.6200  179.2920  142.1790 O   0  0  0  0  0  0  0  0  0  0  0  0
  186.2070  178.9540  140.9420 C   0  0  1  0  0  3  0  0  0  0  0  0
  186.2690  178.0460  142.1190 C   0  0  1  0  0  3  0  0  0  0  0  0
  189.1770  176.7780  141.4600 C   0  0  0  0  0  1  0  0  0  0  0  0
  188.9150  178.0940  142.1830 C   0  0  1  0  0  3  0  0  0  0  0  0
  187.5700  178.1040  142.9460 C   0  0  2  0  0  3  0  0  0  0  0  0
  188.7310  177.4170  145.0570 C   0  0  0  0  0  2  0  0  0  0  0  0
  190.0590  178.3830  143.1560 C   0  0  0  0  0  2  0  0  0  0  0  0
  187.5710  177.1060  144.1130 C   0  0  1  0  0  3  0  0  0  0  0  0
  190.0630  177.3830  144.3150 C   0  0  0  0  0  2  0  0  0  0  0  0
  186.3740  177.1900  144.8250 O   0  0  0  0  0  1  0  0  0  0  0  0
  1 14  1  0  0  0  0
  2  5  1  0  0  0  0
  3 13  1  0  0  0  0
  4  6  1  6  0  0  0
  4  8  1  0  0  0  0
  5  4  1  0  0  0  0
  6  1  1  0  0  0  0
  8  7  2  0  0  0  0
  8 12  1  0  0  0  0
  9 13  1  0  0  0  0
 10  2  1  6  0  0  0
 10 12  1  0  0  0  0
 11  9  1  0  0  0  0
 12  3  2  0  0  0  0
 14  7  1  0  0  0  0
 15 10  1  0  0  0  0
 15 11  1  0  0  0  0
 17  3  1  6  0  0  0
 17 18  1  0  0  0  0
 17 16  1  0  0  0  0
 18 16  1  1  0  0  0
 20 19  1  1  0  0  0
 20 21  1  0  0  0  0
 20 23  1  0  0  0  0
 21 18  1  6  0  0  0
 21 24  1  0  0  0  0
 23 25  1  0  0  0  0
 24 26  1  1  0  0  0
 24 22  1  0  0  0  0
 25 22  1  0  0  0  0
M  END
>  <MODEL>
4

>  <REMARK>
 VINA RESULT:      -6.4      4.088      7.098
  Name = 
  2 active torsions:
  status: ('A' for Active; 'I' for Inactive)
    1  A    between atoms: C_5  and  C_18
    2  A    between atoms: C_6  and  C_23
                            x       y       z     vdW  Elec       q    Type
                         _______ _______ _______ _____ _____    ______ ____

>  <TORSDO>
F 2

$$$$
=
 OpenBabel11062417003D

 26 30  0  0  1  0  0  0  0  0999 V2000
  185.2010  178.2460  137.7820 C   0  0  0  0  0  2  0  0  0  0  0  0
  181.0950  177.3600  139.3740 S   0  0  0  0  0  0  0  0  0  0  0  0
  183.2230  178.7030  142.6120 C   0  0  0  0  0  0  0  0  0  0  0  0
  183.7870  176.8270  139.4220 C   0  0  1  0  0  3  0  0  0  0  0  0
  182.4330  176.1370  139.5190 C   0  0  0  0  0  2  0  0  0  0  0  0
  184.1260  177.1580  137.9590 C   0  0  0  0  0  2  0  0  0  0  0  0
  184.8760  178.8750  140.1220 N   0  0  0  0  0  0  0  0  0  0  0  0
  183.8920  178.0460  140.3100 C   0  0  0  0  0  0  0  0  0  0  0  0
  181.3790  180.0830  143.2280 O   0  0  0  0  0  0  0  0  0  0  0  0
  181.4020  178.0830  141.0280 C   0  0  1  0  0  3  0  0  0  0  0  0
  180.2980  179.5120  142.5460 C   0  0  0  0  0  2  0  0  0  0  0  0
  182.8710  178.3170  141.3570 C   0  0  0  0  0  0  0  0  0  0  0  0
  182.1680  179.0040  143.6420 C   0  0  0  0  0  2  0  0  0  0  0  0
  185.8840  178.6230  139.0970 C   0  0  0  0  0  2  0  0  0  0  0  0
  180.6430  179.3240  141.1430 N   0  0  0  0  0  2  0  0  0  0  0  0
  184.7890  180.0540  143.7990 O   0  0  0  0  0  0  0  0  0  0  0  0
  184.6540  178.8720  143.0420 C   0  0  1  0  0  3  0  0  0  0  0  0
  184.7690  178.8510  144.5260 C   0  0  1  0  0  3  0  0  0  0  0  0
  186.8050  176.4280  143.8310 C   0  0  0  0  0  1  0  0  0  0  0  0
  187.1980  177.8630  144.1650 C   0  0  1  0  0  3  0  0  0  0  0  0
  186.1770  178.5670  145.0880 C   0  0  2  0  0  3  0  0  0  0  0  0
  187.5300  177.9490  147.1040 C   0  0  0  0  0  2  0  0  0  0  0  0
  188.5790  177.8780  144.8230 C   0  0  0  0  0  2  0  0  0  0  0  0
  186.1350  177.9260  146.4830 C   0  0  1  0  0  3  0  0  0  0  0  0
  188.5380  177.2330  146.2100 C   0  0  0  0  0  2  0  0  0  0  0  0
  185.2590  178.6270  147.3140 O   0  0  0  0  0  1  0  0  0  0  0  0
  1  6  1  0  0  0  0
  1 14  1  0  0  0  0
  2  5  1  0  0  0  0
  3 13  1  0  0  0  0
  4  6  1  6  0  0  0
  4  5  1  0  0  0  0
  4  8  1  0  0  0  0
  7  8  2  0  0  0  0
  8 12  1  0  0  0  0
  9 13  1  0  0  0  0
 10  2  1  6  0  0  0
 10 15  1  0  0  0  0
 10 12  1  0  0  0  0
 11  9  1  0  0  0  0
 12  3  2  0  0  0  0
 14  7  1  0  0  0  0
 15 11  1  0  0  0  0
 17  3  1  1  0  0  0
 17 16  1  0  0  0  0
 17 18  1  0  0  0  0
 18 16  1  6  0  0  0
 20 19  1  1  0  0  0
 20 23  1  0  0  0  0
 20 21  1  0  0  0  0
 21 18  1  6  0  0  0
 21 24  1  0  0  0  0
 23 25  1  0  0  0  0
 24 22  1  0  0  0  0
 24 26  1  1  0  0  0
 25 22  1  0  0  0  0
M  END
>  <MODEL>
5

>  <REMARK>
 VINA RESULT:      -6.4      3.791      7.059
  Name = 
  2 active torsions:
  status: ('A' for Active; 'I' for Inactive)
    1  A    between atoms: C_5  and  C_18
    2  A    between atoms: C_6  and  C_23
                            x       y       z     vdW  Elec       q    Type
                         _______ _______ _______ _____ _____    ______ ____

>  <TORSDO>
F 2

$$$$
=
 OpenBabel11062417003D

 26 30  0  0  1  0  0  0  0  0999 V2000
  187.9330  178.7060  148.6060 C   0  0  0  0  0  2  0  0  0  0  0  0
  191.3060  177.1420  146.0850 S   0  0  0  0  0  0  0  0  0  0  0  0
  188.0510  177.2000  143.5900 C   0  0  0  0  0  0  0  0  0  0  0  0
  188.8410  176.7190  147.2170 C   0  0  1  0  0  3  0  0  0  0  0  0
  190.1460  176.0020  146.8990 C   0  0  0  0  0  2  0  0  0  0  0  0
  188.9940  177.5990  148.4690 C   0  0  0  0  0  2  0  0  0  0  0  0
  187.3550  178.3720  146.2540 N   0  0  0  0  0  0  0  0  0  0  0  0
  188.2980  177.5040  146.0440 C   0  0  0  0  0  0  0  0  0  0  0  0
  189.4010  178.1760  141.8830 O   0  0  0  0  0  0  0  0  0  0  0  0
  190.3660  177.1810  144.5140 C   0  0  1  0  0  3  0  0  0  0  0  0
  190.7080  177.8780  142.2860 C   0  0  0  0  0  2  0  0  0  0  0  0
  188.8570  177.3170  144.6780 C   0  0  0  0  0  0  0  0  0  0  0  0
  188.6440  177.0470  142.2150 C   0  0  0  0  0  2  0  0  0  0  0  0
  186.7990  178.5680  147.5900 C   0  0  0  0  0  2  0  0  0  0  0  0
  190.8940  178.2560  143.6810 N   0  0  0  0  0  2  0  0  0  0  0  0
  186.1330  178.4750  144.2070 O   0  0  0  0  0  0  0  0  0  0  0  0
  186.5500  177.2370  143.6780 C   0  0  1  0  0  3  0  0  0  0  0  0
  185.9940  178.3160  142.8180 C   0  0  1  0  0  3  0  0  0  0  0  0
  184.4730  179.0490  140.0520 C   0  0  0  0  0  1  0  0  0  0  0  0
  184.1240  177.8990  140.9900 C   0  0  1  0  0  3  0  0  0  0  0  0
  184.4980  178.1890  142.4620 C   0  0  2  0  0  3  0  0  0  0  0  0
  182.1710  178.9930  142.9240 C   0  0  0  0  0  2  0  0  0  0  0  0
  182.6290  177.5890  140.8920 C   0  0  0  0  0  2  0  0  0  0  0  0
  183.6550  179.3310  143.0480 C   0  0  1  0  0  3  0  0  0  0  0  0
  181.7900  178.7310  141.4700 C   0  0  0  0  0  2  0  0  0  0  0  0
  183.9640  179.5200  144.3960 O   0  0  0  0  0  1  0  0  0  0  0  0
  2  5  1  0  0  0  0
  3 12  2  0  0  0  0
  4  5  1  6  0  0  0
  4  6  1  0  0  0  0
  6  1  1  0  0  0  0
  7 14  1  0  0  0  0
  8  7  2  0  0  0  0
  8  4  1  0  0  0  0
  9 13  1  0  0  0  0
  9 11  1  0  0  0  0
 10 15  1  6  0  0  0
 10 12  1  0  0  0  0
 10  2  1  0  0  0  0
 11 15  1  0  0  0  0
 12  8  1  0  0  0  0
 13  3  1  0  0  0  0
 14  1  1  0  0  0  0
 17  3  1  6  0  0  0
 17 16  1  0  0  0  0
 18 17  1  0  0  0  0
 18 16  1  1  0  0  0
 20 19  1  6  0  0  0
 20 21  1  0  0  0  0
 21 18  1  6  0  0  0
 21 24  1  0  0  0  0
 22 24  1  0  0  0  0
 23 20  1  0  0  0  0
 23 25  1  0  0  0  0
 24 26  1  1  0  0  0
 25 22  1  0  0  0  0
M  END
>  <MODEL>
6

>  <REMARK>
 VINA RESULT:      -5.9      1.921      3.844
  Name = 
  2 active torsions:
  status: ('A' for Active; 'I' for Inactive)
    1  A    between atoms: C_5  and  C_18
    2  A    between atoms: C_6  and  C_23
                            x       y       z     vdW  Elec       q    Type
                         _______ _______ _______ _____ _____    ______ ____

>  <TORSDO>
F 2

$$$$
=
 OpenBabel11062417003D

 26 30  0  0  1  0  0  0  0  0999 V2000
  191.5830  175.0110  144.4070 C   0  0  0  0  0  2  0  0  0  0  0  0
  189.3080  178.1460  146.6830 S   0  0  0  0  0  0  0  0  0  0  0  0
  187.3330  177.7840  143.1070 C   0  0  0  0  0  0  0  0  0  0  0  0
  190.8030  177.4780  144.4780 C   0  0  1  0  0  3  0  0  0  0  0  0
  190.5770  178.6150  145.4660 C   0  0  0  0  0  2  0  0  0  0  0  0
  191.6800  176.3810  145.1030 C   0  0  0  0  0  2  0  0  0  0  0  0
  189.5470  175.7790  143.2930 N   0  0  0  0  0  0  0  0  0  0  0  0
  189.5140  176.9150  143.9230 C   0  0  0  0  0  0  0  0  0  0  0  0
  185.2560  177.7650  144.2790 O   0  0  0  0  0  0  0  0  0  0  0  0
  187.9320  178.2520  145.4810 C   0  0  1  0  0  3  0  0  0  0  0  0
  185.5730  178.3240  145.5220 C   0  0  0  0  0  2  0  0  0  0  0  0
  188.2230  177.6250  144.1220 C   0  0  0  0  0  0  0  0  0  0  0  0
  186.0180  178.4770  143.3460 C   0  0  0  0  0  2  0  0  0  0  0  0
  190.8070  175.0690  143.0920 C   0  0  0  0  0  2  0  0  0  0  0  0
  186.7420  177.6560  146.0800 N   0  0  0  0  0  2  0  0  0  0  0  0
  187.2130  178.2530  140.7730 O   0  0  0  0  0  0  0  0  0  0  0  0
  187.5830  177.2720  141.7160 C   0  0  1  0  0  3  0  0  0  0  0  0
  188.5900  178.1130  141.0140 C   0  0  1  0  0  3  0  0  0  0  0  0
  191.7280  177.5030  140.4800 C   0  0  0  0  0  1  0  0  0  0  0  0
  190.5550  176.6480  140.0120 C   0  0  1  0  0  3  0  0  0  0  0  0
  189.2650  177.4700  139.7850 C   0  0  2  0  0  3  0  0  0  0  0  0
  189.8030  177.6930  137.3480 C   0  0  0  0  0  2  0  0  0  0  0  0
  190.9320  175.9190  138.7210 C   0  0  0  0  0  2  0  0  0  0  0  0
  189.4160  178.4530  138.6150 C   0  0  1  0  0  3  0  0  0  0  0  0
  191.0900  176.9010  137.5580 C   0  0  0  0  0  2  0  0  0  0  0  0
  188.2150  179.1270  138.3880 O   0  0  0  0  0  1  0  0  0  0  0  0
  1  6  1  0  0  0  0
  3 13  1  0  0  0  0
  3 12  2  0  0  0  0
  4  6  1  1  0  0  0
  4  5  1  0  0  0  0
  5  2  1  0  0  0  0
  7  8  2  0  0  0  0
  8 12  1  0  0  0  0
  8  4  1  0  0  0  0
  9 11  1  0  0  0  0
 10 12  1  6  0  0  0
 10 15  1  0  0  0  0
 10  2  1  0  0  0  0
 11 15  1  0  0  0  0
 13  9  1  0  0  0  0
 14  7  1  0  0  0  0
 14  1  1  0  0  0  0
 16 17  1  0  0  0  0
 17  3  1  1  0  0  0
 18 16  1  6  0  0  0
 18 17  1  0  0  0  0
 20 19  1  6  0  0  0
 21 20  1  0  0  0  0
 21 18  1  1  0  0  0
 22 25  1  0  0  0  0
 22 24  1  0  0  0  0
 23 20  1  0  0  0  0
 24 26  1  6  0  0  0
 24 21  1  0  0  0  0
 25 23  1  0  0  0  0
M  END
>  <MODEL>
7

>  <REMARK>
 VINA RESULT:      -5.7      2.867      5.324
  Name = 
  2 active torsions:
  status: ('A' for Active; 'I' for Inactive)
    1  A    between atoms: C_5  and  C_18
    2  A    between atoms: C_6  and  C_23
                            x       y       z     vdW  Elec       q    Type
                         _______ _______ _______ _____ _____    ______ ____

>  <TORSDO>
F 2

$$$$
=
 OpenBabel11062417003D

 26 30  0  0  1  0  0  0  0  0999 V2000
  191.6770  178.7590  143.9720 C   0  0  0  0  0  2  0  0  0  0  0  0
  191.2690  176.3530  140.2000 S   0  0  0  0  0  0  0  0  0  0  0  0
  187.7560  178.4460  140.5110 C   0  0  0  0  0  0  0  0  0  0  0  0
  190.3550  176.9130  142.7270 C   0  0  1  0  0  3  0  0  0  0  0  0
  190.5730  175.7510  141.7680 C   0  0  0  0  0  2  0  0  0  0  0  0
  191.6820  177.3390  143.3770 C   0  0  0  0  0  2  0  0  0  0  0  0
  189.6440  179.2290  142.6980 N   0  0  0  0  0  0  0  0  0  0  0  0
  189.6470  178.0840  142.0840 C   0  0  0  0  0  0  0  0  0  0  0  0
  187.9050  179.0010  138.1980 O   0  0  0  0  0  0  0  0  0  0  0  0
  189.7110  177.1520  139.6660 C   0  0  1  0  0  3  0  0  0  0  0  0
  188.7930  178.0490  137.6850 C   0  0  0  0  0  2  0  0  0  0  0  0
  188.9960  177.9430  140.7540 C   0  0  0  0  0  0  0  0  0  0  0  0
  187.1350  178.3190  139.1470 C   0  0  0  0  0  2  0  0  0  0  0  0
  190.2810  179.3820  144.0030 C   0  0  0  0  0  2  0  0  0  0  0  0
  189.9930  177.9990  138.5120 N   0  0  0  0  0  2  0  0  0  0  0  0
  185.5850  179.1570  141.1950 O   0  0  0  0  0  0  0  0  0  0  0  0
  186.9480  179.1630  141.5570 C   0  0  1  0  0  3  0  0  0  0  0  0
  185.9660  178.2430  142.1930 C   0  0  1  0  0  3  0  0  0  0  0  0
  186.4350  176.9840  145.1410 C   0  0  0  0  0  1  0  0  0  0  0  0
  186.2570  178.4620  144.8150 C   0  0  1  0  0  3  0  0  0  0  0  0
  185.3970  178.7000  143.5520 C   0  0  2  0  0  3  0  0  0  0  0  0
  183.3480  178.9810  144.9650 C   0  0  0  0  0  2  0  0  0  0  0  0
  185.6240  179.1800  146.0080 C   0  0  0  0  0  2  0  0  0  0  0  0
  183.9430  178.2540  143.7620 C   0  0  1  0  0  3  0  0  0  0  0  0
  184.1780  178.7290  146.2210 C   0  0  0  0  0  2  0  0  0  0  0  0
  183.1770  178.5480  142.6320 O   0  0  0  0  0  1  0  0  0  0  0  0
  1 14  1  0  0  0  0
  2  5  1  0  0  0  0
  3 12  2  0  0  0  0
  4  5  1  6  0  0  0
  4  6  1  0  0  0  0
  6  1  1  0  0  0  0
  7 14  1  0  0  0  0
  8  7  2  0  0  0  0
  8  4  1  0  0  0  0
  9 13  1  0  0  0  0
 10 15  1  6  0  0  0
 10  2  1  0  0  0  0
 10 12  1  0  0  0  0
 11  9  1  0  0  0  0
 11 15  1  0  0  0  0
 12  8  1  0  0  0  0
 13  3  1  0  0  0  0
 16 17  1  0  0  0  0
 17  3  1  6  0  0  0
 17 18  1  0  0  0  0
 18 16  1  6  0  0  0
 20 19  1  1  0  0  0
 20 23  1  0  0  0  0
 21 18  1  6  0  0  0
 21 24  1  0  0  0  0
 21 20  1  0  0  0  0
 22 25  1  0  0  0  0
 23 25  1  0  0  0  0
 24 26  1  6  0  0  0
 24 22  1  0  0  0  0
M  END
>  <MODEL>
8

>  <REMARK>
 VINA RESULT:      -5.6      2.859      5.005
  Name = 
  2 active torsions:
  status: ('A' for Active; 'I' for Inactive)
    1  A    between atoms: C_5  and  C_18
    2  A    between atoms: C_6  and  C_23
                            x       y       z     vdW  Elec       q    Type
                         _______ _______ _______ _____ _____    ______ ____

>  <TORSDO>
F 2

$$$$
=
 OpenBabel11062417003D

 26 30  0  0  1  0  0  0  0  0999 V2000
  185.2470  179.0800  146.1540 C   0  0  0  0  0  2  0  0  0  0  0  0
  189.4870  177.9450  147.1110 S   0  0  0  0  0  0  0  0  0  0  0  0
  189.1560  177.4890  143.0490 C   0  0  0  0  0  0  0  0  0  0  0  0
  187.0350  177.2080  146.1210 C   0  0  1  0  0  3  0  0  0  0  0  0
  188.1970  176.6730  146.9470 C   0  0  0  0  0  2  0  0  0  0  0  0
  186.1430  178.1300  146.9690 C   0  0  0  0  0  2  0  0  0  0  0  0
  186.6280  178.6140  144.1910 N   0  0  0  0  0  0  0  0  0  0  0  0
  187.4800  177.8820  144.8430 C   0  0  0  0  0  0  0  0  0  0  0  0
  191.2450  178.6030  142.7730 O   0  0  0  0  0  0  0  0  0  0  0  0
  190.0190  177.8150  145.3650 C   0  0  1  0  0  3  0  0  0  0  0  0
  191.8440  178.5000  144.0340 C   0  0  0  0  0  2  0  0  0  0  0  0
  188.8790  177.7430  144.3550 C   0  0  0  0  0  0  0  0  0  0  0  0
  190.5810  177.3870  142.5760 C   0  0  0  0  0  2  0  0  0  0  0  0
  185.2530  178.7610  144.6590 C   0  0  0  0  0  2  0  0  0  0  0  0
  190.9050  178.9340  145.0620 N   0  0  0  0  0  2  0  0  0  0  0  0
  187.5550  178.5750  141.6540 O   0  0  0  0  0  0  0  0  0  0  0  0
  188.0850  177.3160  142.0070 C   0  0  1  0  0  3  0  0  0  0  0  0
  188.4600  178.0050  140.7420 C   0  0  1  0  0  3  0  0  0  0  0  0
  189.4150  178.0470  137.6460 C   0  0  0  0  0  1  0  0  0  0  0  0
  188.5240  176.9940  138.2960 C   0  0  1  0  0  3  0  0  0  0  0  0
  187.6990  177.5520  139.4790 C   0  0  2  0  0  3  0  0  0  0  0  0
  185.7480  177.9630  137.9610 C   0  0  0  0  0  2  0  0  0  0  0  0
  187.5810  176.4000  137.2480 C   0  0  0  0  0  2  0  0  0  0  0  0
  186.6640  178.5860  139.0130 C   0  0  1  0  0  3  0  0  0  0  0  0
  186.5550  177.4340  136.7790 C   0  0  0  0  0  2  0  0  0  0  0  0
  185.8880  179.0160  140.0900 O   0  0  0  0  0  1  0  0  0  0  0  0
  1  6  1  0  0  0  0
  3 12  2  0  0  0  0
  4  5  1  1  0  0  0
  4  6  1  0  0  0  0
  5  2  1  0  0  0  0
  7 14  1  0  0  0  0
  7  8  2  0  0  0  0
  8  4  1  0  0  0  0
  9 11  1  0  0  0  0
 10 12  1  6  0  0  0
 10  2  1  0  0  0  0
 11 15  1  0  0  0  0
 12  8  1  0  0  0  0
 13  9  1  0  0  0  0
 13  3  1  0  0  0  0
 14  1  1  0  0  0  0
 15 10  1  0  0  0  0
 16 17  1  0  0  0  0
 17  3  1  1  0  0  0
 18 16  1  1  0  0  0
 18 17  1  0  0  0  0
 20 19  1  6  0  0  0
 20 21  1  0  0  0  0
 21 18  1  1  0  0  0
 22 24  1  0  0  0  0
 23 20  1  0  0  0  0
 24 21  1  0  0  0  0
 24 26  1  1  0  0  0
 25 23  1  0  0  0  0
 25 22  1  0  0  0  0
M  END
>  <MODEL>
9

>  <REMARK>
 VINA RESULT:      -5.3      3.050      4.972
  Name = 
  2 active torsions:
  status: ('A' for Active; 'I' for Inactive)
    1  A    between atoms: C_5  and  C_18
    2  A    between atoms: C_6  and  C_23
                            x       y       z     vdW  Elec       q    Type
                         _______ _______ _______ _____ _____    ______ ____

>  <TORSDO>
F 2

$$$$
