=
 OpenBabel11062415203D

 70 72  0  0  1  0  0  0  0  0999 V2000
  183.1610  177.8920  137.5800 C   0  0  2  0  0  3  0  0  0  0  0  0
  181.1870  176.3540  137.9820 C   0  0  0  0  0  2  0  0  0  0  0  0
  185.6020  177.0020  137.8220 C   0  0  2  0  0  3  0  0  0  0  0  0
  185.6250  174.7360  135.2890 C   0  0  0  0  0  1  0  0  0  0  0  0
  181.6350  174.9530  137.6200 C   0  0  0  0  0  0  0  0  0  0  0  0
  182.9660  174.6520  137.2910 O   0  0  0  0  0  0  0  0  0  0  0  0
  181.7850  177.4270  137.0790 C   0  0  0  0  0  2  0  0  0  0  0  0
  185.3310  175.0000  136.7510 C   0  0  2  0  0  0  0  0  0  0  0  0
  186.2890  175.9020  137.2640 O   0  0  0  0  0  0  0  0  0  0  0  0
  180.7900  173.9670  137.6720 N   0  0  0  0  0  0  0  0  0  0  0  0
  185.4220  173.7950  137.4530 O   0  0  0  0  0  1  0  0  0  0  0  0
  183.9420  175.6080  136.8760 C   0  0  2  0  0  3  0  0  0  0  0  0
  184.1030  176.7040  137.8830 C   0  0  2  0  0  3  0  0  0  0  0  0
  179.3870  174.1030  138.0490 C   0  0  0  0  0  2  0  0  0  0  0  0
  178.9320  172.8630  138.7980 C   0  0  0  0  0  1  0  0  0  0  0  0
  182.9870  178.8690  138.7580 C   0  0  2  0  0  3  0  0  0  0  0  0
  184.0990  178.6310  139.7900 C   0  0  0  0  0  2  0  0  0  0  0  0
  183.5950  178.8230  141.2160 C   0  0  0  0  0  2  0  0  0  0  0  0
  185.9920  178.6170  141.9600 C   0  0  0  0  0  1  0  0  0  0  0  0
  184.5490  178.2360  142.2540 C   0  0  1  0  0  3  0  0  0  0  0  0
  184.1140  178.5480  143.6940 C   0  0  2  0  0  3  0  0  0  0  0  0
  183.2470  179.6430  143.7560 O   0  0  0  0  0  1  0  0  0  0  0  0
  185.2980  178.7320  144.6490 C   0  0  0  0  0  2  0  0  0  0  0  0
  184.9190  178.5870  146.1180 C   0  0  0  0  0  2  0  0  0  0  0  0
  187.1250  177.5320  146.4300 C   0  0  0  0  0  1  0  0  0  0  0  0
  186.1610  178.5580  146.9820 C   0  0  0  0  0  2  0  0  0  0  0  0
  181.7180  178.7540  139.3500 O   0  0  0  0  0  0  0  0  0  0  0  0
  181.1860  180.0510  139.3900 C   0  0  2  0  0  3  0  0  0  0  0  0
  180.9560  180.0910  141.7810 F   0  0  0  0  0  0  0  0  0  0  0  0
  179.2740  179.1980  140.5540 F   0  0  0  0  0  0  0  0  0  0  0  0
  180.2540  180.1670  140.5940 C   0  0  0  0  0  3  0  0  0  0  0  0
  180.4860  180.3850  138.0690 C   0  0  1  0  0  3  0  0  0  0  0  0
  179.1020  180.4570  138.2640 O   0  0  0  0  0  1  0  0  0  0  0  0
  180.9840  181.7250  137.5440 C   0  0  0  0  0  2  0  0  0  0  0  0
  179.8500  182.5150  136.8930 C   0  0  0  0  0  2  0  0  0  0  0  0
  179.1230  184.2290  135.2780 C   0  0  0  0  0  1  0  0  0  0  0  0
  180.9510  182.8270  134.7810 F   0  0  0  0  0  0  0  0  0  0  0  0
  180.3310  183.4950  135.8220 C   0  0  2  0  0  0  0  0  0  0  0  0
  181.0210  185.0220  137.4920 O   0  0  0  0  0  0  0  0  0  0  0  0
  181.2610  184.5060  136.4130 C   0  0  0  0  0  3  0  0  0  0  0  0
  186.0100  178.3100  137.1230 C   0  0  0  0  0  2  0  0  0  0  0  0
  187.9820  178.0500  135.8390 O   0  0  0  0  0  0  0  0  0  0  0  0
  187.4870  178.4300  136.8890 C   0  0  0  0  0  0  0  0  0  0  0  0
  188.3520  179.0700  137.9250 C   0  0  0  0  0  2  0  0  0  0  0  0
  188.5970  178.1110  139.0800 C   0  0  0  0  0  2  0  0  0  0  0  0
  188.9210  176.7170  138.5560 C   0  0  0  0  0  2  0  0  0  0  0  0
  190.4230  176.4590  138.5270 C   0  0  2  0  0  3  0  0  0  0  0  0
  190.7300  175.3730  137.6950 O   0  0  0  0  0  0  0  0  0  0  0  0
  191.8940  175.7400  137.0060 C   0  0  0  0  0  2  0  0  0  0  0  0
  192.1220  173.5670  136.0350 O   0  0  0  0  0  1  0  0  0  0  0  0
  192.8010  174.5280  136.7900 C   0  0  1  0  0  3  0  0  0  0  0  0
  194.1030  176.3020  135.8270 O   0  0  0  0  0  1  0  0  0  0  0  0
  194.1120  174.9310  136.1030 C   0  0  2  0  0  0  0  0  0  0  0  0
  194.2550  174.2330  134.9150 F   0  0  0  0  0  0  0  0  0  0  0  0
  196.8840  175.4310  136.6650 O   0  0  0  0  0  0  0  0  0  0  0  0
  195.8350  173.0900  137.1430 O   0  0  0  0  0  1  0  0  0  0  0  0
  195.1750  175.0090  138.7860 O   0  0  0  0  0  1  0  0  0  0  0  0
  195.5290  174.5690  137.1910 P   0  0  0  0  0  0  0  0  0  0  0  0
  190.9440  176.2160  139.9400 C   0  0  0  0  0  2  0  0  0  0  0  0
  190.5780  177.2940  142.1380 C   0  0  2  0  0  3  0  0  0  0  0  0
  192.0670  177.3130  141.8400 C   0  0  0  0  0  2  0  0  0  0  0  0
  191.0660  177.5100  140.7220 C   0  0  1  0  0  3  0  0  0  0  0  0
  190.1700  178.6320  142.7310 C   0  0  0  0  0  2  0  0  0  0  0  0
  191.8030  179.5890  144.1740 O   0  0  0  0  0  0  0  0  0  0  0  0
  190.8110  178.8210  144.0720 C   0  0  0  0  0  0  0  0  0  0  0  0
  190.3190  178.1840  145.2160 O   0  0  0  0  0  0  0  0  0  0  0  0
  190.3700  176.7710  145.3990 C   0  0  0  0  0  2  0  0  0  0  0  0
  191.7950  176.3150  145.6970 C   0  0  0  0  0  2  0  0  0  0  0  0
  191.8380  175.4490  146.9460 C   0  0  0  0  0  2  0  0  0  0  0  0
  192.5030  176.1970  148.0850 C   0  0  0  0  0  1  0  0  0  0  0  0
  1 13  1  0  0  0  0
  1 16  1  1  0  0  0
  3 41  1  6  0  0  0
  3 13  1  0  0  0  0
  5 10  2  0  0  0  0
  5  2  1  0  0  0  0
  6  5  1  0  0  0  0
  7  1  1  0  0  0  0
  7  2  1  0  0  0  0
  8  4  1  6  0  0  0
  8 12  1  0  0  0  0
  8  9  1  0  0  0  0
  8 11  1  0  0  0  0
  9  3  1  0  0  0  0
 10 14  1  0  0  0  0
 12  6  1  1  0  0  0
 12 13  1  0  0  0  0
 14 15  1  0  0  0  0
 16 27  1  0  0  0  0
 16 17  1  0  0  0  0
 17 18  1  0  0  0  0
 18 20  1  0  0  0  0
 19 20  1  0  0  0  0
 20 21  1  0  0  0  0
 21 22  1  0  0  0  0
 21 23  1  0  0  0  0
 23 24  1  0  0  0  0
 24 26  1  0  0  0  0
 25 26  1  0  0  0  0
 27 28  1  0  0  0  0
 28 31  1  0  0  0  0
 30 31  1  0  0  0  0
 31 29  1  0  0  0  0
 32 33  1  0  0  0  0
 32 28  1  0  0  0  0
 34 32  1  0  0  0  0
 35 34  1  0  0  0  0
 36 38  1  0  0  0  0
 37 38  1  0  0  0  0
 38 40  1  0  0  0  0
 38 35  1  0  0  0  0
 40 39  2  0  0  0  0
 42 43  2  0  0  0  0
 43 41  1  0  0  0  0
 43 44  1  0  0  0  0
 44 45  1  0  0  0  0
 46 45  1  0  0  0  0
 47 46  1  0  0  0  0
 47 59  1  0  0  0  0
 48 47  1  0  0  0  0
 49 48  1  0  0  0  0
 50 51  1  0  0  0  0
 51 49  1  0  0  0  0
 52 53  1  0  0  0  0
 53 51  1  0  0  0  0
 53 58  1  0  0  0  0
 54 53  1  0  0  0  0
 55 58  2  0  0  0  0
 56 58  1  0  0  0  0
 58 57  1  0  0  0  0
 59 62  1  0  0  0  0
 60 63  1  0  0  0  0
 61 60  1  0  0  0  0
 62 61  1  0  0  0  0
 62 60  1  0  0  0  0
 63 65  1  0  0  0  0
 65 64  2  0  0  0  0
 65 66  1  0  0  0  0
 66 67  1  0  0  0  0
 67 68  1  0  0  0  0
 68 69  1  0  0  0  0
 69 70  1  0  0  0  0
M  END
>  <MODEL>
1

>  <REMARK>
 VINA RESULT:      -5.9      0.000      0.000
  Name = 
  36 active torsions:
  status: ('A' for Active; 'I' for Inactive)
    1  A    between atoms: C_1  and  C_59
    2  A    between atoms: C_1  and  O_60
    3  A    between atoms: C_6  and  C_8
    4  A    between atoms: C_7  and  C_57
    5  A    between atoms: C_8  and  C_36
    6  A    between atoms: C_9  and  C_62
    7  A    between atoms: C_10  and  C_30
    8  A    between atoms: C_10  and  C_56
    9  A    between atoms: C_11  and  C_16
   10  A    between atoms: C_11  and  C_43
   11  A    between atoms: C_12  and  C_41
   12  A    between atoms: C_12  and  C_51
   13  A    between atoms: C_15  and  C_54
   14  A    between atoms: C_16  and  C_58
   15  A    between atoms: C_17  and  C_26
   16  A    between atoms: C_17  and  C_65
   17  A    between atoms: C_19  and  N_47
   18  A    between atoms: C_25  and  C_34
   19  A    between atoms: C_25  and  C_50
   20  A    between atoms: C_26  and  O_60
   21  A    between atoms: C_26  and  C_70
   22  A    between atoms: C_27  and  P_49
   23  A    between atoms: C_27  and  C_59
   24  A    between atoms: C_30  and  C_70
   25  A    between atoms: C_33  and  C_34
   26  A    between atoms: C_33  and  C_52
   27  A    between atoms: O_35  and  C_36
   28  A    between atoms: O_35  and  C_41
   29  A    between atoms: O_37  and  C_58
   30  A    between atoms: O_37  and  C_62
   31  A    between atoms: C_40  and  C_68
   32  A    between atoms: C_43  and  C_68
   33  A    between atoms: C_50  and  C_57
   34  A    between atoms: C_52  and  C_62
   35  A    between atoms: C_53  and  C_58
   36  A    between atoms: C_54  and  C_56
                            x       y       z     vdW  Elec       q    Type
                         _______ _______ _______ _____ _____    ______ ____

>  <TORSDO>
F 36

$$$$
=
 OpenBabel11062415203D

 70 72  0  0  1  0  0  0  0  0999 V2000
  182.7250  178.0560  139.3910 C   0  0  2  0  0  3  0  0  0  0  0  0
  180.8940  178.5890  141.0600 C   0  0  0  0  0  2  0  0  0  0  0  0
  185.0470  179.2340  139.5530 C   0  0  2  0  0  3  0  0  0  0  0  0
  186.0920  178.0030  142.5440 C   0  0  0  0  0  1  0  0  0  0  0  0
  181.5740  178.9810  142.3560 C   0  0  0  0  0  0  0  0  0  0  0  0
  182.9650  179.1440  142.4540 O   0  0  0  0  0  0  0  0  0  0  0  0
  181.6290  177.4870  140.3060 C   0  0  0  0  0  2  0  0  0  0  0  0
  185.3310  179.0930  141.8180 C   0  0  2  0  0  0  0  0  0  0  0  0
  185.9830  179.3840  140.5990 O   0  0  0  0  0  0  0  0  0  0  0  0
  180.8620  179.2450  143.4100 N   0  0  0  0  0  0  0  0  0  0  0  0
  185.3230  180.2420  142.6140 O   0  0  0  0  0  1  0  0  0  0  0  0
  183.9170  178.6070  141.5350 C   0  0  2  0  0  3  0  0  0  0  0  0
  183.6430  179.0540  140.1330 C   0  0  2  0  0  3  0  0  0  0  0  0
  179.4050  179.1780  143.4580 C   0  0  0  0  0  2  0  0  0  0  0  0
  178.9310  179.2910  144.8960 C   0  0  0  0  0  1  0  0  0  0  0  0
  182.0920  178.6210  138.1060 C   0  0  2  0  0  3  0  0  0  0  0  0
  181.2560  179.8630  138.4510 C   0  0  0  0  0  2  0  0  0  0  0  0
  180.1410  180.0910  137.4370 C   0  0  0  0  0  2  0  0  0  0  0  0
  179.3720  181.7500  139.1680 C   0  0  0  0  0  1  0  0  0  0  0  0
  179.3810  181.3910  137.6900 C   0  0  1  0  0  3  0  0  0  0  0  0
  179.8580  182.5360  136.7840 C   0  0  2  0  0  3  0  0  0  0  0  0
  180.2490  182.0800  135.5220 O   0  0  0  0  0  1  0  0  0  0  0  0
  180.9610  183.3850  137.4250 C   0  0  0  0  0  2  0  0  0  0  0  0
  180.7020  184.8830  137.3310 C   0  0  0  0  0  2  0  0  0  0  0  0
  178.9310  185.8400  138.7540 C   0  0  0  0  0  1  0  0  0  0  0  0
  179.2190  185.1690  137.4300 C   0  0  0  0  0  2  0  0  0  0  0  0
  181.3140  177.6600  137.4390 O   0  0  0  0  0  0  0  0  0  0  0  0
  182.2160  176.8440  136.7390 C   0  0  2  0  0  3  0  0  0  0  0  0
  182.9190  177.7020  134.6090 F   0  0  0  0  0  0  0  0  0  0  0  0
  180.6960  177.5300  135.0190 F   0  0  0  0  0  0  0  0  0  0  0  0
  181.9360  176.9690  135.2430 C   0  0  0  0  0  3  0  0  0  0  0  0
  182.1280  175.3980  137.2380 C   0  0  1  0  0  3  0  0  0  0  0  0
  180.7870  175.0080  137.3440 O   0  0  0  0  0  1  0  0  0  0  0  0
  182.8390  174.4700  136.2620 C   0  0  0  0  0  2  0  0  0  0  0  0
  183.3260  173.2040  136.9640 C   0  0  0  0  0  2  0  0  0  0  0  0
  184.0760  172.6320  134.6870 C   0  0  0  0  0  1  0  0  0  0  0  0
  184.3020  171.0730  136.4380 F   0  0  0  0  0  0  0  0  0  0  0  0
  184.3670  172.4260  136.1580 C   0  0  2  0  0  0  0  0  0  0  0  0
  186.3900  173.5010  135.5660 O   0  0  0  0  0  0  0  0  0  0  0  0
  185.7420  172.9460  136.4370 C   0  0  0  0  0  3  0  0  0  0  0  0
  185.5150  178.1640  138.5530 C   0  0  0  0  0  2  0  0  0  0  0  0
  187.6310  178.1170  139.6140 O   0  0  0  0  0  0  0  0  0  0  0  0
  186.9940  177.9120  138.5920 C   0  0  0  0  0  0  0  0  0  0  0  0
  187.6820  177.3530  137.3900 C   0  0  0  0  0  2  0  0  0  0  0  0
  187.9230  175.8610  137.5610 C   0  0  0  0  0  2  0  0  0  0  0  0
  189.4090  175.5440  137.4440 C   0  0  0  0  0  2  0  0  0  0  0  0
  190.2350  176.3190  138.4650 C   0  0  2  0  0  3  0  0  0  0  0  0
  191.5510  175.8380  138.5150 O   0  0  0  0  0  0  0  0  0  0  0  0
  191.9390  175.6580  137.1800 C   0  0  0  0  0  2  0  0  0  0  0  0
  192.9160  173.4800  137.3150 O   0  0  0  0  0  1  0  0  0  0  0  0
  193.2190  174.8270  137.0950 C   0  0  1  0  0  3  0  0  0  0  0  0
  193.5890  176.2650  135.2070 O   0  0  0  0  0  1  0  0  0  0  0  0
  193.9140  175.0130  135.7400 C   0  0  2  0  0  0  0  0  0  0  0  0
  193.4990  174.0270  134.8590 F   0  0  0  0  0  0  0  0  0  0  0  0
  196.3900  176.4670  135.7940 O   0  0  0  0  0  1  0  0  0  0  0  0
  196.3040  174.0280  134.8720 O   0  0  0  0  0  0  0  0  0  0  0  0
  196.1150  174.2920  137.4630 O   0  0  0  0  0  1  0  0  0  0  0  0
  195.7230  174.9220  135.9430 P   0  0  0  0  0  0  0  0  0  0  0  0
  189.5820  176.2370  139.8410 C   0  0  0  0  0  2  0  0  0  0  0  0
  191.7190  176.8310  140.9410 C   0  0  2  0  0  3  0  0  0  0  0  0
  191.2710  178.0130  140.1010 C   0  0  0  0  0  2  0  0  0  0  0  0
  190.2480  177.1720  140.8330 C   0  0  1  0  0  3  0  0  0  0  0  0
  192.2470  177.3350  142.2740 C   0  0  0  0  0  2  0  0  0  0  0  0
  191.7080  175.4690  143.6500 O   0  0  0  0  0  0  0  0  0  0  0  0
  191.5060  176.6870  143.4030 C   0  0  0  0  0  0  0  0  0  0  0  0
  190.6150  177.4080  144.2050 O   0  0  0  0  0  0  0  0  0  0  0  0
  190.1380  176.9270  145.4600 C   0  0  0  0  0  2  0  0  0  0  0  0
  189.2380  177.9600  146.1290 C   0  0  0  0  0  2  0  0  0  0  0  0
  188.3030  177.2990  147.1300 C   0  0  0  0  0  2  0  0  0  0  0  0
  186.9480  177.9790  147.1170 C   0  0  0  0  0  1  0  0  0  0  0  0
  1 16  1  6  0  0  0
  1 13  1  0  0  0  0
  1  7  1  0  0  0  0
  2  5  1  0  0  0  0
  3 41  1  1  0  0  0
  3 13  1  0  0  0  0
  3  9  1  0  0  0  0
  5  6  1  0  0  0  0
  5 10  2  0  0  0  0
  7  2  1  0  0  0  0
  8  4  1  1  0  0  0
  8 11  1  0  0  0  0
  9  8  1  0  0  0  0
 10 14  1  0  0  0  0
 12  8  1  0  0  0  0
 12  6  1  1  0  0  0
 13 12  1  0  0  0  0
 14 15  1  0  0  0  0
 16 17  1  0  0  0  0
 18 20  1  0  0  0  0
 18 17  1  0  0  0  0
 20 19  1  0  0  0  0
 21 23  1  0  0  0  0
 21 20  1  0  0  0  0
 22 21  1  0  0  0  0
 24 23  1  0  0  0  0
 24 26  1  0  0  0  0
 26 25  1  0  0  0  0
 27 16  1  0  0  0  0
 28 32  1  0  0  0  0
 28 27  1  0  0  0  0
 29 31  1  0  0  0  0
 30 31  1  0  0  0  0
 31 28  1  0  0  0  0
 32 33  1  0  0  0  0
 34 35  1  0  0  0  0
 34 32  1  0  0  0  0
 36 38  1  0  0  0  0
 38 40  1  0  0  0  0
 38 37  1  0  0  0  0
 38 35  1  0  0  0  0
 39 40  2  0  0  0  0
 41 43  1  0  0  0  0
 43 42  2  0  0  0  0
 44 45  1  0  0  0  0
 44 43  1  0  0  0  0
 46 45  1  0  0  0  0
 46 47  1  0  0  0  0
 47 48  1  0  0  0  0
 47 59  1  0  0  0  0
 49 48  1  0  0  0  0
 51 49  1  0  0  0  0
 51 50  1  0  0  0  0
 52 53  1  0  0  0  0
 53 58  1  0  0  0  0
 53 51  1  0  0  0  0
 54 53  1  0  0  0  0
 55 58  1  0  0  0  0
 56 58  2  0  0  0  0
 58 57  1  0  0  0  0
 59 62  1  0  0  0  0
 60 63  1  0  0  0  0
 61 62  1  0  0  0  0
 61 60  1  0  0  0  0
 62 60  1  0  0  0  0
 63 65  1  0  0  0  0
 65 64  2  0  0  0  0
 65 66  1  0  0  0  0
 66 67  1  0  0  0  0
 67 68  1  0  0  0  0
 68 69  1  0  0  0  0
 70 69  1  0  0  0  0
M  END
>  <MODEL>
2

>  <REMARK>
 VINA RESULT:      -5.0      2.566      6.311
  Name = 
  36 active torsions:
  status: ('A' for Active; 'I' for Inactive)
    1  A    between atoms: C_1  and  C_59
    2  A    between atoms: C_1  and  O_60
    3  A    between atoms: C_6  and  C_8
    4  A    between atoms: C_7  and  C_57
    5  A    between atoms: C_8  and  C_36
    6  A    between atoms: C_9  and  C_62
    7  A    between atoms: C_10  and  C_30
    8  A    between atoms: C_10  and  C_56
    9  A    between atoms: C_11  and  C_16
   10  A    between atoms: C_11  and  C_43
   11  A    between atoms: C_12  and  C_41
   12  A    between atoms: C_12  and  C_51
   13  A    between atoms: C_15  and  C_54
   14  A    between atoms: C_16  and  C_58
   15  A    between atoms: C_17  and  C_26
   16  A    between atoms: C_17  and  C_65
   17  A    between atoms: C_19  and  N_47
   18  A    between atoms: C_25  and  C_34
   19  A    between atoms: C_25  and  C_50
   20  A    between atoms: C_26  and  O_60
   21  A    between atoms: C_26  and  C_70
   22  A    between atoms: C_27  and  P_49
   23  A    between atoms: C_27  and  C_59
   24  A    between atoms: C_30  and  C_70
   25  A    between atoms: C_33  and  C_34
   26  A    between atoms: C_33  and  C_52
   27  A    between atoms: O_35  and  C_36
   28  A    between atoms: O_35  and  C_41
   29  A    between atoms: O_37  and  C_58
   30  A    between atoms: O_37  and  C_62
   31  A    between atoms: C_40  and  C_68
   32  A    between atoms: C_43  and  C_68
   33  A    between atoms: C_50  and  C_57
   34  A    between atoms: C_52  and  C_62
   35  A    between atoms: C_53  and  C_58
   36  A    between atoms: C_54  and  C_56
                            x       y       z     vdW  Elec       q    Type
                         _______ _______ _______ _____ _____    ______ ____

>  <TORSDO>
F 36

$$$$
=
 OpenBabel11062415203D

 70 72  0  0  1  0  0  0  0  0999 V2000
  184.2140  177.8520  137.4580 C   0  0  2  0  0  3  0  0  0  0  0  0
  182.1860  176.3980  137.9040 C   0  0  0  0  0  2  0  0  0  0  0  0
  186.6190  176.8570  137.6340 C   0  0  2  0  0  3  0  0  0  0  0  0
  186.4810  174.6050  135.0920 C   0  0  0  0  0  1  0  0  0  0  0  0
  182.5640  174.9810  137.5250 C   0  0  0  0  0  0  0  0  0  0  0  0
  183.8720  174.6250  137.1610 O   0  0  0  0  0  0  0  0  0  0  0  0
  182.8070  177.4490  136.9910 C   0  0  0  0  0  2  0  0  0  0  0  0
  186.2350  174.8740  136.5620 C   0  0  2  0  0  0  0  0  0  0  0  0
  187.2440  175.7310  137.0540 O   0  0  0  0  0  0  0  0  0  0  0  0
  181.6790  174.0320  137.5950 N   0  0  0  0  0  0  0  0  0  0  0  0
  186.2920  173.6620  137.2560 O   0  0  0  0  0  1  0  0  0  0  0  0
  184.8770  175.5400  136.7250 C   0  0  2  0  0  3  0  0  0  0  0  0
  185.1110  176.6230  137.7320 C   0  0  2  0  0  3  0  0  0  0  0  0
  180.2930  174.2260  138.0090 C   0  0  0  0  0  2  0  0  0  0  0  0
  179.6100  172.8790  138.1710 C   0  0  0  0  0  1  0  0  0  0  0  0
  184.1120  178.8290  138.6440 C   0  0  2  0  0  3  0  0  0  0  0  0
  185.4300  178.8170  139.4320 C   0  0  0  0  0  2  0  0  0  0  0  0
  185.2570  178.1840  140.8090 C   0  0  0  0  0  2  0  0  0  0  0  0
  187.1720  179.7190  141.3750 C   0  0  0  0  0  1  0  0  0  0  0  0
  186.4690  178.4110  141.7100 C   0  0  1  0  0  3  0  0  0  0  0  0
  186.1290  178.2620  143.2010 C   0  0  2  0  0  3  0  0  0  0  0  0
  185.8270  176.9400  143.5410 O   0  0  0  0  0  1  0  0  0  0  0  0
  185.0190  179.2130  143.6590 C   0  0  0  0  0  2  0  0  0  0  0  0
  183.6190  178.7180  143.3170 C   0  0  0  0  0  2  0  0  0  0  0  0
  181.5590  179.7310  144.2160 C   0  0  0  0  0  1  0  0  0  0  0  0
  182.7170  178.8100  144.5290 C   0  0  0  0  0  2  0  0  0  0  0  0
  183.0230  178.5270  139.4790 O   0  0  0  0  0  0  0  0  0  0  0  0
  182.2530  179.6980  139.5560 C   0  0  2  0  0  3  0  0  0  0  0  0
  180.6880  180.5000  141.1920 F   0  0  0  0  0  0  0  0  0  0  0  0
  181.1830  178.2880  141.1710 F   0  0  0  0  0  0  0  0  0  0  0  0
  181.0100  179.4180  140.3980 C   0  0  0  0  0  3  0  0  0  0  0  0
  181.9120  180.2070  138.1520 C   0  0  1  0  0  3  0  0  0  0  0  0
  180.5940  179.8660  137.8240 O   0  0  0  0  0  1  0  0  0  0  0  0
  182.0590  181.7230  138.1030 C   0  0  0  0  0  2  0  0  0  0  0  0
  181.1280  182.3300  137.0550 C   0  0  0  0  0  2  0  0  0  0  0  0
  180.4960  184.4630  135.9930 C   0  0  0  0  0  1  0  0  0  0  0  0
  181.8550  184.4510  137.9180 F   0  0  0  0  0  0  0  0  0  0  0  0
  180.7910  183.7980  137.3210 C   0  0  2  0  0  0  0  0  0  0  0  0
  179.2220  184.9850  138.6350 O   0  0  0  0  0  0  0  0  0  0  0  0
  179.5700  183.9090  138.1780 C   0  0  0  0  0  3  0  0  0  0  0  0
  187.0660  178.1490  136.9300 C   0  0  0  0  0  2  0  0  0  0  0  0
  189.2830  178.1810  136.1010 O   0  0  0  0  0  0  0  0  0  0  0  0
  188.5380  178.4160  137.0410 C   0  0  0  0  0  0  0  0  0  0  0  0
  189.0890  179.0240  138.2880 C   0  0  0  0  0  2  0  0  0  0  0  0
  189.1750  177.9840  139.3940 C   0  0  0  0  0  2  0  0  0  0  0  0
  189.5440  176.6230  138.8180 C   0  0  0  0  0  2  0  0  0  0  0  0
  191.0550  176.4430  138.7140 C   0  0  2  0  0  3  0  0  0  0  0  0
  191.3750  175.3450  137.9040 O   0  0  0  0  0  0  0  0  0  0  0  0
  191.5920  175.8700  136.6220 C   0  0  0  0  0  2  0  0  0  0  0  0
  192.5240  175.0130  134.5940 O   0  0  0  0  0  1  0  0  0  0  0  0
  192.7900  175.1940  135.9550 C   0  0  1  0  0  3  0  0  0  0  0  0
  193.9490  176.8220  137.2870 O   0  0  0  0  0  1  0  0  0  0  0  0
  194.0710  176.0130  136.1530 C   0  0  2  0  0  0  0  0  0  0  0  0
  194.2910  176.8190  135.0480 F   0  0  0  0  0  0  0  0  0  0  0  0
  195.9270  174.8640  138.0190 O   0  0  0  0  0  1  0  0  0  0  0  0
  196.6690  175.4130  135.5790 O   0  0  0  0  0  0  0  0  0  0  0  0
  195.1150  173.3360  135.8740 O   0  0  0  0  0  1  0  0  0  0  0  0
  195.4980  174.9030  136.3860 P   0  0  0  0  0  0  0  0  0  0  0  0
  191.6620  176.2790  140.1030 C   0  0  0  0  0  2  0  0  0  0  0  0
  190.5490  176.7500  142.2640 C   0  0  2  0  0  3  0  0  0  0  0  0
  191.9770  177.2580  142.3430 C   0  0  0  0  0  2  0  0  0  0  0  0
  191.2020  177.3730  141.0490 C   0  0  1  0  0  3  0  0  0  0  0  0
  189.6190  177.7670  142.9030 C   0  0  0  0  0  2  0  0  0  0  0  0
  190.9160  178.6770  144.6800 O   0  0  0  0  0  0  0  0  0  0  0  0
  189.9530  177.9330  144.3540 C   0  0  0  0  0  0  0  0  0  0  0  0
  189.2070  177.3030  145.3550 O   0  0  0  0  0  0  0  0  0  0  0  0
  189.4090  177.5500  146.7450 C   0  0  0  0  0  2  0  0  0  0  0  0
  188.0780  177.5680  147.4900 C   0  0  0  0  0  2  0  0  0  0  0  0
  187.0140  178.2980  146.6840 C   0  0  0  0  0  2  0  0  0  0  0  0
  185.6350  177.7770  147.0350 C   0  0  0  0  0  1  0  0  0  0  0  0
  1 13  1  0  0  0  0
  1 16  1  1  0  0  0
  3 41  1  6  0  0  0
  3 13  1  0  0  0  0
  5 10  2  0  0  0  0
  5  2  1  0  0  0  0
  6  5  1  0  0  0  0
  7  1  1  0  0  0  0
  7  2  1  0  0  0  0
  8  4  1  6  0  0  0
  8 12  1  0  0  0  0
  8  9  1  0  0  0  0
  8 11  1  0  0  0  0
  9  3  1  0  0  0  0
 10 14  1  0  0  0  0
 12  6  1  1  0  0  0
 12 13  1  0  0  0  0
 14 15  1  0  0  0  0
 16 17  1  0  0  0  0
 16 27  1  0  0  0  0
 17 18  1  0  0  0  0
 18 20  1  0  0  0  0
 19 20  1  0  0  0  0
 20 21  1  0  0  0  0
 21 22  1  0  0  0  0
 21 23  1  0  0  0  0
 24 23  1  0  0  0  0
 24 26  1  0  0  0  0
 25 26  1  0  0  0  0
 27 28  1  0  0  0  0
 28 31  1  0  0  0  0
 31 30  1  0  0  0  0
 31 29  1  0  0  0  0
 32 28  1  0  0  0  0
 33 32  1  0  0  0  0
 34 32  1  0  0  0  0
 35 38  1  0  0  0  0
 35 34  1  0  0  0  0
 36 38  1  0  0  0  0
 38 37  1  0  0  0  0
 38 40  1  0  0  0  0
 40 39  2  0  0  0  0
 41 43  1  0  0  0  0
 42 43  2  0  0  0  0
 43 44  1  0  0  0  0
 44 45  1  0  0  0  0
 46 45  1  0  0  0  0
 47 46  1  0  0  0  0
 47 59  1  0  0  0  0
 48 47  1  0  0  0  0
 49 48  1  0  0  0  0
 50 51  1  0  0  0  0
 51 53  1  0  0  0  0
 51 49  1  0  0  0  0
 53 58  1  0  0  0  0
 53 52  1  0  0  0  0
 54 53  1  0  0  0  0
 56 58  2  0  0  0  0
 57 58  1  0  0  0  0
 58 55  1  0  0  0  0
 59 62  1  0  0  0  0
 60 61  1  0  0  0  0
 60 63  1  0  0  0  0
 62 60  1  0  0  0  0
 62 61  1  0  0  0  0
 63 65  1  0  0  0  0
 65 64  2  0  0  0  0
 65 66  1  0  0  0  0
 66 67  1  0  0  0  0
 67 68  1  0  0  0  0
 69 70  1  0  0  0  0
 69 68  1  0  0  0  0
M  END
>  <MODEL>
3

>  <REMARK>
 VINA RESULT:      -4.4      1.445      2.139
  Name = 
  36 active torsions:
  status: ('A' for Active; 'I' for Inactive)
    1  A    between atoms: C_1  and  C_59
    2  A    between atoms: C_1  and  O_60
    3  A    between atoms: C_6  and  C_8
    4  A    between atoms: C_7  and  C_57
    5  A    between atoms: C_8  and  C_36
    6  A    between atoms: C_9  and  C_62
    7  A    between atoms: C_10  and  C_30
    8  A    between atoms: C_10  and  C_56
    9  A    between atoms: C_11  and  C_16
   10  A    between atoms: C_11  and  C_43
   11  A    between atoms: C_12  and  C_41
   12  A    between atoms: C_12  and  C_51
   13  A    between atoms: C_15  and  C_54
   14  A    between atoms: C_16  and  C_58
   15  A    between atoms: C_17  and  C_26
   16  A    between atoms: C_17  and  C_65
   17  A    between atoms: C_19  and  N_47
   18  A    between atoms: C_25  and  C_34
   19  A    between atoms: C_25  and  C_50
   20  A    between atoms: C_26  and  O_60
   21  A    between atoms: C_26  and  C_70
   22  A    between atoms: C_27  and  P_49
   23  A    between atoms: C_27  and  C_59
   24  A    between atoms: C_30  and  C_70
   25  A    between atoms: C_33  and  C_34
   26  A    between atoms: C_33  and  C_52
   27  A    between atoms: O_35  and  C_36
   28  A    between atoms: O_35  and  C_41
   29  A    between atoms: O_37  and  C_58
   30  A    between atoms: O_37  and  C_62
   31  A    between atoms: C_40  and  C_68
   32  A    between atoms: C_43  and  C_68
   33  A    between atoms: C_50  and  C_57
   34  A    between atoms: C_52  and  C_62
   35  A    between atoms: C_53  and  C_58
   36  A    between atoms: C_54  and  C_56
                            x       y       z     vdW  Elec       q    Type
                         _______ _______ _______ _____ _____    ______ ____

>  <TORSDO>
F 36

$$$$
=
 OpenBabel11062415203D

 70 72  0  0  1  0  0  0  0  0999 V2000
  186.0860  178.7290  140.0210 C   0  0  2  0  0  3  0  0  0  0  0  0
  183.5540  178.6820  139.9130 C   0  0  0  0  0  2  0  0  0  0  0  0
  187.5050  177.2080  138.4470 C   0  0  2  0  0  3  0  0  0  0  0  0
  186.6520  178.5550  135.4460 C   0  0  0  0  0  1  0  0  0  0  0  0
  183.1770  178.3210  138.4910 C   0  0  0  0  0  0  0  0  0  0  0  0
  184.1310  177.9420  137.5340 O   0  0  0  0  0  0  0  0  0  0  0  0
  184.7950  179.5630  139.9980 C   0  0  0  0  0  2  0  0  0  0  0  0
  186.3240  177.5350  136.5170 C   0  0  2  0  0  0  0  0  0  0  0  0
  187.5250  177.0150  137.0490 O   0  0  0  0  0  0  0  0  0  0  0  0
  181.9270  178.2890  138.1380 N   0  0  0  0  0  0  0  0  0  0  0  0
  185.5960  176.4930  135.9370 O   0  0  0  0  0  1  0  0  0  0  0  0
  185.5310  178.2150  137.6230 C   0  0  2  0  0  3  0  0  0  0  0  0
  186.1180  177.6760  138.8900 C   0  0  2  0  0  3  0  0  0  0  0  0
  180.8110  178.6000  139.0260 C   0  0  0  0  0  2  0  0  0  0  0  0
  180.0780  179.8300  138.5230 C   0  0  0  0  0  1  0  0  0  0  0  0
  186.3070  178.1450  141.4280 C   0  0  2  0  0  3  0  0  0  0  0  0
  186.0450  179.2320  142.4810 C   0  0  0  0  0  2  0  0  0  0  0  0
  185.4530  178.6490  143.7590 C   0  0  0  0  0  2  0  0  0  0  0  0
  184.0620  180.7360  143.5290 C   0  0  0  0  0  1  0  0  0  0  0  0
  184.5180  179.6270  144.4660 C   0  0  1  0  0  3  0  0  0  0  0  0
  183.3600  178.9180  145.1850 C   0  0  2  0  0  3  0  0  0  0  0  0
  183.8150  177.9570  146.0920 O   0  0  0  0  0  1  0  0  0  0  0  0
  182.3340  178.3170  144.2190 C   0  0  0  0  0  2  0  0  0  0  0  0
  181.5330  179.3660  143.4580 C   0  0  0  0  0  2  0  0  0  0  0  0
  179.8740  177.6860  144.1680 C   0  0  0  0  0  1  0  0  0  0  0  0
  180.0730  178.9710  143.3970 C   0  0  0  0  0  2  0  0  0  0  0  0
  187.5960  177.6040  141.5730 O   0  0  0  0  0  0  0  0  0  0  0  0
  187.9440  177.7810  142.9210 C   0  0  2  0  0  3  0  0  0  0  0  0
  189.3170  179.5420  142.0350 F   0  0  0  0  0  0  0  0  0  0  0  0
  190.3380  177.6980  142.8670 F   0  0  0  0  0  0  0  0  0  0  0  0
  189.2610  178.5500  142.9940 C   0  0  0  0  0  3  0  0  0  0  0  0
  188.0100  176.4290  143.6390 C   0  0  1  0  0  3  0  0  0  0  0  0
  188.5870  175.4680  142.8000 O   0  0  0  0  0  1  0  0  0  0  0  0
  188.8510  176.5550  144.9020 C   0  0  0  0  0  2  0  0  0  0  0  0
  187.9900  176.9590  146.0970 C   0  0  0  0  0  2  0  0  0  0  0  0
  190.1300  177.8250  146.9610 C   0  0  0  0  0  1  0  0  0  0  0  0
  189.0350  176.0520  148.0610 F   0  0  0  0  0  0  0  0  0  0  0  0
  188.8000  177.2250  147.3660 C   0  0  2  0  0  0  0  0  0  0  0  0
  188.5240  178.4840  149.3510 O   0  0  0  0  0  0  0  0  0  0  0  0
  188.0940  178.2110  148.2430 C   0  0  0  0  0  3  0  0  0  0  0  0
  188.6940  178.0760  138.8930 C   0  0  0  0  0  2  0  0  0  0  0  0
  190.3800  177.0000  140.1590 O   0  0  0  0  0  0  0  0  0  0  0  0
  189.9730  177.3080  139.0490 C   0  0  0  0  0  0  0  0  0  0  0  0
  190.7270  176.8690  137.8370 C   0  0  0  0  0  2  0  0  0  0  0  0
  190.3970  175.4230  137.5000 C   0  0  0  0  0  2  0  0  0  0  0  0
  190.4780  175.1940  135.9960 C   0  0  0  0  0  2  0  0  0  0  0  0
  190.8840  173.7630  135.6620 C   0  0  2  0  0  3  0  0  0  0  0  0
  192.2180  173.7070  135.2340 O   0  0  0  0  0  0  0  0  0  0  0  0
  192.9270  173.1000  136.2800 C   0  0  0  0  0  2  0  0  0  0  0  0
  194.7350  173.6160  134.8030 O   0  0  0  0  0  1  0  0  0  0  0  0
  194.4260  173.3650  136.1440 C   0  0  1  0  0  3  0  0  0  0  0  0
  193.7610  175.0650  137.7040 O   0  0  0  0  0  1  0  0  0  0  0  0
  194.8670  174.5360  137.0310 C   0  0  2  0  0  0  0  0  0  0  0  0
  195.4370  175.5290  136.2510 F   0  0  0  0  0  0  0  0  0  0  0  0
  197.6390  174.0860  137.6290 O   0  0  0  0  0  0  0  0  0  0  0  0
  195.7990  172.5250  138.6200 O   0  0  0  0  0  1  0  0  0  0  0  0
  195.9790  174.9090  139.6690 O   0  0  0  0  0  1  0  0  0  0  0  0
  196.0800  173.9670  138.2670 P   0  0  0  0  0  0  0  0  0  0  0  0
  189.9550  173.1860  134.6000 C   0  0  0  0  0  2  0  0  0  0  0  0
  187.9280  173.2080  136.0210 C   0  0  2  0  0  3  0  0  0  0  0  0
  187.5300  172.7460  134.6300 C   0  0  0  0  0  2  0  0  0  0  0  0
  188.8630  172.3320  135.2150 C   0  0  1  0  0  3  0  0  0  0  0  0
  187.2150  172.3520  137.0550 C   0  0  0  0  0  2  0  0  0  0  0  0
  185.7950  174.0000  138.0210 O   0  0  0  0  0  0  0  0  0  0  0  0
  185.8670  172.9290  137.3630 C   0  0  0  0  0  0  0  0  0  0  0  0
  184.6900  172.3200  136.9170 O   0  0  0  0  0  0  0  0  0  0  0  0
  183.3910  172.8170  137.2340 C   0  0  0  0  0  2  0  0  0  0  0  0
  182.6030  173.1180  135.9630 C   0  0  0  0  0  2  0  0  0  0  0  0
  181.5380  172.0590  135.7220 C   0  0  0  0  0  2  0  0  0  0  0  0
  182.0420  170.6950  136.1510 C   0  0  0  0  0  1  0  0  0  0  0  0
  1 16  1  1  0  0  0
  2  7  1  0  0  0  0
  3 13  1  0  0  0  0
  3 41  1  6  0  0  0
  5  2  1  0  0  0  0
  6  5  1  0  0  0  0
  7  1  1  0  0  0  0
  8  4  1  6  0  0  0
  8  9  1  0  0  0  0
  8 12  1  0  0  0  0
  9  3  1  0  0  0  0
 10  5  2  0  0  0  0
 10 14  1  0  0  0  0
 11  8  1  0  0  0  0
 12  6  1  6  0  0  0
 12 13  1  0  0  0  0
 13  1  1  0  0  0  0
 15 14  1  0  0  0  0
 16 27  1  0  0  0  0
 16 17  1  0  0  0  0
 17 18  1  0  0  0  0
 18 20  1  0  0  0  0
 19 20  1  0  0  0  0
 20 21  1  0  0  0  0
 21 22  1  0  0  0  0
 23 21  1  0  0  0  0
 24 23  1  0  0  0  0
 26 24  1  0  0  0  0
 26 25  1  0  0  0  0
 27 28  1  0  0  0  0
 28 31  1  0  0  0  0
 28 32  1  0  0  0  0
 29 31  1  0  0  0  0
 30 31  1  0  0  0  0
 32 34  1  0  0  0  0
 33 32  1  0  0  0  0
 34 35  1  0  0  0  0
 35 38  1  0  0  0  0
 36 38  1  0  0  0  0
 38 37  1  0  0  0  0
 38 40  1  0  0  0  0
 40 39  2  0  0  0  0
 41 43  1  0  0  0  0
 43 42  2  0  0  0  0
 44 43  1  0  0  0  0
 45 44  1  0  0  0  0
 46 45  1  0  0  0  0
 47 46  1  0  0  0  0
 48 47  1  0  0  0  0
 48 49  1  0  0  0  0
 50 51  1  0  0  0  0
 51 49  1  0  0  0  0
 51 53  1  0  0  0  0
 53 52  1  0  0  0  0
 53 58  1  0  0  0  0
 54 53  1  0  0  0  0
 55 58  2  0  0  0  0
 58 56  1  0  0  0  0
 58 57  1  0  0  0  0
 59 62  1  0  0  0  0
 59 47  1  0  0  0  0
 60 63  1  0  0  0  0
 61 62  1  0  0  0  0
 61 60  1  0  0  0  0
 62 60  1  0  0  0  0
 63 65  1  0  0  0  0
 65 64  2  0  0  0  0
 66 67  1  0  0  0  0
 66 65  1  0  0  0  0
 68 67  1  0  0  0  0
 69 68  1  0  0  0  0
 69 70  1  0  0  0  0
M  END
>  <MODEL>
4

>  <REMARK>
 VINA RESULT:      -3.9      3.351      7.896
  Name = 
  36 active torsions:
  status: ('A' for Active; 'I' for Inactive)
    1  A    between atoms: C_1  and  C_59
    2  A    between atoms: C_1  and  O_60
    3  A    between atoms: C_6  and  C_8
    4  A    between atoms: C_7  and  C_57
    5  A    between atoms: C_8  and  C_36
    6  A    between atoms: C_9  and  C_62
    7  A    between atoms: C_10  and  C_30
    8  A    between atoms: C_10  and  C_56
    9  A    between atoms: C_11  and  C_16
   10  A    between atoms: C_11  and  C_43
   11  A    between atoms: C_12  and  C_41
   12  A    between atoms: C_12  and  C_51
   13  A    between atoms: C_15  and  C_54
   14  A    between atoms: C_16  and  C_58
   15  A    between atoms: C_17  and  C_26
   16  A    between atoms: C_17  and  C_65
   17  A    between atoms: C_19  and  N_47
   18  A    between atoms: C_25  and  C_34
   19  A    between atoms: C_25  and  C_50
   20  A    between atoms: C_26  and  O_60
   21  A    between atoms: C_26  and  C_70
   22  A    between atoms: C_27  and  P_49
   23  A    between atoms: C_27  and  C_59
   24  A    between atoms: C_30  and  C_70
   25  A    between atoms: C_33  and  C_34
   26  A    between atoms: C_33  and  C_52
   27  A    between atoms: O_35  and  C_36
   28  A    between atoms: O_35  and  C_41
   29  A    between atoms: O_37  and  C_58
   30  A    between atoms: O_37  and  C_62
   31  A    between atoms: C_40  and  C_68
   32  A    between atoms: C_43  and  C_68
   33  A    between atoms: C_50  and  C_57
   34  A    between atoms: C_52  and  C_62
   35  A    between atoms: C_53  and  C_58
   36  A    between atoms: C_54  and  C_56
                            x       y       z     vdW  Elec       q    Type
                         _______ _______ _______ _____ _____    ______ ____

>  <TORSDO>
F 36

$$$$
=
 OpenBabel11062415203D

 70 72  0  0  1  0  0  0  0  0999 V2000
  185.5930  178.5360  139.7700 C   0  0  2  0  0  3  0  0  0  0  0  0
  183.1430  178.6230  139.1260 C   0  0  0  0  0  2  0  0  0  0  0  0
  187.2780  177.1120  138.3770 C   0  0  2  0  0  3  0  0  0  0  0  0
  187.1250  178.7920  135.4260 C   0  0  0  0  0  1  0  0  0  0  0  0
  183.0710  178.4240  137.6260 C   0  0  0  0  0  0  0  0  0  0  0  0
  184.2000  178.0970  136.8570 O   0  0  0  0  0  0  0  0  0  0  0  0
  184.3600  179.4290  139.5660 C   0  0  0  0  0  2  0  0  0  0  0  0
  186.5480  177.6880  136.2880 C   0  0  2  0  0  0  0  0  0  0  0  0
  187.5920  177.0600  137.0020 O   0  0  0  0  0  0  0  0  0  0  0  0
  181.9260  178.4880  137.0160 N   0  0  0  0  0  0  0  0  0  0  0  0
  185.9350  176.7450  135.4580 O   0  0  0  0  0  1  0  0  0  0  0  0
  185.5530  178.2920  137.2680 C   0  0  2  0  0  3  0  0  0  0  0  0
  185.8400  177.6000  138.5650 C   0  0  2  0  0  3  0  0  0  0  0  0
  180.6540  178.7620  137.6770 C   0  0  0  0  0  2  0  0  0  0  0  0
  180.4770  180.2590  137.8540 C   0  0  0  0  0  1  0  0  0  0  0  0
  185.4910  177.8040  141.1210 C   0  0  2  0  0  3  0  0  0  0  0  0
  184.7170  178.6770  142.1200 C   0  0  0  0  0  2  0  0  0  0  0  0
  183.3270  178.1170  142.3990 C   0  0  0  0  0  2  0  0  0  0  0  0
  183.2760  180.1540  143.8790 C   0  0  0  0  0  1  0  0  0  0  0  0
  182.6560  178.7940  143.5920 C   0  0  1  0  0  3  0  0  0  0  0  0
  181.1260  178.8340  143.4610 C   0  0  2  0  0  3  0  0  0  0  0  0
  180.4970  178.0080  144.3980 O   0  0  0  0  0  1  0  0  0  0  0  0
  180.6380  178.5220  142.0430 C   0  0  0  0  0  2  0  0  0  0  0  0
  179.5920  177.4160  141.9920 C   0  0  0  0  0  2  0  0  0  0  0  0
  180.6750  176.7140  139.8910 C   0  0  0  0  0  1  0  0  0  0  0  0
  180.1160  176.2310  141.2100 C   0  0  0  0  0  2  0  0  0  0  0  0
  186.7570  177.4610  141.6270 O   0  0  0  0  0  0  0  0  0  0  0  0
  186.9080  178.1820  142.8220 C   0  0  2  0  0  3  0  0  0  0  0  0
  187.7480  179.9630  141.4460 F   0  0  0  0  0  0  0  0  0  0  0  0
  189.2340  178.7210  142.6230 F   0  0  0  0  0  0  0  0  0  0  0  0
  187.9660  179.2640  142.6160 C   0  0  0  0  0  3  0  0  0  0  0  0
  187.2470  177.2370  143.9780 C   0  0  1  0  0  3  0  0  0  0  0  0
  187.8780  176.0870  143.4880 O   0  0  0  0  0  1  0  0  0  0  0  0
  188.1800  177.9350  144.9600 C   0  0  0  0  0  2  0  0  0  0  0  0
  188.3340  177.1210  146.2440 C   0  0  0  0  0  2  0  0  0  0  0  0
  188.2770  178.8590  147.9910 C   0  0  0  0  0  1  0  0  0  0  0  0
  187.3670  176.7260  148.4070 F   0  0  0  0  0  0  0  0  0  0  0  0
  187.5240  177.6770  147.4150 C   0  0  2  0  0  0  0  0  0  0  0  0
  185.3120  178.4490  147.7460 O   0  0  0  0  0  0  0  0  0  0  0  0
  186.1880  178.1610  146.9480 C   0  0  0  0  0  3  0  0  0  0  0  0
  188.3650  177.8730  139.1550 C   0  0  0  0  0  2  0  0  0  0  0  0
  189.7850  176.6850  140.6300 O   0  0  0  0  0  0  0  0  0  0  0  0
  189.5670  177.0360  139.4800 C   0  0  0  0  0  0  0  0  0  0  0  0
  190.4740  176.5840  138.3830 C   0  0  0  0  0  2  0  0  0  0  0  0
  190.1830  175.1370  138.0160 C   0  0  0  0  0  2  0  0  0  0  0  0
  190.5170  174.8810  136.5520 C   0  0  0  0  0  2  0  0  0  0  0  0
  191.6650  173.8890  136.3980 C   0  0  2  0  0  3  0  0  0  0  0  0
  192.8680  174.5530  136.1180 O   0  0  0  0  0  0  0  0  0  0  0  0
  193.8770  173.5940  136.2840 C   0  0  0  0  0  2  0  0  0  0  0  0
  194.9950  172.3200  137.9710 O   0  0  0  0  0  1  0  0  0  0  0  0
  194.3270  173.5270  137.7440 C   0  0  1  0  0  3  0  0  0  0  0  0
  196.1070  174.3580  139.1250 O   0  0  0  0  0  1  0  0  0  0  0  0
  195.2210  174.7200  138.1060 C   0  0  2  0  0  0  0  0  0  0  0  0
  194.4400  175.7780  138.5420 F   0  0  0  0  0  0  0  0  0  0  0  0
  196.3620  173.9410  135.5880 O   0  0  0  0  0  0  0  0  0  0  0  0
  197.5610  175.6960  137.1010 O   0  0  0  0  0  1  0  0  0  0  0  0
  195.4180  176.5170  135.8550 O   0  0  0  0  0  1  0  0  0  0  0  0
  196.1910  175.2410  136.6530 P   0  0  0  0  0  0  0  0  0  0  0  0
  191.3440  172.8770  135.3030 C   0  0  0  0  0  2  0  0  0  0  0  0
  189.0480  172.0830  134.8310 C   0  0  2  0  0  3  0  0  0  0  0  0
  190.0060  170.9260  134.6150 C   0  0  0  0  0  2  0  0  0  0  0  0
  190.2510  171.9160  135.7320 C   0  0  1  0  0  3  0  0  0  0  0  0
  187.8110  171.5800  135.5580 C   0  0  0  0  0  2  0  0  0  0  0  0
  186.9420  173.7160  136.1470 O   0  0  0  0  0  0  0  0  0  0  0  0
  186.7410  172.6280  135.5450 C   0  0  0  0  0  0  0  0  0  0  0  0
  185.5370  172.4380  134.8590 O   0  0  0  0  0  0  0  0  0  0  0  0
  184.2640  172.7340  135.4320 C   0  0  0  0  0  2  0  0  0  0  0  0
  183.6950  174.0230  134.8480 C   0  0  0  0  0  2  0  0  0  0  0  0
  182.2460  174.2160  135.2700 C   0  0  0  0  0  2  0  0  0  0  0  0
  181.3800  173.1050  134.7110 C   0  0  0  0  0  1  0  0  0  0  0  0
  1 16  1  1  0  0  0
  2  7  1  0  0  0  0
  3 13  1  0  0  0  0
  3 41  1  1  0  0  0
  5  2  1  0  0  0  0
  6  5  1  0  0  0  0
  7  1  1  0  0  0  0
  8  4  1  6  0  0  0
  8  9  1  0  0  0  0
  8 12  1  0  0  0  0
  9  3  1  0  0  0  0
 10  5  2  0  0  0  0
 10 14  1  0  0  0  0
 11  8  1  0  0  0  0
 12  6  1  6  0  0  0
 12 13  1  0  0  0  0
 13  1  1  0  0  0  0
 14 15  1  0  0  0  0
 16 27  1  0  0  0  0
 16 17  1  0  0  0  0
 17 18  1  0  0  0  0
 18 20  1  0  0  0  0
 20 19  1  0  0  0  0
 21 20  1  0  0  0  0
 21 22  1  0  0  0  0
 23 21  1  0  0  0  0
 24 23  1  0  0  0  0
 25 26  1  0  0  0  0
 26 24  1  0  0  0  0
 27 28  1  0  0  0  0
 28 32  1  0  0  0  0
 29 31  1  0  0  0  0
 31 30  1  0  0  0  0
 31 28  1  0  0  0  0
 32 34  1  0  0  0  0
 33 32  1  0  0  0  0
 34 35  1  0  0  0  0
 35 38  1  0  0  0  0
 38 36  1  0  0  0  0
 38 37  1  0  0  0  0
 40 38  1  0  0  0  0
 40 39  2  0  0  0  0
 41 43  1  0  0  0  0
 43 42  2  0  0  0  0
 44 43  1  0  0  0  0
 45 44  1  0  0  0  0
 46 45  1  0  0  0  0
 47 46  1  0  0  0  0
 48 49  1  0  0  0  0
 48 47  1  0  0  0  0
 49 51  1  0  0  0  0
 51 50  1  0  0  0  0
 51 53  1  0  0  0  0
 53 54  1  0  0  0  0
 53 52  1  0  0  0  0
 55 58  2  0  0  0  0
 57 58  1  0  0  0  0
 58 56  1  0  0  0  0
 58 53  1  0  0  0  0
 59 62  1  0  0  0  0
 59 47  1  0  0  0  0
 60 63  1  0  0  0  0
 60 62  1  0  0  0  0
 61 60  1  0  0  0  0
 61 62  1  0  0  0  0
 65 63  1  0  0  0  0
 65 64  2  0  0  0  0
 66 67  1  0  0  0  0
 66 65  1  0  0  0  0
 68 69  1  0  0  0  0
 68 67  1  0  0  0  0
 70 69  1  0  0  0  0
M  END
>  <MODEL>
5

>  <REMARK>
 VINA RESULT:      -3.2      3.205      7.851
  Name = 
  36 active torsions:
  status: ('A' for Active; 'I' for Inactive)
    1  A    between atoms: C_1  and  C_59
    2  A    between atoms: C_1  and  O_60
    3  A    between atoms: C_6  and  C_8
    4  A    between atoms: C_7  and  C_57
    5  A    between atoms: C_8  and  C_36
    6  A    between atoms: C_9  and  C_62
    7  A    between atoms: C_10  and  C_30
    8  A    between atoms: C_10  and  C_56
    9  A    between atoms: C_11  and  C_16
   10  A    between atoms: C_11  and  C_43
   11  A    between atoms: C_12  and  C_41
   12  A    between atoms: C_12  and  C_51
   13  A    between atoms: C_15  and  C_54
   14  A    between atoms: C_16  and  C_58
   15  A    between atoms: C_17  and  C_26
   16  A    between atoms: C_17  and  C_65
   17  A    between atoms: C_19  and  N_47
   18  A    between atoms: C_25  and  C_34
   19  A    between atoms: C_25  and  C_50
   20  A    between atoms: C_26  and  O_60
   21  A    between atoms: C_26  and  C_70
   22  A    between atoms: C_27  and  P_49
   23  A    between atoms: C_27  and  C_59
   24  A    between atoms: C_30  and  C_70
   25  A    between atoms: C_33  and  C_34
   26  A    between atoms: C_33  and  C_52
   27  A    between atoms: O_35  and  C_36
   28  A    between atoms: O_35  and  C_41
   29  A    between atoms: O_37  and  C_58
   30  A    between atoms: O_37  and  C_62
   31  A    between atoms: C_40  and  C_68
   32  A    between atoms: C_43  and  C_68
   33  A    between atoms: C_50  and  C_57
   34  A    between atoms: C_52  and  C_62
   35  A    between atoms: C_53  and  C_58
   36  A    between atoms: C_54  and  C_56
                            x       y       z     vdW  Elec       q    Type
                         _______ _______ _______ _____ _____    ______ ____

>  <TORSDO>
F 36

$$$$
