=
 OpenBabel11062412593D

 38 42  0  0  1  0  0  0  0  0999 V2000
  188.0500  177.8790  140.7040 C   0  0  0  0  0  2  0  0  0  0  0  0
  188.4010  177.9750  142.2020 C   0  0  2  0  0  3  0  0  0  0  0  0
  190.8460  177.0740  141.9640 C   0  0  1  0  0  3  0  0  0  0  0  0
  190.3650  177.3040  139.7620 C   0  0  2  0  0  3  0  0  0  0  0  0
  190.3110  176.4100  140.8480 O   0  0  0  0  0  0  0  0  0  0  0  0
  189.9060  178.1950  142.4880 C   0  0  2  0  0  3  0  0  0  0  0  0
  191.1460  176.0550  143.0640 C   0  0  0  0  0  2  0  0  0  0  0  0
  189.1790  178.2880  139.7500 C   0  0  0  0  0  2  0  0  0  0  0  0
  190.1670  178.6140  143.9410 C   0  0  0  0  0  2  0  0  0  0  0  0
  191.7580  176.6890  144.3220 C   0  0  1  0  0  3  0  0  0  0  0  0
  191.5660  178.2130  144.3960 C   0  0  0  0  0  2  0  0  0  0  0  0
  189.8290  175.4080  136.6840 O   0  0  0  0  0  0  0  0  0  0  0  0
  189.3810  176.0220  137.8500 C   0  0  0  0  0  3  0  0  0  0  0  0
  192.9630  176.4960  138.2240 C   0  0  0  0  0  1  0  0  0  0  0  0
  191.6080  176.3240  137.7300 N   0  0  0  0  0  0  0  0  0  0  0  0
  190.4210  176.5440  138.4740 C   0  0  0  0  0  0  0  0  0  0  0  0
  191.2420  175.5400  136.5650 C   0  0  0  0  0  2  0  0  0  0  0  0
  187.8460  176.7420  142.9130 C   0  0  0  0  0  2  0  0  0  0  0  0
  187.2350  177.0990  144.2590 C   0  0  0  0  0  2  0  0  0  0  0  0
  186.4080  178.3720  144.1610 C   0  0  0  0  0  2  0  0  0  0  0  0
  184.9930  178.0670  144.3090 N   0  0  0  0  0  2  0  0  0  0  0  0
  185.1430  179.1610  142.2960 O   0  0  0  0  0  0  0  0  0  0  0  0
  184.2790  178.8110  143.2830 C   0  0  1  0  0  3  0  0  0  0  0  0
  184.3170  178.0780  142.0410 N   0  0  0  0  0  0  0  0  0  0  0  0
  183.2200  178.5730  141.2290 C   0  0  0  0  0  2  0  0  0  0  0  0
  183.8220  178.7040  138.7270 C   0  0  2  0  0  3  0  0  0  0  0  0
  181.5480  177.8330  139.1740 S   0  0  0  0  0  0  0  0  0  0  0  0
  182.5200  178.7760  137.9610 C   0  0  0  0  0  2  0  0  0  0  0  0
  183.2270  177.8790  139.8690 C   0  0  2  0  0  3  0  0  0  0  0  0
  184.2160  180.0450  139.1380 N   0  0  0  0  0  1  0  0  0  0  0  0
  191.1570  176.0160  145.5440 C   0  0  0  0  0  2  0  0  0  0  0  0
  191.4080  176.8410  146.7940 C   0  0  0  0  0  2  0  0  0  0  0  0
  190.3170  176.7190  147.6540 O   0  0  0  0  0  0  0  0  0  0  0  0
  189.5760  178.5720  148.6510 O   0  0  0  0  0  0  0  0  0  0  0  0
  187.7760  176.1670  148.7230 O   0  0  0  0  0  0  0  0  0  0  0  0
  188.0300  177.8060  148.3910 P   0  0  0  0  0  0  0  0  0  0  0  0
  189.5950  177.9010  147.4880 C   0  0  0  0  0  2  0  0  0  0  0  0
  187.0040  178.5050  147.5300 O   0  0  0  0  0  0  0  0  0  0  0  0
  1  2  1  0  0  0  0
  2  6  1  0  0  0  0
  2 18  1  1  0  0  0
  3  6  1  0  0  0  0
  3  7  1  1  0  0  0
  4 16  1  6  0  0  0
  4  5  1  0  0  0  0
  5  3  1  0  0  0  0
  6  9  1  1  0  0  0
  7 10  1  0  0  0  0
  8  4  1  0  0  0  0
  8  1  1  0  0  0  0
  9 11  1  0  0  0  0
 10 11  1  0  0  0  0
 10 31  1  1  0  0  0
 12 13  1  0  0  0  0
 13 16  2  0  0  0  0
 15 14  1  0  0  0  0
 15 16  1  0  0  0  0
 17 12  1  0  0  0  0
 17 15  1  0  0  0  0
 18 19  1  0  0  0  0
 20 19  1  0  0  0  0
 20 21  1  0  0  0  0
 22 23  1  0  0  0  0
 23 21  1  1  0  0  0
 24 22  1  0  0  0  0
 24 23  1  0  0  0  0
 25 24  1  0  0  0  0
 26 30  1  1  0  0  0
 26 29  1  0  0  0  0
 27 29  1  0  0  0  0
 28 26  1  0  0  0  0
 28 27  1  0  0  0  0
 29 25  1  1  0  0  0
 31 32  1  0  0  0  0
 32 33  1  0  0  0  0
 36 34  1  0  0  0  0
 36 35  2  0  0  0  0
 37 33  1  0  0  0  0
 37 34  1  0  0  0  0
 38 36  2  0  0  0  0
M  END
>  <MODEL>
1

>  <REMARK>
 VINA RESULT:      -7.4      0.000      0.000
  Name = 
  12 active torsions:
  status: ('A' for Active; 'I' for Inactive)
    1  A    between atoms: O_1  and  C_16
    2  A    between atoms: O_1  and  C_34
    3  A    between atoms: C_3  and  C_8
    4  A    between atoms: C_8  and  C_12
    5  A    between atoms: C_10  and  C_30
    6  A    between atoms: C_12  and  C_17
    7  A    between atoms: C_16  and  C_27
    8  A    between atoms: C_17  and  N_24
    9  A    between atoms: C_20  and  N_24
   10  A    between atoms: N_23  and  C_37
   11  A    between atoms: C_27  and  C_29
   12  A    between atoms: C_35  and  C_37
                            x       y       z     vdW  Elec       q    Type
                         _______ _______ _______ _____ _____    ______ ____

>  <TORSDO>
F 12

$$$$
=
 OpenBabel11062412593D

 38 42  0  0  1  0  0  0  0  0999 V2000
  188.2380  177.9480  140.3850 C   0  0  0  0  0  2  0  0  0  0  0  0
  188.5310  178.0800  141.8920 C   0  0  2  0  0  3  0  0  0  0  0  0
  190.9310  177.0410  141.7920 C   0  0  1  0  0  3  0  0  0  0  0  0
  190.5560  177.2160  139.5640 C   0  0  2  0  0  3  0  0  0  0  0  0
  190.4060  176.3660  140.6770 O   0  0  0  0  0  0  0  0  0  0  0  0
  190.0320  178.2290  142.2360 C   0  0  2  0  0  3  0  0  0  0  0  0
  191.1280  176.0480  142.9380 C   0  0  0  0  0  2  0  0  0  0  0  0
  189.4260  178.2600  139.4670 C   0  0  0  0  0  2  0  0  0  0  0  0
  190.2560  178.6870  143.6840 C   0  0  0  0  0  2  0  0  0  0  0  0
  191.7210  176.6940  144.1990 C   0  0  1  0  0  3  0  0  0  0  0  0
  191.6110  178.2270  144.2120 C   0  0  0  0  0  2  0  0  0  0  0  0
  190.0480  175.1970  136.5610 O   0  0  0  0  0  0  0  0  0  0  0  0
  189.5900  175.8500  137.7010 C   0  0  0  0  0  3  0  0  0  0  0  0
  193.1660  176.3760  138.0650 C   0  0  0  0  0  1  0  0  0  0  0  0
  191.8140  176.1710  137.5750 N   0  0  0  0  0  0  0  0  0  0  0  0
  190.6230  176.4070  138.3060 C   0  0  0  0  0  0  0  0  0  0  0  0
  191.4590  175.3390  136.4400 C   0  0  0  0  0  2  0  0  0  0  0  0
  187.8800  176.9050  142.6200 C   0  0  0  0  0  2  0  0  0  0  0  0
  186.8700  177.3770  143.6530 C   0  0  0  0  0  2  0  0  0  0  0  0
  186.0800  178.5710  143.1370 C   0  0  0  0  0  2  0  0  0  0  0  0
  185.3980  179.2380  144.2360 N   0  0  0  0  0  2  0  0  0  0  0  0
  183.4380  179.1800  145.4290 O   0  0  0  0  0  0  0  0  0  0  0  0
  184.1050  178.5950  144.4010 C   0  0  1  0  0  3  0  0  0  0  0  0
  183.0550  179.5510  144.1510 N   0  0  0  0  0  0  0  0  0  0  0  0
  181.8600  178.7890  143.8360 C   0  0  0  0  0  2  0  0  0  0  0  0
  179.9530  178.6040  142.1120 C   0  0  2  0  0  3  0  0  0  0  0  0
  182.2180  178.6300  141.1130 S   0  0  0  0  0  0  0  0  0  0  0  0
  180.5400  177.9760  140.8680 C   0  0  0  0  0  2  0  0  0  0  0  0
  181.2640  179.2790  142.5180 C   0  0  2  0  0  3  0  0  0  0  0  0
  179.5430  177.5560  143.0370 N   0  0  0  0  0  1  0  0  0  0  0  0
  191.0330  176.0990  145.4160 C   0  0  0  0  0  2  0  0  0  0  0  0
  191.2660  176.9620  146.6440 C   0  0  0  0  0  2  0  0  0  0  0  0
  190.1440  176.9020  147.4700 O   0  0  0  0  0  0  0  0  0  0  0  0
  188.9540  178.4790  146.4330 O   0  0  0  0  0  0  0  0  0  0  0  0
  188.0560  177.6750  149.1860 O   0  0  0  0  0  0  0  0  0  0  0  0
  187.7240  177.9460  147.5490 P   0  0  0  0  0  0  0  0  0  0  0  0
  189.0620  177.1540  146.6260 C   0  0  0  0  0  2  0  0  0  0  0  0
  186.4380  177.3740  147.0010 O   0  0  0  0  0  0  0  0  0  0  0  0
  1  2  1  0  0  0  0
  2  6  1  0  0  0  0
  2 18  1  1  0  0  0
  3  6  1  0  0  0  0
  3  7  1  1  0  0  0
  4 16  1  6  0  0  0
  4  5  1  0  0  0  0
  5  3  1  0  0  0  0
  6  9  1  1  0  0  0
  7 10  1  0  0  0  0
  8  4  1  0  0  0  0
  8  1  1  0  0  0  0
  9 11  1  0  0  0  0
 10 11  1  0  0  0  0
 10 31  1  1  0  0  0
 12 13  1  0  0  0  0
 13 16  2  0  0  0  0
 15 14  1  0  0  0  0
 15 16  1  0  0  0  0
 17 12  1  0  0  0  0
 17 15  1  0  0  0  0
 18 19  1  0  0  0  0
 20 19  1  0  0  0  0
 20 21  1  0  0  0  0
 23 21  1  1  0  0  0
 23 22  1  0  0  0  0
 24 23  1  0  0  0  0
 24 22  1  0  0  0  0
 25 24  1  0  0  0  0
 26 29  1  0  0  0  0
 26 30  1  1  0  0  0
 27 29  1  0  0  0  0
 28 27  1  0  0  0  0
 28 26  1  0  0  0  0
 29 25  1  1  0  0  0
 31 32  1  0  0  0  0
 32 33  1  0  0  0  0
 34 37  1  0  0  0  0
 34 36  1  0  0  0  0
 36 35  2  0  0  0  0
 37 33  1  0  0  0  0
 38 36  2  0  0  0  0
M  END
>  <MODEL>
2

>  <REMARK>
 VINA RESULT:      -7.3      1.711      1.977
  Name = 
  12 active torsions:
  status: ('A' for Active; 'I' for Inactive)
    1  A    between atoms: O_1  and  C_16
    2  A    between atoms: O_1  and  C_34
    3  A    between atoms: C_3  and  C_8
    4  A    between atoms: C_8  and  C_12
    5  A    between atoms: C_10  and  C_30
    6  A    between atoms: C_12  and  C_17
    7  A    between atoms: C_16  and  C_27
    8  A    between atoms: C_17  and  N_24
    9  A    between atoms: C_20  and  N_24
   10  A    between atoms: N_23  and  C_37
   11  A    between atoms: C_27  and  C_29
   12  A    between atoms: C_35  and  C_37
                            x       y       z     vdW  Elec       q    Type
                         _______ _______ _______ _____ _____    ______ ____

>  <TORSDO>
F 12

$$$$
=
 OpenBabel11062412593D

 38 42  0  0  1  0  0  0  0  0999 V2000
  184.0090  177.1420  136.4790 C   0  0  0  0  0  2  0  0  0  0  0  0
  185.3770  177.8500  136.4780 C   0  0  2  0  0  3  0  0  0  0  0  0
  186.8060  175.6730  136.2120 C   0  0  1  0  0  3  0  0  0  0  0  0
  184.7580  174.7660  135.8670 C   0  0  2  0  0  3  0  0  0  0  0  0
  185.7090  175.0790  136.8570 O   0  0  0  0  0  0  0  0  0  0  0  0
  186.4790  177.1000  135.6900 C   0  0  2  0  0  3  0  0  0  0  0  0
  188.0000  175.7020  137.1660 C   0  0  0  0  0  2  0  0  0  0  0  0
  183.8840  175.9780  135.4880 C   0  0  0  0  0  2  0  0  0  0  0  0
  187.7100  177.9790  135.4320 C   0  0  0  0  0  2  0  0  0  0  0  0
  189.2580  176.3170  136.5380 C   0  0  1  0  0  3  0  0  0  0  0  0
  188.9720  177.1380  135.2700 C   0  0  0  0  0  2  0  0  0  0  0  0
  182.1850  172.4640  137.0630 O   0  0  0  0  0  0  0  0  0  0  0  0
  182.6520  173.7350  136.7430 C   0  0  0  0  0  3  0  0  0  0  0  0
  185.6740  171.7960  136.1920 C   0  0  0  0  0  1  0  0  0  0  0  0
  184.3070  172.2710  136.3150 N   0  0  0  0  0  0  0  0  0  0  0  0
  183.8980  173.6280  136.3210 C   0  0  0  0  0  0  0  0  0  0  0  0
  183.2010  171.4910  136.8410 C   0  0  0  0  0  2  0  0  0  0  0  0
  185.7830  178.1290  137.9240 C   0  0  0  0  0  2  0  0  0  0  0  0
  184.5930  178.0350  138.8670 C   0  0  0  0  0  2  0  0  0  0  0  0
  184.5040  179.2660  139.7560 C   0  0  0  0  0  2  0  0  0  0  0  0
  185.6210  179.2990  140.6870 N   0  0  0  0  0  2  0  0  0  0  0  0
  184.8330  177.8470  142.2810 O   0  0  0  0  0  0  0  0  0  0  0  0
  185.0750  179.1580  142.0270 C   0  0  1  0  0  3  0  0  0  0  0  0
  185.9810  178.3850  142.8390 N   0  0  0  0  0  0  0  0  0  0  0  0
  185.6660  178.6890  144.2240 C   0  0  0  0  0  2  0  0  0  0  0  0
  186.1580  177.9090  146.6300 C   0  0  2  0  0  3  0  0  0  0  0  0
  188.0420  177.5800  145.0570 S   0  0  0  0  0  0  0  0  0  0  0  0
  187.6610  177.9230  146.8020 C   0  0  0  0  0  2  0  0  0  0  0  0
  186.2250  177.5980  145.1340 C   0  0  2  0  0  3  0  0  0  0  0  0
  185.6280  179.2370  146.9120 N   0  0  0  0  0  1  0  0  0  0  0  0
  189.9520  177.1750  137.5830 C   0  0  0  0  0  2  0  0  0  0  0  0
  189.3080  176.9910  138.9460 C   0  0  0  0  0  2  0  0  0  0  0  0
  190.2380  176.4370  139.8250 O   0  0  0  0  0  0  0  0  0  0  0  0
  192.1210  177.2750  140.6790 O   0  0  0  0  0  0  0  0  0  0  0  0
  190.3620  175.6960  142.5340 O   0  0  0  0  0  0  0  0  0  0  0  0
  191.2400  177.0970  142.1730 P   0  0  0  0  0  0  0  0  0  0  0  0
  190.8200  177.5300  140.4680 C   0  0  0  0  0  2  0  0  0  0  0  0
  190.9530  178.3260  143.0030 O   0  0  0  0  0  0  0  0  0  0  0  0
  2  1  1  0  0  0  0
  2 18  1  1  0  0  0
  3  5  1  0  0  0  0
  3  7  1  1  0  0  0
  4 16  1  1  0  0  0
  4  5  1  0  0  0  0
  6  9  1  1  0  0  0
  6  3  1  0  0  0  0
  6  2  1  0  0  0  0
  8  4  1  0  0  0  0
  8  1  1  0  0  0  0
 10  7  1  0  0  0  0
 10 31  1  1  0  0  0
 11  9  1  0  0  0  0
 11 10  1  0  0  0  0
 13 12  1  0  0  0  0
 14 15  1  0  0  0  0
 15 16  1  0  0  0  0
 15 17  1  0  0  0  0
 16 13  2  0  0  0  0
 17 12  1  0  0  0  0
 18 19  1  0  0  0  0
 19 20  1  0  0  0  0
 20 21  1  0  0  0  0
 22 24  1  0  0  0  0
 23 21  1  6  0  0  0
 23 22  1  0  0  0  0
 23 24  1  0  0  0  0
 24 25  1  0  0  0  0
 26 28  1  0  0  0  0
 26 30  1  6  0  0  0
 27 29  1  0  0  0  0
 27 28  1  0  0  0  0
 29 25  1  6  0  0  0
 29 26  1  0  0  0  0
 31 32  1  0  0  0  0
 32 33  1  0  0  0  0
 33 37  1  0  0  0  0
 34 36  1  0  0  0  0
 36 35  2  0  0  0  0
 36 38  2  0  0  0  0
 37 34  1  0  0  0  0
M  END
>  <MODEL>
3

>  <REMARK>
 VINA RESULT:      -6.5      3.927      7.157
  Name = 
  12 active torsions:
  status: ('A' for Active; 'I' for Inactive)
    1  A    between atoms: O_1  and  C_16
    2  A    between atoms: O_1  and  C_34
    3  A    between atoms: C_3  and  C_8
    4  A    between atoms: C_8  and  C_12
    5  A    between atoms: C_10  and  C_30
    6  A    between atoms: C_12  and  C_17
    7  A    between atoms: C_16  and  C_27
    8  A    between atoms: C_17  and  N_24
    9  A    between atoms: C_20  and  N_24
   10  A    between atoms: N_23  and  C_37
   11  A    between atoms: C_27  and  C_29
   12  A    between atoms: C_35  and  C_37
                            x       y       z     vdW  Elec       q    Type
                         _______ _______ _______ _____ _____    ______ ____

>  <TORSDO>
F 12

$$$$
=
 OpenBabel11062412593D

 38 42  0  0  1  0  0  0  0  0999 V2000
  184.4530  179.1810  138.9760 C   0  0  0  0  0  2  0  0  0  0  0  0
  183.9440  178.3140  137.8080 C   0  0  2  0  0  3  0  0  0  0  0  0
  182.2740  176.8920  139.2350 C   0  0  1  0  0  3  0  0  0  0  0  0
  182.8130  178.4370  140.8030 C   0  0  2  0  0  3  0  0  0  0  0  0
  183.1770  177.1850  140.2700 O   0  0  0  0  0  0  0  0  0  0  0  0
  182.4980  177.7920  137.9880 C   0  0  2  0  0  3  0  0  0  0  0  0
  182.3880  175.4130  138.8670 C   0  0  0  0  0  2  0  0  0  0  0  0
  183.3740  179.6110  139.9770 C   0  0  0  0  0  2  0  0  0  0  0  0
  181.9160  177.2270  136.6850 C   0  0  0  0  0  2  0  0  0  0  0  0
  181.4180  174.9930  137.7530 C   0  0  1  0  0  3  0  0  0  0  0  0
  180.8440  176.1780  136.9600 C   0  0  0  0  0  2  0  0  0  0  0  0
  184.5200  178.5010  144.0330 O   0  0  0  0  0  0  0  0  0  0  0  0
  184.4840  178.2750  142.6600 C   0  0  0  0  0  3  0  0  0  0  0  0
  180.9940  179.0900  143.2590 C   0  0  0  0  0  1  0  0  0  0  0  0
  182.4430  178.9830  143.2920 N   0  0  0  0  0  0  0  0  0  0  0  0
  183.2650  178.5400  142.2260 C   0  0  0  0  0  0  0  0  0  0  0  0
  183.2430  178.9240  144.5010 C   0  0  0  0  0  2  0  0  0  0  0  0
  184.9450  177.1860  137.5660 C   0  0  0  0  0  2  0  0  0  0  0  0
  185.7320  177.4030  136.2830 C   0  0  0  0  0  2  0  0  0  0  0  0
  187.2260  177.4600  136.5630 C   0  0  0  0  0  2  0  0  0  0  0  0
  187.5280  178.5590  137.4690 N   0  0  0  0  0  2  0  0  0  0  0  0
  189.0690  179.1340  139.0710 O   0  0  0  0  0  0  0  0  0  0  0  0
  188.5170  178.0780  138.4210 C   0  0  1  0  0  3  0  0  0  0  0  0
  188.1030  178.4180  139.7600 N   0  0  0  0  0  0  0  0  0  0  0  0
  188.8110  177.5230  140.6570 C   0  0  0  0  0  2  0  0  0  0  0  0
  190.0510  178.0940  142.8430 C   0  0  2  0  0  3  0  0  0  0  0  0
  187.9680  176.7970  143.1730 S   0  0  0  0  0  0  0  0  0  0  0  0
  189.6220  177.0750  143.8750 C   0  0  0  0  0  2  0  0  0  0  0  0
  188.7210  178.0470  142.0890 C   0  0  2  0  0  3  0  0  0  0  0  0
  191.1630  177.5590  142.0680 N   0  0  0  0  0  1  0  0  0  0  0  0
  182.1370  174.0280  136.8240 C   0  0  0  0  0  2  0  0  0  0  0  0
  183.5220  173.7000  137.3520 C   0  0  0  0  0  2  0  0  0  0  0  0
  184.2900  173.1530  136.3260 O   0  0  0  0  0  0  0  0  0  0  0  0
  185.6800  172.9510  138.0590 O   0  0  0  0  0  0  0  0  0  0  0  0
  186.8070  174.1210  135.5310 O   0  0  0  0  0  0  0  0  0  0  0  0
  186.8810  172.9980  136.7950 P   0  0  0  0  0  0  0  0  0  0  0  0
  185.2110  172.3250  136.9680 C   0  0  0  0  0  2  0  0  0  0  0  0
  187.7970  171.8110  136.6130 O   0  0  0  0  0  0  0  0  0  0  0  0
  1  8  1  0  0  0  0
  2 18  1  1  0  0  0
  2  6  1  0  0  0  0
  2  1  1  0  0  0  0
  3  7  1  6  0  0  0
  3  5  1  0  0  0  0
  4 16  1  1  0  0  0
  5  4  1  0  0  0  0
  6  9  1  6  0  0  0
  6  3  1  0  0  0  0
  8  4  1  0  0  0  0
  9 11  1  0  0  0  0
 10 31  1  6  0  0  0
 10  7  1  0  0  0  0
 11 10  1  0  0  0  0
 12 17  1  0  0  0  0
 13 12  1  0  0  0  0
 14 15  1  0  0  0  0
 15 17  1  0  0  0  0
 16 13  2  0  0  0  0
 16 15  1  0  0  0  0
 19 20  1  0  0  0  0
 19 18  1  0  0  0  0
 20 21  1  0  0  0  0
 22 24  1  0  0  0  0
 23 21  1  6  0  0  0
 23 22  1  0  0  0  0
 23 24  1  0  0  0  0
 24 25  1  0  0  0  0
 26 30  1  6  0  0  0
 26 28  1  0  0  0  0
 27 28  1  0  0  0  0
 29 25  1  6  0  0  0
 29 26  1  0  0  0  0
 29 27  1  0  0  0  0
 31 32  1  0  0  0  0
 33 37  1  0  0  0  0
 33 32  1  0  0  0  0
 35 36  2  0  0  0  0
 36 34  1  0  0  0  0
 37 34  1  0  0  0  0
 38 36  2  0  0  0  0
M  END
>  <MODEL>
4

>  <REMARK>
 VINA RESULT:      -6.4      3.888      9.615
  Name = 
  12 active torsions:
  status: ('A' for Active; 'I' for Inactive)
    1  A    between atoms: O_1  and  C_16
    2  A    between atoms: O_1  and  C_34
    3  A    between atoms: C_3  and  C_8
    4  A    between atoms: C_8  and  C_12
    5  A    between atoms: C_10  and  C_30
    6  A    between atoms: C_12  and  C_17
    7  A    between atoms: C_16  and  C_27
    8  A    between atoms: C_17  and  N_24
    9  A    between atoms: C_20  and  N_24
   10  A    between atoms: N_23  and  C_37
   11  A    between atoms: C_27  and  C_29
   12  A    between atoms: C_35  and  C_37
                            x       y       z     vdW  Elec       q    Type
                         _______ _______ _______ _____ _____    ______ ____

>  <TORSDO>
F 12

$$$$
=
 OpenBabel11062412593D

 38 42  0  0  1  0  0  0  0  0999 V2000
  191.4220  174.1630  135.6420 C   0  0  0  0  0  2  0  0  0  0  0  0
  190.1780  174.9590  136.0820 C   0  0  2  0  0  3  0  0  0  0  0  0
  191.4510  176.5860  137.6880 C   0  0  1  0  0  3  0  0  0  0  0  0
  193.2500  175.6040  136.7210 C   0  0  2  0  0  3  0  0  0  0  0  0
  192.3440  175.5070  137.7950 O   0  0  0  0  0  0  0  0  0  0  0  0
  190.4720  176.4220  136.4920 C   0  0  2  0  0  3  0  0  0  0  0  0
  190.6860  176.7410  139.0020 C   0  0  0  0  0  2  0  0  0  0  0  0
  192.6820  175.0090  135.4180 C   0  0  0  0  0  2  0  0  0  0  0  0
  189.1940  177.2650  136.5990 C   0  0  0  0  0  2  0  0  0  0  0  0
  189.6960  177.9150  138.9880 C   0  0  1  0  0  3  0  0  0  0  0  0
  189.3690  178.4240  137.5750 C   0  0  0  0  0  2  0  0  0  0  0  0
  196.0420  173.6760  138.0780 O   0  0  0  0  0  0  0  0  0  0  0  0
  194.7140  174.0940  138.0790 C   0  0  0  0  0  3  0  0  0  0  0  0
  196.0180  176.1330  135.3690 C   0  0  0  0  0  1  0  0  0  0  0  0
  195.7450  175.0920  136.3450 N   0  0  0  0  0  0  0  0  0  0  0  0
  194.5410  174.9360  137.0760 C   0  0  0  0  0  0  0  0  0  0  0  0
  196.7580  174.2980  137.0160 C   0  0  0  0  0  2  0  0  0  0  0  0
  189.4630  174.1770  137.1830 C   0  0  0  0  0  2  0  0  0  0  0  0
  188.3080  173.3580  136.6280 C   0  0  0  0  0  2  0  0  0  0  0  0
  187.2070  174.2620  136.0930 C   0  0  0  0  0  2  0  0  0  0  0  0
  186.3560  174.7190  137.1820 N   0  0  0  0  0  2  0  0  0  0  0  0
  184.4480  175.6950  136.3590 O   0  0  0  0  0  0  0  0  0  0  0  0
  185.7220  175.9540  136.7490 C   0  0  1  0  0  3  0  0  0  0  0  0
  184.6090  176.2550  137.6160 N   0  0  0  0  0  0  0  0  0  0  0  0
  184.3420  177.6760  137.4760 C   0  0  0  0  0  2  0  0  0  0  0  0
  183.4110  179.1760  139.3530 C   0  0  2  0  0  3  0  0  0  0  0  0
  182.8210  176.7830  139.5870 S   0  0  0  0  0  0  0  0  0  0  0  0
  183.1650  178.2860  140.5510 C   0  0  0  0  0  2  0  0  0  0  0  0
  183.1430  178.0640  138.3380 C   0  0  2  0  0  3  0  0  0  0  0  0
  184.7990  179.6190  139.3580 N   0  0  0  0  0  1  0  0  0  0  0  0
  188.4280  177.4880  139.7080 C   0  0  0  0  0  2  0  0  0  0  0  0
  188.0220  178.5200  140.7450 C   0  0  0  0  0  2  0  0  0  0  0  0
  188.9280  178.4920  141.8040 O   0  0  0  0  0  0  0  0  0  0  0  0
  188.8550  177.3730  143.7330 O   0  0  0  0  0  0  0  0  0  0  0  0
  191.5240  177.5730  142.3680 O   0  0  0  0  0  0  0  0  0  0  0  0
  190.3060  176.6480  143.0910 P   0  0  0  0  0  0  0  0  0  0  0  0
  188.7440  177.2440  142.4010 C   0  0  0  0  0  2  0  0  0  0  0  0
  190.3320  175.1570  142.8470 O   0  0  0  0  0  0  0  0  0  0  0  0
  1  2  1  0  0  0  0
  2  6  1  0  0  0  0
  2 18  1  1  0  0  0
  3  5  1  0  0  0  0
  3  7  1  1  0  0  0
  4 16  1  1  0  0  0
  4  5  1  0  0  0  0
  6  9  1  1  0  0  0
  6  3  1  0  0  0  0
  8  1  1  0  0  0  0
  8  4  1  0  0  0  0
  9 11  1  0  0  0  0
 10  7  1  0  0  0  0
 10 31  1  6  0  0  0
 11 10  1  0  0  0  0
 12 13  1  0  0  0  0
 14 15  1  0  0  0  0
 15 17  1  0  0  0  0
 15 16  1  0  0  0  0
 16 13  2  0  0  0  0
 17 12  1  0  0  0  0
 19 18  1  0  0  0  0
 20 19  1  0  0  0  0
 20 21  1  0  0  0  0
 22 23  1  0  0  0  0
 22 24  1  0  0  0  0
 23 21  1  1  0  0  0
 23 24  1  0  0  0  0
 25 24  1  0  0  0  0
 26 30  1  1  0  0  0
 26 28  1  0  0  0  0
 27 28  1  0  0  0  0
 29 25  1  1  0  0  0
 29 26  1  0  0  0  0
 29 27  1  0  0  0  0
 31 32  1  0  0  0  0
 32 33  1  0  0  0  0
 33 37  1  0  0  0  0
 35 36  2  0  0  0  0
 36 34  1  0  0  0  0
 37 34  1  0  0  0  0
 38 36  2  0  0  0  0
M  END
>  <MODEL>
5

>  <REMARK>
 VINA RESULT:      -6.2      3.124      5.850
  Name = 
  12 active torsions:
  status: ('A' for Active; 'I' for Inactive)
    1  A    between atoms: O_1  and  C_16
    2  A    between atoms: O_1  and  C_34
    3  A    between atoms: C_3  and  C_8
    4  A    between atoms: C_8  and  C_12
    5  A    between atoms: C_10  and  C_30
    6  A    between atoms: C_12  and  C_17
    7  A    between atoms: C_16  and  C_27
    8  A    between atoms: C_17  and  N_24
    9  A    between atoms: C_20  and  N_24
   10  A    between atoms: N_23  and  C_37
   11  A    between atoms: C_27  and  C_29
   12  A    between atoms: C_35  and  C_37
                            x       y       z     vdW  Elec       q    Type
                         _______ _______ _______ _____ _____    ______ ____

>  <TORSDO>
F 12

$$$$
=
 OpenBabel11062412593D

 38 42  0  0  1  0  0  0  0  0999 V2000
  187.3810  177.7700  135.8900 C   0  0  0  0  0  2  0  0  0  0  0  0
  188.9200  177.6960  135.8770 C   0  0  2  0  0  3  0  0  0  0  0  0
  189.0700  175.1290  136.3620 C   0  0  1  0  0  3  0  0  0  0  0  0
  186.8350  175.2670  136.0090 C   0  0  2  0  0  3  0  0  0  0  0  0
  187.8360  175.3510  136.9970 O   0  0  0  0  0  0  0  0  0  0  0  0
  189.4860  176.3190  135.4540 C   0  0  2  0  0  3  0  0  0  0  0  0
  190.1390  174.8490  137.4180 C   0  0  0  0  0  2  0  0  0  0  0  0
  186.6730  176.5840  135.2250 C   0  0  0  0  0  2  0  0  0  0  0  0
  190.9850  176.3780  135.1330 C   0  0  0  0  0  2  0  0  0  0  0  0
  191.5230  174.5720  136.8150 C   0  0  1  0  0  3  0  0  0  0  0  0
  191.6580  175.0270  135.3530 C   0  0  0  0  0  2  0  0  0  0  0  0
  183.5950  174.9550  137.6690 O   0  0  0  0  0  0  0  0  0  0  0  0
  184.6950  175.6900  137.2370 C   0  0  0  0  0  3  0  0  0  0  0  0
  185.7560  172.3470  136.2890 C   0  0  0  0  0  1  0  0  0  0  0  0
  185.0100  173.5530  136.6070 N   0  0  0  0  0  0  0  0  0  0  0  0
  185.5330  174.8700  136.6310 C   0  0  0  0  0  0  0  0  0  0  0  0
  183.7480  173.5820  137.3250 C   0  0  0  0  0  2  0  0  0  0  0  0
  189.4410  178.1450  137.2410 C   0  0  0  0  0  2  0  0  0  0  0  0
  188.3120  178.6240  138.1410 C   0  0  0  0  0  2  0  0  0  0  0  0
  188.2020  177.7560  139.3850 C   0  0  0  0  0  2  0  0  0  0  0  0
  189.3370  177.9890  140.2660 N   0  0  0  0  0  2  0  0  0  0  0  0
  190.5560  176.0910  140.6960 O   0  0  0  0  0  0  0  0  0  0  0  0
  189.4820  176.8130  141.1080 C   0  0  1  0  0  3  0  0  0  0  0  0
  190.7340  176.8800  141.8200 N   0  0  0  0  0  0  0  0  0  0  0  0
  190.6110  176.0010  142.9690 C   0  0  0  0  0  2  0  0  0  0  0  0
  189.9310  177.1330  145.1820 C   0  0  2  0  0  3  0  0  0  0  0  0
  191.5470  178.4380  143.8350 S   0  0  0  0  0  0  0  0  0  0  0  0
  190.1740  178.6170  145.0130 C   0  0  0  0  0  2  0  0  0  0  0  0
  191.0600  176.7320  144.2320 C   0  0  2  0  0  3  0  0  0  0  0  0
  188.6090  176.7990  144.6670 N   0  0  0  0  0  1  0  0  0  0  0  0
  192.5740  175.2460  137.6830 C   0  0  0  0  0  2  0  0  0  0  0  0
  193.9360  175.2020  137.0140 C   0  0  0  0  0  2  0  0  0  0  0  0
  194.9280  175.3960  137.9740 O   0  0  0  0  0  0  0  0  0  0  0  0
  196.0010  174.1190  139.4560 O   0  0  0  0  0  0  0  0  0  0  0  0
  197.6790  175.5470  137.4130 O   0  0  0  0  0  0  0  0  0  0  0  0
  197.2280  174.1280  138.2160 P   0  0  0  0  0  0  0  0  0  0  0  0
  195.4190  174.1180  138.2460 C   0  0  0  0  0  2  0  0  0  0  0  0
  197.6450  172.8170  137.5920 O   0  0  0  0  0  0  0  0  0  0  0  0
  2  1  1  0  0  0  0
  2 18  1  1  0  0  0
  3  5  1  0  0  0  0
  3  7  1  1  0  0  0
  4 16  1  1  0  0  0
  4  5  1  0  0  0  0
  6  9  1  1  0  0  0
  6  2  1  0  0  0  0
  6  3  1  0  0  0  0
  8  1  1  0  0  0  0
  8  4  1  0  0  0  0
  9 11  1  0  0  0  0
 10  7  1  0  0  0  0
 10 31  1  1  0  0  0
 11 10  1  0  0  0  0
 13 12  1  0  0  0  0
 14 15  1  0  0  0  0
 15 16  1  0  0  0  0
 15 17  1  0  0  0  0
 16 13  2  0  0  0  0
 17 12  1  0  0  0  0
 18 19  1  0  0  0  0
 19 20  1  0  0  0  0
 20 21  1  0  0  0  0
 22 23  1  0  0  0  0
 22 24  1  0  0  0  0
 23 21  1  6  0  0  0
 23 24  1  0  0  0  0
 24 25  1  0  0  0  0
 26 30  1  6  0  0  0
 27 29  1  0  0  0  0
 27 28  1  0  0  0  0
 28 26  1  0  0  0  0
 29 25  1  6  0  0  0
 29 26  1  0  0  0  0
 32 31  1  0  0  0  0
 32 33  1  0  0  0  0
 33 37  1  0  0  0  0
 35 36  2  0  0  0  0
 36 34  1  0  0  0  0
 37 34  1  0  0  0  0
 38 36  2  0  0  0  0
M  END
>  <MODEL>
6

>  <REMARK>
 VINA RESULT:      -6.2      4.824      8.586
  Name = 
  12 active torsions:
  status: ('A' for Active; 'I' for Inactive)
    1  A    between atoms: O_1  and  C_16
    2  A    between atoms: O_1  and  C_34
    3  A    between atoms: C_3  and  C_8
    4  A    between atoms: C_8  and  C_12
    5  A    between atoms: C_10  and  C_30
    6  A    between atoms: C_12  and  C_17
    7  A    between atoms: C_16  and  C_27
    8  A    between atoms: C_17  and  N_24
    9  A    between atoms: C_20  and  N_24
   10  A    between atoms: N_23  and  C_37
   11  A    between atoms: C_27  and  C_29
   12  A    between atoms: C_35  and  C_37
                            x       y       z     vdW  Elec       q    Type
                         _______ _______ _______ _____ _____    ______ ____

>  <TORSDO>
F 12

$$$$
=
 OpenBabel11062412593D

 38 42  0  0  1  0  0  0  0  0999 V2000
  191.2560  176.2430  139.0150 C   0  0  0  0  0  2  0  0  0  0  0  0
  190.4060  176.5160  137.7590 C   0  0  2  0  0  3  0  0  0  0  0  0
  188.5340  177.8690  138.9880 C   0  0  1  0  0  3  0  0  0  0  0  0
  190.0130  177.7260  140.6990 C   0  0  2  0  0  3  0  0  0  0  0  0
  188.9230  177.0810  140.0840 O   0  0  0  0  0  0  0  0  0  0  0  0
  189.5680  177.8150  137.8290 C   0  0  2  0  0  3  0  0  0  0  0  0
  187.1530  177.4210  138.5090 C   0  0  0  0  0  2  0  0  0  0  0  0
  191.3500  177.4170  139.9970 C   0  0  0  0  0  2  0  0  0  0  0  0
  189.0080  178.2230  136.4600 C   0  0  0  0  0  2  0  0  0  0  0  0
  186.6330  178.2430  137.3210 C   0  0  1  0  0  3  0  0  0  0  0  0
  187.7300  179.0440  136.6010 C   0  0  0  0  0  2  0  0  0  0  0  0
  190.8280  176.6150  144.0830 O   0  0  0  0  0  0  0  0  0  0  0  0
  191.1380  176.8140  142.7410 C   0  0  0  0  0  3  0  0  0  0  0  0
  187.6540  177.8450  142.7450 C   0  0  0  0  0  1  0  0  0  0  0  0
  189.0380  177.5520  143.0760 N   0  0  0  0  0  0  0  0  0  0  0  0
  190.0870  177.3460  142.1450 C   0  0  0  0  0  0  0  0  0  0  0  0
  189.4950  177.0380  144.3540 C   0  0  0  0  0  2  0  0  0  0  0  0
  189.5500  175.2850  137.4720 C   0  0  0  0  0  2  0  0  0  0  0  0
  190.3790  174.1470  136.8980 C   0  0  0  0  0  2  0  0  0  0  0  0
  190.7690  174.4310  135.4550 C   0  0  0  0  0  2  0  0  0  0  0  0
  192.2060  174.2830  135.2810 N   0  0  0  0  0  2  0  0  0  0  0  0
  193.6130  172.8110  136.3420 O   0  0  0  0  0  0  0  0  0  0  0  0
  192.7540  173.8420  136.5540 C   0  0  1  0  0  3  0  0  0  0  0  0
  194.1810  174.0550  136.5650 N   0  0  0  0  0  0  0  0  0  0  0  0
  194.5900  174.0830  137.9580 C   0  0  0  0  0  2  0  0  0  0  0  0
  196.8420  174.1950  139.2040 C   0  0  2  0  0  3  0  0  0  0  0  0
  197.0520  174.1820  136.7370 S   0  0  0  0  0  0  0  0  0  0  0  0
  197.8460  174.8030  138.2510 C   0  0  0  0  0  2  0  0  0  0  0  0
  196.0150  173.5520  138.0900 C   0  0  2  0  0  3  0  0  0  0  0  0
  196.1300  175.2590  139.9000 N   0  0  0  0  0  1  0  0  0  0  0  0
  185.9340  177.3050  136.3510 C   0  0  0  0  0  2  0  0  0  0  0  0
  184.6150  176.8190  136.9260 C   0  0  0  0  0  2  0  0  0  0  0  0
  183.9510  177.8880  137.5260 O   0  0  0  0  0  0  0  0  0  0  0  0
  182.2550  177.9560  138.9740 O   0  0  0  0  0  0  0  0  0  0  0  0
  184.5620  179.8130  139.4820 O   0  0  0  0  0  0  0  0  0  0  0  0
  183.4850  178.6220  140.0160 P   0  0  0  0  0  0  0  0  0  0  0  0
  183.4340  177.3680  138.7130 C   0  0  0  0  0  2  0  0  0  0  0  0
  183.8380  177.8910  141.2910 O   0  0  0  0  0  0  0  0  0  0  0  0
  1  8  1  0  0  0  0
  2 18  1  1  0  0  0
  2  6  1  0  0  0  0
  2  1  1  0  0  0  0
  3  7  1  6  0  0  0
  3  5  1  0  0  0  0
  4 16  1  1  0  0  0
  5  4  1  0  0  0  0
  6  9  1  6  0  0  0
  6  3  1  0  0  0  0
  8  4  1  0  0  0  0
  9 11  1  0  0  0  0
 10 31  1  6  0  0  0
 10  7  1  0  0  0  0
 11 10  1  0  0  0  0
 12 17  1  0  0  0  0
 13 12  1  0  0  0  0
 14 15  1  0  0  0  0
 15 17  1  0  0  0  0
 16 13  2  0  0  0  0
 16 15  1  0  0  0  0
 19 18  1  0  0  0  0
 20 19  1  0  0  0  0
 21 20  1  0  0  0  0
 22 23  1  0  0  0  0
 22 24  1  0  0  0  0
 23 21  1  6  0  0  0
 23 24  1  0  0  0  0
 24 25  1  0  0  0  0
 26 30  1  6  0  0  0
 27 29  1  0  0  0  0
 27 28  1  0  0  0  0
 28 26  1  0  0  0  0
 29 25  1  6  0  0  0
 29 26  1  0  0  0  0
 31 32  1  0  0  0  0
 32 33  1  0  0  0  0
 33 37  1  0  0  0  0
 34 36  1  0  0  0  0
 35 36  2  0  0  0  0
 36 38  2  0  0  0  0
 37 34  1  0  0  0  0
M  END
>  <MODEL>
7

>  <REMARK>
 VINA RESULT:      -6.1      4.197      9.617
  Name = 
  12 active torsions:
  status: ('A' for Active; 'I' for Inactive)
    1  A    between atoms: O_1  and  C_16
    2  A    between atoms: O_1  and  C_34
    3  A    between atoms: C_3  and  C_8
    4  A    between atoms: C_8  and  C_12
    5  A    between atoms: C_10  and  C_30
    6  A    between atoms: C_12  and  C_17
    7  A    between atoms: C_16  and  C_27
    8  A    between atoms: C_17  and  N_24
    9  A    between atoms: C_20  and  N_24
   10  A    between atoms: N_23  and  C_37
   11  A    between atoms: C_27  and  C_29
   12  A    between atoms: C_35  and  C_37
                            x       y       z     vdW  Elec       q    Type
                         _______ _______ _______ _____ _____    ______ ____

>  <TORSDO>
F 12

$$$$
=
 OpenBabel11062412593D

 38 42  0  0  1  0  0  0  0  0999 V2000
  185.6360  178.2750  139.1080 C   0  0  0  0  0  2  0  0  0  0  0  0
  187.0370  178.3220  138.4690 C   0  0  2  0  0  3  0  0  0  0  0  0
  186.5290  176.5850  136.5790 C   0  0  1  0  0  3  0  0  0  0  0  0
  184.4170  176.8500  137.3580 C   0  0  2  0  0  3  0  0  0  0  0  0
  185.5980  176.0990  137.5120 O   0  0  0  0  0  0  0  0  0  0  0  0
  187.0560  177.9980  136.9560 C   0  0  2  0  0  3  0  0  0  0  0  0
  187.6810  175.5900  136.4480 C   0  0  0  0  0  2  0  0  0  0  0  0
  184.4750  178.1940  138.1100 C   0  0  0  0  0  2  0  0  0  0  0  0
  188.3890  178.3740  136.2950 C   0  0  0  0  0  2  0  0  0  0  0  0
  188.7430  176.0280  135.4280 C   0  0  1  0  0  3  0  0  0  0  0  0
  188.6630  177.5190  135.0620 C   0  0  0  0  0  2  0  0  0  0  0  0
  181.5890  175.2610  139.0400 O   0  0  0  0  0  0  0  0  0  0  0  0
  182.6560  176.1540  138.9960 C   0  0  0  0  0  3  0  0  0  0  0  0
  183.0650  174.5180  135.7780 C   0  0  0  0  0  1  0  0  0  0  0  0
  182.5600  175.1010  137.0080 N   0  0  0  0  0  0  0  0  0  0  0  0
  183.2370  176.0510  137.8140 C   0  0  0  0  0  0  0  0  0  0  0  0
  181.4930  174.5400  137.8160 C   0  0  0  0  0  2  0  0  0  0  0  0
  187.9690  177.4140  139.2710 C   0  0  0  0  0  2  0  0  0  0  0  0
  188.7930  178.2050  140.2750 C   0  0  0  0  0  2  0  0  0  0  0  0
  190.0820  177.4750  140.6180 C   0  0  0  0  0  2  0  0  0  0  0  0
  189.8620  176.5530  141.7220 N   0  0  0  0  0  2  0  0  0  0  0  0
  188.2870  176.3820  143.3830 O   0  0  0  0  0  0  0  0  0  0  0  0
  189.0920  177.2600  142.7320 C   0  0  1  0  0  3  0  0  0  0  0  0
  189.4430  176.7670  144.0410 N   0  0  0  0  0  0  0  0  0  0  0  0
  189.0580  177.7940  144.9930 C   0  0  0  0  0  2  0  0  0  0  0  0
  186.9380  177.5110  146.4310 C   0  0  2  0  0  3  0  0  0  0  0  0
  188.9940  177.9530  147.7380 S   0  0  0  0  0  0  0  0  0  0  0  0
  187.1950  178.2180  147.7430 C   0  0  0  0  0  2  0  0  0  0  0  0
  188.4090  177.1500  146.2150 C   0  0  2  0  0  3  0  0  0  0  0  0
  186.4390  178.4690  145.4540 N   0  0  0  0  0  1  0  0  0  0  0  0
  190.1160  175.6870  135.9820 C   0  0  0  0  0  2  0  0  0  0  0  0
  189.9990  174.9940  137.3270 C   0  0  0  0  0  2  0  0  0  0  0  0
  191.1940  175.1450  138.0300 O   0  0  0  0  0  0  0  0  0  0  0  0
  193.0790  174.0310  137.6000 O   0  0  0  0  0  0  0  0  0  0  0  0
  193.3520  176.7480  138.8540 O   0  0  0  0  0  0  0  0  0  0  0  0
  193.7550  175.6380  137.6430 P   0  0  0  0  0  0  0  0  0  0  0  0
  192.1970  174.9060  137.0900 C   0  0  0  0  0  2  0  0  0  0  0  0
  194.4290  176.1810  136.4040 O   0  0  0  0  0  0  0  0  0  0  0  0
  2  1  1  0  0  0  0
  2 18  1  1  0  0  0
  3  7  1  1  0  0  0
  3  6  1  0  0  0  0
  3  5  1  0  0  0  0
  4  5  1  0  0  0  0
  4 16  1  1  0  0  0
  4  8  1  0  0  0  0
  6  9  1  1  0  0  0
  6  2  1  0  0  0  0
  8  1  1  0  0  0  0
 10 31  1  1  0  0  0
 10  7  1  0  0  0  0
 11 10  1  0  0  0  0
 11  9  1  0  0  0  0
 13 12  1  0  0  0  0
 14 15  1  0  0  0  0
 15 16  1  0  0  0  0
 15 17  1  0  0  0  0
 16 13  2  0  0  0  0
 17 12  1  0  0  0  0
 18 19  1  0  0  0  0
 19 20  1  0  0  0  0
 20 21  1  0  0  0  0
 22 24  1  0  0  0  0
 23 21  1  6  0  0  0
 23 22  1  0  0  0  0
 23 24  1  0  0  0  0
 24 25  1  0  0  0  0
 26 30  1  6  0  0  0
 26 28  1  0  0  0  0
 27 28  1  0  0  0  0
 29 25  1  6  0  0  0
 29 26  1  0  0  0  0
 29 27  1  0  0  0  0
 31 32  1  0  0  0  0
 32 33  1  0  0  0  0
 34 36  1  0  0  0  0
 36 35  2  0  0  0  0
 37 34  1  0  0  0  0
 37 33  1  0  0  0  0
 38 36  2  0  0  0  0
M  END
>  <MODEL>
8

>  <REMARK>
 VINA RESULT:      -6.1      4.058      8.357
  Name = 
  12 active torsions:
  status: ('A' for Active; 'I' for Inactive)
    1  A    between atoms: O_1  and  C_16
    2  A    between atoms: O_1  and  C_34
    3  A    between atoms: C_3  and  C_8
    4  A    between atoms: C_8  and  C_12
    5  A    between atoms: C_10  and  C_30
    6  A    between atoms: C_12  and  C_17
    7  A    between atoms: C_16  and  C_27
    8  A    between atoms: C_17  and  N_24
    9  A    between atoms: C_20  and  N_24
   10  A    between atoms: N_23  and  C_37
   11  A    between atoms: C_27  and  C_29
   12  A    between atoms: C_35  and  C_37
                            x       y       z     vdW  Elec       q    Type
                         _______ _______ _______ _____ _____    ______ ____

>  <TORSDO>
F 12

$$$$
=
 OpenBabel11062412593D

 38 42  0  0  1  0  0  0  0  0999 V2000
  185.6500  178.5580  139.8830 C   0  0  0  0  0  2  0  0  0  0  0  0
  184.3130  178.6710  139.1250 C   0  0  2  0  0  3  0  0  0  0  0  0
  182.7930  178.6510  141.2550 C   0  0  1  0  0  3  0  0  0  0  0  0
  184.8010  178.8460  142.2870 C   0  0  2  0  0  3  0  0  0  0  0  0
  183.8600  177.9180  141.8000 O   0  0  0  0  0  0  0  0  0  0  0  0
  183.1840  179.3600  139.9280 C   0  0  2  0  0  3  0  0  0  0  0  0
  181.5970  177.7220  141.0450 C   0  0  0  0  0  2  0  0  0  0  0  0
  185.7290  179.3780  141.1770 C   0  0  0  0  0  2  0  0  0  0  0  0
  181.9930  179.7500  139.0430 C   0  0  0  0  0  2  0  0  0  0  0  0
  180.3690  178.4430  140.4700 C   0  0  1  0  0  3  0  0  0  0  0  0
  180.6960  179.8080  139.8440 C   0  0  0  0  0  2  0  0  0  0  0  0
  187.1700  177.1220  144.4700 O   0  0  0  0  0  0  0  0  0  0  0  0
  186.6980  177.5030  143.2180 C   0  0  0  0  0  3  0  0  0  0  0  0
  184.0760  178.8740  145.3270 C   0  0  0  0  0  1  0  0  0  0  0  0
  185.3260  178.3900  144.7660 N   0  0  0  0  0  0  0  0  0  0  0  0
  185.6090  178.2310  143.3860 C   0  0  0  0  0  0  0  0  0  0  0  0
  186.3240  177.6310  145.4960 C   0  0  0  0  0  2  0  0  0  0  0  0
  183.9130  177.2810  138.6330 C   0  0  0  0  0  2  0  0  0  0  0  0
  183.5660  177.2910  137.1520 C   0  0  0  0  0  2  0  0  0  0  0  0
  184.5850  176.4970  136.3480 C   0  0  0  0  0  2  0  0  0  0  0  0
  185.6460  176.0120  137.2170 N   0  0  0  0  0  2  0  0  0  0  0  0
  187.0850  177.7420  136.7630 O   0  0  0  0  0  0  0  0  0  0  0  0
  186.9120  176.4030  136.6170 C   0  0  1  0  0  3  0  0  0  0  0  0
  187.7870  176.9270  137.6360 N   0  0  0  0  0  0  0  0  0  0  0  0
  189.1400  176.8290  137.1180 C   0  0  0  0  0  2  0  0  0  0  0  0
  191.1290  176.5400  138.7300 C   0  0  2  0  0  3  0  0  0  0  0  0
  189.2760  177.9020  139.6460 S   0  0  0  0  0  0  0  0  0  0  0  0
  190.5990  176.7530  140.1300 C   0  0  0  0  0  2  0  0  0  0  0  0
  190.1160  177.4890  138.0880 C   0  0  2  0  0  3  0  0  0  0  0  0
  190.9300  175.1490  138.3430 N   0  0  0  0  0  1  0  0  0  0  0  0
  179.7080  177.5320  139.4480 C   0  0  0  0  0  2  0  0  0  0  0  0
  179.5960  176.1140  139.9810 C   0  0  0  0  0  2  0  0  0  0  0  0
  179.4360  175.2320  138.9130 O   0  0  0  0  0  0  0  0  0  0  0  0
  180.2220  175.4110  136.8330 O   0  0  0  0  0  0  0  0  0  0  0  0
  180.0970  172.6510  138.0150 O   0  0  0  0  0  0  0  0  0  0  0  0
  180.9580  173.8820  137.2350 P   0  0  0  0  0  0  0  0  0  0  0  0
  180.5760  175.4080  138.1280 C   0  0  0  0  0  2  0  0  0  0  0  0
  182.4640  173.7690  137.2180 O   0  0  0  0  0  0  0  0  0  0  0  0
  1  8  1  0  0  0  0
  2 18  1  1  0  0  0
  2  1  1  0  0  0  0
  2  6  1  0  0  0  0
  3  7  1  6  0  0  0
  3  5  1  0  0  0  0
  4 16  1  1  0  0  0
  5  4  1  0  0  0  0
  6  9  1  6  0  0  0
  6  3  1  0  0  0  0
  8  4  1  0  0  0  0
  9 11  1  0  0  0  0
 10 31  1  6  0  0  0
 10  7  1  0  0  0  0
 11 10  1  0  0  0  0
 12 17  1  0  0  0  0
 13 16  2  0  0  0  0
 13 12  1  0  0  0  0
 15 14  1  0  0  0  0
 15 17  1  0  0  0  0
 16 15  1  0  0  0  0
 19 18  1  0  0  0  0
 20 19  1  0  0  0  0
 20 21  1  0  0  0  0
 22 24  1  0  0  0  0
 23 22  1  0  0  0  0
 23 21  1  1  0  0  0
 23 24  1  0  0  0  0
 25 24  1  0  0  0  0
 26 30  1  6  0  0  0
 26 28  1  0  0  0  0
 27 28  1  0  0  0  0
 29 25  1  6  0  0  0
 29 26  1  0  0  0  0
 29 27  1  0  0  0  0
 31 32  1  0  0  0  0
 33 32  1  0  0  0  0
 34 36  1  0  0  0  0
 34 37  1  0  0  0  0
 36 35  2  0  0  0  0
 37 33  1  0  0  0  0
 38 36  2  0  0  0  0
M  END
>  <MODEL>
9

>  <REMARK>
 VINA RESULT:      -6.0      4.313      9.508
  Name = 
  12 active torsions:
  status: ('A' for Active; 'I' for Inactive)
    1  A    between atoms: O_1  and  C_16
    2  A    between atoms: O_1  and  C_34
    3  A    between atoms: C_3  and  C_8
    4  A    between atoms: C_8  and  C_12
    5  A    between atoms: C_10  and  C_30
    6  A    between atoms: C_12  and  C_17
    7  A    between atoms: C_16  and  C_27
    8  A    between atoms: C_17  and  N_24
    9  A    between atoms: C_20  and  N_24
   10  A    between atoms: N_23  and  C_37
   11  A    between atoms: C_27  and  C_29
   12  A    between atoms: C_35  and  C_37
                            x       y       z     vdW  Elec       q    Type
                         _______ _______ _______ _____ _____    ______ ____

>  <TORSDO>
F 12

$$$$
