=
 OpenBabel11062413553D

 61 67  0  0  1  0  0  0  0  0999 V2000
  184.1540  177.8520  141.6130 C   0  0  0  0  0  2  0  0  0  0  0  0
  182.0120  178.9100  141.7440 O   0  0  0  0  0  0  0  0  0  0  0  0
  183.3270  179.8510  139.3170 C   0  0  0  0  0  1  0  0  0  0  0  0
  181.3150  178.4020  139.0150 C   0  0  0  0  0  2  0  0  0  0  0  0
  180.6660  178.6510  141.4200 C   0  0  2  0  0  3  0  0  0  0  0  0
  182.7780  178.4260  139.4940 C   0  0  2  0  0  0  0  0  0  0  0  0
  180.3710  179.1130  139.9860 C   0  0  0  0  0  2  0  0  0  0  0  0
  182.7780  178.0120  140.9830 C   0  0  1  0  0  3  0  0  0  0  0  0
  179.9990  180.7370  142.4080 O   0  0  0  0  0  1  0  0  0  0  0  0
  179.7400  179.3550  142.4130 C   0  0  2  0  0  3  0  0  0  0  0  0
  179.9310  178.8100  143.8300 C   0  0  2  0  0  3  0  0  0  0  0  0
  179.7690  177.4200  143.8490 O   0  0  0  0  0  1  0  0  0  0  0  0
  178.9340  179.4440  144.7800 C   0  0  0  0  0  1  0  0  0  0  0  0
  183.5210  177.3790  138.6470 C   0  0  0  0  0  2  0  0  0  0  0  0
  184.0610  173.4740  137.3340 C   0  0  0  0  0  2  0  0  0  0  0  0
  183.4970  175.7760  136.6320 C   0  0  2  0  0  0  0  0  0  0  0  0
  185.3300  174.1320  136.8220 C   0  0  1  0  0  3  0  0  0  0  0  0
  186.8070  176.2390  135.1140 C   0  0  0  0  0  2  0  0  0  0  0  0
  182.8990  174.4070  137.0060 C   0  0  2  0  0  3  0  0  0  0  0  0
  182.8180  178.0480  136.4150 O   0  0  0  0  0  0  0  0  0  0  0  0
  182.6550  177.4500  135.1490 C   0  0  0  0  0  2  0  0  0  0  0  0
  182.8500  176.9780  137.3220 C   0  0  2  0  0  3  0  0  0  0  0  0
  187.3200  173.5140  134.9820 S   0  0  0  0  0  0  0  0  0  0  0  0
  183.2400  176.0540  135.1770 C   0  0  0  0  0  2  0  0  0  0  0  0
  185.5450  173.6690  135.3860 C   0  0  0  0  0  2  0  0  0  0  0  0
  185.9400  176.6880  136.2950 C   0  0  1  0  0  3  0  0  0  0  0  0
  184.9980  175.6210  136.8990 C   0  0  1  0  0  3  0  0  0  0  0  0
  187.8170  175.1820  135.5330 C   0  0  0  0  0  2  0  0  0  0  0  0
  181.9180  174.4180  138.1720 C   0  0  0  0  0  1  0  0  0  0  0  0
  187.4350  178.4600  136.8840 O   0  0  0  0  0  1  0  0  0  0  0  0
  186.7600  177.3520  137.3920 C   0  0  0  0  0  2  0  0  0  0  0  0
  185.1200  179.5200  143.2280 C   0  0  2  0  0  3  0  0  0  0  0  0
  184.1340  178.3650  143.0560 C   0  0  2  0  0  3  0  0  0  0  0  0
  185.4440  178.1470  143.8200 C   0  0  2  0  0  0  0  0  0  0  0  0
  184.5650  180.5100  144.2400 C   0  0  0  0  0  1  0  0  0  0  0  0
  186.1900  177.0620  145.8180 O   0  0  0  0  0  1  0  0  0  0  0  0
  185.2040  177.9000  145.3070 C   0  0  0  0  0  2  0  0  0  0  0  0
  186.5330  177.3120  143.1270 C   0  0  0  0  0  2  0  0  0  0  0  0
  187.9690  177.7730  143.4080 C   0  0  0  0  0  2  0  0  0  0  0  0
  188.6680  178.4540  142.2280 C   0  0  1  0  0  3  0  0  0  0  0  0
  190.6500  176.8190  142.2690 C   0  0  2  0  0  3  0  0  0  0  0  0
  191.4840  176.9110  144.4280 C   0  0  1  0  0  3  0  0  0  0  0  0
  190.8900  179.0860  143.4110 C   0  0  0  0  0  2  0  0  0  0  0  0
  190.1960  178.2900  142.2990 C   0  0  2  0  0  3  0  0  0  0  0  0
  190.6220  176.2160  143.5520 O   0  0  0  0  0  0  0  0  0  0  0  0
  190.9350  178.3010  144.7130 C   0  0  0  0  0  2  0  0  0  0  0  0
  191.1470  176.9280  146.7840 O   0  0  0  0  0  1  0  0  0  0  0  0
  191.6100  176.1410  145.7260 C   0  0  0  0  0  2  0  0  0  0  0  0
  192.0160  176.6670  141.6030 C   0  0  0  0  0  2  0  0  0  0  0  0
  192.0800  177.4490  140.3000 C   0  0  1  0  0  3  0  0  0  0  0  0
  193.3490  178.0040  140.1620 O   0  0  0  0  0  1  0  0  0  0  0  0
  190.8370  175.7560  139.1350 O   0  0  0  0  0  0  0  0  0  0  0  0
  191.7890  176.5840  139.1110 C   0  0  0  0  0  0  0  0  0  0  0  0
  192.6540  176.6520  137.9800 N   0  0  0  0  0  2  0  0  0  0  0  0
  192.6240  175.6360  136.9340 C   0  0  0  0  0  2  0  0  0  0  0  0
  195.0340  175.5600  137.0550 O   0  0  0  0  0  0  0  0  0  0  0  0
  194.6550  174.3310  136.4880 C   0  0  0  0  0  2  0  0  0  0  0  0
  193.9380  175.5900  136.1670 C   0  0  1  0  0  3  0  0  0  0  0  0
  188.0250  178.1670  140.8610 C   0  0  0  0  0  3  0  0  0  0  0  0
  188.9540  178.3800  139.8470 O   0  0  0  0  0  1  0  0  0  0  0  0
  186.9310  179.0030  140.6490 O   0  0  0  0  0  1  0  0  0  0  0  0
  1 33  1  0  0  0  0
  4  6  1  0  0  0  0
  4  7  1  0  0  0  0
  5  2  1  0  0  0  0
  5 10  1  1  0  0  0
  6  3  1  6  0  0  0
  6  8  1  0  0  0  0
  7  5  1  0  0  0  0
  8  1  1  1  0  0  0
  8  2  1  0  0  0  0
 10  9  1  1  0  0  0
 10 11  1  0  0  0  0
 11 12  1  0  0  0  0
 11 13  1  1  0  0  0
 14  6  1  0  0  0  0
 16 24  1  6  0  0  0
 16 27  1  0  0  0  0
 16 19  1  0  0  0  0
 16 22  1  0  0  0  0
 17 25  1  6  0  0  0
 17 27  1  0  0  0  0
 17 15  1  0  0  0  0
 18 28  1  0  0  0  0
 18 26  1  0  0  0  0
 19 15  1  0  0  0  0
 19 29  1  1  0  0  0
 20 22  1  0  0  0  0
 21 24  1  0  0  0  0
 21 20  1  0  0  0  0
 22 14  1  1  0  0  0
 23 25  1  0  0  0  0
 23 28  1  0  0  0  0
 26 27  1  0  0  0  0
 26 31  1  1  0  0  0
 30 31  1  0  0  0  0
 32 34  1  0  0  0  0
 32 35  1  0  0  0  0
 33 32  1  0  0  0  0
 33 34  1  0  0  0  0
 34 37  1  0  0  0  0
 37 36  1  0  0  0  0
 38 39  1  0  0  0  0
 38 34  1  0  0  0  0
 40 44  1  0  0  0  0
 40 39  1  0  0  0  0
 41 44  1  0  0  0  0
 41 45  1  0  0  0  0
 42 46  1  0  0  0  0
 42 48  1  0  0  0  0
 43 46  1  0  0  0  0
 44 43  1  0  0  0  0
 45 42  1  0  0  0  0
 48 47  1  0  0  0  0
 49 41  1  0  0  0  0
 50 49  1  0  0  0  0
 51 50  1  0  0  0  0
 53 52  2  0  0  0  0
 53 50  1  0  0  0  0
 54 53  1  0  0  0  0
 55 54  1  0  0  0  0
 57 56  1  0  0  0  0
 58 57  1  0  0  0  0
 58 55  1  0  0  0  0
 58 56  1  0  0  0  0
 59 40  1  0  0  0  0
 60 59  1  0  0  0  0
 61 59  1  0  0  0  0
M  END
>  <MODEL>
1

>  <REMARK>
 VINA RESULT:      -7.1      0.000      0.000
  Name = 
  19 active torsions:
  status: ('A' for Active; 'I' for Inactive)
    1  A    between atoms: C_2  and  C_11
    2  A    between atoms: C_4  and  C_57
    3  A    between atoms: C_5  and  C_12
    4  A    between atoms: C_6  and  C_41
    5  A    between atoms: C_6  and  C_44
    6  A    between atoms: C_8  and  C_24
    7  A    between atoms: C_9  and  C_17
    8  A    between atoms: C_9  and  C_23
    9  A    between atoms: C_11  and  C_19
   10  A    between atoms: C_11  and  C_45
   11  A    between atoms: C_12  and  C_25
   12  A    between atoms: C_17  and  C_19
   13  A    between atoms: C_22  and  C_25
   14  A    between atoms: C_24  and  C_47
   15  A    between atoms: N_27  and  C_55
   16  A    between atoms: C_38  and  C_57
   17  A    between atoms: C_39  and  C_51
   18  A    between atoms: C_42  and  C_50
   19  A    between atoms: C_55  and  C_56
                            x       y       z     vdW  Elec       q    Type
                         _______ _______ _______ _____ _____    ______ ____

>  <TORSDO>
F 19

$$$$
=
 OpenBabel11062413553D

 61 67  0  0  1  0  0  0  0  0999 V2000
  184.3150  176.1040  137.6860 C   0  0  0  0  0  2  0  0  0  0  0  0
  183.3840  174.4530  136.2250 O   0  0  0  0  0  0  0  0  0  0  0  0
  185.1920  176.1180  134.6560 C   0  0  0  0  0  1  0  0  0  0  0  0
  185.8830  173.7470  135.0220 C   0  0  0  0  0  2  0  0  0  0  0  0
  183.6020  173.1160  135.8400 C   0  0  2  0  0  3  0  0  0  0  0  0
  185.6630  175.1050  135.7110 C   0  0  2  0  0  0  0  0  0  0  0  0
  184.5670  173.0620  134.6470 C   0  0  0  0  0  2  0  0  0  0  0  0
  184.5870  174.8960  136.8000 C   0  0  1  0  0  3  0  0  0  0  0  0
  181.4730  173.3350  134.7490 O   0  0  0  0  0  1  0  0  0  0  0  0
  182.2740  172.4450  135.4870 C   0  0  2  0  0  3  0  0  0  0  0  0
  181.5210  172.0140  136.7480 C   0  0  2  0  0  3  0  0  0  0  0  0
  180.8240  170.8210  136.5230 O   0  0  0  0  0  1  0  0  0  0  0  0
  180.5430  173.0920  137.1740 C   0  0  0  0  0  1  0  0  0  0  0  0
  187.0100  175.4790  136.3540 C   0  0  0  0  0  2  0  0  0  0  0  0
  190.8580  174.0060  136.8810 C   0  0  0  0  0  2  0  0  0  0  0  0
  189.5230  175.8630  135.9460 C   0  0  2  0  0  0  0  0  0  0  0  0
  190.8320  175.1270  137.9060 C   0  0  1  0  0  3  0  0  0  0  0  0
  190.5160  178.0980  138.6830 C   0  0  0  0  0  2  0  0  0  0  0  0
  190.2450  174.5490  135.5940 C   0  0  2  0  0  3  0  0  0  0  0  0
  187.8820  177.3260  135.0310 O   0  0  0  0  0  0  0  0  0  0  0  0
  189.1370  177.7960  134.5950 C   0  0  0  0  0  2  0  0  0  0  0  0
  188.1000  175.9890  135.3970 C   0  0  2  0  0  3  0  0  0  0  0  0
  192.7070  176.5460  139.3880 S   0  0  0  0  0  0  0  0  0  0  0  0
  190.2320  177.0150  135.2900 C   0  0  0  0  0  2  0  0  0  0  0  0
  192.1370  175.9020  137.7760 C   0  0  0  0  0  2  0  0  0  0  0  0
  189.3180  177.3270  138.1200 C   0  0  1  0  0  3  0  0  0  0  0  0
  189.6270  175.9580  137.4720 C   0  0  1  0  0  3  0  0  0  0  0  0
  191.1480  177.3690  139.8600 C   0  0  0  0  0  2  0  0  0  0  0  0
  189.3730  173.4730  134.9590 C   0  0  0  0  0  1  0  0  0  0  0  0
  187.1620  178.0760  138.8370 O   0  0  0  0  0  1  0  0  0  0  0  0
  188.1930  177.1890  139.1380 C   0  0  0  0  0  2  0  0  0  0  0  0
  182.7590  178.0780  137.7490 C   0  0  2  0  0  3  0  0  0  0  0  0
  182.8680  176.5730  137.5070 C   0  0  2  0  0  3  0  0  0  0  0  0
  182.2130  177.0970  138.7870 C   0  0  2  0  0  0  0  0  0  0  0  0
  181.6940  178.6600  136.8330 C   0  0  0  0  0  1  0  0  0  0  0  0
  180.3250  176.4630  140.1150 O   0  0  0  0  0  1  0  0  0  0  0  0
  180.7150  176.8060  138.8240 C   0  0  0  0  0  2  0  0  0  0  0  0
  183.0000  176.9370  140.0980 C   0  0  0  0  0  2  0  0  0  0  0  0
  183.6320  178.2310  140.6280 C   0  0  0  0  0  2  0  0  0  0  0  0
  183.6940  178.3390  142.1540 C   0  0  1  0  0  3  0  0  0  0  0  0
  185.9920  177.7900  143.1630 C   0  0  2  0  0  3  0  0  0  0  0  0
  185.9370  178.6270  145.3230 C   0  0  1  0  0  3  0  0  0  0  0  0
  184.9750  180.0920  143.5760 C   0  0  0  0  0  2  0  0  0  0  0  0
  185.0500  178.8860  142.6320 C   0  0  2  0  0  3  0  0  0  0  0  0
  185.7470  177.4780  144.5250 O   0  0  0  0  0  0  0  0  0  0  0  0
  184.8530  179.6550  145.0280 C   0  0  0  0  0  2  0  0  0  0  0  0
  184.5720  178.3800  147.2580 O   0  0  0  0  0  1  0  0  0  0  0  0
  185.8800  178.2400  146.7860 C   0  0  0  0  0  2  0  0  0  0  0  0
  187.4580  178.1430  142.9200 C   0  0  0  0  0  2  0  0  0  0  0  0
  188.3780  177.0590  143.4590 C   0  0  1  0  0  3  0  0  0  0  0  0
  189.1680  176.5730  142.4220 O   0  0  0  0  0  1  0  0  0  0  0  0
  190.0890  178.4970  144.3380 O   0  0  0  0  0  0  0  0  0  0  0  0
  189.2630  177.5680  144.5560 C   0  0  0  0  0  0  0  0  0  0  0  0
  189.2190  176.9310  145.8310 N   0  0  0  0  0  2  0  0  0  0  0  0
  190.2550  177.1560  146.8330 C   0  0  0  0  0  2  0  0  0  0  0  0
  192.4170  176.4190  147.6140 O   0  0  0  0  0  0  0  0  0  0  0  0
  191.6100  175.2680  147.6250 C   0  0  0  0  0  2  0  0  0  0  0  0
  191.4830  176.2980  146.5640 C   0  0  1  0  0  3  0  0  0  0  0  0
  182.4490  178.9780  142.7920 C   0  0  0  0  0  3  0  0  0  0  0  0
  181.5100  177.9930  143.0870 O   0  0  0  0  0  1  0  0  0  0  0  0
  181.8720  179.9020  141.9250 O   0  0  0  0  0  1  0  0  0  0  0  0
  2  8  1  0  0  0  0
  4  6  1  0  0  0  0
  5 10  1  6  0  0  0
  5  2  1  0  0  0  0
  6  3  1  6  0  0  0
  6 14  1  0  0  0  0
  6  8  1  0  0  0  0
  7  4  1  0  0  0  0
  7  5  1  0  0  0  0
  8  1  1  6  0  0  0
 10  9  1  1  0  0  0
 10 11  1  0  0  0  0
 11 13  1  6  0  0  0
 12 11  1  0  0  0  0
 16 24  1  6  0  0  0
 16 27  1  0  0  0  0
 17 15  1  6  0  0  0
 18 28  1  0  0  0  0
 19 29  1  1  0  0  0
 19 16  1  0  0  0  0
 19 15  1  0  0  0  0
 20 22  1  0  0  0  0
 21 20  1  0  0  0  0
 21 24  1  0  0  0  0
 22 16  1  0  0  0  0
 22 14  1  1  0  0  0
 23 28  1  0  0  0  0
 25 17  1  0  0  0  0
 25 23  1  0  0  0  0
 26 18  1  0  0  0  0
 26 31  1  1  0  0  0
 27 17  1  0  0  0  0
 27 26  1  0  0  0  0
 30 31  1  0  0  0  0
 32 34  1  0  0  0  0
 33  1  1  0  0  0  0
 33 32  1  0  0  0  0
 33 34  1  0  0  0  0
 34 37  1  0  0  0  0
 34 38  1  0  0  0  0
 35 32  1  0  0  0  0
 37 36  1  0  0  0  0
 38 39  1  0  0  0  0
 39 40  1  0  0  0  0
 40 44  1  0  0  0  0
 40 59  1  0  0  0  0
 41 45  1  0  0  0  0
 42 48  1  0  0  0  0
 43 46  1  0  0  0  0
 44 41  1  0  0  0  0
 44 43  1  0  0  0  0
 45 42  1  0  0  0  0
 46 42  1  0  0  0  0
 48 47  1  0  0  0  0
 49 41  1  0  0  0  0
 49 50  1  0  0  0  0
 50 53  1  0  0  0  0
 51 50  1  0  0  0  0
 52 53  2  0  0  0  0
 53 54  1  0  0  0  0
 54 55  1  0  0  0  0
 56 57  1  0  0  0  0
 58 55  1  0  0  0  0
 58 56  1  0  0  0  0
 58 57  1  0  0  0  0
 59 60  1  0  0  0  0
 61 59  1  0  0  0  0
M  END
>  <MODEL>
2

>  <REMARK>
 VINA RESULT:      -6.3      2.639      7.023
  Name = 
  19 active torsions:
  status: ('A' for Active; 'I' for Inactive)
    1  A    between atoms: C_2  and  C_11
    2  A    between atoms: C_4  and  C_57
    3  A    between atoms: C_5  and  C_12
    4  A    between atoms: C_6  and  C_41
    5  A    between atoms: C_6  and  C_44
    6  A    between atoms: C_8  and  C_24
    7  A    between atoms: C_9  and  C_17
    8  A    between atoms: C_9  and  C_23
    9  A    between atoms: C_11  and  C_19
   10  A    between atoms: C_11  and  C_45
   11  A    between atoms: C_12  and  C_25
   12  A    between atoms: C_17  and  C_19
   13  A    between atoms: C_22  and  C_25
   14  A    between atoms: C_24  and  C_47
   15  A    between atoms: N_27  and  C_55
   16  A    between atoms: C_38  and  C_57
   17  A    between atoms: C_39  and  C_51
   18  A    between atoms: C_42  and  C_50
   19  A    between atoms: C_55  and  C_56
                            x       y       z     vdW  Elec       q    Type
                         _______ _______ _______ _____ _____    ______ ____

>  <TORSDO>
F 19

$$$$
=
 OpenBabel11062413553D

 61 67  0  0  1  0  0  0  0  0999 V2000
  187.1450  177.5480  142.2330 C   0  0  0  0  0  2  0  0  0  0  0  0
  186.5130  178.0430  144.4870 O   0  0  0  0  0  0  0  0  0  0  0  0
  185.3940  180.1170  142.7690 C   0  0  0  0  0  1  0  0  0  0  0  0
  183.7690  178.5710  143.8670 C   0  0  0  0  0  2  0  0  0  0  0  0
  185.5230  177.6940  145.4250 C   0  0  2  0  0  3  0  0  0  0  0  0
  184.8800  178.6690  142.8060 C   0  0  2  0  0  0  0  0  0  0  0  0
  184.3170  178.6360  145.2940 C   0  0  0  0  0  2  0  0  0  0  0  0
  186.0010  177.6930  143.2270 C   0  0  1  0  0  3  0  0  0  0  0  0
  185.5210  178.8210  147.5460 O   0  0  0  0  0  1  0  0  0  0  0  0
  186.0950  177.7480  146.8420 C   0  0  2  0  0  3  0  0  0  0  0  0
  187.6160  177.9150  146.8170 C   0  0  2  0  0  3  0  0  0  0  0  0
  188.2380  176.7160  146.4500 O   0  0  0  0  0  1  0  0  0  0  0  0
  188.1230  178.3460  148.1800 C   0  0  0  0  0  1  0  0  0  0  0  0
  184.2440  178.2150  141.4810 C   0  0  0  0  0  2  0  0  0  0  0  0
  180.1070  177.8370  141.5200 C   0  0  0  0  0  2  0  0  0  0  0  0
  182.0290  178.8130  140.3120 C   0  0  2  0  0  0  0  0  0  0  0  0
  180.4750  176.8960  140.3870 C   0  0  1  0  0  3  0  0  0  0  0  0
  181.7550  176.3140  137.6380 C   0  0  0  0  0  2  0  0  0  0  0  0
  180.9150  179.1170  141.3330 C   0  0  2  0  0  3  0  0  0  0  0  0
  184.1030  179.7220  139.5750 O   0  0  0  0  0  0  0  0  0  0  0  0
  183.1000  180.2710  138.7510 C   0  0  0  0  0  2  0  0  0  0  0  0
  183.4290  179.2760  140.7210 C   0  0  2  0  0  3  0  0  0  0  0  0
  179.1420  175.6450  138.2930 S   0  0  0  0  0  0  0  0  0  0  0  0
  181.7790  179.5950  139.0520 C   0  0  0  0  0  2  0  0  0  0  0  0
  179.5180  177.1650  139.2320 C   0  0  0  0  0  2  0  0  0  0  0  0
  182.6400  176.7400  138.8140 C   0  0  1  0  0  3  0  0  0  0  0  0
  181.9070  177.3080  140.0520 C   0  0  1  0  0  3  0  0  0  0  0  0
  180.8700  175.1320  138.0030 C   0  0  0  0  0  2  0  0  0  0  0  0
  181.3920  179.6150  142.6910 C   0  0  0  0  0  1  0  0  0  0  0  0
  183.9760  174.8810  138.1240 O   0  0  0  0  0  1  0  0  0  0  0  0
  183.6110  175.6450  139.2300 C   0  0  0  0  0  2  0  0  0  0  0  0
  189.4590  178.4950  142.4970 C   0  0  2  0  0  3  0  0  0  0  0  0
  188.4770  177.4270  142.9780 C   0  0  2  0  0  3  0  0  0  0  0  0
  189.6620  177.0340  142.0900 C   0  0  2  0  0  0  0  0  0  0  0  0
  190.3340  178.9350  143.6610 C   0  0  0  0  0  1  0  0  0  0  0  0
  190.2770  174.8530  142.8600 O   0  0  0  0  0  1  0  0  0  0  0  0
  190.6830  176.1840  142.8420 C   0  0  0  0  0  2  0  0  0  0  0  0
  189.3540  176.6520  140.6330 C   0  0  0  0  0  2  0  0  0  0  0  0
  190.1910  177.3970  139.5850 C   0  0  0  0  0  2  0  0  0  0  0  0
  191.4640  176.6680  139.1430 C   0  0  1  0  0  3  0  0  0  0  0  0
  190.9100  174.8110  137.4550 C   0  0  2  0  0  3  0  0  0  0  0  0
  192.9500  174.1210  136.6010 C   0  0  1  0  0  3  0  0  0  0  0  0
  192.6540  176.5660  136.8390 C   0  0  0  0  0  2  0  0  0  0  0  0
  191.3980  176.2560  137.6620 C   0  0  2  0  0  3  0  0  0  0  0  0
  191.9580  173.8630  137.5720 O   0  0  0  0  0  0  0  0  0  0  0  0
  193.6630  175.4290  136.9140 C   0  0  0  0  0  2  0  0  0  0  0  0
  193.3030  171.7850  136.3130 O   0  0  0  0  0  1  0  0  0  0  0  0
  193.9550  172.9880  136.5940 C   0  0  0  0  0  2  0  0  0  0  0  0
  190.1540  174.6570  136.1370 C   0  0  0  0  0  2  0  0  0  0  0  0
  188.8950  173.8230  136.3240 C   0  0  1  0  0  3  0  0  0  0  0  0
  189.0060  173.0850  137.4980 O   0  0  0  0  0  1  0  0  0  0  0  0
  186.7240  174.5120  135.5640 O   0  0  0  0  0  0  0  0  0  0  0  0
  187.6630  174.6740  136.3910 C   0  0  0  0  0  0  0  0  0  0  0  0
  187.6020  175.7260  137.3520 N   0  0  0  0  0  2  0  0  0  0  0  0
  186.5930  176.7760  137.2700 C   0  0  0  0  0  2  0  0  0  0  0  0
  188.3600  178.3750  136.8830 O   0  0  0  0  0  0  0  0  0  0  0  0
  187.1910  178.9950  136.4060 C   0  0  0  0  0  2  0  0  0  0  0  0
  187.1790  178.1370  137.6170 C   0  0  1  0  0  3  0  0  0  0  0  0
  192.7680  177.3440  139.5950 C   0  0  0  0  0  3  0  0  0  0  0  0
  193.7440  176.3790  139.8320 O   0  0  0  0  0  1  0  0  0  0  0  0
  192.5640  178.0710  140.7660 O   0  0  0  0  0  1  0  0  0  0  0  0
  1 33  1  0  0  0  0
  2  5  1  0  0  0  0
  4  7  1  0  0  0  0
  5 10  1  1  0  0  0
  6  3  1  6  0  0  0
  6  8  1  0  0  0  0
  6  4  1  0  0  0  0
  7  5  1  0  0  0  0
  8  1  1  6  0  0  0
  8  2  1  0  0  0  0
 10  9  1  1  0  0  0
 11 10  1  0  0  0  0
 11 13  1  1  0  0  0
 12 11  1  0  0  0  0
 14  6  1  0  0  0  0
 16 24  1  6  0  0  0
 16 22  1  0  0  0  0
 16 19  1  0  0  0  0
 17 25  1  6  0  0  0
 17 15  1  0  0  0  0
 18 28  1  0  0  0  0
 18 26  1  0  0  0  0
 19 15  1  0  0  0  0
 19 29  1  1  0  0  0
 20 22  1  0  0  0  0
 21 24  1  0  0  0  0
 21 20  1  0  0  0  0
 22 14  1  6  0  0  0
 23 25  1  0  0  0  0
 26 31  1  1  0  0  0
 26 27  1  0  0  0  0
 27 16  1  0  0  0  0
 27 17  1  0  0  0  0
 28 23  1  0  0  0  0
 30 31  1  0  0  0  0
 32 33  1  0  0  0  0
 32 35  1  0  0  0  0
 34 32  1  0  0  0  0
 34 37  1  0  0  0  0
 34 33  1  0  0  0  0
 37 36  1  0  0  0  0
 38 34  1  0  0  0  0
 39 38  1  0  0  0  0
 40 39  1  0  0  0  0
 40 59  1  0  0  0  0
 41 45  1  0  0  0  0
 41 44  1  0  0  0  0
 42 46  1  0  0  0  0
 42 45  1  0  0  0  0
 43 46  1  0  0  0  0
 43 44  1  0  0  0  0
 44 40  1  0  0  0  0
 47 48  1  0  0  0  0
 48 42  1  0  0  0  0
 49 50  1  0  0  0  0
 49 41  1  0  0  0  0
 50 53  1  0  0  0  0
 50 51  1  0  0  0  0
 52 53  2  0  0  0  0
 53 54  1  0  0  0  0
 55 54  1  0  0  0  0
 55 58  1  0  0  0  0
 56 58  1  0  0  0  0
 57 56  1  0  0  0  0
 57 58  1  0  0  0  0
 59 60  1  0  0  0  0
 59 61  1  0  0  0  0
M  END
>  <MODEL>
3

>  <REMARK>
 VINA RESULT:      -6.2      2.485      6.358
  Name = 
  19 active torsions:
  status: ('A' for Active; 'I' for Inactive)
    1  A    between atoms: C_2  and  C_11
    2  A    between atoms: C_4  and  C_57
    3  A    between atoms: C_5  and  C_12
    4  A    between atoms: C_6  and  C_41
    5  A    between atoms: C_6  and  C_44
    6  A    between atoms: C_8  and  C_24
    7  A    between atoms: C_9  and  C_17
    8  A    between atoms: C_9  and  C_23
    9  A    between atoms: C_11  and  C_19
   10  A    between atoms: C_11  and  C_45
   11  A    between atoms: C_12  and  C_25
   12  A    between atoms: C_17  and  C_19
   13  A    between atoms: C_22  and  C_25
   14  A    between atoms: C_24  and  C_47
   15  A    between atoms: N_27  and  C_55
   16  A    between atoms: C_38  and  C_57
   17  A    between atoms: C_39  and  C_51
   18  A    between atoms: C_42  and  C_50
   19  A    between atoms: C_55  and  C_56
                            x       y       z     vdW  Elec       q    Type
                         _______ _______ _______ _____ _____    ______ ____

>  <TORSDO>
F 19

$$$$
=
 OpenBabel11062413553D

 61 67  0  0  1  0  0  0  0  0999 V2000
  187.5840  177.4990  142.1090 C   0  0  0  0  0  2  0  0  0  0  0  0
  186.7380  178.0850  144.2690 O   0  0  0  0  0  0  0  0  0  0  0  0
  185.8040  180.0900  142.3690 C   0  0  0  0  0  1  0  0  0  0  0  0
  184.0700  178.5920  143.3620 C   0  0  0  0  0  2  0  0  0  0  0  0
  185.6580  177.7740  145.1170 C   0  0  2  0  0  3  0  0  0  0  0  0
  185.2810  178.6460  142.4120 C   0  0  2  0  0  0  0  0  0  0  0  0
  184.4760  178.7130  144.8320 C   0  0  0  0  0  2  0  0  0  0  0  0
  186.3490  177.6850  142.9790 C   0  0  1  0  0  3  0  0  0  0  0  0
  185.9160  179.2050  147.0300 O   0  0  0  0  0  1  0  0  0  0  0  0
  186.0880  177.8830  146.5810 C   0  0  2  0  0  3  0  0  0  0  0  0
  187.5530  177.4770  146.7570 C   0  0  2  0  0  3  0  0  0  0  0  0
  187.7370  176.8060  147.9710 O   0  0  0  0  0  1  0  0  0  0  0  0
  188.4490  178.7000  146.7200 C   0  0  0  0  0  1  0  0  0  0  0  0
  184.7750  178.1400  141.0500 C   0  0  0  0  0  2  0  0  0  0  0  0
  181.4270  176.1920  139.5470 C   0  0  0  0  0  2  0  0  0  0  0  0
  182.8130  178.2320  139.3850 C   0  0  2  0  0  0  0  0  0  0  0  0
  182.4130  176.0000  138.4080 C   0  0  1  0  0  3  0  0  0  0  0  0
  184.3000  177.1000  136.2260 C   0  0  0  0  0  2  0  0  0  0  0  0
  181.5260  177.6460  139.9960 C   0  0  2  0  0  3  0  0  0  0  0  0
  184.2730  180.0890  139.6810 O   0  0  0  0  0  0  0  0  0  0  0  0
  183.3040  180.4790  138.7350 C   0  0  0  0  0  2  0  0  0  0  0  0
  183.7040  179.0030  140.3610 C   0  0  2  0  0  3  0  0  0  0  0  0
  182.2790  175.2630  135.7310 S   0  0  0  0  0  0  0  0  0  0  0  0
  182.4530  179.2810  138.3700 C   0  0  0  0  0  2  0  0  0  0  0  0
  181.6810  176.3050  137.1070 C   0  0  0  0  0  2  0  0  0  0  0  0
  184.6260  177.3370  137.7040 C   0  0  1  0  0  3  0  0  0  0  0  0
  183.4940  177.0350  138.7120 C   0  0  1  0  0  3  0  0  0  0  0  0
  184.0560  175.6270  135.9370 C   0  0  0  0  0  2  0  0  0  0  0  0
  181.4350  177.7120  141.5150 C   0  0  0  0  0  1  0  0  0  0  0  0
  187.0100  177.4560  137.8590 O   0  0  0  0  0  1  0  0  0  0  0  0
  185.9120  176.6420  138.1290 C   0  0  0  0  0  2  0  0  0  0  0  0
  189.8760  178.4420  142.5380 C   0  0  2  0  0  3  0  0  0  0  0  0
  188.8380  177.4140  142.9850 C   0  0  2  0  0  3  0  0  0  0  0  0
  190.0960  176.9580  142.2420 C   0  0  2  0  0  0  0  0  0  0  0  0
  190.6400  178.9470  143.7510 C   0  0  0  0  0  1  0  0  0  0  0  0
  190.6750  174.8030  143.1070 O   0  0  0  0  0  1  0  0  0  0  0  0
  191.0290  176.1490  143.1380 C   0  0  0  0  0  2  0  0  0  0  0  0
  189.9240  176.4900  140.7870 C   0  0  0  0  0  2  0  0  0  0  0  0
  190.8660  177.1640  139.7810 C   0  0  0  0  0  2  0  0  0  0  0  0
  191.4950  176.2180  138.7540 C   0  0  1  0  0  3  0  0  0  0  0  0
  190.1230  174.5100  137.4120 C   0  0  2  0  0  3  0  0  0  0  0  0
  191.2530  174.2460  135.4060 C   0  0  1  0  0  3  0  0  0  0  0  0
  191.0400  176.5720  136.2240 C   0  0  0  0  0  2  0  0  0  0  0  0
  190.5620  175.9790  137.5540 C   0  0  2  0  0  3  0  0  0  0  0  0
  191.0710  173.7260  136.7070 O   0  0  0  0  0  0  0  0  0  0  0  0
  191.9410  175.6020  135.4740 C   0  0  0  0  0  2  0  0  0  0  0  0
  191.5450  172.0080  134.6490 O   0  0  0  0  0  1  0  0  0  0  0  0
  192.1010  173.2890  134.5950 C   0  0  0  0  0  2  0  0  0  0  0  0
  188.7290  174.3980  136.7960 C   0  0  0  0  0  2  0  0  0  0  0  0
  188.3940  172.9530  136.4630 C   0  0  1  0  0  3  0  0  0  0  0  0
  188.0220  172.2900  137.6290 O   0  0  0  0  0  1  0  0  0  0  0  0
  186.8930  173.8680  134.8270 O   0  0  0  0  0  0  0  0  0  0  0  0
  187.2820  172.8510  135.4630 C   0  0  0  0  0  0  0  0  0  0  0  0
  186.6140  171.6020  135.3000 N   0  0  0  0  0  2  0  0  0  0  0  0
  185.3410  171.5040  134.5940 C   0  0  0  0  0  2  0  0  0  0  0  0
  182.9550  171.8020  134.8140 O   0  0  0  0  0  0  0  0  0  0  0  0
  183.2320  170.5740  135.4400 C   0  0  0  0  0  2  0  0  0  0  0  0
  184.1650  171.7250  135.5350 C   0  0  1  0  0  3  0  0  0  0  0  0
  192.9590  176.5390  138.4130 C   0  0  0  0  0  3  0  0  0  0  0  0
  193.6720  175.3580  138.2280 O   0  0  0  0  0  1  0  0  0  0  0  0
  193.5550  177.2660  139.4420 O   0  0  0  0  0  1  0  0  0  0  0  0
  1 33  1  0  0  0  0
  2  5  1  0  0  0  0
  4  7  1  0  0  0  0
  5 10  1  1  0  0  0
  6  3  1  6  0  0  0
  6  8  1  0  0  0  0
  6  4  1  0  0  0  0
  7  5  1  0  0  0  0
  8  1  1  6  0  0  0
  8  2  1  0  0  0  0
 10 11  1  0  0  0  0
 10  9  1  6  0  0  0
 11 13  1  1  0  0  0
 11 12  1  0  0  0  0
 14  6  1  0  0  0  0
 15 19  1  0  0  0  0
 16 24  1  6  0  0  0
 16 19  1  0  0  0  0
 16 22  1  0  0  0  0
 17 25  1  6  0  0  0
 17 27  1  0  0  0  0
 17 15  1  0  0  0  0
 18 26  1  0  0  0  0
 19 29  1  1  0  0  0
 20 22  1  0  0  0  0
 21 20  1  0  0  0  0
 22 14  1  6  0  0  0
 23 28  1  0  0  0  0
 23 25  1  0  0  0  0
 24 21  1  0  0  0  0
 26 31  1  1  0  0  0
 26 27  1  0  0  0  0
 27 16  1  0  0  0  0
 28 18  1  0  0  0  0
 30 31  1  0  0  0  0
 32 33  1  0  0  0  0
 32 35  1  0  0  0  0
 34 32  1  0  0  0  0
 34 33  1  0  0  0  0
 34 37  1  0  0  0  0
 36 37  1  0  0  0  0
 38 34  1  0  0  0  0
 39 38  1  0  0  0  0
 40 39  1  0  0  0  0
 41 44  1  0  0  0  0
 42 46  1  0  0  0  0
 42 45  1  0  0  0  0
 43 44  1  0  0  0  0
 44 40  1  0  0  0  0
 45 41  1  0  0  0  0
 46 43  1  0  0  0  0
 48 47  1  0  0  0  0
 48 42  1  0  0  0  0
 49 41  1  0  0  0  0
 50 49  1  0  0  0  0
 50 51  1  0  0  0  0
 52 53  2  0  0  0  0
 53 50  1  0  0  0  0
 54 53  1  0  0  0  0
 55 54  1  0  0  0  0
 55 58  1  0  0  0  0
 56 57  1  0  0  0  0
 56 58  1  0  0  0  0
 57 58  1  0  0  0  0
 59 40  1  0  0  0  0
 59 61  1  0  0  0  0
 60 59  1  0  0  0  0
M  END
>  <MODEL>
4

>  <REMARK>
 VINA RESULT:      -6.2      2.555      6.593
  Name = 
  19 active torsions:
  status: ('A' for Active; 'I' for Inactive)
    1  A    between atoms: C_2  and  C_11
    2  A    between atoms: C_4  and  C_57
    3  A    between atoms: C_5  and  C_12
    4  A    between atoms: C_6  and  C_41
    5  A    between atoms: C_6  and  C_44
    6  A    between atoms: C_8  and  C_24
    7  A    between atoms: C_9  and  C_17
    8  A    between atoms: C_9  and  C_23
    9  A    between atoms: C_11  and  C_19
   10  A    between atoms: C_11  and  C_45
   11  A    between atoms: C_12  and  C_25
   12  A    between atoms: C_17  and  C_19
   13  A    between atoms: C_22  and  C_25
   14  A    between atoms: C_24  and  C_47
   15  A    between atoms: N_27  and  C_55
   16  A    between atoms: C_38  and  C_57
   17  A    between atoms: C_39  and  C_51
   18  A    between atoms: C_42  and  C_50
   19  A    between atoms: C_55  and  C_56
                            x       y       z     vdW  Elec       q    Type
                         _______ _______ _______ _____ _____    ______ ____

>  <TORSDO>
F 19

$$$$
=
 OpenBabel11062413553D

 61 67  0  0  1  0  0  0  0  0999 V2000
  187.3760  177.7110  142.0920 C   0  0  0  0  0  2  0  0  0  0  0  0
  186.4750  178.2350  144.2460 O   0  0  0  0  0  0  0  0  0  0  0  0
  185.3830  180.1450  142.3320 C   0  0  0  0  0  1  0  0  0  0  0  0
  183.7780  178.5110  143.3280 C   0  0  0  0  0  2  0  0  0  0  0  0
  185.4220  177.8390  145.0930 C   0  0  2  0  0  3  0  0  0  0  0  0
  184.9830  178.6620  142.3820 C   0  0  2  0  0  0  0  0  0  0  0  0
  184.1670  178.6730  144.7990 C   0  0  0  0  0  2  0  0  0  0  0  0
  186.1270  177.7970  142.9580 C   0  0  1  0  0  3  0  0  0  0  0  0
  185.2680  179.1600  147.0940 O   0  0  0  0  0  1  0  0  0  0  0  0
  185.8370  177.9920  146.5570 C   0  0  2  0  0  3  0  0  0  0  0  0
  187.3590  178.0620  146.6950 C   0  0  2  0  0  3  0  0  0  0  0  0
  187.9410  176.8280  146.3830 O   0  0  0  0  0  1  0  0  0  0  0  0
  187.7450  178.4540  148.1080 C   0  0  0  0  0  1  0  0  0  0  0  0
  184.5270  178.1090  141.0200 C   0  0  0  0  0  2  0  0  0  0  0  0
  181.5110  175.9190  139.1820 C   0  0  0  0  0  2  0  0  0  0  0  0
  182.6770  178.0980  139.2290 C   0  0  2  0  0  0  0  0  0  0  0  0
  182.5830  175.9010  138.1060 C   0  0  1  0  0  3  0  0  0  0  0  0
  184.4770  177.3240  136.1260 C   0  0  0  0  0  2  0  0  0  0  0  0
  181.4240  177.3460  139.7150 C   0  0  2  0  0  3  0  0  0  0  0  0
  183.9070  180.0750  139.7280 O   0  0  0  0  0  0  0  0  0  0  0  0
  182.9640  180.4200  138.7390 C   0  0  0  0  0  2  0  0  0  0  0  0
  183.4150  178.8960  140.3070 C   0  0  2  0  0  3  0  0  0  0  0  0
  182.7010  175.3210  135.3900 S   0  0  0  0  0  0  0  0  0  0  0  0
  182.2720  179.1650  138.2500 C   0  0  0  0  0  2  0  0  0  0  0  0
  181.9070  176.2080  136.7750 C   0  0  0  0  0  2  0  0  0  0  0  0
  184.6800  177.5020  137.6340 C   0  0  1  0  0  3  0  0  0  0  0  0
  183.5250  177.0220  138.5420 C   0  0  1  0  0  3  0  0  0  0  0  0
  184.4120  175.8540  135.7400 C   0  0  0  0  0  2  0  0  0  0  0  0
  181.2290  177.3080  141.2260 C   0  0  0  0  0  1  0  0  0  0  0  0
  186.8560  177.9390  138.5260 O   0  0  0  0  0  1  0  0  0  0  0  0
  186.0030  176.9190  138.1090 C   0  0  0  0  0  2  0  0  0  0  0  0
  189.7820  178.3330  142.4780 C   0  0  2  0  0  3  0  0  0  0  0  0
  188.6100  177.4840  142.9700 C   0  0  2  0  0  3  0  0  0  0  0  0
  189.7850  176.8220  142.2460 C   0  0  2  0  0  0  0  0  0  0  0  0
  190.6190  178.7740  143.6690 C   0  0  0  0  0  1  0  0  0  0  0  0
  191.9580  176.1600  142.9990 O   0  0  0  0  0  1  0  0  0  0  0  0
  190.5980  175.9250  143.1760 C   0  0  0  0  0  2  0  0  0  0  0  0
  189.5380  176.3220  140.8130 C   0  0  0  0  0  2  0  0  0  0  0  0
  190.3600  177.0390  139.7340 C   0  0  0  0  0  2  0  0  0  0  0  0
  191.7130  176.3940  139.4210 C   0  0  1  0  0  3  0  0  0  0  0  0
  192.0480  176.4390  136.8740 C   0  0  2  0  0  3  0  0  0  0  0  0
  189.9230  176.2660  135.9670 C   0  0  1  0  0  3  0  0  0  0  0  0
  190.4020  174.7700  137.8780 C   0  0  0  0  0  2  0  0  0  0  0  0
  191.6740  175.5960  138.1070 C   0  0  2  0  0  3  0  0  0  0  0  0
  190.9430  177.1620  136.3560 O   0  0  0  0  0  0  0  0  0  0  0  0
  189.3210  175.5920  137.1920 C   0  0  0  0  0  2  0  0  0  0  0  0
  188.6190  178.2550  135.8520 O   0  0  0  0  0  1  0  0  0  0  0  0
  188.8420  177.0250  135.2260 C   0  0  0  0  0  2  0  0  0  0  0  0
  192.7230  175.5920  135.7980 C   0  0  0  0  0  2  0  0  0  0  0  0
  194.1820  175.9850  135.6270 C   0  0  1  0  0  3  0  0  0  0  0  0
  194.4410  177.1190  136.3910 O   0  0  0  0  0  1  0  0  0  0  0  0
  196.0500  175.1130  136.8580 O   0  0  0  0  0  0  0  0  0  0  0  0
  195.1120  174.8870  136.0450 C   0  0  0  0  0  0  0  0  0  0  0  0
  194.9740  173.6000  135.4460 N   0  0  0  0  0  2  0  0  0  0  0  0
  196.0190  172.5890  135.5620 C   0  0  0  0  0  2  0  0  0  0  0  0
  196.4320  170.4900  136.6810 O   0  0  0  0  0  0  0  0  0  0  0  0
  197.2020  171.4380  137.3790 C   0  0  0  0  0  2  0  0  0  0  0  0
  195.8610  171.7710  136.8360 C   0  0  1  0  0  3  0  0  0  0  0  0
  192.9170  177.3330  139.6010 C   0  0  0  0  0  3  0  0  0  0  0  0
  194.0930  176.5900  139.6560 O   0  0  0  0  0  1  0  0  0  0  0  0
  192.7950  178.0670  140.7790 O   0  0  0  0  0  1  0  0  0  0  0  0
  1 33  1  0  0  0  0
  2  5  1  0  0  0  0
  4  7  1  0  0  0  0
  5 10  1  1  0  0  0
  6  3  1  6  0  0  0
  6  8  1  0  0  0  0
  6  4  1  0  0  0  0
  7  5  1  0  0  0  0
  8  1  1  6  0  0  0
  8  2  1  0  0  0  0
 10 11  1  0  0  0  0
 10  9  1  6  0  0  0
 11 13  1  1  0  0  0
 12 11  1  0  0  0  0
 14  6  1  0  0  0  0
 15 19  1  0  0  0  0
 16 24  1  6  0  0  0
 16 19  1  0  0  0  0
 16 22  1  0  0  0  0
 17 25  1  6  0  0  0
 17 27  1  0  0  0  0
 17 15  1  0  0  0  0
 18 26  1  0  0  0  0
 19 29  1  1  0  0  0
 20 22  1  0  0  0  0
 21 20  1  0  0  0  0
 22 14  1  6  0  0  0
 23 28  1  0  0  0  0
 23 25  1  0  0  0  0
 24 21  1  0  0  0  0
 26 31  1  1  0  0  0
 26 27  1  0  0  0  0
 27 16  1  0  0  0  0
 28 18  1  0  0  0  0
 31 30  1  0  0  0  0
 32 33  1  0  0  0  0
 32 35  1  0  0  0  0
 34 32  1  0  0  0  0
 34 33  1  0  0  0  0
 34 37  1  0  0  0  0
 36 37  1  0  0  0  0
 38 34  1  0  0  0  0
 39 38  1  0  0  0  0
 40 59  1  0  0  0  0
 40 39  1  0  0  0  0
 41 44  1  0  0  0  0
 42 45  1  0  0  0  0
 42 46  1  0  0  0  0
 43 44  1  0  0  0  0
 44 40  1  0  0  0  0
 45 41  1  0  0  0  0
 46 43  1  0  0  0  0
 48 47  1  0  0  0  0
 48 42  1  0  0  0  0
 49 41  1  0  0  0  0
 50 49  1  0  0  0  0
 50 53  1  0  0  0  0
 50 51  1  0  0  0  0
 53 52  2  0  0  0  0
 54 55  1  0  0  0  0
 54 53  1  0  0  0  0
 55 58  1  0  0  0  0
 56 58  1  0  0  0  0
 56 57  1  0  0  0  0
 58 57  1  0  0  0  0
 59 60  1  0  0  0  0
 59 61  1  0  0  0  0
M  END
>  <MODEL>
5

>  <REMARK>
 VINA RESULT:      -6.1      2.265      5.545
  Name = 
  19 active torsions:
  status: ('A' for Active; 'I' for Inactive)
    1  A    between atoms: C_2  and  C_11
    2  A    between atoms: C_4  and  C_57
    3  A    between atoms: C_5  and  C_12
    4  A    between atoms: C_6  and  C_41
    5  A    between atoms: C_6  and  C_44
    6  A    between atoms: C_8  and  C_24
    7  A    between atoms: C_9  and  C_17
    8  A    between atoms: C_9  and  C_23
    9  A    between atoms: C_11  and  C_19
   10  A    between atoms: C_11  and  C_45
   11  A    between atoms: C_12  and  C_25
   12  A    between atoms: C_17  and  C_19
   13  A    between atoms: C_22  and  C_25
   14  A    between atoms: C_24  and  C_47
   15  A    between atoms: N_27  and  C_55
   16  A    between atoms: C_38  and  C_57
   17  A    between atoms: C_39  and  C_51
   18  A    between atoms: C_42  and  C_50
   19  A    between atoms: C_55  and  C_56
                            x       y       z     vdW  Elec       q    Type
                         _______ _______ _______ _____ _____    ______ ____

>  <TORSDO>
F 19

$$$$
=
 OpenBabel11062413553D

 61 67  0  0  1  0  0  0  0  0999 V2000
  186.4340  175.9460  137.2390 C   0  0  0  0  0  2  0  0  0  0  0  0
  186.7620  173.8290  136.1720 O   0  0  0  0  0  0  0  0  0  0  0  0
  184.4660  173.5860  137.9540 C   0  0  0  0  0  1  0  0  0  0  0  0
  184.0030  173.4570  135.5040 C   0  0  0  0  0  2  0  0  0  0  0  0
  186.4330  173.1710  134.9710 C   0  0  2  0  0  3  0  0  0  0  0  0
  184.4490  174.3900  136.6440 C   0  0  2  0  0  0  0  0  0  0  0  0
  185.0870  172.4480  135.1170 C   0  0  0  0  0  2  0  0  0  0  0  0
  185.8630  174.9020  136.2890 C   0  0  1  0  0  3  0  0  0  0  0  0
  187.1970  170.8940  135.0490 O   0  0  0  0  0  1  0  0  0  0  0  0
  187.5360  172.1810  134.5930 C   0  0  2  0  0  3  0  0  0  0  0  0
  188.8790  172.5930  135.1990 C   0  0  2  0  0  3  0  0  0  0  0  0
  189.2850  173.8360  134.7000 O   0  0  0  0  0  1  0  0  0  0  0  0
  189.9410  171.5570  134.8850 C   0  0  0  0  0  1  0  0  0  0  0  0
  183.4450  175.5550  136.6580 C   0  0  0  0  0  2  0  0  0  0  0  0
  180.1440  177.9310  135.8090 C   0  0  0  0  0  2  0  0  0  0  0  0
  181.2500  176.5660  137.5470 C   0  0  2  0  0  0  0  0  0  0  0  0
  180.9560  178.8630  136.6910 C   0  0  1  0  0  3  0  0  0  0  0  0
  182.3450  179.5650  139.3580 C   0  0  0  0  0  2  0  0  0  0  0  0
  180.1470  176.5570  136.4710 C   0  0  2  0  0  3  0  0  0  0  0  0
  182.5210  175.0280  138.8470 O   0  0  0  0  0  0  0  0  0  0  0  0
  181.3790  175.3560  139.6040 C   0  0  0  0  0  2  0  0  0  0  0  0
  182.1900  175.3580  137.5240 C   0  0  2  0  0  3  0  0  0  0  0  0
  180.4900  181.2090  138.1080 S   0  0  0  0  0  0  0  0  0  0  0  0
  180.6210  176.4680  138.9090 C   0  0  0  0  0  2  0  0  0  0  0  0
  180.0000  179.4990  137.6940 C   0  0  0  0  0  2  0  0  0  0  0  0
  182.8680  178.4000  138.5100 C   0  0  1  0  0  3  0  0  0  0  0  0
  181.9480  177.9180  137.3660 C   0  0  1  0  0  3  0  0  0  0  0  0
  182.2260  180.8420  138.5400 C   0  0  0  0  0  2  0  0  0  0  0  0
  180.2870  175.4820  135.4010 C   0  0  0  0  0  1  0  0  0  0  0  0
  185.1190  179.0170  139.0340 O   0  0  0  0  0  1  0  0  0  0  0  0
  184.2740  178.6570  137.9870 C   0  0  0  0  0  2  0  0  0  0  0  0
  188.7060  176.5760  136.3640 C   0  0  2  0  0  3  0  0  0  0  0  0
  187.2370  176.9870  136.4540 C   0  0  2  0  0  3  0  0  0  0  0  0
  188.2910  177.7260  137.2830 C   0  0  2  0  0  0  0  0  0  0  0  0
  189.2760  177.0310  135.0290 C   0  0  0  0  0  1  0  0  0  0  0  0
  189.3660  179.8310  137.6590 O   0  0  0  0  0  1  0  0  0  0  0  0
  188.4850  179.1650  136.8130 C   0  0  0  0  0  2  0  0  0  0  0  0
  188.3050  177.4650  138.7990 C   0  0  0  0  0  2  0  0  0  0  0  0
  189.3900  176.4890  139.2710 C   0  0  0  0  0  2  0  0  0  0  0  0
  190.2200  176.9770  140.4620 C   0  0  1  0  0  3  0  0  0  0  0  0
  188.7080  177.5980  142.4440 C   0  0  2  0  0  3  0  0  0  0  0  0
  190.1360  177.8890  144.2450 C   0  0  1  0  0  3  0  0  0  0  0  0
  190.6040  175.9320  142.8060 C   0  0  0  0  0  2  0  0  0  0  0  0
  189.6120  176.5290  141.8020 C   0  0  2  0  0  3  0  0  0  0  0  0
  189.4420  178.5440  143.2040 O   0  0  0  0  0  0  0  0  0  0  0  0
  191.2380  177.0110  143.6710 C   0  0  0  0  0  2  0  0  0  0  0  0
  191.8260  178.3590  145.8540 O   0  0  0  0  0  1  0  0  0  0  0  0
  190.7430  178.9210  145.1720 C   0  0  0  0  0  2  0  0  0  0  0  0
  187.5850  176.9650  143.2640 C   0  0  0  0  0  2  0  0  0  0  0  0
  186.4490  177.9500  143.4860 C   0  0  1  0  0  3  0  0  0  0  0  0
  185.3030  177.4760  142.8540 O   0  0  0  0  0  1  0  0  0  0  0  0
  185.1020  178.7370  145.3120 O   0  0  0  0  0  0  0  0  0  0  0  0
  186.1590  178.1550  144.9410 C   0  0  0  0  0  0  0  0  0  0  0  0
  187.1340  177.7550  145.9020 N   0  0  0  0  0  2  0  0  0  0  0  0
  187.0660  178.2020  147.2900 C   0  0  0  0  0  2  0  0  0  0  0  0
  189.3790  177.9850  147.9430 O   0  0  0  0  0  0  0  0  0  0  0  0
  188.7120  178.4360  149.0950 C   0  0  0  0  0  2  0  0  0  0  0  0
  188.0830  177.4730  148.1570 C   0  0  1  0  0  3  0  0  0  0  0  0
  191.7340  176.7610  140.3060 C   0  0  0  0  0  3  0  0  0  0  0  0
  192.4090  177.9560  140.5400 O   0  0  0  0  0  1  0  0  0  0  0  0
  192.0380  176.3190  139.0200 O   0  0  0  0  0  1  0  0  0  0  0  0
  2  8  1  0  0  0  0
  4  6  1  0  0  0  0
  5 10  1  1  0  0  0
  5  7  1  0  0  0  0
  5  2  1  0  0  0  0
  6 14  1  0  0  0  0
  6  3  1  1  0  0  0
  7  4  1  0  0  0  0
  8  6  1  0  0  0  0
  8  1  1  1  0  0  0
 10  9  1  1  0  0  0
 10 11  1  0  0  0  0
 11 13  1  6  0  0  0
 12 11  1  0  0  0  0
 15 19  1  0  0  0  0
 16 24  1  1  0  0  0
 17 15  1  6  0  0  0
 17 27  1  0  0  0  0
 17 25  1  0  0  0  0
 19 29  1  6  0  0  0
 19 16  1  0  0  0  0
 20 21  1  0  0  0  0
 22 14  1  6  0  0  0
 22 16  1  0  0  0  0
 22 20  1  0  0  0  0
 23 28  1  0  0  0  0
 24 21  1  0  0  0  0
 25 23  1  0  0  0  0
 26 31  1  6  0  0  0
 26 18  1  0  0  0  0
 27 16  1  0  0  0  0
 27 26  1  0  0  0  0
 28 18  1  0  0  0  0
 31 30  1  0  0  0  0
 32 33  1  0  0  0  0
 32 34  1  0  0  0  0
 33  1  1  0  0  0  0
 33 34  1  0  0  0  0
 34 38  1  0  0  0  0
 35 32  1  0  0  0  0
 37 34  1  0  0  0  0
 37 36  1  0  0  0  0
 38 39  1  0  0  0  0
 39 40  1  0  0  0  0
 40 44  1  0  0  0  0
 41 45  1  0  0  0  0
 41 49  1  0  0  0  0
 42 48  1  0  0  0  0
 43 46  1  0  0  0  0
 44 41  1  0  0  0  0
 44 43  1  0  0  0  0
 45 42  1  0  0  0  0
 46 42  1  0  0  0  0
 48 47  1  0  0  0  0
 49 50  1  0  0  0  0
 50 53  1  0  0  0  0
 51 50  1  0  0  0  0
 53 52  2  0  0  0  0
 53 54  1  0  0  0  0
 54 55  1  0  0  0  0
 55 58  1  0  0  0  0
 56 58  1  0  0  0  0
 56 57  1  0  0  0  0
 58 57  1  0  0  0  0
 59 40  1  0  0  0  0
 59 60  1  0  0  0  0
 61 59  1  0  0  0  0
M  END
>  <MODEL>
6

>  <REMARK>
 VINA RESULT:      -5.3      3.158      7.819
  Name = 
  19 active torsions:
  status: ('A' for Active; 'I' for Inactive)
    1  A    between atoms: C_2  and  C_11
    2  A    between atoms: C_4  and  C_57
    3  A    between atoms: C_5  and  C_12
    4  A    between atoms: C_6  and  C_41
    5  A    between atoms: C_6  and  C_44
    6  A    between atoms: C_8  and  C_24
    7  A    between atoms: C_9  and  C_17
    8  A    between atoms: C_9  and  C_23
    9  A    between atoms: C_11  and  C_19
   10  A    between atoms: C_11  and  C_45
   11  A    between atoms: C_12  and  C_25
   12  A    between atoms: C_17  and  C_19
   13  A    between atoms: C_22  and  C_25
   14  A    between atoms: C_24  and  C_47
   15  A    between atoms: N_27  and  C_55
   16  A    between atoms: C_38  and  C_57
   17  A    between atoms: C_39  and  C_51
   18  A    between atoms: C_42  and  C_50
   19  A    between atoms: C_55  and  C_56
                            x       y       z     vdW  Elec       q    Type
                         _______ _______ _______ _____ _____    ______ ____

>  <TORSDO>
F 19

$$$$
=
 OpenBabel11062413553D

 61 67  0  0  1  0  0  0  0  0999 V2000
  185.2940  178.0240  138.1930 C   0  0  0  0  0  2  0  0  0  0  0  0
  184.7610  175.8250  137.4160 O   0  0  0  0  0  0  0  0  0  0  0  0
  182.8290  176.5360  139.4820 C   0  0  0  0  0  1  0  0  0  0  0  0
  181.9550  176.3270  137.1520 C   0  0  0  0  0  2  0  0  0  0  0  0
  184.0510  175.1990  136.3740 C   0  0  2  0  0  3  0  0  0  0  0  0
  182.8520  177.1660  138.0800 C   0  0  2  0  0  0  0  0  0  0  0  0
  182.5880  174.9820  136.7880 C   0  0  0  0  0  2  0  0  0  0  0  0
  184.2770  177.1420  137.4840 C   0  0  1  0  0  3  0  0  0  0  0  0
  184.3300  173.4840  134.7140 O   0  0  0  0  0  1  0  0  0  0  0  0
  184.7090  173.8660  136.0130 C   0  0  2  0  0  3  0  0  0  0  0  0
  184.3060  172.7670  137.0000 C   0  0  2  0  0  3  0  0  0  0  0  0
  185.2800  172.6150  137.9930 O   0  0  0  0  0  1  0  0  0  0  0  0
  184.1210  171.4480  136.2750 C   0  0  0  0  0  1  0  0  0  0  0  0
  182.2810  178.5940  138.0460 C   0  0  0  0  0  2  0  0  0  0  0  0
  180.4500  180.2050  134.6820 C   0  0  0  0  0  2  0  0  0  0  0  0
  180.1910  179.7640  137.1000 C   0  0  2  0  0  0  0  0  0  0  0  0
  180.8410  181.4660  135.4330 C   0  0  1  0  0  3  0  0  0  0  0  0
  180.7320  183.3020  137.9140 C   0  0  0  0  0  2  0  0  0  0  0  0
  179.8390  179.2410  135.6940 C   0  0  2  0  0  3  0  0  0  0  0  0
  180.2650  178.9900  139.3510 O   0  0  0  0  0  0  0  0  0  0  0  0
  178.9850  179.5440  139.1520 C   0  0  0  0  0  2  0  0  0  0  0  0
  180.7480  178.7130  138.0630 C   0  0  2  0  0  3  0  0  0  0  0  0
  180.1680  184.1610  135.3350 S   0  0  0  0  0  0  0  0  0  0  0  0
  178.9360  180.2150  137.7950 C   0  0  0  0  0  2  0  0  0  0  0  0
  179.6470  182.4120  135.4030 C   0  0  0  0  0  2  0  0  0  0  0  0
  181.3840  181.9190  138.0180 C   0  0  1  0  0  3  0  0  0  0  0  0
  181.1270  180.9490  136.8420 C   0  0  1  0  0  3  0  0  0  0  0  0
  181.3090  184.1060  136.7590 C   0  0  0  0  0  2  0  0  0  0  0  0
  180.3070  177.8240  135.3870 C   0  0  0  0  0  1  0  0  0  0  0  0
  183.3150  180.8300  138.9160 O   0  0  0  0  0  1  0  0  0  0  0  0
  182.8740  182.0070  138.3160 C   0  0  0  0  0  2  0  0  0  0  0  0
  187.3120  176.6450  137.6040 C   0  0  2  0  0  3  0  0  0  0  0  0
  186.6270  178.0010  137.4390 C   0  0  2  0  0  3  0  0  0  0  0  0
  187.8580  177.8690  138.3400 C   0  0  2  0  0  0  0  0  0  0  0  0
  188.0700  176.3060  136.3300 C   0  0  0  0  0  1  0  0  0  0  0  0
  189.0200  179.9510  138.1280 O   0  0  0  0  0  1  0  0  0  0  0  0
  189.0660  178.6070  137.7700 C   0  0  0  0  0  2  0  0  0  0  0  0
  187.6300  177.9460  139.8590 C   0  0  0  0  0  2  0  0  0  0  0  0
  188.7290  177.2890  140.7050 C   0  0  0  0  0  2  0  0  0  0  0  0
  188.9230  177.9010  142.0960 C   0  0  1  0  0  3  0  0  0  0  0  0
  188.5480  177.5220  144.6090 C   0  0  2  0  0  3  0  0  0  0  0  0
  190.4380  176.4110  145.3570 C   0  0  1  0  0  3  0  0  0  0  0  0
  189.5120  175.6280  143.2010 C   0  0  0  0  0  2  0  0  0  0  0  0
  188.6310  176.8830  143.2120 C   0  0  2  0  0  3  0  0  0  0  0  0
  189.8220  177.6740  145.2130 O   0  0  0  0  0  0  0  0  0  0  0  0
  190.7940  175.8410  143.9910 C   0  0  0  0  0  2  0  0  0  0  0  0
  191.4150  176.2530  147.5220 O   0  0  0  0  0  1  0  0  0  0  0  0
  191.6970  176.5560  146.1880 C   0  0  0  0  0  2  0  0  0  0  0  0
  187.5800  176.7660  145.5170 C   0  0  0  0  0  2  0  0  0  0  0  0
  186.9210  177.7040  146.5160 C   0  0  1  0  0  3  0  0  0  0  0  0
  187.8980  178.4940  147.1150 O   0  0  0  0  0  1  0  0  0  0  0  0
  185.7190  179.7690  146.2780 O   0  0  0  0  0  0  0  0  0  0  0  0
  185.9020  178.5910  145.8670 C   0  0  0  0  0  0  0  0  0  0  0  0
  185.0820  178.0560  144.8300 N   0  0  0  0  0  2  0  0  0  0  0  0
  183.8780  178.7440  144.3770 C   0  0  0  0  0  2  0  0  0  0  0  0
  184.1310  178.0900  142.0680 O   0  0  0  0  0  0  0  0  0  0  0  0
  182.8600  178.6860  142.1440 C   0  0  0  0  0  2  0  0  0  0  0  0
  184.0100  179.1990  142.9300 C   0  0  1  0  0  3  0  0  0  0  0  0
  190.2160  178.7170  142.2520 C   0  0  0  0  0  3  0  0  0  0  0  0
  191.3210  177.8740  142.1660 O   0  0  0  0  0  1  0  0  0  0  0  0
  190.2420  179.3650  143.4850 O   0  0  0  0  0  1  0  0  0  0  0  0
  2  8  1  0  0  0  0
  4  6  1  0  0  0  0
  5 10  1  1  0  0  0
  5  7  1  0  0  0  0
  5  2  1  0  0  0  0
  6  3  1  1  0  0  0
  7  4  1  0  0  0  0
  8  6  1  0  0  0  0
  8  1  1  1  0  0  0
 10  9  1  6  0  0  0
 10 11  1  0  0  0  0
 11 13  1  6  0  0  0
 11 12  1  0  0  0  0
 14  6  1  0  0  0  0
 15 19  1  0  0  0  0
 16 24  1  1  0  0  0
 16 22  1  0  0  0  0
 17 15  1  6  0  0  0
 17 27  1  0  0  0  0
 18 26  1  0  0  0  0
 19 29  1  6  0  0  0
 19 16  1  0  0  0  0
 21 20  1  0  0  0  0
 22 14  1  1  0  0  0
 22 20  1  0  0  0  0
 23 25  1  0  0  0  0
 23 28  1  0  0  0  0
 24 21  1  0  0  0  0
 25 17  1  0  0  0  0
 26 31  1  6  0  0  0
 27 16  1  0  0  0  0
 27 26  1  0  0  0  0
 28 18  1  0  0  0  0
 31 30  1  0  0  0  0
 32 34  1  0  0  0  0
 33 32  1  0  0  0  0
 33  1  1  0  0  0  0
 33 34  1  0  0  0  0
 34 38  1  0  0  0  0
 35 32  1  0  0  0  0
 37 36  1  0  0  0  0
 37 34  1  0  0  0  0
 38 39  1  0  0  0  0
 39 40  1  0  0  0  0
 40 59  1  0  0  0  0
 40 44  1  0  0  0  0
 41 45  1  0  0  0  0
 41 49  1  0  0  0  0
 42 48  1  0  0  0  0
 43 44  1  0  0  0  0
 43 46  1  0  0  0  0
 44 41  1  0  0  0  0
 45 42  1  0  0  0  0
 46 42  1  0  0  0  0
 48 47  1  0  0  0  0
 49 50  1  0  0  0  0
 50 51  1  0  0  0  0
 53 52  2  0  0  0  0
 53 50  1  0  0  0  0
 54 53  1  0  0  0  0
 55 54  1  0  0  0  0
 56 57  1  0  0  0  0
 56 58  1  0  0  0  0
 57 58  1  0  0  0  0
 58 55  1  0  0  0  0
 59 61  1  0  0  0  0
 60 59  1  0  0  0  0
M  END
>  <MODEL>
7

>  <REMARK>
 VINA RESULT:      -4.9      3.335      7.348
  Name = 
  19 active torsions:
  status: ('A' for Active; 'I' for Inactive)
    1  A    between atoms: C_2  and  C_11
    2  A    between atoms: C_4  and  C_57
    3  A    between atoms: C_5  and  C_12
    4  A    between atoms: C_6  and  C_41
    5  A    between atoms: C_6  and  C_44
    6  A    between atoms: C_8  and  C_24
    7  A    between atoms: C_9  and  C_17
    8  A    between atoms: C_9  and  C_23
    9  A    between atoms: C_11  and  C_19
   10  A    between atoms: C_11  and  C_45
   11  A    between atoms: C_12  and  C_25
   12  A    between atoms: C_17  and  C_19
   13  A    between atoms: C_22  and  C_25
   14  A    between atoms: C_24  and  C_47
   15  A    between atoms: N_27  and  C_55
   16  A    between atoms: C_38  and  C_57
   17  A    between atoms: C_39  and  C_51
   18  A    between atoms: C_42  and  C_50
   19  A    between atoms: C_55  and  C_56
                            x       y       z     vdW  Elec       q    Type
                         _______ _______ _______ _____ _____    ______ ____

>  <TORSDO>
F 19

$$$$
=
 OpenBabel11062413553D

 61 67  0  0  1  0  0  0  0  0999 V2000
  185.1100  176.8810  137.8240 C   0  0  0  0  0  2  0  0  0  0  0  0
  184.6140  174.6480  137.1220 O   0  0  0  0  0  0  0  0  0  0  0  0
  182.4640  175.5290  138.8840 C   0  0  0  0  0  1  0  0  0  0  0  0
  181.8770  175.1910  136.4800 C   0  0  0  0  0  2  0  0  0  0  0  0
  184.0200  173.9710  136.0390 C   0  0  2  0  0  3  0  0  0  0  0  0
  182.6770  176.0680  137.4600 C   0  0  2  0  0  0  0  0  0  0  0  0
  182.5120  173.8120  136.2800 C   0  0  0  0  0  2  0  0  0  0  0  0
  184.1630  175.9760  137.0480 C   0  0  1  0  0  3  0  0  0  0  0  0
  183.6980  171.5970  135.8580 O   0  0  0  0  0  1  0  0  0  0  0  0
  184.6790  172.6050  135.8450 C   0  0  2  0  0  3  0  0  0  0  0  0
  185.7050  172.3260  136.9450 C   0  0  2  0  0  3  0  0  0  0  0  0
  185.3400  172.9670  138.1340 O   0  0  0  0  0  1  0  0  0  0  0  0
  187.0800  172.8050  136.5200 C   0  0  0  0  0  1  0  0  0  0  0  0
  182.1560  177.5030  137.2690 C   0  0  0  0  0  2  0  0  0  0  0  0
  180.1270  180.1300  134.7700 C   0  0  0  0  0  2  0  0  0  0  0  0
  180.1100  179.0410  136.9880 C   0  0  2  0  0  0  0  0  0  0  0  0
  180.7400  181.0940  135.7700 C   0  0  1  0  0  3  0  0  0  0  0  0
  181.1290  182.1540  138.6440 C   0  0  0  0  0  2  0  0  0  0  0  0
  179.5380  178.9650  135.5600 C   0  0  2  0  0  3  0  0  0  0  0  0
  180.3650  177.6570  138.9090 O   0  0  0  0  0  0  0  0  0  0  0  0
  179.1390  178.3360  139.0550 C   0  0  0  0  0  2  0  0  0  0  0  0
  180.6580  177.7220  137.5390 C   0  0  2  0  0  3  0  0  0  0  0  0
  180.3600  183.7470  136.5050 S   0  0  0  0  0  0  0  0  0  0  0  0
  179.0040  179.3660  137.9530 C   0  0  0  0  0  2  0  0  0  0  0  0
  179.6620  182.0930  136.1710 C   0  0  0  0  0  2  0  0  0  0  0  0
  181.6330  180.7550  138.2740 C   0  0  1  0  0  3  0  0  0  0  0  0
  181.1330  180.1800  136.9290 C   0  0  1  0  0  3  0  0  0  0  0  0
  181.6500  183.2090  137.6800 C   0  0  0  0  0  2  0  0  0  0  0  0
  179.8080  177.6640  134.8150 C   0  0  0  0  0  1  0  0  0  0  0  0
  183.5080  179.8220  139.4290 O   0  0  0  0  0  1  0  0  0  0  0  0
  183.1480  180.6470  138.3660 C   0  0  0  0  0  2  0  0  0  0  0  0
  187.1240  176.4320  136.3860 C   0  0  2  0  0  3  0  0  0  0  0  0
  186.1430  177.4970  136.8760 C   0  0  2  0  0  3  0  0  0  0  0  0
  187.5790  177.4740  137.4080 C   0  0  2  0  0  0  0  0  0  0  0  0
  187.5400  176.7490  134.9580 C   0  0  0  0  0  1  0  0  0  0  0  0
  189.7440  178.3930  136.9670 O   0  0  0  0  0  1  0  0  0  0  0  0
  188.3830  178.6820  136.9350 C   0  0  0  0  0  2  0  0  0  0  0  0
  187.7850  177.0060  138.8580 C   0  0  0  0  0  2  0  0  0  0  0  0
  188.0980  178.1290  139.8560 C   0  0  0  0  0  2  0  0  0  0  0  0
  188.4950  177.6540  141.2560 C   0  0  1  0  0  3  0  0  0  0  0  0
  190.7970  176.6810  141.8540 C   0  0  2  0  0  3  0  0  0  0  0  0
  191.1790  177.2970  144.0540 C   0  0  1  0  0  3  0  0  0  0  0  0
  190.2240  179.0520  142.5940 C   0  0  0  0  0  2  0  0  0  0  0  0
  189.9740  177.9480  141.5600 C   0  0  2  0  0  3  0  0  0  0  0  0
  190.7000  176.2730  143.2080 O   0  0  0  0  0  0  0  0  0  0  0  0
  190.2410  178.4950  144.0100 C   0  0  0  0  0  2  0  0  0  0  0  0
  191.9460  175.5560  145.4840 O   0  0  0  0  0  1  0  0  0  0  0  0
  191.2680  176.7780  145.4740 C   0  0  0  0  0  2  0  0  0  0  0  0
  192.2510  176.8410  141.4150 C   0  0  0  0  0  2  0  0  0  0  0  0
  192.3400  177.4910  140.0430 C   0  0  1  0  0  3  0  0  0  0  0  0
  193.6220  178.0030  139.8620 O   0  0  0  0  0  1  0  0  0  0  0  0
  191.1720  175.6170  139.0990 O   0  0  0  0  0  0  0  0  0  0  0  0
  192.0360  176.5230  138.9410 C   0  0  0  0  0  0  0  0  0  0  0  0
  192.7980  176.5870  137.7370 N   0  0  0  0  0  2  0  0  0  0  0  0
  192.7790  175.5000  136.7640 C   0  0  0  0  0  2  0  0  0  0  0  0
  194.4740  174.1940  137.8810 O   0  0  0  0  0  0  0  0  0  0  0  0
  193.9780  173.3600  136.8640 C   0  0  0  0  0  2  0  0  0  0  0  0
  194.1390  174.8220  136.6640 C   0  0  1  0  0  3  0  0  0  0  0  0
  187.4940  178.0340  142.3590 C   0  0  0  0  0  3  0  0  0  0  0  0
  187.4510  177.0340  143.3260 O   0  0  0  0  0  1  0  0  0  0  0  0
  186.2170  178.1990  141.8280 O   0  0  0  0  0  1  0  0  0  0  0  0
  4  6  1  0  0  0  0
  5 10  1  1  0  0  0
  5  7  1  0  0  0  0
  5  2  1  0  0  0  0
  6  3  1  1  0  0  0
  7  4  1  0  0  0  0
  8  2  1  0  0  0  0
  8  6  1  0  0  0  0
  8  1  1  1  0  0  0
 10  9  1  1  0  0  0
 10 11  1  0  0  0  0
 11 13  1  6  0  0  0
 11 12  1  0  0  0  0
 14  6  1  0  0  0  0
 15 19  1  0  0  0  0
 16 22  1  0  0  0  0
 16 24  1  1  0  0  0
 17 15  1  6  0  0  0
 17 25  1  0  0  0  0
 17 27  1  0  0  0  0
 19 29  1  6  0  0  0
 19 16  1  0  0  0  0
 20 21  1  0  0  0  0
 22 14  1  1  0  0  0
 22 20  1  0  0  0  0
 23 28  1  0  0  0  0
 24 21  1  0  0  0  0
 25 23  1  0  0  0  0
 26 31  1  6  0  0  0
 26 18  1  0  0  0  0
 27 16  1  0  0  0  0
 27 26  1  0  0  0  0
 28 18  1  0  0  0  0
 31 30  1  0  0  0  0
 32 33  1  0  0  0  0
 32 34  1  0  0  0  0
 33 34  1  0  0  0  0
 33  1  1  0  0  0  0
 34 38  1  0  0  0  0
 35 32  1  0  0  0  0
 37 36  1  0  0  0  0
 37 34  1  0  0  0  0
 38 39  1  0  0  0  0
 39 40  1  0  0  0  0
 40 44  1  0  0  0  0
 40 59  1  0  0  0  0
 41 45  1  0  0  0  0
 42 48  1  0  0  0  0
 43 46  1  0  0  0  0
 44 41  1  0  0  0  0
 44 43  1  0  0  0  0
 45 42  1  0  0  0  0
 46 42  1  0  0  0  0
 48 47  1  0  0  0  0
 49 41  1  0  0  0  0
 50 49  1  0  0  0  0
 51 50  1  0  0  0  0
 53 52  2  0  0  0  0
 53 50  1  0  0  0  0
 54 53  1  0  0  0  0
 55 54  1  0  0  0  0
 57 56  1  0  0  0  0
 58 55  1  0  0  0  0
 58 57  1  0  0  0  0
 58 56  1  0  0  0  0
 59 60  1  0  0  0  0
 61 59  1  0  0  0  0
M  END
>  <MODEL>
8

>  <REMARK>
 VINA RESULT:      -4.7      2.775      6.083
  Name = 
  19 active torsions:
  status: ('A' for Active; 'I' for Inactive)
    1  A    between atoms: C_2  and  C_11
    2  A    between atoms: C_4  and  C_57
    3  A    between atoms: C_5  and  C_12
    4  A    between atoms: C_6  and  C_41
    5  A    between atoms: C_6  and  C_44
    6  A    between atoms: C_8  and  C_24
    7  A    between atoms: C_9  and  C_17
    8  A    between atoms: C_9  and  C_23
    9  A    between atoms: C_11  and  C_19
   10  A    between atoms: C_11  and  C_45
   11  A    between atoms: C_12  and  C_25
   12  A    between atoms: C_17  and  C_19
   13  A    between atoms: C_22  and  C_25
   14  A    between atoms: C_24  and  C_47
   15  A    between atoms: N_27  and  C_55
   16  A    between atoms: C_38  and  C_57
   17  A    between atoms: C_39  and  C_51
   18  A    between atoms: C_42  and  C_50
   19  A    between atoms: C_55  and  C_56
                            x       y       z     vdW  Elec       q    Type
                         _______ _______ _______ _____ _____    ______ ____

>  <TORSDO>
F 19

$$$$
=
 OpenBabel11062413553D

 61 67  0  0  1  0  0  0  0  0999 V2000
  186.3780  176.3570  137.5300 C   0  0  0  0  0  2  0  0  0  0  0  0
  186.4670  174.2590  136.3820 O   0  0  0  0  0  0  0  0  0  0  0  0
  184.0130  174.3130  137.9560 C   0  0  0  0  0  1  0  0  0  0  0  0
  183.7540  174.3580  135.4730 C   0  0  0  0  0  2  0  0  0  0  0  0
  186.1480  173.7100  135.1250 C   0  0  2  0  0  3  0  0  0  0  0  0
  184.2370  175.1610  136.6940 C   0  0  2  0  0  0  0  0  0  0  0  0
  184.6990  173.2050  135.1220 C   0  0  0  0  0  2  0  0  0  0  0  0
  185.7390  175.4560  136.4830 C   0  0  1  0  0  3  0  0  0  0  0  0
  186.7160  171.3980  135.4480 O   0  0  0  0  0  1  0  0  0  0  0  0
  187.1130  172.5730  134.7850 C   0  0  2  0  0  3  0  0  0  0  0  0
  188.5460  172.9240  135.1940 C   0  0  2  0  0  3  0  0  0  0  0  0
  189.4530  172.0090  134.6490 O   0  0  0  0  0  1  0  0  0  0  0  0
  188.6800  172.9220  136.7050 C   0  0  0  0  0  1  0  0  0  0  0  0
  183.4280  176.4700  136.6890 C   0  0  0  0  0  2  0  0  0  0  0  0
  181.1820  179.9640  136.6060 C   0  0  0  0  0  2  0  0  0  0  0  0
  181.0770  177.5060  136.8460 C   0  0  2  0  0  0  0  0  0  0  0  0
  181.1600  179.6380  138.0890 C   0  0  1  0  0  3  0  0  0  0  0  0
  180.4860  177.7770  140.4580 C   0  0  0  0  0  2  0  0  0  0  0  0
  180.9030  178.6680  135.8500 C   0  0  2  0  0  3  0  0  0  0  0  0
  181.3910  175.1460  136.8350 O   0  0  0  0  0  0  0  0  0  0  0  0
  180.0020  175.3730  136.8970 C   0  0  0  0  0  2  0  0  0  0  0  0
  181.9350  176.3430  136.3450 C   0  0  2  0  0  3  0  0  0  0  0  0
  179.6790  180.4280  140.3040 S   0  0  0  0  0  0  0  0  0  0  0  0
  179.7440  176.8520  137.0880 C   0  0  0  0  0  2  0  0  0  0  0  0
  179.7300  179.8210  138.5820 C   0  0  0  0  0  2  0  0  0  0  0  0
  181.5380  177.3490  139.4300 C   0  0  1  0  0  3  0  0  0  0  0  0
  181.5950  178.1740  138.1240 C   0  0  1  0  0  3  0  0  0  0  0  0
  180.7820  179.1610  141.0170 C   0  0  0  0  0  2  0  0  0  0  0  0
  181.7910  178.6060  134.6130 C   0  0  0  0  0  1  0  0  0  0  0  0
  183.6250  178.4240  139.8850 O   0  0  0  0  0  1  0  0  0  0  0  0
  182.9260  177.2290  140.0420 C   0  0  0  0  0  2  0  0  0  0  0  0
  188.6510  176.7190  136.5170 C   0  0  2  0  0  3  0  0  0  0  0  0
  187.3100  177.3680  136.8560 C   0  0  2  0  0  3  0  0  0  0  0  0
  188.5580  177.7170  137.6720 C   0  0  2  0  0  0  0  0  0  0  0  0
  189.1900  177.3200  135.2280 C   0  0  0  0  0  1  0  0  0  0  0  0
  187.8970  179.9670  137.1920 O   0  0  0  0  0  1  0  0  0  0  0  0
  189.0020  179.1600  137.4490 C   0  0  0  0  0  2  0  0  0  0  0  0
  188.6420  177.1590  139.1020 C   0  0  0  0  0  2  0  0  0  0  0  0
  188.3070  178.1720  140.2050 C   0  0  0  0  0  2  0  0  0  0  0  0
  187.6280  177.5750  141.4420 C   0  0  1  0  0  3  0  0  0  0  0  0
  189.5990  178.6380  142.7020 C   0  0  2  0  0  3  0  0  0  0  0  0
  191.4170  177.2650  142.2810 C   0  0  1  0  0  3  0  0  0  0  0  0
  189.2900  176.1080  142.7910 C   0  0  0  0  0  2  0  0  0  0  0  0
  188.6010  177.4680  142.6290 C   0  0  2  0  0  3  0  0  0  0  0  0
  190.7350  178.4340  141.8780 O   0  0  0  0  0  0  0  0  0  0  0  0
  190.5730  176.0340  141.9780 C   0  0  0  0  0  2  0  0  0  0  0  0
  192.4940  177.0930  140.1650 O   0  0  0  0  0  1  0  0  0  0  0  0
  192.7340  177.1690  141.5390 C   0  0  0  0  0  2  0  0  0  0  0  0
  189.9960  178.9480  144.1440 C   0  0  0  0  0  2  0  0  0  0  0  0
  190.0850  177.6750  144.9720 C   0  0  1  0  0  3  0  0  0  0  0  0
  191.3900  177.5170  145.4280 O   0  0  0  0  0  1  0  0  0  0  0  0
  189.6020  177.6410  147.3240 O   0  0  0  0  0  0  0  0  0  0  0  0
  189.1540  177.7030  146.1460 C   0  0  0  0  0  0  0  0  0  0  0  0
  187.7470  177.7170  145.9110 N   0  0  0  0  0  2  0  0  0  0  0  0
  186.7930  177.4280  146.9770 C   0  0  0  0  0  2  0  0  0  0  0  0
  185.9530  179.5590  146.2150 O   0  0  0  0  0  0  0  0  0  0  0  0
  184.8250  178.7220  146.2840 C   0  0  0  0  0  2  0  0  0  0  0  0
  185.9210  178.6380  147.2820 C   0  0  1  0  0  3  0  0  0  0  0  0
  186.2480  178.1750  141.7560 C   0  0  0  0  0  3  0  0  0  0  0  0
  186.2120  179.5110  141.3650 O   0  0  0  0  0  1  0  0  0  0  0  0
  185.9790  178.1010  143.1210 O   0  0  0  0  0  1  0  0  0  0  0  0
  2  8  1  0  0  0  0
  4  6  1  0  0  0  0
  5 10  1  1  0  0  0
  5  2  1  0  0  0  0
  6  3  1  1  0  0  0
  7  5  1  0  0  0  0
  7  4  1  0  0  0  0
  8  6  1  0  0  0  0
  8  1  1  1  0  0  0
 10 11  1  0  0  0  0
 10  9  1  1  0  0  0
 11 13  1  1  0  0  0
 12 11  1  0  0  0  0
 14  6  1  0  0  0  0
 16 24  1  1  0  0  0
 16 27  1  0  0  0  0
 17 15  1  6  0  0  0
 17 27  1  0  0  0  0
 17 25  1  0  0  0  0
 18 28  1  0  0  0  0
 19 29  1  6  0  0  0
 19 15  1  0  0  0  0
 19 16  1  0  0  0  0
 20 21  1  0  0  0  0
 21 24  1  0  0  0  0
 22 14  1  1  0  0  0
 22 20  1  0  0  0  0
 22 16  1  0  0  0  0
 23 28  1  0  0  0  0
 25 23  1  0  0  0  0
 26 31  1  1  0  0  0
 26 18  1  0  0  0  0
 27 26  1  0  0  0  0
 30 31  1  0  0  0  0
 32 33  1  0  0  0  0
 32 34  1  0  0  0  0
 33  1  1  0  0  0  0
 33 34  1  0  0  0  0
 34 38  1  0  0  0  0
 35 32  1  0  0  0  0
 36 37  1  0  0  0  0
 37 34  1  0  0  0  0
 38 39  1  0  0  0  0
 39 40  1  0  0  0  0
 40 59  1  0  0  0  0
 40 44  1  0  0  0  0
 41 49  1  0  0  0  0
 44 41  1  0  0  0  0
 44 43  1  0  0  0  0
 45 42  1  0  0  0  0
 45 41  1  0  0  0  0
 46 42  1  0  0  0  0
 46 43  1  0  0  0  0
 47 48  1  0  0  0  0
 48 42  1  0  0  0  0
 49 50  1  0  0  0  0
 50 51  1  0  0  0  0
 50 53  1  0  0  0  0
 53 52  2  0  0  0  0
 54 53  1  0  0  0  0
 54 55  1  0  0  0  0
 55 58  1  0  0  0  0
 56 57  1  0  0  0  0
 56 58  1  0  0  0  0
 57 58  1  0  0  0  0
 59 61  1  0  0  0  0
 60 59  1  0  0  0  0
M  END
>  <MODEL>
9

>  <REMARK>
 VINA RESULT:      -4.3      3.020      7.722
  Name = 
  19 active torsions:
  status: ('A' for Active; 'I' for Inactive)
    1  A    between atoms: C_2  and  C_11
    2  A    between atoms: C_4  and  C_57
    3  A    between atoms: C_5  and  C_12
    4  A    between atoms: C_6  and  C_41
    5  A    between atoms: C_6  and  C_44
    6  A    between atoms: C_8  and  C_24
    7  A    between atoms: C_9  and  C_17
    8  A    between atoms: C_9  and  C_23
    9  A    between atoms: C_11  and  C_19
   10  A    between atoms: C_11  and  C_45
   11  A    between atoms: C_12  and  C_25
   12  A    between atoms: C_17  and  C_19
   13  A    between atoms: C_22  and  C_25
   14  A    between atoms: C_24  and  C_47
   15  A    between atoms: N_27  and  C_55
   16  A    between atoms: C_38  and  C_57
   17  A    between atoms: C_39  and  C_51
   18  A    between atoms: C_42  and  C_50
   19  A    between atoms: C_55  and  C_56
                            x       y       z     vdW  Elec       q    Type
                         _______ _______ _______ _____ _____    ______ ____

>  <TORSDO>
F 19

$$$$
