=
 OpenBabel11062412483D

 54 58  0  0  1  0  0  0  0  0999 V2000
  185.5380  178.5450  139.7460 C   0  0  2  0  0  3  0  0  0  0  0  0
  185.9410  178.6530  141.2190 C   0  0  1  0  0  3  0  0  0  0  0  0
  184.9490  178.2310  144.6480 C   0  0  0  0  0  3  0  0  0  0  0  0
  184.7500  178.7900  142.1070 C   0  0  0  0  0  3  0  0  0  0  0  0
  184.8490  178.5170  143.3750 C   0  0  0  0  0  0  0  0  0  0  0  0
  187.2040  177.7050  147.4480 C   0  0  2  0  0  3  0  0  0  0  0  0
  186.7210  179.1180  147.6780 C   0  0  0  0  0  2  0  0  0  0  0  0
  188.7180  177.6490  147.5860 C   0  0  0  0  0  2  0  0  0  0  0  0
  185.7400  179.4260  146.6480 N   0  0  0  0  0  2  0  0  0  0  0  0
  186.8400  177.3880  146.0030 C   0  0  2  0  0  3  0  0  0  0  0  0
  188.1270  177.1740  145.2190 C   0  0  0  0  0  2  0  0  0  0  0  0
  190.4360  177.1680  145.9490 N   0  0  0  0  0  2  0  0  0  0  0  0
  189.1980  177.3480  146.2210 C   0  0  0  0  0  0  0  0  0  0  0  0
  186.1270  178.6230  145.4920 C   0  0  1  0  0  3  0  0  0  0  0  0
  186.6810  177.5280  141.5900 O   0  0  0  0  0  0  0  0  0  0  0  0
  187.9990  179.5190  141.7460 C   0  0  0  0  0  1  0  0  0  0  0  0
  187.9180  178.0240  142.0140 C   0  0  2  0  0  3  0  0  0  0  0  0
  189.0610  177.2270  141.3600 C   0  0  2  0  0  3  0  0  0  0  0  0
  190.1490  176.7510  142.2800 C   0  0  0  0  0  0  0  0  0  0  0  0
  191.0380  177.5560  142.6600 O   0  0  0  0  0  0  0  0  0  0  0  0
  190.1720  175.4380  142.7340 O   0  0  0  0  0  1  0  0  0  0  0  0
  189.5010  177.6990  140.1020 O   0  0  0  0  0  0  0  0  0  0  0  0
  190.0260  176.6270  139.3650 C   0  0  0  0  0  1  0  0  0  0  0  0
  186.6590  178.7540  138.8940 O   0  0  0  0  0  0  0  0  0  0  0  0
  185.6380  177.2230  137.1730 C   0  0  0  0  0  2  0  0  0  0  0  0
  188.5830  177.7770  135.8460 N   0  0  0  0  0  2  0  0  0  0  0  0
  185.9040  175.8220  136.8150 N   0  0  0  0  0  0  0  0  0  0  0  0
  186.9580  175.7280  135.9030 C   0  0  0  0  0  0  0  0  0  0  0  0
  188.0160  178.3700  137.0400 C   0  0  0  0  0  3  0  0  0  0  0  0
  187.8310  175.2870  134.9070 C   0  0  0  0  0  2  0  0  0  0  0  0
  186.8350  178.0800  137.6800 C   0  0  0  0  0  0  0  0  0  0  0  0
  188.0440  176.5300  135.5060 C   0  0  0  0  0  0  0  0  0  0  0  0
  184.8690  174.8050  136.9040 C   0  0  0  0  0  2  0  0  0  0  0  0
  186.4760  173.0140  137.5760 C   0  0  0  0  0  1  0  0  0  0  0  0
  185.4300  173.4320  136.5600 C   0  0  0  0  0  3  0  0  0  0  0  0
  184.3060  172.4180  136.5600 C   0  0  0  0  0  1  0  0  0  0  0  0
  184.5290  179.4630  139.4340 O   0  0  0  0  0  0  0  0  0  0  0  0
  182.6840  178.6490  137.5590 O   0  0  0  0  0  0  0  0  0  0  0  0
  183.4170  177.0860  139.5230 O   0  0  0  0  0  1  0  0  0  0  0  0
  183.1310  178.5330  139.1870 P   0  0  1  0  0  0  0  0  0  0  0  0
  181.8770  179.1290  140.1700 O   0  0  0  0  0  0  0  0  0  0  0  0
  180.7930  179.3750  139.3160 C   0  0  1  0  0  3  0  0  0  0  0  0
  179.4970  177.4030  138.4500 C   0  0  0  0  0  2  0  0  0  0  0  0
  179.9550  177.5130  140.7500 C   0  0  0  0  0  0  0  0  0  0  0  0
  180.1300  176.1590  140.3940 N   0  0  0  0  0  2  0  0  0  0  0  0
  180.0360  177.9080  141.9410 O   0  0  0  0  0  0  0  0  0  0  0  0
  178.9310  175.0410  138.6810 N   0  0  0  0  0  1  0  0  0  0  0  0
  179.6430  178.3990  139.6050 C   0  0  1  0  0  3  0  0  0  0  0  0
  179.9540  176.0310  138.9610 C   0  0  1  0  0  3  0  0  0  0  0  0
  180.3470  180.8040  139.4690 C   0  0  0  0  0  0  0  0  0  0  0  0
  179.6720  181.1970  140.5570 C   0  0  0  0  0  2  0  0  0  0  0  0
  181.9550  182.1900  138.3950 O   0  0  0  0  0  1  0  0  0  0  0  0
  180.6260  181.7650  138.3510 C   0  0  1  0  0  3  0  0  0  0  0  0
  180.3220  181.1430  136.9990 C   0  0  0  0  0  1  0  0  0  0  0  0
  1 24  1  6  0  0  0
  1  2  1  0  0  0  0
  2 15  1  0  0  0  0
  2  4  1  1  0  0  0
  4  5  2  0  0  0  0
  5  3  2  0  0  0  0
  6  8  1  6  0  0  0
  6  7  1  0  0  0  0
  9  7  1  0  0  0  0
 10 11  1  6  0  0  0
 10  6  1  0  0  0  0
 11 13  1  0  0  0  0
 12 13  2  0  0  0  0
 13  8  1  0  0  0  0
 14  3  1  1  0  0  0
 14 10  1  0  0  0  0
 14  9  1  0  0  0  0
 15 17  1  0  0  0  0
 17 16  1  6  0  0  0
 18 22  1  6  0  0  0
 18 17  1  0  0  0  0
 18 19  1  0  0  0  0
 19 20  2  0  0  0  0
 19 21  1  0  0  0  0
 23 22  1  0  0  0  0
 25 31  1  0  0  0  0
 26 29  1  0  0  0  0
 27 33  1  0  0  0  0
 27 25  1  0  0  0  0
 28 27  1  0  0  0  0
 29 31  2  0  0  0  0
 30 32  1  0  0  0  0
 30 28  1  0  0  0  0
 31 24  1  0  0  0  0
 32 26  1  0  0  0  0
 32 28  2  0  0  0  0
 35 33  1  0  0  0  0
 35 34  1  0  0  0  0
 36 35  1  0  0  0  0
 37  1  1  0  0  0  0
 40 38  2  6  0  0  0
 40 37  1  0  0  0  0
 40 39  1  0  0  0  0
 40 41  1  0  0  0  0
 42 50  1  1  0  0  0
 42 41  1  0  0  0  0
 43 49  1  0  0  0  0
 43 48  1  0  0  0  0
 44 46  2  0  0  0  0
 45 44  1  0  0  0  0
 48 42  1  6  0  0  0
 48 44  1  0  0  0  0
 49 47  1  1  0  0  0
 49 45  1  0  0  0  0
 50 51  2  0  0  0  0
 53 54  1  6  0  0  0
 53 52  1  0  0  0  0
 53 50  1  0  0  0  0
M  END
>  <MODEL>
1

>  <REMARK>
 VINA RESULT:      -7.0      0.000      0.000
  Name = 
  19 active torsions:
  status: ('A' for Active; 'I' for Inactive)
    1  A    between atoms: O_3  and  C_45
    2  A    between atoms: O_3  and  C_52
    3  A    between atoms: O_4  and  C_22
    4  A    between atoms: O_4  and  P_50
    5  A    between atoms: N_13  and  C_30
    6  A    between atoms: C_14  and  C_49
    7  A    between atoms: C_15  and  O_21
    8  A    between atoms: C_15  and  C_32
    9  A    between atoms: C_15  and  C_53
   10  A    between atoms: C_20  and  C_48
   11  A    between atoms: O_21  and  P_50
   12  A    between atoms: C_22  and  O_39
   13  A    between atoms: C_22  and  C_45
   14  A    between atoms: C_24  and  C_32
   15  A    between atoms: O_27  and  C_48
   16  A    between atoms: C_28  and  C_45
   17  A    between atoms: C_30  and  C_35
   18  A    between atoms: C_33  and  O_39
   19  A    between atoms: C_48  and  C_52
                            x       y       z     vdW  Elec       q    Type
                         _______ _______ _______ _____ _____    ______ ____

>  <TORSDO>
F 19

$$$$
=
 OpenBabel11062412483D

 54 58  0  0  1  0  0  0  0  0999 V2000
  186.3380  178.5770  140.0880 C   0  0  2  0  0  3  0  0  0  0  0  0
  186.7790  178.2870  141.5250 C   0  0  1  0  0  3  0  0  0  0  0  0
  185.9890  177.4540  144.9310 C   0  0  0  0  0  3  0  0  0  0  0  0
  185.6090  178.1070  142.4330 C   0  0  0  0  0  3  0  0  0  0  0  0
  185.7970  177.7870  143.6810 C   0  0  0  0  0  0  0  0  0  0  0  0
  188.2510  177.3380  147.7720 C   0  0  2  0  0  3  0  0  0  0  0  0
  187.5460  178.6600  147.9700 C   0  0  0  0  0  2  0  0  0  0  0  0
  189.7520  177.5250  147.9330 C   0  0  0  0  0  2  0  0  0  0  0  0
  186.5470  178.7910  146.9200 N   0  0  0  0  0  2  0  0  0  0  0  0
  187.9670  176.9440  146.3290 C   0  0  2  0  0  3  0  0  0  0  0  0
  189.2840  176.9230  145.5670 C   0  0  0  0  0  2  0  0  0  0  0  0
  191.5520  177.2950  146.3310 N   0  0  0  0  0  2  0  0  0  0  0  0
  190.2960  177.2820  146.5820 C   0  0  0  0  0  0  0  0  0  0  0  0
  187.0760  178.0420  145.7840 C   0  0  1  0  0  3  0  0  0  0  0  0
  187.5790  177.1410  141.5510 O   0  0  0  0  0  0  0  0  0  0  0  0
  188.8980  179.0420  142.1650 C   0  0  0  0  0  1  0  0  0  0  0  0
  188.7530  177.5270  142.2040 C   0  0  2  0  0  3  0  0  0  0  0  0
  189.9610  176.7870  141.6050 C   0  0  2  0  0  3  0  0  0  0  0  0
  190.9640  176.2490  142.5860 C   0  0  0  0  0  0  0  0  0  0  0  0
  191.9230  176.9760  142.9550 O   0  0  0  0  0  0  0  0  0  0  0  0
  190.8330  174.9680  143.1080 O   0  0  0  0  0  1  0  0  0  0  0  0
  190.5120  177.3510  140.4310 O   0  0  0  0  0  0  0  0  0  0  0  0
  190.5310  176.3820  139.4180 C   0  0  0  0  0  1  0  0  0  0  0  0
  187.4570  178.8780  139.2610 O   0  0  0  0  0  0  0  0  0  0  0  0
  186.7270  177.0940  137.6400 C   0  0  0  0  0  2  0  0  0  0  0  0
  189.3530  178.3040  136.0950 N   0  0  0  0  0  2  0  0  0  0  0  0
  187.3030  175.7880  137.2830 N   0  0  0  0  0  0  0  0  0  0  0  0
  188.2840  175.9250  136.2980 C   0  0  0  0  0  0  0  0  0  0  0  0
  188.7400  178.7780  137.3190 C   0  0  0  0  0  3  0  0  0  0  0  0
  189.1690  175.6780  135.2470 C   0  0  0  0  0  2  0  0  0  0  0  0
  187.7110  178.2310  138.0480 C   0  0  0  0  0  0  0  0  0  0  0  0
  189.1130  176.9540  135.8120 C   0  0  0  0  0  0  0  0  0  0  0  0
  186.5550  174.5540  137.4600 C   0  0  0  0  0  2  0  0  0  0  0  0
  185.0680  174.4970  135.4540 C   0  0  0  0  0  1  0  0  0  0  0  0
  185.1280  174.7100  136.9540 C   0  0  0  0  0  3  0  0  0  0  0  0
  184.2410  173.6910  137.6370 C   0  0  0  0  0  1  0  0  0  0  0  0
  185.4220  179.6350  140.0490 O   0  0  0  0  0  0  0  0  0  0  0  0
  183.0870  180.3030  138.7520 O   0  0  0  0  0  1  0  0  0  0  0  0
  184.4530  178.1730  138.0950 O   0  0  0  0  0  0  0  0  0  0  0  0
  184.0410  179.0120  139.2850 P   0  0  1  0  0  0  0  0  0  0  0  0
  183.1620  178.0680  140.3940 O   0  0  0  0  0  0  0  0  0  0  0  0
  181.8650  178.5980  140.4180 C   0  0  1  0  0  3  0  0  0  0  0  0
  180.3060  178.3210  138.4660 C   0  0  0  0  0  2  0  0  0  0  0  0
  181.5670  176.4660  139.1580 C   0  0  0  0  0  0  0  0  0  0  0  0
  181.5750  176.4230  137.7480 N   0  0  0  0  0  2  0  0  0  0  0  0
  182.0810  175.5570  139.8580 O   0  0  0  0  0  0  0  0  0  0  0  0
  179.8160  177.1950  136.3570 N   0  0  0  0  0  1  0  0  0  0  0  0
  180.8780  177.6500  139.7190 C   0  0  1  0  0  3  0  0  0  0  0  0
  180.8900  177.5980  137.2460 C   0  0  1  0  0  3  0  0  0  0  0  0
  181.4550  178.8590  141.8430 C   0  0  0  0  0  0  0  0  0  0  0  0
  182.3760  178.9820  142.8070 C   0  0  0  0  0  2  0  0  0  0  0  0
  179.6010  177.7830  142.8740 O   0  0  0  0  0  1  0  0  0  0  0  0
  179.9920  178.9210  142.1660 C   0  0  1  0  0  3  0  0  0  0  0  0
  179.6530  180.1690  142.9620 C   0  0  0  0  0  1  0  0  0  0  0  0
  1 24  1  6  0  0  0
  1  2  1  0  0  0  0
  2 15  1  0  0  0  0
  2  4  1  1  0  0  0
  4  5  2  0  0  0  0
  5  3  2  0  0  0  0
  6  8  1  6  0  0  0
  6  7  1  0  0  0  0
  9  7  1  0  0  0  0
 10 11  1  6  0  0  0
 10  6  1  0  0  0  0
 11 13  1  0  0  0  0
 12 13  2  0  0  0  0
 13  8  1  0  0  0  0
 14  3  1  1  0  0  0
 14 10  1  0  0  0  0
 14  9  1  0  0  0  0
 15 17  1  0  0  0  0
 17 16  1  6  0  0  0
 18 22  1  6  0  0  0
 18 17  1  0  0  0  0
 18 19  1  0  0  0  0
 19 20  2  0  0  0  0
 19 21  1  0  0  0  0
 23 22  1  0  0  0  0
 25 31  1  0  0  0  0
 26 29  1  0  0  0  0
 27 33  1  0  0  0  0
 27 25  1  0  0  0  0
 28 27  1  0  0  0  0
 29 31  2  0  0  0  0
 30 32  1  0  0  0  0
 30 28  1  0  0  0  0
 31 24  1  0  0  0  0
 32 26  1  0  0  0  0
 32 28  2  0  0  0  0
 34 35  1  0  0  0  0
 35 33  1  0  0  0  0
 35 36  1  0  0  0  0
 37  1  1  0  0  0  0
 38 40  1  0  0  0  0
 40 39  2  6  0  0  0
 40 37  1  0  0  0  0
 40 41  1  0  0  0  0
 42 41  1  1  0  0  0
 42 50  1  0  0  0  0
 43 48  1  0  0  0  0
 44 48  1  0  0  0  0
 44 46  2  0  0  0  0
 45 44  1  0  0  0  0
 48 42  1  6  0  0  0
 49 47  1  6  0  0  0
 49 45  1  0  0  0  0
 49 43  1  0  0  0  0
 50 53  1  0  0  0  0
 50 51  2  0  0  0  0
 53 52  1  0  0  0  0
 53 54  1  1  0  0  0
M  END
>  <MODEL>
2

>  <REMARK>
 VINA RESULT:      -6.8      1.517      2.176
  Name = 
  19 active torsions:
  status: ('A' for Active; 'I' for Inactive)
    1  A    between atoms: O_3  and  C_45
    2  A    between atoms: O_3  and  C_52
    3  A    between atoms: O_4  and  C_22
    4  A    between atoms: O_4  and  P_50
    5  A    between atoms: N_13  and  C_30
    6  A    between atoms: C_14  and  C_49
    7  A    between atoms: C_15  and  O_21
    8  A    between atoms: C_15  and  C_32
    9  A    between atoms: C_15  and  C_53
   10  A    between atoms: C_20  and  C_48
   11  A    between atoms: O_21  and  P_50
   12  A    between atoms: C_22  and  O_39
   13  A    between atoms: C_22  and  C_45
   14  A    between atoms: C_24  and  C_32
   15  A    between atoms: O_27  and  C_48
   16  A    between atoms: C_28  and  C_45
   17  A    between atoms: C_30  and  C_35
   18  A    between atoms: C_33  and  O_39
   19  A    between atoms: C_48  and  C_52
                            x       y       z     vdW  Elec       q    Type
                         _______ _______ _______ _____ _____    ______ ____

>  <TORSDO>
F 19

$$$$
=
 OpenBabel11062412483D

 54 58  0  0  1  0  0  0  0  0999 V2000
  184.2180  178.1610  139.9980 C   0  0  2  0  0  3  0  0  0  0  0  0
  185.3770  177.9550  139.0200 C   0  0  1  0  0  3  0  0  0  0  0  0
  185.6380  176.4580  135.7630 C   0  0  0  0  0  3  0  0  0  0  0  0
  184.9490  178.1710  137.6070 C   0  0  0  0  0  3  0  0  0  0  0  0
  185.2870  177.3150  136.6870 C   0  0  0  0  0  0  0  0  0  0  0  0
  184.5980  173.4800  137.5650 C   0  0  2  0  0  3  0  0  0  0  0  0
  186.1030  173.3390  137.5420 C   0  0  0  0  0  2  0  0  0  0  0  0
  183.9520  172.1680  137.1490 C   0  0  0  0  0  2  0  0  0  0  0  0
  186.6500  174.5260  136.9010 N   0  0  0  0  0  2  0  0  0  0  0  0
  184.2780  174.5310  136.5100 C   0  0  2  0  0  3  0  0  0  0  0  0
  183.4640  173.8720  135.4060 C   0  0  0  0  0  2  0  0  0  0  0  0
  182.6150  171.6130  135.2080 N   0  0  0  0  0  2  0  0  0  0  0  0
  183.3140  172.4710  135.8510 C   0  0  0  0  0  0  0  0  0  0  0  0
  185.6220  174.9710  135.9660 C   0  0  1  0  0  3  0  0  0  0  0  0
  186.4220  178.8270  139.3360 O   0  0  0  0  0  0  0  0  0  0  0  0
  188.2940  178.5220  140.7970 C   0  0  0  0  0  1  0  0  0  0  0  0
  187.5240  178.0040  139.5910 C   0  0  2  0  0  3  0  0  0  0  0  0
  188.3910  177.8730  138.3270 C   0  0  2  0  0  3  0  0  0  0  0  0
  189.5710  176.9480  138.4240 C   0  0  0  0  0  0  0  0  0  0  0  0
  189.3840  175.7040  138.4510 O   0  0  0  0  0  0  0  0  0  0  0  0
  190.8660  177.4490  138.4610 O   0  0  0  0  0  1  0  0  0  0  0  0
  188.6240  179.0710  137.6110 O   0  0  0  0  0  0  0  0  0  0  0  0
  188.5720  178.8040  136.2350 C   0  0  0  0  0  1  0  0  0  0  0  0
  184.4550  177.4740  141.2220 O   0  0  0  0  0  0  0  0  0  0  0  0
  186.2180  177.9490  142.9580 C   0  0  0  0  0  2  0  0  0  0  0  0
  183.6910  179.6630  144.1500 N   0  0  0  0  0  2  0  0  0  0  0  0
  186.3790  177.5020  144.3500 N   0  0  0  0  0  0  0  0  0  0  0  0
  185.6590  178.3170  145.2260 C   0  0  0  0  0  0  0  0  0  0  0  0
  183.7680  178.9410  142.8970 C   0  0  0  0  0  3  0  0  0  0  0  0
  185.2080  178.9910  146.3620 C   0  0  0  0  0  2  0  0  0  0  0  0
  184.7670  178.1270  142.4200 C   0  0  0  0  0  0  0  0  0  0  0  0
  184.5680  179.2020  145.1400 C   0  0  0  0  0  0  0  0  0  0  0  0
  187.5540  176.7600  144.7780 C   0  0  0  0  0  2  0  0  0  0  0  0
  189.4460  177.8360  146.0050 C   0  0  0  0  0  1  0  0  0  0  0  0
  188.8080  177.6120  144.6470 C   0  0  0  0  0  3  0  0  0  0  0  0
  189.7980  176.9090  143.7430 C   0  0  0  0  0  1  0  0  0  0  0  0
  183.0080  177.7290  139.4410 O   0  0  0  0  0  0  0  0  0  0  0  0
  181.5310  179.3410  141.1140 O   0  0  0  0  0  1  0  0  0  0  0  0
  182.6970  180.2950  138.9770 O   0  0  0  0  0  0  0  0  0  0  0  0
  181.9750  179.0740  139.5030 P   0  0  1  0  0  0  0  0  0  0  0  0
  180.5880  178.7620  138.5690 O   0  0  0  0  0  0  0  0  0  0  0  0
  180.9620  177.8010  137.6200 C   0  0  1  0  0  3  0  0  0  0  0  0
  180.6480  175.3700  137.0600 C   0  0  0  0  0  2  0  0  0  0  0  0
  179.6200  176.2100  138.9970 C   0  0  0  0  0  0  0  0  0  0  0  0
  180.1060  174.9340  139.3500 N   0  0  0  0  0  2  0  0  0  0  0  0
  178.9310  176.9060  139.7850 O   0  0  0  0  0  0  0  0  0  0  0  0
  180.2930  173.0940  137.8640 N   0  0  0  0  0  1  0  0  0  0  0  0
  179.9720  176.6260  137.6200 C   0  0  1  0  0  3  0  0  0  0  0  0
  180.8390  174.3900  138.2230 C   0  0  1  0  0  3  0  0  0  0  0  0
  181.0490  178.4420  136.2620 C   0  0  0  0  0  0  0  0  0  0  0  0
  181.9430  178.0150  135.3610 C   0  0  0  0  0  2  0  0  0  0  0  0
  180.8780  180.7970  135.9760 O   0  0  0  0  0  1  0  0  0  0  0  0
  180.1510  179.6050  135.9600 C   0  0  1  0  0  3  0  0  0  0  0  0
  179.4580  179.4360  134.6200 C   0  0  0  0  0  1  0  0  0  0  0  0
  1 37  1  6  0  0  0
  1 24  1  0  0  0  0
  2  4  1  6  0  0  0
  2 15  1  0  0  0  0
  2  1  1  0  0  0  0
  3  5  2  0  0  0  0
  5  4  2  0  0  0  0
  6  8  1  6  0  0  0
  7  6  1  0  0  0  0
  9  7  1  0  0  0  0
 10 11  1  6  0  0  0
 10  6  1  0  0  0  0
 11 13  1  0  0  0  0
 12 13  2  0  0  0  0
 13  8  1  0  0  0  0
 14  3  1  1  0  0  0
 14 10  1  0  0  0  0
 14  9  1  0  0  0  0
 15 17  1  0  0  0  0
 17 16  1  1  0  0  0
 18 22  1  1  0  0  0
 18 19  1  0  0  0  0
 18 17  1  0  0  0  0
 19 20  2  0  0  0  0
 19 21  1  0  0  0  0
 23 22  1  0  0  0  0
 24 31  1  0  0  0  0
 25 27  1  0  0  0  0
 26 32  1  0  0  0  0
 27 33  1  0  0  0  0
 27 28  1  0  0  0  0
 28 30  1  0  0  0  0
 29 26  1  0  0  0  0
 31 29  2  0  0  0  0
 31 25  1  0  0  0  0
 32 28  2  0  0  0  0
 32 30  1  0  0  0  0
 35 33  1  0  0  0  0
 35 34  1  0  0  0  0
 36 35  1  0  0  0  0
 37 40  1  0  0  0  0
 40 39  2  6  0  0  0
 40 38  1  0  0  0  0
 41 40  1  0  0  0  0
 42 50  1  6  0  0  0
 42 41  1  0  0  0  0
 43 48  1  0  0  0  0
 43 49  1  0  0  0  0
 44 45  1  0  0  0  0
 44 46  2  0  0  0  0
 48 42  1  1  0  0  0
 48 44  1  0  0  0  0
 49 47  1  6  0  0  0
 49 45  1  0  0  0  0
 51 50  2  0  0  0  0
 53 54  1  6  0  0  0
 53 52  1  0  0  0  0
 53 50  1  0  0  0  0
M  END
>  <MODEL>
3

>  <REMARK>
 VINA RESULT:      -6.6      2.108      7.076
  Name = 
  19 active torsions:
  status: ('A' for Active; 'I' for Inactive)
    1  A    between atoms: O_3  and  C_45
    2  A    between atoms: O_3  and  C_52
    3  A    between atoms: O_4  and  C_22
    4  A    between atoms: O_4  and  P_50
    5  A    between atoms: N_13  and  C_30
    6  A    between atoms: C_14  and  C_49
    7  A    between atoms: C_15  and  O_21
    8  A    between atoms: C_15  and  C_32
    9  A    between atoms: C_15  and  C_53
   10  A    between atoms: C_20  and  C_48
   11  A    between atoms: O_21  and  P_50
   12  A    between atoms: C_22  and  O_39
   13  A    between atoms: C_22  and  C_45
   14  A    between atoms: C_24  and  C_32
   15  A    between atoms: O_27  and  C_48
   16  A    between atoms: C_28  and  C_45
   17  A    between atoms: C_30  and  C_35
   18  A    between atoms: C_33  and  O_39
   19  A    between atoms: C_48  and  C_52
                            x       y       z     vdW  Elec       q    Type
                         _______ _______ _______ _____ _____    ______ ____

>  <TORSDO>
F 19

$$$$
=
 OpenBabel11062412483D

 54 58  0  0  1  0  0  0  0  0999 V2000
  184.4780  178.2380  139.4140 C   0  0  2  0  0  3  0  0  0  0  0  0
  185.5280  177.8130  138.3850 C   0  0  1  0  0  3  0  0  0  0  0  0
  185.4900  175.8440  135.3790 C   0  0  0  0  0  3  0  0  0  0  0  0
  184.9760  177.8230  136.9990 C   0  0  0  0  0  3  0  0  0  0  0  0
  185.2270  176.8340  136.1910 C   0  0  0  0  0  0  0  0  0  0  0  0
  184.2520  173.1070  137.4220 C   0  0  2  0  0  3  0  0  0  0  0  0
  185.7430  173.0500  137.6680 C   0  0  0  0  0  2  0  0  0  0  0  0
  183.7270  171.7140  137.1120 C   0  0  0  0  0  2  0  0  0  0  0  0
  186.3530  174.1600  136.9510 N   0  0  0  0  0  2  0  0  0  0  0  0
  184.0840  173.9730  136.1810 C   0  0  2  0  0  3  0  0  0  0  0  0
  183.4910  173.1140  135.0730 C   0  0  0  0  0  2  0  0  0  0  0  0
  182.7590  170.8060  135.0870 N   0  0  0  0  0  2  0  0  0  0  0  0
  183.3110  171.7880  135.6970 C   0  0  0  0  0  0  0  0  0  0  0  0
  185.4860  174.4040  135.8030 C   0  0  1  0  0  3  0  0  0  0  0  0
  186.6350  178.6630  138.4610 O   0  0  0  0  0  0  0  0  0  0  0  0
  188.4510  178.5340  140.0140 C   0  0  0  0  0  1  0  0  0  0  0  0
  187.6930  177.8530  138.8840 C   0  0  2  0  0  3  0  0  0  0  0  0
  188.5870  177.4820  137.6890 C   0  0  2  0  0  3  0  0  0  0  0  0
  189.8080  176.6630  138.0020 C   0  0  0  0  0  0  0  0  0  0  0  0
  189.7280  175.7230  138.8340 O   0  0  0  0  0  1  0  0  0  0  0  0
  191.0170  176.9170  137.3660 O   0  0  0  0  0  0  0  0  0  0  0  0
  188.7760  178.4950  136.7210 O   0  0  0  0  0  0  0  0  0  0  0  0
  188.5720  177.9560  135.4420 C   0  0  0  0  0  1  0  0  0  0  0  0
  184.6580  177.5460  140.6450 O   0  0  0  0  0  0  0  0  0  0  0  0
  185.9700  178.4180  142.6110 C   0  0  0  0  0  2  0  0  0  0  0  0
  182.9120  179.1750  143.5170 N   0  0  0  0  0  2  0  0  0  0  0  0
  186.1050  177.9440  143.9970 N   0  0  0  0  0  0  0  0  0  0  0  0
  185.0680  178.4300  144.7970 C   0  0  0  0  0  0  0  0  0  0  0  0
  183.3560  178.6040  142.2610 C   0  0  0  0  0  3  0  0  0  0  0  0
  184.3000  178.8480  145.8850 C   0  0  0  0  0  2  0  0  0  0  0  0
  184.6090  178.1760  141.8930 C   0  0  0  0  0  0  0  0  0  0  0  0
  183.7700  178.9380  144.5970 C   0  0  0  0  0  0  0  0  0  0  0  0
  187.3970  177.5740  144.5510 C   0  0  0  0  0  2  0  0  0  0  0  0
  189.7610  178.1320  143.9660 C   0  0  0  0  0  1  0  0  0  0  0  0
  188.4600  177.5370  143.4630 C   0  0  0  0  0  3  0  0  0  0  0  0
  188.7000  176.1010  143.0460 C   0  0  0  0  0  1  0  0  0  0  0  0
  183.1830  178.0140  138.9310 O   0  0  0  0  0  0  0  0  0  0  0  0
  181.2640  179.7340  139.9020 O   0  0  0  0  0  1  0  0  0  0  0  0
  183.5470  180.6140  138.9800 O   0  0  0  0  0  0  0  0  0  0  0  0
  182.4920  179.5540  138.7520 P   0  0  1  0  0  0  0  0  0  0  0  0
  181.8400  179.7000  137.1880 O   0  0  0  0  0  0  0  0  0  0  0  0
  180.4690  179.4380  137.3080 C   0  0  1  0  0  3  0  0  0  0  0  0
  179.1860  181.4780  138.0260 C   0  0  0  0  0  2  0  0  0  0  0  0
  180.4750  181.6030  136.0680 C   0  0  0  0  0  0  0  0  0  0  0  0
  180.6600  182.8390  136.7220 N   0  0  0  0  0  2  0  0  0  0  0  0
  180.9590  181.3680  134.9320 O   0  0  0  0  0  0  0  0  0  0  0  0
  179.0390  183.9130  138.0790 N   0  0  0  0  0  1  0  0  0  0  0  0
  179.6430  180.6410  136.8260 C   0  0  1  0  0  3  0  0  0  0  0  0
  179.9650  182.7990  137.9930 C   0  0  1  0  0  3  0  0  0  0  0  0
  180.1230  178.1940  136.5350 C   0  0  0  0  0  0  0  0  0  0  0  0
  179.2370  178.2380  135.5320 C   0  0  0  0  0  2  0  0  0  0  0  0
  180.1640  176.4260  138.1260 O   0  0  0  0  0  1  0  0  0  0  0  0
  180.7510  176.8970  136.9490 C   0  0  1  0  0  3  0  0  0  0  0  0
  180.6330  175.8510  135.8550 C   0  0  0  0  0  1  0  0  0  0  0  0
  1 37  1  6  0  0  0
  1 24  1  0  0  0  0
  2  4  1  6  0  0  0
  2 15  1  0  0  0  0
  2  1  1  0  0  0  0
  3  5  2  0  0  0  0
  5  4  2  0  0  0  0
  6  8  1  6  0  0  0
  6  7  1  0  0  0  0
  9  7  1  0  0  0  0
 10 11  1  6  0  0  0
 10  6  1  0  0  0  0
 11 13  1  0  0  0  0
 12 13  2  0  0  0  0
 13  8  1  0  0  0  0
 14  3  1  1  0  0  0
 14 10  1  0  0  0  0
 14  9  1  0  0  0  0
 15 17  1  0  0  0  0
 17 16  1  1  0  0  0
 18 22  1  1  0  0  0
 18 19  1  0  0  0  0
 18 17  1  0  0  0  0
 19 20  1  0  0  0  0
 21 19  2  0  0  0  0
 23 22  1  0  0  0  0
 24 31  1  0  0  0  0
 25 27  1  0  0  0  0
 26 32  1  0  0  0  0
 27 33  1  0  0  0  0
 27 28  1  0  0  0  0
 28 30  1  0  0  0  0
 29 26  1  0  0  0  0
 31 29  2  0  0  0  0
 31 25  1  0  0  0  0
 32 28  2  0  0  0  0
 32 30  1  0  0  0  0
 35 34  1  0  0  0  0
 35 33  1  0  0  0  0
 36 35  1  0  0  0  0
 40 37  1  0  0  0  0
 40 39  2  1  0  0  0
 40 38  1  0  0  0  0
 41 42  1  0  0  0  0
 41 40  1  0  0  0  0
 42 50  1  6  0  0  0
 44 45  1  0  0  0  0
 44 48  1  0  0  0  0
 45 49  1  0  0  0  0
 46 44  2  0  0  0  0
 48 42  1  1  0  0  0
 48 43  1  0  0  0  0
 49 43  1  0  0  0  0
 49 47  1  6  0  0  0
 50 53  1  0  0  0  0
 51 50  2  0  0  0  0
 53 54  1  6  0  0  0
 53 52  1  0  0  0  0
M  END
>  <MODEL>
4

>  <REMARK>
 VINA RESULT:      -6.6      2.523      7.510
  Name = 
  19 active torsions:
  status: ('A' for Active; 'I' for Inactive)
    1  A    between atoms: O_3  and  C_45
    2  A    between atoms: O_3  and  C_52
    3  A    between atoms: O_4  and  C_22
    4  A    between atoms: O_4  and  P_50
    5  A    between atoms: N_13  and  C_30
    6  A    between atoms: C_14  and  C_49
    7  A    between atoms: C_15  and  O_21
    8  A    between atoms: C_15  and  C_32
    9  A    between atoms: C_15  and  C_53
   10  A    between atoms: C_20  and  C_48
   11  A    between atoms: O_21  and  P_50
   12  A    between atoms: C_22  and  O_39
   13  A    between atoms: C_22  and  C_45
   14  A    between atoms: C_24  and  C_32
   15  A    between atoms: O_27  and  C_48
   16  A    between atoms: C_28  and  C_45
   17  A    between atoms: C_30  and  C_35
   18  A    between atoms: C_33  and  O_39
   19  A    between atoms: C_48  and  C_52
                            x       y       z     vdW  Elec       q    Type
                         _______ _______ _______ _____ _____    ______ ____

>  <TORSDO>
F 19

$$$$
=
 OpenBabel11062412483D

 54 58  0  0  1  0  0  0  0  0999 V2000
  184.7580  178.6100  141.1500 C   0  0  2  0  0  3  0  0  0  0  0  0
  185.5990  178.7430  142.4230 C   0  0  1  0  0  3  0  0  0  0  0  0
  185.6790  178.0140  145.9410 C   0  0  0  0  0  3  0  0  0  0  0  0
  184.7420  178.8170  143.6420 C   0  0  0  0  0  3  0  0  0  0  0  0
  185.2100  178.4220  144.7900 C   0  0  0  0  0  0  0  0  0  0  0  0
  188.7480  177.0650  147.6390 C   0  0  2  0  0  3  0  0  0  0  0  0
  188.3790  178.3590  148.3290 C   0  0  0  0  0  2  0  0  0  0  0  0
  190.2180  177.0890  147.2510 C   0  0  0  0  0  2  0  0  0  0  0  0
  187.1090  178.8080  147.7800 N   0  0  0  0  0  2  0  0  0  0  0  0
  187.9130  177.0390  146.3650 C   0  0  2  0  0  3  0  0  0  0  0  0
  188.8560  177.0890  145.1720 C   0  0  0  0  0  2  0  0  0  0  0  0
  191.2760  177.0930  145.0740 N   0  0  0  0  0  2  0  0  0  0  0  0
  190.2050  177.1220  145.7740 C   0  0  0  0  0  0  0  0  0  0  0  0
  187.0760  178.3000  146.4120 C   0  0  1  0  0  3  0  0  0  0  0  0
  186.4750  177.6600  142.5250 O   0  0  0  0  0  0  0  0  0  0  0  0
  187.6540  179.6950  142.0810 C   0  0  0  0  0  1  0  0  0  0  0  0
  187.7540  178.2070  142.3810 C   0  0  2  0  0  3  0  0  0  0  0  0
  188.5480  177.4260  141.3190 C   0  0  2  0  0  3  0  0  0  0  0  0
  189.8780  176.8780  141.7540 C   0  0  0  0  0  0  0  0  0  0  0  0
  190.9020  177.6050  141.6820 O   0  0  0  0  0  0  0  0  0  0  0  0
  189.9850  175.5870  142.2550 O   0  0  0  0  0  1  0  0  0  0  0  0
  188.5170  177.9580  140.0090 O   0  0  0  0  0  0  0  0  0  0  0  0
  189.0300  177.0090  139.1130 C   0  0  0  0  0  1  0  0  0  0  0  0
  183.5760  177.8550  141.3950 O   0  0  0  0  0  0  0  0  0  0  0  0
  181.4820  178.4250  140.1150 C   0  0  0  0  0  2  0  0  0  0  0  0
  180.7050  179.5220  143.1040 N   0  0  0  0  0  2  0  0  0  0  0  0
  180.9200  179.7050  139.6610 N   0  0  0  0  0  0  0  0  0  0  0  0
  180.1640  180.3080  140.6690 C   0  0  0  0  0  0  0  0  0  0  0  0
  181.8940  178.8000  142.7000 C   0  0  0  0  0  3  0  0  0  0  0  0
  179.2380  181.0900  141.3620 C   0  0  0  0  0  2  0  0  0  0  0  0
  182.2990  178.4240  141.4420 C   0  0  0  0  0  0  0  0  0  0  0  0
  180.0740  180.2260  142.0710 C   0  0  0  0  0  0  0  0  0  0  0  0
  180.6780  179.9720  138.2520 C   0  0  0  0  0  2  0  0  0  0  0  0
  181.4510  182.3180  137.8860 C   0  0  0  0  0  1  0  0  0  0  0  0
  180.2440  181.4150  138.0430 C   0  0  0  0  0  3  0  0  0  0  0  0
  179.3910  181.5050  136.7950 C   0  0  0  0  0  1  0  0  0  0  0  0
  185.4970  178.0130  140.1220 O   0  0  0  0  0  0  0  0  0  0  0  0
  184.3100  180.2730  139.0900 O   0  0  0  0  0  1  0  0  0  0  0  0
  186.1660  178.9840  137.7760 O   0  0  0  0  0  0  0  0  0  0  0  0
  184.9820  178.7720  138.6940 P   0  0  1  0  0  0  0  0  0  0  0  0
  183.8120  177.8020  137.9300 O   0  0  0  0  0  0  0  0  0  0  0  0
  184.5090  176.9770  137.0370 C   0  0  1  0  0  3  0  0  0  0  0  0
  183.5350  174.7120  137.5320 C   0  0  0  0  0  2  0  0  0  0  0  0
  185.7940  174.8420  136.9040 C   0  0  0  0  0  0  0  0  0  0  0  0
  185.2840  173.7020  136.2490 N   0  0  0  0  0  2  0  0  0  0  0  0
  187.0110  175.1540  136.8560 O   0  0  0  0  0  0  0  0  0  0  0  0
  183.5550  172.3130  137.0880 N   0  0  0  0  0  1  0  0  0  0  0  0
  184.7760  175.6010  137.6670 C   0  0  1  0  0  3  0  0  0  0  0  0
  183.8620  173.6110  136.5160 C   0  0  1  0  0  3  0  0  0  0  0  0
  183.7290  176.8480  135.7570 C   0  0  0  0  0  0  0  0  0  0  0  0
  184.3550  176.6160  134.5960 C   0  0  0  0  0  2  0  0  0  0  0  0
  181.9090  178.3380  135.4020 O   0  0  0  0  0  1  0  0  0  0  0  0
  182.2420  177.0430  135.8010 C   0  0  1  0  0  3  0  0  0  0  0  0
  181.5250  176.0280  134.9280 C   0  0  0  0  0  1  0  0  0  0  0  0
  1 37  1  6  0  0  0
  1 24  1  0  0  0  0
  1  2  1  0  0  0  0
  2 15  1  0  0  0  0
  2  4  1  1  0  0  0
  4  5  2  0  0  0  0
  5  3  2  0  0  0  0
  6  8  1  6  0  0  0
  6  7  1  0  0  0  0
  9  7  1  0  0  0  0
 10 11  1  6  0  0  0
 10 14  1  0  0  0  0
 10  6  1  0  0  0  0
 11 13  1  0  0  0  0
 12 13  2  0  0  0  0
 13  8  1  0  0  0  0
 14  3  1  1  0  0  0
 14  9  1  0  0  0  0
 17 16  1  6  0  0  0
 17 15  1  0  0  0  0
 18 22  1  6  0  0  0
 18 19  1  0  0  0  0
 18 17  1  0  0  0  0
 19 21  1  0  0  0  0
 20 19  2  0  0  0  0
 23 22  1  0  0  0  0
 24 31  1  0  0  0  0
 25 31  1  0  0  0  0
 27 25  1  0  0  0  0
 27 28  1  0  0  0  0
 28 30  1  0  0  0  0
 28 32  2  0  0  0  0
 29 26  1  0  0  0  0
 30 32  1  0  0  0  0
 31 29  2  0  0  0  0
 32 26  1  0  0  0  0
 33 27  1  0  0  0  0
 34 35  1  0  0  0  0
 35 33  1  0  0  0  0
 36 35  1  0  0  0  0
 40 39  2  6  0  0  0
 40 38  1  0  0  0  0
 40 37  1  0  0  0  0
 41 40  1  0  0  0  0
 42 50  1  6  0  0  0
 42 41  1  0  0  0  0
 43 48  1  0  0  0  0
 44 48  1  0  0  0  0
 45 49  1  0  0  0  0
 45 44  1  0  0  0  0
 46 44  2  0  0  0  0
 48 42  1  6  0  0  0
 49 47  1  1  0  0  0
 49 43  1  0  0  0  0
 50 53  1  0  0  0  0
 51 50  2  0  0  0  0
 52 53  1  0  0  0  0
 53 54  1  6  0  0  0
M  END
>  <MODEL>
5

>  <REMARK>
 VINA RESULT:      -6.4      1.984      5.522
  Name = 
  19 active torsions:
  status: ('A' for Active; 'I' for Inactive)
    1  A    between atoms: O_3  and  C_45
    2  A    between atoms: O_3  and  C_52
    3  A    between atoms: O_4  and  C_22
    4  A    between atoms: O_4  and  P_50
    5  A    between atoms: N_13  and  C_30
    6  A    between atoms: C_14  and  C_49
    7  A    between atoms: C_15  and  O_21
    8  A    between atoms: C_15  and  C_32
    9  A    between atoms: C_15  and  C_53
   10  A    between atoms: C_20  and  C_48
   11  A    between atoms: O_21  and  P_50
   12  A    between atoms: C_22  and  O_39
   13  A    between atoms: C_22  and  C_45
   14  A    between atoms: C_24  and  C_32
   15  A    between atoms: O_27  and  C_48
   16  A    between atoms: C_28  and  C_45
   17  A    between atoms: C_30  and  C_35
   18  A    between atoms: C_33  and  O_39
   19  A    between atoms: C_48  and  C_52
                            x       y       z     vdW  Elec       q    Type
                         _______ _______ _______ _____ _____    ______ ____

>  <TORSDO>
F 19

$$$$
=
 OpenBabel11062412483D

 54 58  0  0  1  0  0  0  0  0999 V2000
  187.5160  178.0620  140.9340 C   0  0  2  0  0  3  0  0  0  0  0  0
  188.6020  178.1520  139.8580 C   0  0  1  0  0  3  0  0  0  0  0  0
  191.8810  176.7030  139.6000 C   0  0  0  0  0  3  0  0  0  0  0  0
  189.9640  178.2510  140.4590 C   0  0  0  0  0  3  0  0  0  0  0  0
  190.9230  177.4840  140.0280 C   0  0  0  0  0  0  0  0  0  0  0  0
  193.0330  174.5190  136.9350 C   0  0  2  0  0  3  0  0  0  0  0  0
  193.7670  175.8080  136.6420 C   0  0  0  0  0  2  0  0  0  0  0  0
  192.3980  173.9870  135.6600 C   0  0  0  0  0  2  0  0  0  0  0  0
  193.4410  176.7540  137.6980 N   0  0  0  0  0  2  0  0  0  0  0  0
  191.9210  174.9030  137.9030 C   0  0  2  0  0  3  0  0  0  0  0  0
  190.5830  174.6520  137.2230 C   0  0  0  0  0  2  0  0  0  0  0  0
  190.0700  173.7100  135.0520 N   0  0  0  0  0  2  0  0  0  0  0  0
  190.9450  174.1140  135.8960 C   0  0  0  0  0  0  0  0  0  0  0  0
  192.1030  176.3870  138.1500 C   0  0  1  0  0  3  0  0  0  0  0  0
  188.5330  177.0330  139.0230 O   0  0  0  0  0  0  0  0  0  0  0  0
  188.7660  179.0060  137.6890 C   0  0  0  0  0  1  0  0  0  0  0  0
  188.3410  177.5460  137.7370 C   0  0  2  0  0  3  0  0  0  0  0  0
  186.8870  177.3210  137.2880 C   0  0  2  0  0  3  0  0  0  0  0  0
  186.4330  175.8920  137.1970 C   0  0  0  0  0  0  0  0  0  0  0  0
  185.2030  175.6300  137.1920 O   0  0  0  0  0  1  0  0  0  0  0  0
  187.3560  174.8580  137.0960 O   0  0  0  0  0  0  0  0  0  0  0  0
  186.4230  178.1660  136.2530 O   0  0  0  0  0  0  0  0  0  0  0  0
  186.9110  177.7000  135.0230 C   0  0  0  0  0  1  0  0  0  0  0  0
  187.9080  177.1840  141.9830 O   0  0  0  0  0  0  0  0  0  0  0  0
  189.2330  178.2640  143.8340 C   0  0  0  0  0  2  0  0  0  0  0  0
  186.4540  177.5220  145.4070 N   0  0  0  0  0  2  0  0  0  0  0  0
  189.8830  177.7140  145.0330 N   0  0  0  0  0  0  0  0  0  0  0  0
  188.9770  177.6040  146.0900 C   0  0  0  0  0  0  0  0  0  0  0  0
  186.7520  177.3650  143.9970 C   0  0  0  0  0  3  0  0  0  0  0  0
  188.4090  177.5090  147.3620 C   0  0  0  0  0  2  0  0  0  0  0  0
  187.9370  177.5630  143.3300 C   0  0  0  0  0  0  0  0  0  0  0  0
  187.5790  177.5330  146.2390 C   0  0  0  0  0  0  0  0  0  0  0  0
  191.3130  177.8590  145.2560 C   0  0  0  0  0  2  0  0  0  0  0  0
  191.8920  175.7290  146.4250 C   0  0  0  0  0  1  0  0  0  0  0  0
  192.0170  176.5150  145.1350 C   0  0  0  0  0  3  0  0  0  0  0  0
  191.3880  175.7220  144.0080 C   0  0  0  0  0  1  0  0  0  0  0  0
  186.3020  177.6310  140.3860 O   0  0  0  0  0  0  0  0  0  0  0  0
  185.7830  179.7970  142.0040 O   0  0  0  0  0  1  0  0  0  0  0  0
  185.0240  179.7480  139.5030 O   0  0  0  0  0  0  0  0  0  0  0  0
  185.1890  178.8670  140.7220 P   0  0  1  0  0  0  0  0  0  0  0  0
  183.6960  178.1780  141.1560 O   0  0  0  0  0  0  0  0  0  0  0  0
  182.8340  178.3940  140.0710 C   0  0  1  0  0  3  0  0  0  0  0  0
  181.3920  176.3440  139.8690 C   0  0  0  0  0  2  0  0  0  0  0  0
  182.1820  177.3520  137.9000 C   0  0  0  0  0  0  0  0  0  0  0  0
  180.8520  176.9720  137.6230 N   0  0  0  0  0  2  0  0  0  0  0  0
  182.9350  177.8440  137.0220 O   0  0  0  0  0  0  0  0  0  0  0  0
  179.7530  175.0930  138.5650 N   0  0  0  0  0  1  0  0  0  0  0  0
  182.6030  177.0880  139.2950 C   0  0  1  0  0  3  0  0  0  0  0  0
  180.2660  176.4240  138.8310 C   0  0  1  0  0  3  0  0  0  0  0  0
  181.5360  178.9720  140.5670 C   0  0  0  0  0  0  0  0  0  0  0  0
  181.0360  178.6080  141.7540 C   0  0  0  0  0  2  0  0  0  0  0  0
  180.0000  180.7830  140.4390 O   0  0  0  0  0  1  0  0  0  0  0  0
  180.7890  179.9200  139.6770 C   0  0  1  0  0  3  0  0  0  0  0  0
  181.7360  180.7190  138.8000 C   0  0  0  0  0  1  0  0  0  0  0  0
  1 37  1  6  0  0  0
  1 24  1  0  0  0  0
  2  4  1  1  0  0  0
  2  1  1  0  0  0  0
  3  5  2  0  0  0  0
  5  4  2  0  0  0  0
  6  8  1  6  0  0  0
  6 10  1  0  0  0  0
  7  6  1  0  0  0  0
  7  9  1  0  0  0  0
  8 13  1  0  0  0  0
  9 14  1  0  0  0  0
 10 11  1  6  0  0  0
 10 14  1  0  0  0  0
 12 13  2  0  0  0  0
 13 11  1  0  0  0  0
 14  3  1  1  0  0  0
 15  2  1  0  0  0  0
 17 16  1  1  0  0  0
 17 15  1  0  0  0  0
 18 22  1  6  0  0  0
 18 17  1  0  0  0  0
 19 18  1  0  0  0  0
 20 19  1  0  0  0  0
 21 19  2  0  0  0  0
 23 22  1  0  0  0  0
 24 31  1  0  0  0  0
 25 27  1  0  0  0  0
 26 32  1  0  0  0  0
 27 33  1  0  0  0  0
 27 28  1  0  0  0  0
 28 32  2  0  0  0  0
 28 30  1  0  0  0  0
 29 26  1  0  0  0  0
 31 25  1  0  0  0  0
 31 29  2  0  0  0  0
 32 30  1  0  0  0  0
 35 33  1  0  0  0  0
 35 34  1  0  0  0  0
 36 35  1  0  0  0  0
 37 40  1  0  0  0  0
 40 39  2  6  0  0  0
 40 41  1  0  0  0  0
 40 38  1  0  0  0  0
 42 50  1  1  0  0  0
 42 41  1  0  0  0  0
 44 48  1  0  0  0  0
 45 44  1  0  0  0  0
 45 49  1  0  0  0  0
 46 44  2  0  0  0  0
 48 43  1  0  0  0  0
 48 42  1  1  0  0  0
 49 47  1  6  0  0  0
 49 43  1  0  0  0  0
 50 51  2  0  0  0  0
 53 54  1  1  0  0  0
 53 52  1  0  0  0  0
 53 50  1  0  0  0  0
M  END
>  <MODEL>
6

>  <REMARK>
 VINA RESULT:      -6.3      2.461      7.445
  Name = 
  19 active torsions:
  status: ('A' for Active; 'I' for Inactive)
    1  A    between atoms: O_3  and  C_45
    2  A    between atoms: O_3  and  C_52
    3  A    between atoms: O_4  and  C_22
    4  A    between atoms: O_4  and  P_50
    5  A    between atoms: N_13  and  C_30
    6  A    between atoms: C_14  and  C_49
    7  A    between atoms: C_15  and  O_21
    8  A    between atoms: C_15  and  C_32
    9  A    between atoms: C_15  and  C_53
   10  A    between atoms: C_20  and  C_48
   11  A    between atoms: O_21  and  P_50
   12  A    between atoms: C_22  and  O_39
   13  A    between atoms: C_22  and  C_45
   14  A    between atoms: C_24  and  C_32
   15  A    between atoms: O_27  and  C_48
   16  A    between atoms: C_28  and  C_45
   17  A    between atoms: C_30  and  C_35
   18  A    between atoms: C_33  and  O_39
   19  A    between atoms: C_48  and  C_52
                            x       y       z     vdW  Elec       q    Type
                         _______ _______ _______ _____ _____    ______ ____

>  <TORSDO>
F 19

$$$$
=
 OpenBabel11062412483D

 54 58  0  0  1  0  0  0  0  0999 V2000
  184.8830  178.4640  139.4040 C   0  0  2  0  0  3  0  0  0  0  0  0
  183.3720  178.2190  139.4320 C   0  0  1  0  0  3  0  0  0  0  0  0
  181.0070  175.5130  139.4980 C   0  0  0  0  0  3  0  0  0  0  0  0
  183.0270  176.9990  140.2180 C   0  0  0  0  0  3  0  0  0  0  0  0
  182.0230  176.2540  139.8570 C   0  0  0  0  0  0  0  0  0  0  0  0
  182.0130  174.5380  136.1460 C   0  0  2  0  0  3  0  0  0  0  0  0
  181.2070  175.7920  135.8930 C   0  0  0  0  0  2  0  0  0  0  0  0
  181.5710  173.4410  135.1900 C   0  0  0  0  0  2  0  0  0  0  0  0
  180.8040  176.3270  137.1850 N   0  0  0  0  0  2  0  0  0  0  0  0
  181.6580  174.1130  137.5650 C   0  0  2  0  0  3  0  0  0  0  0  0
  180.9530  172.7650  137.5010 C   0  0  0  0  0  2  0  0  0  0  0  0
  180.4810  171.3210  135.6160 N   0  0  0  0  0  2  0  0  0  0  0  0
  180.9340  172.4320  136.0620 C   0  0  0  0  0  0  0  0  0  0  0  0
  180.6990  175.1710  138.0690 C   0  0  1  0  0  3  0  0  0  0  0  0
  182.7230  179.3310  139.9740 O   0  0  0  0  0  0  0  0  0  0  0  0
  181.8290  180.4260  138.0420 C   0  0  0  0  0  1  0  0  0  0  0  0
  181.5620  179.4880  139.2110 C   0  0  2  0  0  3  0  0  0  0  0  0
  180.3980  179.9490  140.1050 C   0  0  2  0  0  3  0  0  0  0  0  0
  180.4030  179.4370  141.5180 C   0  0  0  0  0  0  0  0  0  0  0  0
  180.7450  180.2030  142.4550 O   0  0  0  0  0  1  0  0  0  0  0  0
  180.0140  178.1340  141.8030 O   0  0  0  0  0  0  0  0  0  0  0  0
  179.1270  179.9970  139.4870 O   0  0  0  0  0  0  0  0  0  0  0  0
  178.9320  178.8250  138.7410 C   0  0  0  0  0  1  0  0  0  0  0  0
  185.2580  179.4510  140.3580 O   0  0  0  0  0  0  0  0  0  0  0  0
  187.2660  178.8390  141.7500 C   0  0  0  0  0  2  0  0  0  0  0  0
  184.9200  178.9130  144.0380 N   0  0  0  0  0  2  0  0  0  0  0  0
  187.6650  177.5880  142.4110 N   0  0  0  0  0  0  0  0  0  0  0  0
  187.0740  177.4750  143.6710 C   0  0  0  0  0  0  0  0  0  0  0  0
  184.8120  179.2640  142.6360 C   0  0  0  0  0  3  0  0  0  0  0  0
  186.7960  177.1200  144.9930 C   0  0  0  0  0  2  0  0  0  0  0  0
  185.7420  179.1410  141.6330 C   0  0  0  0  0  0  0  0  0  0  0  0
  185.9590  178.0220  144.3340 C   0  0  0  0  0  0  0  0  0  0  0  0
  188.9150  176.9200  142.0830 C   0  0  0  0  0  2  0  0  0  0  0  0
  190.4050  178.0950  143.7080 C   0  0  0  0  0  1  0  0  0  0  0  0
  190.0920  177.8720  142.2410 C   0  0  0  0  0  3  0  0  0  0  0  0
  191.3080  177.2800  141.5590 C   0  0  0  0  0  1  0  0  0  0  0  0
  185.3040  178.8550  138.1270 O   0  0  0  0  0  0  0  0  0  0  0  0
  185.1450  176.1070  138.1140 O   0  0  0  0  0  1  0  0  0  0  0  0
  183.7490  177.5640  136.4520 O   0  0  0  0  0  0  0  0  0  0  0  0
  185.0930  177.4900  137.1410 P   0  0  1  0  0  0  0  0  0  0  0  0
  186.3430  177.4300  135.9890 O   0  0  0  0  0  0  0  0  0  0  0  0
  187.2480  176.4610  136.4430 C   0  0  1  0  0  3  0  0  0  0  0  0
  188.4590  174.3300  135.8860 C   0  0  0  0  0  2  0  0  0  0  0  0
  186.2440  174.5800  135.1490 C   0  0  0  0  0  0  0  0  0  0  0  0
  186.3520  173.2390  135.5730 N   0  0  0  0  0  2  0  0  0  0  0  0
  185.2020  175.0290  134.6070 O   0  0  0  0  0  0  0  0  0  0  0  0
  188.3270  171.9320  135.4520 N   0  0  0  0  0  1  0  0  0  0  0  0
  187.4690  175.3810  135.3730 C   0  0  1  0  0  3  0  0  0  0  0  0
  187.6740  173.0360  136.1320 C   0  0  1  0  0  3  0  0  0  0  0  0
  188.5450  177.1240  136.8250 C   0  0  0  0  0  0  0  0  0  0  0  0
  189.3740  177.5930  135.8850 C   0  0  0  0  0  2  0  0  0  0  0  0
  190.0760  176.4660  138.5220 O   0  0  0  0  0  1  0  0  0  0  0  0
  188.9110  177.1960  138.2780 C   0  0  1  0  0  3  0  0  0  0  0  0
  189.0930  178.6340  138.7320 C   0  0  0  0  0  1  0  0  0  0  0  0
  1 37  1  6  0  0  0
  1  2  1  0  0  0  0
  1 24  1  0  0  0  0
  2 15  1  0  0  0  0
  2  4  1  1  0  0  0
  3  5  2  0  0  0  0
  5  4  2  0  0  0  0
  6  8  1  6  0  0  0
  6 10  1  0  0  0  0
  7  6  1  0  0  0  0
  7  9  1  0  0  0  0
  8 13  1  0  0  0  0
  9 14  1  0  0  0  0
 10 11  1  6  0  0  0
 10 14  1  0  0  0  0
 12 13  2  0  0  0  0
 13 11  1  0  0  0  0
 14  3  1  1  0  0  0
 17 16  1  6  0  0  0
 17 15  1  0  0  0  0
 17 18  1  0  0  0  0
 18 22  1  6  0  0  0
 18 19  1  0  0  0  0
 19 21  2  0  0  0  0
 19 20  1  0  0  0  0
 23 22  1  0  0  0  0
 24 31  1  0  0  0  0
 25 27  1  0  0  0  0
 26 32  1  0  0  0  0
 27 28  1  0  0  0  0
 28 32  2  0  0  0  0
 28 30  1  0  0  0  0
 29 26  1  0  0  0  0
 31 25  1  0  0  0  0
 31 29  2  0  0  0  0
 32 30  1  0  0  0  0
 33 35  1  0  0  0  0
 33 27  1  0  0  0  0
 35 34  1  0  0  0  0
 36 35  1  0  0  0  0
 40 39  2  6  0  0  0
 40 38  1  0  0  0  0
 40 37  1  0  0  0  0
 41 40  1  0  0  0  0
 42 41  1  6  0  0  0
 42 50  1  0  0  0  0
 43 49  1  0  0  0  0
 44 48  1  0  0  0  0
 44 45  1  0  0  0  0
 45 49  1  0  0  0  0
 46 44  2  0  0  0  0
 48 43  1  0  0  0  0
 48 42  1  1  0  0  0
 49 47  1  6  0  0  0
 50 53  1  0  0  0  0
 51 50  2  0  0  0  0
 53 52  1  0  0  0  0
 53 54  1  6  0  0  0
M  END
>  <MODEL>
7

>  <REMARK>
 VINA RESULT:      -6.3      2.385      8.955
  Name = 
  19 active torsions:
  status: ('A' for Active; 'I' for Inactive)
    1  A    between atoms: O_3  and  C_45
    2  A    between atoms: O_3  and  C_52
    3  A    between atoms: O_4  and  C_22
    4  A    between atoms: O_4  and  P_50
    5  A    between atoms: N_13  and  C_30
    6  A    between atoms: C_14  and  C_49
    7  A    between atoms: C_15  and  O_21
    8  A    between atoms: C_15  and  C_32
    9  A    between atoms: C_15  and  C_53
   10  A    between atoms: C_20  and  C_48
   11  A    between atoms: O_21  and  P_50
   12  A    between atoms: C_22  and  O_39
   13  A    between atoms: C_22  and  C_45
   14  A    between atoms: C_24  and  C_32
   15  A    between atoms: O_27  and  C_48
   16  A    between atoms: C_28  and  C_45
   17  A    between atoms: C_30  and  C_35
   18  A    between atoms: C_33  and  O_39
   19  A    between atoms: C_48  and  C_52
                            x       y       z     vdW  Elec       q    Type
                         _______ _______ _______ _____ _____    ______ ____

>  <TORSDO>
F 19

$$$$
=
 OpenBabel11062412483D

 54 58  0  0  1  0  0  0  0  0999 V2000
  184.6710  178.6880  141.0650 C   0  0  2  0  0  3  0  0  0  0  0  0
  185.9580  178.9340  141.8570 C   0  0  1  0  0  3  0  0  0  0  0  0
  186.4990  177.4200  145.0710 C   0  0  0  0  0  3  0  0  0  0  0  0
  185.6790  179.1570  143.3050 C   0  0  0  0  0  3  0  0  0  0  0  0
  186.0920  178.2940  144.1880 C   0  0  0  0  0  0  0  0  0  0  0  0
  190.0720  177.4670  144.4110 C   0  0  2  0  0  3  0  0  0  0  0  0
  189.5990  176.3030  143.5710 C   0  0  0  0  0  2  0  0  0  0  0  0
  191.2970  177.0590  145.2140 C   0  0  0  0  0  2  0  0  0  0  0  0
  188.1520  176.2250  143.6940 N   0  0  0  0  0  2  0  0  0  0  0  0
  188.9320  177.7480  145.3820 C   0  0  2  0  0  3  0  0  0  0  0  0
  189.4260  177.4770  146.7950 C   0  0  0  0  0  2  0  0  0  0  0  0
  191.6140  176.8270  147.6030 N   0  0  0  0  0  2  0  0  0  0  0  0
  190.8340  177.0690  146.6170 C   0  0  0  0  0  0  0  0  0  0  0  0
  187.8450  176.7570  145.0180 C   0  0  1  0  0  3  0  0  0  0  0  0
  186.8220  177.8470  141.7030 O   0  0  0  0  0  0  0  0  0  0  0  0
  187.9750  179.9260  141.4260 C   0  0  0  0  0  1  0  0  0  0  0  0
  188.0730  178.4080  141.4260 C   0  0  2  0  0  3  0  0  0  0  0  0
  188.6310  177.8360  140.1110 C   0  0  2  0  0  3  0  0  0  0  0  0
  189.9670  177.1550  140.1970 C   0  0  0  0  0  0  0  0  0  0  0  0
  190.1140  176.0100  139.6970 O   0  0  0  0  0  0  0  0  0  0  0  0
  191.0480  177.7840  140.8020 O   0  0  0  0  0  1  0  0  0  0  0  0
  188.4350  178.6320  138.9590 O   0  0  0  0  0  0  0  0  0  0  0  0
  189.4420  178.3490  138.0250 C   0  0  0  0  0  1  0  0  0  0  0  0
  183.6510  178.1530  141.9020 O   0  0  0  0  0  0  0  0  0  0  0  0
  181.5570  178.5020  140.5450 C   0  0  0  0  0  2  0  0  0  0  0  0
  180.6030  179.6380  143.4680 N   0  0  0  0  0  2  0  0  0  0  0  0
  180.9060  179.7140  140.0270 N   0  0  0  0  0  0  0  0  0  0  0  0
  180.0740  180.2880  140.9910 C   0  0  0  0  0  0  0  0  0  0  0  0
  181.8590  179.0030  143.1240 C   0  0  0  0  0  3  0  0  0  0  0  0
  179.0660  181.0150  141.6280 C   0  0  0  0  0  2  0  0  0  0  0  0
  182.3310  178.6160  141.8920 C   0  0  0  0  0  0  0  0  0  0  0  0
  179.9480  180.2490  142.3920 C   0  0  0  0  0  0  0  0  0  0  0  0
  180.6850  179.9090  138.6030 C   0  0  0  0  0  2  0  0  0  0  0  0
  181.4290  182.2500  138.1520 C   0  0  0  0  0  1  0  0  0  0  0  0
  180.2330  181.3340  138.3170 C   0  0  0  0  0  3  0  0  0  0  0  0
  179.4140  181.3520  137.0440 C   0  0  0  0  0  1  0  0  0  0  0  0
  184.9020  177.8230  139.9890 O   0  0  0  0  0  0  0  0  0  0  0  0
  184.0630  180.2670  139.0390 O   0  0  0  0  0  1  0  0  0  0  0  0
  186.0800  179.0010  137.9600 O   0  0  0  0  0  0  0  0  0  0  0  0
  184.7260  178.7740  138.5950 P   0  0  1  0  0  0  0  0  0  0  0  0
  183.6870  177.9870  137.5030 O   0  0  0  0  0  0  0  0  0  0  0  0
  184.1420  176.6640  137.4130 C   0  0  1  0  0  3  0  0  0  0  0  0
  182.5990  175.1170  138.6550 C   0  0  0  0  0  2  0  0  0  0  0  0
  181.7160  176.3960  136.8960 C   0  0  0  0  0  0  0  0  0  0  0  0
  180.7310  176.4110  137.9040 N   0  0  0  0  0  2  0  0  0  0  0  0
  181.5280  176.9180  135.7670 O   0  0  0  0  0  0  0  0  0  0  0  0
  180.3370  174.6490  139.4420 N   0  0  0  0  0  1  0  0  0  0  0  0
  182.9600  175.6920  137.2820 C   0  0  1  0  0  3  0  0  0  0  0  0
  181.2470  175.7150  139.0660 C   0  0  1  0  0  3  0  0  0  0  0  0
  185.0880  176.5350  136.2500 C   0  0  0  0  0  0  0  0  0  0  0  0
  184.8430  177.1700  135.0970 C   0  0  0  0  0  2  0  0  0  0  0  0
  186.9440  175.8930  137.5910 O   0  0  0  0  0  1  0  0  0  0  0  0
  186.2790  175.6340  136.3920 C   0  0  1  0  0  3  0  0  0  0  0  0
  185.8770  174.1710  136.3250 C   0  0  0  0  0  1  0  0  0  0  0  0
  1 37  1  6  0  0  0
  1  2  1  0  0  0  0
  1 24  1  0  0  0  0
  2  4  1  1  0  0  0
  4  5  2  0  0  0  0
  5  3  2  0  0  0  0
  6  7  1  6  0  0  0
  6  8  1  0  0  0  0
  6 10  1  0  0  0  0
  7  9  1  0  0  0  0
  8 13  1  0  0  0  0
  9 14  1  0  0  0  0
 10 11  1  1  0  0  0
 13 11  1  0  0  0  0
 13 12  2  0  0  0  0
 14  3  1  6  0  0  0
 14 10  1  0  0  0  0
 15  2  1  0  0  0  0
 17 16  1  6  0  0  0
 17 15  1  0  0  0  0
 18 22  1  6  0  0  0
 18 19  1  0  0  0  0
 18 17  1  0  0  0  0
 19 21  1  0  0  0  0
 20 19  2  0  0  0  0
 23 22  1  0  0  0  0
 25 31  1  0  0  0  0
 27 25  1  0  0  0  0
 27 28  1  0  0  0  0
 28 30  1  0  0  0  0
 28 32  2  0  0  0  0
 29 26  1  0  0  0  0
 30 32  1  0  0  0  0
 31 24  1  0  0  0  0
 31 29  2  0  0  0  0
 32 26  1  0  0  0  0
 33 27  1  0  0  0  0
 34 35  1  0  0  0  0
 35 33  1  0  0  0  0
 36 35  1  0  0  0  0
 40 39  2  6  0  0  0
 40 38  1  0  0  0  0
 40 37  1  0  0  0  0
 41 40  1  0  0  0  0
 42 50  1  6  0  0  0
 42 41  1  0  0  0  0
 43 49  1  0  0  0  0
 44 48  1  0  0  0  0
 44 45  1  0  0  0  0
 45 49  1  0  0  0  0
 46 44  2  0  0  0  0
 48 42  1  1  0  0  0
 48 43  1  0  0  0  0
 49 47  1  6  0  0  0
 50 53  1  0  0  0  0
 51 50  2  0  0  0  0
 53 54  1  1  0  0  0
 53 52  1  0  0  0  0
M  END
>  <MODEL>
8

>  <REMARK>
 VINA RESULT:      -6.2      2.230      5.676
  Name = 
  19 active torsions:
  status: ('A' for Active; 'I' for Inactive)
    1  A    between atoms: O_3  and  C_45
    2  A    between atoms: O_3  and  C_52
    3  A    between atoms: O_4  and  C_22
    4  A    between atoms: O_4  and  P_50
    5  A    between atoms: N_13  and  C_30
    6  A    between atoms: C_14  and  C_49
    7  A    between atoms: C_15  and  O_21
    8  A    between atoms: C_15  and  C_32
    9  A    between atoms: C_15  and  C_53
   10  A    between atoms: C_20  and  C_48
   11  A    between atoms: O_21  and  P_50
   12  A    between atoms: C_22  and  O_39
   13  A    between atoms: C_22  and  C_45
   14  A    between atoms: C_24  and  C_32
   15  A    between atoms: O_27  and  C_48
   16  A    between atoms: C_28  and  C_45
   17  A    between atoms: C_30  and  C_35
   18  A    between atoms: C_33  and  O_39
   19  A    between atoms: C_48  and  C_52
                            x       y       z     vdW  Elec       q    Type
                         _______ _______ _______ _____ _____    ______ ____

>  <TORSDO>
F 19

$$$$
=
 OpenBabel11062412483D

 54 58  0  0  1  0  0  0  0  0999 V2000
  186.8660  178.2540  140.1680 C   0  0  2  0  0  3  0  0  0  0  0  0
  187.7310  178.3250  138.9070 C   0  0  1  0  0  3  0  0  0  0  0  0
  190.9860  176.8020  138.8250 C   0  0  0  0  0  3  0  0  0  0  0  0
  189.1570  178.6170  139.2340 C   0  0  0  0  0  3  0  0  0  0  0  0
  190.0710  177.7150  139.0250 C   0  0  0  0  0  0  0  0  0  0  0  0
  192.4600  175.7520  135.6740 C   0  0  2  0  0  3  0  0  0  0  0  0
  191.0220  176.0190  135.2890 C   0  0  0  0  0  2  0  0  0  0  0  0
  192.9020  174.4100  135.1120 C   0  0  0  0  0  2  0  0  0  0  0  0
  190.3340  176.5230  136.4680 N   0  0  0  0  0  2  0  0  0  0  0  0
  192.4570  175.6620  137.1940 C   0  0  2  0  0  3  0  0  0  0  0  0
  192.8590  174.2490  137.5920 C   0  0  0  0  0  2  0  0  0  0  0  0
  193.5360  172.3610  136.2360 N   0  0  0  0  0  2  0  0  0  0  0  0
  193.1030  173.5640  136.3070 C   0  0  0  0  0  0  0  0  0  0  0  0
  191.0240  175.9250  137.6070 C   0  0  1  0  0  3  0  0  0  0  0  0
  187.6440  177.1190  138.2070 O   0  0  0  0  0  0  0  0  0  0  0  0
  186.8440  178.8710  136.7870 C   0  0  0  0  0  1  0  0  0  0  0  0
  187.4610  177.4830  136.8690 C   0  0  2  0  0  3  0  0  0  0  0  0
  186.6400  176.4080  136.1350 C   0  0  2  0  0  3  0  0  0  0  0  0
  185.1550  176.4420  136.3550 C   0  0  0  0  0  0  0  0  0  0  0  0
  184.6610  175.8550  137.3520 O   0  0  0  0  0  1  0  0  0  0  0  0
  184.3220  177.1320  135.4830 O   0  0  0  0  0  0  0  0  0  0  0  0
  187.2130  175.1160  136.0930 O   0  0  0  0  0  0  0  0  0  0  0  0
  187.2760  174.6820  134.7600 C   0  0  0  0  0  1  0  0  0  0  0  0
  187.4980  177.4740  141.1780 O   0  0  0  0  0  0  0  0  0  0  0  0
  188.8720  178.5810  142.9770 C   0  0  0  0  0  2  0  0  0  0  0  0
  186.1490  177.8360  144.6420 N   0  0  0  0  0  2  0  0  0  0  0  0
  189.5640  178.0470  144.1600 N   0  0  0  0  0  0  0  0  0  0  0  0
  188.6920  177.9410  145.2450 C   0  0  0  0  0  0  0  0  0  0  0  0
  186.4040  177.6670  143.2260 C   0  0  0  0  0  3  0  0  0  0  0  0
  188.1640  177.8540  146.5350 C   0  0  0  0  0  2  0  0  0  0  0  0
  187.5660  177.8660  142.5190 C   0  0  0  0  0  0  0  0  0  0  0  0
  187.3000  177.8620  145.4390 C   0  0  0  0  0  0  0  0  0  0  0  0
  190.9990  178.2040  144.3360 C   0  0  0  0  0  2  0  0  0  0  0  0
  191.6810  176.3700  145.8900 C   0  0  0  0  0  1  0  0  0  0  0  0
  191.6790  176.8470  144.4510 C   0  0  0  0  0  3  0  0  0  0  0  0
  190.9360  175.8420  143.5950 C   0  0  0  0  0  1  0  0  0  0  0  0
  185.6040  177.7210  139.8810 O   0  0  0  0  0  0  0  0  0  0  0  0
  184.9970  179.7500  141.6410 O   0  0  0  0  0  1  0  0  0  0  0  0
  184.4730  179.9540  139.0870 O   0  0  0  0  0  0  0  0  0  0  0  0
  184.4990  178.9610  140.2290 P   0  0  1  0  0  0  0  0  0  0  0  0
  182.9530  178.2900  140.4610 O   0  0  0  0  0  0  0  0  0  0  0  0
  182.1270  179.3430  140.8760 C   0  0  1  0  0  3  0  0  0  0  0  0
  181.2130  180.8580  139.0900 C   0  0  0  0  0  2  0  0  0  0  0  0
  180.9940  178.5380  138.8040 C   0  0  0  0  0  0  0  0  0  0  0  0
  181.3180  179.0470  137.5290 N   0  0  0  0  0  2  0  0  0  0  0  0
  180.7170  177.3260  138.9910 O   0  0  0  0  0  0  0  0  0  0  0  0
  180.7030  181.1930  136.7270 N   0  0  0  0  0  1  0  0  0  0  0  0
  180.9830  179.5620  139.8740 C   0  0  1  0  0  3  0  0  0  0  0  0
  181.5620  180.4710  137.6480 C   0  0  1  0  0  3  0  0  0  0  0  0
  181.5970  179.0540  142.2540 C   0  0  0  0  0  0  0  0  0  0  0  0
  182.4280  178.9620  143.3000 C   0  0  0  0  0  2  0  0  0  0  0  0
  179.8410  177.4520  142.3470 O   0  0  0  0  0  1  0  0  0  0  0  0
  180.1250  178.8170  142.4200 C   0  0  1  0  0  3  0  0  0  0  0  0
  179.6180  179.3840  143.7340 C   0  0  0  0  0  1  0  0  0  0  0  0
  1 37  1  6  0  0  0
  1 24  1  0  0  0  0
  2  4  1  1  0  0  0
  2  1  1  0  0  0  0
  3  5  2  0  0  0  0
  5  4  2  0  0  0  0
  6  8  1  6  0  0  0
  6 10  1  0  0  0  0
  7  6  1  0  0  0  0
  7  9  1  0  0  0  0
  8 13  1  0  0  0  0
  9 14  1  0  0  0  0
 10 11  1  6  0  0  0
 10 14  1  0  0  0  0
 12 13  2  0  0  0  0
 13 11  1  0  0  0  0
 14  3  1  1  0  0  0
 15  2  1  0  0  0  0
 17 16  1  1  0  0  0
 17 15  1  0  0  0  0
 18 22  1  1  0  0  0
 18 19  1  0  0  0  0
 18 17  1  0  0  0  0
 19 20  1  0  0  0  0
 21 19  2  0  0  0  0
 23 22  1  0  0  0  0
 24 31  1  0  0  0  0
 25 27  1  0  0  0  0
 26 32  1  0  0  0  0
 27 33  1  0  0  0  0
 27 28  1  0  0  0  0
 28 32  2  0  0  0  0
 28 30  1  0  0  0  0
 29 26  1  0  0  0  0
 31 25  1  0  0  0  0
 31 29  2  0  0  0  0
 32 30  1  0  0  0  0
 33 35  1  0  0  0  0
 35 34  1  0  0  0  0
 36 35  1  0  0  0  0
 37 40  1  0  0  0  0
 40 39  2  6  0  0  0
 40 41  1  0  0  0  0
 40 38  1  0  0  0  0
 42 41  1  6  0  0  0
 42 50  1  0  0  0  0
 43 48  1  0  0  0  0
 44 46  2  0  0  0  0
 44 48  1  0  0  0  0
 45 49  1  0  0  0  0
 45 44  1  0  0  0  0
 48 42  1  1  0  0  0
 49 47  1  6  0  0  0
 49 43  1  0  0  0  0
 50 53  1  0  0  0  0
 50 51  2  0  0  0  0
 52 53  1  0  0  0  0
 53 54  1  1  0  0  0
M  END
>  <MODEL>
9

>  <REMARK>
 VINA RESULT:      -6.1      2.714      7.597
  Name = 
  19 active torsions:
  status: ('A' for Active; 'I' for Inactive)
    1  A    between atoms: O_3  and  C_45
    2  A    between atoms: O_3  and  C_52
    3  A    between atoms: O_4  and  C_22
    4  A    between atoms: O_4  and  P_50
    5  A    between atoms: N_13  and  C_30
    6  A    between atoms: C_14  and  C_49
    7  A    between atoms: C_15  and  O_21
    8  A    between atoms: C_15  and  C_32
    9  A    between atoms: C_15  and  C_53
   10  A    between atoms: C_20  and  C_48
   11  A    between atoms: O_21  and  P_50
   12  A    between atoms: C_22  and  O_39
   13  A    between atoms: C_22  and  C_45
   14  A    between atoms: C_24  and  C_32
   15  A    between atoms: O_27  and  C_48
   16  A    between atoms: C_28  and  C_45
   17  A    between atoms: C_30  and  C_35
   18  A    between atoms: C_33  and  O_39
   19  A    between atoms: C_48  and  C_52
                            x       y       z     vdW  Elec       q    Type
                         _______ _______ _______ _____ _____    ______ ____

>  <TORSDO>
F 19

$$$$
