=
 OpenBabel11062414433D

 27 31  0  0  1  0  0  0  0  0999 V2000
  190.1560  177.2880  143.9730 C   0  0  0  0  0  0  0  0  0  0  0  0
  188.4340  177.2940  145.7200 C   0  0  0  0  0  0  0  0  0  0  0  0
  186.0760  178.3840  145.8880 C   0  0  0  0  0  2  0  0  0  0  0  0
  191.1430  177.1540  144.9530 C   0  0  0  0  0  3  0  0  0  0  0  0
  188.7910  177.3740  144.3310 C   0  0  0  0  0  0  0  0  0  0  0  0
  190.2560  177.5270  140.4350 O   0  0  0  0  0  0  0  0  0  0  0  0
  187.7800  177.6120  143.2410 C   0  0  0  0  0  0  0  0  0  0  0  0
  188.1160  177.6160  141.7670 C   0  0  0  0  0  2  0  0  0  0  0  0
  189.5930  177.5060  141.5620 C   0  0  0  0  0  0  0  0  0  0  0  0
  191.5310  177.4020  140.6890 N   0  0  0  0  0  0  0  0  0  0  0  0
  190.7980  177.0930  146.3020 C   0  0  0  0  0  0  0  0  0  0  0  0
  191.7340  177.2950  141.9980 N   0  0  0  0  0  0  0  0  0  0  0  0
  187.0070  177.2020  146.2510 C   0  0  0  0  0  2  0  0  0  0  0  0
  186.6230  178.0120  143.6420 C   0  0  0  0  0  0  0  0  0  0  0  0
  185.6660  178.3470  144.4430 C   0  0  0  0  0  0  0  0  0  0  0  0
  189.4470  177.1490  146.6730 C   0  0  0  0  0  3  0  0  0  0  0  0
  190.5110  177.3590  142.5550 C   0  0  0  0  0  0  0  0  0  0  0  0
  184.2340  178.2540  144.0280 C   0  0  1  0  0  3  0  0  0  0  0  0
  183.5360  179.5870  144.2280 C   0  0  0  0  0  2  0  0  0  0  0  0
  183.9870  179.1750  142.8450 C   0  0  2  0  0  3  0  0  0  0  0  0
  182.8030  178.6490  142.0550 C   0  0  0  0  0  2  0  0  0  0  0  0
  183.1640  178.5190  140.5840 C   0  0  0  0  0  2  0  0  0  0  0  0
  184.5740  179.0230  140.3360 C   0  0  0  0  0  2  0  0  0  0  0  0
  184.5650  179.9490  139.2170 N   0  0  0  0  0  1  0  0  0  0  0  0
  191.8140  176.9600  147.2540 O   0  0  0  0  0  0  0  0  0  0  0  0
  192.3750  175.7070  147.6290 C   0  0  0  0  0  2  0  0  0  0  0  0
  193.2500  175.8720  148.8570 C   0  0  0  0  0  1  0  0  0  0  0  0
  1  5  2  0  0  0  0
  1  4  1  0  0  0  0
  2 13  1  0  0  0  0
  2 16  2  0  0  0  0
  3 13  1  0  0  0  0
  4 11  2  0  0  0  0
  5  2  1  0  0  0  0
  6 10  1  0  0  0  0
  6  9  1  0  0  0  0
  7 14  2  0  0  0  0
  7  5  1  0  0  0  0
  8  7  1  0  0  0  0
  9  8  1  0  0  0  0
  9 17  2  0  0  0  0
 10 12  2  0  0  0  0
 11 16  1  0  0  0  0
 11 25  1  0  0  0  0
 12 17  1  0  0  0  0
 14 15  2  0  0  0  0
 15  3  1  0  0  0  0
 17  1  1  0  0  0  0
 18 19  1  0  0  0  0
 18 15  1  1  0  0  0
 20 21  1  6  0  0  0
 20 18  1  0  0  0  0
 20 19  1  0  0  0  0
 22 21  1  0  0  0  0
 23 22  1  0  0  0  0
 24 23  1  0  0  0  0
 25 26  1  0  0  0  0
 26 27  1  0  0  0  0
M  END
>  <MODEL>
1

>  <REMARK>
 VINA RESULT:      -9.6      0.000      0.000
  Name = 
  6 active torsions:
  status: ('A' for Active; 'I' for Inactive)
    1  A    between atoms: C_6  and  C_25
    2  A    between atoms: O_9  and  C_12
    3  A    between atoms: O_9  and  C_16
    4  A    between atoms: C_11  and  C_24
    5  A    between atoms: C_20  and  C_22
    6  A    between atoms: C_20  and  C_24
                            x       y       z     vdW  Elec       q    Type
                         _______ _______ _______ _____ _____    ______ ____

>  <TORSDO>
F 6

$$$$
=
 OpenBabel11062414433D

 27 31  0  0  1  0  0  0  0  0999 V2000
  185.2780  178.5970  141.8050 C   0  0  0  0  0  0  0  0  0  0  0  0
  184.8340  178.6380  144.2180 C   0  0  0  0  0  0  0  0  0  0  0  0
  186.0930  177.6560  146.2730 C   0  0  0  0  0  2  0  0  0  0  0  0
  183.9060  178.6670  141.5560 C   0  0  0  0  0  3  0  0  0  0  0  0
  185.7710  178.5690  143.1300 C   0  0  0  0  0  0  0  0  0  0  0  0
  188.1290  178.4240  139.7000 O   0  0  0  0  0  0  0  0  0  0  0  0
  187.2520  178.3990  143.3390 C   0  0  0  0  0  0  0  0  0  0  0  0
  188.2670  178.4080  142.2180 C   0  0  0  0  0  2  0  0  0  0  0  0
  187.5850  178.4530  140.8890 C   0  0  0  0  0  0  0  0  0  0  0  0
  187.1860  178.4840  138.7980 N   0  0  0  0  0  0  0  0  0  0  0  0
  182.9960  178.7180  142.6110 C   0  0  0  0  0  0  0  0  0  0  0  0
  185.9930  178.5560  139.3810 N   0  0  0  0  0  0  0  0  0  0  0  0
  185.2130  178.7860  145.6880 C   0  0  0  0  0  2  0  0  0  0  0  0
  187.6040  178.0460  144.5270 C   0  0  0  0  0  0  0  0  0  0  0  0
  187.5100  177.7400  145.7790 C   0  0  0  0  0  0  0  0  0  0  0  0
  183.4680  178.7170  143.9310 C   0  0  0  0  0  3  0  0  0  0  0  0
  186.2390  178.5380  140.7030 C   0  0  0  0  0  0  0  0  0  0  0  0
  188.6650  177.9070  146.7100 C   0  0  1  0  0  3  0  0  0  0  0  0
  188.4580  177.0810  147.9670 C   0  0  0  0  0  2  0  0  0  0  0  0
  189.3790  176.5770  146.8790 C   0  0  2  0  0  3  0  0  0  0  0  0
  190.8220  176.8430  147.2660 C   0  0  0  0  0  2  0  0  0  0  0  0
  191.7640  176.2530  146.2280 C   0  0  0  0  0  2  0  0  0  0  0  0
  191.6280  176.9860  144.9070 C   0  0  0  0  0  2  0  0  0  0  0  0
  191.5890  176.0230  143.8220 N   0  0  0  0  0  1  0  0  0  0  0  0
  181.6290  178.7840  142.3210 O   0  0  0  0  0  0  0  0  0  0  0  0
  180.6770  179.4020  143.1810 C   0  0  0  0  0  2  0  0  0  0  0  0
  179.9230  178.3470  143.9680 C   0  0  0  0  0  1  0  0  0  0  0  0
  1  5  1  0  0  0  0
  2 13  1  0  0  0  0
  4  1  2  0  0  0  0
  4 11  1  0  0  0  0
  5  7  1  0  0  0  0
  5  2  2  0  0  0  0
  6  9  1  0  0  0  0
  7 14  2  0  0  0  0
  8  7  1  0  0  0  0
  9  8  1  0  0  0  0
 10 12  2  0  0  0  0
 10  6  1  0  0  0  0
 11 16  2  0  0  0  0
 12 17  1  0  0  0  0
 13  3  1  0  0  0  0
 14 15  2  0  0  0  0
 15  3  1  0  0  0  0
 16  2  1  0  0  0  0
 17  9  2  0  0  0  0
 17  1  1  0  0  0  0
 18 15  1  6  0  0  0
 18 20  1  0  0  0  0
 18 19  1  0  0  0  0
 20 21  1  1  0  0  0
 20 19  1  0  0  0  0
 22 21  1  0  0  0  0
 23 22  1  0  0  0  0
 24 23  1  0  0  0  0
 25 11  1  0  0  0  0
 25 26  1  0  0  0  0
 26 27  1  0  0  0  0
M  END
>  <MODEL>
2

>  <REMARK>
 VINA RESULT:      -9.5      2.333      7.104
  Name = 
  6 active torsions:
  status: ('A' for Active; 'I' for Inactive)
    1  A    between atoms: C_6  and  C_25
    2  A    between atoms: O_9  and  C_12
    3  A    between atoms: O_9  and  C_16
    4  A    between atoms: C_11  and  C_24
    5  A    between atoms: C_20  and  C_22
    6  A    between atoms: C_20  and  C_24
                            x       y       z     vdW  Elec       q    Type
                         _______ _______ _______ _____ _____    ______ ____

>  <TORSDO>
F 6

$$$$
=
 OpenBabel11062414433D

 27 31  0  0  1  0  0  0  0  0999 V2000
  190.2090  177.2850  143.7900 C   0  0  0  0  0  0  0  0  0  0  0  0
  188.5230  177.2740  145.5730 C   0  0  0  0  0  0  0  0  0  0  0  0
  186.1650  178.3520  145.7950 C   0  0  0  0  0  2  0  0  0  0  0  0
  191.2170  177.1510  144.7480 C   0  0  0  0  0  3  0  0  0  0  0  0
  188.8510  177.3620  144.1760 C   0  0  0  0  0  0  0  0  0  0  0  0
  190.2330  177.5420  140.2510 O   0  0  0  0  0  0  0  0  0  0  0  0
  187.8160  177.6010  143.1090 C   0  0  0  0  0  0  0  0  0  0  0  0
  188.1220  177.6140  141.6280 C   0  0  0  0  0  2  0  0  0  0  0  0
  189.5950  177.5120  141.3920 C   0  0  0  0  0  0  0  0  0  0  0  0
  191.5140  177.4220  140.4780 N   0  0  0  0  0  0  0  0  0  0  0  0
  190.9000  177.0820  146.1040 C   0  0  0  0  0  0  0  0  0  0  0  0
  191.7450  177.3090  141.7820 N   0  0  0  0  0  0  0  0  0  0  0  0
  187.1080  177.1730  146.1320 C   0  0  0  0  0  2  0  0  0  0  0  0
  186.6660  177.9930  143.5360 C   0  0  0  0  0  0  0  0  0  0  0  0
  185.7250  178.3200  144.3580 C   0  0  0  0  0  0  0  0  0  0  0  0
  189.5570  177.1290  146.5030 C   0  0  0  0  0  3  0  0  0  0  0  0
  190.5340  177.3650  142.3650 C   0  0  0  0  0  0  0  0  0  0  0  0
  184.2850  178.2220  143.9730 C   0  0  1  0  0  3  0  0  0  0  0  0
  183.5670  179.5270  144.2670 C   0  0  0  0  0  2  0  0  0  0  0  0
  183.9910  179.2050  142.8510 C   0  0  2  0  0  3  0  0  0  0  0  0
  182.7980  178.7010  142.0610 C   0  0  0  0  0  2  0  0  0  0  0  0
  181.5020  179.1040  142.7470 C   0  0  0  0  0  2  0  0  0  0  0  0
  180.5140  179.6570  141.7360 C   0  0  0  0  0  2  0  0  0  0  0  0
  179.7330  180.7140  142.3520 N   0  0  0  0  0  1  0  0  0  0  0  0
  191.9370  176.9490  147.0330 O   0  0  0  0  0  0  0  0  0  0  0  0
  192.3610  175.6950  147.5570 C   0  0  0  0  0  2  0  0  0  0  0  0
  193.1270  175.9010  148.8500 C   0  0  0  0  0  1  0  0  0  0  0  0
  1  5  2  0  0  0  0
  1  4  1  0  0  0  0
  2 13  1  0  0  0  0
  2 16  2  0  0  0  0
  3 13  1  0  0  0  0
  4 11  2  0  0  0  0
  5  2  1  0  0  0  0
  6 10  1  0  0  0  0
  6  9  1  0  0  0  0
  7 14  2  0  0  0  0
  7  5  1  0  0  0  0
  8  7  1  0  0  0  0
  9  8  1  0  0  0  0
  9 17  2  0  0  0  0
 10 12  2  0  0  0  0
 11 16  1  0  0  0  0
 11 25  1  0  0  0  0
 12 17  1  0  0  0  0
 14 15  2  0  0  0  0
 15  3  1  0  0  0  0
 17  1  1  0  0  0  0
 18 19  1  0  0  0  0
 18 15  1  1  0  0  0
 20 21  1  6  0  0  0
 20 18  1  0  0  0  0
 20 19  1  0  0  0  0
 21 22  1  0  0  0  0
 23 24  1  0  0  0  0
 23 22  1  0  0  0  0
 25 26  1  0  0  0  0
 26 27  1  0  0  0  0
M  END
>  <MODEL>
3

>  <REMARK>
 VINA RESULT:      -9.0      1.264      1.503
  Name = 
  6 active torsions:
  status: ('A' for Active; 'I' for Inactive)
    1  A    between atoms: C_6  and  C_25
    2  A    between atoms: O_9  and  C_12
    3  A    between atoms: O_9  and  C_16
    4  A    between atoms: C_11  and  C_24
    5  A    between atoms: C_20  and  C_22
    6  A    between atoms: C_20  and  C_24
                            x       y       z     vdW  Elec       q    Type
                         _______ _______ _______ _____ _____    ______ ____

>  <TORSDO>
F 6

$$$$
=
 OpenBabel11062414433D

 27 31  0  0  1  0  0  0  0  0999 V2000
  190.2740  177.2700  144.2070 C   0  0  0  0  0  0  0  0  0  0  0  0
  188.5180  177.9500  142.6340 C   0  0  0  0  0  0  0  0  0  0  0  0
  185.9220  177.7770  142.6850 C   0  0  0  0  0  2  0  0  0  0  0  0
  191.1540  177.0860  143.1380 C   0  0  0  0  0  3  0  0  0  0  0  0
  188.9430  177.6900  143.9820 C   0  0  0  0  0  0  0  0  0  0  0  0
  190.5890  176.8660  147.7180 O   0  0  0  0  0  0  0  0  0  0  0  0
  188.0120  177.7830  145.1620 C   0  0  0  0  0  0  0  0  0  0  0  0
  188.4520  177.5980  146.5970 C   0  0  0  0  0  2  0  0  0  0  0  0
  189.8820  177.1680  146.6600 C   0  0  0  0  0  0  0  0  0  0  0  0
  191.7970  176.5400  147.3440 N   0  0  0  0  0  0  0  0  0  0  0  0
  190.7370  177.3210  141.8290 C   0  0  0  0  0  0  0  0  0  0  0  0
  191.9100  176.6220  146.0220 N   0  0  0  0  0  0  0  0  0  0  0  0
  187.1780  178.5640  142.2430 C   0  0  0  0  0  2  0  0  0  0  0  0
  186.7590  177.8370  144.8710 C   0  0  0  0  0  0  0  0  0  0  0  0
  185.6790  177.8970  144.1630 C   0  0  0  0  0  0  0  0  0  0  0  0
  189.4290  177.7640  141.5890 C   0  0  0  0  0  3  0  0  0  0  0  0
  190.7020  177.0190  145.5840 C   0  0  0  0  0  0  0  0  0  0  0  0
  184.4180  178.4760  144.7140 C   0  0  1  0  0  3  0  0  0  0  0  0
  184.2950  179.9400  144.3340 C   0  0  0  0  0  2  0  0  0  0  0  0
  183.5100  178.8970  143.5700 C   0  0  2  0  0  3  0  0  0  0  0  0
  182.0730  178.8810  144.0550 C   0  0  0  0  0  2  0  0  0  0  0  0
  181.1400  179.3730  142.9590 C   0  0  0  0  0  2  0  0  0  0  0  0
  179.7810  178.7070  143.0780 C   0  0  0  0  0  2  0  0  0  0  0  0
  179.6980  178.0020  144.3440 N   0  0  0  0  0  1  0  0  0  0  0  0
  191.6470  177.1230  140.7850 O   0  0  0  0  0  0  0  0  0  0  0  0
  191.3230  177.3330  139.4150 C   0  0  0  0  0  2  0  0  0  0  0  0
  190.9930  176.0110  138.7470 C   0  0  0  0  0  1  0  0  0  0  0  0
  1 17  1  0  0  0  0
  2  5  2  0  0  0  0
  3 15  1  0  0  0  0
  4  1  2  0  0  0  0
  5  1  1  0  0  0  0
  5  7  1  0  0  0  0
  7  8  1  0  0  0  0
  8  9  1  0  0  0  0
  9  6  1  0  0  0  0
 10  6  1  0  0  0  0
 11  4  1  0  0  0  0
 12 10  2  0  0  0  0
 13  2  1  0  0  0  0
 13  3  1  0  0  0  0
 14  7  2  0  0  0  0
 15 14  2  0  0  0  0
 16 11  2  0  0  0  0
 16  2  1  0  0  0  0
 17 12  1  0  0  0  0
 17  9  2  0  0  0  0
 18 15  1  6  0  0  0
 19 18  1  0  0  0  0
 20 21  1  1  0  0  0
 20 19  1  0  0  0  0
 20 18  1  0  0  0  0
 22 23  1  0  0  0  0
 22 21  1  0  0  0  0
 23 24  1  0  0  0  0
 25 11  1  0  0  0  0
 26 25  1  0  0  0  0
 27 26  1  0  0  0  0
M  END
>  <MODEL>
4

>  <REMARK>
 VINA RESULT:      -8.8      2.464      4.676
  Name = 
  6 active torsions:
  status: ('A' for Active; 'I' for Inactive)
    1  A    between atoms: C_6  and  C_25
    2  A    between atoms: O_9  and  C_12
    3  A    between atoms: O_9  and  C_16
    4  A    between atoms: C_11  and  C_24
    5  A    between atoms: C_20  and  C_22
    6  A    between atoms: C_20  and  C_24
                            x       y       z     vdW  Elec       q    Type
                         _______ _______ _______ _____ _____    ______ ____

>  <TORSDO>
F 6

$$$$
=
 OpenBabel11062414433D

 27 31  0  0  1  0  0  0  0  0999 V2000
  187.5290  177.8600  145.3300 C   0  0  0  0  0  0  0  0  0  0  0  0
  189.5620  177.5750  143.9870 C   0  0  0  0  0  0  0  0  0  0  0  0
  189.9730  176.9500  141.4940 C   0  0  0  0  0  2  0  0  0  0  0  0
  188.2320  177.4660  146.4710 C   0  0  0  0  0  3  0  0  0  0  0  0
  188.1680  177.9120  144.0700 C   0  0  0  0  0  0  0  0  0  0  0  0
  184.1660  178.8360  144.7600 O   0  0  0  0  0  0  0  0  0  0  0  0
  187.3380  178.2540  142.8610 C   0  0  0  0  0  0  0  0  0  0  0  0
  185.8930  178.6930  142.9280 C   0  0  0  0  0  2  0  0  0  0  0  0
  185.3750  178.5910  144.3270 C   0  0  0  0  0  0  0  0  0  0  0  0
  184.1250  178.6280  146.0490 N   0  0  0  0  0  0  0  0  0  0  0  0
  189.5810  177.1230  146.3870 C   0  0  0  0  0  0  0  0  0  0  0  0
  185.3170  178.2400  146.4920 N   0  0  0  0  0  0  0  0  0  0  0  0
  190.4280  177.7420  142.7430 C   0  0  0  0  0  2  0  0  0  0  0  0
  187.8730  177.9620  141.7260 C   0  0  0  0  0  0  0  0  0  0  0  0
  188.7480  177.5550  140.8660 C   0  0  0  0  0  0  0  0  0  0  0  0
  190.2370  177.1950  145.1510 C   0  0  0  0  0  3  0  0  0  0  0  0
  186.1110  178.2160  145.4080 C   0  0  0  0  0  0  0  0  0  0  0  0
  188.7430  178.0480  139.4560 C   0  0  1  0  0  3  0  0  0  0  0  0
  189.1800  176.9470  138.5070 C   0  0  0  0  0  2  0  0  0  0  0  0
  187.7110  177.2750  138.6520 C   0  0  2  0  0  3  0  0  0  0  0  0
  187.2610  178.1320  137.4840 C   0  0  0  0  0  2  0  0  0  0  0  0
  185.7530  178.3220  137.5180 C   0  0  0  0  0  2  0  0  0  0  0  0
  185.2620  178.4310  138.9500 C   0  0  0  0  0  2  0  0  0  0  0  0
  184.7000  179.7510  139.1690 N   0  0  0  0  0  1  0  0  0  0  0  0
  190.2510  176.7310  147.5510 O   0  0  0  0  0  0  0  0  0  0  0  0
  191.6680  176.7630  147.6860 C   0  0  0  0  0  2  0  0  0  0  0  0
  192.2400  175.3680  147.5250 C   0  0  0  0  0  1  0  0  0  0  0  0
  1 17  1  0  0  0  0
  1  4  1  0  0  0  0
  2  5  1  0  0  0  0
  2 16  2  0  0  0  0
  3 13  1  0  0  0  0
  5  1  2  0  0  0  0
  6 10  1  0  0  0  0
  7  8  1  0  0  0  0
  7  5  1  0  0  0  0
  8  9  1  0  0  0  0
  9  6  1  0  0  0  0
  9 17  2  0  0  0  0
 10 12  2  0  0  0  0
 11  4  2  0  0  0  0
 11 25  1  0  0  0  0
 13  2  1  0  0  0  0
 14  7  2  0  0  0  0
 15  3  1  0  0  0  0
 15 14  2  0  0  0  0
 16 11  1  0  0  0  0
 17 12  1  0  0  0  0
 18 15  1  1  0  0  0
 19 20  1  0  0  0  0
 19 18  1  0  0  0  0
 20 21  1  6  0  0  0
 20 18  1  0  0  0  0
 21 22  1  0  0  0  0
 22 23  1  0  0  0  0
 23 24  1  0  0  0  0
 25 26  1  0  0  0  0
 27 26  1  0  0  0  0
M  END
>  <MODEL>
5

>  <REMARK>
 VINA RESULT:      -8.8      2.917      4.720
  Name = 
  6 active torsions:
  status: ('A' for Active; 'I' for Inactive)
    1  A    between atoms: C_6  and  C_25
    2  A    between atoms: O_9  and  C_12
    3  A    between atoms: O_9  and  C_16
    4  A    between atoms: C_11  and  C_24
    5  A    between atoms: C_20  and  C_22
    6  A    between atoms: C_20  and  C_24
                            x       y       z     vdW  Elec       q    Type
                         _______ _______ _______ _____ _____    ______ ____

>  <TORSDO>
F 6

$$$$
=
 OpenBabel11062414433D

 27 31  0  0  1  0  0  0  0  0999 V2000
  188.1060  177.8980  140.5250 C   0  0  0  0  0  0  0  0  0  0  0  0
  189.9810  176.8180  141.6810 C   0  0  0  0  0  0  0  0  0  0  0  0
  190.8810  176.9540  144.1200 C   0  0  0  0  0  2  0  0  0  0  0  0
  188.8120  177.8260  139.3220 C   0  0  0  0  0  3  0  0  0  0  0  0
  188.6730  177.4120  141.7260 C   0  0  0  0  0  0  0  0  0  0  0  0
  184.9110  179.1690  141.4010 O   0  0  0  0  0  0  0  0  0  0  0  0
  187.9060  177.6010  143.0080 C   0  0  0  0  0  0  0  0  0  0  0  0
  186.4970  178.1440  143.0730 C   0  0  0  0  0  2  0  0  0  0  0  0
  186.0440  178.6010  141.7230 C   0  0  0  0  0  0  0  0  0  0  0  0
  184.9070  179.4130  140.1180 N   0  0  0  0  0  0  0  0  0  0  0  0
  190.0870  177.2640  139.2820 C   0  0  0  0  0  0  0  0  0  0  0  0
  186.0460  179.0050  139.5660 N   0  0  0  0  0  0  0  0  0  0  0  0
  190.6550  176.1030  142.8480 C   0  0  0  0  0  2  0  0  0  0  0  0
  188.5940  177.4540  144.0870 C   0  0  0  0  0  0  0  0  0  0  0  0
  189.5970  177.2020  144.8610 C   0  0  0  0  0  0  0  0  0  0  0  0
  190.6540  176.7530  140.4580 C   0  0  0  0  0  3  0  0  0  0  0  0
  186.7690  178.4910  140.5770 C   0  0  0  0  0  0  0  0  0  0  0  0
  189.4000  176.7560  146.2730 C   0  0  1  0  0  3  0  0  0  0  0  0
  190.6340  177.0580  147.1020 C   0  0  0  0  0  2  0  0  0  0  0  0
  189.4270  177.9640  147.1950 C   0  0  2  0  0  3  0  0  0  0  0  0
  188.6380  177.6390  148.4490 C   0  0  0  0  0  2  0  0  0  0  0  0
  187.3380  178.4280  148.4740 C   0  0  0  0  0  2  0  0  0  0  0  0
  186.5880  178.2600  147.1660 C   0  0  0  0  0  2  0  0  0  0  0  0
  185.6800  179.3790  146.9830 N   0  0  0  0  0  1  0  0  0  0  0  0
  190.7630  177.2120  138.0590 O   0  0  0  0  0  0  0  0  0  0  0  0
  191.1270  175.9930  137.4180 C   0  0  0  0  0  2  0  0  0  0  0  0
  192.6280  175.9380  137.2130 C   0  0  0  0  0  1  0  0  0  0  0  0
  1 17  1  0  0  0  0
  1  5  1  0  0  0  0
  2  5  2  0  0  0  0
  2 13  1  0  0  0  0
  3 15  1  0  0  0  0
  4  1  2  0  0  0  0
  5  7  1  0  0  0  0
  6  9  1  0  0  0  0
  7  8  1  0  0  0  0
  7 14  2  0  0  0  0
  9  8  1  0  0  0  0
 10  6  1  0  0  0  0
 11  4  1  0  0  0  0
 11 16  2  0  0  0  0
 12 10  2  0  0  0  0
 12 17  1  0  0  0  0
 13  3  1  0  0  0  0
 14 15  2  0  0  0  0
 16  2  1  0  0  0  0
 17  9  2  0  0  0  0
 18 15  1  6  0  0  0
 18 19  1  0  0  0  0
 18 20  1  0  0  0  0
 19 20  1  0  0  0  0
 20 21  1  1  0  0  0
 21 22  1  0  0  0  0
 23 22  1  0  0  0  0
 24 23  1  0  0  0  0
 25 11  1  0  0  0  0
 26 25  1  0  0  0  0
 27 26  1  0  0  0  0
M  END
>  <MODEL>
6

>  <REMARK>
 VINA RESULT:      -8.6      3.022      6.527
  Name = 
  6 active torsions:
  status: ('A' for Active; 'I' for Inactive)
    1  A    between atoms: C_6  and  C_25
    2  A    between atoms: O_9  and  C_12
    3  A    between atoms: O_9  and  C_16
    4  A    between atoms: C_11  and  C_24
    5  A    between atoms: C_20  and  C_22
    6  A    between atoms: C_20  and  C_24
                            x       y       z     vdW  Elec       q    Type
                         _______ _______ _______ _____ _____    ______ ____

>  <TORSDO>
F 6

$$$$
=
 OpenBabel11062414433D

 27 31  0  0  1  0  0  0  0  0999 V2000
  186.8020  177.9110  144.3880 C   0  0  0  0  0  0  0  0  0  0  0  0
  189.1450  177.5070  143.7820 C   0  0  0  0  0  0  0  0  0  0  0  0
  190.3100  176.7900  141.5670 C   0  0  0  0  0  2  0  0  0  0  0  0
  187.0800  177.5250  145.7010 C   0  0  0  0  0  3  0  0  0  0  0  0
  187.8160  177.8990  143.4020 C   0  0  0  0  0  0  0  0  0  0  0  0
  183.8520  178.9950  142.7420 O   0  0  0  0  0  0  0  0  0  0  0  0
  187.4380  178.2350  141.9840 C   0  0  0  0  0  0  0  0  0  0  0  0
  186.0710  178.7300  141.5720 C   0  0  0  0  0  2  0  0  0  0  0  0
  185.1240  178.6920  142.7290 C   0  0  0  0  0  0  0  0  0  0  0  0
  183.3880  178.8280  143.9510 N   0  0  0  0  0  0  0  0  0  0  0  0
  188.3660  177.1290  146.0660 C   0  0  0  0  0  0  0  0  0  0  0  0
  184.3530  178.4100  144.7640 N   0  0  0  0  0  0  0  0  0  0  0  0
  190.3740  177.6020  142.8830 C   0  0  0  0  0  2  0  0  0  0  0  0
  188.2980  177.8880  141.0890 C   0  0  0  0  0  0  0  0  0  0  0  0
  189.3840  177.4220  140.5670 C   0  0  0  0  0  0  0  0  0  0  0  0
  189.3900  177.1370  145.1080 C   0  0  0  0  0  3  0  0  0  0  0  0
  185.4540  178.3220  143.9960 C   0  0  0  0  0  0  0  0  0  0  0  0
  189.8570  177.8710  139.2230 C   0  0  1  0  0  3  0  0  0  0  0  0
  190.6160  176.7560  138.5270 C   0  0  0  0  0  2  0  0  0  0  0  0
  189.1810  177.0420  138.1430 C   0  0  2  0  0  3  0  0  0  0  0  0
  189.1470  177.8490  136.8590 C   0  0  0  0  0  2  0  0  0  0  0  0
  187.7150  178.2220  136.5070 C   0  0  0  0  0  2  0  0  0  0  0  0
  186.7450  177.5960  137.4920 C   0  0  0  0  0  2  0  0  0  0  0  0
  185.8930  178.6280  138.0530 N   0  0  0  0  0  1  0  0  0  0  0  0
  188.6050  176.7480  147.3900 O   0  0  0  0  0  0  0  0  0  0  0  0
  188.1210  177.4760  148.5140 C   0  0  0  0  0  2  0  0  0  0  0  0
  189.0550  178.6270  148.8330 C   0  0  0  0  0  1  0  0  0  0  0  0
  1  4  1  0  0  0  0
  2 16  2  0  0  0  0
  3 13  1  0  0  0  0
  4 11  2  0  0  0  0
  5  2  1  0  0  0  0
  5  1  2  0  0  0  0
  6 10  1  0  0  0  0
  7  5  1  0  0  0  0
  8  7  1  0  0  0  0
  8  9  1  0  0  0  0
  9  6  1  0  0  0  0
  9 17  2  0  0  0  0
 10 12  2  0  0  0  0
 11 25  1  0  0  0  0
 13  2  1  0  0  0  0
 14  7  2  0  0  0  0
 15 14  2  0  0  0  0
 15  3  1  0  0  0  0
 16 11  1  0  0  0  0
 17  1  1  0  0  0  0
 17 12  1  0  0  0  0
 18 15  1  1  0  0  0
 19 18  1  0  0  0  0
 20 21  1  6  0  0  0
 20 19  1  0  0  0  0
 20 18  1  0  0  0  0
 22 21  1  0  0  0  0
 22 23  1  0  0  0  0
 23 24  1  0  0  0  0
 25 26  1  0  0  0  0
 26 27  1  0  0  0  0
M  END
>  <MODEL>
7

>  <REMARK>
 VINA RESULT:      -8.4      2.976      5.362
  Name = 
  6 active torsions:
  status: ('A' for Active; 'I' for Inactive)
    1  A    between atoms: C_6  and  C_25
    2  A    between atoms: O_9  and  C_12
    3  A    between atoms: O_9  and  C_16
    4  A    between atoms: C_11  and  C_24
    5  A    between atoms: C_20  and  C_22
    6  A    between atoms: C_20  and  C_24
                            x       y       z     vdW  Elec       q    Type
                         _______ _______ _______ _____ _____    ______ ____

>  <TORSDO>
F 6

$$$$
=
 OpenBabel11062414433D

 27 31  0  0  1  0  0  0  0  0999 V2000
  183.7500  178.7170  140.5910 C   0  0  0  0  0  0  0  0  0  0  0  0
  182.9020  179.0040  142.8760 C   0  0  0  0  0  0  0  0  0  0  0  0
  183.8430  178.3560  145.2150 C   0  0  0  0  0  2  0  0  0  0  0  0
  182.4370  178.6600  140.1160 C   0  0  0  0  0  3  0  0  0  0  0  0
  184.0120  178.8760  141.9710 C   0  0  0  0  0  0  0  0  0  0  0  0
  186.9210  178.5050  139.0140 O   0  0  0  0  0  0  0  0  0  0  0  0
  185.4430  178.8380  142.4370 C   0  0  0  0  0  0  0  0  0  0  0  0
  186.6310  178.7890  141.5030 C   0  0  0  0  0  2  0  0  0  0  0  0
  186.1820  178.6330  140.0850 C   0  0  0  0  0  0  0  0  0  0  0  0
  186.1420  178.3940  137.9710 N   0  0  0  0  0  0  0  0  0  0  0  0
  181.3610  178.7670  140.9950 C   0  0  0  0  0  0  0  0  0  0  0  0
  184.8660  178.4490  138.3390 N   0  0  0  0  0  0  0  0  0  0  0  0
  183.0190  179.3460  144.3570 C   0  0  0  0  0  2  0  0  0  0  0  0
  185.6060  178.6490  143.7010 C   0  0  0  0  0  0  0  0  0  0  0  0
  185.3170  178.4830  144.9490 C   0  0  0  0  0  0  0  0  0  0  0  0
  181.6020  178.9520  142.3640 C   0  0  0  0  0  3  0  0  0  0  0  0
  184.8850  178.6000  139.6750 C   0  0  0  0  0  0  0  0  0  0  0  0
  186.2880  178.8380  146.0270 C   0  0  1  0  0  3  0  0  0  0  0  0
  185.8640  178.2210  147.3480 C   0  0  0  0  0  2  0  0  0  0  0  0
  186.9660  177.5770  146.5360 C   0  0  2  0  0  3  0  0  0  0  0  0
  188.3160  177.9500  147.1190 C   0  0  0  0  0  2  0  0  0  0  0  0
  189.4300  177.2330  146.3730 C   0  0  0  0  0  2  0  0  0  0  0  0
  190.4720  176.7110  147.3440 C   0  0  0  0  0  2  0  0  0  0  0  0
  191.7810  176.7520  146.7160 N   0  0  0  0  0  1  0  0  0  0  0  0
  180.0610  178.7030  140.4830 O   0  0  0  0  0  0  0  0  0  0  0  0
  179.5730  177.6010  139.7260 C   0  0  0  0  0  2  0  0  0  0  0  0
  179.4840  176.3650  140.6000 C   0  0  0  0  0  1  0  0  0  0  0  0
  1  5  1  0  0  0  0
  2 13  1  0  0  0  0
  4  1  2  0  0  0  0
  4 11  1  0  0  0  0
  5  7  1  0  0  0  0
  5  2  2  0  0  0  0
  6  9  1  0  0  0  0
  7 14  2  0  0  0  0
  8  7  1  0  0  0  0
  9  8  1  0  0  0  0
 10 12  2  0  0  0  0
 10  6  1  0  0  0  0
 11 16  2  0  0  0  0
 12 17  1  0  0  0  0
 13  3  1  0  0  0  0
 14 15  2  0  0  0  0
 15  3  1  0  0  0  0
 16  2  1  0  0  0  0
 17  9  2  0  0  0  0
 17  1  1  0  0  0  0
 18 15  1  6  0  0  0
 18 20  1  0  0  0  0
 18 19  1  0  0  0  0
 20 21  1  1  0  0  0
 20 19  1  0  0  0  0
 22 21  1  0  0  0  0
 22 23  1  0  0  0  0
 24 23  1  0  0  0  0
 25 11  1  0  0  0  0
 26 25  1  0  0  0  0
 26 27  1  0  0  0  0
M  END
>  <MODEL>
8

>  <REMARK>
 VINA RESULT:      -8.3      3.028      7.955
  Name = 
  6 active torsions:
  status: ('A' for Active; 'I' for Inactive)
    1  A    between atoms: C_6  and  C_25
    2  A    between atoms: O_9  and  C_12
    3  A    between atoms: O_9  and  C_16
    4  A    between atoms: C_11  and  C_24
    5  A    between atoms: C_20  and  C_22
    6  A    between atoms: C_20  and  C_24
                            x       y       z     vdW  Elec       q    Type
                         _______ _______ _______ _____ _____    ______ ____

>  <TORSDO>
F 6

$$$$
=
 OpenBabel11062414433D

 27 31  0  0  1  0  0  0  0  0999 V2000
  189.2160  177.3550  145.8600 C   0  0  0  0  0  0  0  0  0  0  0  0
  187.9460  177.4570  143.7630 C   0  0  0  0  0  0  0  0  0  0  0  0
  188.6460  177.7560  141.2740 C   0  0  0  0  0  2  0  0  0  0  0  0
  188.1210  177.8890  146.5440 C   0  0  0  0  0  3  0  0  0  0  0  0
  189.1600  177.1400  144.4640 C   0  0  0  0  0  0  0  0  0  0  0  0
  192.4570  176.3310  146.8760 O   0  0  0  0  0  0  0  0  0  0  0  0
  190.4010  176.6500  143.7650 C   0  0  0  0  0  0  0  0  0  0  0  0
  191.6620  176.2300  144.4850 C   0  0  0  0  0  2  0  0  0  0  0  0
  191.5530  176.5120  145.9490 C   0  0  0  0  0  0  0  0  0  0  0  0
  191.9660  176.7020  148.0280 N   0  0  0  0  0  0  0  0  0  0  0  0
  186.9490  178.2120  145.8610 C   0  0  0  0  0  0  0  0  0  0  0  0
  190.7190  177.1380  147.8810 N   0  0  0  0  0  0  0  0  0  0  0  0
  187.6720  177.1280  142.2990 C   0  0  0  0  0  2  0  0  0  0  0  0
  190.4040  176.7920  142.4840 C   0  0  0  0  0  0  0  0  0  0  0  0
  189.9890  177.0810  141.2950 C   0  0  0  0  0  0  0  0  0  0  0  0
  186.8670  177.9800  144.4810 C   0  0  0  0  0  3  0  0  0  0  0  0
  190.4520  177.0190  146.5680 C   0  0  0  0  0  0  0  0  0  0  0  0
  190.5580  176.4120  140.0880 C   0  0  1  0  0  3  0  0  0  0  0  0
  190.2770  177.2340  138.8430 C   0  0  0  0  0  2  0  0  0  0  0  0
  191.6450  177.2870  139.4860 C   0  0  2  0  0  3  0  0  0  0  0  0
  192.6090  176.4080  138.7130 C   0  0  0  0  0  2  0  0  0  0  0  0
  192.2320  176.3790  137.2400 C   0  0  0  0  0  2  0  0  0  0  0  0
  192.2920  174.9610  136.7030 C   0  0  0  0  0  2  0  0  0  0  0  0
  191.5360  174.0810  137.5760 N   0  0  0  0  0  1  0  0  0  0  0  0
  185.8750  178.7470  146.5800 O   0  0  0  0  0  0  0  0  0  0  0  0
  184.5370  178.2780  146.4510 C   0  0  0  0  0  2  0  0  0  0  0  0
  183.8360  179.0030  145.3170 C   0  0  0  0  0  1  0  0  0  0  0  0
  1  4  1  0  0  0  0
  1 17  1  0  0  0  0
  2  5  1  0  0  0  0
  2 16  2  0  0  0  0
  3 15  1  0  0  0  0
  3 13  1  0  0  0  0
  5  1  2  0  0  0  0
  6 10  1  0  0  0  0
  7  5  1  0  0  0  0
  7  8  1  0  0  0  0
  8  9  1  0  0  0  0
  9 17  2  0  0  0  0
  9  6  1  0  0  0  0
 11  4  2  0  0  0  0
 11 25  1  0  0  0  0
 12 10  2  0  0  0  0
 13  2  1  0  0  0  0
 14  7  2  0  0  0  0
 15 14  2  0  0  0  0
 16 11  1  0  0  0  0
 17 12  1  0  0  0  0
 18 15  1  1  0  0  0
 19 20  1  0  0  0  0
 19 18  1  0  0  0  0
 20 21  1  6  0  0  0
 20 18  1  0  0  0  0
 22 21  1  0  0  0  0
 23 22  1  0  0  0  0
 23 24  1  0  0  0  0
 26 25  1  0  0  0  0
 27 26  1  0  0  0  0
M  END
>  <MODEL>
9

>  <REMARK>
 VINA RESULT:      -8.2      3.178      6.572
  Name = 
  6 active torsions:
  status: ('A' for Active; 'I' for Inactive)
    1  A    between atoms: C_6  and  C_25
    2  A    between atoms: O_9  and  C_12
    3  A    between atoms: O_9  and  C_16
    4  A    between atoms: C_11  and  C_24
    5  A    between atoms: C_20  and  C_22
    6  A    between atoms: C_20  and  C_24
                            x       y       z     vdW  Elec       q    Type
                         _______ _______ _______ _____ _____    ______ ____

>  <TORSDO>
F 6

$$$$
