=
 OpenBabel11062416313D

 29 33  0  0  1  0  0  0  0  0999 V2000
  187.8680  177.8180  140.1160 C   0  0  0  0  0  2  0  0  0  0  0  0
  189.8210  177.9350  138.0400 C   0  0  2  0  0  3  0  0  0  0  0  0
  189.1100  176.9500  140.3020 C   0  0  1  0  0  3  0  0  0  0  0  0
  189.7710  176.6800  138.9360 C   0  0  2  0  0  3  0  0  0  0  0  0
  188.2070  179.0060  139.3340 N   0  0  0  0  0  2  0  0  0  0  0  0
  188.5090  178.5820  138.0260 N   0  0  0  0  0  2  0  0  0  0  0  0
  190.1800  177.5600  136.6140 C   0  0  0  0  0  1  0  0  0  0  0  0
  191.0930  174.8810  138.0090 O   0  0  0  0  0  0  0  0  0  0  0  0
  192.7930  177.3540  139.9870 C   0  0  0  0  0  2  0  0  0  0  0  0
  191.0660  175.8440  139.0390 C   0  0  1  0  0  3  0  0  0  0  0  0
  193.2200  176.0370  137.9760 C   0  0  1  0  0  3  0  0  0  0  0  0
  192.3300  176.6240  138.9740 C   0  0  0  0  0  0  0  0  0  0  0  0
  192.3760  174.9100  137.4100 C   0  0  1  0  0  3  0  0  0  0  0  0
  193.4870  176.9710  136.9740 O   0  0  0  0  0  1  0  0  0  0  0  0
  194.4010  173.7450  137.9750 O   0  0  0  0  0  1  0  0  0  0  0  0
  193.0730  173.5660  137.5800 C   0  0  0  0  0  2  0  0  0  0  0  0
  190.0440  177.6150  141.3060 C   0  0  0  0  0  2  0  0  0  0  0  0
  190.9330  175.8670  143.2060 O   0  0  0  0  0  0  0  0  0  0  0  0
  187.2620  176.7870  143.7450 C   0  0  0  0  0  2  0  0  0  0  0  0
  191.8670  176.1850  144.2240 C   0  0  0  0  0  2  0  0  0  0  0  0
  189.7730  176.5440  143.6100 C   0  0  1  0  0  0  0  0  0  0  0  0
  188.8620  177.9300  145.4880 C   0  0  0  0  0  2  0  0  0  0  0  0
  188.4750  176.4550  142.8370 C   0  0  2  0  0  3  0  0  0  0  0  0
  191.5940  176.6630  146.6390 C   0  0  0  0  0  2  0  0  0  0  0  0
  189.6820  176.7040  145.1020 C   0  0  2  0  0  3  0  0  0  0  0  0
  189.3690  177.6850  142.6670 C   0  0  2  0  0  3  0  0  0  0  0  0
  187.4710  177.8970  144.8160 C   0  0  2  0  0  3  0  0  0  0  0  0
  186.4390  177.7960  145.8300 N   0  0  0  0  0  1  0  0  0  0  0  0
  191.1180  176.7450  145.3980 C   0  0  0  0  0  0  0  0  0  0  0  0
  1  3  1  0  0  0  0
  2  7  1  6  0  0  0
  2  4  1  0  0  0  0
  3 17  1  1  0  0  0
  4 10  1  1  0  0  0
  4  3  1  0  0  0  0
  5  1  1  0  0  0  0
  6  2  1  0  0  0  0
  6  5  1  0  0  0  0
 10  8  1  6  0  0  0
 11 14  1  6  0  0  0
 11 12  1  0  0  0  0
 12 10  1  0  0  0  0
 12  9  2  0  0  0  0
 13 16  1  1  0  0  0
 13 11  1  0  0  0  0
 13  8  1  0  0  0  0
 16 15  1  0  0  0  0
 18 20  1  0  0  0  0
 19 27  1  0  0  0  0
 20 29  1  0  0  0  0
 21 18  1  6  0  0  0
 21 25  1  0  0  0  0
 23 21  1  0  0  0  0
 23 19  1  1  0  0  0
 25 29  1  0  0  0  0
 25 22  1  6  0  0  0
 26 17  1  6  0  0  0
 26 23  1  0  0  0  0
 26 21  1  0  0  0  0
 27 22  1  0  0  0  0
 27 28  1  1  0  0  0
 29 24  2  0  0  0  0
M  END
>  <MODEL>
1

>  <REMARK>
 VINA RESULT:      -7.6      0.000      0.000
  Name = 
  4 active torsions:
  status: ('A' for Active; 'I' for Inactive)
    1  A    between atoms: C_11  and  C_17
    2  A    between atoms: C_13  and  C_29
    3  A    between atoms: C_15  and  C_29
    4  A    between atoms: C_20  and  C_25
                            x       y       z     vdW  Elec       q    Type
                         _______ _______ _______ _____ _____    ______ ____

>  <TORSDO>
F 4

$$$$
=
 OpenBabel11062416313D

 29 33  0  0  1  0  0  0  0  0999 V2000
  183.0440  176.2430  139.4460 C   0  0  0  0  0  2  0  0  0  0  0  0
  180.6360  177.6960  138.9650 C   0  0  2  0  0  3  0  0  0  0  0  0
  183.0730  177.7330  139.7750 C   0  0  1  0  0  3  0  0  0  0  0  0
  181.9720  178.4680  138.9830 C   0  0  2  0  0  3  0  0  0  0  0  0
  181.6890  175.7240  139.6210 N   0  0  0  0  0  2  0  0  0  0  0  0
  180.8820  176.2950  138.6190 N   0  0  0  0  0  2  0  0  0  0  0  0
  179.6940  178.2820  137.9300 C   0  0  0  0  0  1  0  0  0  0  0  0
  182.2040  180.7170  138.1310 O   0  0  0  0  0  0  0  0  0  0  0  0
  180.1810  180.2430  141.0640 C   0  0  0  0  0  2  0  0  0  0  0  0
  181.9010  179.9790  139.2930 C   0  0  1  0  0  3  0  0  0  0  0  0
  180.1490  181.6130  139.0430 C   0  0  1  0  0  3  0  0  0  0  0  0
  180.5940  180.4560  139.8160 C   0  0  0  0  0  0  0  0  0  0  0  0
  181.2370  181.7430  137.9940 C   0  0  1  0  0  3  0  0  0  0  0  0
  178.9310  181.3270  138.4230 O   0  0  0  0  0  1  0  0  0  0  0  0
  181.0960  184.0790  137.4510 O   0  0  0  0  0  1  0  0  0  0  0  0
  181.9010  183.1120  138.0590 C   0  0  0  0  0  2  0  0  0  0  0  0
  182.9590  177.9200  141.2830 C   0  0  0  0  0  2  0  0  0  0  0  0
  183.3540  179.4780  143.4900 O   0  0  0  0  0  0  0  0  0  0  0  0
  186.5940  178.9670  141.5280 C   0  0  0  0  0  2  0  0  0  0  0  0
  183.2940  179.0150  144.8290 C   0  0  0  0  0  2  0  0  0  0  0  0
  184.5500  178.9230  143.0120 C   0  0  1  0  0  0  0  0  0  0  0  0
  186.5290  177.5800  143.7590 C   0  0  0  0  0  2  0  0  0  0  0  0
  185.0620  179.1920  141.6130 C   0  0  2  0  0  3  0  0  0  0  0  0
  185.0560  178.4770  146.4830 C   0  0  0  0  0  2  0  0  0  0  0  0
  185.5710  178.7170  144.0960 C   0  0  2  0  0  3  0  0  0  0  0  0
  184.3430  177.8750  141.9110 C   0  0  2  0  0  3  0  0  0  0  0  0
  187.1800  177.8000  142.3750 C   0  0  2  0  0  3  0  0  0  0  0  0
  188.6110  177.9790  142.5290 N   0  0  0  0  0  1  0  0  0  0  0  0
  184.6490  178.4990  145.2150 C   0  0  0  0  0  0  0  0  0  0  0  0
  1  5  1  0  0  0  0
  1  3  1  0  0  0  0
  2  7  1  6  0  0  0
  2  4  1  0  0  0  0
  3 17  1  1  0  0  0
  4 10  1  1  0  0  0
  4  3  1  0  0  0  0
  6  2  1  0  0  0  0
  6  5  1  0  0  0  0
 10  8  1  6  0  0  0
 10 12  1  0  0  0  0
 11 14  1  6  0  0  0
 11 12  1  0  0  0  0
 12  9  2  0  0  0  0
 13 16  1  1  0  0  0
 13  8  1  0  0  0  0
 13 11  1  0  0  0  0
 15 16  1  0  0  0  0
 18 20  1  0  0  0  0
 19 27  1  0  0  0  0
 20 29  1  0  0  0  0
 21 18  1  1  0  0  0
 21 25  1  0  0  0  0
 23 19  1  1  0  0  0
 23 26  1  0  0  0  0
 23 21  1  0  0  0  0
 25 22  1  6  0  0  0
 25 29  1  0  0  0  0
 26 17  1  6  0  0  0
 26 21  1  0  0  0  0
 27 28  1  1  0  0  0
 27 22  1  0  0  0  0
 29 24  2  0  0  0  0
M  END
>  <MODEL>
2

>  <REMARK>
 VINA RESULT:      -7.3      6.904      9.324
  Name = 
  4 active torsions:
  status: ('A' for Active; 'I' for Inactive)
    1  A    between atoms: C_11  and  C_17
    2  A    between atoms: C_13  and  C_29
    3  A    between atoms: C_15  and  C_29
    4  A    between atoms: C_20  and  C_25
                            x       y       z     vdW  Elec       q    Type
                         _______ _______ _______ _____ _____    ______ ____

>  <TORSDO>
F 4

$$$$
=
 OpenBabel11062416313D

 29 33  0  0  1  0  0  0  0  0999 V2000
  183.6820  179.9510  144.2320 C   0  0  0  0  0  2  0  0  0  0  0  0
  185.6900  178.0550  144.9480 C   0  0  2  0  0  3  0  0  0  0  0  0
  184.4020  179.2560  143.0790 C   0  0  1  0  0  3  0  0  0  0  0  0
  185.7660  178.7220  143.5580 C   0  0  2  0  0  3  0  0  0  0  0  0
  183.6380  179.0650  145.3940 N   0  0  0  0  0  2  0  0  0  0  0  0
  184.9560  178.9230  145.8700 N   0  0  0  0  0  2  0  0  0  0  0  0
  187.0820  177.8350  145.5120 C   0  0  0  0  0  1  0  0  0  0  0  0
  186.8400  178.8350  141.3960 O   0  0  0  0  0  0  0  0  0  0  0  0
  187.8620  176.2130  143.6320 C   0  0  0  0  0  2  0  0  0  0  0  0
  186.5440  177.9610  142.4620 C   0  0  1  0  0  3  0  0  0  0  0  0
  188.8960  177.7130  142.0050 C   0  0  1  0  0  3  0  0  0  0  0  0
  187.8130  177.3300  142.9080 C   0  0  0  0  0  0  0  0  0  0  0  0
  188.2010  178.6600  141.0450 C   0  0  1  0  0  3  0  0  0  0  0  0
  189.8800  178.4030  142.7140 O   0  0  0  0  0  1  0  0  0  0  0  0
  188.9840  179.1110  138.8190 O   0  0  0  0  0  1  0  0  0  0  0  0
  188.3200  178.1690  139.6080 C   0  0  0  0  0  2  0  0  0  0  0  0
  183.4990  178.1750  142.4980 C   0  0  0  0  0  2  0  0  0  0  0  0
  180.7820  178.4450  142.5480 O   0  0  0  0  0  0  0  0  0  0  0  0
  182.0620  177.7170  139.0200 C   0  0  0  0  0  2  0  0  0  0  0  0
  180.0940  179.6630  142.7800 C   0  0  0  0  0  2  0  0  0  0  0  0
  181.3080  178.6140  141.2590 C   0  0  1  0  0  0  0  0  0  0  0  0
  181.3090  180.2150  139.3320 C   0  0  0  0  0  2  0  0  0  0  0  0
  182.0950  177.5260  140.5590 C   0  0  2  0  0  3  0  0  0  0  0  0
  178.9310  181.2310  141.2570 C   0  0  0  0  0  2  0  0  0  0  0  0
  180.4720  179.5240  140.4020 C   0  0  2  0  0  3  0  0  0  0  0  0
  182.8400  178.6850  141.2260 C   0  0  2  0  0  3  0  0  0  0  0  0
  182.0940  179.1820  138.4940 C   0  0  2  0  0  3  0  0  0  0  0  0
  181.6360  179.2150  137.1180 N   0  0  0  0  0  1  0  0  0  0  0  0
  179.9250  180.3720  141.4670 C   0  0  0  0  0  0  0  0  0  0  0  0
  1  5  1  0  0  0  0
  2  7  1  1  0  0  0
  2  6  1  0  0  0  0
  3 17  1  1  0  0  0
  3  4  1  0  0  0  0
  3  1  1  0  0  0  0
  4 10  1  6  0  0  0
  4  2  1  0  0  0  0
  5  6  1  0  0  0  0
 10  8  1  6  0  0  0
 10 12  1  0  0  0  0
 11 14  1  1  0  0  0
 11 12  1  0  0  0  0
 12  9  2  0  0  0  0
 13 16  1  6  0  0  0
 13  8  1  0  0  0  0
 13 11  1  0  0  0  0
 15 16  1  0  0  0  0
 18 20  1  0  0  0  0
 21 18  1  1  0  0  0
 23 19  1  6  0  0  0
 23 26  1  0  0  0  0
 23 21  1  0  0  0  0
 24 29  2  0  0  0  0
 25 22  1  6  0  0  0
 25 21  1  0  0  0  0
 25 29  1  0  0  0  0
 26 21  1  0  0  0  0
 26 17  1  1  0  0  0
 27 28  1  6  0  0  0
 27 19  1  0  0  0  0
 27 22  1  0  0  0  0
 29 20  1  0  0  0  0
M  END
>  <MODEL>
3

>  <REMARK>
 VINA RESULT:      -7.3      5.284      8.465
  Name = 
  4 active torsions:
  status: ('A' for Active; 'I' for Inactive)
    1  A    between atoms: C_11  and  C_17
    2  A    between atoms: C_13  and  C_29
    3  A    between atoms: C_15  and  C_29
    4  A    between atoms: C_20  and  C_25
                            x       y       z     vdW  Elec       q    Type
                         _______ _______ _______ _____ _____    ______ ____

>  <TORSDO>
F 4

$$$$
=
 OpenBabel11062416313D

 29 33  0  0  1  0  0  0  0  0999 V2000
  188.3640  176.4710  137.7260 C   0  0  0  0  0  2  0  0  0  0  0  0
  190.6900  176.2790  136.0860 C   0  0  2  0  0  3  0  0  0  0  0  0
  189.6440  176.0090  138.4160 C   0  0  1  0  0  3  0  0  0  0  0  0
  190.6230  175.4310  137.3750 C   0  0  2  0  0  3  0  0  0  0  0  0
  188.6940  177.3580  136.6130 N   0  0  0  0  0  2  0  0  0  0  0  0
  189.3340  176.5830  135.6280 N   0  0  0  0  0  2  0  0  0  0  0  0
  191.4050  175.5200  134.9840 C   0  0  0  0  0  1  0  0  0  0  0  0
  192.3410  173.7330  137.4460 O   0  0  0  0  0  0  0  0  0  0  0  0
  193.2390  177.0590  138.4700 C   0  0  0  0  0  2  0  0  0  0  0  0
  191.9690  174.9820  137.9840 C   0  0  1  0  0  3  0  0  0  0  0  0
  194.2500  175.2060  137.2430 C   0  0  1  0  0  3  0  0  0  0  0  0
  193.1010  175.9250  137.7860 C   0  0  0  0  0  0  0  0  0  0  0  0
  193.7040  173.8010  137.0710 C   0  0  1  0  0  3  0  0  0  0  0  0
  194.5920  175.7320  135.9960 O   0  0  0  0  0  1  0  0  0  0  0  0
  195.2560  173.4330  138.8680 O   0  0  0  0  0  1  0  0  0  0  0  0
  194.5260  172.7930  137.8640 C   0  0  0  0  0  2  0  0  0  0  0  0
  190.2290  177.1640  139.2210 C   0  0  0  0  0  2  0  0  0  0  0  0
  188.7650  178.7050  140.9350 O   0  0  0  0  0  0  0  0  0  0  0  0
  191.8250  177.1970  142.6590 C   0  0  0  0  0  2  0  0  0  0  0  0
  187.4780  178.3700  141.4260 C   0  0  0  0  0  2  0  0  0  0  0  0
  189.6100  177.8150  141.6130 C   0  0  1  0  0  0  0  0  0  0  0  0
  189.5800  176.0380  143.3800 C   0  0  0  0  0  2  0  0  0  0  0  0
  191.1130  177.8360  141.4380 C   0  0  2  0  0  3  0  0  0  0  0  0
  186.7100  177.4890  143.6090 C   0  0  0  0  0  2  0  0  0  0  0  0
  189.0750  177.4140  142.9590 C   0  0  2  0  0  3  0  0  0  0  0  0
  190.2840  176.7880  140.6930 C   0  0  2  0  0  3  0  0  0  0  0  0
  191.1230  175.9770  143.3210 C   0  0  2  0  0  3  0  0  0  0  0  0
  191.6570  175.7710  144.6540 N   0  0  0  0  0  1  0  0  0  0  0  0
  187.6440  177.5330  142.6610 C   0  0  0  0  0  0  0  0  0  0  0  0
  1  3  1  0  0  0  0
  2  7  1  6  0  0  0
  2  4  1  0  0  0  0
  3 17  1  6  0  0  0
  4 10  1  1  0  0  0
  4  3  1  0  0  0  0
  5  1  1  0  0  0  0
  6  2  1  0  0  0  0
  6  5  1  0  0  0  0
 10  8  1  6  0  0  0
 11 14  1  6  0  0  0
 11 12  1  0  0  0  0
 12 10  1  0  0  0  0
 12  9  2  0  0  0  0
 13 11  1  0  0  0  0
 13  8  1  0  0  0  0
 13 16  1  1  0  0  0
 16 15  1  0  0  0  0
 18 20  1  0  0  0  0
 19 27  1  0  0  0  0
 20 29  1  0  0  0  0
 21 18  1  6  0  0  0
 21 25  1  0  0  0  0
 23 21  1  0  0  0  0
 23 19  1  1  0  0  0
 25 22  1  6  0  0  0
 26 17  1  6  0  0  0
 26 23  1  0  0  0  0
 26 21  1  0  0  0  0
 27 22  1  0  0  0  0
 27 28  1  1  0  0  0
 29 25  1  0  0  0  0
 29 24  2  0  0  0  0
M  END
>  <MODEL>
4

>  <REMARK>
 VINA RESULT:      -7.2      2.056      3.198
  Name = 
  4 active torsions:
  status: ('A' for Active; 'I' for Inactive)
    1  A    between atoms: C_11  and  C_17
    2  A    between atoms: C_13  and  C_29
    3  A    between atoms: C_15  and  C_29
    4  A    between atoms: C_20  and  C_25
                            x       y       z     vdW  Elec       q    Type
                         _______ _______ _______ _____ _____    ______ ____

>  <TORSDO>
F 4

$$$$
=
 OpenBabel11062416313D

 29 33  0  0  1  0  0  0  0  0999 V2000
  192.0890  177.9120  141.0000 C   0  0  0  0  0  2  0  0  0  0  0  0
  192.3480  176.4710  138.5520 C   0  0  2  0  0  3  0  0  0  0  0  0
  190.8170  177.7460  140.1730 C   0  0  1  0  0  3  0  0  0  0  0  0
  191.1810  177.4710  138.7000 C   0  0  2  0  0  3  0  0  0  0  0  0
  192.9800  176.7760  140.7730 N   0  0  0  0  0  2  0  0  0  0  0  0
  193.4410  176.8560  139.4460 N   0  0  0  0  0  2  0  0  0  0  0  0
  192.8750  176.4740  137.1280 C   0  0  0  0  0  1  0  0  0  0  0  0
  189.3140  176.0350  138.1580 O   0  0  0  0  0  0  0  0  0  0  0  0
  189.0860  179.4960  137.2170 C   0  0  0  0  0  2  0  0  0  0  0  0
  189.9480  177.2420  137.7990 C   0  0  1  0  0  3  0  0  0  0  0  0
  187.6090  177.7510  138.0750 C   0  0  1  0  0  3  0  0  0  0  0  0
  188.9300  178.3250  137.8310 C   0  0  0  0  0  0  0  0  0  0  0  0
  187.9220  176.2760  138.2530 C   0  0  1  0  0  3  0  0  0  0  0  0
  187.0830  178.2640  139.2620 O   0  0  0  0  0  1  0  0  0  0  0  0
  186.4740  176.2420  136.3350 O   0  0  0  0  0  1  0  0  0  0  0  0
  187.1650  175.4300  137.2380 C   0  0  0  0  0  2  0  0  0  0  0  0
  189.9500  176.6580  140.7950 C   0  0  0  0  0  2  0  0  0  0  0  0
  190.7130  175.2280  142.9920 O   0  0  0  0  0  0  0  0  0  0  0  0
  187.2960  176.8650  143.4940 C   0  0  0  0  0  2  0  0  0  0  0  0
  191.7710  175.5890  143.8650 C   0  0  0  0  0  2  0  0  0  0  0  0
  189.7150  176.1660  143.2920 C   0  0  1  0  0  0  0  0  0  0  0  0
  189.2020  178.0570  144.8540 C   0  0  0  0  0  2  0  0  0  0  0  0
  188.3570  176.1410  142.6250 C   0  0  2  0  0  3  0  0  0  0  0  0
  191.7900  176.6100  146.1200 C   0  0  0  0  0  2  0  0  0  0  0  0
  189.7810  176.6540  144.7120 C   0  0  2  0  0  3  0  0  0  0  0  0
  189.4160  177.1330  142.1380 C   0  0  2  0  0  3  0  0  0  0  0  0
  187.7700  178.1230  144.2770 C   0  0  2  0  0  3  0  0  0  0  0  0
  186.8280  178.4210  145.3390 N   0  0  0  0  0  1  0  0  0  0  0  0
  191.2260  176.5070  144.9190 C   0  0  0  0  0  0  0  0  0  0  0  0
  2  7  1  6  0  0  0
  2  4  1  0  0  0  0
  2  6  1  0  0  0  0
  3 17  1  1  0  0  0
  3  1  1  0  0  0  0
  4 10  1  6  0  0  0
  4  3  1  0  0  0  0
  5  1  1  0  0  0  0
  6  5  1  0  0  0  0
  8 13  1  0  0  0  0
  9 12  2  0  0  0  0
 10 12  1  1  0  0  0
 10  8  1  0  0  0  0
 11 13  1  0  0  0  0
 11 14  1  1  0  0  0
 12 11  1  0  0  0  0
 13 16  1  6  0  0  0
 15 16  1  0  0  0  0
 18 20  1  0  0  0  0
 19 27  1  0  0  0  0
 20 29  1  0  0  0  0
 21 18  1  6  0  0  0
 21 25  1  0  0  0  0
 23 21  1  0  0  0  0
 23 19  1  1  0  0  0
 25 22  1  6  0  0  0
 25 29  1  0  0  0  0
 26 17  1  6  0  0  0
 26 23  1  0  0  0  0
 26 21  1  0  0  0  0
 27 22  1  0  0  0  0
 27 28  1  1  0  0  0
 29 24  2  0  0  0  0
M  END
>  <MODEL>
5

>  <REMARK>
 VINA RESULT:      -7.2      2.320      3.588
  Name = 
  4 active torsions:
  status: ('A' for Active; 'I' for Inactive)
    1  A    between atoms: C_11  and  C_17
    2  A    between atoms: C_13  and  C_29
    3  A    between atoms: C_15  and  C_29
    4  A    between atoms: C_20  and  C_25
                            x       y       z     vdW  Elec       q    Type
                         _______ _______ _______ _____ _____    ______ ____

>  <TORSDO>
F 4

$$$$
=
 OpenBabel11062416313D

 29 33  0  0  1  0  0  0  0  0999 V2000
  186.7520  178.3520  146.8150 C   0  0  0  0  0  2  0  0  0  0  0  0
  189.2410  176.9860  146.5360 C   0  0  2  0  0  3  0  0  0  0  0  0
  187.3120  178.2440  145.4000 C   0  0  1  0  0  3  0  0  0  0  0  0
  188.8340  178.0090  145.4540 C   0  0  2  0  0  3  0  0  0  0  0  0
  187.1830  177.2020  147.6080 N   0  0  0  0  0  2  0  0  0  0  0  0
  188.5740  177.3140  147.7970 N   0  0  0  0  0  2  0  0  0  0  0  0
  190.7400  177.0230  146.7690 C   0  0  0  0  0  1  0  0  0  0  0  0
  190.7150  178.5120  144.0230 O   0  0  0  0  0  0  0  0  0  0  0  0
  188.7240  175.6320  143.2110 C   0  0  0  0  0  2  0  0  0  0  0  0
  189.4770  177.8400  144.0590 C   0  0  1  0  0  3  0  0  0  0  0  0
  191.0800  176.2710  143.1820 C   0  0  1  0  0  3  0  0  0  0  0  0
  189.7000  176.4340  143.6310 C   0  0  0  0  0  0  0  0  0  0  0  0
  191.6710  177.6460  143.4370 C   0  0  1  0  0  3  0  0  0  0  0  0
  191.7280  175.3270  143.9800 O   0  0  0  0  0  1  0  0  0  0  0  0
  191.8240  177.5030  141.0430 O   0  0  0  0  0  1  0  0  0  0  0  0
  192.2220  178.2520  142.1530 C   0  0  0  0  0  2  0  0  0  0  0  0
  186.5580  177.1580  144.6400 C   0  0  0  0  0  2  0  0  0  0  0  0
  186.9670  178.7300  142.4460 O   0  0  0  0  0  0  0  0  0  0  0  0
  183.8110  179.7530  144.3440 C   0  0  0  0  0  2  0  0  0  0  0  0
  186.8380  178.2950  141.1030 C   0  0  0  0  0  2  0  0  0  0  0  0
  185.6400  178.7840  142.8960 C   0  0  1  0  0  0  0  0  0  0  0  0
  183.2820  178.4960  142.0980 C   0  0  0  0  0  2  0  0  0  0  0  0
  185.2780  179.2530  144.2890 C   0  0  2  0  0  3  0  0  0  0  0  0
  185.0600  178.6280  139.4110 C   0  0  0  0  0  2  0  0  0  0  0  0
  184.6610  179.0700  141.7910 C   0  0  2  0  0  3  0  0  0  0  0  0
  185.3210  177.7530  143.9870 C   0  0  2  0  0  3  0  0  0  0  0  0
  182.7750  178.9860  143.4720 C   0  0  2  0  0  3  0  0  0  0  0  0
  181.5880  179.8010  143.2950 N   0  0  0  0  0  1  0  0  0  0  0  0
  185.4050  178.4580  140.6860 C   0  0  0  0  0  0  0  0  0  0  0  0
  1  5  1  0  0  0  0
  2  7  1  1  0  0  0
  2  6  1  0  0  0  0
  3 17  1  1  0  0  0
  3  4  1  0  0  0  0
  3  1  1  0  0  0  0
  4 10  1  6  0  0  0
  4  2  1  0  0  0  0
  5  6  1  0  0  0  0
  8 10  1  0  0  0  0
  9 12  2  0  0  0  0
 10 12  1  1  0  0  0
 11 13  1  0  0  0  0
 11 12  1  0  0  0  0
 11 14  1  1  0  0  0
 13 16  1  6  0  0  0
 13  8  1  0  0  0  0
 15 16  1  0  0  0  0
 20 18  1  0  0  0  0
 21 18  1  6  0  0  0
 21 26  1  0  0  0  0
 21 23  1  0  0  0  0
 22 27  1  0  0  0  0
 23 19  1  6  0  0  0
 24 29  2  0  0  0  0
 25 22  1  1  0  0  0
 25 21  1  0  0  0  0
 26 23  1  0  0  0  0
 26 17  1  1  0  0  0
 27 28  1  6  0  0  0
 27 19  1  0  0  0  0
 29 20  1  0  0  0  0
 29 25  1  0  0  0  0
M  END
>  <MODEL>
6

>  <REMARK>
 VINA RESULT:      -7.2      3.886      6.653
  Name = 
  4 active torsions:
  status: ('A' for Active; 'I' for Inactive)
    1  A    between atoms: C_11  and  C_17
    2  A    between atoms: C_13  and  C_29
    3  A    between atoms: C_15  and  C_29
    4  A    between atoms: C_20  and  C_25
                            x       y       z     vdW  Elec       q    Type
                         _______ _______ _______ _____ _____    ______ ____

>  <TORSDO>
F 4

$$$$
=
 OpenBabel11062416313D

 29 33  0  0  1  0  0  0  0  0999 V2000
  181.4340  178.6250  141.8370 C   0  0  0  0  0  2  0  0  0  0  0  0
  181.3580  178.2270  139.0130 C   0  0  2  0  0  3  0  0  0  0  0  0
  182.6080  177.8630  141.2270 C   0  0  1  0  0  3  0  0  0  0  0  0
  182.1910  177.2540  139.8730 C   0  0  2  0  0  3  0  0  0  0  0  0
  180.8950  179.5690  140.8600 N   0  0  0  0  0  2  0  0  0  0  0  0
  180.2980  178.8200  139.8290 N   0  0  0  0  0  2  0  0  0  0  0  0
  180.7100  177.4940  137.8530 C   0  0  0  0  0  1  0  0  0  0  0  0
  182.8850  175.2390  138.7340 O   0  0  0  0  0  0  0  0  0  0  0  0
  184.7520  178.2420  138.0970 C   0  0  0  0  0  2  0  0  0  0  0  0
  183.3390  176.5020  139.1630 C   0  0  1  0  0  3  0  0  0  0  0  0
  183.9650  176.2990  136.8460 C   0  0  1  0  0  3  0  0  0  0  0  0
  183.9250  177.2040  137.9910 C   0  0  0  0  0  0  0  0  0  0  0  0
  183.3050  175.0480  137.3950 C   0  0  1  0  0  3  0  0  0  0  0  0
  183.1930  176.8190  135.8060 O   0  0  0  0  0  1  0  0  0  0  0  0
  185.5580  174.2630  137.1150 O   0  0  0  0  0  1  0  0  0  0  0  0
  184.2370  173.8480  137.2950 C   0  0  0  0  0  2  0  0  0  0  0  0
  183.8140  178.7900  141.1270 C   0  0  0  0  0  2  0  0  0  0  0  0
  184.2790  179.9700  143.5450 O   0  0  0  0  0  0  0  0  0  0  0  0
  187.4770  178.4950  142.0590 C   0  0  0  0  0  2  0  0  0  0  0  0
  183.8190  179.4710  144.7910 C   0  0  0  0  0  2  0  0  0  0  0  0
  185.2930  179.0670  143.1930 C   0  0  1  0  0  0  0  0  0  0  0  0
  186.5410  177.0760  144.0620 C   0  0  0  0  0  2  0  0  0  0  0  0
  186.1170  179.2310  141.9340 C   0  0  2  0  0  3  0  0  0  0  0  0
  184.9630  178.2510  146.6170 C   0  0  0  0  0  2  0  0  0  0  0  0
  185.9660  178.4510  144.3870 C   0  0  2  0  0  3  0  0  0  0  0  0
  184.9620  178.2280  141.9520 C   0  0  2  0  0  3  0  0  0  0  0  0
  187.4750  177.1460  142.8340 C   0  0  2  0  0  3  0  0  0  0  0  0
  188.8300  176.8080  143.2280 N   0  0  0  0  0  1  0  0  0  0  0  0
  184.8320  178.4940  145.3150 C   0  0  0  0  0  0  0  0  0  0  0  0
  2  7  1  6  0  0  0
  2  6  1  0  0  0  0
  2  4  1  0  0  0  0
  3 17  1  6  0  0  0
  3  1  1  0  0  0  0
  4 10  1  6  0  0  0
  4  3  1  0  0  0  0
  5  1  1  0  0  0  0
  6  5  1  0  0  0  0
  8 10  1  0  0  0  0
 10 12  1  6  0  0  0
 11 14  1  6  0  0  0
 11 13  1  0  0  0  0
 11 12  1  0  0  0  0
 12  9  2  0  0  0  0
 13 16  1  1  0  0  0
 13  8  1  0  0  0  0
 15 16  1  0  0  0  0
 18 20  1  0  0  0  0
 19 27  1  0  0  0  0
 20 29  1  0  0  0  0
 21 18  1  1  0  0  0
 21 25  1  0  0  0  0
 23 26  1  0  0  0  0
 23 19  1  1  0  0  0
 23 21  1  0  0  0  0
 25 22  1  6  0  0  0
 25 29  1  0  0  0  0
 26 17  1  6  0  0  0
 26 21  1  0  0  0  0
 27 28  1  1  0  0  0
 27 22  1  0  0  0  0
 29 24  2  0  0  0  0
M  END
>  <MODEL>
7

>  <REMARK>
 VINA RESULT:      -7.2      5.297      7.235
  Name = 
  4 active torsions:
  status: ('A' for Active; 'I' for Inactive)
    1  A    between atoms: C_11  and  C_17
    2  A    between atoms: C_13  and  C_29
    3  A    between atoms: C_15  and  C_29
    4  A    between atoms: C_20  and  C_25
                            x       y       z     vdW  Elec       q    Type
                         _______ _______ _______ _____ _____    ______ ____

>  <TORSDO>
F 4

$$$$
=
 OpenBabel11062416313D

 29 33  0  0  1  0  0  0  0  0999 V2000
  182.6160  177.5690  141.0460 C   0  0  0  0  0  2  0  0  0  0  0  0
  182.2690  179.0520  138.6330 C   0  0  2  0  0  3  0  0  0  0  0  0
  183.8470  177.7140  140.1550 C   0  0  1  0  0  3  0  0  0  0  0  0
  183.4140  178.0200  138.7070 C   0  0  2  0  0  3  0  0  0  0  0  0
  181.7460  178.7320  140.8810 N   0  0  0  0  0  2  0  0  0  0  0  0
  181.2140  178.6840  139.5790 N   0  0  0  0  0  2  0  0  0  0  0  0
  181.6670  179.0840  137.2400 C   0  0  0  0  0  1  0  0  0  0  0  0
  185.7860  178.4270  138.4870 O   0  0  0  0  0  0  0  0  0  0  0  0
  184.0890  176.9080  135.7070 C   0  0  0  0  0  2  0  0  0  0  0  0
  184.6040  178.2290  137.7450 C   0  0  1  0  0  3  0  0  0  0  0  0
  186.2470  176.7210  136.8340 C   0  0  1  0  0  3  0  0  0  0  0  0
  184.8430  177.1200  136.7840 C   0  0  0  0  0  0  0  0  0  0  0  0
  186.8010  177.6140  137.9290 C   0  0  1  0  0  3  0  0  0  0  0  0
  186.3450  175.3850  137.2240 O   0  0  0  0  0  1  0  0  0  0  0  0
  188.6860  179.0020  138.4690 O   0  0  0  0  0  1  0  0  0  0  0  0
  187.9460  178.4730  137.4090 C   0  0  0  0  0  2  0  0  0  0  0  0
  184.7750  178.7690  140.7450 C   0  0  0  0  0  2  0  0  0  0  0  0
  184.9470  179.9560  143.1970 O   0  0  0  0  0  0  0  0  0  0  0  0
  188.1900  178.1570  142.2720 C   0  0  0  0  0  2  0  0  0  0  0  0
  184.2440  179.5310  144.3530 C   0  0  0  0  0  2  0  0  0  0  0  0
  185.9140  178.9550  143.0240 C   0  0  1  0  0  0  0  0  0  0  0  0
  186.8070  176.8780  144.1040 C   0  0  0  0  0  2  0  0  0  0  0  0
  186.9460  179.0130  141.9180 C   0  0  2  0  0  3  0  0  0  0  0  0
  184.9500  178.2530  146.3530 C   0  0  0  0  0  2  0  0  0  0  0  0
  186.3210  178.3070  144.3180 C   0  0  2  0  0  3  0  0  0  0  0  0
  185.7130  178.1220  141.7520 C   0  0  2  0  0  3  0  0  0  0  0  0
  187.9320  176.8320  143.0460 C   0  0  2  0  0  3  0  0  0  0  0  0
  189.1650  176.3790  143.6620 N   0  0  0  0  0  1  0  0  0  0  0  0
  185.0580  178.4770  145.0450 C   0  0  0  0  0  0  0  0  0  0  0  0
  2  7  1  6  0  0  0
  2  4  1  0  0  0  0
  2  6  1  0  0  0  0
  3 17  1  1  0  0  0
  3  1  1  0  0  0  0
  4 10  1  6  0  0  0
  4  3  1  0  0  0  0
  5  1  1  0  0  0  0
  6  5  1  0  0  0  0
  9 12  2  0  0  0  0
 10 12  1  6  0  0  0
 10  8  1  0  0  0  0
 11 14  1  1  0  0  0
 11 13  1  0  0  0  0
 12 11  1  0  0  0  0
 13 16  1  6  0  0  0
 13  8  1  0  0  0  0
 16 15  1  0  0  0  0
 18 20  1  0  0  0  0
 19 27  1  0  0  0  0
 20 29  1  0  0  0  0
 21 18  1  1  0  0  0
 21 25  1  0  0  0  0
 23 19  1  1  0  0  0
 23 21  1  0  0  0  0
 25 22  1  6  0  0  0
 25 29  1  0  0  0  0
 26 17  1  6  0  0  0
 26 23  1  0  0  0  0
 26 21  1  0  0  0  0
 27 28  1  1  0  0  0
 27 22  1  0  0  0  0
 29 24  2  0  0  0  0
M  END
>  <MODEL>
8

>  <REMARK>
 VINA RESULT:      -6.9      4.383      6.325
  Name = 
  4 active torsions:
  status: ('A' for Active; 'I' for Inactive)
    1  A    between atoms: C_11  and  C_17
    2  A    between atoms: C_13  and  C_29
    3  A    between atoms: C_15  and  C_29
    4  A    between atoms: C_20  and  C_25
                            x       y       z     vdW  Elec       q    Type
                         _______ _______ _______ _____ _____    ______ ____

>  <TORSDO>
F 4

$$$$
=
 OpenBabel11062416313D

 29 33  0  0  1  0  0  0  0  0999 V2000
  189.1830  175.6280  142.5450 C   0  0  0  0  0  2  0  0  0  0  0  0
  190.8460  177.0060  144.4080 C   0  0  2  0  0  3  0  0  0  0  0  0
  188.4860  176.6160  143.4750 C   0  0  1  0  0  3  0  0  0  0  0  0
  189.3450  176.8500  144.7330 C   0  0  2  0  0  3  0  0  0  0  0  0
  190.5560  176.0650  142.2970 N   0  0  0  0  0  2  0  0  0  0  0  0
  191.2670  175.9350  143.5040 N   0  0  0  0  0  2  0  0  0  0  0  0
  191.6790  176.9150  145.6740 C   0  0  0  0  0  1  0  0  0  0  0  0
  187.3340  177.9200  145.5390 O   0  0  0  0  0  0  0  0  0  0  0  0
  190.1910  177.8810  147.7190 C   0  0  0  0  0  2  0  0  0  0  0  0
  188.7330  177.8770  145.7100 C   0  0  1  0  0  3  0  0  0  0  0  0
  187.7660  177.6630  147.9060 C   0  0  1  0  0  3  0  0  0  0  0  0
  189.0140  177.6300  147.1480 C   0  0  0  0  0  0  0  0  0  0  0  0
  186.7300  177.8770  146.8190 C   0  0  1  0  0  3  0  0  0  0  0  0
  187.5530  176.4290  148.5210 O   0  0  0  0  0  1  0  0  0  0  0  0
  184.6190  179.0030  146.5930 O   0  0  0  0  0  1  0  0  0  0  0  0
  185.9240  179.1450  147.0700 C   0  0  0  0  0  2  0  0  0  0  0  0
  188.1740  177.8970  142.7090 C   0  0  0  0  0  2  0  0  0  0  0  0
  187.3020  179.0030  140.3700 O   0  0  0  0  0  0  0  0  0  0  0  0
  184.8720  179.6810  143.2420 C   0  0  0  0  0  2  0  0  0  0  0  0
  186.8380  178.2670  139.2500 C   0  0  0  0  0  2  0  0  0  0  0  0
  186.2670  178.8540  141.3040 C   0  0  1  0  0  0  0  0  0  0  0  0
  183.9730  177.8790  141.5550 C   0  0  0  0  0  2  0  0  0  0  0  0
  186.3020  179.5230  142.6620 C   0  0  2  0  0  3  0  0  0  0  0  0
  184.5620  177.8160  138.3860 C   0  0  0  0  0  2  0  0  0  0  0  0
  184.9220  178.6660  140.6590 C   0  0  2  0  0  3  0  0  0  0  0  0
  186.6700  178.0420  142.5420 C   0  0  2  0  0  3  0  0  0  0  0  0
  183.8660  178.5300  142.9520 C   0  0  2  0  0  3  0  0  0  0  0  0
  182.5110  178.9990  143.1720 N   0  0  0  0  0  1  0  0  0  0  0  0
  185.3690  178.0100  139.4260 C   0  0  0  0  0  0  0  0  0  0  0  0
  1  3  1  0  0  0  0
  2  4  1  0  0  0  0
  2  7  1  1  0  0  0
  3 17  1  6  0  0  0
  3  4  1  0  0  0  0
  4 10  1  6  0  0  0
  5  1  1  0  0  0  0
  5  6  1  0  0  0  0
  6  2  1  0  0  0  0
  8 13  1  0  0  0  0
 10  8  1  1  0  0  0
 10 12  1  0  0  0  0
 11 14  1  6  0  0  0
 12  9  2  0  0  0  0
 12 11  1  0  0  0  0
 13 16  1  1  0  0  0
 13 11  1  0  0  0  0
 15 16  1  0  0  0  0
 20 29  1  0  0  0  0
 20 18  1  0  0  0  0
 21 18  1  6  0  0  0
 21 26  1  0  0  0  0
 21 23  1  0  0  0  0
 22 27  1  0  0  0  0
 23 19  1  1  0  0  0
 24 29  2  0  0  0  0
 25 21  1  0  0  0  0
 25 22  1  1  0  0  0
 26 23  1  0  0  0  0
 26 17  1  6  0  0  0
 27 28  1  6  0  0  0
 27 19  1  0  0  0  0
 29 25  1  0  0  0  0
M  END
>  <MODEL>
9

>  <REMARK>
 VINA RESULT:      -6.9      4.230      7.869
  Name = 
  4 active torsions:
  status: ('A' for Active; 'I' for Inactive)
    1  A    between atoms: C_11  and  C_17
    2  A    between atoms: C_13  and  C_29
    3  A    between atoms: C_15  and  C_29
    4  A    between atoms: C_20  and  C_25
                            x       y       z     vdW  Elec       q    Type
                         _______ _______ _______ _____ _____    ______ ____

>  <TORSDO>
F 4

$$$$
