=
 OpenBabel11062412093D

 54 56  0  0  1  0  0  0  0  0999 V2000
  185.1890  178.6580  143.4530 C   0  0  2  0  0  3  0  0  0  0  0  0
  187.6130  177.9060  141.8090 C   0  0  0  0  0  2  0  0  0  0  0  0
  186.3110  178.6590  139.8160 C   0  0  0  0  0  0  0  0  0  0  0  0
  186.5780  178.3160  144.0710 C   0  0  2  0  0  3  0  0  0  0  0  0
  186.4020  178.5560  141.1710 C   0  0  0  0  0  0  0  0  0  0  0  0
  187.2400  177.2580  143.1330 C   0  0  0  0  0  2  0  0  0  0  0  0
  185.2560  179.4300  139.3190 O   0  0  0  0  0  1  0  0  0  0  0  0
  185.2540  179.1660  141.9900 C   0  0  0  0  0  2  0  0  0  0  0  0
  186.8050  177.8910  145.5590 C   0  0  0  0  0  0  0  0  0  0  0  0
  185.9100  178.0280  146.4010 O   0  0  0  0  0  0  0  0  0  0  0  0
  188.0890  177.3140  145.8980 O   0  0  0  0  0  0  0  0  0  0  0  0
  189.2830  178.0950  145.9040 C   0  0  0  0  0  2  0  0  0  0  0  0
  189.5030  178.8600  144.7280 O   0  0  0  0  0  0  0  0  0  0  0  0
  190.8560  179.2930  144.6490 C   0  0  0  0  0  2  0  0  0  0  0  0
  191.4340  179.2120  143.3520 O   0  0  0  0  0  0  0  0  0  0  0  0
  190.9230  177.8910  143.2110 C   0  0  2  0  0  3  0  0  0  0  0  0
  191.9400  176.7610  143.1220 C   0  0  2  0  0  3  0  0  0  0  0  0
  191.0270  176.9940  141.9600 C   0  0  2  0  0  3  0  0  0  0  0  0
  191.6590  176.9270  139.5400 C   0  0  0  0  0  0  0  0  0  0  0  0
  191.7250  177.4130  140.7540 C   0  0  0  0  0  3  0  0  0  0  0  0
  190.8830  176.5660  137.3210 O   0  0  0  0  0  1  0  0  0  0  0  0
  191.8880  176.5890  138.2950 C   0  0  0  0  0  0  0  0  0  0  0  0
  193.3370  176.5560  137.8720 C   0  0  0  0  0  2  0  0  0  0  0  0
  193.7190  175.8520  136.5910 C   0  0  1  0  0  3  0  0  0  0  0  0
  194.1690  176.8040  135.6550 O   0  0  0  0  0  1  0  0  0  0  0  0
  195.9200  175.0810  138.1710 O   0  0  0  0  0  1  0  0  0  0  0  0
  193.8970  173.4960  137.8050 O   0  0  0  0  0  1  0  0  0  0  0  0
  194.9480  174.5000  136.8480 P   0  0  0  0  0  0  0  0  0  0  0  0
  190.2970  175.1240  143.3250 O   0  0  0  0  0  1  0  0  0  0  0  0
  191.6230  175.2980  143.6020 C   0  0  2  0  0  3  0  0  0  0  0  0
  192.0370  174.9050  144.9570 O   0  0  0  0  0  0  0  0  0  0  0  0
  192.6750  175.6650  147.1520 O   0  0  0  0  0  1  0  0  0  0  0  0
  191.8640  175.9300  145.9770 C   0  0  0  0  0  2  0  0  0  0  0  0
  182.6010  178.8140  143.4920 C   0  0  0  0  0  3  0  0  0  0  0  0
  183.7910  178.7010  144.1080 C   0  0  0  0  0  3  0  0  0  0  0  0
  181.3000  178.6230  144.2450 C   0  0  0  0  0  2  0  0  0  0  0  0
  180.2260  179.2830  143.3940 C   0  0  2  0  0  3  0  0  0  0  0  0
  178.9440  179.5240  144.2140 C   0  0  0  0  0  1  0  0  0  0  0  0
  179.9130  178.3230  142.2620 C   0  0  0  0  0  2  0  0  0  0  0  0
  180.2980  178.9600  140.9960 C   0  0  0  0  0  0  0  0  0  0  0  0
  180.5000  178.1090  139.9220 O   0  0  0  0  0  0  0  0  0  0  0  0
  180.3900  180.2180  140.8840 O   0  0  0  0  0  1  0  0  0  0  0  0
  187.2740  178.0160  138.7740 C   0  0  0  0  0  2  0  0  0  0  0  0
  186.7220  178.0910  137.2750 C   0  0  2  0  0  3  0  0  0  0  0  0
  183.9160  174.5030  135.7560 S   0  0  0  0  0  0  0  0  0  0  0  0
  183.6490  176.2730  135.3960 C   0  0  0  0  0  2  0  0  0  0  0  0
  186.1440  175.5250  136.9910 C   0  0  0  0  0  2  0  0  0  0  0  0
  185.7390  176.9690  136.7690 C   0  0  0  0  0  3  0  0  0  0  0  0
  185.7330  174.6830  135.8080 C   0  0  0  0  0  2  0  0  0  0  0  0
  184.2780  177.2030  136.4510 C   0  0  0  0  0  2  0  0  0  0  0  0
  187.8860  178.2420  136.3290 C   0  0  0  0  0  0  0  0  0  0  0  0
  188.8480  178.9370  136.6510 O   0  0  0  0  0  0  0  0  0  0  0  0
  187.7610  177.7190  134.9250 C   0  0  0  0  0  2  0  0  0  0  0  0
  188.6300  176.6530  134.6960 O   0  0  0  0  0  1  0  0  0  0  0  0
  1  4  1  0  0  0  0
  1 35  1  1  0  0  0
  2  6  1  0  0  0  0
  3  5  2  0  0  0  0
  4  9  1  1  0  0  0
  5  2  1  0  0  0  0
  5  8  1  0  0  0  0
  6  4  1  0  0  0  0
  7  3  1  0  0  0  0
  8  1  1  0  0  0  0
  9 11  1  0  0  0  0
  9 10  2  0  0  0  0
 11 12  1  0  0  0  0
 13 12  1  0  0  0  0
 14 13  1  0  0  0  0
 15 14  1  0  0  0  0
 16 15  1  6  0  0  0
 17 16  1  0  0  0  0
 17 30  1  1  0  0  0
 18 20  1  6  0  0  0
 18 17  1  0  0  0  0
 18 16  1  0  0  0  0
 19 20  2  0  0  0  0
 21 22  1  0  0  0  0
 22 19  2  0  0  0  0
 23 22  1  0  0  0  0
 24 25  1  6  0  0  0
 24 28  1  0  0  0  0
 24 23  1  0  0  0  0
 28 27  1  0  0  0  0
 28 26  1  0  0  0  0
 30 29  1  1  0  0  0
 30 31  1  0  0  0  0
 31 33  1  0  0  0  0
 33 32  1  0  0  0  0
 34 35  2  0  0  0  0
 34 36  1  0  0  0  0
 37 38  1  1  0  0  0
 37 36  1  0  0  0  0
 39 37  1  0  0  0  0
 40 39  1  0  0  0  0
 41 40  2  0  0  0  0
 42 40  1  0  0  0  0
 43  3  1  0  0  0  0
 44 43  1  1  0  0  0
 45 49  1  0  0  0  0
 46 45  1  0  0  0  0
 46 50  1  0  0  0  0
 48 47  1  0  0  0  0
 48 44  1  0  0  0  0
 49 47  1  0  0  0  0
 50 48  1  0  0  0  0
 51 52  2  0  0  0  0
 51 44  1  0  0  0  0
 53 51  1  0  0  0  0
 54 53  1  0  0  0  0
M  END
>  <MODEL>
1

>  <REMARK>
 VINA RESULT:      -6.5      0.000      0.000
  Name = 
  24 active torsions:
  status: ('A' for Active; 'I' for Inactive)
    1  A    between atoms: C_4  and  C_11
    2  A    between atoms: C_4  and  C_31
    3  A    between atoms: C_6  and  C_38
    4  A    between atoms: C_6  and  C_46
    5  A    between atoms: C_8  and  C_38
    6  A    between atoms: C_9  and  O_12
    7  A    between atoms: C_9  and  O_29
    8  A    between atoms: O_10  and  C_22
    9  A    between atoms: O_10  and  C_41
   10  A    between atoms: O_12  and  C_42
   11  A    between atoms: C_14  and  P_26
   12  A    between atoms: C_14  and  C_52
   13  A    between atoms: C_17  and  C_31
   14  A    between atoms: O_19  and  C_33
   15  A    between atoms: O_19  and  C_50
   16  A    between atoms: C_20  and  C_45
   17  A    between atoms: C_25  and  C_37
   18  A    between atoms: C_27  and  C_42
   19  A    between atoms: C_28  and  C_46
   20  A    between atoms: O_29  and  C_41
   21  A    between atoms: C_31  and  C_37
   22  A    between atoms: C_36  and  C_50
   23  A    between atoms: C_39  and  C_43
   24  A    between atoms: C_51  and  C_52
                            x       y       z     vdW  Elec       q    Type
                         _______ _______ _______ _____ _____    ______ ____

>  <TORSDO>
F 24

$$$$
=
 OpenBabel11062412093D

 54 56  0  0  1  0  0  0  0  0999 V2000
  185.7090  178.1830  143.1720 C   0  0  2  0  0  3  0  0  0  0  0  0
  183.7710  179.1760  141.0740 C   0  0  0  0  0  2  0  0  0  0  0  0
  182.0050  178.9860  142.8280 C   0  0  0  0  0  0  0  0  0  0  0  0
  186.1520  178.7810  141.8030 C   0  0  2  0  0  3  0  0  0  0  0  0
  183.3260  178.9300  142.5020 C   0  0  0  0  0  0  0  0  0  0  0  0
  185.0460  178.4060  140.7690 C   0  0  0  0  0  2  0  0  0  0  0  0
  181.6970  178.9280  144.1900 O   0  0  0  0  0  1  0  0  0  0  0  0
  184.3110  178.6550  143.6480 C   0  0  0  0  0  2  0  0  0  0  0  0
  187.5560  178.5590  141.1520 C   0  0  0  0  0  0  0  0  0  0  0  0
  188.5630  178.4030  141.8540 O   0  0  0  0  0  0  0  0  0  0  0  0
  187.6220  178.5210  139.7070 O   0  0  0  0  0  0  0  0  0  0  0  0
  188.4740  177.6050  139.0200 C   0  0  0  0  0  2  0  0  0  0  0  0
  189.7200  178.1450  138.6030 O   0  0  0  0  0  0  0  0  0  0  0  0
  190.7070  177.1260  138.4990 C   0  0  0  0  0  2  0  0  0  0  0  0
  190.2990  175.8490  138.9740 O   0  0  0  0  0  0  0  0  0  0  0  0
  191.2390  175.2290  138.1040 C   0  0  2  0  0  3  0  0  0  0  0  0
  191.1030  175.5230  136.6160 C   0  0  2  0  0  3  0  0  0  0  0  0
  190.9460  174.1110  137.0820 C   0  0  2  0  0  3  0  0  0  0  0  0
  188.4810  174.2110  136.6670 C   0  0  0  0  0  0  0  0  0  0  0  0
  189.6090  173.5780  136.8680 C   0  0  0  0  0  3  0  0  0  0  0  0
  186.7310  175.3400  135.5190 O   0  0  0  0  0  1  0  0  0  0  0  0
  187.2210  174.5590  136.5720 C   0  0  0  0  0  0  0  0  0  0  0  0
  186.2550  173.8020  137.4510 C   0  0  0  0  0  2  0  0  0  0  0  0
  184.8330  173.5980  136.9850 C   0  0  1  0  0  3  0  0  0  0  0  0
  184.3990  172.3130  137.3690 O   0  0  0  0  0  1  0  0  0  0  0  0
  183.4650  175.9160  136.1530 O   0  0  0  0  0  1  0  0  0  0  0  0
  182.2320  173.9800  137.3680 O   0  0  0  0  0  1  0  0  0  0  0  0
  183.6840  174.9190  137.5650 P   0  0  0  0  0  0  0  0  0  0  0  0
  192.5860  174.1660  135.4410 O   0  0  0  0  0  1  0  0  0  0  0  0
  192.3290  175.4930  135.6320 C   0  0  2  0  0  3  0  0  0  0  0  0
  193.5030  176.3170  135.9580 O   0  0  0  0  0  0  0  0  0  0  0  0
  194.7920  175.4360  137.7920 O   0  0  0  0  0  1  0  0  0  0  0  0
  194.6910  175.5730  136.3500 C   0  0  0  0  0  2  0  0  0  0  0  0
  187.4380  177.7190  145.0480 C   0  0  0  0  0  3  0  0  0  0  0  0
  186.4940  177.3150  144.1800 C   0  0  0  0  0  3  0  0  0  0  0  0
  187.9660  176.7960  146.1270 C   0  0  0  0  0  2  0  0  0  0  0  0
  189.3500  177.3190  146.4820 C   0  0  2  0  0  3  0  0  0  0  0  0
  189.2990  178.2070  147.7400 C   0  0  0  0  0  1  0  0  0  0  0  0
  189.8160  178.1570  145.3070 C   0  0  0  0  0  2  0  0  0  0  0  0
  191.1640  177.7130  144.9280 C   0  0  0  0  0  0  0  0  0  0  0  0
  191.8600  176.9920  145.8840 O   0  0  0  0  0  1  0  0  0  0  0  0
  191.6380  177.9360  143.7750 O   0  0  0  0  0  0  0  0  0  0  0  0
  180.8130  179.1250  141.8350 C   0  0  0  0  0  2  0  0  0  0  0  0
  181.2700  179.1640  140.3030 C   0  0  2  0  0  3  0  0  0  0  0  0
  179.8760  182.9650  137.7210 S   0  0  0  0  0  0  0  0  0  0  0  0
  181.3300  181.9230  137.3590 C   0  0  0  0  0  2  0  0  0  0  0  0
  179.5770  181.1140  139.7250 C   0  0  0  0  0  2  0  0  0  0  0  0
  180.8910  180.4180  139.4290 C   0  0  0  0  0  3  0  0  0  0  0  0
  178.9320  181.5760  138.4410 C   0  0  0  0  0  2  0  0  0  0  0  0
  181.8850  181.2100  138.6070 C   0  0  0  0  0  2  0  0  0  0  0  0
  180.8300  177.8930  139.6250 C   0  0  0  0  0  0  0  0  0  0  0  0
  180.6710  177.8750  138.4050 O   0  0  0  0  0  0  0  0  0  0  0  0
  180.3850  176.7290  140.4670 C   0  0  0  0  0  2  0  0  0  0  0  0
  180.0990  175.6110  139.6840 O   0  0  0  0  0  1  0  0  0  0  0  0
  1  8  1  0  0  0  0
  1 35  1  1  0  0  0
  2  5  1  0  0  0  0
  3  7  1  0  0  0  0
  4  9  1  6  0  0  0
  4  1  1  0  0  0  0
  5  3  2  0  0  0  0
  5  8  1  0  0  0  0
  6  2  1  0  0  0  0
  6  4  1  0  0  0  0
  9 10  2  0  0  0  0
 11  9  1  0  0  0  0
 12 11  1  0  0  0  0
 13 12  1  0  0  0  0
 14 13  1  0  0  0  0
 14 15  1  0  0  0  0
 16 15  1  1  0  0  0
 17 30  1  6  0  0  0
 17 18  1  0  0  0  0
 17 16  1  0  0  0  0
 18 20  1  1  0  0  0
 18 16  1  0  0  0  0
 19 20  2  0  0  0  0
 21 22  1  0  0  0  0
 22 19  2  0  0  0  0
 22 23  1  0  0  0  0
 24 25  1  1  0  0  0
 24 23  1  0  0  0  0
 24 28  1  0  0  0  0
 26 28  1  0  0  0  0
 27 28  1  0  0  0  0
 30 29  1  1  0  0  0
 30 31  1  0  0  0  0
 31 33  1  0  0  0  0
 33 32  1  0  0  0  0
 34 36  1  0  0  0  0
 35 34  2  0  0  0  0
 36 37  1  0  0  0  0
 37 38  1  1  0  0  0
 39 37  1  0  0  0  0
 40 39  1  0  0  0  0
 40 41  1  0  0  0  0
 42 40  2  0  0  0  0
 43  3  1  0  0  0  0
 44 43  1  1  0  0  0
 45 49  1  0  0  0  0
 46 45  1  0  0  0  0
 46 50  1  0  0  0  0
 48 47  1  0  0  0  0
 48 44  1  0  0  0  0
 49 47  1  0  0  0  0
 50 48  1  0  0  0  0
 51 44  1  0  0  0  0
 51 53  1  0  0  0  0
 52 51  2  0  0  0  0
 54 53  1  0  0  0  0
M  END
>  <MODEL>
2

>  <REMARK>
 VINA RESULT:      -6.5      3.152      7.849
  Name = 
  24 active torsions:
  status: ('A' for Active; 'I' for Inactive)
    1  A    between atoms: C_4  and  C_11
    2  A    between atoms: C_4  and  C_31
    3  A    between atoms: C_6  and  C_38
    4  A    between atoms: C_6  and  C_46
    5  A    between atoms: C_8  and  C_38
    6  A    between atoms: C_9  and  O_12
    7  A    between atoms: C_9  and  O_29
    8  A    between atoms: O_10  and  C_22
    9  A    between atoms: O_10  and  C_41
   10  A    between atoms: O_12  and  C_42
   11  A    between atoms: C_14  and  P_26
   12  A    between atoms: C_14  and  C_52
   13  A    between atoms: C_17  and  C_31
   14  A    between atoms: O_19  and  C_33
   15  A    between atoms: O_19  and  C_50
   16  A    between atoms: C_20  and  C_45
   17  A    between atoms: C_25  and  C_37
   18  A    between atoms: C_27  and  C_42
   19  A    between atoms: C_28  and  C_46
   20  A    between atoms: O_29  and  C_41
   21  A    between atoms: C_31  and  C_37
   22  A    between atoms: C_36  and  C_50
   23  A    between atoms: C_39  and  C_43
   24  A    between atoms: C_51  and  C_52
                            x       y       z     vdW  Elec       q    Type
                         _______ _______ _______ _____ _____    ______ ____

>  <TORSDO>
F 24

$$$$
=
 OpenBabel11062412093D

 54 56  0  0  1  0  0  0  0  0999 V2000
  186.0390  178.3210  142.7430 C   0  0  2  0  0  3  0  0  0  0  0  0
  184.3940  178.9810  140.2940 C   0  0  0  0  0  2  0  0  0  0  0  0
  182.3910  178.8030  141.7740 C   0  0  0  0  0  0  0  0  0  0  0  0
  186.6520  178.8340  141.4060 C   0  0  2  0  0  3  0  0  0  0  0  0
  183.7470  178.8220  141.6560 C   0  0  0  0  0  0  0  0  0  0  0  0
  185.7470  178.2880  140.2580 C   0  0  0  0  0  2  0  0  0  0  0  0
  181.8790  178.8360  143.0740 O   0  0  0  0  0  1  0  0  0  0  0  0
  184.5570  178.7210  142.9570 C   0  0  0  0  0  2  0  0  0  0  0  0
  188.1510  178.6670  140.9960 C   0  0  0  0  0  0  0  0  0  0  0  0
  189.0430  178.6370  141.8530 O   0  0  0  0  0  0  0  0  0  0  0  0
  188.4460  178.5260  139.5850 O   0  0  0  0  0  0  0  0  0  0  0  0
  189.0320  177.3380  139.0580 C   0  0  0  0  0  2  0  0  0  0  0  0
  190.1050  177.5510  138.1520 O   0  0  0  0  0  0  0  0  0  0  0  0
  191.2070  176.7050  138.4600 C   0  0  0  0  0  2  0  0  0  0  0  0
  190.8900  175.3220  138.5500 O   0  0  0  0  0  0  0  0  0  0  0  0
  192.1800  174.9970  138.0430 C   0  0  2  0  0  3  0  0  0  0  0  0
  192.5020  175.4550  136.6270 C   0  0  2  0  0  3  0  0  0  0  0  0
  192.4980  173.9890  136.9200 C   0  0  2  0  0  3  0  0  0  0  0  0
  190.2440  173.6330  135.8940 C   0  0  0  0  0  0  0  0  0  0  0  0
  191.4600  173.2610  136.2060 C   0  0  0  0  0  3  0  0  0  0  0  0
  188.4590  174.6390  134.6850 O   0  0  0  0  0  1  0  0  0  0  0  0
  188.9770  173.6780  135.5620 C   0  0  0  0  0  0  0  0  0  0  0  0
  188.1610  172.4500  135.8880 C   0  0  0  0  0  2  0  0  0  0  0  0
  186.9050  172.5940  136.7140 C   0  0  1  0  0  3  0  0  0  0  0  0
  186.9000  173.8600  137.3360 O   0  0  0  0  0  1  0  0  0  0  0  0
  185.4470  170.5950  135.3670 O   0  0  0  0  0  1  0  0  0  0  0  0
  184.3220  172.1330  137.1310 O   0  0  0  0  0  1  0  0  0  0  0  0
  185.3640  172.2940  135.7460 P   0  0  0  0  0  0  0  0  0  0  0  0
  194.7570  174.9480  136.9040 O   0  0  0  0  0  1  0  0  0  0  0  0
  193.9680  175.7720  136.1540 C   0  0  2  0  0  3  0  0  0  0  0  0
  194.3960  177.1780  136.1080 O   0  0  0  0  0  0  0  0  0  0  0  0
  196.4470  176.6500  134.9600 O   0  0  0  0  0  1  0  0  0  0  0  0
  195.2820  177.5170  135.0040 C   0  0  0  0  0  2  0  0  0  0  0  0
  187.2650  178.1680  145.0240 C   0  0  0  0  0  3  0  0  0  0  0  0
  186.7110  177.6050  143.9350 C   0  0  0  0  0  3  0  0  0  0  0  0
  187.6900  177.3350  146.2150 C   0  0  0  0  0  2  0  0  0  0  0  0
  189.1600  177.0110  145.9930 C   0  0  2  0  0  3  0  0  0  0  0  0
  189.9000  176.8550  147.3360 C   0  0  0  0  0  1  0  0  0  0  0  0
  189.7560  178.1810  145.2350 C   0  0  0  0  0  2  0  0  0  0  0  0
  191.0600  177.7680  144.6970 C   0  0  0  0  0  0  0  0  0  0  0  0
  191.3030  176.4050  144.6670 O   0  0  0  0  0  1  0  0  0  0  0  0
  191.8890  178.6100  144.2430 O   0  0  0  0  0  0  0  0  0  0  0  0
  181.3620  178.7640  140.6060 C   0  0  0  0  0  2  0  0  0  0  0  0
  181.2760  177.3380  139.8880 C   0  0  2  0  0  3  0  0  0  0  0  0
  183.3900  176.9490  135.5940 S   0  0  0  0  0  0  0  0  0  0  0  0
  182.9820  175.5530  136.6970 C   0  0  0  0  0  2  0  0  0  0  0  0
  182.1460  178.3470  137.6020 C   0  0  0  0  0  2  0  0  0  0  0  0
  182.0010  177.1370  138.5040 C   0  0  0  0  0  3  0  0  0  0  0  0
  181.9650  177.9440  136.1590 C   0  0  0  0  0  2  0  0  0  0  0  0
  182.8980  175.9620  138.1800 C   0  0  0  0  0  2  0  0  0  0  0  0
  179.8310  176.9200  139.7940 C   0  0  0  0  0  0  0  0  0  0  0  0
  179.3050  176.3280  140.7350 O   0  0  0  0  0  0  0  0  0  0  0  0
  179.1170  177.0400  138.4760 C   0  0  0  0  0  2  0  0  0  0  0  0
  178.9330  175.7940  137.8780 O   0  0  0  0  0  1  0  0  0  0  0  0
  1  8  1  0  0  0  0
  1 35  1  1  0  0  0
  2  5  1  0  0  0  0
  3  7  1  0  0  0  0
  4  9  1  6  0  0  0
  4  1  1  0  0  0  0
  5  3  2  0  0  0  0
  5  8  1  0  0  0  0
  6  2  1  0  0  0  0
  6  4  1  0  0  0  0
  9 10  2  0  0  0  0
 11  9  1  0  0  0  0
 12 11  1  0  0  0  0
 13 14  1  0  0  0  0
 13 12  1  0  0  0  0
 14 15  1  0  0  0  0
 16 15  1  6  0  0  0
 17 30  1  1  0  0  0
 17 18  1  0  0  0  0
 17 16  1  0  0  0  0
 18 20  1  6  0  0  0
 18 16  1  0  0  0  0
 19 20  2  0  0  0  0
 21 22  1  0  0  0  0
 22 23  1  0  0  0  0
 22 19  2  0  0  0  0
 23 24  1  0  0  0  0
 24 25  1  6  0  0  0
 26 28  1  0  0  0  0
 28 24  1  0  0  0  0
 28 27  1  0  0  0  0
 30 29  1  1  0  0  0
 31 30  1  0  0  0  0
 32 33  1  0  0  0  0
 33 31  1  0  0  0  0
 34 36  1  0  0  0  0
 35 34  2  0  0  0  0
 37 36  1  0  0  0  0
 37 38  1  1  0  0  0
 39 37  1  0  0  0  0
 40 39  1  0  0  0  0
 41 40  1  0  0  0  0
 42 40  2  0  0  0  0
 43  3  1  0  0  0  0
 44 43  1  6  0  0  0
 45 49  1  0  0  0  0
 45 46  1  0  0  0  0
 46 50  1  0  0  0  0
 47 48  1  0  0  0  0
 48 44  1  0  0  0  0
 49 47  1  0  0  0  0
 50 48  1  0  0  0  0
 51 44  1  0  0  0  0
 51 52  2  0  0  0  0
 53 51  1  0  0  0  0
 54 53  1  0  0  0  0
M  END
>  <MODEL>
3

>  <REMARK>
 VINA RESULT:      -6.3      2.852      7.415
  Name = 
  24 active torsions:
  status: ('A' for Active; 'I' for Inactive)
    1  A    between atoms: C_4  and  C_11
    2  A    between atoms: C_4  and  C_31
    3  A    between atoms: C_6  and  C_38
    4  A    between atoms: C_6  and  C_46
    5  A    between atoms: C_8  and  C_38
    6  A    between atoms: C_9  and  O_12
    7  A    between atoms: C_9  and  O_29
    8  A    between atoms: O_10  and  C_22
    9  A    between atoms: O_10  and  C_41
   10  A    between atoms: O_12  and  C_42
   11  A    between atoms: C_14  and  P_26
   12  A    between atoms: C_14  and  C_52
   13  A    between atoms: C_17  and  C_31
   14  A    between atoms: O_19  and  C_33
   15  A    between atoms: O_19  and  C_50
   16  A    between atoms: C_20  and  C_45
   17  A    between atoms: C_25  and  C_37
   18  A    between atoms: C_27  and  C_42
   19  A    between atoms: C_28  and  C_46
   20  A    between atoms: O_29  and  C_41
   21  A    between atoms: C_31  and  C_37
   22  A    between atoms: C_36  and  C_50
   23  A    between atoms: C_39  and  C_43
   24  A    between atoms: C_51  and  C_52
                            x       y       z     vdW  Elec       q    Type
                         _______ _______ _______ _____ _____    ______ ____

>  <TORSDO>
F 24

$$$$
=
 OpenBabel11062412093D

 54 56  0  0  1  0  0  0  0  0999 V2000
  184.9580  178.3990  143.9240 C   0  0  2  0  0  3  0  0  0  0  0  0
  183.1400  178.6830  141.5250 C   0  0  0  0  0  2  0  0  0  0  0  0
  181.2690  178.9410  143.1580 C   0  0  0  0  0  0  0  0  0  0  0  0
  185.4760  178.5960  142.4680 C   0  0  2  0  0  3  0  0  0  0  0  0
  182.6090  178.8390  142.9360 C   0  0  0  0  0  0  0  0  0  0  0  0
  184.4450  177.9020  141.5250 C   0  0  0  0  0  2  0  0  0  0  0  0
  180.8770  179.2640  144.4600 O   0  0  0  0  0  1  0  0  0  0  0  0
  183.5250  178.9380  144.1650 C   0  0  0  0  0  2  0  0  0  0  0  0
  186.9220  178.2460  141.9860 C   0  0  0  0  0  0  0  0  0  0  0  0
  187.5870  177.3740  142.5590 O   0  0  0  0  0  0  0  0  0  0  0  0
  187.4350  178.9630  140.8380 O   0  0  0  0  0  0  0  0  0  0  0  0
  187.8060  178.2870  139.6380 C   0  0  0  0  0  2  0  0  0  0  0  0
  188.7980  178.9460  138.8630 O   0  0  0  0  0  0  0  0  0  0  0  0
  188.6460  178.6460  137.4810 C   0  0  0  0  0  2  0  0  0  0  0  0
  189.6800  177.8400  136.9280 O   0  0  0  0  0  0  0  0  0  0  0  0
  188.7200  177.1760  136.1130 C   0  0  2  0  0  3  0  0  0  0  0  0
  188.5850  175.6700  136.2900 C   0  0  2  0  0  3  0  0  0  0  0  0
  189.0160  176.1960  134.9580 C   0  0  2  0  0  3  0  0  0  0  0  0
  191.2750  175.1760  135.3000 C   0  0  0  0  0  0  0  0  0  0  0  0
  190.3690  175.8050  134.5940 C   0  0  0  0  0  3  0  0  0  0  0  0
  192.4880  173.3830  136.2860 O   0  0  0  0  0  1  0  0  0  0  0  0
  192.3890  174.6880  135.7890 C   0  0  0  0  0  0  0  0  0  0  0  0
  193.6460  175.4670  135.4840 C   0  0  0  0  0  2  0  0  0  0  0  0
  194.5490  175.8900  136.6180 C   0  0  1  0  0  3  0  0  0  0  0  0
  193.7660  176.1660  137.7570 O   0  0  0  0  0  1  0  0  0  0  0  0
  197.3460  175.5580  136.6620 O   0  0  0  0  0  1  0  0  0  0  0  0
  195.8750  174.9050  138.6990 O   0  0  0  0  0  1  0  0  0  0  0  0
  195.8830  174.6660  136.9750 P   0  0  0  0  0  0  0  0  0  0  0  0
  186.2780  175.6660  136.6010 O   0  0  0  0  0  1  0  0  0  0  0  0
  187.2420  174.9020  136.0080 C   0  0  2  0  0  3  0  0  0  0  0  0
  187.1830  173.4660  136.3180 O   0  0  0  0  0  0  0  0  0  0  0  0
  185.0340  172.6750  137.0680 O   0  0  0  0  0  1  0  0  0  0  0  0
  186.3600  173.1160  137.4670 C   0  0  0  0  0  2  0  0  0  0  0  0
  187.0190  177.8280  145.3890 C   0  0  0  0  0  3  0  0  0  0  0  0
  185.6920  177.8840  145.1800 C   0  0  0  0  0  3  0  0  0  0  0  0
  187.5920  177.5030  146.7540 C   0  0  0  0  0  2  0  0  0  0  0  0
  189.0620  177.1860  146.5240 C   0  0  2  0  0  3  0  0  0  0  0  0
  189.8950  177.4860  147.7850 C   0  0  0  0  0  1  0  0  0  0  0  0
  189.5330  178.0860  145.3970 C   0  0  0  0  0  2  0  0  0  0  0  0
  190.8430  177.6060  144.9390 C   0  0  0  0  0  0  0  0  0  0  0  0
  191.6640  178.5490  144.3420 O   0  0  0  0  0  0  0  0  0  0  0  0
  191.2170  176.4110  145.1250 O   0  0  0  0  0  1  0  0  0  0  0  0
  180.1400  178.7480  142.1030 C   0  0  0  0  0  2  0  0  0  0  0  0
  180.6660  178.1400  140.7210 C   0  0  2  0  0  3  0  0  0  0  0  0
  179.8420  180.4360  136.5850 S   0  0  0  0  0  0  0  0  0  0  0  0
  181.2230  180.7860  137.7260 C   0  0  0  0  0  2  0  0  0  0  0  0
  179.3580  178.4770  138.4460 C   0  0  0  0  0  2  0  0  0  0  0  0
  180.4400  178.9570  139.3940 C   0  0  0  0  0  3  0  0  0  0  0  0
  179.8030  178.6610  137.0160 C   0  0  0  0  0  2  0  0  0  0  0  0
  180.9210  180.3770  139.1810 C   0  0  0  0  0  2  0  0  0  0  0  0
  180.1450  176.7330  140.5710 C   0  0  0  0  0  0  0  0  0  0  0  0
  179.1580  176.3770  141.2130 O   0  0  0  0  0  0  0  0  0  0  0  0
  180.9610  175.7260  139.8090 C   0  0  0  0  0  2  0  0  0  0  0  0
  180.1500  174.8330  139.1100 O   0  0  0  0  0  1  0  0  0  0  0  0
  1  8  1  0  0  0  0
  1 35  1  1  0  0  0
  2  5  1  0  0  0  0
  3  7  1  0  0  0  0
  4  9  1  1  0  0  0
  4  1  1  0  0  0  0
  5  3  2  0  0  0  0
  5  8  1  0  0  0  0
  6  2  1  0  0  0  0
  6  4  1  0  0  0  0
  9 10  2  0  0  0  0
 11  9  1  0  0  0  0
 12 11  1  0  0  0  0
 13 12  1  0  0  0  0
 14 13  1  0  0  0  0
 15 14  1  0  0  0  0
 16 17  1  0  0  0  0
 16 15  1  1  0  0  0
 17 30  1  6  0  0  0
 18 20  1  1  0  0  0
 18 16  1  0  0  0  0
 18 17  1  0  0  0  0
 19 22  2  0  0  0  0
 20 19  2  0  0  0  0
 22 21  1  0  0  0  0
 23 22  1  0  0  0  0
 23 24  1  0  0  0  0
 24 28  1  0  0  0  0
 24 25  1  1  0  0  0
 26 28  1  0  0  0  0
 28 27  1  0  0  0  0
 30 31  1  0  0  0  0
 30 29  1  1  0  0  0
 31 33  1  0  0  0  0
 32 33  1  0  0  0  0
 34 36  1  0  0  0  0
 35 34  2  0  0  0  0
 37 36  1  0  0  0  0
 37 38  1  1  0  0  0
 39 37  1  0  0  0  0
 40 42  1  0  0  0  0
 40 39  1  0  0  0  0
 41 40  2  0  0  0  0
 43  3  1  0  0  0  0
 44 43  1  1  0  0  0
 45 49  1  0  0  0  0
 45 46  1  0  0  0  0
 46 50  1  0  0  0  0
 47 48  1  0  0  0  0
 48 44  1  0  0  0  0
 49 47  1  0  0  0  0
 50 48  1  0  0  0  0
 51 44  1  0  0  0  0
 51 52  2  0  0  0  0
 53 51  1  0  0  0  0
 54 53  1  0  0  0  0
M  END
>  <MODEL>
4

>  <REMARK>
 VINA RESULT:      -6.3      2.449      7.143
  Name = 
  24 active torsions:
  status: ('A' for Active; 'I' for Inactive)
    1  A    between atoms: C_4  and  C_11
    2  A    between atoms: C_4  and  C_31
    3  A    between atoms: C_6  and  C_38
    4  A    between atoms: C_6  and  C_46
    5  A    between atoms: C_8  and  C_38
    6  A    between atoms: C_9  and  O_12
    7  A    between atoms: C_9  and  O_29
    8  A    between atoms: O_10  and  C_22
    9  A    between atoms: O_10  and  C_41
   10  A    between atoms: O_12  and  C_42
   11  A    between atoms: C_14  and  P_26
   12  A    between atoms: C_14  and  C_52
   13  A    between atoms: C_17  and  C_31
   14  A    between atoms: O_19  and  C_33
   15  A    between atoms: O_19  and  C_50
   16  A    between atoms: C_20  and  C_45
   17  A    between atoms: C_25  and  C_37
   18  A    between atoms: C_27  and  C_42
   19  A    between atoms: C_28  and  C_46
   20  A    between atoms: O_29  and  C_41
   21  A    between atoms: C_31  and  C_37
   22  A    between atoms: C_36  and  C_50
   23  A    between atoms: C_39  and  C_43
   24  A    between atoms: C_51  and  C_52
                            x       y       z     vdW  Elec       q    Type
                         _______ _______ _______ _____ _____    ______ ____

>  <TORSDO>
F 24

$$$$
=
 OpenBabel11062412093D

 54 56  0  0  1  0  0  0  0  0999 V2000
  188.2260  177.8040  142.7290 C   0  0  2  0  0  3  0  0  0  0  0  0
  187.6990  178.2130  139.7800 C   0  0  0  0  0  2  0  0  0  0  0  0
  185.4070  178.9480  140.4430 C   0  0  0  0  0  0  0  0  0  0  0  0
  189.3420  177.7780  141.6420 C   0  0  2  0  0  3  0  0  0  0  0  0
  186.6630  178.5840  140.8220 C   0  0  0  0  0  0  0  0  0  0  0  0
  188.6920  177.2080  140.3430 C   0  0  0  0  0  2  0  0  0  0  0  0
  184.5730  179.4470  141.4480 O   0  0  0  0  0  1  0  0  0  0  0  0
  186.9680  178.6160  142.3280 C   0  0  0  0  0  2  0  0  0  0  0  0
  190.7510  177.1280  141.8330 C   0  0  0  0  0  0  0  0  0  0  0  0
  190.8630  175.9650  142.2390 O   0  0  0  0  0  0  0  0  0  0  0  0
  191.9070  177.9310  141.4950 O   0  0  0  0  0  0  0  0  0  0  0  0
  192.8860  177.4790  140.5620 C   0  0  0  0  0  2  0  0  0  0  0  0
  192.3680  177.0500  139.3110 O   0  0  0  0  0  0  0  0  0  0  0  0
  193.3430  176.3170  138.5790 C   0  0  0  0  0  2  0  0  0  0  0  0
  193.7130  176.8960  137.3340 O   0  0  0  0  0  0  0  0  0  0  0  0
  194.0910  175.6100  136.8540 C   0  0  2  0  0  3  0  0  0  0  0  0
  194.4280  175.4950  135.3730 C   0  0  2  0  0  3  0  0  0  0  0  0
  193.2740  174.7070  135.9060 C   0  0  2  0  0  3  0  0  0  0  0  0
  190.9710  175.6840  135.9390 C   0  0  0  0  0  0  0  0  0  0  0  0
  191.9930  175.1150  135.3500 C   0  0  0  0  0  3  0  0  0  0  0  0
  189.5790  177.3920  136.8330 O   0  0  0  0  0  1  0  0  0  0  0  0
  189.7830  176.1270  136.2690 C   0  0  0  0  0  0  0  0  0  0  0  0
  188.6090  175.3640  135.7050 C   0  0  0  0  0  2  0  0  0  0  0  0
  187.9200  174.3270  136.5610 C   0  0  1  0  0  3  0  0  0  0  0  0
  186.8150  174.9180  137.2060 O   0  0  0  0  0  1  0  0  0  0  0  0
  188.8340  172.5050  134.6170 O   0  0  0  0  0  1  0  0  0  0  0  0
  187.8620  171.6910  136.8830 O   0  0  0  0  0  1  0  0  0  0  0  0
  187.4430  172.8130  135.6200 P   0  0  0  0  0  0  0  0  0  0  0  0
  195.2610  173.3360  135.6270 O   0  0  0  0  0  1  0  0  0  0  0  0
  195.4320  174.4210  134.8160 C   0  0  2  0  0  3  0  0  0  0  0  0
  196.8290  174.8230  134.5940 O   0  0  0  0  0  0  0  0  0  0  0  0
  197.6720  175.7900  136.6320 O   0  0  0  0  0  1  0  0  0  0  0  0
  197.2340  176.0460  135.2710 C   0  0  0  0  0  2  0  0  0  0  0  0
  189.2040  177.4180  145.0990 C   0  0  0  0  0  3  0  0  0  0  0  0
  188.2360  177.2710  144.1780 C   0  0  0  0  0  3  0  0  0  0  0  0
  188.9840  177.0300  146.5470 C   0  0  0  0  0  2  0  0  0  0  0  0
  187.9590  178.0150  147.0910 C   0  0  2  0  0  3  0  0  0  0  0  0
  187.9900  178.0490  148.6310 C   0  0  0  0  0  1  0  0  0  0  0  0
  186.5970  177.5250  146.6370 C   0  0  0  0  0  2  0  0  0  0  0  0
  185.7320  178.6930  146.4250 C   0  0  0  0  0  0  0  0  0  0  0  0
  185.8270  179.7010  147.3700 O   0  0  0  0  0  1  0  0  0  0  0  0
  184.9820  178.7910  145.4090 O   0  0  0  0  0  0  0  0  0  0  0  0
  184.8200  178.8780  139.0020 C   0  0  0  0  0  2  0  0  0  0  0  0
  183.5230  177.9480  138.8940 C   0  0  2  0  0  3  0  0  0  0  0  0
  183.5850  174.5250  135.5270 S   0  0  0  0  0  0  0  0  0  0  0  0
  182.5540  174.5010  137.0330 C   0  0  0  0  0  2  0  0  0  0  0  0
  184.2890  176.9700  136.5590 C   0  0  0  0  0  2  0  0  0  0  0  0
  183.5150  176.7720  137.8470 C   0  0  0  0  0  3  0  0  0  0  0  0
  183.5420  176.3480  135.4040 C   0  0  0  0  0  2  0  0  0  0  0  0
  183.1450  175.3420  138.1810 C   0  0  0  0  0  2  0  0  0  0  0  0
  182.3050  178.8190  138.7220 C   0  0  0  0  0  0  0  0  0  0  0  0
  181.8970  179.4910  139.6670 O   0  0  0  0  0  0  0  0  0  0  0  0
  181.4840  178.6900  137.4680 C   0  0  0  0  0  2  0  0  0  0  0  0
  180.1230  178.8390  137.7310 O   0  0  0  0  0  1  0  0  0  0  0  0
  1 35  1  1  0  0  0
  2  6  1  0  0  0  0
  2  5  1  0  0  0  0
  3  5  2  0  0  0  0
  3  7  1  0  0  0  0
  4  9  1  1  0  0  0
  4  1  1  0  0  0  0
  5  8  1  0  0  0  0
  6  4  1  0  0  0  0
  8  1  1  0  0  0  0
  9 10  2  0  0  0  0
 11  9  1  0  0  0  0
 12 11  1  0  0  0  0
 13 12  1  0  0  0  0
 14 13  1  0  0  0  0
 15 14  1  0  0  0  0
 16 15  1  6  0  0  0
 17 30  1  1  0  0  0
 17 18  1  0  0  0  0
 17 16  1  0  0  0  0
 18 20  1  6  0  0  0
 18 16  1  0  0  0  0
 19 22  2  0  0  0  0
 20 19  2  0  0  0  0
 22 21  1  0  0  0  0
 23 22  1  0  0  0  0
 23 24  1  0  0  0  0
 24 25  1  6  0  0  0
 26 28  1  0  0  0  0
 28 24  1  0  0  0  0
 28 27  1  0  0  0  0
 30 29  1  1  0  0  0
 31 30  1  0  0  0  0
 31 33  1  0  0  0  0
 33 32  1  0  0  0  0
 34 36  1  0  0  0  0
 35 34  2  0  0  0  0
 36 37  1  0  0  0  0
 37 38  1  1  0  0  0
 39 37  1  0  0  0  0
 40 39  1  0  0  0  0
 40 41  1  0  0  0  0
 42 40  2  0  0  0  0
 43  3  1  0  0  0  0
 44 43  1  6  0  0  0
 45 46  1  0  0  0  0
 46 50  1  0  0  0  0
 47 48  1  0  0  0  0
 48 50  1  0  0  0  0
 48 44  1  0  0  0  0
 49 45  1  0  0  0  0
 49 47  1  0  0  0  0
 51 44  1  0  0  0  0
 51 52  2  0  0  0  0
 53 54  1  0  0  0  0
 53 51  1  0  0  0  0
M  END
>  <MODEL>
5

>  <REMARK>
 VINA RESULT:      -6.2      2.766      6.536
  Name = 
  24 active torsions:
  status: ('A' for Active; 'I' for Inactive)
    1  A    between atoms: C_4  and  C_11
    2  A    between atoms: C_4  and  C_31
    3  A    between atoms: C_6  and  C_38
    4  A    between atoms: C_6  and  C_46
    5  A    between atoms: C_8  and  C_38
    6  A    between atoms: C_9  and  O_12
    7  A    between atoms: C_9  and  O_29
    8  A    between atoms: O_10  and  C_22
    9  A    between atoms: O_10  and  C_41
   10  A    between atoms: O_12  and  C_42
   11  A    between atoms: C_14  and  P_26
   12  A    between atoms: C_14  and  C_52
   13  A    between atoms: C_17  and  C_31
   14  A    between atoms: O_19  and  C_33
   15  A    between atoms: O_19  and  C_50
   16  A    between atoms: C_20  and  C_45
   17  A    between atoms: C_25  and  C_37
   18  A    between atoms: C_27  and  C_42
   19  A    between atoms: C_28  and  C_46
   20  A    between atoms: O_29  and  C_41
   21  A    between atoms: C_31  and  C_37
   22  A    between atoms: C_36  and  C_50
   23  A    between atoms: C_39  and  C_43
   24  A    between atoms: C_51  and  C_52
                            x       y       z     vdW  Elec       q    Type
                         _______ _______ _______ _____ _____    ______ ____

>  <TORSDO>
F 24

$$$$
=
 OpenBabel11062412093D

 54 56  0  0  1  0  0  0  0  0999 V2000
  190.1880  176.1610  138.0190 C   0  0  2  0  0  3  0  0  0  0  0  0
  188.7010  178.2330  139.6430 C   0  0  0  0  0  2  0  0  0  0  0  0
  190.0950  177.5010  141.5800 C   0  0  0  0  0  0  0  0  0  0  0  0
  189.2680  177.2500  137.3920 C   0  0  2  0  0  3  0  0  0  0  0  0
  189.8350  177.4290  140.2450 C   0  0  0  0  0  0  0  0  0  0  0  0
  188.1300  177.5270  138.4230 C   0  0  0  0  0  2  0  0  0  0  0  0
  191.2630  176.8750  142.0220 O   0  0  0  0  0  1  0  0  0  0  0  0
  190.7670  176.5430  139.4060 C   0  0  0  0  0  2  0  0  0  0  0  0
  188.6470  177.1680  135.9590 C   0  0  0  0  0  0  0  0  0  0  0  0
  189.2610  177.6030  134.9770 O   0  0  0  0  0  0  0  0  0  0  0  0
  187.3480  176.5430  135.8290 O   0  0  0  0  0  0  0  0  0  0  0  0
  187.1810  175.1310  135.9480 C   0  0  0  0  0  2  0  0  0  0  0  0
  186.0160  174.7230  136.6510 O   0  0  0  0  0  0  0  0  0  0  0  0
  184.9890  175.7010  136.5440 C   0  0  0  0  0  2  0  0  0  0  0  0
  184.2520  175.9260  137.7400 O   0  0  0  0  0  0  0  0  0  0  0  0
  183.3090  174.9380  137.3390 C   0  0  2  0  0  3  0  0  0  0  0  0
  182.1820  175.3890  136.4200 C   0  0  2  0  0  3  0  0  0  0  0  0
  181.8300  174.8530  137.7700 C   0  0  2  0  0  3  0  0  0  0  0  0
  181.4940  177.1100  138.7960 C   0  0  0  0  0  0  0  0  0  0  0  0
  181.2110  175.8410  138.6400 C   0  0  0  0  0  3  0  0  0  0  0  0
  181.5030  179.4570  138.4140 O   0  0  0  0  0  1  0  0  0  0  0  0
  181.6240  178.3360  139.2420 C   0  0  0  0  0  0  0  0  0  0  0  0
  181.5670  178.5050  140.7410 C   0  0  0  0  0  2  0  0  0  0  0  0
  180.3640  179.1720  141.3660 C   0  0  1  0  0  3  0  0  0  0  0  0
  179.2500  179.0080  140.5180 O   0  0  0  0  0  1  0  0  0  0  0  0
  181.5510  178.7840  143.8910 O   0  0  0  0  0  1  0  0  0  0  0  0
  179.3160  180.0790  143.6320 O   0  0  0  0  0  1  0  0  0  0  0  0
  180.0210  178.5860  143.0810 P   0  0  0  0  0  0  0  0  0  0  0  0
  180.2270  174.2350  135.9040 O   0  0  0  0  0  1  0  0  0  0  0  0
  181.4830  174.4180  135.4010 C   0  0  2  0  0  3  0  0  0  0  0  0
  182.1890  173.1860  135.0160 O   0  0  0  0  0  0  0  0  0  0  0  0
  182.3900  170.7900  135.1600 O   0  0  0  0  0  1  0  0  0  0  0  0
  181.5970  171.9540  135.5170 C   0  0  0  0  0  2  0  0  0  0  0  0
  191.6920  174.6850  136.5090 C   0  0  0  0  0  3  0  0  0  0  0  0
  190.7180  174.8390  137.4220 C   0  0  0  0  0  3  0  0  0  0  0  0
  192.2560  173.3190  136.1770 C   0  0  0  0  0  2  0  0  0  0  0  0
  193.7500  173.4070  136.4490 C   0  0  2  0  0  3  0  0  0  0  0  0
  194.3780  172.0030  136.5440 C   0  0  0  0  0  1  0  0  0  0  0  0
  193.9110  174.1100  137.7830 C   0  0  0  0  0  2  0  0  0  0  0  0
  195.3470  174.2260  138.0740 C   0  0  0  0  0  0  0  0  0  0  0  0
  195.8240  173.4440  139.1130 O   0  0  0  0  0  1  0  0  0  0  0  0
  196.1090  174.9610  137.3800 O   0  0  0  0  0  0  0  0  0  0  0  0
  189.2270  178.2240  142.6520 C   0  0  0  0  0  2  0  0  0  0  0  0
  189.2480  177.4970  144.0770 C   0  0  2  0  0  3  0  0  0  0  0  0
  185.3600  178.1070  146.8270 S   0  0  0  0  0  0  0  0  0  0  0  0
  187.0850  178.3530  147.3730 C   0  0  0  0  0  2  0  0  0  0  0  0
  186.6310  177.6110  144.4460 C   0  0  0  0  0  2  0  0  0  0  0  0
  188.0210  177.6850  145.0460 C   0  0  0  0  0  3  0  0  0  0  0  0
  185.7240  178.6170  145.1110 C   0  0  0  0  0  2  0  0  0  0  0  0
  188.0990  177.5350  146.5500 C   0  0  0  0  0  2  0  0  0  0  0  0
  190.5370  177.8340  144.7820 C   0  0  0  0  0  0  0  0  0  0  0  0
  191.0070  178.9660  144.6850 O   0  0  0  0  0  0  0  0  0  0  0  0
  191.3370  176.7290  145.4150 C   0  0  0  0  0  2  0  0  0  0  0  0
  191.7610  177.0740  146.6980 O   0  0  0  0  0  1  0  0  0  0  0  0
  1 35  1  6  0  0  0
  1  8  1  0  0  0  0
  2  5  1  0  0  0  0
  3  7  1  0  0  0  0
  3 43  1  0  0  0  0
  4  9  1  6  0  0  0
  4  1  1  0  0  0  0
  4  6  1  0  0  0  0
  5  3  2  0  0  0  0
  6  2  1  0  0  0  0
  8  5  1  0  0  0  0
 10  9  2  0  0  0  0
 11 12  1  0  0  0  0
 11  9  1  0  0  0  0
 12 13  1  0  0  0  0
 14 13  1  0  0  0  0
 14 15  1  0  0  0  0
 16 15  1  1  0  0  0
 16 18  1  0  0  0  0
 17 30  1  6  0  0  0
 17 16  1  0  0  0  0
 17 18  1  0  0  0  0
 18 20  1  1  0  0  0
 19 22  2  0  0  0  0
 20 19  2  0  0  0  0
 21 22  1  0  0  0  0
 22 23  1  0  0  0  0
 23 24  1  0  0  0  0
 24 25  1  6  0  0  0
 24 28  1  0  0  0  0
 28 27  1  0  0  0  0
 28 26  1  0  0  0  0
 30 29  1  1  0  0  0
 31 30  1  0  0  0  0
 31 33  1  0  0  0  0
 32 33  1  0  0  0  0
 34 35  2  0  0  0  0
 36 37  1  0  0  0  0
 36 34  1  0  0  0  0
 37 38  1  1  0  0  0
 37 39  1  0  0  0  0
 39 40  1  0  0  0  0
 40 41  1  0  0  0  0
 42 40  2  0  0  0  0
 44 43  1  6  0  0  0
 44 51  1  0  0  0  0
 44 48  1  0  0  0  0
 45 46  1  0  0  0  0
 47 48  1  0  0  0  0
 47 49  1  0  0  0  0
 48 50  1  0  0  0  0
 49 45  1  0  0  0  0
 50 46  1  0  0  0  0
 51 53  1  0  0  0  0
 52 51  2  0  0  0  0
 53 54  1  0  0  0  0
M  END
>  <MODEL>
6

>  <REMARK>
 VINA RESULT:      -6.0      3.923     11.816
  Name = 
  24 active torsions:
  status: ('A' for Active; 'I' for Inactive)
    1  A    between atoms: C_4  and  C_11
    2  A    between atoms: C_4  and  C_31
    3  A    between atoms: C_6  and  C_38
    4  A    between atoms: C_6  and  C_46
    5  A    between atoms: C_8  and  C_38
    6  A    between atoms: C_9  and  O_12
    7  A    between atoms: C_9  and  O_29
    8  A    between atoms: O_10  and  C_22
    9  A    between atoms: O_10  and  C_41
   10  A    between atoms: O_12  and  C_42
   11  A    between atoms: C_14  and  P_26
   12  A    between atoms: C_14  and  C_52
   13  A    between atoms: C_17  and  C_31
   14  A    between atoms: O_19  and  C_33
   15  A    between atoms: O_19  and  C_50
   16  A    between atoms: C_20  and  C_45
   17  A    between atoms: C_25  and  C_37
   18  A    between atoms: C_27  and  C_42
   19  A    between atoms: C_28  and  C_46
   20  A    between atoms: O_29  and  C_41
   21  A    between atoms: C_31  and  C_37
   22  A    between atoms: C_36  and  C_50
   23  A    between atoms: C_39  and  C_43
   24  A    between atoms: C_51  and  C_52
                            x       y       z     vdW  Elec       q    Type
                         _______ _______ _______ _____ _____    ______ ____

>  <TORSDO>
F 24

$$$$
=
 OpenBabel11062412093D

 54 56  0  0  1  0  0  0  0  0999 V2000
  187.9400  176.2730  136.1890 C   0  0  2  0  0  3  0  0  0  0  0  0
  185.3750  177.4910  137.2290 C   0  0  0  0  0  2  0  0  0  0  0  0
  184.1820  175.9240  135.6950 C   0  0  0  0  0  0  0  0  0  0  0  0
  187.8730  177.2130  137.4290 C   0  0  2  0  0  3  0  0  0  0  0  0
  185.3550  176.3300  136.2550 C   0  0  0  0  0  0  0  0  0  0  0  0
  186.7090  178.2190  137.1700 C   0  0  0  0  0  2  0  0  0  0  0  0
  184.2240  174.7390  134.9540 O   0  0  0  0  0  1  0  0  0  0  0  0
  186.6140  175.5310  135.8830 C   0  0  0  0  0  2  0  0  0  0  0  0
  189.0950  177.9890  138.0200 C   0  0  0  0  0  0  0  0  0  0  0  0
  189.0060  179.1890  138.3040 O   0  0  0  0  0  0  0  0  0  0  0  0
  190.3150  177.2420  138.2420 O   0  0  0  0  0  0  0  0  0  0  0  0
  190.7330  176.8620  139.5510 C   0  0  0  0  0  2  0  0  0  0  0  0
  189.6900  176.7800  140.5120 O   0  0  0  0  0  0  0  0  0  0  0  0
  190.2070  176.8710  141.8340 C   0  0  0  0  0  2  0  0  0  0  0  0
  190.0310  178.1370  142.4580 O   0  0  0  0  0  0  0  0  0  0  0  0
  191.0450  177.8100  143.4010 C   0  0  2  0  0  3  0  0  0  0  0  0
  190.7540  176.6640  144.3610 C   0  0  2  0  0  3  0  0  0  0  0  0
  190.9850  178.0280  144.9270 C   0  0  2  0  0  3  0  0  0  0  0  0
  188.9860  178.0160  146.4320 C   0  0  0  0  0  0  0  0  0  0  0  0
  189.8150  178.5830  145.5920 C   0  0  0  0  0  3  0  0  0  0  0  0
  188.0840  177.2280  148.4870 O   0  0  0  0  0  1  0  0  0  0  0  0
  187.9540  177.6930  147.1730 C   0  0  0  0  0  0  0  0  0  0  0  0
  186.6080  178.1640  146.6780 C   0  0  0  0  0  2  0  0  0  0  0  0
  186.3560  178.2550  145.1910 C   0  0  1  0  0  3  0  0  0  0  0  0
  186.2560  176.9540  144.6580 O   0  0  0  0  0  1  0  0  0  0  0  0
  184.1640  178.4400  143.4320 O   0  0  0  0  0  1  0  0  0  0  0  0
  183.8560  178.6360  146.0030 O   0  0  0  0  0  1  0  0  0  0  0  0
  184.8910  179.2920  144.7670 P   0  0  0  0  0  0  0  0  0  0  0  0
  192.1150  174.8030  144.0400 O   0  0  0  0  0  1  0  0  0  0  0  0
  191.8890  175.7690  144.9780 C   0  0  2  0  0  3  0  0  0  0  0  0
  191.7180  175.2780  146.3540 O   0  0  0  0  0  0  0  0  0  0  0  0
  192.3950  176.6760  148.1960 O   0  0  0  0  0  1  0  0  0  0  0  0
  192.7930  175.6280  147.2720 C   0  0  0  0  0  2  0  0  0  0  0  0
  190.2620  175.2270  135.7010 C   0  0  0  0  0  3  0  0  0  0  0  0
  189.1440  175.8650  135.3120 C   0  0  0  0  0  3  0  0  0  0  0  0
  191.2620  174.6980  134.6930 C   0  0  0  0  0  2  0  0  0  0  0  0
  192.6280  174.8430  135.3460 C   0  0  2  0  0  3  0  0  0  0  0  0
  193.5100  173.6130  135.0590 C   0  0  0  0  0  1  0  0  0  0  0  0
  192.3910  174.9410  136.8410 C   0  0  0  0  0  2  0  0  0  0  0  0
  193.5720  175.5600  137.4570 C   0  0  0  0  0  0  0  0  0  0  0  0
  193.5700  176.9430  137.5260 O   0  0  0  0  0  0  0  0  0  0  0  0
  194.5120  174.8630  137.9410 O   0  0  0  0  0  1  0  0  0  0  0  0
  182.8050  176.6400  135.8140 C   0  0  0  0  0  2  0  0  0  0  0  0
  181.9490  176.1540  137.0750 C   0  0  2  0  0  3  0  0  0  0  0  0
  181.3780  178.9260  140.9540 S   0  0  0  0  0  0  0  0  0  0  0  0
  181.1790  179.4800  139.2260 C   0  0  0  0  0  2  0  0  0  0  0  0
  181.8070  176.5270  139.6900 C   0  0  0  0  0  2  0  0  0  0  0  0
  181.7770  177.1300  138.2990 C   0  0  0  0  0  3  0  0  0  0  0  0
  180.8120  177.2290  140.5820 C   0  0  0  0  0  2  0  0  0  0  0  0
  181.9830  178.6270  138.2250 C   0  0  0  0  0  2  0  0  0  0  0  0
  182.4650  174.8140  137.5340 C   0  0  0  0  0  0  0  0  0  0  0  0
  183.5760  174.7340  138.0550 O   0  0  0  0  0  0  0  0  0  0  0  0
  181.7110  173.5700  137.1550 C   0  0  0  0  0  2  0  0  0  0  0  0
  180.8770  173.7890  136.0590 O   0  0  0  0  0  1  0  0  0  0  0  0
  1 35  1  1  0  0  0
  1  4  1  0  0  0  0
  3 43  1  0  0  0  0
  3  5  2  0  0  0  0
  4  9  1  6  0  0  0
  5  2  1  0  0  0  0
  6  2  1  0  0  0  0
  6  4  1  0  0  0  0
  7  3  1  0  0  0  0
  8  1  1  0  0  0  0
  8  5  1  0  0  0  0
  9 11  1  0  0  0  0
  9 10  2  0  0  0  0
 11 12  1  0  0  0  0
 12 13  1  0  0  0  0
 13 14  1  0  0  0  0
 14 15  1  0  0  0  0
 16 15  1  6  0  0  0
 16 17  1  0  0  0  0
 16 18  1  0  0  0  0
 17 18  1  0  0  0  0
 17 30  1  1  0  0  0
 18 20  1  6  0  0  0
 19 22  2  0  0  0  0
 20 19  2  0  0  0  0
 22 21  1  0  0  0  0
 23 22  1  0  0  0  0
 24 25  1  1  0  0  0
 24 23  1  0  0  0  0
 26 28  1  0  0  0  0
 28 24  1  0  0  0  0
 28 27  1  0  0  0  0
 30 29  1  6  0  0  0
 30 31  1  0  0  0  0
 31 33  1  0  0  0  0
 33 32  1  0  0  0  0
 35 34  2  0  0  0  0
 36 37  1  0  0  0  0
 36 34  1  0  0  0  0
 37 38  1  1  0  0  0
 37 39  1  0  0  0  0
 39 40  1  0  0  0  0
 40 41  2  0  0  0  0
 40 42  1  0  0  0  0
 44 43  1  6  0  0  0
 44 51  1  0  0  0  0
 44 48  1  0  0  0  0
 46 45  1  0  0  0  0
 47 49  1  0  0  0  0
 48 47  1  0  0  0  0
 49 45  1  0  0  0  0
 50 48  1  0  0  0  0
 50 46  1  0  0  0  0
 51 52  2  0  0  0  0
 53 51  1  0  0  0  0
 54 53  1  0  0  0  0
M  END
>  <MODEL>
7

>  <REMARK>
 VINA RESULT:      -5.9      3.118      8.839
  Name = 
  24 active torsions:
  status: ('A' for Active; 'I' for Inactive)
    1  A    between atoms: C_4  and  C_11
    2  A    between atoms: C_4  and  C_31
    3  A    between atoms: C_6  and  C_38
    4  A    between atoms: C_6  and  C_46
    5  A    between atoms: C_8  and  C_38
    6  A    between atoms: C_9  and  O_12
    7  A    between atoms: C_9  and  O_29
    8  A    between atoms: O_10  and  C_22
    9  A    between atoms: O_10  and  C_41
   10  A    between atoms: O_12  and  C_42
   11  A    between atoms: C_14  and  P_26
   12  A    between atoms: C_14  and  C_52
   13  A    between atoms: C_17  and  C_31
   14  A    between atoms: O_19  and  C_33
   15  A    between atoms: O_19  and  C_50
   16  A    between atoms: C_20  and  C_45
   17  A    between atoms: C_25  and  C_37
   18  A    between atoms: C_27  and  C_42
   19  A    between atoms: C_28  and  C_46
   20  A    between atoms: O_29  and  C_41
   21  A    between atoms: C_31  and  C_37
   22  A    between atoms: C_36  and  C_50
   23  A    between atoms: C_39  and  C_43
   24  A    between atoms: C_51  and  C_52
                            x       y       z     vdW  Elec       q    Type
                         _______ _______ _______ _____ _____    ______ ____

>  <TORSDO>
F 24

$$$$
=
 OpenBabel11062412093D

 54 56  0  0  1  0  0  0  0  0999 V2000
  190.1080  177.0340  138.8120 C   0  0  2  0  0  3  0  0  0  0  0  0
  188.4510  177.8300  141.2120 C   0  0  0  0  0  2  0  0  0  0  0  0
  190.0460  176.4760  142.5760 C   0  0  0  0  0  0  0  0  0  0  0  0
  189.0110  178.1400  138.7740 C   0  0  2  0  0  3  0  0  0  0  0  0
  189.7190  177.0140  141.3680 C   0  0  0  0  0  0  0  0  0  0  0  0
  187.9100  177.7170  139.7950 C   0  0  0  0  0  2  0  0  0  0  0  0
  191.3130  175.8970  142.6770 O   0  0  0  0  0  1  0  0  0  0  0  0
  190.7120  176.7870  140.2180 C   0  0  0  0  0  2  0  0  0  0  0  0
  188.3230  178.6620  137.4700 C   0  0  0  0  0  0  0  0  0  0  0  0
  188.9820  178.8580  136.4410 O   0  0  0  0  0  0  0  0  0  0  0  0
  186.8930  178.8800  137.5120 O   0  0  0  0  0  0  0  0  0  0  0  0
  185.9670  177.8000  137.4050 C   0  0  0  0  0  2  0  0  0  0  0  0
  184.6330  178.1170  137.7740 O   0  0  0  0  0  0  0  0  0  0  0  0
  183.8240  176.9480  137.8120 C   0  0  0  0  0  2  0  0  0  0  0  0
  183.1780  176.7090  139.0560 O   0  0  0  0  0  0  0  0  0  0  0  0
  181.9170  176.9590  138.4450 C   0  0  2  0  0  3  0  0  0  0  0  0
  181.3960  178.3890  138.4940 C   0  0  2  0  0  3  0  0  0  0  0  0
  180.6010  177.3170  139.1680 C   0  0  2  0  0  3  0  0  0  0  0  0
  180.7160  178.5480  141.3430 C   0  0  0  0  0  0  0  0  0  0  0  0
  180.5220  177.4790  140.6110 C   0  0  0  0  0  3  0  0  0  0  0  0
  180.2650  180.5980  142.4610 O   0  0  0  0  0  1  0  0  0  0  0  0
  180.9620  179.3930  142.3140 C   0  0  0  0  0  0  0  0  0  0  0  0
  181.7850  178.8620  143.4630 C   0  0  0  0  0  2  0  0  0  0  0  0
  183.1970  179.3650  143.6560 C   0  0  1  0  0  3  0  0  0  0  0  0
  183.5610  179.2140  145.0090 O   0  0  0  0  0  1  0  0  0  0  0  0
  185.4750  179.8750  142.0800 O   0  0  0  0  0  1  0  0  0  0  0  0
  185.4180  177.9120  143.7780 O   0  0  0  0  0  1  0  0  0  0  0  0
  184.4110  178.5670  142.5190 P   0  0  0  0  0  0  0  0  0  0  0  0
  179.3030  178.2240  137.4890 O   0  0  0  0  0  1  0  0  0  0  0  0
  180.4370  178.9770  137.3950 C   0  0  2  0  0  3  0  0  0  0  0  0
  180.9630  179.1510  136.0330 O   0  0  0  0  0  0  0  0  0  0  0  0
  180.5450  181.5190  136.1770 O   0  0  0  0  0  1  0  0  0  0  0  0
  180.4880  180.3370  135.3340 C   0  0  0  0  0  2  0  0  0  0  0  0
  191.8080  175.3970  137.7380 C   0  0  0  0  0  3  0  0  0  0  0  0
  190.7760  176.2550  137.6580 C   0  0  0  0  0  3  0  0  0  0  0  0
  192.2170  174.5390  136.5580 C   0  0  0  0  0  2  0  0  0  0  0  0
  193.7150  174.7480  136.3910 C   0  0  2  0  0  3  0  0  0  0  0  0
  194.0910  174.8750  134.9020 C   0  0  0  0  0  1  0  0  0  0  0  0
  194.3950  173.5200  136.9670 C   0  0  0  0  0  2  0  0  0  0  0  0
  195.4530  173.9660  137.8830 C   0  0  0  0  0  0  0  0  0  0  0  0
  195.4960  173.3380  139.1170 O   0  0  0  0  0  1  0  0  0  0  0  0
  196.3060  174.8370  137.5410 O   0  0  0  0  0  0  0  0  0  0  0  0
  189.1530  176.4600  143.8520 C   0  0  0  0  0  2  0  0  0  0  0  0
  189.8950  177.0330  145.1480 C   0  0  2  0  0  3  0  0  0  0  0  0
  187.1170  177.8350  148.9810 S   0  0  0  0  0  0  0  0  0  0  0  0
  188.8810  178.2830  148.8480 C   0  0  0  0  0  2  0  0  0  0  0  0
  187.5610  177.0320  146.3950 C   0  0  0  0  0  2  0  0  0  0  0  0
  189.0530  177.2980  146.4520 C   0  0  0  0  0  3  0  0  0  0  0  0
  186.8170  178.0720  147.1940 C   0  0  0  0  0  2  0  0  0  0  0  0
  189.6500  177.4090  147.8380 C   0  0  0  0  0  2  0  0  0  0  0  0
  190.6780  178.2620  144.7640 C   0  0  0  0  0  0  0  0  0  0  0  0
  190.0850  179.2660  144.3730 O   0  0  0  0  0  0  0  0  0  0  0  0
  192.1760  178.1740  144.6590 C   0  0  0  0  0  2  0  0  0  0  0  0
  192.7400  179.4080  144.3380 O   0  0  0  0  0  1  0  0  0  0  0  0
  1 35  1  6  0  0  0
  1  8  1  0  0  0  0
  2  5  1  0  0  0  0
  3  7  1  0  0  0  0
  3 43  1  0  0  0  0
  4  9  1  6  0  0  0
  4  1  1  0  0  0  0
  4  6  1  0  0  0  0
  5  3  2  0  0  0  0
  6  2  1  0  0  0  0
  8  5  1  0  0  0  0
  9 11  1  0  0  0  0
 10  9  2  0  0  0  0
 12 11  1  0  0  0  0
 12 13  1  0  0  0  0
 13 14  1  0  0  0  0
 14 15  1  0  0  0  0
 16 17  1  0  0  0  0
 16 15  1  1  0  0  0
 16 18  1  0  0  0  0
 17 30  1  6  0  0  0
 17 18  1  0  0  0  0
 18 20  1  1  0  0  0
 19 22  2  0  0  0  0
 20 19  2  0  0  0  0
 22 21  1  0  0  0  0
 22 23  1  0  0  0  0
 23 24  1  0  0  0  0
 24 25  1  1  0  0  0
 26 28  1  0  0  0  0
 28 24  1  0  0  0  0
 28 27  1  0  0  0  0
 30 29  1  6  0  0  0
 31 30  1  0  0  0  0
 33 31  1  0  0  0  0
 33 32  1  0  0  0  0
 35 34  2  0  0  0  0
 36 34  1  0  0  0  0
 37 38  1  6  0  0  0
 37 36  1  0  0  0  0
 37 39  1  0  0  0  0
 39 40  1  0  0  0  0
 40 41  1  0  0  0  0
 42 40  2  0  0  0  0
 44 43  1  6  0  0  0
 44 48  1  0  0  0  0
 46 45  1  0  0  0  0
 47 48  1  0  0  0  0
 47 49  1  0  0  0  0
 48 50  1  0  0  0  0
 49 45  1  0  0  0  0
 50 46  1  0  0  0  0
 51 44  1  0  0  0  0
 52 51  2  0  0  0  0
 53 51  1  0  0  0  0
 54 53  1  0  0  0  0
M  END
>  <MODEL>
8

>  <REMARK>
 VINA RESULT:      -5.7      3.339     11.637
  Name = 
  24 active torsions:
  status: ('A' for Active; 'I' for Inactive)
    1  A    between atoms: C_4  and  C_11
    2  A    between atoms: C_4  and  C_31
    3  A    between atoms: C_6  and  C_38
    4  A    between atoms: C_6  and  C_46
    5  A    between atoms: C_8  and  C_38
    6  A    between atoms: C_9  and  O_12
    7  A    between atoms: C_9  and  O_29
    8  A    between atoms: O_10  and  C_22
    9  A    between atoms: O_10  and  C_41
   10  A    between atoms: O_12  and  C_42
   11  A    between atoms: C_14  and  P_26
   12  A    between atoms: C_14  and  C_52
   13  A    between atoms: C_17  and  C_31
   14  A    between atoms: O_19  and  C_33
   15  A    between atoms: O_19  and  C_50
   16  A    between atoms: C_20  and  C_45
   17  A    between atoms: C_25  and  C_37
   18  A    between atoms: C_27  and  C_42
   19  A    between atoms: C_28  and  C_46
   20  A    between atoms: O_29  and  C_41
   21  A    between atoms: C_31  and  C_37
   22  A    between atoms: C_36  and  C_50
   23  A    between atoms: C_39  and  C_43
   24  A    between atoms: C_51  and  C_52
                            x       y       z     vdW  Elec       q    Type
                         _______ _______ _______ _____ _____    ______ ____

>  <TORSDO>
F 24

$$$$
=
 OpenBabel11062412093D

 54 56  0  0  1  0  0  0  0  0999 V2000
  186.5960  178.0790  142.9280 C   0  0  2  0  0  3  0  0  0  0  0  0
  185.8860  178.6410  140.0440 C   0  0  0  0  0  2  0  0  0  0  0  0
  183.5260  178.8750  140.8240 C   0  0  0  0  0  0  0  0  0  0  0  0
  187.6540  178.3570  141.8190 C   0  0  2  0  0  3  0  0  0  0  0  0
  184.8420  178.7190  141.1390 C   0  0  0  0  0  0  0  0  0  0  0  0
  187.0680  177.7930  140.4870 C   0  0  0  0  0  2  0  0  0  0  0  0
  182.6560  179.1200  141.8900 O   0  0  0  0  0  1  0  0  0  0  0  0
  185.1950  178.6750  142.6340 C   0  0  0  0  0  2  0  0  0  0  0  0
  189.1650  177.9670  141.9170 C   0  0  0  0  0  0  0  0  0  0  0  0
  189.6190  177.4460  142.9420 O   0  0  0  0  0  0  0  0  0  0  0  0
  189.9940  178.2180  140.7580 O   0  0  0  0  0  0  0  0  0  0  0  0
  190.0130  177.3270  139.6440 C   0  0  0  0  0  2  0  0  0  0  0  0
  191.1850  177.3940  138.8440 O   0  0  0  0  0  0  0  0  0  0  0  0
  191.8190  176.1230  138.7630 C   0  0  0  0  0  2  0  0  0  0  0  0
  190.9560  175.0450  138.4240 O   0  0  0  0  0  0  0  0  0  0  0  0
  191.9660  174.5080  137.5770 C   0  0  2  0  0  3  0  0  0  0  0  0
  192.8880  175.5020  136.8830 C   0  0  2  0  0  3  0  0  0  0  0  0
  192.0280  174.6170  136.0380 C   0  0  2  0  0  3  0  0  0  0  0  0
  190.1550  176.2320  135.6610 C   0  0  0  0  0  0  0  0  0  0  0  0
  191.0340  175.3460  135.2660 C   0  0  0  0  0  3  0  0  0  0  0  0
  189.2280  178.3360  136.2720 O   0  0  0  0  0  1  0  0  0  0  0  0
  189.1220  177.0310  135.7770 C   0  0  0  0  0  0  0  0  0  0  0  0
  187.8740  176.6120  135.0380 C   0  0  0  0  0  2  0  0  0  0  0  0
  186.8340  175.7830  135.7520 C   0  0  1  0  0  3  0  0  0  0  0  0
  187.4790  174.8380  136.5760 O   0  0  0  0  0  1  0  0  0  0  0  0
  184.5810  177.4460  135.4440 O   0  0  0  0  0  1  0  0  0  0  0  0
  184.5820  175.4700  137.1280 O   0  0  0  0  0  1  0  0  0  0  0  0
  185.6140  176.8010  136.6900 P   0  0  0  0  0  0  0  0  0  0  0  0
  194.2680  173.9220  135.8730 O   0  0  0  0  0  1  0  0  0  0  0  0
  194.3640  175.1430  136.4760 C   0  0  2  0  0  3  0  0  0  0  0  0
  195.4150  175.2570  137.4980 O   0  0  0  0  0  0  0  0  0  0  0  0
  195.5710  175.2320  139.9020 O   0  0  0  0  0  1  0  0  0  0  0  0
  195.1770  174.4930  138.7150 C   0  0  0  0  0  2  0  0  0  0  0  0
  187.2440  178.0010  145.4380 C   0  0  0  0  0  3  0  0  0  0  0  0
  186.7600  177.4310  144.3210 C   0  0  0  0  0  3  0  0  0  0  0  0
  187.1430  177.3130  146.7840 C   0  0  0  0  0  2  0  0  0  0  0  0
  188.5540  177.3060  147.3550 C   0  0  2  0  0  3  0  0  0  0  0  0
  188.6630  178.2490  148.5680 C   0  0  0  0  0  1  0  0  0  0  0  0
  189.4720  177.8070  146.2570 C   0  0  0  0  0  2  0  0  0  0  0  0
  190.7650  177.1220  146.3870 C   0  0  0  0  0  0  0  0  0  0  0  0
  191.7490  177.4990  145.4880 O   0  0  0  0  0  0  0  0  0  0  0  0
  190.9790  176.2720  147.3020 O   0  0  0  0  0  1  0  0  0  0  0  0
  182.9060  178.8240  139.3970 C   0  0  0  0  0  2  0  0  0  0  0  0
  181.3220  178.5980  139.4050 C   0  0  2  0  0  3  0  0  0  0  0  0
  179.7310  174.0900  138.9590 S   0  0  0  0  0  0  0  0  0  0  0  0
  178.9660  175.3780  140.0020 C   0  0  0  0  0  2  0  0  0  0  0  0
  181.3790  176.1890  138.3150 C   0  0  0  0  0  2  0  0  0  0  0  0
  180.7630  177.1280  139.3330 C   0  0  0  0  0  3  0  0  0  0  0  0
  180.3160  175.2990  137.7190 C   0  0  0  0  0  2  0  0  0  0  0  0
  179.9620  176.4710  140.4360 C   0  0  0  0  0  2  0  0  0  0  0  0
  180.6970  179.4560  138.3350 C   0  0  0  0  0  0  0  0  0  0  0  0
  179.8450  178.9760  137.5890 O   0  0  0  0  0  0  0  0  0  0  0  0
  181.2740  180.8170  138.0560 C   0  0  0  0  0  2  0  0  0  0  0  0
  180.5620  181.4790  137.0570 O   0  0  0  0  0  1  0  0  0  0  0  0
  1 35  1  1  0  0  0
  2  6  1  0  0  0  0
  2  5  1  0  0  0  0
  3  5  2  0  0  0  0
  3  7  1  0  0  0  0
  4  9  1  1  0  0  0
  4  1  1  0  0  0  0
  5  8  1  0  0  0  0
  6  4  1  0  0  0  0
  8  1  1  0  0  0  0
  9 10  2  0  0  0  0
 11  9  1  0  0  0  0
 12 11  1  0  0  0  0
 13 12  1  0  0  0  0
 14 13  1  0  0  0  0
 15 14  1  0  0  0  0
 16 15  1  1  0  0  0
 17 30  1  6  0  0  0
 17 16  1  0  0  0  0
 18 20  1  1  0  0  0
 18 17  1  0  0  0  0
 18 16  1  0  0  0  0
 19 22  2  0  0  0  0
 20 19  2  0  0  0  0
 22 21  1  0  0  0  0
 23 24  1  0  0  0  0
 23 22  1  0  0  0  0
 24 25  1  1  0  0  0
 24 28  1  0  0  0  0
 26 28  1  0  0  0  0
 28 27  1  0  0  0  0
 30 29  1  1  0  0  0
 30 31  1  0  0  0  0
 31 33  1  0  0  0  0
 33 32  1  0  0  0  0
 34 36  1  0  0  0  0
 35 34  2  0  0  0  0
 36 37  1  0  0  0  0
 37 38  1  1  0  0  0
 39 40  1  0  0  0  0
 39 37  1  0  0  0  0
 40 42  1  0  0  0  0
 41 40  2  0  0  0  0
 43  3  1  0  0  0  0
 44 43  1  6  0  0  0
 45 46  1  0  0  0  0
 46 50  1  0  0  0  0
 47 48  1  0  0  0  0
 48 44  1  0  0  0  0
 48 50  1  0  0  0  0
 49 47  1  0  0  0  0
 49 45  1  0  0  0  0
 51 44  1  0  0  0  0
 52 51  2  0  0  0  0
 53 51  1  0  0  0  0
 54 53  1  0  0  0  0
M  END
>  <MODEL>
9

>  <REMARK>
 VINA RESULT:      -5.7      2.768      7.048
  Name = 
  24 active torsions:
  status: ('A' for Active; 'I' for Inactive)
    1  A    between atoms: C_4  and  C_11
    2  A    between atoms: C_4  and  C_31
    3  A    between atoms: C_6  and  C_38
    4  A    between atoms: C_6  and  C_46
    5  A    between atoms: C_8  and  C_38
    6  A    between atoms: C_9  and  O_12
    7  A    between atoms: C_9  and  O_29
    8  A    between atoms: O_10  and  C_22
    9  A    between atoms: O_10  and  C_41
   10  A    between atoms: O_12  and  C_42
   11  A    between atoms: C_14  and  P_26
   12  A    between atoms: C_14  and  C_52
   13  A    between atoms: C_17  and  C_31
   14  A    between atoms: O_19  and  C_33
   15  A    between atoms: O_19  and  C_50
   16  A    between atoms: C_20  and  C_45
   17  A    between atoms: C_25  and  C_37
   18  A    between atoms: C_27  and  C_42
   19  A    between atoms: C_28  and  C_46
   20  A    between atoms: O_29  and  C_41
   21  A    between atoms: C_31  and  C_37
   22  A    between atoms: C_36  and  C_50
   23  A    between atoms: C_39  and  C_43
   24  A    between atoms: C_51  and  C_52
                            x       y       z     vdW  Elec       q    Type
                         _______ _______ _______ _____ _____    ______ ____

>  <TORSDO>
F 24

$$$$
