=
 OpenBabel11062415433D

 34 38  0  0  1  0  0  0  0  0999 V2000
  183.7480  178.9700  145.4310 N   0  0  0  0  0  0  0  0  0  0  0  0
  182.6570  179.2620  144.6730 C   0  0  0  0  0  3  0  0  0  0  0  0
  186.1660  177.8150  142.9200 C   0  0  0  0  0  3  0  0  0  0  0  0
  187.1830  177.7210  145.1260 C   0  0  0  0  0  0  0  0  0  0  0  0
  184.9760  178.3010  143.4780 C   0  0  0  0  0  0  0  0  0  0  0  0
  183.8600  178.5980  142.6790 C   0  0  0  0  0  0  0  0  0  0  0  0
  184.8950  178.4990  144.8750 C   0  0  0  0  0  0  0  0  0  0  0  0
  182.6940  179.0800  143.2890 C   0  0  0  0  0  3  0  0  0  0  0  0
  185.9950  178.2100  145.6870 C   0  0  0  0  0  3  0  0  0  0  0  0
  187.2610  177.5280  143.7400 C   0  0  0  0  0  3  0  0  0  0  0  0
  189.6810  176.8780  147.7630 N   0  0  0  0  0  0  0  0  0  0  0  0
  187.9030  178.4730  148.1870 C   0  0  0  0  0  1  0  0  0  0  0  0
  188.2920  177.1940  147.4680 C   0  0  1  0  0  3  0  0  0  0  0  0
  188.3430  177.4210  145.9870 C   0  0  0  0  0  0  0  0  0  0  0  0
  189.5400  177.2740  145.5260 N   0  0  0  0  0  0  0  0  0  0  0  0
  190.3380  176.9490  146.6530 C   0  0  0  0  0  0  0  0  0  0  0  0
  192.0300  175.4320  145.6880 C   0  0  0  0  0  1  0  0  0  0  0  0
  192.3410  176.4540  147.8170 O   0  0  0  0  0  1  0  0  0  0  0  0
  191.7980  176.6590  146.5480 C   0  0  2  0  0  3  0  0  0  0  0  0
  183.9150  178.4020  141.2600 N   0  0  0  0  0  2  0  0  0  0  0  0
  180.9790  177.0510  137.9650 C   0  0  0  0  0  2  0  0  0  0  0  0
  180.6250  176.8810  136.6120 O   0  0  0  0  0  0  0  0  0  0  0  0
  182.4370  177.5560  138.0870 C   0  0  2  0  0  0  0  0  0  0  0  0
  183.0800  177.0940  139.3910 C   0  0  1  0  0  3  0  0  0  0  0  0
  181.5100  179.7130  137.4440 O   0  0  0  0  0  1  0  0  0  0  0  0
  181.0990  175.7170  134.5940 C   0  0  0  0  0  1  0  0  0  0  0  0
  182.7430  178.1440  140.4350 C   0  0  2  0  0  3  0  0  0  0  0  0
  180.7180  174.5790  136.6270 O   0  0  0  0  0  1  0  0  0  0  0  0
  182.3510  179.4030  139.6700 C   0  0  0  0  0  2  0  0  0  0  0  0
  181.2880  175.7380  136.0970 C   0  0  2  0  0  0  0  0  0  0  0  0
  182.8040  175.7340  136.3830 C   0  0  0  0  0  2  0  0  0  0  0  0
  182.6340  175.8320  139.7960 O   0  0  0  0  0  1  0  0  0  0  0  0
  182.5010  179.0750  138.1960 C   0  0  1  0  0  3  0  0  0  0  0  0
  183.2780  177.0930  136.8930 C   0  0  0  0  0  2  0  0  0  0  0  0
  2  1  2  0  0  0  0
  3  5  2  0  0  0  0
  3 10  1  0  0  0  0
  4  9  1  0  0  0  0
  4 14  1  0  0  0  0
  5  7  1  0  0  0  0
  6  8  2  0  0  0  0
  6  5  1  0  0  0  0
  7  1  1  0  0  0  0
  7  9  2  0  0  0  0
  8  2  1  0  0  0  0
 10  4  2  0  0  0  0
 13 11  1  0  0  0  0
 13 12  1  1  0  0  0
 14 13  1  0  0  0  0
 15 14  2  0  0  0  0
 15 16  1  0  0  0  0
 16 11  2  0  0  0  0
 19 17  1  6  0  0  0
 19 16  1  0  0  0  0
 19 18  1  0  0  0  0
 20  6  1  0  0  0  0
 21 23  1  0  0  0  0
 22 21  1  0  0  0  0
 23 34  1  6  0  0  0
 23 33  1  0  0  0  0
 23 24  1  0  0  0  0
 24 32  1  1  0  0  0
 24 27  1  0  0  0  0
 27 20  1  1  0  0  0
 29 27  1  0  0  0  0
 30 26  1  6  0  0  0
 30 31  1  0  0  0  0
 30 22  1  0  0  0  0
 30 28  1  0  0  0  0
 31 34  1  0  0  0  0
 33 25  1  6  0  0  0
 33 29  1  0  0  0  0
M  END
>  <MODEL>
1

>  <REMARK>
 VINA RESULT:      -9.4      0.000      0.000
  Name = 
  4 active torsions:
  status: ('A' for Active; 'I' for Inactive)
    1  A    between atoms: C_13  and  C_24
    2  A    between atoms: N_14  and  C_16
    3  A    between atoms: N_14  and  C_22
    4  A    between atoms: C_26  and  C_28
                            x       y       z     vdW  Elec       q    Type
                         _______ _______ _______ _____ _____    ______ ____

>  <TORSDO>
F 4

$$$$
=
 OpenBabel11062415433D

 34 38  0  0  1  0  0  0  0  0999 V2000
  182.9350  178.6160  144.3850 N   0  0  0  0  0  0  0  0  0  0  0  0
  181.7910  178.9140  143.7130 C   0  0  0  0  0  3  0  0  0  0  0  0
  185.3900  178.3310  141.6680 C   0  0  0  0  0  3  0  0  0  0  0  0
  186.4880  177.9170  143.7970 C   0  0  0  0  0  0  0  0  0  0  0  0
  184.1680  178.5320  142.3250 C   0  0  0  0  0  0  0  0  0  0  0  0
  182.9970  178.8390  141.6150 C   0  0  0  0  0  0  0  0  0  0  0  0
  184.1130  178.4240  143.7330 C   0  0  0  0  0  0  0  0  0  0  0  0
  181.8020  179.0290  142.3220 C   0  0  0  0  0  3  0  0  0  0  0  0
  185.2680  178.1190  144.4580 C   0  0  0  0  0  3  0  0  0  0  0  0
  186.5400  178.0260  142.4010 C   0  0  0  0  0  3  0  0  0  0  0  0
  189.8690  177.1800  145.1850 N   0  0  0  0  0  0  0  0  0  0  0  0
  189.0950  176.1170  143.1470 C   0  0  0  0  0  1  0  0  0  0  0  0
  189.0710  177.3820  143.9860 C   0  0  1  0  0  3  0  0  0  0  0  0
  187.7060  177.5990  144.5670 C   0  0  0  0  0  0  0  0  0  0  0  0
  187.7210  177.5240  145.8550 N   0  0  0  0  0  0  0  0  0  0  0  0
  189.0720  177.2560  146.1980 C   0  0  0  0  0  0  0  0  0  0  0  0
  188.9780  178.2640  148.4490 C   0  0  0  0  0  1  0  0  0  0  0  0
  190.9270  177.1390  147.6670 O   0  0  0  0  0  1  0  0  0  0  0  0
  189.5330  177.1280  147.6110 C   0  0  2  0  0  3  0  0  0  0  0  0
  183.0260  178.9500  140.1850 N   0  0  0  0  0  2  0  0  0  0  0  0
  181.3230  175.7580  137.3210 C   0  0  0  0  0  2  0  0  0  0  0  0
  181.4350  174.9060  136.2030 O   0  0  0  0  0  0  0  0  0  0  0  0
  182.6680  176.4710  137.5990 C   0  0  2  0  0  0  0  0  0  0  0  0
  182.8310  176.7960  139.0800 C   0  0  1  0  0  3  0  0  0  0  0  0
  182.0530  177.8860  135.7150 O   0  0  0  0  0  1  0  0  0  0  0  0
  182.5270  173.0010  135.2930 C   0  0  0  0  0  1  0  0  0  0  0  0
  182.1890  178.1550  139.2980 C   0  0  2  0  0  3  0  0  0  0  0  0
  181.4690  172.9390  137.4030 O   0  0  0  0  0  1  0  0  0  0  0  0
  182.1010  178.8150  137.9270 C   0  0  0  0  0  2  0  0  0  0  0  0
  182.2070  173.7710  136.5590 C   0  0  2  0  0  0  0  0  0  0  0  0
  183.5410  174.1320  137.2420 C   0  0  0  0  0  2  0  0  0  0  0  0
  182.2500  175.8340  139.9120 O   0  0  0  0  0  1  0  0  0  0  0  0
  182.7250  177.8450  136.9410 C   0  0  1  0  0  3  0  0  0  0  0  0
  183.8480  175.6230  137.1130 C   0  0  0  0  0  2  0  0  0  0  0  0
  2  1  2  0  0  0  0
  3  5  2  0  0  0  0
  3 10  1  0  0  0  0
  4  9  1  0  0  0  0
  4 14  1  0  0  0  0
  5  7  1  0  0  0  0
  6  8  2  0  0  0  0
  6  5  1  0  0  0  0
  7  1  1  0  0  0  0
  7  9  2  0  0  0  0
  8  2  1  0  0  0  0
 10  4  2  0  0  0  0
 11 16  2  0  0  0  0
 13 12  1  6  0  0  0
 13 14  1  0  0  0  0
 13 11  1  0  0  0  0
 14 15  2  0  0  0  0
 15 16  1  0  0  0  0
 16 19  1  0  0  0  0
 19 18  1  0  0  0  0
 19 17  1  1  0  0  0
 20  6  1  0  0  0  0
 21 23  1  0  0  0  0
 22 30  1  0  0  0  0
 22 21  1  0  0  0  0
 23 34  1  6  0  0  0
 23 24  1  0  0  0  0
 24 27  1  0  0  0  0
 24 32  1  1  0  0  0
 27 20  1  1  0  0  0
 29 27  1  0  0  0  0
 30 26  1  6  0  0  0
 30 31  1  0  0  0  0
 30 28  1  0  0  0  0
 33 25  1  6  0  0  0
 33 23  1  0  0  0  0
 33 29  1  0  0  0  0
 34 31  1  0  0  0  0
M  END
>  <MODEL>
2

>  <REMARK>
 VINA RESULT:      -9.1      1.496      2.205
  Name = 
  4 active torsions:
  status: ('A' for Active; 'I' for Inactive)
    1  A    between atoms: C_13  and  C_24
    2  A    between atoms: N_14  and  C_16
    3  A    between atoms: N_14  and  C_22
    4  A    between atoms: C_26  and  C_28
                            x       y       z     vdW  Elec       q    Type
                         _______ _______ _______ _____ _____    ______ ____

>  <TORSDO>
F 4

$$$$
=
 OpenBabel11062415433D

 34 38  0  0  1  0  0  0  0  0999 V2000
  190.5820  176.5710  140.5660 N   0  0  0  0  0  0  0  0  0  0  0  0
  190.8980  176.6450  139.2450 C   0  0  0  0  0  3  0  0  0  0  0  0
  187.4440  178.4730  140.7320 C   0  0  0  0  0  3  0  0  0  0  0  0
  188.0210  177.6670  142.9520 C   0  0  0  0  0  0  0  0  0  0  0  0
  188.5950  177.8710  140.2040 C   0  0  0  0  0  0  0  0  0  0  0  0
  188.9050  177.9580  138.8370 C   0  0  0  0  0  0  0  0  0  0  0  0
  189.4620  177.1600  141.0630 C   0  0  0  0  0  0  0  0  0  0  0  0
  190.0680  177.3390  138.3620 C   0  0  0  0  0  3  0  0  0  0  0  0
  189.1710  177.0610  142.4260 C   0  0  0  0  0  3  0  0  0  0  0  0
  187.1610  178.3700  142.0970 C   0  0  0  0  0  3  0  0  0  0  0  0
  186.6440  177.3180  146.4000 N   0  0  0  0  0  0  0  0  0  0  0  0
  185.6080  178.8000  144.7830 C   0  0  0  0  0  1  0  0  0  0  0  0
  186.3420  177.4870  144.9870 C   0  0  1  0  0  3  0  0  0  0  0  0
  187.7150  177.5570  144.3920 C   0  0  0  0  0  0  0  0  0  0  0  0
  188.6300  177.4580  145.2970 N   0  0  0  0  0  0  0  0  0  0  0  0
  187.9300  177.3220  146.5240 C   0  0  0  0  0  0  0  0  0  0  0  0
  188.2470  178.2600  148.7840 C   0  0  0  0  0  1  0  0  0  0  0  0
  190.0070  177.1300  147.6450 O   0  0  0  0  0  1  0  0  0  0  0  0
  188.6250  177.1430  147.8310 C   0  0  2  0  0  3  0  0  0  0  0  0
  188.0430  178.6770  137.9450 N   0  0  0  0  0  2  0  0  0  0  0  0
  185.4200  175.8400  135.4220 C   0  0  0  0  0  2  0  0  0  0  0  0
  185.0730  174.5550  134.9570 O   0  0  0  0  0  0  0  0  0  0  0  0
  186.5360  175.7480  136.4910 C   0  0  2  0  0  0  0  0  0  0  0  0
  186.4510  176.9020  137.4850 C   0  0  1  0  0  3  0  0  0  0  0  0
  188.0180  175.3870  134.5940 O   0  0  0  0  0  1  0  0  0  0  0  0
  184.2000  172.4250  135.5530 C   0  0  0  0  0  1  0  0  0  0  0  0
  187.2590  178.0430  136.8940 C   0  0  2  0  0  3  0  0  0  0  0  0
  183.0660  174.4280  136.0830 O   0  0  0  0  0  1  0  0  0  0  0  0
  188.1820  177.4240  135.8520 C   0  0  0  0  0  2  0  0  0  0  0  0
  184.3440  173.8760  135.9670 C   0  0  2  0  0  0  0  0  0  0  0  0
  185.0370  173.9090  137.3440 C   0  0  0  0  0  2  0  0  0  0  0  0
  185.1350  177.3040  137.7350 O   0  0  0  0  0  1  0  0  0  0  0  0
  187.9200  175.9300  135.8790 C   0  0  1  0  0  3  0  0  0  0  0  0
  186.4750  174.4090  137.2310 C   0  0  0  0  0  2  0  0  0  0  0  0
  1  7  1  0  0  0  0
  2  1  2  0  0  0  0
  3 10  1  0  0  0  0
  4 14  1  0  0  0  0
  5  3  2  0  0  0  0
  5  7  1  0  0  0  0
  6  5  1  0  0  0  0
  7  9  2  0  0  0  0
  8  6  2  0  0  0  0
  8  2  1  0  0  0  0
  9  4  1  0  0  0  0
 10  4  2  0  0  0  0
 11 16  2  0  0  0  0
 13 12  1  1  0  0  0
 13 11  1  0  0  0  0
 14 13  1  0  0  0  0
 14 15  2  0  0  0  0
 15 16  1  0  0  0  0
 16 19  1  0  0  0  0
 18 19  1  0  0  0  0
 19 17  1  1  0  0  0
 20  6  1  0  0  0  0
 22 21  1  0  0  0  0
 22 30  1  0  0  0  0
 23 21  1  6  0  0  0
 23 34  1  0  0  0  0
 23 24  1  0  0  0  0
 24 32  1  6  0  0  0
 27 24  1  0  0  0  0
 27 20  1  1  0  0  0
 29 33  1  0  0  0  0
 29 27  1  0  0  0  0
 30 26  1  6  0  0  0
 30 28  1  0  0  0  0
 30 31  1  0  0  0  0
 33 25  1  6  0  0  0
 33 23  1  0  0  0  0
 34 31  1  0  0  0  0
M  END
>  <MODEL>
3

>  <REMARK>
 VINA RESULT:      -9.0      3.627      5.144
  Name = 
  4 active torsions:
  status: ('A' for Active; 'I' for Inactive)
    1  A    between atoms: C_13  and  C_24
    2  A    between atoms: N_14  and  C_16
    3  A    between atoms: N_14  and  C_22
    4  A    between atoms: C_26  and  C_28
                            x       y       z     vdW  Elec       q    Type
                         _______ _______ _______ _____ _____    ______ ____

>  <TORSDO>
F 4

$$$$
=
 OpenBabel11062415433D

 34 38  0  0  1  0  0  0  0  0999 V2000
  185.1640  178.9590  146.1370 N   0  0  0  0  0  0  0  0  0  0  0  0
  186.4340  178.6000  146.4670 C   0  0  0  0  0  3  0  0  0  0  0  0
  184.9640  177.9790  142.6030 C   0  0  0  0  0  3  0  0  0  0  0  0
  182.8450  178.9500  143.2940 C   0  0  0  0  0  0  0  0  0  0  0  0
  185.4850  178.1740  143.8890 C   0  0  0  0  0  0  0  0  0  0  0  0
  186.7980  177.7970  144.2120 C   0  0  0  0  0  0  0  0  0  0  0  0
  184.6730  178.7630  144.8840 C   0  0  0  0  0  0  0  0  0  0  0  0
  187.2700  178.0160  145.5130 C   0  0  0  0  0  3  0  0  0  0  0  0
  183.3630  179.1450  144.5830 C   0  0  0  0  0  3  0  0  0  0  0  0
  183.6520  178.3650  142.3100 C   0  0  0  0  0  3  0  0  0  0  0  0
  179.2400  179.8880  143.1300 N   0  0  0  0  0  0  0  0  0  0  0  0
  179.9650  177.9140  144.3400 C   0  0  0  0  0  1  0  0  0  0  0  0
  180.3120  179.3390  143.9460 C   0  0  1  0  0  3  0  0  0  0  0  0
  181.4600  179.3510  142.9820 C   0  0  0  0  0  0  0  0  0  0  0  0
  181.1060  179.8100  141.8280 N   0  0  0  0  0  0  0  0  0  0  0  0
  179.7270  180.1220  141.9570 C   0  0  0  0  0  0  0  0  0  0  0  0
  179.4260  180.2040  139.5080 C   0  0  0  0  0  1  0  0  0  0  0  0
  179.0260  182.1110  140.8780 O   0  0  0  0  0  1  0  0  0  0  0  0
  178.9310  180.7190  140.8460 C   0  0  2  0  0  3  0  0  0  0  0  0
  187.6440  177.2020  143.2180 N   0  0  0  0  0  2  0  0  0  0  0  0
  189.2250  178.8820  139.2220 C   0  0  0  0  0  2  0  0  0  0  0  0
  189.7460  178.7120  137.9230 O   0  0  0  0  0  0  0  0  0  0  0  0
  188.8410  177.5150  139.8370 C   0  0  2  0  0  0  0  0  0  0  0  0
  187.6940  177.6540  140.8320 C   0  0  1  0  0  3  0  0  0  0  0  0
  191.2360  177.2520  140.1920 O   0  0  0  0  0  1  0  0  0  0  0  0
  189.2980  177.9490  135.7160 C   0  0  0  0  0  1  0  0  0  0  0  0
  188.3250  177.9620  142.1790 C   0  0  2  0  0  3  0  0  0  0  0  0
  187.8800  179.4860  136.8130 O   0  0  0  0  0  1  0  0  0  0  0  0
  189.7830  177.5290  142.0820 C   0  0  0  0  0  2  0  0  0  0  0  0
  188.6910  178.3720  137.0390 C   0  0  2  0  0  0  0  0  0  0  0  0
  187.8200  177.2070  137.5520 C   0  0  0  0  0  2  0  0  0  0  0  0
  186.7840  178.6520  140.4720 O   0  0  0  0  0  1  0  0  0  0  0  0
  189.9660  176.9460  140.6930 C   0  0  1  0  0  3  0  0  0  0  0  0
  188.4710  176.5080  138.7440 C   0  0  0  0  0  2  0  0  0  0  0  0
  1  2  1  0  0  0  0
  3  5  1  0  0  0  0
  4  9  2  0  0  0  0
  5  6  2  0  0  0  0
  5  7  1  0  0  0  0
  6  8  1  0  0  0  0
  7  1  2  0  0  0  0
  8  2  2  0  0  0  0
  9  7  1  0  0  0  0
 10  3  2  0  0  0  0
 10  4  1  0  0  0  0
 11 13  1  0  0  0  0
 13 12  1  6  0  0  0
 14  4  1  0  0  0  0
 14 13  1  0  0  0  0
 15 16  1  0  0  0  0
 15 14  2  0  0  0  0
 16 11  2  0  0  0  0
 19 17  1  6  0  0  0
 19 18  1  0  0  0  0
 19 16  1  0  0  0  0
 20  6  1  0  0  0  0
 21 23  1  0  0  0  0
 22 21  1  0  0  0  0
 23 34  1  6  0  0  0
 23 33  1  0  0  0  0
 23 24  1  0  0  0  0
 24 32  1  6  0  0  0
 24 27  1  0  0  0  0
 27 20  1  1  0  0  0
 28 30  1  0  0  0  0
 29 27  1  0  0  0  0
 30 26  1  6  0  0  0
 30 31  1  0  0  0  0
 30 22  1  0  0  0  0
 31 34  1  0  0  0  0
 33 25  1  6  0  0  0
 33 29  1  0  0  0  0
M  END
>  <MODEL>
4

>  <REMARK>
 VINA RESULT:      -8.8      4.015      8.070
  Name = 
  4 active torsions:
  status: ('A' for Active; 'I' for Inactive)
    1  A    between atoms: C_13  and  C_24
    2  A    between atoms: N_14  and  C_16
    3  A    between atoms: N_14  and  C_22
    4  A    between atoms: C_26  and  C_28
                            x       y       z     vdW  Elec       q    Type
                         _______ _______ _______ _____ _____    ______ ____

>  <TORSDO>
F 4

$$$$
=
 OpenBabel11062415433D

 34 38  0  0  1  0  0  0  0  0999 V2000
  187.3490  178.2520  139.3990 N   0  0  0  0  0  0  0  0  0  0  0  0
  187.4450  178.2350  138.0420 C   0  0  0  0  0  3  0  0  0  0  0  0
  190.7080  177.1920  140.4390 C   0  0  0  0  0  3  0  0  0  0  0  0
  189.3420  177.5980  142.4080 C   0  0  0  0  0  0  0  0  0  0  0  0
  189.6320  177.5360  139.6090 C   0  0  0  0  0  0  0  0  0  0  0  0
  189.7500  177.5130  138.2100 C   0  0  0  0  0  0  0  0  0  0  0  0
  188.4010  177.9150  140.1910 C   0  0  0  0  0  0  0  0  0  0  0  0
  188.6430  177.8650  137.4270 C   0  0  0  0  0  3  0  0  0  0  0  0
  188.2640  177.9450  141.5810 C   0  0  0  0  0  3  0  0  0  0  0  0
  190.5610  177.2240  141.8280 C   0  0  0  0  0  3  0  0  0  0  0  0
  189.5770  177.8740  146.1190 N   0  0  0  0  0  0  0  0  0  0  0  0
  191.2870  176.7250  144.8390 C   0  0  0  0  0  1  0  0  0  0  0  0
  190.3000  177.8780  144.8570 C   0  0  1  0  0  3  0  0  0  0  0  0
  189.1930  177.6350  143.8760 C   0  0  0  0  0  0  0  0  0  0  0  0
  188.0540  177.5050  144.4690 N   0  0  0  0  0  0  0  0  0  0  0  0
  188.3330  177.6500  145.8520 C   0  0  0  0  0  0  0  0  0  0  0  0
  186.0000  178.2530  146.3850 C   0  0  0  0  0  1  0  0  0  0  0  0
  187.6990  178.2540  148.0530 O   0  0  0  0  0  1  0  0  0  0  0  0
  187.2700  177.6020  146.8970 C   0  0  2  0  0  3  0  0  0  0  0  0
  190.9870  177.1270  137.5950 N   0  0  0  0  0  2  0  0  0  0  0  0
  194.0800  173.7230  137.9680 C   0  0  0  0  0  2  0  0  0  0  0  0
  195.0360  172.8480  137.4140 O   0  0  0  0  0  0  0  0  0  0  0  0
  193.5900  174.7370  136.9070 C   0  0  2  0  0  0  0  0  0  0  0  0
  193.1650  176.0540  137.5480 C   0  0  1  0  0  3  0  0  0  0  0  0
  192.2670  172.8770  136.0610 O   0  0  0  0  0  1  0  0  0  0  0  0
  197.1780  172.6760  136.3960 C   0  0  0  0  0  1  0  0  0  0  0  0
  191.7010  175.9010  137.9210 C   0  0  2  0  0  3  0  0  0  0  0  0
  196.8610  173.8020  138.4480 O   0  0  0  0  0  1  0  0  0  0  0  0
  191.1630  174.7430  137.0890 C   0  0  0  0  0  2  0  0  0  0  0  0
  196.2510  173.5510  137.2170 C   0  0  2  0  0  0  0  0  0  0  0  0
  196.0680  174.8840  136.4620 C   0  0  0  0  0  2  0  0  0  0  0  0
  193.9310  176.3800  138.6720 O   0  0  0  0  0  1  0  0  0  0  0  0
  192.3130  174.2650  136.2220 C   0  0  1  0  0  3  0  0  0  0  0  0
  194.6720  174.9900  135.8520 C   0  0  0  0  0  2  0  0  0  0  0  0
  1  7  1  0  0  0  0
  2  1  2  0  0  0  0
  3 10  1  0  0  0  0
  4 14  1  0  0  0  0
  5  7  1  0  0  0  0
  5  3  2  0  0  0  0
  6  5  1  0  0  0  0
  7  9  2  0  0  0  0
  8  2  1  0  0  0  0
  8  6  2  0  0  0  0
  9  4  1  0  0  0  0
 10  4  2  0  0  0  0
 13 12  1  1  0  0  0
 13 11  1  0  0  0  0
 14 15  2  0  0  0  0
 14 13  1  0  0  0  0
 15 16  1  0  0  0  0
 16 11  2  0  0  0  0
 16 19  1  0  0  0  0
 19 17  1  6  0  0  0
 19 18  1  0  0  0  0
 20  6  1  0  0  0  0
 22 21  1  0  0  0  0
 23 34  1  6  0  0  0
 23 24  1  0  0  0  0
 23 21  1  0  0  0  0
 24 27  1  0  0  0  0
 24 32  1  1  0  0  0
 27 20  1  6  0  0  0
 29 27  1  0  0  0  0
 30 26  1  6  0  0  0
 30 22  1  0  0  0  0
 30 28  1  0  0  0  0
 31 30  1  0  0  0  0
 33 25  1  1  0  0  0
 33 23  1  0  0  0  0
 33 29  1  0  0  0  0
 34 31  1  0  0  0  0
M  END
>  <MODEL>
5

>  <REMARK>
 VINA RESULT:      -8.7      6.826      9.303
  Name = 
  4 active torsions:
  status: ('A' for Active; 'I' for Inactive)
    1  A    between atoms: C_13  and  C_24
    2  A    between atoms: N_14  and  C_16
    3  A    between atoms: N_14  and  C_22
    4  A    between atoms: C_26  and  C_28
                            x       y       z     vdW  Elec       q    Type
                         _______ _______ _______ _____ _____    ______ ____

>  <TORSDO>
F 4

$$$$
=
 OpenBabel11062415433D

 34 38  0  0  1  0  0  0  0  0999 V2000
  188.9420  176.0050  143.4650 N   0  0  0  0  0  0  0  0  0  0  0  0
  190.1820  175.6580  143.0270 C   0  0  0  0  0  3  0  0  0  0  0  0
  188.0150  178.7010  141.1490 C   0  0  0  0  0  3  0  0  0  0  0  0
  186.2070  178.3370  142.7330 C   0  0  0  0  0  0  0  0  0  0  0  0
  188.7660  177.6860  141.7580 C   0  0  0  0  0  0  0  0  0  0  0  0
  190.0450  177.3410  141.2920 C   0  0  0  0  0  0  0  0  0  0  0  0
  188.2260  176.9920  142.8640 C   0  0  0  0  0  0  0  0  0  0  0  0
  190.7530  176.3190  141.9380 C   0  0  0  0  0  3  0  0  0  0  0  0
  186.9540  177.3190  143.3420 C   0  0  0  0  0  3  0  0  0  0  0  0
  186.7440  179.0220  141.6350 C   0  0  0  0  0  3  0  0  0  0  0  0
  183.1230  179.4780  144.4900 N   0  0  0  0  0  0  0  0  0  0  0  0
  184.9210  178.3890  145.6990 C   0  0  0  0  0  1  0  0  0  0  0  0
  184.5680  179.3250  144.5570 C   0  0  1  0  0  3  0  0  0  0  0  0
  184.8630  178.6760  143.2390 C   0  0  0  0  0  0  0  0  0  0  0  0
  183.7860  178.4850  142.5530 N   0  0  0  0  0  0  0  0  0  0  0  0
  182.7330  178.9850  143.3620 C   0  0  0  0  0  0  0  0  0  0  0  0
  180.4310  178.3300  143.9660 C   0  0  0  0  0  1  0  0  0  0  0  0
  181.1810  178.3090  141.7050 O   0  0  0  0  0  1  0  0  0  0  0  0
  181.3090  178.9870  142.9180 C   0  0  2  0  0  3  0  0  0  0  0  0
  190.6170  178.0340  140.1740 N   0  0  0  0  0  2  0  0  0  0  0  0
  188.6820  177.1720  136.0750 C   0  0  0  0  0  2  0  0  0  0  0  0
  187.6630  176.6150  135.2750 O   0  0  0  0  0  0  0  0  0  0  0  0
  188.3410  177.0170  137.5760 C   0  0  2  0  0  0  0  0  0  0  0  0
  188.9560  178.1390  138.4060 C   0  0  1  0  0  3  0  0  0  0  0  0
  189.0330  174.7030  137.2660 O   0  0  0  0  0  1  0  0  0  0  0  0
  185.3670  176.7250  134.6700 C   0  0  0  0  0  1  0  0  0  0  0  0
  190.3530  177.6810  138.7860 C   0  0  2  0  0  3  0  0  0  0  0  0
  186.7650  178.6260  134.5970 O   0  0  0  0  0  1  0  0  0  0  0  0
  190.3730  176.1670  138.6150 C   0  0  0  0  0  2  0  0  0  0  0  0
  186.5230  177.4570  135.3210 C   0  0  2  0  0  0  0  0  0  0  0  0
  186.0990  177.8280  136.7570 C   0  0  0  0  0  2  0  0  0  0  0  0
  189.0020  179.3560  137.7190 O   0  0  0  0  0  1  0  0  0  0  0  0
  188.9780  175.7670  138.1730 C   0  0  1  0  0  3  0  0  0  0  0  0
  186.8260  176.9710  137.7910 C   0  0  0  0  0  2  0  0  0  0  0  0
  2  1  1  0  0  0  0
  3 10  2  0  0  0  0
  3  5  1  0  0  0  0
  4 14  1  0  0  0  0
  4  9  2  0  0  0  0
  5  7  1  0  0  0  0
  6  5  2  0  0  0  0
  6  8  1  0  0  0  0
  7  9  1  0  0  0  0
  7  1  2  0  0  0  0
  8  2  2  0  0  0  0
 10  4  1  0  0  0  0
 11 13  1  0  0  0  0
 13 12  1  1  0  0  0
 14 13  1  0  0  0  0
 15 14  2  0  0  0  0
 15 16  1  0  0  0  0
 16 11  2  0  0  0  0
 18 19  1  0  0  0  0
 19 16  1  0  0  0  0
 19 17  1  1  0  0  0
 20  6  1  0  0  0  0
 22 30  1  0  0  0  0
 22 21  1  0  0  0  0
 23 21  1  6  0  0  0
 23 34  1  0  0  0  0
 23 33  1  0  0  0  0
 23 24  1  0  0  0  0
 24 32  1  6  0  0  0
 24 27  1  0  0  0  0
 27 20  1  1  0  0  0
 28 30  1  0  0  0  0
 29 27  1  0  0  0  0
 30 26  1  6  0  0  0
 30 31  1  0  0  0  0
 31 34  1  0  0  0  0
 33 25  1  6  0  0  0
 33 29  1  0  0  0  0
M  END
>  <MODEL>
6

>  <REMARK>
 VINA RESULT:      -8.5      4.006      7.006
  Name = 
  4 active torsions:
  status: ('A' for Active; 'I' for Inactive)
    1  A    between atoms: C_13  and  C_24
    2  A    between atoms: N_14  and  C_16
    3  A    between atoms: N_14  and  C_22
    4  A    between atoms: C_26  and  C_28
                            x       y       z     vdW  Elec       q    Type
                         _______ _______ _______ _____ _____    ______ ____

>  <TORSDO>
F 4

$$$$
=
 OpenBabel11062415433D

 34 38  0  0  1  0  0  0  0  0999 V2000
  183.2970  178.6300  141.4560 N   0  0  0  0  0  0  0  0  0  0  0  0
  182.8070  178.8570  140.2080 C   0  0  0  0  0  3  0  0  0  0  0  0
  186.9130  178.4050  140.8540 C   0  0  0  0  0  3  0  0  0  0  0  0
  186.4660  178.0910  143.2230 C   0  0  0  0  0  0  0  0  0  0  0  0
  185.5420  178.5610  140.6050 C   0  0  0  0  0  0  0  0  0  0  0  0
  185.0540  178.7960  139.3100 C   0  0  0  0  0  0  0  0  0  0  0  0
  184.6290  178.4810  141.6810 C   0  0  0  0  0  0  0  0  0  0  0  0
  183.6750  178.9420  139.1170 C   0  0  0  0  0  3  0  0  0  0  0  0
  185.0940  178.2480  142.9780 C   0  0  0  0  0  3  0  0  0  0  0  0
  187.3690  178.1720  142.1550 C   0  0  0  0  0  3  0  0  0  0  0  0
  187.0790  177.4970  146.8520 N   0  0  0  0  0  0  0  0  0  0  0  0
  185.5820  179.2540  146.1080 C   0  0  0  0  0  1  0  0  0  0  0  0
  186.1070  177.8570  145.8320 C   0  0  1  0  0  3  0  0  0  0  0  0
  186.9530  177.8500  144.5950 C   0  0  0  0  0  0  0  0  0  0  0  0
  188.1810  177.5530  144.8610 N   0  0  0  0  0  0  0  0  0  0  0  0
  188.2210  177.3510  146.2650 C   0  0  0  0  0  0  0  0  0  0  0  0
  189.6740  177.8330  148.2010 C   0  0  0  0  0  1  0  0  0  0  0  0
  190.5670  177.0530  146.1360 O   0  0  0  0  0  1  0  0  0  0  0  0
  189.4650  176.9520  146.9850 C   0  0  2  0  0  3  0  0  0  0  0  0
  185.9600  178.8770  138.2010 N   0  0  0  0  0  2  0  0  0  0  0  0
  186.0050  175.3880  135.1810 C   0  0  0  0  0  2  0  0  0  0  0  0
  186.6070  174.2500  134.6080 O   0  0  0  0  0  0  0  0  0  0  0  0
  186.8230  175.8810  136.3990 C   0  0  2  0  0  0  0  0  0  0  0  0
  185.9320  176.5760  137.4240 C   0  0  1  0  0  3  0  0  0  0  0  0
  188.3400  176.7950  134.7280 O   0  0  0  0  0  1  0  0  0  0  0  0
  187.2660  171.9930  134.9630 C   0  0  0  0  0  1  0  0  0  0  0  0
  185.8610  178.0370  137.0150 C   0  0  2  0  0  3  0  0  0  0  0  0
  185.0690  172.7340  135.4140 O   0  0  0  0  0  1  0  0  0  0  0  0
  187.0480  178.2860  136.0930 C   0  0  0  0  0  2  0  0  0  0  0  0
  186.4060  173.1360  135.4630 C   0  0  2  0  0  0  0  0  0  0  0  0
  186.7970  173.4160  136.9280 C   0  0  0  0  0  2  0  0  0  0  0  0
  184.6520  176.0180  137.4940 O   0  0  0  0  0  1  0  0  0  0  0  0
  187.8090  176.9760  136.0090 C   0  0  1  0  0  3  0  0  0  0  0  0
  187.5780  174.7230  137.0560 C   0  0  0  0  0  2  0  0  0  0  0  0
  1  7  1  0  0  0  0
  2  1  2  0  0  0  0
  3 10  1  0  0  0  0
  4 14  1  0  0  0  0
  5  3  2  0  0  0  0
  5  7  1  0  0  0  0
  6  5  1  0  0  0  0
  7  9  2  0  0  0  0
  8  6  2  0  0  0  0
  8  2  1  0  0  0  0
  9  4  1  0  0  0  0
 10  4  2  0  0  0  0
 13 12  1  1  0  0  0
 13 11  1  0  0  0  0
 14 15  2  0  0  0  0
 14 13  1  0  0  0  0
 15 16  1  0  0  0  0
 16 11  2  0  0  0  0
 16 19  1  0  0  0  0
 18 19  1  0  0  0  0
 19 17  1  1  0  0  0
 20  6  1  0  0  0  0
 22 21  1  0  0  0  0
 22 30  1  0  0  0  0
 23 21  1  6  0  0  0
 23 34  1  0  0  0  0
 23 24  1  0  0  0  0
 24 32  1  6  0  0  0
 27 24  1  0  0  0  0
 27 20  1  1  0  0  0
 28 30  1  0  0  0  0
 29 27  1  0  0  0  0
 30 26  1  6  0  0  0
 30 31  1  0  0  0  0
 31 34  1  0  0  0  0
 33 25  1  6  0  0  0
 33 29  1  0  0  0  0
 33 23  1  0  0  0  0
M  END
>  <MODEL>
7

>  <REMARK>
 VINA RESULT:      -8.5      3.318      4.302
  Name = 
  4 active torsions:
  status: ('A' for Active; 'I' for Inactive)
    1  A    between atoms: C_13  and  C_24
    2  A    between atoms: N_14  and  C_16
    3  A    between atoms: N_14  and  C_22
    4  A    between atoms: C_26  and  C_28
                            x       y       z     vdW  Elec       q    Type
                         _______ _______ _______ _____ _____    ______ ____

>  <TORSDO>
F 4

$$$$
=
 OpenBabel11062415433D

 34 38  0  0  1  0  0  0  0  0999 V2000
  187.8530  178.9570  139.0820 N   0  0  0  0  0  0  0  0  0  0  0  0
  189.0120  178.5960  138.4690 C   0  0  0  0  0  3  0  0  0  0  0  0
  187.9900  177.0390  142.2110 C   0  0  0  0  0  3  0  0  0  0  0  0
  185.9410  178.3460  142.1530 C   0  0  0  0  0  0  0  0  0  0  0  0
  188.3600  177.5430  140.9570 C   0  0  0  0  0  0  0  0  0  0  0  0
  189.5610  177.1590  140.3380 C   0  0  0  0  0  0  0  0  0  0  0  0
  187.5080  178.4590  140.2990 C   0  0  0  0  0  0  0  0  0  0  0  0
  189.8810  177.6930  139.0840 C   0  0  0  0  0  3  0  0  0  0  0  0
  186.3090  178.8540  140.8990 C   0  0  0  0  0  3  0  0  0  0  0  0
  186.7890  177.4390  142.8030 C   0  0  0  0  0  3  0  0  0  0  0  0
  183.1170  179.7510  144.1400 N   0  0  0  0  0  0  0  0  0  0  0  0
  185.0580  178.7910  145.2320 C   0  0  0  0  0  1  0  0  0  0  0  0
  184.5580  179.5820  144.0360 C   0  0  1  0  0  3  0  0  0  0  0  0
  184.6760  178.7690  142.7830 C   0  0  0  0  0  0  0  0  0  0  0  0
  183.5180  178.5110  142.2740 N   0  0  0  0  0  0  0  0  0  0  0  0
  182.5810  179.1270  143.1440 C   0  0  0  0  0  0  0  0  0  0  0  0
  180.4060  178.3230  143.9900 C   0  0  0  0  0  1  0  0  0  0  0  0
  180.8440  178.5100  141.6570 O   0  0  0  0  0  1  0  0  0  0  0  0
  181.1110  179.0980  142.8930 C   0  0  2  0  0  3  0  0  0  0  0  0
  190.4400  176.2280  140.9840 N   0  0  0  0  0  2  0  0  0  0  0  0
  191.9160  177.0900  145.2700 C   0  0  0  0  0  2  0  0  0  0  0  0
  191.7720  177.6970  146.5340 O   0  0  0  0  0  0  0  0  0  0  0  0
  190.6550  177.3280  144.4060 C   0  0  2  0  0  0  0  0  0  0  0  0
  190.4380  176.1910  143.4120 C   0  0  1  0  0  3  0  0  0  0  0  0
  191.5610  179.5660  144.0930 O   0  0  0  0  0  1  0  0  0  0  0  0
  190.5130  177.7490  148.5500 C   0  0  0  0  0  1  0  0  0  0  0  0
  191.2280  176.5490  142.1660 C   0  0  2  0  0  3  0  0  0  0  0  0
  191.4180  175.7410  147.7000 O   0  0  0  0  0  1  0  0  0  0  0  0
  191.4860  178.0490  142.2340 C   0  0  0  0  0  2  0  0  0  0  0  0
  190.8440  176.9520  147.3050 C   0  0  2  0  0  0  0  0  0  0  0  0
  189.5240  176.6680  146.5610 C   0  0  0  0  0  2  0  0  0  0  0  0
  190.8410  174.9500  143.9150 O   0  0  0  0  0  1  0  0  0  0  0  0
  190.8110  178.5440  143.5000 C   0  0  1  0  0  3  0  0  0  0  0  0
  189.4130  177.5020  145.2860 C   0  0  0  0  0  2  0  0  0  0  0  0
  1  7  1  0  0  0  0
  2  1  2  0  0  0  0
  2  8  1  0  0  0  0
  3 10  1  0  0  0  0
  4 14  1  0  0  0  0
  4 10  2  0  0  0  0
  5  3  2  0  0  0  0
  6  5  1  0  0  0  0
  6 20  1  0  0  0  0
  7  9  2  0  0  0  0
  7  5  1  0  0  0  0
  8  6  2  0  0  0  0
  9  4  1  0  0  0  0
 13 11  1  0  0  0  0
 13 12  1  1  0  0  0
 14 13  1  0  0  0  0
 15 14  2  0  0  0  0
 15 16  1  0  0  0  0
 16 11  2  0  0  0  0
 18 19  1  0  0  0  0
 19 16  1  0  0  0  0
 19 17  1  1  0  0  0
 21 22  1  0  0  0  0
 22 30  1  0  0  0  0
 23 21  1  1  0  0  0
 23 34  1  0  0  0  0
 24 32  1  1  0  0  0
 24 23  1  0  0  0  0
 27 20  1  6  0  0  0
 27 29  1  0  0  0  0
 27 24  1  0  0  0  0
 29 33  1  0  0  0  0
 30 28  1  0  0  0  0
 30 26  1  1  0  0  0
 31 30  1  0  0  0  0
 33 25  1  1  0  0  0
 33 23  1  0  0  0  0
 34 31  1  0  0  0  0
M  END
>  <MODEL>
8

>  <REMARK>
 VINA RESULT:      -8.3      3.920      9.661
  Name = 
  4 active torsions:
  status: ('A' for Active; 'I' for Inactive)
    1  A    between atoms: C_13  and  C_24
    2  A    between atoms: N_14  and  C_16
    3  A    between atoms: N_14  and  C_22
    4  A    between atoms: C_26  and  C_28
                            x       y       z     vdW  Elec       q    Type
                         _______ _______ _______ _____ _____    ______ ____

>  <TORSDO>
F 4

$$$$
=
 OpenBabel11062415433D

 34 38  0  0  1  0  0  0  0  0999 V2000
  186.2420  178.6340  139.9800 N   0  0  0  0  0  0  0  0  0  0  0  0
  185.4960  178.8550  138.8640 C   0  0  0  0  0  3  0  0  0  0  0  0
  183.6970  178.5770  142.6270 C   0  0  0  0  0  3  0  0  0  0  0  0
  185.8930  178.2190  143.6080 C   0  0  0  0  0  0  0  0  0  0  0  0
  184.2710  178.6750  141.3520 C   0  0  0  0  0  0  0  0  0  0  0  0
  183.4850  178.9020  140.2110 C   0  0  0  0  0  0  0  0  0  0  0  0
  185.6710  178.5410  141.2100 C   0  0  0  0  0  0  0  0  0  0  0  0
  184.1100  178.9930  138.9610 C   0  0  0  0  0  3  0  0  0  0  0  0
  186.4700  178.3140  142.3330 C   0  0  0  0  0  3  0  0  0  0  0  0
  184.5050  178.3500  143.7460 C   0  0  0  0  0  3  0  0  0  0  0  0
  187.4840  177.4990  146.9020 N   0  0  0  0  0  0  0  0  0  0  0  0
  185.5980  179.0140  146.7280 C   0  0  0  0  0  1  0  0  0  0  0  0
  186.2430  177.7510  146.1860 C   0  0  1  0  0  3  0  0  0  0  0  0
  186.7410  177.9740  144.7900 C   0  0  0  0  0  0  0  0  0  0  0  0
  188.0260  177.8790  144.7240 N   0  0  0  0  0  0  0  0  0  0  0  0
  188.4490  177.5940  146.0480 C   0  0  0  0  0  0  0  0  0  0  0  0
  190.6720  176.9690  145.1750 C   0  0  0  0  0  1  0  0  0  0  0  0
  189.9850  176.3760  147.3770 O   0  0  0  0  0  1  0  0  0  0  0  0
  189.8800  177.3700  146.4050 C   0  0  2  0  0  3  0  0  0  0  0  0
  182.0630  179.0460  140.3300 N   0  0  0  0  0  2  0  0  0  0  0  0
  179.9990  175.6920  137.9240 C   0  0  0  0  0  2  0  0  0  0  0  0
  179.8790  174.8800  136.7780 O   0  0  0  0  0  0  0  0  0  0  0  0
  181.2650  176.5780  137.8330 C   0  0  2  0  0  0  0  0  0  0  0  0
  181.8200  176.9010  139.2160 C   0  0  1  0  0  3  0  0  0  0  0  0
  179.9430  177.9230  136.2920 O   0  0  0  0  0  1  0  0  0  0  0  0
  180.8800  173.1540  135.4860 C   0  0  0  0  0  1  0  0  0  0  0  0
  181.1060  178.1570  139.6860 C   0  0  2  0  0  3  0  0  0  0  0  0
  180.5150  172.9190  137.8070 O   0  0  0  0  0  1  0  0  0  0  0  0
  180.5310  178.8190  138.4390 C   0  0  0  0  0  2  0  0  0  0  0  0
  180.8580  173.8550  136.8290 C   0  0  2  0  0  0  0  0  0  0  0  0
  182.2780  174.3850  137.1100 C   0  0  0  0  0  2  0  0  0  0  0  0
  181.6390  175.8570  140.1280 O   0  0  0  0  0  1  0  0  0  0  0  0
  180.9490  177.9560  137.2630 C   0  0  1  0  0  3  0  0  0  0  0  0
  182.3420  175.9050  136.9760 C   0  0  0  0  0  2  0  0  0  0  0  0
  1  7  1  0  0  0  0
  2  8  1  0  0  0  0
  2  1  2  0  0  0  0
  3 10  1  0  0  0  0
  4 10  2  0  0  0  0
  4 14  1  0  0  0  0
  5  3  2  0  0  0  0
  6 20  1  0  0  0  0
  6  5  1  0  0  0  0
  7  5  1  0  0  0  0
  7  9  2  0  0  0  0
  8  6  2  0  0  0  0
  9  4  1  0  0  0  0
 13 12  1  1  0  0  0
 13 11  1  0  0  0  0
 14 13  1  0  0  0  0
 15 14  2  0  0  0  0
 15 16  1  0  0  0  0
 16 19  1  0  0  0  0
 16 11  2  0  0  0  0
 19 17  1  6  0  0  0
 19 18  1  0  0  0  0
 22 30  1  0  0  0  0
 22 21  1  0  0  0  0
 23 34  1  6  0  0  0
 23 21  1  0  0  0  0
 23 24  1  0  0  0  0
 24 27  1  0  0  0  0
 24 32  1  1  0  0  0
 27 20  1  6  0  0  0
 29 27  1  0  0  0  0
 30 26  1  6  0  0  0
 30 31  1  0  0  0  0
 30 28  1  0  0  0  0
 33 25  1  6  0  0  0
 33 23  1  0  0  0  0
 33 29  1  0  0  0  0
 34 31  1  0  0  0  0
M  END
>  <MODEL>
9

>  <REMARK>
 VINA RESULT:      -8.3      1.703      2.761
  Name = 
  4 active torsions:
  status: ('A' for Active; 'I' for Inactive)
    1  A    between atoms: C_13  and  C_24
    2  A    between atoms: N_14  and  C_16
    3  A    between atoms: N_14  and  C_22
    4  A    between atoms: C_26  and  C_28
                            x       y       z     vdW  Elec       q    Type
                         _______ _______ _______ _____ _____    ______ ____

>  <TORSDO>
F 4

$$$$
