=
 OpenBabel11062416013D

 36 39  0  0  1  0  0  0  0  0999 V2000
  187.1970  176.8120  135.7180 C   0  0  0  0  0  2  0  0  0  0  0  0
  187.7840  178.3090  137.6770 C   0  0  0  0  0  2  0  0  0  0  0  0
  190.1460  177.7050  137.5310 C   0  0  0  0  0  2  0  0  0  0  0  0
  189.4460  175.8910  136.0100 N   0  0  0  0  0  0  0  0  0  0  0  0
  187.0860  177.0210  137.2280 C   0  0  1  0  0  3  0  0  0  0  0  0
  188.6420  176.7990  135.2240 C   0  0  0  0  0  2  0  0  0  0  0  0
  190.1160  176.2720  137.0430 C   0  0  0  0  0  3  0  0  0  0  0  0
  189.0320  178.0710  138.4190 N   0  0  0  0  0  0  0  0  0  0  0  0
  185.1330  178.1590  138.3640 N   0  0  0  0  0  2  0  0  0  0  0  0
  184.9000  176.0900  137.3040 O   0  0  0  0  0  0  0  0  0  0  0  0
  185.6520  177.0440  137.6340 C   0  0  0  0  0  0  0  0  0  0  0  0
  183.7760  178.1940  138.9000 C   0  0  1  0  0  3  0  0  0  0  0  0
  184.9260  179.6350  140.4910 O   0  0  0  0  0  0  0  0  0  0  0  0
  184.4500  178.3860  142.4590 C   0  0  2  0  0  3  0  0  0  0  0  0
  183.7580  179.2670  143.2920 O   0  0  0  0  0  1  0  0  0  0  0  0
  185.4940  179.1490  141.6840 C   0  0  0  0  0  2  0  0  0  0  0  0
  183.7480  178.8900  140.2640 C   0  0  2  0  0  3  0  0  0  0  0  0
  183.5360  177.8990  141.3860 C   0  0  0  0  0  2  0  0  0  0  0  0
  182.8710  178.9380  137.9330 C   0  0  0  0  0  3  0  0  0  0  0  0
  181.4360  178.8340  138.4090 C   0  0  0  0  0  2  0  0  0  0  0  0
  181.9200  177.9580  137.2730 C   0  0  0  0  0  2  0  0  0  0  0  0
  188.8660  177.1160  139.5150 C   0  0  0  0  0  2  0  0  0  0  0  0
  188.6460  177.8540  140.8230 C   0  0  0  0  0  2  0  0  0  0  0  0
  189.8160  177.6100  141.7620 C   0  0  2  0  0  3  0  0  0  0  0  0
  190.7990  176.6220  141.1530 C   0  0  0  0  0  1  0  0  0  0  0  0
  189.9550  177.4000  144.2380 C   0  0  0  0  0  0  0  0  0  0  0  0
  187.6890  176.4240  143.3190 S   0  0  0  0  0  0  0  0  0  0  0  0
  187.7170  176.9730  145.0590 C   0  0  1  0  0  3  0  0  0  0  0  0
  189.3190  177.1320  143.0980 C   0  0  0  0  0  0  0  0  0  0  0  0
  189.1790  177.0890  145.4730 C   0  0  0  0  0  2  0  0  0  0  0  0
  191.9620  177.7430  145.4610 O   0  0  0  0  0  1  0  0  0  0  0  0
  191.2880  178.0910  144.2900 C   0  0  2  0  0  3  0  0  0  0  0  0
  191.1060  179.5960  144.2320 C   0  0  0  0  0  1  0  0  0  0  0  0
  187.0390  178.3280  145.1900 C   0  0  0  0  0  2  0  0  0  0  0  0
  185.8230  178.2260  146.0910 C   0  0  0  0  0  2  0  0  0  0  0  0
  185.6130  179.4480  146.7280 O   0  0  0  0  0  1  0  0  0  0  0  0
  1  5  1  0  0  0  0
  2  8  1  0  0  0  0
  3  8  1  0  0  0  0
  4  7  2  0  0  0  0
  5 11  1  6  0  0  0
  5  2  1  0  0  0  0
  6  1  1  0  0  0  0
  6  4  1  0  0  0  0
  7  3  1  0  0  0  0
  8 22  1  0  0  0  0
 10 11  2  0  0  0  0
 11  9  1  0  0  0  0
 12  9  1  6  0  0  0
 13 16  1  0  0  0  0
 14 15  1  1  0  0  0
 16 14  1  0  0  0  0
 17 12  1  6  0  0  0
 17 13  1  0  0  0  0
 17 18  1  0  0  0  0
 18 14  1  0  0  0  0
 19 20  1  0  0  0  0
 19 12  1  0  0  0  0
 21 19  1  0  0  0  0
 21 20  1  0  0  0  0
 22 23  1  0  0  0  0
 23 24  1  0  0  0  0
 24 25  1  6  0  0  0
 24 29  1  0  0  0  0
 26 32  1  0  0  0  0
 26 30  1  0  0  0  0
 27 28  1  0  0  0  0
 28 34  1  6  0  0  0
 28 30  1  0  0  0  0
 29 27  1  0  0  0  0
 29 26  2  0  0  0  0
 32 33  1  1  0  0  0
 32 31  1  0  0  0  0
 34 35  1  0  0  0  0
 35 36  1  0  0  0  0
M  END
>  <MODEL>
1

>  <REMARK>
 VINA RESULT:      -7.0      0.000      0.000
  Name = 
  11 active torsions:
  status: ('A' for Active; 'I' for Inactive)
    1  A    between atoms: C_1  and  C_5
    2  A    between atoms: C_1  and  N_16
    3  A    between atoms: C_1  and  C_31
    4  A    between atoms: C_3  and  C_9
    5  A    between atoms: C_3  and  C_36
    6  A    between atoms: C_6  and  C_19
    7  A    between atoms: C_7  and  C_29
    8  A    between atoms: C_9  and  C_28
    9  A    between atoms: C_13  and  C_30
   10  A    between atoms: C_27  and  C_29
   11  A    between atoms: N_34  and  C_36
                            x       y       z     vdW  Elec       q    Type
                         _______ _______ _______ _____ _____    ______ ____

>  <TORSDO>
F 11

$$$$
=
 OpenBabel11062416013D

 36 39  0  0  1  0  0  0  0  0999 V2000
  189.1560  177.2010  146.1120 C   0  0  0  0  0  2  0  0  0  0  0  0
  188.5190  176.3180  143.8230 C   0  0  0  0  0  2  0  0  0  0  0  0
  190.8550  175.8900  143.2530 C   0  0  0  0  0  2  0  0  0  0  0  0
  191.4420  177.2320  145.2400 N   0  0  0  0  0  0  0  0  0  0  0  0
  188.6210  177.5530  144.7250 C   0  0  1  0  0  3  0  0  0  0  0  0
  190.5100  176.4990  146.0670 C   0  0  0  0  0  2  0  0  0  0  0  0
  191.6050  176.9820  143.9870 C   0  0  0  0  0  3  0  0  0  0  0  0
  189.5300  176.2890  142.7550 N   0  0  0  0  0  0  0  0  0  0  0  0
  186.4310  178.3060  143.7050 N   0  0  0  0  0  2  0  0  0  0  0  0
  186.9200  178.6610  145.9620 O   0  0  0  0  0  0  0  0  0  0  0  0
  187.2890  178.2140  144.8450 C   0  0  0  0  0  0  0  0  0  0  0  0
  185.1730  179.0450  143.7170 C   0  0  1  0  0  3  0  0  0  0  0  0
  183.6060  178.7390  141.8780 O   0  0  0  0  0  0  0  0  0  0  0  0
  185.1950  178.6670  140.1100 C   0  0  2  0  0  3  0  0  0  0  0  0
  184.8420  179.7150  139.2580 O   0  0  0  0  0  1  0  0  0  0  0  0
  183.9460  178.0570  140.6950 C   0  0  0  0  0  2  0  0  0  0  0  0
  184.7600  179.4380  142.2960 C   0  0  2  0  0  3  0  0  0  0  0  0
  185.8860  179.2170  141.3120 C   0  0  0  0  0  2  0  0  0  0  0  0
  184.0880  178.1820  144.3410 C   0  0  0  0  0  3  0  0  0  0  0  0
  182.8340  179.0120  144.5270 C   0  0  0  0  0  2  0  0  0  0  0  0
  183.7340  178.7260  145.7110 C   0  0  0  0  0  2  0  0  0  0  0  0
  189.5820  177.5330  141.9890 C   0  0  0  0  0  2  0  0  0  0  0  0
  189.1630  177.2820  140.5520 C   0  0  0  0  0  2  0  0  0  0  0  0
  190.3620  176.8390  139.7300 C   0  0  2  0  0  3  0  0  0  0  0  0
  191.6390  177.4820  140.2490 C   0  0  0  0  0  1  0  0  0  0  0  0
  190.5120  176.3300  137.2980 C   0  0  0  0  0  0  0  0  0  0  0  0
  189.1070  178.5140  137.7370 S   0  0  0  0  0  0  0  0  0  0  0  0
  188.7930  177.6170  136.1790 C   0  0  1  0  0  3  0  0  0  0  0  0
  190.1420  177.1560  138.2770 C   0  0  0  0  0  0  0  0  0  0  0  0
  189.9700  176.6770  135.9520 C   0  0  0  0  0  2  0  0  0  0  0  0
  192.5550  175.1690  136.9540 O   0  0  0  0  0  1  0  0  0  0  0  0
  191.2930  175.0700  137.5400 C   0  0  2  0  0  3  0  0  0  0  0  0
  190.5560  173.8730  136.9700 C   0  0  0  0  0  1  0  0  0  0  0  0
  187.5080  176.8100  136.2900 C   0  0  0  0  0  2  0  0  0  0  0  0
  186.3740  177.6870  136.7870 C   0  0  0  0  0  2  0  0  0  0  0  0
  185.1640  177.2060  136.2920 O   0  0  0  0  0  1  0  0  0  0  0  0
  2  5  1  0  0  0  0
  3  7  1  0  0  0  0
  4  6  1  0  0  0  0
  5 11  1  1  0  0  0
  5  1  1  0  0  0  0
  6  1  1  0  0  0  0
  7  4  2  0  0  0  0
  8  3  1  0  0  0  0
  8  2  1  0  0  0  0
  9 11  1  0  0  0  0
 11 10  2  0  0  0  0
 12  9  1  6  0  0  0
 12 19  1  0  0  0  0
 13 17  1  0  0  0  0
 14 15  1  6  0  0  0
 14 16  1  0  0  0  0
 14 18  1  0  0  0  0
 16 13  1  0  0  0  0
 17 12  1  1  0  0  0
 18 17  1  0  0  0  0
 19 20  1  0  0  0  0
 19 21  1  0  0  0  0
 20 21  1  0  0  0  0
 22  8  1  0  0  0  0
 23 22  1  0  0  0  0
 24 25  1  1  0  0  0
 24 23  1  0  0  0  0
 26 32  1  0  0  0  0
 26 29  2  0  0  0  0
 27 29  1  0  0  0  0
 28 34  1  1  0  0  0
 28 27  1  0  0  0  0
 29 24  1  0  0  0  0
 30 28  1  0  0  0  0
 30 26  1  0  0  0  0
 31 32  1  0  0  0  0
 32 33  1  6  0  0  0
 34 35  1  0  0  0  0
 36 35  1  0  0  0  0
M  END
>  <MODEL>
2

>  <REMARK>
 VINA RESULT:      -7.0      2.715      6.945
  Name = 
  11 active torsions:
  status: ('A' for Active; 'I' for Inactive)
    1  A    between atoms: C_1  and  C_5
    2  A    between atoms: C_1  and  N_16
    3  A    between atoms: C_1  and  C_31
    4  A    between atoms: C_3  and  C_9
    5  A    between atoms: C_3  and  C_36
    6  A    between atoms: C_6  and  C_19
    7  A    between atoms: C_7  and  C_29
    8  A    between atoms: C_9  and  C_28
    9  A    between atoms: C_13  and  C_30
   10  A    between atoms: C_27  and  C_29
   11  A    between atoms: N_34  and  C_36
                            x       y       z     vdW  Elec       q    Type
                         _______ _______ _______ _____ _____    ______ ____

>  <TORSDO>
F 11

$$$$
=
 OpenBabel11062416013D

 36 39  0  0  1  0  0  0  0  0999 V2000
  185.7060  178.4140  145.5470 C   0  0  0  0  0  2  0  0  0  0  0  0
  185.9470  179.0860  143.1160 C   0  0  0  0  0  2  0  0  0  0  0  0
  183.5710  179.6320  142.9510 C   0  0  0  0  0  2  0  0  0  0  0  0
  183.2980  178.4770  145.1160 N   0  0  0  0  0  0  0  0  0  0  0  0
  185.9500  177.9290  144.1190 C   0  0  1  0  0  3  0  0  0  0  0  0
  184.4070  179.2020  145.6940 C   0  0  0  0  0  2  0  0  0  0  0  0
  182.9150  178.6480  143.8970 C   0  0  0  0  0  3  0  0  0  0  0  0
  184.7560  179.1090  142.2530 N   0  0  0  0  0  0  0  0  0  0  0  0
  188.4240  177.7540  144.6210 N   0  0  0  0  0  2  0  0  0  0  0  0
  187.2750  176.0530  143.5030 O   0  0  0  0  0  0  0  0  0  0  0  0
  187.2430  177.1890  144.0470 C   0  0  0  0  0  0  0  0  0  0  0  0
  189.7430  177.1470  144.4800 C   0  0  1  0  0  3  0  0  0  0  0  0
  189.5920  178.4690  142.4410 O   0  0  0  0  0  0  0  0  0  0  0  0
  190.2100  176.7630  140.9030 C   0  0  2  0  0  3  0  0  0  0  0  0
  191.3450  177.2500  140.2540 O   0  0  0  0  0  1  0  0  0  0  0  0
  189.2710  177.9070  141.1920 C   0  0  0  0  0  2  0  0  0  0  0  0
  190.3710  177.5170  143.1330 C   0  0  2  0  0  3  0  0  0  0  0  0
  190.5840  176.2940  142.2690 C   0  0  0  0  0  2  0  0  0  0  0  0
  190.6420  177.6270  145.6070 C   0  0  0  0  0  3  0  0  0  0  0  0
  191.6590  176.5510  145.9290 C   0  0  0  0  0  2  0  0  0  0  0  0
  190.4500  176.7380  146.8220 C   0  0  0  0  0  2  0  0  0  0  0  0
  184.4930  177.8200  141.6140 C   0  0  0  0  0  2  0  0  0  0  0  0
  183.5480  177.9990  140.4400 C   0  0  0  0  0  2  0  0  0  0  0  0
  184.2540  178.7350  139.3120 C   0  0  2  0  0  3  0  0  0  0  0  0
  183.5710  180.0630  139.0240 C   0  0  0  0  0  1  0  0  0  0  0  0
  185.4550  177.5150  137.5050 C   0  0  0  0  0  0  0  0  0  0  0  0
  182.8730  176.9990  137.4580 S   0  0  0  0  0  0  0  0  0  0  0  0
  183.9860  175.7620  136.7100 C   0  0  1  0  0  3  0  0  0  0  0  0
  184.3070  177.8710  138.0830 C   0  0  0  0  0  0  0  0  0  0  0  0
  185.3280  176.4420  136.4760 C   0  0  0  0  0  2  0  0  0  0  0  0
  187.1650  179.1240  137.1490 O   0  0  0  0  0  1  0  0  0  0  0  0
  186.7910  178.0400  137.9450 C   0  0  2  0  0  3  0  0  0  0  0  0
  187.8440  176.9510  137.8550 C   0  0  0  0  0  1  0  0  0  0  0  0
  184.1680  174.5840  137.6550 C   0  0  0  0  0  2  0  0  0  0  0  0
  185.4540  173.8450  137.3380 C   0  0  0  0  0  2  0  0  0  0  0  0
  185.5740  172.7400  138.1800 O   0  0  0  0  0  1  0  0  0  0  0  0
  1  6  1  0  0  0  0
  2  5  1  0  0  0  0
  3  7  1  0  0  0  0
  4  6  1  0  0  0  0
  5 11  1  1  0  0  0
  5  1  1  0  0  0  0
  7  4  2  0  0  0  0
  8  3  1  0  0  0  0
  8  2  1  0  0  0  0
 10 11  2  0  0  0  0
 11  9  1  0  0  0  0
 12  9  1  1  0  0  0
 12 19  1  0  0  0  0
 13 17  1  0  0  0  0
 14 15  1  1  0  0  0
 14 16  1  0  0  0  0
 14 18  1  0  0  0  0
 16 13  1  0  0  0  0
 17 12  1  1  0  0  0
 18 17  1  0  0  0  0
 19 20  1  0  0  0  0
 19 21  1  0  0  0  0
 20 21  1  0  0  0  0
 22  8  1  0  0  0  0
 23 22  1  0  0  0  0
 24 25  1  6  0  0  0
 24 23  1  0  0  0  0
 26 32  1  0  0  0  0
 26 29  2  0  0  0  0
 27 29  1  0  0  0  0
 28 27  1  0  0  0  0
 28 34  1  1  0  0  0
 29 24  1  0  0  0  0
 30 28  1  0  0  0  0
 30 26  1  0  0  0  0
 31 32  1  0  0  0  0
 32 33  1  6  0  0  0
 35 34  1  0  0  0  0
 35 36  1  0  0  0  0
M  END
>  <MODEL>
3

>  <REMARK>
 VINA RESULT:      -6.7      3.068      8.492
  Name = 
  11 active torsions:
  status: ('A' for Active; 'I' for Inactive)
    1  A    between atoms: C_1  and  C_5
    2  A    between atoms: C_1  and  N_16
    3  A    between atoms: C_1  and  C_31
    4  A    between atoms: C_3  and  C_9
    5  A    between atoms: C_3  and  C_36
    6  A    between atoms: C_6  and  C_19
    7  A    between atoms: C_7  and  C_29
    8  A    between atoms: C_9  and  C_28
    9  A    between atoms: C_13  and  C_30
   10  A    between atoms: C_27  and  C_29
   11  A    between atoms: N_34  and  C_36
                            x       y       z     vdW  Elec       q    Type
                         _______ _______ _______ _____ _____    ______ ____

>  <TORSDO>
F 11

$$$$
=
 OpenBabel11062416013D

 36 39  0  0  1  0  0  0  0  0999 V2000
  187.5220  176.7080  135.7320 C   0  0  0  0  0  2  0  0  0  0  0  0
  186.9920  178.2400  137.6800 C   0  0  0  0  0  2  0  0  0  0  0  0
  189.3540  178.7680  138.0080 C   0  0  0  0  0  2  0  0  0  0  0  0
  189.8430  176.8870  136.4860 N   0  0  0  0  0  0  0  0  0  0  0  0
  187.0440  176.7930  137.1810 C   0  0  1  0  0  3  0  0  0  0  0  0
  188.8840  177.3630  135.5160 C   0  0  0  0  0  2  0  0  0  0  0  0
  190.0620  177.4930  137.6030 C   0  0  0  0  0  3  0  0  0  0  0  0
  188.0480  178.5630  138.6520 N   0  0  0  0  0  0  0  0  0  0  0  0
  184.5420  176.9640  137.5230 N   0  0  0  0  0  2  0  0  0  0  0  0
  185.6010  174.9040  137.2090 O   0  0  0  0  0  0  0  0  0  0  0  0
  185.7030  176.1540  137.3130 C   0  0  0  0  0  0  0  0  0  0  0  0
  183.2210  176.4030  137.7830 C   0  0  1  0  0  3  0  0  0  0  0  0
  182.1550  178.5190  138.3450 O   0  0  0  0  0  0  0  0  0  0  0  0
  183.0530  178.7610  140.5340 C   0  0  2  0  0  3  0  0  0  0  0  0
  181.9440  178.8270  141.3790 O   0  0  0  0  0  1  0  0  0  0  0  0
  182.7300  179.4480  139.2310 C   0  0  0  0  0  2  0  0  0  0  0  0
  182.4760  177.2330  138.8320 C   0  0  2  0  0  3  0  0  0  0  0  0
  183.2700  177.3470  140.1130 C   0  0  0  0  0  2  0  0  0  0  0  0
  182.4200  176.3790  136.4920 C   0  0  0  0  0  3  0  0  0  0  0  0
  181.1140  175.6470  136.7260 C   0  0  0  0  0  2  0  0  0  0  0  0
  182.2580  174.9460  136.0220 C   0  0  0  0  0  2  0  0  0  0  0  0
  188.1210  177.5990  139.7500 C   0  0  0  0  0  2  0  0  0  0  0  0
  188.2410  178.3250  141.0780 C   0  0  0  0  0  2  0  0  0  0  0  0
  189.4550  177.8180  141.8400 C   0  0  2  0  0  3  0  0  0  0  0  0
  190.2000  176.7670  141.0310 C   0  0  0  0  0  1  0  0  0  0  0  0
  189.7750  177.4420  144.2790 C   0  0  0  0  0  0  0  0  0  0  0  0
  187.3930  176.6420  143.4900 S   0  0  0  0  0  0  0  0  0  0  0  0
  187.5880  177.0740  145.2520 C   0  0  1  0  0  3  0  0  0  0  0  0
  189.0370  177.2800  143.1800 C   0  0  0  0  0  0  0  0  0  0  0  0
  189.0810  177.0900  145.5530 C   0  0  0  0  0  2  0  0  0  0  0  0
  191.8650  177.6520  145.3870 O   0  0  0  0  0  1  0  0  0  0  0  0
  191.1430  178.0600  144.2650 C   0  0  2  0  0  3  0  0  0  0  0  0
  191.0400  179.5730  144.2450 C   0  0  0  0  0  1  0  0  0  0  0  0
  186.9970  178.4510  145.5200 C   0  0  0  0  0  2  0  0  0  0  0  0
  186.3740  178.4990  146.9020 C   0  0  0  0  0  2  0  0  0  0  0  0
  185.0360  178.8740  146.7950 O   0  0  0  0  0  1  0  0  0  0  0  0
  1  5  1  0  0  0  0
  2  8  1  0  0  0  0
  3  8  1  0  0  0  0
  4  7  2  0  0  0  0
  5 11  1  6  0  0  0
  5  2  1  0  0  0  0
  6  1  1  0  0  0  0
  6  4  1  0  0  0  0
  7  3  1  0  0  0  0
  8 22  1  0  0  0  0
 10 11  2  0  0  0  0
 11  9  1  0  0  0  0
 12  9  1  6  0  0  0
 13 17  1  0  0  0  0
 13 16  1  0  0  0  0
 14 15  1  1  0  0  0
 16 14  1  0  0  0  0
 17 12  1  6  0  0  0
 17 18  1  0  0  0  0
 18 14  1  0  0  0  0
 19 20  1  0  0  0  0
 19 12  1  0  0  0  0
 21 19  1  0  0  0  0
 21 20  1  0  0  0  0
 22 23  1  0  0  0  0
 23 24  1  0  0  0  0
 24 25  1  6  0  0  0
 24 29  1  0  0  0  0
 26 30  1  0  0  0  0
 27 28  1  0  0  0  0
 28 34  1  6  0  0  0
 28 30  1  0  0  0  0
 29 27  1  0  0  0  0
 29 26  2  0  0  0  0
 32 33  1  1  0  0  0
 32 26  1  0  0  0  0
 32 31  1  0  0  0  0
 34 35  1  0  0  0  0
 36 35  1  0  0  0  0
M  END
>  <MODEL>
4

>  <REMARK>
 VINA RESULT:      -6.4      1.374      1.693
  Name = 
  11 active torsions:
  status: ('A' for Active; 'I' for Inactive)
    1  A    between atoms: C_1  and  C_5
    2  A    between atoms: C_1  and  N_16
    3  A    between atoms: C_1  and  C_31
    4  A    between atoms: C_3  and  C_9
    5  A    between atoms: C_3  and  C_36
    6  A    between atoms: C_6  and  C_19
    7  A    between atoms: C_7  and  C_29
    8  A    between atoms: C_9  and  C_28
    9  A    between atoms: C_13  and  C_30
   10  A    between atoms: C_27  and  C_29
   11  A    between atoms: N_34  and  C_36
                            x       y       z     vdW  Elec       q    Type
                         _______ _______ _______ _____ _____    ______ ____

>  <TORSDO>
F 11

$$$$
=
 OpenBabel11062416013D

 36 39  0  0  1  0  0  0  0  0999 V2000
  189.2870  176.9300  135.6720 C   0  0  0  0  0  2  0  0  0  0  0  0
  189.7230  178.1150  137.8690 C   0  0  0  0  0  2  0  0  0  0  0  0
  191.5250  176.5650  138.4350 C   0  0  0  0  0  2  0  0  0  0  0  0
  190.7140  175.1590  136.5760 N   0  0  0  0  0  0  0  0  0  0  0  0
  188.7610  177.2240  137.0760 C   0  0  1  0  0  3  0  0  0  0  0  0
  190.6730  176.2900  135.6780 C   0  0  0  0  0  2  0  0  0  0  0  0
  191.0820  175.2610  137.8070 C   0  0  0  0  0  3  0  0  0  0  0  0
  190.4270  177.4010  138.9460 N   0  0  0  0  0  0  0  0  0  0  0  0
  186.4070  177.5370  137.9500 N   0  0  0  0  0  2  0  0  0  0  0  0
  187.1930  178.7160  136.0920 O   0  0  0  0  0  0  0  0  0  0  0  0
  187.4170  177.8650  136.9930 C   0  0  0  0  0  0  0  0  0  0  0  0
  185.0370  178.0290  137.8580 C   0  0  1  0  0  3  0  0  0  0  0  0
  184.6340  175.6530  137.5140 O   0  0  0  0  0  0  0  0  0  0  0  0
  183.8520  175.7800  135.2710 C   0  0  2  0  0  3  0  0  0  0  0  0
  182.5660  175.2380  135.3000 O   0  0  0  0  0  1  0  0  0  0  0  0
  184.7280  175.0410  136.2500 C   0  0  0  0  0  2  0  0  0  0  0  0
  184.1060  176.9460  137.3060 C   0  0  2  0  0  3  0  0  0  0  0  0
  183.8200  177.1600  135.8370 C   0  0  0  0  0  2  0  0  0  0  0  0
  184.5590  178.4530  139.2370 C   0  0  0  0  0  3  0  0  0  0  0  0
  183.0450  178.4230  139.2740 C   0  0  0  0  0  2  0  0  0  0  0  0
  183.7710  179.7440  139.1250 C   0  0  0  0  0  2  0  0  0  0  0  0
  189.5220  176.6490  139.8140 C   0  0  0  0  0  2  0  0  0  0  0  0
  189.9730  176.7560  141.2600 C   0  0  0  0  0  2  0  0  0  0  0  0
  188.8860  177.4090  142.0970 C   0  0  2  0  0  3  0  0  0  0  0  0
  188.2280  178.5480  141.3330 C   0  0  0  0  0  1  0  0  0  0  0  0
  188.7910  177.7740  144.5570 C   0  0  0  0  0  0  0  0  0  0  0  0
  191.1690  178.3630  143.5910 S   0  0  0  0  0  0  0  0  0  0  0  0
  191.0710  177.9220  145.3590 C   0  0  1  0  0  3  0  0  0  0  0  0
  189.4530  177.8850  143.4060 C   0  0  0  0  0  0  0  0  0  0  0  0
  189.6100  178.0400  145.7750 C   0  0  0  0  0  2  0  0  0  0  0  0
  186.5280  178.1380  143.9340 O   0  0  0  0  0  1  0  0  0  0  0  0
  187.3740  177.2850  144.6440 C   0  0  2  0  0  3  0  0  0  0  0  0
  186.9280  177.2100  146.0920 C   0  0  0  0  0  1  0  0  0  0  0  0
  191.5490  176.4930  145.5680 C   0  0  0  0  0  2  0  0  0  0  0  0
  191.5040  176.1300  147.0400 C   0  0  0  0  0  2  0  0  0  0  0  0
  192.7580  175.6740  147.4440 O   0  0  0  0  0  1  0  0  0  0  0  0
  1  6  1  0  0  0  0
  1  5  1  0  0  0  0
  2  8  1  0  0  0  0
  3  8  1  0  0  0  0
  4  7  2  0  0  0  0
  5 11  1  6  0  0  0
  5  2  1  0  0  0  0
  6  4  1  0  0  0  0
  7  3  1  0  0  0  0
  8 22  1  0  0  0  0
 10 11  2  0  0  0  0
 11  9  1  0  0  0  0
 12  9  1  1  0  0  0
 12 19  1  0  0  0  0
 14 15  1  1  0  0  0
 14 18  1  0  0  0  0
 14 16  1  0  0  0  0
 16 13  1  0  0  0  0
 17 13  1  0  0  0  0
 17 12  1  6  0  0  0
 18 17  1  0  0  0  0
 19 20  1  0  0  0  0
 21 19  1  0  0  0  0
 21 20  1  0  0  0  0
 22 23  1  0  0  0  0
 23 24  1  0  0  0  0
 24 25  1  6  0  0  0
 24 29  1  0  0  0  0
 26 32  1  0  0  0  0
 26 30  1  0  0  0  0
 27 28  1  0  0  0  0
 28 34  1  6  0  0  0
 28 30  1  0  0  0  0
 29 27  1  0  0  0  0
 29 26  2  0  0  0  0
 31 32  1  0  0  0  0
 32 33  1  1  0  0  0
 34 35  1  0  0  0  0
 35 36  1  0  0  0  0
M  END
>  <MODEL>
5

>  <REMARK>
 VINA RESULT:      -6.4      1.919      3.991
  Name = 
  11 active torsions:
  status: ('A' for Active; 'I' for Inactive)
    1  A    between atoms: C_1  and  C_5
    2  A    between atoms: C_1  and  N_16
    3  A    between atoms: C_1  and  C_31
    4  A    between atoms: C_3  and  C_9
    5  A    between atoms: C_3  and  C_36
    6  A    between atoms: C_6  and  C_19
    7  A    between atoms: C_7  and  C_29
    8  A    between atoms: C_9  and  C_28
    9  A    between atoms: C_13  and  C_30
   10  A    between atoms: C_27  and  C_29
   11  A    between atoms: N_34  and  C_36
                            x       y       z     vdW  Elec       q    Type
                         _______ _______ _______ _____ _____    ______ ____

>  <TORSDO>
F 11

$$$$
=
 OpenBabel11062416013D

 36 39  0  0  1  0  0  0  0  0999 V2000
  188.9900  177.2880  136.6770 C   0  0  0  0  0  2  0  0  0  0  0  0
  189.1700  178.7250  138.7570 C   0  0  0  0  0  2  0  0  0  0  0  0
  191.0300  177.3910  139.6110 C   0  0  0  0  0  2  0  0  0  0  0  0
  190.4660  175.7400  137.8650 N   0  0  0  0  0  0  0  0  0  0  0  0
  188.3380  177.6840  138.0010 C   0  0  1  0  0  3  0  0  0  0  0  0
  190.4140  176.7650  136.8480 C   0  0  0  0  0  2  0  0  0  0  0  0
  190.7310  175.9980  139.0990 C   0  0  0  0  0  3  0  0  0  0  0  0
  189.8390  178.1850  139.9500 N   0  0  0  0  0  0  0  0  0  0  0  0
  185.8330  177.5380  138.3250 N   0  0  0  0  0  2  0  0  0  0  0  0
  186.8100  179.2490  137.0690 O   0  0  0  0  0  0  0  0  0  0  0  0
  186.9620  178.2050  137.7560 C   0  0  0  0  0  0  0  0  0  0  0  0
  184.4560  177.9160  138.0280 C   0  0  1  0  0  3  0  0  0  0  0  0
  183.7340  175.6060  138.3020 O   0  0  0  0  0  0  0  0  0  0  0  0
  184.1630  174.8700  136.0810 C   0  0  2  0  0  3  0  0  0  0  0  0
  182.9320  174.4190  135.6010 O   0  0  0  0  0  1  0  0  0  0  0  0
  184.2750  174.5470  137.5500 C   0  0  0  0  0  2  0  0  0  0  0  0
  183.6790  176.7300  137.4490 C   0  0  2  0  0  3  0  0  0  0  0  0
  184.1820  176.3610  136.0710 C   0  0  0  0  0  2  0  0  0  0  0  0
  183.7770  178.3920  139.3020 C   0  0  0  0  0  3  0  0  0  0  0  0
  182.2950  178.5720  139.0440 C   0  0  0  0  0  2  0  0  0  0  0  0
  183.2080  179.7810  139.0840 C   0  0  0  0  0  2  0  0  0  0  0  0
  188.9260  177.4570  140.8310 C   0  0  0  0  0  2  0  0  0  0  0  0
  188.6210  178.2830  142.0680 C   0  0  0  0  0  2  0  0  0  0  0  0
  189.1880  177.6000  143.3020 C   0  0  2  0  0  3  0  0  0  0  0  0
  189.8950  176.3070  142.9260 C   0  0  0  0  0  1  0  0  0  0  0  0
  188.2830  177.5020  145.6180 C   0  0  0  0  0  0  0  0  0  0  0  0
  186.3850  177.1350  143.8300 S   0  0  0  0  0  0  0  0  0  0  0  0
  185.8790  177.7520  145.4710 C   0  0  1  0  0  3  0  0  0  0  0  0
  188.0970  177.3540  144.3060 C   0  0  0  0  0  0  0  0  0  0  0  0
  187.0310  177.4860  146.4300 C   0  0  0  0  0  2  0  0  0  0  0  0
  190.4290  176.6650  146.1960 O   0  0  0  0  0  1  0  0  0  0  0  0
  189.6220  177.8020  146.2280 C   0  0  2  0  0  3  0  0  0  0  0  0
  189.4570  178.2730  147.6610 C   0  0  0  0  0  1  0  0  0  0  0  0
  185.6030  179.2470  145.4040 C   0  0  0  0  0  2  0  0  0  0  0  0
  184.8630  179.5910  144.1260 C   0  0  0  0  0  2  0  0  0  0  0  0
  183.4900  179.5900  144.3690 O   0  0  0  0  0  1  0  0  0  0  0  0
  1  6  1  0  0  0  0
  1  5  1  0  0  0  0
  2  8  1  0  0  0  0
  3  8  1  0  0  0  0
  4  7  2  0  0  0  0
  5 11  1  6  0  0  0
  5  2  1  0  0  0  0
  6  4  1  0  0  0  0
  7  3  1  0  0  0  0
  8 22  1  0  0  0  0
 10 11  2  0  0  0  0
 11  9  1  0  0  0  0
 12  9  1  1  0  0  0
 12 19  1  0  0  0  0
 14 15  1  1  0  0  0
 14 16  1  0  0  0  0
 16 13  1  0  0  0  0
 17 12  1  1  0  0  0
 17 13  1  0  0  0  0
 18 14  1  0  0  0  0
 18 17  1  0  0  0  0
 20 21  1  0  0  0  0
 20 19  1  0  0  0  0
 21 19  1  0  0  0  0
 22 23  1  0  0  0  0
 23 24  1  0  0  0  0
 24 25  1  6  0  0  0
 24 29  1  0  0  0  0
 26 32  1  0  0  0  0
 26 30  1  0  0  0  0
 27 29  1  0  0  0  0
 27 28  1  0  0  0  0
 28 34  1  6  0  0  0
 28 30  1  0  0  0  0
 29 26  2  0  0  0  0
 31 32  1  0  0  0  0
 32 33  1  1  0  0  0
 35 36  1  0  0  0  0
 35 34  1  0  0  0  0
M  END
>  <MODEL>
6

>  <REMARK>
 VINA RESULT:      -6.4      1.747      3.266
  Name = 
  11 active torsions:
  status: ('A' for Active; 'I' for Inactive)
    1  A    between atoms: C_1  and  C_5
    2  A    between atoms: C_1  and  N_16
    3  A    between atoms: C_1  and  C_31
    4  A    between atoms: C_3  and  C_9
    5  A    between atoms: C_3  and  C_36
    6  A    between atoms: C_6  and  C_19
    7  A    between atoms: C_7  and  C_29
    8  A    between atoms: C_9  and  C_28
    9  A    between atoms: C_13  and  C_30
   10  A    between atoms: C_27  and  C_29
   11  A    between atoms: N_34  and  C_36
                            x       y       z     vdW  Elec       q    Type
                         _______ _______ _______ _____ _____    ______ ____

>  <TORSDO>
F 11

$$$$
=
 OpenBabel11062416013D

 36 39  0  0  1  0  0  0  0  0999 V2000
  186.1190  178.0800  144.8360 C   0  0  0  0  0  2  0  0  0  0  0  0
  187.3070  176.8690  142.9530 C   0  0  0  0  0  2  0  0  0  0  0  0
  189.3400  176.6290  144.2870 C   0  0  0  0  0  2  0  0  0  0  0  0
  188.3380  178.2520  145.8540 N   0  0  0  0  0  0  0  0  0  0  0  0
  186.7450  178.2060  143.4480 C   0  0  1  0  0  3  0  0  0  0  0  0
  187.0880  177.5270  145.8780 C   0  0  0  0  0  2  0  0  0  0  0  0
  189.3480  177.8740  145.1480 C   0  0  0  0  0  3  0  0  0  0  0  0
  188.7770  176.8210  142.9410 N   0  0  0  0  0  0  0  0  0  0  0  0
  184.3910  178.2530  142.5220 N   0  0  0  0  0  2  0  0  0  0  0  0
  186.0800  179.6140  141.6520 O   0  0  0  0  0  0  0  0  0  0  0  0
  185.7380  178.7300  142.4810 C   0  0  0  0  0  0  0  0  0  0  0  0
  183.3860  178.6280  141.5320 C   0  0  1  0  0  3  0  0  0  0  0  0
  183.5620  178.8040  139.1100 O   0  0  0  0  0  0  0  0  0  0  0  0
  182.3350  176.8440  138.5540 C   0  0  2  0  0  3  0  0  0  0  0  0
  183.2200  176.0550  137.8180 O   0  0  0  0  0  1  0  0  0  0  0  0
  182.5810  178.2980  138.2370 C   0  0  0  0  0  2  0  0  0  0  0  0
  183.6410  177.9130  140.2020 C   0  0  2  0  0  3  0  0  0  0  0  0
  182.6830  176.7610  140.0010 C   0  0  0  0  0  2  0  0  0  0  0  0
  182.0060  178.2590  142.0500 C   0  0  0  0  0  3  0  0  0  0  0  0
  181.0280  179.3620  141.6980 C   0  0  0  0  0  2  0  0  0  0  0  0
  181.5770  179.2590  143.1070 C   0  0  0  0  0  2  0  0  0  0  0  0
  189.3770  177.9650  142.2540 C   0  0  0  0  0  2  0  0  0  0  0  0
  189.0790  177.8960  140.7670 C   0  0  0  0  0  2  0  0  0  0  0  0
  190.1770  177.1260  140.0520 C   0  0  2  0  0  3  0  0  0  0  0  0
  191.5450  177.5030  140.6000 C   0  0  0  0  0  1  0  0  0  0  0  0
  190.6420  176.5360  137.6790 C   0  0  0  0  0  0  0  0  0  0  0  0
  189.0240  178.6060  137.8530 S   0  0  0  0  0  0  0  0  0  0  0  0
  188.9630  177.6250  136.3160 C   0  0  1  0  0  3  0  0  0  0  0  0
  190.0980  177.3660  138.5690 C   0  0  0  0  0  0  0  0  0  0  0  0
  190.2300  176.7810  136.2660 C   0  0  0  0  0  2  0  0  0  0  0  0
  192.8420  175.6700  137.9100 O   0  0  0  0  0  1  0  0  0  0  0  0
  191.4900  175.3590  138.0660 C   0  0  2  0  0  3  0  0  0  0  0  0
  191.1410  174.1530  137.2150 C   0  0  0  0  0  1  0  0  0  0  0  0
  187.7430  176.7160  136.3250 C   0  0  0  0  0  2  0  0  0  0  0  0
  186.6960  177.2450  137.2860 C   0  0  0  0  0  2  0  0  0  0  0  0
  185.6720  177.8570  136.5660 O   0  0  0  0  0  1  0  0  0  0  0  0
  1  6  1  0  0  0  0
  2  5  1  0  0  0  0
  3  7  1  0  0  0  0
  4  6  1  0  0  0  0
  5 11  1  6  0  0  0
  5  1  1  0  0  0  0
  7  4  2  0  0  0  0
  8  2  1  0  0  0  0
  8  3  1  0  0  0  0
 10 11  2  0  0  0  0
 11  9  1  0  0  0  0
 12 19  1  0  0  0  0
 12  9  1  1  0  0  0
 13 17  1  0  0  0  0
 14 15  1  6  0  0  0
 14 18  1  0  0  0  0
 16 14  1  0  0  0  0
 16 13  1  0  0  0  0
 17 12  1  1  0  0  0
 18 17  1  0  0  0  0
 19 21  1  0  0  0  0
 20 19  1  0  0  0  0
 20 21  1  0  0  0  0
 22  8  1  0  0  0  0
 23 22  1  0  0  0  0
 24 25  1  1  0  0  0
 24 23  1  0  0  0  0
 26 32  1  0  0  0  0
 26 29  2  0  0  0  0
 27 29  1  0  0  0  0
 28 34  1  1  0  0  0
 28 27  1  0  0  0  0
 29 24  1  0  0  0  0
 30 28  1  0  0  0  0
 30 26  1  0  0  0  0
 31 32  1  0  0  0  0
 32 33  1  6  0  0  0
 34 35  1  0  0  0  0
 36 35  1  0  0  0  0
M  END
>  <MODEL>
7

>  <REMARK>
 VINA RESULT:      -6.3      2.735      6.436
  Name = 
  11 active torsions:
  status: ('A' for Active; 'I' for Inactive)
    1  A    between atoms: C_1  and  C_5
    2  A    between atoms: C_1  and  N_16
    3  A    between atoms: C_1  and  C_31
    4  A    between atoms: C_3  and  C_9
    5  A    between atoms: C_3  and  C_36
    6  A    between atoms: C_6  and  C_19
    7  A    between atoms: C_7  and  C_29
    8  A    between atoms: C_9  and  C_28
    9  A    between atoms: C_13  and  C_30
   10  A    between atoms: C_27  and  C_29
   11  A    between atoms: N_34  and  C_36
                            x       y       z     vdW  Elec       q    Type
                         _______ _______ _______ _____ _____    ______ ____

>  <TORSDO>
F 11

$$$$
=
 OpenBabel11062416013D

 36 39  0  0  1  0  0  0  0  0999 V2000
  188.6610  178.0230  144.5910 C   0  0  0  0  0  2  0  0  0  0  0  0
  188.8170  176.3760  142.6710 C   0  0  0  0  0  2  0  0  0  0  0  0
  191.1380  175.8430  143.2160 C   0  0  0  0  0  2  0  0  0  0  0  0
  191.0960  177.8130  144.7030 N   0  0  0  0  0  0  0  0  0  0  0  0
  188.7150  177.8500  143.0740 C   0  0  1  0  0  3  0  0  0  0  0  0
  189.8520  177.3900  145.3040 C   0  0  0  0  0  2  0  0  0  0  0  0
  191.6800  177.1440  143.7690 C   0  0  0  0  0  3  0  0  0  0  0  0
  190.1400  176.0020  142.1480 N   0  0  0  0  0  0  0  0  0  0  0  0
  186.2530  178.4360  143.1230 N   0  0  0  0  0  2  0  0  0  0  0  0
  187.6260  179.0520  141.3350 O   0  0  0  0  0  0  0  0  0  0  0  0
  187.5130  178.4720  142.4470 C   0  0  0  0  0  0  0  0  0  0  0  0
  185.0140  178.9130  142.5190 C   0  0  1  0  0  3  0  0  0  0  0  0
  184.9180  179.7080  140.2190 O   0  0  0  0  0  0  0  0  0  0  0  0
  183.2830  178.1770  139.4170 C   0  0  2  0  0  3  0  0  0  0  0  0
  183.9050  177.4920  138.3720 O   0  0  0  0  0  1  0  0  0  0  0  0
  183.7580  179.6090  139.4280 C   0  0  0  0  0  2  0  0  0  0  0  0
  184.9620  178.5530  141.0310 C   0  0  2  0  0  3  0  0  0  0  0  0
  183.7860  177.6550  140.7200 C   0  0  0  0  0  2  0  0  0  0  0  0
  183.8300  178.2840  143.2340 C   0  0  0  0  0  3  0  0  0  0  0  0
  182.9020  179.3780  143.7230 C   0  0  0  0  0  2  0  0  0  0  0  0
  183.8430  178.6950  144.6940 C   0  0  0  0  0  2  0  0  0  0  0  0
  190.6050  176.9000  141.0910 C   0  0  0  0  0  2  0  0  0  0  0  0
  190.0720  176.4450  139.7440 C   0  0  0  0  0  2  0  0  0  0  0  0
  190.4610  177.4440  138.6670 C   0  0  2  0  0  3  0  0  0  0  0  0
  189.4310  178.5590  138.5670 C   0  0  0  0  0  1  0  0  0  0  0  0
  191.7780  176.1520  136.9970 C   0  0  0  0  0  0  0  0  0  0  0  0
  189.2590  176.3780  136.2640 S   0  0  0  0  0  0  0  0  0  0  0  0
  190.2050  174.9740  135.5830 C   0  0  1  0  0  3  0  0  0  0  0  0
  190.6370  176.7430  137.3480 C   0  0  0  0  0  0  0  0  0  0  0  0
  191.6830  175.2790  135.7900 C   0  0  0  0  0  2  0  0  0  0  0  0
  193.9310  177.1280  137.2340 O   0  0  0  0  0  1  0  0  0  0  0  0
  193.0320  176.2350  137.8190 C   0  0  2  0  0  3  0  0  0  0  0  0
  193.6760  174.8670  137.9420 C   0  0  0  0  0  1  0  0  0  0  0  0
  189.8390  173.6930  136.3170 C   0  0  0  0  0  2  0  0  0  0  0  0
  188.4190  173.7720  136.8440 C   0  0  0  0  0  2  0  0  0  0  0  0
  187.9840  172.4960  137.2000 O   0  0  0  0  0  1  0  0  0  0  0  0
  1  6  1  0  0  0  0
  2  5  1  0  0  0  0
  3  7  1  0  0  0  0
  4  6  1  0  0  0  0
  5 11  1  6  0  0  0
  5  1  1  0  0  0  0
  7  4  2  0  0  0  0
  8  2  1  0  0  0  0
  8  3  1  0  0  0  0
 10 11  2  0  0  0  0
 11  9  1  0  0  0  0
 12  9  1  1  0  0  0
 12 19  1  0  0  0  0
 13 17  1  0  0  0  0
 14 15  1  6  0  0  0
 14 16  1  0  0  0  0
 14 18  1  0  0  0  0
 16 13  1  0  0  0  0
 17 12  1  1  0  0  0
 18 17  1  0  0  0  0
 19 20  1  0  0  0  0
 19 21  1  0  0  0  0
 20 21  1  0  0  0  0
 22  8  1  0  0  0  0
 23 22  1  0  0  0  0
 24 25  1  6  0  0  0
 24 23  1  0  0  0  0
 26 29  2  0  0  0  0
 26 32  1  0  0  0  0
 27 29  1  0  0  0  0
 28 30  1  0  0  0  0
 28 27  1  0  0  0  0
 28 34  1  1  0  0  0
 29 24  1  0  0  0  0
 30 26  1  0  0  0  0
 31 32  1  0  0  0  0
 32 33  1  6  0  0  0
 34 35  1  0  0  0  0
 35 36  1  0  0  0  0
M  END
>  <MODEL>
8

>  <REMARK>
 VINA RESULT:      -6.3      3.053      6.756
  Name = 
  11 active torsions:
  status: ('A' for Active; 'I' for Inactive)
    1  A    between atoms: C_1  and  C_5
    2  A    between atoms: C_1  and  N_16
    3  A    between atoms: C_1  and  C_31
    4  A    between atoms: C_3  and  C_9
    5  A    between atoms: C_3  and  C_36
    6  A    between atoms: C_6  and  C_19
    7  A    between atoms: C_7  and  C_29
    8  A    between atoms: C_9  and  C_28
    9  A    between atoms: C_13  and  C_30
   10  A    between atoms: C_27  and  C_29
   11  A    between atoms: N_34  and  C_36
                            x       y       z     vdW  Elec       q    Type
                         _______ _______ _______ _____ _____    ______ ____

>  <TORSDO>
F 11

$$$$
=
 OpenBabel11062416013D

 36 39  0  0  1  0  0  0  0  0999 V2000
  190.5720  176.8680  144.2130 C   0  0  0  0  0  2  0  0  0  0  0  0
  188.8240  176.4710  142.4210 C   0  0  0  0  0  2  0  0  0  0  0  0
  190.5110  176.5210  140.6550 C   0  0  0  0  0  2  0  0  0  0  0  0
  192.0610  177.4240  142.3520 N   0  0  0  0  0  0  0  0  0  0  0  0
  189.3900  177.4600  143.4460 C   0  0  1  0  0  3  0  0  0  0  0  0
  191.6980  176.3940  143.2980 C   0  0  0  0  0  2  0  0  0  0  0  0
  191.5400  177.5030  141.1760 C   0  0  0  0  0  3  0  0  0  0  0  0
  189.1240  176.8360  141.0280 N   0  0  0  0  0  0  0  0  0  0  0  0
  186.9700  178.0000  143.9510 N   0  0  0  0  0  2  0  0  0  0  0  0
  188.6220  178.1000  145.6020 O   0  0  0  0  0  0  0  0  0  0  0  0
  188.3230  177.8810  144.3990 C   0  0  0  0  0  0  0  0  0  0  0  0
  185.9000  178.5240  144.7930 C   0  0  1  0  0  3  0  0  0  0  0  0
  184.6340  177.8480  142.8260 O   0  0  0  0  0  0  0  0  0  0  0  0
  182.8500  179.4070  143.0390 C   0  0  2  0  0  3  0  0  0  0  0  0
  181.6950  178.6300  143.1360 O   0  0  0  0  0  1  0  0  0  0  0  0
  183.8230  178.7400  142.1000 C   0  0  0  0  0  2  0  0  0  0  0  0
  184.5290  178.2110  144.1860 C   0  0  2  0  0  3  0  0  0  0  0  0
  183.5780  179.3760  144.3410 C   0  0  0  0  0  2  0  0  0  0  0  0
  185.9960  177.9020  146.1760 C   0  0  0  0  0  3  0  0  0  0  0  0
  184.7550  178.2530  146.9710 C   0  0  0  0  0  2  0  0  0  0  0  0
  186.0490  178.9990  147.2220 C   0  0  0  0  0  2  0  0  0  0  0  0
  188.7720  178.2220  140.7170 C   0  0  0  0  0  2  0  0  0  0  0  0
  187.4500  178.2730  139.9730 C   0  0  0  0  0  2  0  0  0  0  0  0
  187.6350  177.7720  138.5500 C   0  0  2  0  0  3  0  0  0  0  0  0
  188.6250  178.6450  137.7950 C   0  0  0  0  0  1  0  0  0  0  0  0
  186.0400  176.8190  136.8930 C   0  0  0  0  0  0  0  0  0  0  0  0
  184.8780  178.6290  138.4110 S   0  0  0  0  0  0  0  0  0  0  0  0
  183.8030  177.3780  137.6310 C   0  0  1  0  0  3  0  0  0  0  0  0
  186.3080  177.7140  137.8440 C   0  0  0  0  0  0  0  0  0  0  0  0
  184.6020  176.7310  136.5070 C   0  0  0  0  0  2  0  0  0  0  0  0
  187.0440  175.8880  134.9520 O   0  0  0  0  0  1  0  0  0  0  0  0
  187.0680  175.8700  136.3470 C   0  0  2  0  0  3  0  0  0  0  0  0
  186.8070  174.4610  136.8450 C   0  0  0  0  0  1  0  0  0  0  0  0
  183.4080  176.3210  138.6510 C   0  0  0  0  0  2  0  0  0  0  0  0
  181.9150  176.3710  138.9150 C   0  0  0  0  0  2  0  0  0  0  0  0
  181.4790  177.6940  138.8650 O   0  0  0  0  0  1  0  0  0  0  0  0
  2  5  1  0  0  0  0
  3  8  1  0  0  0  0
  3  7  1  0  0  0  0
  4  6  1  0  0  0  0
  5  1  1  0  0  0  0
  5 11  1  1  0  0  0
  6  1  1  0  0  0  0
  7  4  2  0  0  0  0
  8  2  1  0  0  0  0
  9 11  1  0  0  0  0
 11 10  2  0  0  0  0
 12  9  1  6  0  0  0
 12 19  1  0  0  0  0
 13 17  1  0  0  0  0
 14 15  1  1  0  0  0
 14 18  1  0  0  0  0
 16 13  1  0  0  0  0
 16 14  1  0  0  0  0
 17 18  1  0  0  0  0
 17 12  1  6  0  0  0
 19 20  1  0  0  0  0
 19 21  1  0  0  0  0
 20 21  1  0  0  0  0
 22  8  1  0  0  0  0
 23 22  1  0  0  0  0
 24 25  1  6  0  0  0
 24 23  1  0  0  0  0
 26 29  2  0  0  0  0
 28 27  1  0  0  0  0
 28 34  1  1  0  0  0
 29 27  1  0  0  0  0
 29 24  1  0  0  0  0
 30 26  1  0  0  0  0
 30 28  1  0  0  0  0
 31 32  1  0  0  0  0
 32 33  1  1  0  0  0
 32 26  1  0  0  0  0
 34 35  1  0  0  0  0
 36 35  1  0  0  0  0
M  END
>  <MODEL>
9

>  <REMARK>
 VINA RESULT:      -6.0      2.408      6.978
  Name = 
  11 active torsions:
  status: ('A' for Active; 'I' for Inactive)
    1  A    between atoms: C_1  and  C_5
    2  A    between atoms: C_1  and  N_16
    3  A    between atoms: C_1  and  C_31
    4  A    between atoms: C_3  and  C_9
    5  A    between atoms: C_3  and  C_36
    6  A    between atoms: C_6  and  C_19
    7  A    between atoms: C_7  and  C_29
    8  A    between atoms: C_9  and  C_28
    9  A    between atoms: C_13  and  C_30
   10  A    between atoms: C_27  and  C_29
   11  A    between atoms: N_34  and  C_36
                            x       y       z     vdW  Elec       q    Type
                         _______ _______ _______ _____ _____    ______ ____

>  <TORSDO>
F 11

$$$$
