=
 OpenBabel11062412023D

 48 53  0  0  1  0  0  0  0  0999 V2000
  185.7130  176.7450  136.0030 C   0  0  1  0  0  3  0  0  0  0  0  0
  183.2330  177.3640  136.4420 C   0  0  2  0  0  0  0  0  0  0  0  0
  182.5590  177.1460  141.0730 N   0  0  0  0  0  0  0  0  0  0  0  0
  182.9370  176.7270  135.1750 N   0  0  0  0  0  0  0  0  0  0  0  0
  180.7360  179.5020  135.1870 N   0  0  0  0  0  1  0  0  0  0  0  0
  183.3510  177.1230  138.9700 C   0  0  0  0  0  0  0  0  0  0  0  0
  187.3910  175.6810  137.3040 C   0  0  2  0  0  3  0  0  0  0  0  0
  184.6710  177.4680  136.8890 C   0  0  1  0  0  3  0  0  0  0  0  0
  186.5040  174.6660  136.8920 O   0  0  0  0  0  0  0  0  0  0  0  0
  188.6190  177.2660  142.1540 C   0  0  0  0  0  1  0  0  0  0  0  0
  182.4420  176.5570  139.9300 C   0  0  0  0  0  0  0  0  0  0  0  0
  189.8320  176.2420  137.5230 N   0  0  0  0  0  0  0  0  0  0  0  0
  181.7160  178.5190  135.5010 C   0  0  0  0  0  0  0  0  0  0  0  0
  183.6790  176.5320  137.6270 C   0  0  2  0  0  3  0  0  0  0  0  0
  183.5920  178.1750  140.9230 C   0  0  2  0  0  3  0  0  0  0  0  0
  186.0450  178.6130  141.6160 C   0  0  2  0  0  3  0  0  0  0  0  0
  187.3140  178.1790  137.3890 C   0  0  0  0  0  2  0  0  0  0  0  0
  192.0680  176.9050  137.4690 O   0  0  0  0  0  0  0  0  0  0  0  0
  189.0820  174.0370  137.7880 O   0  0  0  0  0  1  0  0  0  0  0  0
  188.9570  179.1990  140.6910 C   0  0  0  0  0  1  0  0  0  0  0  0
  187.1220  176.9420  136.5130 C   0  0  2  0  0  3  0  0  0  0  0  0
  186.8340  177.8780  140.5380 C   0  0  0  0  0  2  0  0  0  0  0  0
  184.0490  178.0470  139.5400 N   0  0  0  0  0  0  0  0  0  0  0  0
  182.3870  178.5320  136.6070 N   0  0  0  0  0  0  0  0  0  0  0  0
  188.8420  175.2330  137.1110 C   0  0  1  0  0  3  0  0  0  0  0  0
  184.7360  177.8900  141.9050 C   0  0  0  0  0  2  0  0  0  0  0  0
  185.5870  175.2310  135.9890 C   0  0  2  0  0  3  0  0  0  0  0  0
  182.0360  177.4330  134.6270 N   0  0  0  0  0  0  0  0  0  0  0  0
  189.5090  177.3460  138.4380 C   0  0  2  0  0  3  0  0  0  0  0  0
  188.9150  176.8260  139.7570 C   0  0  0  0  0  2  0  0  0  0  0  0
  191.1520  176.2080  136.9570 C   0  0  0  0  0  0  0  0  0  0  0  0
  185.8200  179.9360  141.2410 O   0  0  0  0  0  1  0  0  0  0  0  0
  188.3350  177.8220  140.7730 C   0  0  0  0  0  0  0  0  0  0  0  0
  185.8410  174.6890  134.5940 C   0  0  0  0  0  1  0  0  0  0  0  0
  188.7720  178.4720  137.7000 C   0  0  0  0  0  2  0  0  0  0  0  0
  181.5930  175.4780  139.6880 O   0  0  0  0  0  0  0  0  0  0  0  0
  180.3610  175.6350  139.0080 C   0  0  0  0  0  2  0  0  0  0  0  0
  180.2890  174.7170  137.8090 C   0  0  0  0  0  2  0  0  0  0  0  0
  180.1880  173.3450  138.2770 N   0  0  0  0  0  2  0  0  0  0  0  0
  180.8820  172.5090  137.3050 C   0  0  0  0  0  2  0  0  0  0  0  0
  182.1050  173.2450  136.7940 C   0  0  0  0  0  1  0  0  0  0  0  0
  191.4850  175.3560  135.7700 C   0  0  0  0  0  2  0  0  0  0  0  0
  192.1890  174.1860  136.1660 O   0  0  0  0  0  0  0  0  0  0  0  0
  193.5740  173.9860  136.0360 C   0  0  0  0  0  0  0  0  0  0  0  0
  193.9790  173.2660  135.0860 O   0  0  0  0  0  0  0  0  0  0  0  0
  195.1780  175.6350  136.6770 O   0  0  0  0  0  0  0  0  0  0  0  0
  194.8650  173.9090  138.2620 C   0  0  0  0  0  1  0  0  0  0  0  0
  194.5690  174.5720  136.9550 C   0  0  0  0  0  0  0  0  0  0  0  0
  1 21  1  0  0  0  0
  1  8  1  0  0  0  0
  2 24  1  0  0  0  0
  2  8  1  0  0  0  0
  2 14  1  0  0  0  0
  4  2  1  0  0  0  0
  5 13  1  0  0  0  0
  6 23  2  0  0  0  0
  6 11  1  0  0  0  0
  8 14  1  0  0  0  0
  9  7  1  0  0  0  0
 11  3  2  0  0  0  0
 12 29  1  0  0  0  0
 13 24  2  0  0  0  0
 14  6  1  0  0  0  0
 15  3  1  0  0  0  0
 15 26  1  0  0  0  0
 16 26  1  0  0  0  0
 17 35  1  0  0  0  0
 20 33  1  0  0  0  0
 21  7  1  0  0  0  0
 21 17  1  0  0  0  0
 22 33  1  0  0  0  0
 22 16  1  0  0  0  0
 23 15  1  0  0  0  0
 25  7  1  0  0  0  0
 25 12  1  0  0  0  0
 25 19  1  0  0  0  0
 27  1  1  0  0  0  0
 27  9  1  0  0  0  0
 28  4  2  0  0  0  0
 28 13  1  0  0  0  0
 29 30  1  0  0  0  0
 30 33  1  0  0  0  0
 31 18  2  0  0  0  0
 31 12  1  0  0  0  0
 32 16  1  0  0  0  0
 33 10  1  0  0  0  0
 34 27  1  0  0  0  0
 35 29  1  0  0  0  0
 36 11  1  0  0  0  0
 37 36  1  0  0  0  0
 38 39  1  0  0  0  0
 38 37  1  0  0  0  0
 40 39  1  0  0  0  0
 41 40  1  0  0  0  0
 42 43  1  0  0  0  0
 42 31  1  0  0  0  0
 44 43  1  0  0  0  0
 44 48  1  0  0  0  0
 45 44  2  0  0  0  0
 46 48  2  0  0  0  0
 48 47  1  0  0  0  0
M  END
>  <MODEL>
1

>  <REMARK>
 VINA RESULT:      -4.6      0.000      0.000
  Name = 
  9 active torsions:
  status: ('A' for Active; 'I' for Inactive)
    1  A    between atoms: C_9  and  N_35
    2  A    between atoms: C_13  and  O_14
    3  A    between atoms: O_14  and  C_40
    4  A    between atoms: C_24  and  N_35
    5  A    between atoms: C_24  and  C_40
    6  A    between atoms: O_29  and  C_32
    7  A    between atoms: O_29  and  C_33
    8  A    between atoms: C_32  and  C_44
    9  A    between atoms: C_33  and  C_43
                            x       y       z     vdW  Elec       q    Type
                         _______ _______ _______ _____ _____    ______ ____

>  <TORSDO>
F 9

$$$$
=
 OpenBabel11062412023D

 48 53  0  0  1  0  0  0  0  0999 V2000
  185.6180  176.7470  136.0000 C   0  0  1  0  0  3  0  0  0  0  0  0
  183.1530  177.3880  136.4870 C   0  0  2  0  0  0  0  0  0  0  0  0
  182.5700  177.1860  141.1310 N   0  0  0  0  0  0  0  0  0  0  0  0
  182.8260  176.7500  135.2270 N   0  0  0  0  0  0  0  0  0  0  0  0
  180.6490  179.5420  135.2760 N   0  0  0  0  0  1  0  0  0  0  0  0
  183.3190  177.1520  139.0120 C   0  0  0  0  0  0  0  0  0  0  0  0
  187.3140  175.6720  137.2700 C   0  0  2  0  0  3  0  0  0  0  0  0
  184.6000  177.4810  136.9040 C   0  0  1  0  0  3  0  0  0  0  0  0
  186.4100  174.6640  136.8790 O   0  0  0  0  0  0  0  0  0  0  0  0
  188.6510  177.2610  142.0900 C   0  0  0  0  0  1  0  0  0  0  0  0
  182.4260  176.5960  139.9920 C   0  0  0  0  0  0  0  0  0  0  0  0
  189.7620  176.2150  137.4380 N   0  0  0  0  0  0  0  0  0  0  0  0
  181.6260  178.5520  135.5730 C   0  0  0  0  0  0  0  0  0  0  0  0
  183.6160  176.5550  137.6650 C   0  0  2  0  0  3  0  0  0  0  0  0
  183.6080  178.2070  140.9570 C   0  0  2  0  0  3  0  0  0  0  0  0
  186.0780  178.6270  141.6000 C   0  0  2  0  0  3  0  0  0  0  0  0
  187.2580  178.1720  137.3490 C   0  0  0  0  0  2  0  0  0  0  0  0
  192.0020  176.8590  137.3380 O   0  0  0  0  0  0  0  0  0  0  0  0
  189.0000  174.0160  137.7250 O   0  0  0  0  0  1  0  0  0  0  0  0
  188.9750  179.1860  140.6150 C   0  0  0  0  0  1  0  0  0  0  0  0
  187.0390  176.9340  136.4810 C   0  0  2  0  0  3  0  0  0  0  0  0
  186.8390  177.8830  140.5080 C   0  0  0  0  0  2  0  0  0  0  0  0
  184.0360  178.0720  139.5660 N   0  0  0  0  0  0  0  0  0  0  0  0
  182.3200  178.5630  136.6650 N   0  0  0  0  0  0  0  0  0  0  0  0
  188.7560  175.2130  137.0490 C   0  0  1  0  0  3  0  0  0  0  0  0
  184.7690  177.9150  141.9170 C   0  0  0  0  0  2  0  0  0  0  0  0
  185.4800  175.2340  135.9920 C   0  0  2  0  0  3  0  0  0  0  0  0
  181.9200  177.4620  134.6960 N   0  0  0  0  0  0  0  0  0  0  0  0
  189.4670  177.3230  138.3570 C   0  0  2  0  0  3  0  0  0  0  0  0
  188.8960  176.8120  139.6890 C   0  0  0  0  0  2  0  0  0  0  0  0
  191.0710  176.1680  136.8460 C   0  0  0  0  0  0  0  0  0  0  0  0
  185.8570  179.9510  141.2260 O   0  0  0  0  0  1  0  0  0  0  0  0
  188.3440  177.8150  140.7130 C   0  0  0  0  0  0  0  0  0  0  0  0
  185.7020  174.6870  134.5940 C   0  0  0  0  0  1  0  0  0  0  0  0
  188.7240  178.4530  137.6300 C   0  0  0  0  0  2  0  0  0  0  0  0
  181.5630  175.5240  139.7700 O   0  0  0  0  0  0  0  0  0  0  0  0
  180.4180  175.6440  138.9460 C   0  0  0  0  0  2  0  0  0  0  0  0
  179.4040  176.5780  139.5670 C   0  0  0  0  0  2  0  0  0  0  0  0
  179.5000  177.8730  138.9150 N   0  0  0  0  0  2  0  0  0  0  0  0
  178.9510  178.8580  139.8380 C   0  0  0  0  0  2  0  0  0  0  0  0
  179.0560  178.3310  141.2560 C   0  0  0  0  0  1  0  0  0  0  0  0
  191.3740  175.3110  135.6550 C   0  0  0  0  0  2  0  0  0  0  0  0
  192.1240  174.1630  136.0320 O   0  0  0  0  0  0  0  0  0  0  0  0
  191.8400  172.8420  135.6470 C   0  0  0  0  0  0  0  0  0  0  0  0
  190.6730  172.5820  135.2530 O   0  0  0  0  0  0  0  0  0  0  0  0
  192.5760  170.6080  135.2390 O   0  0  0  0  0  0  0  0  0  0  0  0
  194.1970  172.0020  136.2470 C   0  0  0  0  0  1  0  0  0  0  0  0
  192.8360  171.7530  135.6840 C   0  0  0  0  0  0  0  0  0  0  0  0
  1 21  1  0  0  0  0
  1  8  1  0  0  0  0
  2 24  1  0  0  0  0
  2  8  1  0  0  0  0
  2 14  1  0  0  0  0
  4  2  1  0  0  0  0
  5 13  1  0  0  0  0
  6 23  2  0  0  0  0
  6 11  1  0  0  0  0
  8 14  1  0  0  0  0
  9  7  1  0  0  0  0
 11  3  2  0  0  0  0
 12 29  1  0  0  0  0
 13 24  2  0  0  0  0
 14  6  1  0  0  0  0
 15  3  1  0  0  0  0
 15 26  1  0  0  0  0
 16 26  1  0  0  0  0
 17 35  1  0  0  0  0
 20 33  1  0  0  0  0
 21  7  1  0  0  0  0
 21 17  1  0  0  0  0
 22 33  1  0  0  0  0
 22 16  1  0  0  0  0
 23 15  1  0  0  0  0
 25  7  1  0  0  0  0
 25 12  1  0  0  0  0
 25 19  1  0  0  0  0
 27  1  1  0  0  0  0
 27  9  1  0  0  0  0
 28  4  2  0  0  0  0
 28 13  1  0  0  0  0
 29 30  1  0  0  0  0
 30 33  1  0  0  0  0
 31 18  2  0  0  0  0
 31 12  1  0  0  0  0
 32 16  1  0  0  0  0
 33 10  1  0  0  0  0
 34 27  1  0  0  0  0
 35 29  1  0  0  0  0
 36 11  1  0  0  0  0
 37 38  1  0  0  0  0
 37 36  1  0  0  0  0
 39 38  1  0  0  0  0
 39 40  1  0  0  0  0
 40 41  1  0  0  0  0
 42 43  1  0  0  0  0
 42 31  1  0  0  0  0
 44 48  1  0  0  0  0
 44 43  1  0  0  0  0
 45 44  2  0  0  0  0
 46 48  2  0  0  0  0
 48 47  1  0  0  0  0
M  END
>  <MODEL>
2

>  <REMARK>
 VINA RESULT:      -4.1      1.344      2.068
  Name = 
  9 active torsions:
  status: ('A' for Active; 'I' for Inactive)
    1  A    between atoms: C_9  and  N_35
    2  A    between atoms: C_13  and  O_14
    3  A    between atoms: O_14  and  C_40
    4  A    between atoms: C_24  and  N_35
    5  A    between atoms: C_24  and  C_40
    6  A    between atoms: O_29  and  C_32
    7  A    between atoms: O_29  and  C_33
    8  A    between atoms: C_32  and  C_44
    9  A    between atoms: C_33  and  C_43
                            x       y       z     vdW  Elec       q    Type
                         _______ _______ _______ _____ _____    ______ ____

>  <TORSDO>
F 9

$$$$
=
 OpenBabel11062412023D

 48 53  0  0  1  0  0  0  0  0999 V2000
  183.6010  178.0670  141.3320 C   0  0  1  0  0  3  0  0  0  0  0  0
  181.3420  178.9320  142.2670 C   0  0  2  0  0  0  0  0  0  0  0  0
  178.9310  180.6730  138.6480 N   0  0  0  0  0  0  0  0  0  0  0  0
  182.0680  179.2700  143.4750 N   0  0  0  0  0  0  0  0  0  0  0  0
  178.9640  178.1130  144.7280 N   0  0  0  0  0  1  0  0  0  0  0  0
  180.4300  179.7360  140.0350 C   0  0  0  0  0  0  0  0  0  0  0  0
  184.7820  178.4320  139.3030 C   0  0  2  0  0  3  0  0  0  0  0  0
  182.0740  178.2350  141.1470 C   0  0  1  0  0  3  0  0  0  0  0  0
  184.9330  179.6060  140.0690 O   0  0  0  0  0  0  0  0  0  0  0  0
  182.5560  177.7860  134.5950 C   0  0  0  0  0  1  0  0  0  0  0  0
  179.6970  180.9140  139.6590 C   0  0  0  0  0  0  0  0  0  0  0  0
  186.0470  176.7910  137.8800 N   0  0  0  0  0  0  0  0  0  0  0  0
  180.0590  178.5060  143.9080 C   0  0  0  0  0  0  0  0  0  0  0  0
  181.5940  179.7010  140.9860 C   0  0  2  0  0  3  0  0  0  0  0  0
  179.1240  179.2650  138.2880 C   0  0  2  0  0  3  0  0  0  0  0  0
  180.2550  177.8440  136.4470 C   0  0  2  0  0  3  0  0  0  0  0  0
  183.2680  176.4430  139.3840 C   0  0  0  0  0  2  0  0  0  0  0  0
  187.2350  175.1000  136.7990 O   0  0  0  0  0  0  0  0  0  0  0  0
  186.6680  179.0510  137.9410 O   0  0  0  0  0  1  0  0  0  0  0  0
  182.3430  175.6440  135.7580 C   0  0  0  0  0  1  0  0  0  0  0  0
  184.2320  177.3250  140.1760 C   0  0  2  0  0  3  0  0  0  0  0  0
  181.7000  177.7640  136.9270 C   0  0  0  0  0  2  0  0  0  0  0  0
  180.1300  178.7740  139.2280 N   0  0  0  0  0  0  0  0  0  0  0  0
  180.0200  178.4460  142.6170 N   0  0  0  0  0  0  0  0  0  0  0  0
  186.1240  178.0130  138.6980 C   0  0  1  0  0  3  0  0  0  0  0  0
  179.6350  179.1780  136.8450 C   0  0  0  0  0  2  0  0  0  0  0  0
  184.3830  179.3690  141.3400 C   0  0  2  0  0  3  0  0  0  0  0  0
  181.2890  179.0040  144.4400 N   0  0  0  0  0  0  0  0  0  0  0  0
  184.7870  176.2900  137.3140 C   0  0  2  0  0  3  0  0  0  0  0  0
  184.0830  177.3660  136.4700 C   0  0  0  0  0  2  0  0  0  0  0  0
  187.2310  176.0010  137.6790 C   0  0  0  0  0  0  0  0  0  0  0  0
  179.5140  176.7740  136.9440 O   0  0  0  0  0  1  0  0  0  0  0  0
  182.6610  177.1100  135.9480 C   0  0  0  0  0  0  0  0  0  0  0  0
  185.4910  179.3170  142.3770 C   0  0  0  0  0  1  0  0  0  0  0  0
  183.9670  175.5460  138.3770 C   0  0  0  0  0  2  0  0  0  0  0  0
  179.8340  182.1660  140.2560 O   0  0  0  0  0  0  0  0  0  0  0  0
  178.9310  183.2240  139.9880 C   0  0  0  0  0  2  0  0  0  0  0  0
  179.0340  183.6670  138.5460 C   0  0  0  0  0  2  0  0  0  0  0  0
  178.9600  185.1170  138.4960 N   0  0  0  0  0  2  0  0  0  0  0  0
  179.6940  185.5410  137.3100 C   0  0  0  0  0  2  0  0  0  0  0  0
  180.7530  184.5080  136.9780 C   0  0  0  0  0  1  0  0  0  0  0  0
  188.4760  176.2180  138.4820 C   0  0  0  0  0  2  0  0  0  0  0  0
  189.5820  175.5400  137.9000 O   0  0  0  0  0  0  0  0  0  0  0  0
  190.8030  176.1330  137.5400 C   0  0  0  0  0  0  0  0  0  0  0  0
  190.9210  176.5730  136.3660 O   0  0  0  0  0  0  0  0  0  0  0  0
  191.7930  176.6140  139.6590 O   0  0  0  0  0  0  0  0  0  0  0  0
  193.3320  175.9590  137.9880 C   0  0  0  0  0  1  0  0  0  0  0  0
  191.9480  176.2630  138.4630 C   0  0  0  0  0  0  0  0  0  0  0  0
  1 27  1  0  0  0  0
  2 24  1  0  0  0  0
  2  4  1  0  0  0  0
  3 11  2  0  0  0  0
  4 28  2  0  0  0  0
  6 14  1  0  0  0  0
  7  9  1  0  0  0  0
  7 21  1  0  0  0  0
  8  1  1  0  0  0  0
  8  2  1  0  0  0  0
  9 27  1  0  0  0  0
 10 33  1  0  0  0  0
 11  6  1  0  0  0  0
 11 36  1  0  0  0  0
 12 25  1  0  0  0  0
 13 28  1  0  0  0  0
 13  5  1  0  0  0  0
 14  8  1  0  0  0  0
 14  2  1  0  0  0  0
 15  3  1  0  0  0  0
 15 23  1  0  0  0  0
 16 26  1  0  0  0  0
 16 22  1  0  0  0  0
 16 32  1  0  0  0  0
 17 21  1  0  0  0  0
 18 31  2  0  0  0  0
 19 25  1  0  0  0  0
 20 33  1  0  0  0  0
 21  1  1  0  0  0  0
 23  6  2  0  0  0  0
 24 13  2  0  0  0  0
 25  7  1  0  0  0  0
 26 15  1  0  0  0  0
 27 34  1  0  0  0  0
 29 12  1  0  0  0  0
 29 35  1  0  0  0  0
 30 29  1  0  0  0  0
 31 12  1  0  0  0  0
 31 42  1  0  0  0  0
 33 30  1  0  0  0  0
 33 22  1  0  0  0  0
 35 17  1  0  0  0  0
 37 36  1  0  0  0  0
 38 37  1  0  0  0  0
 39 38  1  0  0  0  0
 40 39  1  0  0  0  0
 41 40  1  0  0  0  0
 43 42  1  0  0  0  0
 44 43  1  0  0  0  0
 44 48  1  0  0  0  0
 45 44  2  0  0  0  0
 47 48  1  0  0  0  0
 48 46  2  0  0  0  0
M  END
>  <MODEL>
3

>  <REMARK>
 VINA RESULT:      -3.8      3.390      6.843
  Name = 
  9 active torsions:
  status: ('A' for Active; 'I' for Inactive)
    1  A    between atoms: C_9  and  N_35
    2  A    between atoms: C_13  and  O_14
    3  A    between atoms: O_14  and  C_40
    4  A    between atoms: C_24  and  N_35
    5  A    between atoms: C_24  and  C_40
    6  A    between atoms: O_29  and  C_32
    7  A    between atoms: O_29  and  C_33
    8  A    between atoms: C_32  and  C_44
    9  A    between atoms: C_33  and  C_43
                            x       y       z     vdW  Elec       q    Type
                         _______ _______ _______ _____ _____    ______ ____

>  <TORSDO>
F 9

$$$$
=
 OpenBabel11062412023D

 48 53  0  0  1  0  0  0  0  0999 V2000
  184.5360  176.9140  137.9530 C   0  0  1  0  0  3  0  0  0  0  0  0
  182.3190  178.2190  138.2770 C   0  0  2  0  0  0  0  0  0  0  0  0
  179.1730  176.3350  135.3620 N   0  0  0  0  0  0  0  0  0  0  0  0
  183.1410  179.3850  138.5340 N   0  0  0  0  0  0  0  0  0  0  0  0
  180.4760  179.7890  140.8300 N   0  0  0  0  0  1  0  0  0  0  0  0
  180.9850  176.8900  136.5710 C   0  0  0  0  0  0  0  0  0  0  0  0
  185.3460  175.4550  136.2620 C   0  0  2  0  0  3  0  0  0  0  0  0
  182.9920  176.8900  138.0410 C   0  0  1  0  0  3  0  0  0  0  0  0
  185.4080  176.7570  135.7270 O   0  0  0  0  0  0  0  0  0  0  0  0
  182.6200  171.2920  134.5940 C   0  0  0  0  0  1  0  0  0  0  0  0
  180.0230  177.2830  135.5770 C   0  0  0  0  0  0  0  0  0  0  0  0
  186.6510  173.3190  136.4930 N   0  0  0  0  0  0  0  0  0  0  0  0
  181.3660  179.3300  139.8190 C   0  0  0  0  0  0  0  0  0  0  0  0
  182.2600  177.6210  136.8860 C   0  0  2  0  0  3  0  0  0  0  0  0
  179.5420  175.2200  136.2390 C   0  0  2  0  0  3  0  0  0  0  0  0
  180.6220  172.8750  136.0880 C   0  0  2  0  0  3  0  0  0  0  0  0
  184.2050  174.3920  138.2170 C   0  0  0  0  0  2  0  0  0  0  0  0
  187.9380  171.4330  136.9740 O   0  0  0  0  0  0  0  0  0  0  0  0
  186.8960  174.6720  134.5930 O   0  0  0  0  0  1  0  0  0  0  0  0
  182.9260  170.9950  137.0030 C   0  0  0  0  0  1  0  0  0  0  0  0
  185.1130  175.5300  137.7550 C   0  0  2  0  0  3  0  0  0  0  0  0
  182.1130  173.1920  136.1130 C   0  0  0  0  0  2  0  0  0  0  0  0
  180.7370  175.6800  136.9450 N   0  0  0  0  0  0  0  0  0  0  0  0
  181.1570  178.2460  139.1450 N   0  0  0  0  0  0  0  0  0  0  0  0
  186.6400  174.6940  135.9660 C   0  0  1  0  0  3  0  0  0  0  0  0
  179.8540  173.9860  135.3830 C   0  0  0  0  0  2  0  0  0  0  0  0
  185.0880  177.6640  136.7520 C   0  0  2  0  0  3  0  0  0  0  0  0
  182.5600  180.0300  139.4590 N   0  0  0  0  0  0  0  0  0  0  0  0
  185.4240  172.5910  136.8430 C   0  0  2  0  0  3  0  0  0  0  0  0
  184.4420  172.5440  135.6610 C   0  0  0  0  0  2  0  0  0  0  0  0
  187.9090  172.6730  136.7550 C   0  0  0  0  0  0  0  0  0  0  0  0
  180.1440  172.6700  137.3800 O   0  0  0  0  0  1  0  0  0  0  0  0
  183.0230  171.9970  135.8740 C   0  0  0  0  0  0  0  0  0  0  0  0
  186.3230  178.4550  137.1410 C   0  0  0  0  0  1  0  0  0  0  0  0
  184.8940  173.0380  138.2130 C   0  0  0  0  0  2  0  0  0  0  0  0
  180.0350  178.4940  134.8880 O   0  0  0  0  0  0  0  0  0  0  0  0
  179.8650  179.7330  135.5520 C   0  0  0  0  0  2  0  0  0  0  0  0
  180.7990  180.7800  134.9850 C   0  0  0  0  0  2  0  0  0  0  0  0
  180.6600  181.9990  135.7620 N   0  0  0  0  0  2  0  0  0  0  0  0
  179.9940  182.9760  134.9090 C   0  0  0  0  0  2  0  0  0  0  0  0
  179.6680  184.2130  135.7230 C   0  0  0  0  0  1  0  0  0  0  0  0
  189.2020  173.4300  136.7680 C   0  0  0  0  0  2  0  0  0  0  0  0
  189.1490  174.5110  137.6900 O   0  0  0  0  0  0  0  0  0  0  0  0
  190.1130  175.5250  137.8120 C   0  0  0  0  0  0  0  0  0  0  0  0
  191.1970  175.2410  138.3870 O   0  0  0  0  0  0  0  0  0  0  0  0
  190.2000  177.9040  138.0010 O   0  0  0  0  0  0  0  0  0  0  0  0
  189.3850  177.1180  135.9260 C   0  0  0  0  0  1  0  0  0  0  0  0
  189.9180  176.8980  137.3050 C   0  0  0  0  0  0  0  0  0  0  0  0
  1  8  1  0  0  0  0
  2  4  1  0  0  0  0
  2 24  1  0  0  0  0
  3 11  2  0  0  0  0
  3 15  1  0  0  0  0
  4 28  2  0  0  0  0
  6 14  1  0  0  0  0
  6 23  2  0  0  0  0
  7 21  1  0  0  0  0
  8  2  1  0  0  0  0
  9  7  1  0  0  0  0
  9 27  1  0  0  0  0
 10 33  1  0  0  0  0
 11  6  1  0  0  0  0
 12 31  1  0  0  0  0
 12 29  1  0  0  0  0
 13  5  1  0  0  0  0
 14  8  1  0  0  0  0
 14  2  1  0  0  0  0
 15 23  1  0  0  0  0
 16 22  1  0  0  0  0
 16 32  1  0  0  0  0
 19 25  1  0  0  0  0
 21  1  1  0  0  0  0
 21 17  1  0  0  0  0
 24 13  2  0  0  0  0
 25  7  1  0  0  0  0
 25 12  1  0  0  0  0
 26 16  1  0  0  0  0
 26 15  1  0  0  0  0
 27 34  1  0  0  0  0
 27  1  1  0  0  0  0
 28 13  1  0  0  0  0
 29 35  1  0  0  0  0
 30 33  1  0  0  0  0
 30 29  1  0  0  0  0
 31 42  1  0  0  0  0
 31 18  2  0  0  0  0
 33 22  1  0  0  0  0
 33 20  1  0  0  0  0
 35 17  1  0  0  0  0
 36 37  1  0  0  0  0
 36 11  1  0  0  0  0
 38 37  1  0  0  0  0
 38 39  1  0  0  0  0
 40 41  1  0  0  0  0
 40 39  1  0  0  0  0
 42 43  1  0  0  0  0
 43 44  1  0  0  0  0
 44 45  2  0  0  0  0
 47 48  1  0  0  0  0
 48 44  1  0  0  0  0
 48 46  2  0  0  0  0
M  END
>  <MODEL>
4

>  <REMARK>
 VINA RESULT:      -3.7      2.927      6.249
  Name = 
  9 active torsions:
  status: ('A' for Active; 'I' for Inactive)
    1  A    between atoms: C_9  and  N_35
    2  A    between atoms: C_13  and  O_14
    3  A    between atoms: O_14  and  C_40
    4  A    between atoms: C_24  and  N_35
    5  A    between atoms: C_24  and  C_40
    6  A    between atoms: O_29  and  C_32
    7  A    between atoms: O_29  and  C_33
    8  A    between atoms: C_32  and  C_44
    9  A    between atoms: C_33  and  C_43
                            x       y       z     vdW  Elec       q    Type
                         _______ _______ _______ _____ _____    ______ ____

>  <TORSDO>
F 9

$$$$
=
 OpenBabel11062412023D

 48 53  0  0  1  0  0  0  0  0999 V2000
  187.5300  177.7360  137.9010 C   0  0  1  0  0  3  0  0  0  0  0  0
  184.9910  178.1870  138.1810 C   0  0  2  0  0  0  0  0  0  0  0  0
  182.7480  175.2970  135.2540 N   0  0  0  0  0  0  0  0  0  0  0  0
  185.3500  179.5680  138.4320 N   0  0  0  0  0  0  0  0  0  0  0  0
  182.6750  179.0330  140.6910 N   0  0  0  0  0  1  0  0  0  0  0  0
  184.2320  176.4600  136.4770 C   0  0  0  0  0  0  0  0  0  0  0  0
  188.8250  176.6380  136.2390 C   0  0  2  0  0  3  0  0  0  0  0  0
  186.0900  177.1740  137.9710 C   0  0  1  0  0  3  0  0  0  0  0  0
  188.4360  177.8750  135.6880 O   0  0  0  0  0  0  0  0  0  0  0  0
  187.7510  171.7710  134.5940 C   0  0  0  0  0  1  0  0  0  0  0  0
  183.2100  176.4840  135.4660 C   0  0  0  0  0  0  0  0  0  0  0  0
  190.7900  175.0950  136.5140 N   0  0  0  0  0  0  0  0  0  0  0  0
  183.6850  178.9070  139.6970 C   0  0  0  0  0  0  0  0  0  0  0  0
  185.1670  177.5940  136.7980 C   0  0  2  0  0  3  0  0  0  0  0  0
  183.4700  174.3890  136.1500 C   0  0  2  0  0  3  0  0  0  0  0  0
  185.3030  172.5680  136.0430 C   0  0  2  0  0  3  0  0  0  0  0  0
  188.0960  175.2590  138.1950 C   0  0  0  0  0  2  0  0  0  0  0  0
  192.6470  173.7820  137.0360 O   0  0  0  0  0  0  0  0  0  0  0  0
  190.5770  176.4320  134.6000 O   0  0  0  0  0  1  0  0  0  0  0  0
  188.1030  171.6200  137.0110 C   0  0  0  0  0  1  0  0  0  0  0  0
  188.5560  176.6390  137.7280 C   0  0  2  0  0  3  0  0  0  0  0  0
  186.5890  173.3860  136.0820 C   0  0  0  0  0  2  0  0  0  0  0  0
  184.4170  175.2430  136.8640 N   0  0  0  0  0  0  0  0  0  0  0  0
  183.8790  177.8120  139.0350 N   0  0  0  0  0  0  0  0  0  0  0  0
  190.3080  176.3750  135.9690 C   0  0  1  0  0  3  0  0  0  0  0  0
  184.2070  173.3350  135.3140 C   0  0  0  0  0  2  0  0  0  0  0  0
  187.8030  178.6210  136.6970 C   0  0  2  0  0  3  0  0  0  0  0  0
  184.5650  179.9760  139.3420 N   0  0  0  0  0  0  0  0  0  0  0  0
  189.8890  173.9870  136.8590 C   0  0  2  0  0  3  0  0  0  0  0  0
  189.0040  173.5900  135.6660 C   0  0  0  0  0  2  0  0  0  0  0  0
  192.1900  174.9320  136.8000 C   0  0  0  0  0  0  0  0  0  0  0  0
  184.9060  172.2190  137.3320 O   0  0  0  0  0  1  0  0  0  0  0  0
  187.8630  172.5830  135.8700 C   0  0  0  0  0  0  0  0  0  0  0  0
  188.6770  179.7980  137.0910 C   0  0  0  0  0  1  0  0  0  0  0  0
  189.2150  174.2310  138.2170 C   0  0  0  0  0  2  0  0  0  0  0  0
  182.8090  177.6180  134.7610 O   0  0  0  0  0  0  0  0  0  0  0  0
  181.6030  178.2970  135.0620 C   0  0  0  0  0  2  0  0  0  0  0  0
  181.4190  178.4290  136.5570 C   0  0  0  0  0  2  0  0  0  0  0  0
  180.1520  179.0910  136.8150 N   0  0  0  0  0  2  0  0  0  0  0  0
  179.8120  178.8360  138.2100 C   0  0  0  0  0  2  0  0  0  0  0  0
  179.3850  177.3900  138.3650 C   0  0  0  0  0  1  0  0  0  0  0  0
  193.1370  176.0920  136.8190 C   0  0  0  0  0  2  0  0  0  0  0  0
  193.7430  176.2750  135.5460 O   0  0  0  0  0  0  0  0  0  0  0  0
  195.1130  176.4830  135.3190 C   0  0  0  0  0  0  0  0  0  0  0  0
  195.4650  177.5760  134.8040 O   0  0  0  0  0  0  0  0  0  0  0  0
  197.1700  175.7950  136.3190 O   0  0  0  0  0  0  0  0  0  0  0  0
  196.0020  174.0710  135.2010 C   0  0  0  0  0  1  0  0  0  0  0  0
  196.1520  175.4880  135.6500 C   0  0  0  0  0  0  0  0  0  0  0  0
  1  8  1  0  0  0  0
  2  4  1  0  0  0  0
  2 24  1  0  0  0  0
  3 11  2  0  0  0  0
  3 15  1  0  0  0  0
  4 28  2  0  0  0  0
  6 14  1  0  0  0  0
  6 23  2  0  0  0  0
  7 21  1  0  0  0  0
  8  2  1  0  0  0  0
  9  7  1  0  0  0  0
  9 27  1  0  0  0  0
 10 33  1  0  0  0  0
 11  6  1  0  0  0  0
 12 31  1  0  0  0  0
 12 29  1  0  0  0  0
 13  5  1  0  0  0  0
 14  8  1  0  0  0  0
 14  2  1  0  0  0  0
 15 23  1  0  0  0  0
 16 22  1  0  0  0  0
 16 32  1  0  0  0  0
 17 35  1  0  0  0  0
 19 25  1  0  0  0  0
 21  1  1  0  0  0  0
 21 17  1  0  0  0  0
 24 13  2  0  0  0  0
 25  7  1  0  0  0  0
 25 12  1  0  0  0  0
 26 16  1  0  0  0  0
 26 15  1  0  0  0  0
 27 34  1  0  0  0  0
 27  1  1  0  0  0  0
 28 13  1  0  0  0  0
 29 35  1  0  0  0  0
 30 33  1  0  0  0  0
 30 29  1  0  0  0  0
 31 42  1  0  0  0  0
 31 18  2  0  0  0  0
 33 22  1  0  0  0  0
 33 20  1  0  0  0  0
 36 37  1  0  0  0  0
 36 11  1  0  0  0  0
 37 38  1  0  0  0  0
 38 39  1  0  0  0  0
 39 40  1  0  0  0  0
 40 41  1  0  0  0  0
 43 42  1  0  0  0  0
 44 43  1  0  0  0  0
 44 48  1  0  0  0  0
 45 44  2  0  0  0  0
 47 48  1  0  0  0  0
 48 46  2  0  0  0  0
M  END
>  <MODEL>
5

>  <REMARK>
 VINA RESULT:      -2.7      2.525      4.893
  Name = 
  9 active torsions:
  status: ('A' for Active; 'I' for Inactive)
    1  A    between atoms: C_9  and  N_35
    2  A    between atoms: C_13  and  O_14
    3  A    between atoms: O_14  and  C_40
    4  A    between atoms: C_24  and  N_35
    5  A    between atoms: C_24  and  C_40
    6  A    between atoms: O_29  and  C_32
    7  A    between atoms: O_29  and  C_33
    8  A    between atoms: C_32  and  C_44
    9  A    between atoms: C_33  and  C_43
                            x       y       z     vdW  Elec       q    Type
                         _______ _______ _______ _____ _____    ______ ____

>  <TORSDO>
F 9

$$$$
=
 OpenBabel11062412023D

 48 53  0  0  1  0  0  0  0  0999 V2000
  184.7730  177.3310  139.2140 C   0  0  1  0  0  3  0  0  0  0  0  0
  183.4280  178.7590  140.9110 C   0  0  2  0  0  0  0  0  0  0  0  0
  179.3660  179.8730  138.8580 N   0  0  0  0  0  0  0  0  0  0  0  0
  184.7050  179.2770  141.3590 N   0  0  0  0  0  0  0  0  0  0  0  0
  182.8730  178.9970  144.3770 N   0  0  0  0  0  1  0  0  0  0  0  0
  181.4010  179.0960  139.4140 C   0  0  0  0  0  0  0  0  0  0  0  0
  184.5920  176.9650  136.8740 C   0  0  2  0  0  3  0  0  0  0  0  0
  183.4070  177.6890  139.8470 C   0  0  1  0  0  3  0  0  0  0  0  0
  185.1330  178.2570  137.0350 O   0  0  0  0  0  0  0  0  0  0  0  0
  180.1000  175.4930  134.5930 C   0  0  0  0  0  1  0  0  0  0  0  0
  180.5670  180.2400  139.1600 C   0  0  0  0  0  0  0  0  0  0  0  0
  184.8520  174.8310  135.5710 N   0  0  0  0  0  0  0  0  0  0  0  0
  183.3060  178.9840  143.0210 C   0  0  0  0  0  0  0  0  0  0  0  0
  182.8990  179.1210  139.5370 C   0  0  2  0  0  3  0  0  0  0  0  0
  179.3420  178.4070  138.8990 C   0  0  2  0  0  3  0  0  0  0  0  0
  179.2520  176.3960  137.2750 C   0  0  2  0  0  3  0  0  0  0  0  0
  183.4180  175.3350  138.3640 C   0  0  0  0  0  2  0  0  0  0  0  0
  185.2430  172.7500  134.5940 O   0  0  0  0  0  0  0  0  0  0  0  0
  185.3660  176.9000  134.5950 O   0  0  0  0  0  1  0  0  0  0  0  0
  180.6140  173.7870  136.2710 C   0  0  0  0  0  1  0  0  0  0  0  0
  184.6480  176.2240  138.1920 C   0  0  2  0  0  3  0  0  0  0  0  0
  180.7160  176.2110  136.8910 C   0  0  0  0  0  2  0  0  0  0  0  0
  180.7110  178.0200  139.2380 N   0  0  0  0  0  0  0  0  0  0  0  0
  182.5430  178.6000  142.0500 N   0  0  0  0  0  0  0  0  0  0  0  0
  185.3610  176.1940  135.7990 C   0  0  1  0  0  3  0  0  0  0  0  0
  178.9470  177.8690  137.5180 C   0  0  0  0  0  2  0  0  0  0  0  0
  185.4030  178.4480  138.4000 C   0  0  2  0  0  3  0  0  0  0  0  0
  184.6140  179.3980  142.6180 N   0  0  0  0  0  0  0  0  0  0  0  0
  183.5000  174.4110  135.9650 C   0  0  2  0  0  3  0  0  0  0  0  0
  182.4270  175.3310  135.3600 C   0  0  0  0  0  2  0  0  0  0  0  0
  185.7240  173.8360  135.0110 C   0  0  0  0  0  0  0  0  0  0  0  0
  178.9380  175.6240  138.3920 O   0  0  0  0  0  1  0  0  0  0  0  0
  180.9630  175.1810  135.8010 C   0  0  0  0  0  0  0  0  0  0  0  0
  186.9040  178.4880  138.6260 C   0  0  0  0  0  1  0  0  0  0  0  0
  183.4370  174.1080  137.4690 C   0  0  0  0  0  2  0  0  0  0  0  0
  181.0000  181.5650  139.1730 O   0  0  0  0  0  0  0  0  0  0  0  0
  181.5500  182.1820  138.0230 C   0  0  0  0  0  2  0  0  0  0  0  0
  180.5370  182.2270  136.9010 C   0  0  0  0  0  2  0  0  0  0  0  0
  180.7440  183.4450  136.1350 N   0  0  0  0  0  2  0  0  0  0  0  0
  181.2850  184.4400  137.0530 C   0  0  0  0  0  2  0  0  0  0  0  0
  180.1740  185.3720  137.4940 C   0  0  0  0  0  1  0  0  0  0  0  0
  187.2030  174.0500  134.8980 C   0  0  0  0  0  2  0  0  0  0  0  0
  187.8940  173.4010  135.9580 O   0  0  0  0  0  0  0  0  0  0  0  0
  189.0670  173.8700  136.5720 C   0  0  0  0  0  0  0  0  0  0  0  0
  189.6770  173.0900  137.3490 O   0  0  0  0  0  0  0  0  0  0  0  0
  190.5090  175.4450  135.5050 O   0  0  0  0  0  0  0  0  0  0  0  0
  189.0880  176.3790  137.1470 C   0  0  0  0  0  1  0  0  0  0  0  0
  189.6120  175.2250  136.3550 C   0  0  0  0  0  0  0  0  0  0  0  0
  1  8  1  0  0  0  0
  2  4  1  0  0  0  0
  2 24  1  0  0  0  0
  3 15  1  0  0  0  0
  3 11  2  0  0  0  0
  4 28  2  0  0  0  0
  6 14  1  0  0  0  0
  7  9  1  0  0  0  0
  7 21  1  0  0  0  0
  8  2  1  0  0  0  0
  9 27  1  0  0  0  0
 10 33  1  0  0  0  0
 11 36  1  0  0  0  0
 11  6  1  0  0  0  0
 12 25  1  0  0  0  0
 12 29  1  0  0  0  0
 13  5  1  0  0  0  0
 14  8  1  0  0  0  0
 14  2  1  0  0  0  0
 15 23  1  0  0  0  0
 16 26  1  0  0  0  0
 16 32  1  0  0  0  0
 18 31  2  0  0  0  0
 19 25  1  0  0  0  0
 21 17  1  0  0  0  0
 21  1  1  0  0  0  0
 22 16  1  0  0  0  0
 23  6  2  0  0  0  0
 24 13  2  0  0  0  0
 25  7  1  0  0  0  0
 26 15  1  0  0  0  0
 27 34  1  0  0  0  0
 27  1  1  0  0  0  0
 28 13  1  0  0  0  0
 29 35  1  0  0  0  0
 30 33  1  0  0  0  0
 30 29  1  0  0  0  0
 31 12  1  0  0  0  0
 33 20  1  0  0  0  0
 33 22  1  0  0  0  0
 35 17  1  0  0  0  0
 37 36  1  0  0  0  0
 38 37  1  0  0  0  0
 39 38  1  0  0  0  0
 39 40  1  0  0  0  0
 40 41  1  0  0  0  0
 42 31  1  0  0  0  0
 42 43  1  0  0  0  0
 43 44  1  0  0  0  0
 44 45  2  0  0  0  0
 46 48  2  0  0  0  0
 48 44  1  0  0  0  0
 48 47  1  0  0  0  0
M  END
>  <MODEL>
6

>  <REMARK>
 VINA RESULT:      -2.6      2.908      6.763
  Name = 
  9 active torsions:
  status: ('A' for Active; 'I' for Inactive)
    1  A    between atoms: C_9  and  N_35
    2  A    between atoms: C_13  and  O_14
    3  A    between atoms: O_14  and  C_40
    4  A    between atoms: C_24  and  N_35
    5  A    between atoms: C_24  and  C_40
    6  A    between atoms: O_29  and  C_32
    7  A    between atoms: O_29  and  C_33
    8  A    between atoms: C_32  and  C_44
    9  A    between atoms: C_33  and  C_43
                            x       y       z     vdW  Elec       q    Type
                         _______ _______ _______ _____ _____    ______ ____

>  <TORSDO>
F 9

$$$$
=
 OpenBabel11062412023D

 48 53  0  0  1  0  0  0  0  0999 V2000
  183.9640  176.6310  137.2950 C   0  0  1  0  0  3  0  0  0  0  0  0
  186.2080  175.6170  136.4830 C   0  0  2  0  0  0  0  0  0  0  0  0
  189.6410  177.9910  138.6120 N   0  0  0  0  0  0  0  0  0  0  0  0
  185.5460  175.3800  135.2160 N   0  0  0  0  0  0  0  0  0  0  0  0
  187.5790  172.5040  135.5830 N   0  0  0  0  0  1  0  0  0  0  0  0
  187.6970  177.1560  137.8530 C   0  0  0  0  0  0  0  0  0  0  0  0
  183.3800  178.6620  138.3800 C   0  0  2  0  0  3  0  0  0  0  0  0
  185.4120  176.1980  137.6250 C   0  0  1  0  0  3  0  0  0  0  0  0
  183.6650  178.9940  137.0400 O   0  0  0  0  0  0  0  0  0  0  0  0
  185.7330  180.2770  142.7840 C   0  0  0  0  0  1  0  0  0  0  0  0
  188.9280  177.8340  137.5470 C   0  0  0  0  0  0  0  0  0  0  0  0
  181.7340  179.0600  140.2370 N   0  0  0  0  0  0  0  0  0  0  0  0
  186.9100  173.7480  135.7500 C   0  0  0  0  0  0  0  0  0  0  0  0
  186.5180  177.0320  136.9280 C   0  0  2  0  0  3  0  0  0  0  0  0
  188.8890  177.4000  139.7230 C   0  0  2  0  0  3  0  0  0  0  0  0
  187.5190  178.1460  141.7860 C   0  0  2  0  0  3  0  0  0  0  0  0
  183.8090  176.6830  139.8470 C   0  0  0  0  0  2  0  0  0  0  0  0
  180.0820  179.1750  141.8800 O   0  0  0  0  0  0  0  0  0  0  0  0
  182.1940  180.7380  138.6640 O   0  0  0  0  0  1  0  0  0  0  0  0
  184.7890  178.0730  143.2750 C   0  0  0  0  0  1  0  0  0  0  0  0
  183.2410  177.1610  138.5120 C   0  0  2  0  0  3  0  0  0  0  0  0
  186.1400  178.4130  141.1930 C   0  0  0  0  0  2  0  0  0  0  0  0
  187.6450  176.9220  139.1210 N   0  0  0  0  0  0  0  0  0  0  0  0
  187.1040  174.5130  136.7750 N   0  0  0  0  0  0  0  0  0  0  0  0
  182.0970  179.3560  138.8410 C   0  0  1  0  0  3  0  0  0  0  0  0
  188.6080  178.4810  140.7750 C   0  0  0  0  0  2  0  0  0  0  0  0
  183.8590  177.7980  136.3280 C   0  0  2  0  0  3  0  0  0  0  0  0
  185.9730  174.2610  134.7990 N   0  0  0  0  0  0  0  0  0  0  0  0
  182.7010  178.5550  141.2200 C   0  0  2  0  0  3  0  0  0  0  0  0
  183.9270  179.4760  141.3280 C   0  0  0  0  0  2  0  0  0  0  0  0
  180.3640  179.1920  140.6520 C   0  0  0  0  0  0  0  0  0  0  0  0
  187.6190  176.8250  142.2180 O   0  0  0  0  0  1  0  0  0  0  0  0
  185.1400  179.0300  142.1580 C   0  0  0  0  0  0  0  0  0  0  0  0
  182.7100  177.5840  135.3600 C   0  0  0  0  0  1  0  0  0  0  0  0
  182.9340  177.0480  141.0350 C   0  0  0  0  0  2  0  0  0  0  0  0
  189.2840  178.3160  136.2890 O   0  0  0  0  0  0  0  0  0  0  0  0
  189.6700  177.4490  135.2380 C   0  0  0  0  0  2  0  0  0  0  0  0
  190.7740  176.5170  135.6880 C   0  0  0  0  0  2  0  0  0  0  0  0
  190.2690  175.1550  135.6760 N   0  0  0  0  0  2  0  0  0  0  0  0
  190.6800  174.5360  136.9300 C   0  0  0  0  0  2  0  0  0  0  0  0
  192.1900  174.4000  136.9510 C   0  0  0  0  0  1  0  0  0  0  0  0
  179.2480  179.3580  139.6670 C   0  0  0  0  0  2  0  0  0  0  0  0
  178.9310  180.7320  139.4850 O   0  0  0  0  0  0  0  0  0  0  0  0
  179.0270  181.4370  138.2740 C   0  0  0  0  0  0  0  0  0  0  0  0
  178.9740  180.7760  137.2030 O   0  0  0  0  0  0  0  0  0  0  0  0
  178.9450  183.6450  139.1790 O   0  0  0  0  0  0  0  0  0  0  0  0
  179.6700  183.5360  136.9310 C   0  0  0  0  0  1  0  0  0  0  0  0
  179.1900  182.9020  138.1960 C   0  0  0  0  0  0  0  0  0  0  0  0
  1  8  1  0  0  0  0
  1 21  1  0  0  0  0
  2 24  1  0  0  0  0
  2 14  1  0  0  0  0
  2  8  1  0  0  0  0
  3 15  1  0  0  0  0
  4  2  1  0  0  0  0
  5 13  1  0  0  0  0
  6 23  2  0  0  0  0
  7 21  1  0  0  0  0
  7 25  1  0  0  0  0
  9  7  1  0  0  0  0
 11  6  1  0  0  0  0
 11  3  2  0  0  0  0
 12 31  1  0  0  0  0
 12 29  1  0  0  0  0
 13 24  2  0  0  0  0
 14  8  1  0  0  0  0
 14  6  1  0  0  0  0
 15 26  1  0  0  0  0
 16 32  1  0  0  0  0
 17 35  1  0  0  0  0
 19 25  1  0  0  0  0
 21 17  1  0  0  0  0
 22 16  1  0  0  0  0
 22 33  1  0  0  0  0
 23 15  1  0  0  0  0
 25 12  1  0  0  0  0
 26 16  1  0  0  0  0
 27  9  1  0  0  0  0
 27  1  1  0  0  0  0
 28  4  2  0  0  0  0
 28 13  1  0  0  0  0
 29 30  1  0  0  0  0
 30 33  1  0  0  0  0
 31 18  2  0  0  0  0
 33 10  1  0  0  0  0
 33 20  1  0  0  0  0
 34 27  1  0  0  0  0
 35 29  1  0  0  0  0
 36 11  1  0  0  0  0
 37 38  1  0  0  0  0
 37 36  1  0  0  0  0
 39 38  1  0  0  0  0
 39 40  1  0  0  0  0
 40 41  1  0  0  0  0
 42 31  1  0  0  0  0
 43 42  1  0  0  0  0
 44 43  1  0  0  0  0
 45 44  2  0  0  0  0
 47 48  1  0  0  0  0
 48 44  1  0  0  0  0
 48 46  2  0  0  0  0
M  END
>  <MODEL>
7

>  <REMARK>
 VINA RESULT:      -2.5      3.150      8.972
  Name = 
  9 active torsions:
  status: ('A' for Active; 'I' for Inactive)
    1  A    between atoms: C_9  and  N_35
    2  A    between atoms: C_13  and  O_14
    3  A    between atoms: O_14  and  C_40
    4  A    between atoms: C_24  and  N_35
    5  A    between atoms: C_24  and  C_40
    6  A    between atoms: O_29  and  C_32
    7  A    between atoms: O_29  and  C_33
    8  A    between atoms: C_32  and  C_44
    9  A    between atoms: C_33  and  C_43
                            x       y       z     vdW  Elec       q    Type
                         _______ _______ _______ _____ _____    ______ ____

>  <TORSDO>
F 9

$$$$
=
 OpenBabel11062412023D

 48 53  0  0  1  0  0  0  0  0999 V2000
  184.7320  177.6670  136.6240 C   0  0  1  0  0  3  0  0  0  0  0  0
  182.4970  178.6330  137.5170 C   0  0  2  0  0  0  0  0  0  0  0  0
  182.4740  177.9870  142.1570 N   0  0  0  0  0  0  0  0  0  0  0  0
  181.9090  178.2070  136.2630 N   0  0  0  0  0  0  0  0  0  0  0  0
  180.2760  181.2870  136.8850 N   0  0  0  0  0  1  0  0  0  0  0  0
  182.9350  178.0810  139.9590 C   0  0  0  0  0  0  0  0  0  0  0  0
  186.3600  176.1940  137.5320 C   0  0  2  0  0  3  0  0  0  0  0  0
  183.9790  178.4440  137.7300 C   0  0  1  0  0  3  0  0  0  0  0  0
  185.2530  175.3960  137.1810 O   0  0  0  0  0  0  0  0  0  0  0  0
  188.5460  176.9740  142.2390 C   0  0  0  0  0  1  0  0  0  0  0  0
  182.0880  177.5640  141.0000 C   0  0  0  0  0  0  0  0  0  0  0  0
  188.8670  176.3140  137.3990 N   0  0  0  0  0  0  0  0  0  0  0  0
  181.0950  180.1260  136.9450 C   0  0  0  0  0  0  0  0  0  0  0  0
  182.9520  177.6050  138.5330 C   0  0  2  0  0  3  0  0  0  0  0  0
  183.6440  178.8410  141.9330 C   0  0  2  0  0  3  0  0  0  0  0  0
  186.2100  178.7830  142.2530 C   0  0  2  0  0  3  0  0  0  0  0  0
  186.7510  178.6440  137.8530 C   0  0  0  0  0  2  0  0  0  0  0  0
  191.1540  176.5980  137.0400 O   0  0  0  0  0  0  0  0  0  0  0  0
  187.7750  174.2470  137.5830 O   0  0  0  0  0  1  0  0  0  0  0  0
  189.0140  178.9820  140.9200 C   0  0  0  0  0  1  0  0  0  0  0  0
  186.2130  177.5670  136.9130 C   0  0  2  0  0  3  0  0  0  0  0  0
  186.6870  178.0580  140.9980 C   0  0  0  0  0  2  0  0  0  0  0  0
  183.8650  178.8030  140.4880 N   0  0  0  0  0  0  0  0  0  0  0  0
  181.9110  179.8970  137.9220 N   0  0  0  0  0  0  0  0  0  0  0  0
  187.6610  175.5390  137.0650 C   0  0  1  0  0  3  0  0  0  0  0  0
  184.8470  178.2580  142.6850 C   0  0  0  0  0  2  0  0  0  0  0  0
  184.3330  176.2070  136.4940 C   0  0  2  0  0  3  0  0  0  0  0  0
  181.0820  179.1120  135.9360 N   0  0  0  0  0  0  0  0  0  0  0  0
  188.8870  177.3400  138.4500 C   0  0  2  0  0  3  0  0  0  0  0  0
  188.4060  176.7750  139.7960 C   0  0  0  0  0  2  0  0  0  0  0  0
  190.0630  176.1280  136.6230 C   0  0  0  0  0  0  0  0  0  0  0  0
  186.1780  180.1590  142.0400 O   0  0  0  0  0  1  0  0  0  0  0  0
  188.1710  177.7280  140.9780 C   0  0  0  0  0  0  0  0  0  0  0  0
  184.2780  175.7990  135.0340 C   0  0  0  0  0  1  0  0  0  0  0  0
  188.2680  178.6520  137.9470 C   0  0  0  0  0  2  0  0  0  0  0  0
  181.0300  176.6770  140.8040 O   0  0  0  0  0  0  0  0  0  0  0  0
  180.6990  176.1810  139.5200 C   0  0  0  0  0  2  0  0  0  0  0  0
  180.3260  174.7170  139.5890 C   0  0  0  0  0  2  0  0  0  0  0  0
  180.0110  174.2520  138.2490 N   0  0  0  0  0  2  0  0  0  0  0  0
  181.2390  174.3380  137.4680 C   0  0  0  0  0  2  0  0  0  0  0  0
  180.9050  174.7750  136.0550 C   0  0  0  0  0  1  0  0  0  0  0  0
  190.0600  175.3780  135.3260 C   0  0  0  0  0  2  0  0  0  0  0  0
  190.7850  174.1600  135.4410 O   0  0  0  0  0  0  0  0  0  0  0  0
  190.3130  172.8930  135.0620 C   0  0  0  0  0  0  0  0  0  0  0  0
  191.1600  171.9800  134.8770 O   0  0  0  0  0  0  0  0  0  0  0  0
  188.0450  173.4790  134.6000 O   0  0  0  0  0  0  0  0  0  0  0  0
  188.4000  171.1730  134.9750 C   0  0  0  0  0  1  0  0  0  0  0  0
  188.8820  172.5830  134.8680 C   0  0  0  0  0  0  0  0  0  0  0  0
  1 21  1  0  0  0  0
  1  8  1  0  0  0  0
  2  8  1  0  0  0  0
  2 24  1  0  0  0  0
  2 14  1  0  0  0  0
  4  2  1  0  0  0  0
  5 13  1  0  0  0  0
  6 23  2  0  0  0  0
  6 11  1  0  0  0  0
  8 14  1  0  0  0  0
  9  7  1  0  0  0  0
 11  3  2  0  0  0  0
 12 29  1  0  0  0  0
 13 24  2  0  0  0  0
 14  6  1  0  0  0  0
 15  3  1  0  0  0  0
 15 26  1  0  0  0  0
 16 26  1  0  0  0  0
 17 35  1  0  0  0  0
 20 33  1  0  0  0  0
 21  7  1  0  0  0  0
 21 17  1  0  0  0  0
 22 16  1  0  0  0  0
 23 15  1  0  0  0  0
 25 12  1  0  0  0  0
 25  7  1  0  0  0  0
 25 19  1  0  0  0  0
 27  1  1  0  0  0  0
 27  9  1  0  0  0  0
 28  4  2  0  0  0  0
 28 13  1  0  0  0  0
 29 30  1  0  0  0  0
 30 33  1  0  0  0  0
 31 18  2  0  0  0  0
 31 12  1  0  0  0  0
 32 16  1  0  0  0  0
 33 22  1  0  0  0  0
 33 10  1  0  0  0  0
 34 27  1  0  0  0  0
 35 29  1  0  0  0  0
 36 11  1  0  0  0  0
 37 38  1  0  0  0  0
 37 36  1  0  0  0  0
 39 38  1  0  0  0  0
 40 39  1  0  0  0  0
 41 40  1  0  0  0  0
 42 43  1  0  0  0  0
 42 31  1  0  0  0  0
 44 43  1  0  0  0  0
 45 44  2  0  0  0  0
 46 48  2  0  0  0  0
 48 47  1  0  0  0  0
 48 44  1  0  0  0  0
M  END
>  <MODEL>
8

>  <REMARK>
 VINA RESULT:      -2.4      1.815      2.373
  Name = 
  9 active torsions:
  status: ('A' for Active; 'I' for Inactive)
    1  A    between atoms: C_9  and  N_35
    2  A    between atoms: C_13  and  O_14
    3  A    between atoms: O_14  and  C_40
    4  A    between atoms: C_24  and  N_35
    5  A    between atoms: C_24  and  C_40
    6  A    between atoms: O_29  and  C_32
    7  A    between atoms: O_29  and  C_33
    8  A    between atoms: C_32  and  C_44
    9  A    between atoms: C_33  and  C_43
                            x       y       z     vdW  Elec       q    Type
                         _______ _______ _______ _____ _____    ______ ____

>  <TORSDO>
F 9

$$$$
=
 OpenBabel11062412023D

 48 53  0  0  1  0  0  0  0  0999 V2000
  187.7950  178.2290  139.8140 C   0  0  1  0  0  3  0  0  0  0  0  0
  188.6440  177.1930  137.5930 C   0  0  2  0  0  0  0  0  0  0  0  0
  185.6780  173.7490  136.4590 N   0  0  0  0  0  0  0  0  0  0  0  0
  189.9820  177.4930  138.0620 N   0  0  0  0  0  0  0  0  0  0  0  0
  190.2010  178.1750  134.5940 N   0  0  0  0  0  1  0  0  0  0  0  0
  186.7960  175.4600  137.3940 C   0  0  0  0  0  0  0  0  0  0  0  0
  186.2740  177.5000  141.4860 C   0  0  2  0  0  3  0  0  0  0  0  0
  187.4640  177.6210  138.4300 C   0  0  1  0  0  3  0  0  0  0  0  0
  187.4510  176.7450  141.6620 O   0  0  0  0  0  0  0  0  0  0  0  0
  181.4120  175.8790  140.3530 C   0  0  0  0  0  1  0  0  0  0  0  0
  186.8050  174.0780  136.9960 C   0  0  0  0  0  0  0  0  0  0  0  0
  184.5290  178.8110  142.7320 N   0  0  0  0  0  0  0  0  0  0  0  0
  189.7750  177.8170  135.9040 C   0  0  0  0  0  0  0  0  0  0  0  0
  187.8200  176.1200  138.2750 C   0  0  2  0  0  3  0  0  0  0  0  0
  184.8300  174.9440  136.4730 C   0  0  2  0  0  3  0  0  0  0  0  0
  182.7710  175.8780  137.7300 C   0  0  2  0  0  3  0  0  0  0  0  0
  185.3410  178.9340  139.6610 C   0  0  0  0  0  2  0  0  0  0  0  0
  183.0630  180.2680  143.8160 O   0  0  0  0  0  0  0  0  0  0  0  0
  185.5620  176.9530  143.7200 O   0  0  0  0  0  1  0  0  0  0  0  0
  181.5980  178.1600  139.4880 C   0  0  0  0  0  1  0  0  0  0  0  0
  186.5500  178.6600  140.5550 C   0  0  2  0  0  3  0  0  0  0  0  0
  183.3930  176.4880  138.9820 C   0  0  0  0  0  2  0  0  0  0  0  0
  185.6420  175.9710  137.1240 N   0  0  0  0  0  0  0  0  0  0  0  0
  188.5730  177.4140  136.1600 N   0  0  0  0  0  0  0  0  0  0  0  0
  185.7620  178.0130  142.8330 C   0  0  1  0  0  3  0  0  0  0  0  0
  183.5620  174.6540  137.2860 C   0  0  0  0  0  2  0  0  0  0  0  0
  188.4300  177.2580  140.7940 C   0  0  2  0  0  3  0  0  0  0  0  0
  190.6380  177.8680  137.0430 N   0  0  0  0  0  0  0  0  0  0  0  0
  183.6300  178.7440  141.5720 C   0  0  2  0  0  3  0  0  0  0  0  0
  183.1790  177.3000  141.2930 C   0  0  0  0  0  2  0  0  0  0  0  0
  184.2140  179.7590  143.7670 C   0  0  0  0  0  0  0  0  0  0  0  0
  182.6920  176.8260  136.7120 O   0  0  0  0  0  1  0  0  0  0  0  0
  182.3920  176.9850  140.0130 C   0  0  0  0  0  0  0  0  0  0  0  0
  189.5170  177.9490  141.5980 C   0  0  0  0  0  1  0  0  0  0  0  0
  184.1810  179.5740  140.4030 C   0  0  0  0  0  2  0  0  0  0  0  0
  187.8580  173.1910  137.2120 O   0  0  0  0  0  0  0  0  0  0  0  0
  188.8030  172.8920  136.2010 C   0  0  0  0  0  2  0  0  0  0  0  0
  189.8840  173.9490  136.1460 C   0  0  0  0  0  2  0  0  0  0  0  0
  190.5980  173.9530  137.4120 N   0  0  0  0  0  2  0  0  0  0  0  0
  191.9950  174.2420  137.1140 C   0  0  0  0  0  2  0  0  0  0  0  0
  192.5530  173.1510  136.2200 C   0  0  0  0  0  1  0  0  0  0  0  0
  185.2160  180.1610  144.8060 C   0  0  0  0  0  2  0  0  0  0  0  0
  185.2180  179.2430  145.8920 O   0  0  0  0  0  0  0  0  0  0  0  0
  186.1350  179.2440  146.9570 C   0  0  0  0  0  0  0  0  0  0  0  0
  186.0610  180.1780  147.7970 O   0  0  0  0  0  0  0  0  0  0  0  0
  187.3700  177.6580  148.2440 O   0  0  0  0  0  0  0  0  0  0  0  0
  188.0170  177.7890  145.9740 C   0  0  0  0  0  1  0  0  0  0  0  0
  187.1750  178.2110  147.1340 C   0  0  0  0  0  0  0  0  0  0  0  0
  1 21  1  0  0  0  0
  1 27  1  0  0  0  0
  2  4  1  0  0  0  0
  2 14  1  0  0  0  0
  2  8  1  0  0  0  0
  3 15  1  0  0  0  0
  3 11  2  0  0  0  0
  5 13  1  0  0  0  0
  6 14  1  0  0  0  0
  7  9  1  0  0  0  0
  7 25  1  0  0  0  0
  8  1  1  0  0  0  0
 11 36  1  0  0  0  0
 11  6  1  0  0  0  0
 12 25  1  0  0  0  0
 12 31  1  0  0  0  0
 13 24  2  0  0  0  0
 13 28  1  0  0  0  0
 14  8  1  0  0  0  0
 15 23  1  0  0  0  0
 15 26  1  0  0  0  0
 16 22  1  0  0  0  0
 17 35  1  0  0  0  0
 17 21  1  0  0  0  0
 20 33  1  0  0  0  0
 21  7  1  0  0  0  0
 22 33  1  0  0  0  0
 23  6  2  0  0  0  0
 24  2  1  0  0  0  0
 25 19  1  0  0  0  0
 26 16  1  0  0  0  0
 27 34  1  0  0  0  0
 27  9  1  0  0  0  0
 28  4  2  0  0  0  0
 29 12  1  0  0  0  0
 30 29  1  0  0  0  0
 31 18  2  0  0  0  0
 31 42  1  0  0  0  0
 32 16  1  0  0  0  0
 33 10  1  0  0  0  0
 33 30  1  0  0  0  0
 35 29  1  0  0  0  0
 37 36  1  0  0  0  0
 38 37  1  0  0  0  0
 38 39  1  0  0  0  0
 40 39  1  0  0  0  0
 41 40  1  0  0  0  0
 42 43  1  0  0  0  0
 43 44  1  0  0  0  0
 44 48  1  0  0  0  0
 44 45  2  0  0  0  0
 47 48  1  0  0  0  0
 48 46  2  0  0  0  0
M  END
>  <MODEL>
9

>  <REMARK>
 VINA RESULT:      -2.1      3.036      8.404
  Name = 
  9 active torsions:
  status: ('A' for Active; 'I' for Inactive)
    1  A    between atoms: C_9  and  N_35
    2  A    between atoms: C_13  and  O_14
    3  A    between atoms: O_14  and  C_40
    4  A    between atoms: C_24  and  N_35
    5  A    between atoms: C_24  and  C_40
    6  A    between atoms: O_29  and  C_32
    7  A    between atoms: O_29  and  C_33
    8  A    between atoms: C_32  and  C_44
    9  A    between atoms: C_33  and  C_43
                            x       y       z     vdW  Elec       q    Type
                         _______ _______ _______ _____ _____    ______ ____

>  <TORSDO>
F 9

$$$$
