=
 OpenBabel11062416183D

 29 31  0  0  1  0  0  0  0  0999 V2000
  187.0530  176.2810  137.0320 C   0  0  0  0  0  2  0  0  0  0  0  0
  188.4070  177.9890  140.6780 C   0  0  0  0  0  0  0  0  0  0  0  0
  186.1690  178.5850  139.7750 C   0  0  0  0  0  0  0  0  0  0  0  0
  188.3390  177.8720  139.3290 C   0  0  0  0  0  0  0  0  0  0  0  0
  189.6490  177.5650  141.3560 C   0  0  2  0  0  3  0  0  0  0  0  0
  186.9310  178.5070  141.2890 S   0  0  0  0  0  0  0  0  0  0  0  0
  189.1580  175.8990  138.0720 C   0  0  2  0  0  3  0  0  0  0  0  0
  190.3540  175.0990  137.8570 N   0  0  0  0  0  1  0  0  0  0  0  0
  188.4720  176.0540  136.7930 N   0  0  0  0  0  2  0  0  0  0  0  0
  190.7990  177.1320  139.9930 S   0  0  0  0  0  0  0  0  0  0  0  0
  187.0910  178.2030  138.7880 C   0  0  0  0  0  0  0  0  0  0  0  0
  189.5240  177.2750  138.6610 C   0  0  2  0  0  3  0  0  0  0  0  0
  186.7360  178.0710  137.0340 S   0  0  0  0  0  0  0  0  0  0  0  0
  181.3480  177.2320  140.1000 C   0  0  0  0  0  1  0  0  0  0  0  0
  184.4810  180.1380  139.1610 O   0  0  0  0  0  0  0  0  0  0  0  0
  181.8930  179.4110  139.3320 O   0  0  0  0  0  0  0  0  0  0  0  0
  182.3180  178.3010  139.7490 C   0  0  0  0  0  0  0  0  0  0  0  0
  184.7630  178.9860  139.5850 C   0  0  0  0  0  0  0  0  0  0  0  0
  183.7200  178.0510  139.8880 N   0  0  0  0  0  2  0  0  0  0  0  0
  189.4030  176.3240  142.1980 C   0  0  0  0  0  2  0  0  0  0  0  0
  190.6660  175.9330  142.9460 C   0  0  0  0  0  2  0  0  0  0  0  0
  191.4390  177.6090  144.6880 C   0  0  0  0  0  0  0  0  0  0  0  0
  192.0820  178.6610  144.9460 O   0  0  0  0  0  0  0  0  0  0  0  0
  191.3990  177.1270  143.3430 N   0  0  0  0  0  2  0  0  0  0  0  0
  189.7580  177.7100  146.4380 N   0  0  0  0  0  1  0  0  0  0  0  0
  190.7510  176.8640  145.7930 C   0  0  2  0  0  3  0  0  0  0  0  0
  191.9200  177.0400  147.9850 O   0  0  0  0  0  1  0  0  0  0  0  0
  191.7340  176.3530  146.7940 C   0  0  0  0  0  0  0  0  0  0  0  0
  192.3760  175.2900  146.5780 O   0  0  0  0  0  0  0  0  0  0  0  0
  1 13  1  0  0  0  0
  2  6  1  0  0  0  0
  2  5  1  0  0  0  0
  3  6  1  0  0  0  0
  4  2  2  0  0  0  0
  5 20  1  1  0  0  0
  7  8  1  6  0  0  0
  7 12  1  0  0  0  0
  9  1  1  0  0  0  0
  9  7  1  0  0  0  0
 10  5  1  0  0  0  0
 11  4  1  0  0  0  0
 11  3  2  0  0  0  0
 12  4  1  1  0  0  0
 12 10  1  0  0  0  0
 13 11  1  0  0  0  0
 15 18  2  0  0  0  0
 16 17  2  0  0  0  0
 17 19  1  0  0  0  0
 17 14  1  0  0  0  0
 18  3  1  0  0  0  0
 18 19  1  0  0  0  0
 20 21  1  0  0  0  0
 21 24  1  0  0  0  0
 22 23  2  0  0  0  0
 22 26  1  0  0  0  0
 24 22  1  0  0  0  0
 26 25  1  1  0  0  0
 26 28  1  0  0  0  0
 28 27  1  0  0  0  0
 29 28  2  0  0  0  0
M  END
>  <MODEL>
1

>  <REMARK>
 VINA RESULT:      -7.3      0.000      0.000
  Name = 
  6 active torsions:
  status: ('A' for Active; 'I' for Inactive)
    1  A    between atoms: C_4  and  C_24
    2  A    between atoms: CA_8  and  C_13
    3  A    between atoms: CA_8  and  C_21
    4  A    between atoms: C_9  and  C_12
    5  A    between atoms: C_12  and  C_17
    6  A    between atoms: C_17  and  N_26
                            x       y       z     vdW  Elec       q    Type
                         _______ _______ _______ _____ _____    ______ ____

>  <TORSDO>
F 6

$$$$
=
 OpenBabel11062416183D

 29 31  0  0  1  0  0  0  0  0999 V2000
  188.6700  178.3030  146.8870 C   0  0  0  0  0  2  0  0  0  0  0  0
  188.8930  176.8620  142.8980 C   0  0  0  0  0  0  0  0  0  0  0  0
  186.7700  177.8250  143.7600 C   0  0  0  0  0  0  0  0  0  0  0  0
  188.7700  176.7370  144.2420 C   0  0  0  0  0  0  0  0  0  0  0  0
  190.1550  176.4250  142.2660 C   0  0  2  0  0  3  0  0  0  0  0  0
  187.5450  177.6360  142.2630 S   0  0  0  0  0  0  0  0  0  0  0  0
  190.5660  177.3080  145.8510 C   0  0  2  0  0  3  0  0  0  0  0  0
  191.9500  176.9970  146.1740 N   0  0  0  0  0  1  0  0  0  0  0  0
  189.8190  177.4340  147.0990 N   0  0  0  0  0  2  0  0  0  0  0  0
  191.1230  175.6740  143.6330 S   0  0  0  0  0  0  0  0  0  0  0  0
  187.5820  177.2680  144.7600 C   0  0  0  0  0  0  0  0  0  0  0  0
  189.9550  176.2070  144.9640 C   0  0  2  0  0  3  0  0  0  0  0  0
  187.2170  177.2760  146.5170 S   0  0  0  0  0  0  0  0  0  0  0  0
  182.1970  178.6070  141.8470 C   0  0  0  0  0  1  0  0  0  0  0  0
  185.2330  179.1960  144.9420 O   0  0  0  0  0  0  0  0  0  0  0  0
  182.7790  179.6180  143.9140 O   0  0  0  0  0  0  0  0  0  0  0  0
  183.1420  178.8810  142.9600 C   0  0  0  0  0  0  0  0  0  0  0  0
  185.4610  178.4830  143.9290 C   0  0  0  0  0  0  0  0  0  0  0  0
  184.4510  178.3030  142.9290 N   0  0  0  0  0  2  0  0  0  0  0  0
  190.9230  177.6180  141.7230 C   0  0  0  0  0  2  0  0  0  0  0  0
  191.4040  177.3380  140.3100 C   0  0  0  0  0  2  0  0  0  0  0  0
  189.4970  176.8850  138.6980 C   0  0  0  0  0  0  0  0  0  0  0  0
  188.7200  176.0440  138.1730 O   0  0  0  0  0  0  0  0  0  0  0  0
  190.4780  176.4380  139.6370 N   0  0  0  0  0  2  0  0  0  0  0  0
  188.6140  179.0680  139.2880 N   0  0  0  0  0  1  0  0  0  0  0  0
  189.4030  178.3310  138.3130 C   0  0  2  0  0  3  0  0  0  0  0  0
  187.6250  179.1630  136.7800 O   0  0  0  0  0  1  0  0  0  0  0  0
  188.8270  178.4890  136.9440 C   0  0  0  0  0  0  0  0  0  0  0  0
  189.4360  178.0410  135.9360 O   0  0  0  0  0  0  0  0  0  0  0  0
  1  9  1  0  0  0  0
  2  4  2  0  0  0  0
  3 18  1  0  0  0  0
  3 11  2  0  0  0  0
  4 11  1  0  0  0  0
  4 12  1  0  0  0  0
  5 20  1  1  0  0  0
  5  2  1  0  0  0  0
  5 10  1  0  0  0  0
  6  2  1  0  0  0  0
  6  3  1  0  0  0  0
  7  8  1  1  0  0  0
  7  9  1  0  0  0  0
 11 13  1  0  0  0  0
 12 10  1  6  0  0  0
 12  7  1  0  0  0  0
 13  1  1  0  0  0  0
 14 17  1  0  0  0  0
 17 16  2  0  0  0  0
 18 15  2  0  0  0  0
 19 17  1  0  0  0  0
 19 18  1  0  0  0  0
 21 20  1  0  0  0  0
 22 24  1  0  0  0  0
 23 22  2  0  0  0  0
 24 21  1  0  0  0  0
 26 22  1  0  0  0  0
 26 25  1  1  0  0  0
 27 28  1  0  0  0  0
 28 26  1  0  0  0  0
 29 28  2  0  0  0  0
M  END
>  <MODEL>
2

>  <REMARK>
 VINA RESULT:      -7.0      3.535      6.770
  Name = 
  6 active torsions:
  status: ('A' for Active; 'I' for Inactive)
    1  A    between atoms: C_4  and  C_24
    2  A    between atoms: CA_8  and  C_13
    3  A    between atoms: CA_8  and  C_21
    4  A    between atoms: C_9  and  C_12
    5  A    between atoms: C_12  and  C_17
    6  A    between atoms: C_17  and  N_26
                            x       y       z     vdW  Elec       q    Type
                         _______ _______ _______ _____ _____    ______ ____

>  <TORSDO>
F 6

$$$$
=
 OpenBabel11062416183D

 29 31  0  0  1  0  0  0  0  0999 V2000
  183.0740  176.7770  139.3290 C   0  0  0  0  0  2  0  0  0  0  0  0
  186.8900  178.5840  139.7890 C   0  0  0  0  0  0  0  0  0  0  0  0
  185.2000  178.7600  141.6020 C   0  0  0  0  0  0  0  0  0  0  0  0
  185.6180  178.5050  139.3270 C   0  0  0  0  0  0  0  0  0  0  0  0
  187.9970  178.3890  138.8290 C   0  0  2  0  0  3  0  0  0  0  0  0
  186.8900  178.7780  141.4560 S   0  0  0  0  0  0  0  0  0  0  0  0
  184.8340  176.7800  137.7290 C   0  0  2  0  0  3  0  0  0  0  0  0
  185.1100  176.2410  136.4060 N   0  0  0  0  0  1  0  0  0  0  0  0
  183.3870  176.8430  137.9080 N   0  0  0  0  0  2  0  0  0  0  0  0
  187.1750  178.2420  137.1950 S   0  0  0  0  0  0  0  0  0  0  0  0
  184.6400  178.6020  140.3240 C   0  0  0  0  0  0  0  0  0  0  0  0
  185.4600  178.1790  137.8860 C   0  0  2  0  0  3  0  0  0  0  0  0
  182.8860  178.4670  139.9700 S   0  0  0  0  0  0  0  0  0  0  0  0
  185.5410  178.6720  146.6080 C   0  0  0  0  0  1  0  0  0  0  0  0
  183.2460  179.1030  142.9080 O   0  0  0  0  0  0  0  0  0  0  0  0
  183.4280  179.0530  145.5950 O   0  0  0  0  0  0  0  0  0  0  0  0
  184.6570  178.8370  145.4250 C   0  0  0  0  0  0  0  0  0  0  0  0
  184.4860  178.8810  142.8860 C   0  0  0  0  0  0  0  0  0  0  0  0
  185.2180  178.7450  144.1110 N   0  0  0  0  0  2  0  0  0  0  0  0
  188.7370  177.0950  139.1200 C   0  0  0  0  0  2  0  0  0  0  0  0
  189.9280  177.3590  140.0250 C   0  0  0  0  0  2  0  0  0  0  0  0
  190.3020  176.2700  142.2870 C   0  0  0  0  0  0  0  0  0  0  0  0
  190.5420  175.2190  142.9400 O   0  0  0  0  0  0  0  0  0  0  0  0
  190.1830  176.1960  140.8640 N   0  0  0  0  0  2  0  0  0  0  0  0
  191.3980  178.2420  143.1850 N   0  0  0  0  0  1  0  0  0  0  0  0
  190.1190  177.5720  143.0080 C   0  0  2  0  0  3  0  0  0  0  0  0
  188.1110  176.9910  144.3620 O   0  0  0  0  0  0  0  0  0  0  0  0
  189.4460  177.3690  144.3260 C   0  0  0  0  0  0  0  0  0  0  0  0
  190.0860  177.5100  145.4020 O   0  0  0  0  0  1  0  0  0  0  0  0
  1 13  1  0  0  0  0
  2  6  1  0  0  0  0
  3 18  1  0  0  0  0
  4  2  2  0  0  0  0
  4 11  1  0  0  0  0
  5 20  1  1  0  0  0
  5  2  1  0  0  0  0
  6  3  1  0  0  0  0
  7  8  1  6  0  0  0
  7 12  1  0  0  0  0
  7  9  1  0  0  0  0
  9  1  1  0  0  0  0
 10  5  1  0  0  0  0
 11  3  2  0  0  0  0
 12 10  1  6  0  0  0
 12  4  1  0  0  0  0
 13 11  1  0  0  0  0
 17 16  2  0  0  0  0
 17 14  1  0  0  0  0
 18 15  2  0  0  0  0
 18 19  1  0  0  0  0
 19 17  1  0  0  0  0
 20 21  1  0  0  0  0
 21 24  1  0  0  0  0
 22 23  2  0  0  0  0
 22 26  1  0  0  0  0
 24 22  1  0  0  0  0
 26 25  1  1  0  0  0
 26 28  1  0  0  0  0
 28 27  2  0  0  0  0
 28 29  1  0  0  0  0
M  END
>  <MODEL>
3

>  <REMARK>
 VINA RESULT:      -7.0      3.043      4.227
  Name = 
  6 active torsions:
  status: ('A' for Active; 'I' for Inactive)
    1  A    between atoms: C_4  and  C_24
    2  A    between atoms: CA_8  and  C_13
    3  A    between atoms: CA_8  and  C_21
    4  A    between atoms: C_9  and  C_12
    5  A    between atoms: C_12  and  C_17
    6  A    between atoms: C_17  and  N_26
                            x       y       z     vdW  Elec       q    Type
                         _______ _______ _______ _____ _____    ______ ____

>  <TORSDO>
F 6

$$$$
=
 OpenBabel11062416183D

 29 31  0  0  1  0  0  0  0  0999 V2000
  188.5070  178.3610  146.6080 C   0  0  0  0  0  2  0  0  0  0  0  0
  188.8640  176.9020  142.6350 C   0  0  0  0  0  0  0  0  0  0  0  0
  186.7040  177.8390  143.4310 C   0  0  0  0  0  0  0  0  0  0  0  0
  188.7050  176.7820  143.9760 C   0  0  0  0  0  0  0  0  0  0  0  0
  190.1500  176.4800  142.0430 C   0  0  2  0  0  3  0  0  0  0  0  0
  187.5250  177.6540  141.9580 S   0  0  0  0  0  0  0  0  0  0  0  0
  190.4460  177.3880  145.6330 C   0  0  2  0  0  3  0  0  0  0  0  0
  191.8250  177.0990  145.9970 N   0  0  0  0  0  1  0  0  0  0  0  0
  189.6620  177.5100  146.8590 N   0  0  0  0  0  2  0  0  0  0  0  0
  191.0890  175.7500  143.4410 S   0  0  0  0  0  0  0  0  0  0  0  0
  187.4960  177.2990  144.4580 C   0  0  0  0  0  0  0  0  0  0  0  0
  189.8760  176.2730  144.7350 C   0  0  2  0  0  3  0  0  0  0  0  0
  187.0800  177.3110  146.2030 S   0  0  0  0  0  0  0  0  0  0  0  0
  182.1470  178.4740  141.4290 C   0  0  0  0  0  1  0  0  0  0  0  0
  185.1270  179.2220  144.5440 O   0  0  0  0  0  0  0  0  0  0  0  0
  182.6810  179.5660  143.4680 O   0  0  0  0  0  0  0  0  0  0  0  0
  183.0710  178.8030  142.5450 C   0  0  0  0  0  0  0  0  0  0  0  0
  185.3820  178.4790  143.5590 C   0  0  0  0  0  0  0  0  0  0  0  0
  184.3900  178.2470  142.5510 N   0  0  0  0  0  2  0  0  0  0  0  0
  190.9160  177.6810  141.5150 C   0  0  0  0  0  2  0  0  0  0  0  0
  191.3670  177.4340  140.0860 C   0  0  0  0  0  2  0  0  0  0  0  0
  191.0860  175.6280  138.3240 C   0  0  0  0  0  0  0  0  0  0  0  0
  190.4420  174.6250  137.9180 O   0  0  0  0  0  0  0  0  0  0  0  0
  190.6970  176.2580  139.5480 N   0  0  0  0  0  2  0  0  0  0  0  0
  192.0030  176.0280  136.1120 N   0  0  0  0  0  1  0  0  0  0  0  0
  192.2610  176.1310  137.5400 C   0  0  2  0  0  3  0  0  0  0  0  0
  193.7080  174.1070  137.4180 O   0  0  0  0  0  0  0  0  0  0  0  0
  193.5070  175.3930  137.9030 C   0  0  0  0  0  0  0  0  0  0  0  0
  194.3890  175.9350  138.6200 O   0  0  0  0  0  1  0  0  0  0  0  0
  1  9  1  0  0  0  0
  2  4  2  0  0  0  0
  3 18  1  0  0  0  0
  3 11  2  0  0  0  0
  4 11  1  0  0  0  0
  4 12  1  0  0  0  0
  5 20  1  1  0  0  0
  5  2  1  0  0  0  0
  5 10  1  0  0  0  0
  6  2  1  0  0  0  0
  6  3  1  0  0  0  0
  7  8  1  1  0  0  0
  7  9  1  0  0  0  0
 11 13  1  0  0  0  0
 12 10  1  6  0  0  0
 12  7  1  0  0  0  0
 13  1  1  0  0  0  0
 14 17  1  0  0  0  0
 17 19  1  0  0  0  0
 17 16  2  0  0  0  0
 18 15  2  0  0  0  0
 19 18  1  0  0  0  0
 21 20  1  0  0  0  0
 22 24  1  0  0  0  0
 23 22  2  0  0  0  0
 24 21  1  0  0  0  0
 26 25  1  6  0  0  0
 26 28  1  0  0  0  0
 26 22  1  0  0  0  0
 27 28  2  0  0  0  0
 28 29  1  0  0  0  0
M  END
>  <MODEL>
4

>  <REMARK>
 VINA RESULT:      -6.8      3.781      6.540
  Name = 
  6 active torsions:
  status: ('A' for Active; 'I' for Inactive)
    1  A    between atoms: C_4  and  C_24
    2  A    between atoms: CA_8  and  C_13
    3  A    between atoms: CA_8  and  C_21
    4  A    between atoms: C_9  and  C_12
    5  A    between atoms: C_12  and  C_17
    6  A    between atoms: C_17  and  N_26
                            x       y       z     vdW  Elec       q    Type
                         _______ _______ _______ _____ _____    ______ ____

>  <TORSDO>
F 6

$$$$
=
 OpenBabel11062416183D

 29 31  0  0  1  0  0  0  0  0999 V2000
  186.0620  179.1550  146.7320 C   0  0  0  0  0  2  0  0  0  0  0  0
  186.8940  177.5750  142.8780 C   0  0  0  0  0  0  0  0  0  0  0  0
  184.6500  178.5190  143.3820 C   0  0  0  0  0  0  0  0  0  0  0  0
  186.5770  177.4960  144.1940 C   0  0  0  0  0  0  0  0  0  0  0  0
  188.2420  177.1440  142.4560 C   0  0  2  0  0  3  0  0  0  0  0  0
  185.6400  178.2940  142.0230 S   0  0  0  0  0  0  0  0  0  0  0  0
  188.1070  178.1670  146.0240 C   0  0  2  0  0  3  0  0  0  0  0  0
  189.4340  177.9010  146.5580 N   0  0  0  0  0  1  0  0  0  0  0  0
  187.1830  178.3220  147.1440 N   0  0  0  0  0  2  0  0  0  0  0  0
  189.0120  176.4670  143.9770 S   0  0  0  0  0  0  0  0  0  0  0  0
  185.3170  178.0180  144.5120 C   0  0  0  0  0  0  0  0  0  0  0  0
  187.6520  177.0200  145.1020 C   0  0  2  0  0  3  0  0  0  0  0  0
  184.6970  178.0820  146.1940 S   0  0  0  0  0  0  0  0  0  0  0  0
  180.0750  178.4940  141.3220 C   0  0  0  0  0  1  0  0  0  0  0  0
  183.0590  180.1450  144.0640 O   0  0  0  0  0  0  0  0  0  0  0  0
  180.6030  180.1330  142.9560 O   0  0  0  0  0  0  0  0  0  0  0  0
  180.9990  179.1420  142.2880 C   0  0  0  0  0  0  0  0  0  0  0  0
  183.3200  179.1530  143.3320 C   0  0  0  0  0  0  0  0  0  0  0  0
  182.3260  178.6280  142.4430 N   0  0  0  0  0  2  0  0  0  0  0  0
  189.0610  178.3340  141.9830 C   0  0  0  0  0  2  0  0  0  0  0  0
  189.0620  178.4070  140.4660 C   0  0  0  0  0  2  0  0  0  0  0  0
  189.5670  176.6210  138.7340 C   0  0  0  0  0  0  0  0  0  0  0  0
  190.3390  175.7090  138.3350 O   0  0  0  0  0  0  0  0  0  0  0  0
  189.9020  177.3510  139.9180 N   0  0  0  0  0  2  0  0  0  0  0  0
  187.8470  175.7710  137.2470 N   0  0  0  0  0  1  0  0  0  0  0  0
  188.3280  176.9470  137.9540 C   0  0  2  0  0  3  0  0  0  0  0  0
  189.4260  177.8820  135.9230 O   0  0  0  0  0  0  0  0  0  0  0  0
  188.5720  178.0710  137.0010 C   0  0  0  0  0  0  0  0  0  0  0  0
  187.9880  179.1770  137.1500 O   0  0  0  0  0  1  0  0  0  0  0  0
  1  9  1  0  0  0  0
  2  4  2  0  0  0  0
  3 11  2  0  0  0  0
  4 11  1  0  0  0  0
  4 12  1  0  0  0  0
  5 20  1  1  0  0  0
  5  2  1  0  0  0  0
  5 10  1  0  0  0  0
  6  2  1  0  0  0  0
  6  3  1  0  0  0  0
  7  8  1  1  0  0  0
  7  9  1  0  0  0  0
 11 13  1  0  0  0  0
 12 10  1  6  0  0  0
 12  7  1  0  0  0  0
 13  1  1  0  0  0  0
 14 17  1  0  0  0  0
 17 19  1  0  0  0  0
 17 16  2  0  0  0  0
 18  3  1  0  0  0  0
 18 15  2  0  0  0  0
 19 18  1  0  0  0  0
 21 20  1  0  0  0  0
 22 24  1  0  0  0  0
 23 22  2  0  0  0  0
 24 21  1  0  0  0  0
 26 25  1  6  0  0  0
 26 22  1  0  0  0  0
 27 28  2  0  0  0  0
 28 29  1  0  0  0  0
 28 26  1  0  0  0  0
M  END
>  <MODEL>
5

>  <REMARK>
 VINA RESULT:      -6.5      3.865      6.866
  Name = 
  6 active torsions:
  status: ('A' for Active; 'I' for Inactive)
    1  A    between atoms: C_4  and  C_24
    2  A    between atoms: CA_8  and  C_13
    3  A    between atoms: CA_8  and  C_21
    4  A    between atoms: C_9  and  C_12
    5  A    between atoms: C_12  and  C_17
    6  A    between atoms: C_17  and  N_26
                            x       y       z     vdW  Elec       q    Type
                         _______ _______ _______ _____ _____    ______ ____

>  <TORSDO>
F 6

$$$$
=
 OpenBabel11062416183D

 29 31  0  0  1  0  0  0  0  0999 V2000
  185.5660  176.6740  137.6220 C   0  0  0  0  0  2  0  0  0  0  0  0
  188.4730  178.1960  140.3190 C   0  0  0  0  0  0  0  0  0  0  0  0
  186.0540  178.5720  140.7490 C   0  0  0  0  0  0  0  0  0  0  0  0
  187.7340  178.1990  139.1820 C   0  0  0  0  0  0  0  0  0  0  0  0
  189.9120  177.8800  140.2170 C   0  0  2  0  0  3  0  0  0  0  0  0
  187.4850  178.4540  141.6510 S   0  0  0  0  0  0  0  0  0  0  0  0
  187.9270  176.4790  137.4070 C   0  0  2  0  0  3  0  0  0  0  0  0
  188.8960  175.8690  136.5100 N   0  0  0  0  0  1  0  0  0  0  0  0
  186.6750  176.6620  136.6780 N   0  0  0  0  0  2  0  0  0  0  0  0
  190.2310  177.7340  138.4160 S   0  0  0  0  0  0  0  0  0  0  0  0
  186.3650  178.4100  139.3890 C   0  0  0  0  0  0  0  0  0  0  0  0
  188.4480  177.8300  137.9330 C   0  0  2  0  0  3  0  0  0  0  0  0
  185.1750  178.3980  138.0470 S   0  0  0  0  0  0  0  0  0  0  0  0
  183.3740  179.0020  144.9690 C   0  0  0  0  0  1  0  0  0  0  0  0
  183.7180  178.9790  140.6070 O   0  0  0  0  0  0  0  0  0  0  0  0
  182.2790  179.2060  142.8730 O   0  0  0  0  0  0  0  0  0  0  0  0
  183.3640  179.0160  143.4840 C   0  0  0  0  0  0  0  0  0  0  0  0
  184.7240  178.7980  141.3440 C   0  0  0  0  0  0  0  0  0  0  0  0
  184.5880  178.8120  142.7710 N   0  0  0  0  0  2  0  0  0  0  0  0
  190.2150  176.5440  140.8760 C   0  0  0  0  0  2  0  0  0  0  0  0
  191.3250  176.6980  141.9000 C   0  0  0  0  0  2  0  0  0  0  0  0
  190.6390  178.1210  143.8860 C   0  0  0  0  0  0  0  0  0  0  0  0
  190.5500  179.2690  144.3970 O   0  0  0  0  0  0  0  0  0  0  0  0
  191.2020  177.9800  142.5790 N   0  0  0  0  0  2  0  0  0  0  0  0
  188.7280  176.8820  144.7290 N   0  0  0  0  0  1  0  0  0  0  0  0
  190.1800  176.9200  144.6600 C   0  0  2  0  0  3  0  0  0  0  0  0
  192.0820  176.4780  146.2060 O   0  0  0  0  0  0  0  0  0  0  0  0
  190.7730  176.9050  146.0310 C   0  0  0  0  0  0  0  0  0  0  0  0
  190.1050  177.3010  147.0240 O   0  0  0  0  0  1  0  0  0  0  0  0
  1 13  1  0  0  0  0
  2  6  1  0  0  0  0
  3 18  1  0  0  0  0
  3  6  1  0  0  0  0
  4 11  1  0  0  0  0
  4  2  2  0  0  0  0
  5  2  1  0  0  0  0
  5 20  1  1  0  0  0
  7  8  1  6  0  0  0
  7 12  1  0  0  0  0
  9  7  1  0  0  0  0
  9  1  1  0  0  0  0
 10  5  1  0  0  0  0
 11  3  2  0  0  0  0
 12 10  1  1  0  0  0
 12  4  1  0  0  0  0
 13 11  1  0  0  0  0
 15 18  2  0  0  0  0
 16 17  2  0  0  0  0
 17 14  1  0  0  0  0
 18 19  1  0  0  0  0
 19 17  1  0  0  0  0
 20 21  1  0  0  0  0
 21 24  1  0  0  0  0
 22 23  2  0  0  0  0
 22 26  1  0  0  0  0
 24 22  1  0  0  0  0
 26 25  1  1  0  0  0
 26 28  1  0  0  0  0
 28 27  2  0  0  0  0
 28 29  1  0  0  0  0
M  END
>  <MODEL>
6

>  <REMARK>
 VINA RESULT:      -6.4      1.999      2.149
  Name = 
  6 active torsions:
  status: ('A' for Active; 'I' for Inactive)
    1  A    between atoms: C_4  and  C_24
    2  A    between atoms: CA_8  and  C_13
    3  A    between atoms: CA_8  and  C_21
    4  A    between atoms: C_9  and  C_12
    5  A    between atoms: C_12  and  C_17
    6  A    between atoms: C_17  and  N_26
                            x       y       z     vdW  Elec       q    Type
                         _______ _______ _______ _____ _____    ______ ____

>  <TORSDO>
F 6

$$$$
=
 OpenBabel11062416183D

 29 31  0  0  1  0  0  0  0  0999 V2000
  191.0770  177.9680  144.0220 C   0  0  0  0  0  2  0  0  0  0  0  0
  188.4210  177.5000  140.7410 C   0  0  0  0  0  0  0  0  0  0  0  0
  187.5240  177.8230  143.0360 C   0  0  0  0  0  0  0  0  0  0  0  0
  189.2730  177.0640  141.7010 C   0  0  0  0  0  0  0  0  0  0  0  0
  188.8730  177.4630  139.3350 C   0  0  2  0  0  3  0  0  0  0  0  0
  187.0270  178.1180  141.4420 S   0  0  0  0  0  0  0  0  0  0  0  0
  191.6900  177.6080  141.7530 C   0  0  2  0  0  3  0  0  0  0  0  0
  192.9000  177.5090  140.9500 N   0  0  0  0  0  1  0  0  0  0  0  0
  192.0340  177.3130  143.1400 N   0  0  0  0  0  2  0  0  0  0  0  0
  190.5100  176.6350  139.3940 S   0  0  0  0  0  0  0  0  0  0  0  0
  188.7970  177.2300  143.0080 C   0  0  0  0  0  0  0  0  0  0  0  0
  190.6170  176.6290  141.2410 C   0  0  2  0  0  3  0  0  0  0  0  0
  189.7660  176.7850  144.4510 S   0  0  0  0  0  0  0  0  0  0  0  0
  182.9830  178.9960  144.8200 C   0  0  0  0  0  1  0  0  0  0  0  0
  187.2560  178.2290  145.3610 O   0  0  0  0  0  0  0  0  0  0  0  0
  184.8190  178.8620  146.3180 O   0  0  0  0  0  0  0  0  0  0  0  0
  184.4160  178.7580  145.1290 C   0  0  0  0  0  0  0  0  0  0  0  0
  186.7180  178.1630  144.2230 C   0  0  0  0  0  0  0  0  0  0  0  0
  185.3160  178.4160  144.0700 N   0  0  0  0  0  2  0  0  0  0  0  0
  189.0590  178.8710  138.7950 C   0  0  0  0  0  2  0  0  0  0  0  0
  188.4430  178.9930  137.4120 C   0  0  0  0  0  2  0  0  0  0  0  0
  186.4000  177.6870  136.6620 C   0  0  0  0  0  0  0  0  0  0  0  0
  185.1580  177.4980  136.7600 O   0  0  0  0  0  0  0  0  0  0  0  0
  187.0200  178.6890  137.4720 N   0  0  0  0  0  2  0  0  0  0  0  0
  186.3900  176.3770  134.6180 N   0  0  0  0  0  1  0  0  0  0  0  0
  187.2120  176.8460  135.7220 C   0  0  2  0  0  3  0  0  0  0  0  0
  189.1980  175.4480  136.2750 O   0  0  0  0  0  0  0  0  0  0  0  0
  187.8410  175.6950  136.4360 C   0  0  0  0  0  0  0  0  0  0  0  0
  187.1590  174.9640  137.2030 O   0  0  0  0  0  1  0  0  0  0  0  0
  1 13  1  0  0  0  0
  2  6  1  0  0  0  0
  2  4  2  0  0  0  0
  3 18  1  0  0  0  0
  4 11  1  0  0  0  0
  5 20  1  1  0  0  0
  5 10  1  0  0  0  0
  5  2  1  0  0  0  0
  6  3  1  0  0  0  0
  7  8  1  6  0  0  0
  7  9  1  0  0  0  0
  9  1  1  0  0  0  0
 11  3  2  0  0  0  0
 11 13  1  0  0  0  0
 12 10  1  6  0  0  0
 12  4  1  0  0  0  0
 12  7  1  0  0  0  0
 14 17  1  0  0  0  0
 17 16  2  0  0  0  0
 18 15  2  0  0  0  0
 19 18  1  0  0  0  0
 19 17  1  0  0  0  0
 21 24  1  0  0  0  0
 21 20  1  0  0  0  0
 22 23  2  0  0  0  0
 22 24  1  0  0  0  0
 26 25  1  6  0  0  0
 26 28  1  0  0  0  0
 26 22  1  0  0  0  0
 27 28  2  0  0  0  0
 28 29  1  0  0  0  0
M  END
>  <MODEL>
7

>  <REMARK>
 VINA RESULT:      -6.4      3.474      7.148
  Name = 
  6 active torsions:
  status: ('A' for Active; 'I' for Inactive)
    1  A    between atoms: C_4  and  C_24
    2  A    between atoms: CA_8  and  C_13
    3  A    between atoms: CA_8  and  C_21
    4  A    between atoms: C_9  and  C_12
    5  A    between atoms: C_12  and  C_17
    6  A    between atoms: C_17  and  N_26
                            x       y       z     vdW  Elec       q    Type
                         _______ _______ _______ _____ _____    ______ ____

>  <TORSDO>
F 6

$$$$
=
 OpenBabel11062416183D

 29 31  0  0  1  0  0  0  0  0999 V2000
  185.4800  178.0790  140.3040 C   0  0  0  0  0  2  0  0  0  0  0  0
  189.6590  177.4440  139.8960 C   0  0  0  0  0  0  0  0  0  0  0  0
  188.6270  177.5470  142.1540 C   0  0  0  0  0  0  0  0  0  0  0  0
  188.5290  178.1920  139.9200 C   0  0  0  0  0  0  0  0  0  0  0  0
  190.3180  177.2130  138.5930 C   0  0  2  0  0  3  0  0  0  0  0  0
  189.9830  176.8340  141.4260 S   0  0  0  0  0  0  0  0  0  0  0  0
  186.6980  177.9820  138.2630 C   0  0  2  0  0  3  0  0  0  0  0  0
  186.4410  178.0450  136.8320 N   0  0  0  0  0  1  0  0  0  0  0  0
  185.5900  178.6280  138.9590 N   0  0  0  0  0  2  0  0  0  0  0  0
  189.3620  178.2310  137.4020 S   0  0  0  0  0  0  0  0  0  0  0  0
  187.9230  178.2720  141.1800 C   0  0  0  0  0  0  0  0  0  0  0  0
  188.0310  178.6740  138.6060 C   0  0  2  0  0  3  0  0  0  0  0  0
  186.3850  179.1550  141.4550 S   0  0  0  0  0  0  0  0  0  0  0  0
  190.3420  177.0900  146.8480 C   0  0  0  0  0  1  0  0  0  0  0  0
  187.0800  177.3280  143.9420 O   0  0  0  0  0  0  0  0  0  0  0  0
  188.0000  177.0790  146.4620 O   0  0  0  0  0  0  0  0  0  0  0  0
  189.1530  177.1580  145.9610 C   0  0  0  0  0  0  0  0  0  0  0  0
  188.2850  177.3910  143.5800 C   0  0  0  0  0  0  0  0  0  0  0  0
  189.3370  177.3130  144.5500 N   0  0  0  0  0  2  0  0  0  0  0  0
  190.2050  175.7530  138.1880 C   0  0  0  0  0  2  0  0  0  0  0  0
  191.5730  175.1940  137.8370 C   0  0  0  0  0  2  0  0  0  0  0  0
  193.7640  176.1050  136.9370 C   0  0  0  0  0  0  0  0  0  0  0  0
  194.3640  177.0210  136.3130 O   0  0  0  0  0  0  0  0  0  0  0  0
  192.3480  176.1920  137.1130 N   0  0  0  0  0  2  0  0  0  0  0  0
  194.9490  175.1610  138.8340 N   0  0  0  0  0  1  0  0  0  0  0  0
  194.5340  174.9290  137.4600 C   0  0  2  0  0  3  0  0  0  0  0  0
  196.9550  175.1650  136.9240 O   0  0  0  0  0  1  0  0  0  0  0  0
  195.7160  174.6310  136.5970 C   0  0  0  0  0  0  0  0  0  0  0  0
  195.6040  173.8780  135.5930 O   0  0  0  0  0  0  0  0  0  0  0  0
  1 13  1  0  0  0  0
  2  4  2  0  0  0  0
  2  6  1  0  0  0  0
  3 18  1  0  0  0  0
  4 11  1  0  0  0  0
  5 20  1  6  0  0  0
  5  2  1  0  0  0  0
  6  3  1  0  0  0  0
  7  8  1  6  0  0  0
  7 12  1  0  0  0  0
  7  9  1  0  0  0  0
  9  1  1  0  0  0  0
 10  5  1  0  0  0  0
 11 13  1  0  0  0  0
 11  3  2  0  0  0  0
 12 10  1  6  0  0  0
 12  4  1  0  0  0  0
 17 16  2  0  0  0  0
 17 14  1  0  0  0  0
 18 15  2  0  0  0  0
 18 19  1  0  0  0  0
 19 17  1  0  0  0  0
 21 20  1  0  0  0  0
 22 24  1  0  0  0  0
 22 26  1  0  0  0  0
 23 22  2  0  0  0  0
 24 21  1  0  0  0  0
 26 25  1  1  0  0  0
 28 27  1  0  0  0  0
 28 26  1  0  0  0  0
 29 28  2  0  0  0  0
M  END
>  <MODEL>
8

>  <REMARK>
 VINA RESULT:      -6.3      4.270      6.946
  Name = 
  6 active torsions:
  status: ('A' for Active; 'I' for Inactive)
    1  A    between atoms: C_4  and  C_24
    2  A    between atoms: CA_8  and  C_13
    3  A    between atoms: CA_8  and  C_21
    4  A    between atoms: C_9  and  C_12
    5  A    between atoms: C_12  and  C_17
    6  A    between atoms: C_17  and  N_26
                            x       y       z     vdW  Elec       q    Type
                         _______ _______ _______ _____ _____    ______ ____

>  <TORSDO>
F 6

$$$$
=
 OpenBabel11062416183D

 29 31  0  0  1  0  0  0  0  0999 V2000
  180.1130  177.5200  142.4330 C   0  0  0  0  0  2  0  0  0  0  0  0
  183.5130  178.9090  140.2990 C   0  0  0  0  0  0  0  0  0  0  0  0
  183.5180  178.8970  142.7850 C   0  0  0  0  0  0  0  0  0  0  0  0
  182.2680  179.0140  140.8250 C   0  0  0  0  0  0  0  0  0  0  0  0
  183.6460  178.7990  138.8320 C   0  0  2  0  0  3  0  0  0  0  0  0
  184.6530  178.8070  141.5270 S   0  0  0  0  0  0  0  0  0  0  0  0
  180.3310  177.6650  140.0680 C   0  0  2  0  0  3  0  0  0  0  0  0
  179.5580  177.3460  138.8780 N   0  0  0  0  0  1  0  0  0  0  0  0
  179.4090  177.8100  141.1910 N   0  0  0  0  0  2  0  0  0  0  0  0
  181.9380  179.0070  138.1930 S   0  0  0  0  0  0  0  0  0  0  0  0
  182.2350  179.0120  142.2250 C   0  0  0  0  0  0  0  0  0  0  0  0
  181.1390  178.9600  139.8600 C   0  0  2  0  0  3  0  0  0  0  0  0
  180.7010  179.0810  143.1540 S   0  0  0  0  0  0  0  0  0  0  0  0
  187.0260  177.7750  146.1930 C   0  0  0  0  0  1  0  0  0  0  0  0
  183.0420  179.2100  145.0900 O   0  0  0  0  0  0  0  0  0  0  0  0
  184.9240  178.6050  146.9200 O   0  0  0  0  0  0  0  0  0  0  0  0
  185.6500  178.2780  145.9450 C   0  0  0  0  0  0  0  0  0  0  0  0
  183.8730  178.8470  144.2150 C   0  0  0  0  0  0  0  0  0  0  0  0
  185.1730  178.3820  144.5990 N   0  0  0  0  0  2  0  0  0  0  0  0
  184.1470  177.4190  138.4420 C   0  0  0  0  0  2  0  0  0  0  0  0
  185.0250  177.5050  137.2050 C   0  0  0  0  0  2  0  0  0  0  0  0
  187.4010  176.6140  137.2800 C   0  0  0  0  0  0  0  0  0  0  0  0
  188.1680  175.6160  137.2520 O   0  0  0  0  0  0  0  0  0  0  0  0
  185.9870  176.4120  137.2020 N   0  0  0  0  0  2  0  0  0  0  0  0
  189.0500  178.2010  136.4670 N   0  0  0  0  0  1  0  0  0  0  0  0
  187.9740  177.9930  137.4230 C   0  0  2  0  0  3  0  0  0  0  0  0
  189.8030  178.0860  139.1110 O   0  0  0  0  0  0  0  0  0  0  0  0
  188.4550  178.2350  138.8160 C   0  0  0  0  0  0  0  0  0  0  0  0
  187.6540  178.6000  139.7180 O   0  0  0  0  0  1  0  0  0  0  0  0
  1 13  1  0  0  0  0
  2  4  2  0  0  0  0
  2  6  1  0  0  0  0
  3 18  1  0  0  0  0
  4 11  1  0  0  0  0
  5 20  1  1  0  0  0
  5  2  1  0  0  0  0
  6  3  1  0  0  0  0
  7  8  1  6  0  0  0
  7  9  1  0  0  0  0
  9  1  1  0  0  0  0
 10  5  1  0  0  0  0
 11  3  2  0  0  0  0
 11 13  1  0  0  0  0
 12 10  1  6  0  0  0
 12  7  1  0  0  0  0
 12  4  1  0  0  0  0
 17 14  1  0  0  0  0
 17 16  2  0  0  0  0
 18 19  1  0  0  0  0
 18 15  2  0  0  0  0
 19 17  1  0  0  0  0
 21 20  1  0  0  0  0
 22 26  1  0  0  0  0
 23 22  2  0  0  0  0
 24 21  1  0  0  0  0
 24 22  1  0  0  0  0
 26 25  1  6  0  0  0
 26 28  1  0  0  0  0
 28 27  2  0  0  0  0
 28 29  1  0  0  0  0
M  END
>  <MODEL>
9

>  <REMARK>
 VINA RESULT:      -6.2      4.214      7.921
  Name = 
  6 active torsions:
  status: ('A' for Active; 'I' for Inactive)
    1  A    between atoms: C_4  and  C_24
    2  A    between atoms: CA_8  and  C_13
    3  A    between atoms: CA_8  and  C_21
    4  A    between atoms: C_9  and  C_12
    5  A    between atoms: C_12  and  C_17
    6  A    between atoms: C_17  and  N_26
                            x       y       z     vdW  Elec       q    Type
                         _______ _______ _______ _____ _____    ______ ____

>  <TORSDO>
F 6

$$$$
