=
 OpenBabel11062416243D

 67 72  0  0  1  0  0  0  0  0999 V2000
  189.1290  177.3890  139.7960 C   0  0  1  0  0  3  0  0  0  0  0  0
  189.2280  179.3130  138.2970 F   0  0  0  0  0  0  0  0  0  0  0  0
  188.3810  178.5040  139.0410 C   0  0  1  0  0  3  0  0  0  0  0  0
  187.2210  177.9820  138.1960 C   0  0  0  0  0  0  0  0  0  0  0  0
  187.3340  176.6110  138.0440 F   0  0  0  0  0  0  0  0  0  0  0  0
  187.2130  178.5790  136.9480 F   0  0  0  0  0  0  0  0  0  0  0  0
  186.0280  178.2660  138.8310 F   0  0  0  0  0  0  0  0  0  0  0  0
  189.8130  176.3980  138.8590 C   0  0  0  0  0  2  0  0  0  0  0  0
  190.8740  177.0370  138.1040 N   0  0  0  0  0  2  0  0  0  0  0  0
  190.3730  177.1800  136.7460 C   0  0  0  0  0  2  0  0  0  0  0  0
  191.1460  176.3460  135.8380 N   0  0  0  0  0  2  0  0  0  0  0  0
  191.5660  175.1350  136.5450 C   0  0  1  0  0  3  0  0  0  0  0  0
  190.8080  173.9300  136.0730 C   0  0  0  0  0  0  0  0  0  0  0  0
  189.3510  171.6740  135.2400 C   0  0  0  0  0  0  0  0  0  0  0  0
  189.5480  173.6670  136.6160 C   0  0  0  0  0  3  0  0  0  0  0  0
  188.5210  170.2640  134.5940 Cl  0  0  0  0  0  0  0  0  0  0  0  0
  191.3420  173.0620  135.1160 C   0  0  0  0  0  3  0  0  0  0  0  0
  190.6140  171.9460  134.7010 C   0  0  0  0  0  3  0  0  0  0  0  0
  188.8050  172.5470  136.2210 C   0  0  0  0  0  0  0  0  0  0  0  0
  186.4470  172.9710  136.5280 C   0  0  0  0  0  0  0  0  0  0  0  0
  185.3940  173.5460  136.2180 O   0  0  0  0  0  0  0  0  0  0  0  0
  187.5230  172.3720  136.8480 N   0  0  0  0  0  0  0  0  0  0  0  0
  193.6670  175.9410  135.6540 O   0  0  0  0  0  1  0  0  0  0  0  0
  193.0770  174.9180  136.4080 C   0  0  1  0  0  3  0  0  0  0  0  0
  193.7420  174.7810  137.7740 C   0  0  2  0  0  3  0  0  0  0  0  0
  193.9500  176.0350  138.3560 O   0  0  0  0  0  1  0  0  0  0  0  0
  196.4670  174.8810  137.7290 O   0  0  0  0  0  0  0  0  0  0  0  0
  195.3280  173.8900  137.6340 P   0  0  1  0  0  0  0  0  0  0  0  0
  195.4590  172.7850  138.9080 O   0  0  0  0  0  1  0  0  0  0  0  0
  195.4450  173.0310  136.1050 N   0  0  0  0  0  0  0  0  0  0  0  0
  196.7200  173.3740  135.4970 C   0  0  0  0  0  1  0  0  0  0  0  0
  195.4830  171.6050  136.3980 C   0  0  0  0  0  2  0  0  0  0  0  0
  194.1830  169.7360  136.9610 C   0  0  0  0  0  1  0  0  0  0  0  0
  194.1420  171.0450  136.3240 N   0  0  0  0  0  2  0  0  0  0  0  0
  190.1070  177.9670  140.6080 O   0  0  0  0  0  0  0  0  0  0  0  0
  190.7570  175.6770  143.4820 C   0  0  0  0  0  1  0  0  0  0  0  0
  191.9210  177.4350  142.0630 C   0  0  0  0  0  2  0  0  0  0  0  0
  190.7420  176.8990  141.2560 C   0  0  1  0  0  3  0  0  0  0  0  0
  190.6530  177.0170  142.7750 C   0  0  1  0  0  0  0  0  0  0  0  0
  190.6130  179.0710  144.0670 F   0  0  0  0  0  0  0  0  0  0  0  0
  189.0940  178.7910  142.4110 O   0  0  0  0  0  1  0  0  0  0  0  0
  189.8090  178.1420  143.4230 C   0  0  1  0  0  0  0  0  0  0  0  0
  186.2400  177.5930  146.2430 C   0  0  0  0  0  1  0  0  0  0  0  0
  186.1840  178.1800  143.7840 C   0  0  2  0  0  0  0  0  0  0  0  0
  186.7540  178.5310  145.1600 C   0  0  2  0  0  3  0  0  0  0  0  0
  187.9430  176.4130  143.8820 C   0  0  0  0  0  2  0  0  0  0  0  0
  188.1710  178.5910  145.1760 O   0  0  0  0  0  0  0  0  0  0  0  0
  186.7630  176.9460  143.0770 C   0  0  2  0  0  3  0  0  0  0  0  0
  187.1660  177.2280  141.7680 O   0  0  0  0  0  1  0  0  0  0  0  0
  188.8320  177.5470  144.4550 C   0  0  2  0  0  3  0  0  0  0  0  0
  185.8820  179.3950  142.9280 C   0  0  0  0  0  2  0  0  0  0  0  0
  184.7340  178.5940  143.5320 C   0  0  1  0  0  3  0  0  0  0  0  0
  184.0680  177.7900  142.4210 C   0  0  0  0  0  2  0  0  0  0  0  0
  182.4290  180.4280  139.3900 O   0  0  0  0  0  1  0  0  0  0  0  0
  181.1650  179.0510  136.6470 O   0  0  0  0  0  1  0  0  0  0  0  0
  182.1050  179.0610  139.3760 C   0  0  1  0  0  0  0  0  0  0  0  0
  180.2020  177.1760  138.0520 O   0  0  0  0  0  1  0  0  0  0  0  0
  181.8930  178.8030  142.1810 O   0  0  0  0  0  0  0  0  0  0  0  0
  180.9810  179.5040  141.3420 C   0  0  0  0  0  2  0  0  0  0  0  0
  183.1440  178.1880  140.0720 C   0  0  1  0  0  3  0  0  0  0  0  0
  183.1800  178.6780  141.5640 C   0  0  2  0  0  3  0  0  0  0  0  0
  182.8360  176.8220  139.9820 O   0  0  0  0  0  1  0  0  0  0  0  0
  180.8550  178.6700  140.0820 C   0  0  1  0  0  3  0  0  0  0  0  0
  180.6920  178.7840  138.2490 P   0  0  0  0  0  0  0  0  0  0  0  0
  179.4430  179.9360  138.2930 O   0  0  0  0  0  0  0  0  0  0  0  0
  179.9770  182.0000  137.4920 O   0  0  0  0  0  1  0  0  0  0  0  0
  179.5930  180.7090  137.1400 C   0  0  0  0  0  2  0  0  0  0  0  0
  1  8  1  6  0  0  0
  1 35  1  0  0  0  0
  3  2  1  6  0  0  0
  3  1  1  0  0  0  0
  4  7  1  0  0  0  0
  4  3  1  0  0  0  0
  5  4  1  0  0  0  0
  6  4  1  0  0  0  0
  9  8  1  0  0  0  0
 10  9  1  0  0  0  0
 11 10  1  0  0  0  0
 12 11  1  6  0  0  0
 13 12  1  0  0  0  0
 13 15  1  0  0  0  0
 14 19  1  0  0  0  0
 16 14  1  0  0  0  0
 17 13  2  0  0  0  0
 18 17  1  0  0  0  0
 18 14  2  0  0  0  0
 19 15  2  0  0  0  0
 19 22  1  0  0  0  0
 20 22  2  0  0  0  0
 21 20  2  0  0  0  0
 24 23  1  1  0  0  0
 24 12  1  0  0  0  0
 24 25  1  0  0  0  0
 25 26  1  6  0  0  0
 28 27  2  1  0  0  0
 28 25  1  0  0  0  0
 28 29  1  0  0  0  0
 30 32  1  0  0  0  0
 30 28  1  0  0  0  0
 31 30  1  0  0  0  0
 34 32  1  0  0  0  0
 34 33  1  0  0  0  0
 37 39  1  0  0  0  0
 38 35  1  6  0  0  0
 38 37  1  0  0  0  0
 38 39  1  0  0  0  0
 39 42  1  0  0  0  0
 39 36  1  1  0  0  0
 42 41  1  6  0  0  0
 42 40  1  0  0  0  0
 44 51  1  6  0  0  0
 44 45  1  0  0  0  0
 45 47  1  0  0  0  0
 45 43  1  1  0  0  0
 46 50  1  0  0  0  0
 48 49  1  6  0  0  0
 48 44  1  0  0  0  0
 48 46  1  0  0  0  0
 50 42  1  6  0  0  0
 50 47  1  0  0  0  0
 51 52  1  0  0  0  0
 52 53  1  6  0  0  0
 52 44  1  0  0  0  0
 55 64  1  0  0  0  0
 56 54  1  1  0  0  0
 56 60  1  0  0  0  0
 56 63  1  0  0  0  0
 57 64  1  0  0  0  0
 59 58  1  0  0  0  0
 60 62  1  1  0  0  0
 60 61  1  0  0  0  0
 61 58  1  0  0  0  0
 61 53  1  1  0  0  0
 63 59  1  1  0  0  0
 64 65  1  0  0  0  0
 64 56  1  0  0  0  0
 64 63  1  0  0  0  0
 67 66  1  0  0  0  0
 67 65  1  0  0  0  0
M  END
>  <MODEL>
1

>  <REMARK>
 VINA RESULT:      -6.1      0.000      0.000
  Name = 
  23 active torsions:
  status: ('A' for Active; 'I' for Inactive)
    1  A    between atoms: C_4  and  P_37
    2  A    between atoms: C_4  and  C_57
    3  A    between atoms: C_8  and  C_21
    4  A    between atoms: O_10  and  C_49
    5  A    between atoms: O_10  and  P_58
    6  A    between atoms: N_11  and  C_19
    7  A    between atoms: C_19  and  N_43
    8  A    between atoms: C_20  and  C_28
    9  A    between atoms: C_20  and  C_55
   10  A    between atoms: C_21  and  C_57
   11  A    between atoms: C_21  and  N_59
   12  A    between atoms: C_29  and  C_45
   13  A    between atoms: O_34  and  C_40
   14  A    between atoms: O_34  and  C_55
   15  A    between atoms: P_37  and  N_43
   16  A    between atoms: C_41  and  C_61
   17  A    between atoms: C_45  and  C_60
   18  A    between atoms: N_46  and  C_67
   19  A    between atoms: N_47  and  C_50
   20  A    between atoms: N_47  and  C_54
   21  A    between atoms: C_50  and  C_55
   22  A    between atoms: C_54  and  N_59
   23  A    between atoms: C_61  and  C_66
                            x       y       z     vdW  Elec       q    Type
                         _______ _______ _______ _____ _____    ______ ____

>  <TORSDO>
F 23

$$$$
=
 OpenBabel11062416243D

 67 72  0  0  1  0  0  0  0  0999 V2000
  185.9500  177.9600  144.0680 C   0  0  1  0  0  3  0  0  0  0  0  0
  183.9690  179.1690  144.8260 F   0  0  0  0  0  0  0  0  0  0  0  0
  185.3140  178.9370  145.0760 C   0  0  1  0  0  3  0  0  0  0  0  0
  185.5510  178.5360  146.5300 C   0  0  0  0  0  0  0  0  0  0  0  0
  186.4780  177.5090  146.5870 F   0  0  0  0  0  0  0  0  0  0  0  0
  184.3740  178.1200  147.1250 F   0  0  0  0  0  0  0  0  0  0  0  0
  186.0420  179.6210  147.2290 F   0  0  0  0  0  0  0  0  0  0  0  0
  185.1810  177.8850  142.7530 C   0  0  0  0  0  2  0  0  0  0  0  0
  184.9960  179.2030  142.1770 N   0  0  0  0  0  2  0  0  0  0  0  0
  184.6820  178.9900  140.7730 C   0  0  0  0  0  2  0  0  0  0  0  0
  183.7470  177.8840  140.6330 N   0  0  0  0  0  2  0  0  0  0  0  0
  182.8990  178.1210  139.4650 C   0  0  1  0  0  3  0  0  0  0  0  0
  182.9980  176.9990  138.4740 C   0  0  0  0  0  0  0  0  0  0  0  0
  183.2360  174.9230  136.5930 C   0  0  0  0  0  0  0  0  0  0  0  0
  184.2100  176.7860  137.8110 C   0  0  0  0  0  3  0  0  0  0  0  0
  183.2690  173.5580  135.4830 Cl  0  0  0  0  0  0  0  0  0  0  0  0
  181.9040  176.1750  138.1940 C   0  0  0  0  0  3  0  0  0  0  0  0
  182.0270  175.1430  137.2630 C   0  0  0  0  0  3  0  0  0  0  0  0
  184.3510  175.7630  136.8650 C   0  0  0  0  0  0  0  0  0  0  0  0
  186.4770  174.6990  136.4350 C   0  0  0  0  0  0  0  0  0  0  0  0
  187.2950  173.7850  136.6150 O   0  0  0  0  0  0  0  0  0  0  0  0
  185.6400  175.6380  136.2400 N   0  0  0  0  0  0  0  0  0  0  0  0
  181.1420  177.6630  141.0640 O   0  0  0  0  0  1  0  0  0  0  0  0
  181.4430  178.3520  139.8830 C   0  0  1  0  0  3  0  0  0  0  0  0
  181.1350  179.8410  140.0160 C   0  0  2  0  0  3  0  0  0  0  0  0
  179.8460  180.0410  140.5170 O   0  0  0  0  0  1  0  0  0  0  0  0
  182.6340  181.4240  138.3780 O   0  0  0  0  0  1  0  0  0  0  0  0
  181.3150  180.6840  138.4080 P   0  0  1  0  0  0  0  0  0  0  0  0
  181.3090  179.5300  137.1720 O   0  0  0  0  0  0  0  0  0  0  0  0
  180.0100  181.8310  138.1400 N   0  0  0  0  0  0  0  0  0  0  0  0
  180.6010  183.0810  137.6910 C   0  0  0  0  0  1  0  0  0  0  0  0
  179.1950  181.3280  137.0420 C   0  0  0  0  0  2  0  0  0  0  0  0
  179.3950  181.1570  134.7120 C   0  0  0  0  0  1  0  0  0  0  0  0
  179.4710  182.0860  135.8310 N   0  0  0  0  0  2  0  0  0  0  0  0
  187.2530  178.3800  143.7880 O   0  0  0  0  0  0  0  0  0  0  0  0
  190.5020  176.5760  144.1350 C   0  0  0  0  0  1  0  0  0  0  0  0
  188.1490  176.2400  143.2330 C   0  0  0  0  0  2  0  0  0  0  0  0
  188.0900  177.3620  144.2650 C   0  0  1  0  0  3  0  0  0  0  0  0
  189.3260  177.1800  143.3880 C   0  0  1  0  0  0  0  0  0  0  0  0
  189.5310  179.4770  142.6320 F   0  0  0  0  0  0  0  0  0  0  0  0
  190.8900  177.9040  141.7330 O   0  0  0  0  0  1  0  0  0  0  0  0
  189.6020  178.1550  142.2170 C   0  0  1  0  0  0  0  0  0  0  0  0
  187.5280  178.1990  138.1330 C   0  0  0  0  0  1  0  0  0  0  0  0
  189.8590  177.3780  138.6680 C   0  0  2  0  0  0  0  0  0  0  0  0
  188.8640  178.5340  138.7800 C   0  0  2  0  0  3  0  0  0  0  0  0
  188.5160  176.4830  140.5720 C   0  0  0  0  0  2  0  0  0  0  0  0
  188.6790  178.9810  140.1140 O   0  0  0  0  0  0  0  0  0  0  0  0
  189.6430  176.1710  139.5920 C   0  0  2  0  0  3  0  0  0  0  0  0
  190.8030  175.8290  140.2920 O   0  0  0  0  0  1  0  0  0  0  0  0
  188.5700  177.9430  141.0930 C   0  0  2  0  0  3  0  0  0  0  0  0
  191.2870  177.8320  138.4370 C   0  0  0  0  0  2  0  0  0  0  0  0
  190.5090  177.1830  137.2970 C   0  0  1  0  0  3  0  0  0  0  0  0
  191.0460  175.7720  137.0870 C   0  0  0  0  0  2  0  0  0  0  0  0
  194.8380  176.7540  135.2190 O   0  0  0  0  0  1  0  0  0  0  0  0
  197.6200  175.7690  136.7360 O   0  0  0  0  0  1  0  0  0  0  0  0
  194.7830  175.7580  136.2090 C   0  0  1  0  0  0  0  0  0  0  0  0
  196.4860  173.5950  137.3700 O   0  0  0  0  0  1  0  0  0  0  0  0
  192.3180  174.6680  135.3620 O   0  0  0  0  0  0  0  0  0  0  0  0
  193.5550  174.5620  134.6640 C   0  0  0  0  0  2  0  0  0  0  0  0
  193.5960  175.9110  137.1540 C   0  0  1  0  0  3  0  0  0  0  0  0
  192.3160  175.7910  136.2520 C   0  0  2  0  0  3  0  0  0  0  0  0
  193.6030  174.9500  138.1750 O   0  0  0  0  0  1  0  0  0  0  0  0
  194.6140  174.3590  135.7300 C   0  0  1  0  0  3  0  0  0  0  0  0
  196.3420  174.8030  136.1930 P   0  0  0  0  0  0  0  0  0  0  0  0
  196.9940  174.4290  134.6690 O   0  0  0  0  0  0  0  0  0  0  0  0
  199.1140  174.1790  135.4650 O   0  0  0  0  0  1  0  0  0  0  0  0
  198.0240  173.5160  134.9060 C   0  0  0  0  0  2  0  0  0  0  0  0
  1  8  1  6  0  0  0
  1  3  1  0  0  0  0
  3  2  1  6  0  0  0
  3  4  1  0  0  0  0
  4  5  1  0  0  0  0
  4  6  1  0  0  0  0
  4  7  1  0  0  0  0
  9  8  1  0  0  0  0
 10  9  1  0  0  0  0
 11 10  1  0  0  0  0
 12 24  1  0  0  0  0
 12 11  1  1  0  0  0
 13 12  1  0  0  0  0
 14 19  2  0  0  0  0
 14 18  1  0  0  0  0
 15 13  2  0  0  0  0
 16 14  1  0  0  0  0
 17 13  1  0  0  0  0
 18 17  2  0  0  0  0
 19 15  1  0  0  0  0
 20 21  2  0  0  0  0
 22 20  2  0  0  0  0
 22 19  1  0  0  0  0
 24 25  1  0  0  0  0
 24 23  1  1  0  0  0
 25 26  1  6  0  0  0
 27 28  1  0  0  0  0
 28 29  2  6  0  0  0
 28 25  1  0  0  0  0
 30 28  1  0  0  0  0
 31 30  1  0  0  0  0
 32 30  1  0  0  0  0
 33 34  1  0  0  0  0
 34 32  1  0  0  0  0
 35  1  1  0  0  0  0
 37 39  1  0  0  0  0
 37 38  1  0  0  0  0
 38 35  1  6  0  0  0
 39 36  1  1  0  0  0
 39 38  1  0  0  0  0
 42 41  1  6  0  0  0
 42 40  1  0  0  0  0
 42 39  1  0  0  0  0
 44 51  1  1  0  0  0
 44 45  1  0  0  0  0
 44 48  1  0  0  0  0
 45 43  1  1  0  0  0
 45 47  1  0  0  0  0
 46 50  1  0  0  0  0
 47 50  1  0  0  0  0
 48 49  1  1  0  0  0
 48 46  1  0  0  0  0
 50 42  1  1  0  0  0
 52 53  1  1  0  0  0
 52 51  1  0  0  0  0
 52 44  1  0  0  0  0
 56 54  1  6  0  0  0
 56 60  1  0  0  0  0
 58 61  1  0  0  0  0
 59 58  1  0  0  0  0
 60 62  1  1  0  0  0
 61 53  1  1  0  0  0
 61 60  1  0  0  0  0
 63 59  1  6  0  0  0
 63 64  1  0  0  0  0
 63 56  1  0  0  0  0
 64 56  1  0  0  0  0
 64 55  1  0  0  0  0
 64 57  1  0  0  0  0
 65 67  1  0  0  0  0
 65 64  1  0  0  0  0
 67 66  1  0  0  0  0
M  END
>  <MODEL>
2

>  <REMARK>
 VINA RESULT:      -6.1      3.487     11.158
  Name = 
  23 active torsions:
  status: ('A' for Active; 'I' for Inactive)
    1  A    between atoms: C_4  and  P_37
    2  A    between atoms: C_4  and  C_57
    3  A    between atoms: C_8  and  C_21
    4  A    between atoms: O_10  and  C_49
    5  A    between atoms: O_10  and  P_58
    6  A    between atoms: N_11  and  C_19
    7  A    between atoms: C_19  and  N_43
    8  A    between atoms: C_20  and  C_28
    9  A    between atoms: C_20  and  C_55
   10  A    between atoms: C_21  and  C_57
   11  A    between atoms: C_21  and  N_59
   12  A    between atoms: C_29  and  C_45
   13  A    between atoms: O_34  and  C_40
   14  A    between atoms: O_34  and  C_55
   15  A    between atoms: P_37  and  N_43
   16  A    between atoms: C_41  and  C_61
   17  A    between atoms: C_45  and  C_60
   18  A    between atoms: N_46  and  C_67
   19  A    between atoms: N_47  and  C_50
   20  A    between atoms: N_47  and  C_54
   21  A    between atoms: C_50  and  C_55
   22  A    between atoms: C_54  and  N_59
   23  A    between atoms: C_61  and  C_66
                            x       y       z     vdW  Elec       q    Type
                         _______ _______ _______ _____ _____    ______ ____

>  <TORSDO>
F 23

$$$$
=
 OpenBabel11062416243D

 67 72  0  0  1  0  0  0  0  0999 V2000
  190.7900  177.0190  139.9710 C   0  0  1  0  0  3  0  0  0  0  0  0
  190.8040  177.7160  137.6310 F   0  0  0  0  0  0  0  0  0  0  0  0
  190.1730  177.8850  138.8560 C   0  0  1  0  0  3  0  0  0  0  0  0
  188.6600  177.7150  138.7330 C   0  0  0  0  0  0  0  0  0  0  0  0
  188.2680  177.9520  137.4260 F   0  0  0  0  0  0  0  0  0  0  0  0
  187.9970  178.5900  139.5730 F   0  0  0  0  0  0  0  0  0  0  0  0
  188.3160  176.4220  139.0770 F   0  0  0  0  0  0  0  0  0  0  0  0
  192.3120  176.9630  139.9020 C   0  0  0  0  0  2  0  0  0  0  0  0
  192.7750  176.9410  138.5270 N   0  0  0  0  0  2  0  0  0  0  0  0
  193.0530  175.5480  138.2170 C   0  0  0  0  0  2  0  0  0  0  0  0
  193.4640  175.4190  136.8270 N   0  0  0  0  0  2  0  0  0  0  0  0
  192.6840  174.3540  136.1960 C   0  0  1  0  0  3  0  0  0  0  0  0
  191.2970  174.8140  135.8550 C   0  0  0  0  0  0  0  0  0  0  0  0
  188.6760  175.6230  135.2410 C   0  0  0  0  0  0  0  0  0  0  0  0
  190.2090  174.2210  136.5000 C   0  0  0  0  0  3  0  0  0  0  0  0
  187.0930  176.2580  134.8070 Cl  0  0  0  0  0  0  0  0  0  0  0  0
  191.0740  175.8100  134.8990 C   0  0  0  0  0  3  0  0  0  0  0  0
  189.7720  176.2120  134.6000 C   0  0  0  0  0  3  0  0  0  0  0  0
  188.8930  174.6030  136.2070 C   0  0  0  0  0  0  0  0  0  0  0  0
  186.6650  174.3500  137.1040 C   0  0  0  0  0  0  0  0  0  0  0  0
  185.5060  174.7560  137.2760 O   0  0  0  0  0  0  0  0  0  0  0  0
  187.8500  173.9230  136.9270 N   0  0  0  0  0  0  0  0  0  0  0  0
  194.5980  174.5010  134.7230 O   0  0  0  0  0  1  0  0  0  0  0  0
  193.4000  173.8130  134.9540 C   0  0  1  0  0  3  0  0  0  0  0  0
  193.6360  172.3090  135.0630 C   0  0  2  0  0  3  0  0  0  0  0  0
  192.6260  171.6980  135.8100 O   0  0  0  0  0  1  0  0  0  0  0  0
  195.2450  170.5790  136.4250 O   0  0  0  0  0  1  0  0  0  0  0  0
  195.2620  171.9630  135.8150 P   0  0  1  0  0  0  0  0  0  0  0  0
  196.4520  172.0160  134.6140 O   0  0  0  0  0  0  0  0  0  0  0  0
  195.6470  173.1350  137.0680 N   0  0  0  0  0  0  0  0  0  0  0  0
  195.1930  172.5940  138.3390 C   0  0  0  0  0  1  0  0  0  0  0  0
  197.0980  173.2420  137.1460 C   0  0  0  0  0  2  0  0  0  0  0  0
  197.8780  175.0130  135.8220 C   0  0  0  0  0  1  0  0  0  0  0  0
  197.4920  174.6420  137.1770 N   0  0  0  0  0  2  0  0  0  0  0  0
  190.4290  177.5520  141.2110 O   0  0  0  0  0  0  0  0  0  0  0  0
  191.1750  176.2330  144.6220 C   0  0  0  0  0  1  0  0  0  0  0  0
  192.1060  177.8360  142.8840 C   0  0  0  0  0  2  0  0  0  0  0  0
  191.1900  176.8550  142.1590 C   0  0  1  0  0  3  0  0  0  0  0  0
  190.8760  177.3010  143.5850 C   0  0  1  0  0  0  0  0  0  0  0  0
  190.1930  179.4410  144.5040 F   0  0  0  0  0  0  0  0  0  0  0  0
  189.1820  178.6850  142.6240 O   0  0  0  0  0  1  0  0  0  0  0  0
  189.7300  178.3060  143.8540 C   0  0  1  0  0  0  0  0  0  0  0  0
  185.8520  177.5850  146.1850 C   0  0  0  0  0  1  0  0  0  0  0  0
  186.0880  178.2810  143.7650 C   0  0  2  0  0  0  0  0  0  0  0  0
  186.4780  178.5780  145.2150 C   0  0  2  0  0  3  0  0  0  0  0  0
  187.8540  176.5340  144.0040 C   0  0  0  0  0  2  0  0  0  0  0  0
  187.8810  178.6560  145.4090 O   0  0  0  0  0  0  0  0  0  0  0  0
  186.7720  177.0870  143.0830 C   0  0  2  0  0  3  0  0  0  0  0  0
  187.3270  177.4330  141.8480 O   0  0  0  0  0  1  0  0  0  0  0  0
  188.6450  177.6530  144.7310 C   0  0  2  0  0  3  0  0  0  0  0  0
  185.8710  179.5280  142.9320 C   0  0  0  0  0  2  0  0  0  0  0  0
  184.6720  178.6860  143.3540 C   0  0  1  0  0  3  0  0  0  0  0  0
  184.1630  177.9240  142.1360 C   0  0  0  0  0  2  0  0  0  0  0  0
  182.1570  180.5090  139.2850 O   0  0  0  0  0  1  0  0  0  0  0  0
  180.9030  179.1220  136.5420 O   0  0  0  0  0  1  0  0  0  0  0  0
  181.9590  179.1190  139.2280 C   0  0  1  0  0  0  0  0  0  0  0  0
  180.1780  177.1160  137.9070 O   0  0  0  0  0  1  0  0  0  0  0  0
  181.8970  178.7390  142.0260 O   0  0  0  0  0  0  0  0  0  0  0  0
  180.8880  179.3830  141.2550 C   0  0  0  0  0  2  0  0  0  0  0  0
  183.1030  178.3210  139.8450 C   0  0  1  0  0  3  0  0  0  0  0  0
  183.1610  178.7570  141.3530 C   0  0  2  0  0  3  0  0  0  0  0  0
  182.9170  176.9370  139.7120 O   0  0  0  0  0  1  0  0  0  0  0  0
  180.7820  178.5870  139.9680 C   0  0  1  0  0  3  0  0  0  0  0  0
  180.5280  178.7540  138.1500 P   0  0  0  0  0  0  0  0  0  0  0  0
  179.1820  179.7820  138.2920 O   0  0  0  0  0  0  0  0  0  0  0  0
  179.2900  181.6500  136.9930 O   0  0  0  0  0  1  0  0  0  0  0  0
  178.9570  180.2980  137.0140 C   0  0  0  0  0  2  0  0  0  0  0  0
  1  8  1  6  0  0  0
  1 35  1  0  0  0  0
  3  2  1  6  0  0  0
  3  1  1  0  0  0  0
  4  3  1  0  0  0  0
  4  7  1  0  0  0  0
  4  6  1  0  0  0  0
  5  4  1  0  0  0  0
  9  8  1  0  0  0  0
 10  9  1  0  0  0  0
 11 10  1  0  0  0  0
 12 11  1  6  0  0  0
 13 12  1  0  0  0  0
 13 15  1  0  0  0  0
 14 19  1  0  0  0  0
 16 14  1  0  0  0  0
 17 13  2  0  0  0  0
 18 17  1  0  0  0  0
 18 14  2  0  0  0  0
 19 15  2  0  0  0  0
 19 22  1  0  0  0  0
 20 21  2  0  0  0  0
 22 20  2  0  0  0  0
 24 23  1  1  0  0  0
 24 25  1  0  0  0  0
 24 12  1  0  0  0  0
 25 26  1  1  0  0  0
 25 28  1  0  0  0  0
 28 29  2  6  0  0  0
 28 27  1  0  0  0  0
 28 30  1  0  0  0  0
 30 32  1  0  0  0  0
 30 31  1  0  0  0  0
 32 34  1  0  0  0  0
 33 34  1  0  0  0  0
 37 39  1  0  0  0  0
 38 35  1  6  0  0  0
 38 37  1  0  0  0  0
 38 39  1  0  0  0  0
 39 42  1  0  0  0  0
 39 36  1  1  0  0  0
 42 41  1  6  0  0  0
 42 40  1  0  0  0  0
 44 51  1  6  0  0  0
 44 45  1  0  0  0  0
 45 47  1  0  0  0  0
 45 43  1  1  0  0  0
 46 50  1  0  0  0  0
 48 49  1  6  0  0  0
 48 44  1  0  0  0  0
 48 46  1  0  0  0  0
 50 42  1  6  0  0  0
 50 47  1  0  0  0  0
 51 52  1  0  0  0  0
 52 53  1  6  0  0  0
 52 44  1  0  0  0  0
 55 64  1  0  0  0  0
 56 54  1  1  0  0  0
 56 60  1  0  0  0  0
 56 63  1  0  0  0  0
 57 64  1  0  0  0  0
 59 58  1  0  0  0  0
 60 62  1  1  0  0  0
 60 61  1  0  0  0  0
 61 58  1  0  0  0  0
 61 53  1  1  0  0  0
 63 59  1  1  0  0  0
 64 65  1  0  0  0  0
 64 56  1  0  0  0  0
 64 63  1  0  0  0  0
 66 67  1  0  0  0  0
 67 65  1  0  0  0  0
M  END
>  <MODEL>
3

>  <REMARK>
 VINA RESULT:      -5.9      1.709      2.290
  Name = 
  23 active torsions:
  status: ('A' for Active; 'I' for Inactive)
    1  A    between atoms: C_4  and  P_37
    2  A    between atoms: C_4  and  C_57
    3  A    between atoms: C_8  and  C_21
    4  A    between atoms: O_10  and  C_49
    5  A    between atoms: O_10  and  P_58
    6  A    between atoms: N_11  and  C_19
    7  A    between atoms: C_19  and  N_43
    8  A    between atoms: C_20  and  C_28
    9  A    between atoms: C_20  and  C_55
   10  A    between atoms: C_21  and  C_57
   11  A    between atoms: C_21  and  N_59
   12  A    between atoms: C_29  and  C_45
   13  A    between atoms: O_34  and  C_40
   14  A    between atoms: O_34  and  C_55
   15  A    between atoms: P_37  and  N_43
   16  A    between atoms: C_41  and  C_61
   17  A    between atoms: C_45  and  C_60
   18  A    between atoms: N_46  and  C_67
   19  A    between atoms: N_47  and  C_50
   20  A    between atoms: N_47  and  C_54
   21  A    between atoms: C_50  and  C_55
   22  A    between atoms: C_54  and  N_59
   23  A    between atoms: C_61  and  C_66
                            x       y       z     vdW  Elec       q    Type
                         _______ _______ _______ _____ _____    ______ ____

>  <TORSDO>
F 23

$$$$
=
 OpenBabel11062416243D

 67 72  0  0  1  0  0  0  0  0999 V2000
  191.6640  176.6810  142.6170 C   0  0  1  0  0  3  0  0  0  0  0  0
  190.1960  174.7540  142.9140 F   0  0  0  0  0  0  0  0  0  0  0  0
  191.0720  175.6150  143.5590 C   0  0  1  0  0  3  0  0  0  0  0  0
  192.1370  174.8480  144.3390 C   0  0  0  0  0  0  0  0  0  0  0  0
  193.3690  175.0020  143.7260 F   0  0  0  0  0  0  0  0  0  0  0  0
  191.8260  173.5020  144.4040 F   0  0  0  0  0  0  0  0  0  0  0  0
  192.2100  175.3480  145.6250 F   0  0  0  0  0  0  0  0  0  0  0  0
  191.3730  176.3990  141.1470 C   0  0  0  0  0  2  0  0  0  0  0  0
  191.1630  177.6280  140.4070 N   0  0  0  0  0  2  0  0  0  0  0  0
  190.7990  177.2310  139.0570 C   0  0  0  0  0  2  0  0  0  0  0  0
  191.2800  175.8840  138.7870 N   0  0  0  0  0  2  0  0  0  0  0  0
  191.5090  175.7390  137.3490 C   0  0  1  0  0  3  0  0  0  0  0  0
  192.9050  175.2720  137.0570 C   0  0  0  0  0  0  0  0  0  0  0  0
  195.5240  174.4380  136.4640 C   0  0  0  0  0  0  0  0  0  0  0  0
  193.7460  176.0860  136.2950 C   0  0  0  0  0  3  0  0  0  0  0  0
  197.1540  173.8260  136.2110 Cl  0  0  0  0  0  0  0  0  0  0  0  0
  193.3720  174.0380  137.5210 C   0  0  0  0  0  3  0  0  0  0  0  0
  194.6740  173.6300  137.2280 C   0  0  0  0  0  3  0  0  0  0  0  0
  195.0530  175.6900  135.9810 C   0  0  0  0  0  0  0  0  0  0  0  0
  195.7990  177.8730  135.2650 C   0  0  0  0  0  0  0  0  0  0  0  0
  195.7790  179.1100  135.3400 O   0  0  0  0  0  0  0  0  0  0  0  0
  195.8290  176.6040  135.1870 N   0  0  0  0  0  0  0  0  0  0  0  0
  189.6870  174.1870  137.7060 O   0  0  0  0  0  1  0  0  0  0  0  0
  190.4760  174.7960  136.7220 C   0  0  1  0  0  3  0  0  0  0  0  0
  189.6160  175.5240  135.6930 C   0  0  2  0  0  3  0  0  0  0  0  0
  190.1100  176.8090  135.4500 O   0  0  0  0  0  1  0  0  0  0  0  0
  187.8480  176.0400  137.7030 O   0  0  0  0  0  1  0  0  0  0  0  0
  187.8820  175.6190  136.2510 P   0  0  1  0  0  0  0  0  0  0  0  0
  187.0650  176.7760  135.3270 O   0  0  0  0  0  0  0  0  0  0  0  0
  187.0730  174.0670  136.0870 N   0  0  0  0  0  0  0  0  0  0  0  0
  185.6890  174.3230  135.7220 C   0  0  0  0  0  1  0  0  0  0  0  0
  187.6840  173.3630  134.9680 C   0  0  0  0  0  2  0  0  0  0  0  0
  187.4430  171.0980  135.5280 C   0  0  0  0  0  1  0  0  0  0  0  0
  188.4020  172.1920  135.4490 N   0  0  0  0  0  2  0  0  0  0  0  0
  191.1160  177.9260  142.9380 O   0  0  0  0  0  0  0  0  0  0  0  0
  190.0760  177.8540  146.5220 C   0  0  0  0  0  1  0  0  0  0  0  0
  190.8560  179.4790  144.7300 C   0  0  0  0  0  2  0  0  0  0  0  0
  191.3150  178.0840  144.3160 C   0  0  1  0  0  3  0  0  0  0  0  0
  189.9990  178.2780  145.0660 C   0  0  1  0  0  0  0  0  0  0  0  0
  188.3370  179.3150  143.6340 F   0  0  0  0  0  0  0  0  0  0  0  0
  188.7560  177.1030  143.3970 O   0  0  0  0  0  1  0  0  0  0  0  0
  188.6490  178.1500  144.3180 C   0  0  1  0  0  0  0  0  0  0  0  0
  184.7950  178.4960  146.7710 C   0  0  0  0  0  1  0  0  0  0  0  0
  185.0410  178.6470  144.2590 C   0  0  2  0  0  0  0  0  0  0  0  0
  185.5210  179.1690  145.6140 C   0  0  2  0  0  3  0  0  0  0  0  0
  186.5450  176.7420  144.8400 C   0  0  0  0  0  2  0  0  0  0  0  0
  186.9270  179.0750  145.7800 O   0  0  0  0  0  0  0  0  0  0  0  0
  185.5210  177.2520  143.8320 C   0  0  2  0  0  3  0  0  0  0  0  0
  186.0750  177.2550  142.5480 O   0  0  0  0  0  1  0  0  0  0  0  0
  187.5140  177.8550  145.3170 C   0  0  2  0  0  3  0  0  0  0  0  0
  184.9750  179.7190  143.1890 C   0  0  0  0  0  2  0  0  0  0  0  0
  183.6840  179.1660  143.7820 C   0  0  1  0  0  3  0  0  0  0  0  0
  183.0270  178.2580  142.7490 C   0  0  0  0  0  2  0  0  0  0  0  0
  182.4600  180.5080  139.0820 O   0  0  0  0  0  1  0  0  0  0  0  0
  181.7350  178.8210  136.3170 O   0  0  0  0  0  1  0  0  0  0  0  0
  181.9970  179.1850  139.1680 C   0  0  1  0  0  0  0  0  0  0  0  0
  180.2610  177.2680  137.6710 O   0  0  0  0  0  1  0  0  0  0  0  0
  181.0990  179.3850  141.8390 O   0  0  0  0  0  0  0  0  0  0  0  0
  180.4970  180.0140  140.7130 C   0  0  0  0  0  2  0  0  0  0  0  0
  182.7360  178.3540  140.2120 C   0  0  1  0  0  3  0  0  0  0  0  0
  182.4740  179.0660  141.5870 C   0  0  2  0  0  3  0  0  0  0  0  0
  182.3070  177.0190  140.2290 O   0  0  0  0  0  1  0  0  0  0  0  0
  180.5800  179.0060  139.5830 C   0  0  1  0  0  3  0  0  0  0  0  0
  180.8690  178.8450  137.7700 P   0  0  0  0  0  0  0  0  0  0  0  0
  179.7830  180.0820  137.3460 O   0  0  0  0  0  0  0  0  0  0  0  0
  180.3080  182.2000  136.6940 O   0  0  0  0  0  1  0  0  0  0  0  0
  180.4350  180.8500  136.3790 C   0  0  0  0  0  2  0  0  0  0  0  0
  1  8  1  6  0  0  0
  1 35  1  0  0  0  0
  1  3  1  0  0  0  0
  3  2  1  6  0  0  0
  3  4  1  0  0  0  0
  4  6  1  0  0  0  0
  4  7  1  0  0  0  0
  5  4  1  0  0  0  0
  9  8  1  0  0  0  0
 10  9  1  0  0  0  0
 11 10  1  0  0  0  0
 12 11  1  1  0  0  0
 13 12  1  0  0  0  0
 13 17  1  0  0  0  0
 14 18  1  0  0  0  0
 15 13  2  0  0  0  0
 16 14  1  0  0  0  0
 18 17  2  0  0  0  0
 19 15  1  0  0  0  0
 19 14  2  0  0  0  0
 20 21  2  0  0  0  0
 22 20  2  0  0  0  0
 22 19  1  0  0  0  0
 24 12  1  0  0  0  0
 24 23  1  1  0  0  0
 25 26  1  1  0  0  0
 25 28  1  0  0  0  0
 25 24  1  0  0  0  0
 28 29  2  6  0  0  0
 28 27  1  0  0  0  0
 30 28  1  0  0  0  0
 31 30  1  0  0  0  0
 32 34  1  0  0  0  0
 32 30  1  0  0  0  0
 34 33  1  0  0  0  0
 37 39  1  0  0  0  0
 38 35  1  6  0  0  0
 38 37  1  0  0  0  0
 38 39  1  0  0  0  0
 39 36  1  1  0  0  0
 40 42  1  0  0  0  0
 42 41  1  6  0  0  0
 42 39  1  0  0  0  0
 44 51  1  6  0  0  0
 44 45  1  0  0  0  0
 45 47  1  0  0  0  0
 45 43  1  1  0  0  0
 46 50  1  0  0  0  0
 48 49  1  6  0  0  0
 48 44  1  0  0  0  0
 48 46  1  0  0  0  0
 50 42  1  6  0  0  0
 50 47  1  0  0  0  0
 51 52  1  0  0  0  0
 52 53  1  6  0  0  0
 52 44  1  0  0  0  0
 55 64  1  0  0  0  0
 56 54  1  1  0  0  0
 56 63  1  0  0  0  0
 56 60  1  0  0  0  0
 57 64  1  0  0  0  0
 59 58  1  0  0  0  0
 60 62  1  1  0  0  0
 60 61  1  0  0  0  0
 61 58  1  0  0  0  0
 61 53  1  1  0  0  0
 63 59  1  6  0  0  0
 64 56  1  0  0  0  0
 64 63  1  0  0  0  0
 65 64  1  0  0  0  0
 67 66  1  0  0  0  0
 67 65  1  0  0  0  0
M  END
>  <MODEL>
4

>  <REMARK>
 VINA RESULT:      -5.0      2.987      5.192
  Name = 
  23 active torsions:
  status: ('A' for Active; 'I' for Inactive)
    1  A    between atoms: C_4  and  P_37
    2  A    between atoms: C_4  and  C_57
    3  A    between atoms: C_8  and  C_21
    4  A    between atoms: O_10  and  C_49
    5  A    between atoms: O_10  and  P_58
    6  A    between atoms: N_11  and  C_19
    7  A    between atoms: C_19  and  N_43
    8  A    between atoms: C_20  and  C_28
    9  A    between atoms: C_20  and  C_55
   10  A    between atoms: C_21  and  C_57
   11  A    between atoms: C_21  and  N_59
   12  A    between atoms: C_29  and  C_45
   13  A    between atoms: O_34  and  C_40
   14  A    between atoms: O_34  and  C_55
   15  A    between atoms: P_37  and  N_43
   16  A    between atoms: C_41  and  C_61
   17  A    between atoms: C_45  and  C_60
   18  A    between atoms: N_46  and  C_67
   19  A    between atoms: N_47  and  C_50
   20  A    between atoms: N_47  and  C_54
   21  A    between atoms: C_50  and  C_55
   22  A    between atoms: C_54  and  N_59
   23  A    between atoms: C_61  and  C_66
                            x       y       z     vdW  Elec       q    Type
                         _______ _______ _______ _____ _____    ______ ____

>  <TORSDO>
F 23

$$$$
=
 OpenBabel11062416243D

 67 72  0  0  1  0  0  0  0  0999 V2000
  191.7350  176.8120  142.8870 C   0  0  1  0  0  3  0  0  0  0  0  0
  190.3740  174.8000  142.6450 F   0  0  0  0  0  0  0  0  0  0  0  0
  191.0800  175.5840  143.5470 C   0  0  1  0  0  3  0  0  0  0  0  0
  192.0620  174.7470  144.3640 C   0  0  0  0  0  0  0  0  0  0  0  0
  192.1850  175.2810  145.6360 F   0  0  0  0  0  0  0  0  0  0  0  0
  193.3060  174.7180  143.7600 F   0  0  0  0  0  0  0  0  0  0  0  0
  191.5880  173.4540  144.4640 F   0  0  0  0  0  0  0  0  0  0  0  0
  191.7130  176.7460  141.3630 C   0  0  0  0  0  2  0  0  0  0  0  0
  190.4550  177.2380  140.8350 N   0  0  0  0  0  2  0  0  0  0  0  0
  190.6330  177.3410  139.3950 C   0  0  0  0  0  2  0  0  0  0  0  0
  190.6560  176.0130  138.7990 N   0  0  0  0  0  2  0  0  0  0  0  0
  190.9580  176.1370  137.3720 C   0  0  1  0  0  3  0  0  0  0  0  0
  192.3830  175.7720  137.0760 C   0  0  0  0  0  0  0  0  0  0  0  0
  195.0590  175.0660  136.5800 C   0  0  0  0  0  0  0  0  0  0  0  0
  193.0370  174.8630  137.9130 C   0  0  0  0  0  3  0  0  0  0  0  0
  196.7120  174.6660  136.1280 Cl  0  0  0  0  0  0  0  0  0  0  0  0
  193.0690  176.3300  135.9930 C   0  0  0  0  0  3  0  0  0  0  0  0
  194.3940  175.9740  135.7480 C   0  0  0  0  0  3  0  0  0  0  0  0
  194.3710  174.5000  137.6900 C   0  0  0  0  0  0  0  0  0  0  0  0
  195.2410  172.3500  138.3640 C   0  0  0  0  0  0  0  0  0  0  0  0
  195.5350  171.1700  138.1250 O   0  0  0  0  0  0  0  0  0  0  0  0
  194.9470  173.5620  138.6150 N   0  0  0  0  0  0  0  0  0  0  0  0
  189.0160  174.6940  137.3400 O   0  0  0  0  0  1  0  0  0  0  0  0
  189.9930  175.2920  136.5340 C   0  0  1  0  0  3  0  0  0  0  0  0
  189.3620  176.1190  135.4170 C   0  0  2  0  0  3  0  0  0  0  0  0
  189.8520  177.4280  135.4280 O   0  0  0  0  0  1  0  0  0  0  0  0
  186.9680  177.1330  134.5950 O   0  0  0  0  0  0  0  0  0  0  0  0
  187.5440  176.1340  135.5730 P   0  0  1  0  0  0  0  0  0  0  0  0
  186.9420  174.5970  135.2010 O   0  0  0  0  0  1  0  0  0  0  0  0
  187.0470  176.5750  137.2000 N   0  0  0  0  0  0  0  0  0  0  0  0
  187.0730  178.0250  137.2960 C   0  0  0  0  0  1  0  0  0  0  0  0
  185.6600  176.1630  137.3680 C   0  0  0  0  0  2  0  0  0  0  0  0
  183.4350  176.5820  136.7540 C   0  0  0  0  0  1  0  0  0  0  0  0
  184.7710  177.1610  136.7920 N   0  0  0  0  0  2  0  0  0  0  0  0
  191.0480  177.9620  143.2830 O   0  0  0  0  0  0  0  0  0  0  0  0
  189.8300  177.5310  146.7840 C   0  0  0  0  0  1  0  0  0  0  0  0
  190.6090  179.3410  145.1790 C   0  0  0  0  0  2  0  0  0  0  0  0
  191.1660  178.0120  144.6780 C   0  0  1  0  0  3  0  0  0  0  0  0
  189.8040  178.0730  145.3660 C   0  0  1  0  0  0  0  0  0  0  0  0
  188.2850  179.0640  143.7550 F   0  0  0  0  0  0  0  0  0  0  0  0
  188.6330  176.8270  143.6960 O   0  0  0  0  0  1  0  0  0  0  0  0
  188.5050  177.9390  144.5360 C   0  0  1  0  0  0  0  0  0  0  0  0
  184.5510  178.6260  146.7470 C   0  0  0  0  0  1  0  0  0  0  0  0
  184.9540  178.7030  144.2520 C   0  0  2  0  0  0  0  0  0  0  0  0
  185.3930  179.2170  145.6240 C   0  0  2  0  0  3  0  0  0  0  0  0
  186.2720  176.7040  144.9550 C   0  0  0  0  0  2  0  0  0  0  0  0
  186.7760  179.0220  145.8760 O   0  0  0  0  0  0  0  0  0  0  0  0
  185.3510  177.2680  143.8780 C   0  0  2  0  0  3  0  0  0  0  0  0
  185.9780  177.2010  142.6300 O   0  0  0  0  0  1  0  0  0  0  0  0
  187.2940  177.7520  145.4700 C   0  0  2  0  0  3  0  0  0  0  0  0
  185.0340  179.7540  143.1610 C   0  0  0  0  0  2  0  0  0  0  0  0
  183.6710  179.3120  143.6850 C   0  0  1  0  0  3  0  0  0  0  0  0
  183.0080  178.4340  142.6310 C   0  0  0  0  0  2  0  0  0  0  0  0
  182.0160  180.9170  139.2130 O   0  0  0  0  0  1  0  0  0  0  0  0
  181.2770  179.4040  136.3530 O   0  0  0  0  0  1  0  0  0  0  0  0
  181.6800  179.5530  139.2060 C   0  0  1  0  0  0  0  0  0  0  0  0
  180.0350  177.6110  137.6410 O   0  0  0  0  0  1  0  0  0  0  0  0
  180.9350  179.4440  141.9290 O   0  0  0  0  0  0  0  0  0  0  0  0
  180.2090  180.1040  140.8970 C   0  0  0  0  0  2  0  0  0  0  0  0
  182.5540  178.7120  140.1310 C   0  0  1  0  0  3  0  0  0  0  0  0
  182.3140  179.2800  141.5760 C   0  0  2  0  0  3  0  0  0  0  0  0
  182.2490  177.3450  140.0540 O   0  0  0  0  0  1  0  0  0  0  0  0
  180.3130  179.2060  139.6800 C   0  0  1  0  0  3  0  0  0  0  0  0
  180.5030  179.2250  137.8470 P   0  0  0  0  0  0  0  0  0  0  0  0
  179.2860  180.3830  137.5930 O   0  0  0  0  0  0  0  0  0  0  0  0
  179.5830  182.3870  136.5510 O   0  0  0  0  0  1  0  0  0  0  0  0
  179.5950  181.0050  136.3810 C   0  0  0  0  0  2  0  0  0  0  0  0
  1  8  1  6  0  0  0
  1 35  1  0  0  0  0
  1  3  1  0  0  0  0
  3  2  1  6  0  0  0
  3  4  1  0  0  0  0
  4  7  1  0  0  0  0
  4  5  1  0  0  0  0
  6  4  1  0  0  0  0
  9  8  1  0  0  0  0
 10  9  1  0  0  0  0
 11 10  1  0  0  0  0
 12 11  1  1  0  0  0
 13 12  1  0  0  0  0
 13 15  1  0  0  0  0
 14 19  1  0  0  0  0
 16 14  1  0  0  0  0
 17 13  2  0  0  0  0
 18 17  1  0  0  0  0
 18 14  2  0  0  0  0
 19 15  2  0  0  0  0
 19 22  1  0  0  0  0
 20 22  2  0  0  0  0
 21 20  2  0  0  0  0
 24 23  1  1  0  0  0
 24 12  1  0  0  0  0
 25 26  1  1  0  0  0
 25 28  1  0  0  0  0
 25 24  1  0  0  0  0
 28 27  2  6  0  0  0
 28 30  1  0  0  0  0
 29 28  1  0  0  0  0
 30 31  1  0  0  0  0
 30 32  1  0  0  0  0
 33 34  1  0  0  0  0
 34 32  1  0  0  0  0
 37 39  1  0  0  0  0
 38 35  1  6  0  0  0
 38 37  1  0  0  0  0
 38 39  1  0  0  0  0
 39 36  1  1  0  0  0
 40 42  1  0  0  0  0
 42 41  1  6  0  0  0
 42 39  1  0  0  0  0
 44 51  1  6  0  0  0
 44 45  1  0  0  0  0
 45 47  1  0  0  0  0
 45 43  1  1  0  0  0
 46 50  1  0  0  0  0
 48 49  1  6  0  0  0
 48 44  1  0  0  0  0
 48 46  1  0  0  0  0
 50 42  1  6  0  0  0
 50 47  1  0  0  0  0
 51 52  1  0  0  0  0
 52 53  1  6  0  0  0
 52 44  1  0  0  0  0
 55 64  1  0  0  0  0
 56 54  1  1  0  0  0
 56 63  1  0  0  0  0
 56 60  1  0  0  0  0
 57 64  1  0  0  0  0
 59 58  1  0  0  0  0
 60 62  1  1  0  0  0
 60 61  1  0  0  0  0
 61 58  1  0  0  0  0
 61 53  1  1  0  0  0
 63 59  1  6  0  0  0
 64 56  1  0  0  0  0
 64 63  1  0  0  0  0
 65 64  1  0  0  0  0
 67 66  1  0  0  0  0
 67 65  1  0  0  0  0
M  END
>  <MODEL>
5

>  <REMARK>
 VINA RESULT:      -5.0      2.915      5.512
  Name = 
  23 active torsions:
  status: ('A' for Active; 'I' for Inactive)
    1  A    between atoms: C_4  and  P_37
    2  A    between atoms: C_4  and  C_57
    3  A    between atoms: C_8  and  C_21
    4  A    between atoms: O_10  and  C_49
    5  A    between atoms: O_10  and  P_58
    6  A    between atoms: N_11  and  C_19
    7  A    between atoms: C_19  and  N_43
    8  A    between atoms: C_20  and  C_28
    9  A    between atoms: C_20  and  C_55
   10  A    between atoms: C_21  and  C_57
   11  A    between atoms: C_21  and  N_59
   12  A    between atoms: C_29  and  C_45
   13  A    between atoms: O_34  and  C_40
   14  A    between atoms: O_34  and  C_55
   15  A    between atoms: P_37  and  N_43
   16  A    between atoms: C_41  and  C_61
   17  A    between atoms: C_45  and  C_60
   18  A    between atoms: N_46  and  C_67
   19  A    between atoms: N_47  and  C_50
   20  A    between atoms: N_47  and  C_54
   21  A    between atoms: C_50  and  C_55
   22  A    between atoms: C_54  and  N_59
   23  A    between atoms: C_61  and  C_66
                            x       y       z     vdW  Elec       q    Type
                         _______ _______ _______ _____ _____    ______ ____

>  <TORSDO>
F 23

$$$$
=
 OpenBabel11062416243D

 67 72  0  0  1  0  0  0  0  0999 V2000
  190.8640  177.1370  140.8240 C   0  0  1  0  0  3  0  0  0  0  0  0
  190.9020  177.6750  138.4440 F   0  0  0  0  0  0  0  0  0  0  0  0
  190.3040  177.9750  139.6590 C   0  0  1  0  0  3  0  0  0  0  0  0
  188.7810  177.9210  139.5610 C   0  0  0  0  0  0  0  0  0  0  0  0
  188.4050  177.6980  138.2470 F   0  0  0  0  0  0  0  0  0  0  0  0
  188.2170  179.1040  140.0020 F   0  0  0  0  0  0  0  0  0  0  0  0
  188.3090  176.8860  140.3440 F   0  0  0  0  0  0  0  0  0  0  0  0
  192.3890  177.1410  140.8760 C   0  0  0  0  0  2  0  0  0  0  0  0
  192.9550  177.5780  139.6140 N   0  0  0  0  0  2  0  0  0  0  0  0
  193.5450  176.3960  139.0050 C   0  0  0  0  0  2  0  0  0  0  0  0
  193.8060  176.6390  137.5940 N   0  0  0  0  0  2  0  0  0  0  0  0
  193.5240  175.4170  136.8400 C   0  0  1  0  0  3  0  0  0  0  0  0
  192.0500  175.2230  136.6360 C   0  0  0  0  0  0  0  0  0  0  0  0
  189.2850  174.9180  136.2330 C   0  0  0  0  0  0  0  0  0  0  0  0
  191.3520  176.1290  135.8330 C   0  0  0  0  0  3  0  0  0  0  0  0
  187.5700  174.5840  136.0170 Cl  0  0  0  0  0  0  0  0  0  0  0  0
  191.3640  174.1650  137.2400 C   0  0  0  0  0  3  0  0  0  0  0  0
  189.9930  174.0150  137.0340 C   0  0  0  0  0  3  0  0  0  0  0  0
  189.9740  176.0020  135.6220 C   0  0  0  0  0  0  0  0  0  0  0  0
  188.2640  177.6010  135.0230 C   0  0  0  0  0  0  0  0  0  0  0  0
  187.2040  178.2000  135.2530 O   0  0  0  0  0  0  0  0  0  0  0  0
  189.3560  176.9940  134.7830 N   0  0  0  0  0  0  0  0  0  0  0  0
  195.2480  176.4160  135.4670 O   0  0  0  0  0  1  0  0  0  0  0  0
  194.2650  175.4190  135.4990 C   0  0  1  0  0  3  0  0  0  0  0  0
  194.8580  174.0460  135.1930 C   0  0  2  0  0  3  0  0  0  0  0  0
  193.8500  173.1180  134.9190 O   0  0  0  0  0  1  0  0  0  0  0  0
  196.2240  174.6290  137.4790 O   0  0  0  0  0  0  0  0  0  0  0  0
  195.8820  173.4600  136.5840 P   0  0  1  0  0  0  0  0  0  0  0  0
  195.0040  172.3250  137.4800 O   0  0  0  0  0  1  0  0  0  0  0  0
  197.3720  172.7220  136.0130 N   0  0  0  0  0  0  0  0  0  0  0  0
  198.0540  173.6910  135.1710 C   0  0  0  0  0  1  0  0  0  0  0  0
  198.2250  172.4890  137.1700 C   0  0  0  0  0  2  0  0  0  0  0  0
  198.1100  170.2580  136.4570 C   0  0  0  0  0  1  0  0  0  0  0  0
  199.0100  171.2800  136.9730 N   0  0  0  0  0  2  0  0  0  0  0  0
  190.3860  177.6570  142.0300 O   0  0  0  0  0  0  0  0  0  0  0  0
  190.1900  175.9510  145.3430 C   0  0  0  0  0  1  0  0  0  0  0  0
  191.6800  177.5370  144.0300 C   0  0  0  0  0  2  0  0  0  0  0  0
  190.8240  176.7730  143.0250 C   0  0  1  0  0  3  0  0  0  0  0  0
  190.2670  177.1380  144.3990 C   0  0  1  0  0  0  0  0  0  0  0  0
  189.7350  179.3260  145.3020 F   0  0  0  0  0  0  0  0  0  0  0  0
  188.9250  178.7570  143.2650 O   0  0  0  0  0  1  0  0  0  0  0  0
  189.2310  178.2790  144.5430 C   0  0  1  0  0  0  0  0  0  0  0  0
  184.9340  177.9510  146.0980 C   0  0  0  0  0  1  0  0  0  0  0  0
  185.6840  178.4480  143.7350 C   0  0  2  0  0  0  0  0  0  0  0  0
  185.8030  178.8310  145.2110 C   0  0  2  0  0  3  0  0  0  0  0  0
  187.2450  176.6290  144.4290 C   0  0  0  0  0  2  0  0  0  0  0  0
  187.1440  178.8460  145.6750 O   0  0  0  0  0  0  0  0  0  0  0  0
  186.4030  177.1710  143.2790 C   0  0  2  0  0  3  0  0  0  0  0  0
  187.2110  177.3910  142.1590 O   0  0  0  0  0  1  0  0  0  0  0  0
  187.9540  177.7550  145.2270 C   0  0  2  0  0  3  0  0  0  0  0  0
  185.7190  179.6390  142.7980 C   0  0  0  0  0  2  0  0  0  0  0  0
  184.4060  178.8990  143.0250 C   0  0  1  0  0  3  0  0  0  0  0  0
  184.0920  178.0760  141.7810 C   0  0  0  0  0  2  0  0  0  0  0  0
  180.7480  180.2850  140.1160 O   0  0  0  0  0  1  0  0  0  0  0  0
  180.7810  180.9400  136.8630 O   0  0  0  0  0  1  0  0  0  0  0  0
  181.6060  179.5690  139.2650 C   0  0  1  0  0  0  0  0  0  0  0  0
  181.7610  178.6450  136.4270 O   0  0  0  0  0  1  0  0  0  0  0  0
  181.9270  177.3610  140.9970 O   0  0  0  0  0  0  0  0  0  0  0  0
  180.7380  177.6910  140.2870 C   0  0  0  0  0  2  0  0  0  0  0  0
  182.9950  179.3480  139.8550 C   0  0  1  0  0  3  0  0  0  0  0  0
  182.7720  178.5070  141.1630 C   0  0  2  0  0  3  0  0  0  0  0  0
  183.8540  178.6950  138.9590 O   0  0  0  0  0  1  0  0  0  0  0  0
  181.1930  178.1810  138.9260 C   0  0  1  0  0  3  0  0  0  0  0  0
  180.8370  179.4240  137.6130 P   0  0  0  0  0  0  0  0  0  0  0  0
  179.1680  179.1080  137.5710 O   0  0  0  0  0  0  0  0  0  0  0  0
  178.9310  179.3720  135.3210 O   0  0  0  0  0  1  0  0  0  0  0  0
  178.9310  178.4490  136.3630 C   0  0  0  0  0  2  0  0  0  0  0  0
  1  8  1  1  0  0  0
  1 35  1  0  0  0  0
  3  2  1  6  0  0  0
  3  1  1  0  0  0  0
  4  3  1  0  0  0  0
  4  6  1  0  0  0  0
  4  7  1  0  0  0  0
  5  4  1  0  0  0  0
  9  8  1  0  0  0  0
 10  9  1  0  0  0  0
 11 10  1  0  0  0  0
 12 11  1  6  0  0  0
 13 12  1  0  0  0  0
 13 17  1  0  0  0  0
 14 18  1  0  0  0  0
 15 13  2  0  0  0  0
 16 14  1  0  0  0  0
 18 17  2  0  0  0  0
 19 15  1  0  0  0  0
 19 14  2  0  0  0  0
 20 21  2  0  0  0  0
 22 20  2  0  0  0  0
 22 19  1  0  0  0  0
 24 23  1  1  0  0  0
 24 12  1  0  0  0  0
 25 26  1  1  0  0  0
 25 24  1  0  0  0  0
 25 28  1  0  0  0  0
 28 27  2  1  0  0  0
 28 29  1  0  0  0  0
 30 28  1  0  0  0  0
 30 32  1  0  0  0  0
 31 30  1  0  0  0  0
 33 34  1  0  0  0  0
 34 32  1  0  0  0  0
 37 39  1  0  0  0  0
 38 35  1  6  0  0  0
 38 37  1  0  0  0  0
 38 39  1  0  0  0  0
 39 42  1  0  0  0  0
 39 36  1  1  0  0  0
 42 41  1  6  0  0  0
 42 40  1  0  0  0  0
 44 51  1  6  0  0  0
 44 45  1  0  0  0  0
 45 47  1  0  0  0  0
 45 43  1  1  0  0  0
 46 50  1  0  0  0  0
 48 49  1  6  0  0  0
 48 44  1  0  0  0  0
 48 46  1  0  0  0  0
 50 42  1  6  0  0  0
 50 47  1  0  0  0  0
 51 52  1  0  0  0  0
 52 53  1  6  0  0  0
 52 44  1  0  0  0  0
 55 64  1  0  0  0  0
 56 60  1  0  0  0  0
 56 54  1  1  0  0  0
 57 64  1  0  0  0  0
 58 61  1  0  0  0  0
 59 58  1  0  0  0  0
 60 62  1  6  0  0  0
 60 61  1  0  0  0  0
 61 53  1  6  0  0  0
 63 56  1  0  0  0  0
 63 59  1  1  0  0  0
 64 63  1  0  0  0  0
 64 56  1  0  0  0  0
 65 64  1  0  0  0  0
 66 67  1  0  0  0  0
 67 65  1  0  0  0  0
M  END
>  <MODEL>
6

>  <REMARK>
 VINA RESULT:      -4.6      2.005      2.509
  Name = 
  23 active torsions:
  status: ('A' for Active; 'I' for Inactive)
    1  A    between atoms: C_4  and  P_37
    2  A    between atoms: C_4  and  C_57
    3  A    between atoms: C_8  and  C_21
    4  A    between atoms: O_10  and  C_49
    5  A    between atoms: O_10  and  P_58
    6  A    between atoms: N_11  and  C_19
    7  A    between atoms: C_19  and  N_43
    8  A    between atoms: C_20  and  C_28
    9  A    between atoms: C_20  and  C_55
   10  A    between atoms: C_21  and  C_57
   11  A    between atoms: C_21  and  N_59
   12  A    between atoms: C_29  and  C_45
   13  A    between atoms: O_34  and  C_40
   14  A    between atoms: O_34  and  C_55
   15  A    between atoms: P_37  and  N_43
   16  A    between atoms: C_41  and  C_61
   17  A    between atoms: C_45  and  C_60
   18  A    between atoms: N_46  and  C_67
   19  A    between atoms: N_47  and  C_50
   20  A    between atoms: N_47  and  C_54
   21  A    between atoms: C_50  and  C_55
   22  A    between atoms: C_54  and  N_59
   23  A    between atoms: C_61  and  C_66
                            x       y       z     vdW  Elec       q    Type
                         _______ _______ _______ _____ _____    ______ ____

>  <TORSDO>
F 23

$$$$
=
 OpenBabel11062416243D

 67 72  0  0  1  0  0  0  0  0999 V2000
  190.7990  175.1340  137.8370 C   0  0  1  0  0  3  0  0  0  0  0  0
  192.8870  176.3630  137.5390 F   0  0  0  0  0  0  0  0  0  0  0  0
  191.6490  176.0890  136.9760 C   0  0  1  0  0  3  0  0  0  0  0  0
  191.7840  175.6280  135.5260 C   0  0  0  0  0  0  0  0  0  0  0  0
  193.0420  175.9530  135.0480 F   0  0  0  0  0  0  0  0  0  0  0  0
  190.8250  176.2260  134.7290 F   0  0  0  0  0  0  0  0  0  0  0  0
  191.6200  174.2580  135.4650 F   0  0  0  0  0  0  0  0  0  0  0  0
  190.6790  175.5940  139.2860 C   0  0  0  0  0  2  0  0  0  0  0  0
  190.9170  177.0190  139.4060 N   0  0  0  0  0  2  0  0  0  0  0  0
  191.6620  177.2020  140.6410 C   0  0  0  0  0  2  0  0  0  0  0  0
  191.0270  178.2240  141.4600 N   0  0  0  0  0  2  0  0  0  0  0  0
  189.8740  177.6380  142.1450 C   0  0  1  0  0  3  0  0  0  0  0  0
  190.1660  177.3820  143.5950 C   0  0  0  0  0  0  0  0  0  0  0  0
  190.6640  176.9420  146.3270 C   0  0  0  0  0  0  0  0  0  0  0  0
  189.1880  177.6860  144.5460 C   0  0  0  0  0  3  0  0  0  0  0  0
  191.0800  176.5680  147.9950 Cl  0  0  0  0  0  0  0  0  0  0  0  0
  191.3950  176.8620  144.0110 C   0  0  0  0  0  3  0  0  0  0  0  0
  191.6370  176.6400  145.3670 C   0  0  0  0  0  3  0  0  0  0  0  0
  189.4150  177.4810  145.9130 C   0  0  0  0  0  0  0  0  0  0  0  0
  187.8480  177.0880  147.7090 C   0  0  0  0  0  0  0  0  0  0  0  0
  187.3660  176.3700  148.5970 O   0  0  0  0  0  0  0  0  0  0  0  0
  188.3410  177.8330  146.8030 N   0  0  0  0  0  0  0  0  0  0  0  0
  188.9000  179.6180  141.1540 O   0  0  0  0  0  1  0  0  0  0  0  0
  188.6340  178.5230  141.9860 C   0  0  1  0  0  3  0  0  0  0  0  0
  187.4410  177.7170  141.4790 C   0  0  2  0  0  3  0  0  0  0  0  0
  187.5250  177.5170  140.0980 O   0  0  0  0  0  1  0  0  0  0  0  0
  185.6980  179.7570  140.9950 O   0  0  0  0  0  0  0  0  0  0  0  0
  185.8740  178.5530  141.8930 P   0  0  1  0  0  0  0  0  0  0  0  0
  184.5880  177.4850  141.6310 O   0  0  0  0  0  1  0  0  0  0  0  0
  185.8560  179.0830  143.5690 N   0  0  0  0  0  0  0  0  0  0  0  0
  184.9710  180.2320  143.6640 C   0  0  0  0  0  1  0  0  0  0  0  0
  185.2590  178.0200  144.3660 C   0  0  0  0  0  2  0  0  0  0  0  0
  184.5950  177.5500  146.5650 C   0  0  0  0  0  1  0  0  0  0  0  0
  184.6070  178.5830  145.5380 N   0  0  0  0  0  2  0  0  0  0  0  0
  189.5130  175.0580  137.2960 O   0  0  0  0  0  0  0  0  0  0  0  0
  188.2270  172.2540  135.1960 C   0  0  0  0  0  1  0  0  0  0  0  0
  187.9720  173.2520  137.5190 C   0  0  0  0  0  2  0  0  0  0  0  0
  189.3180  173.7100  136.9680 C   0  0  1  0  0  3  0  0  0  0  0  0
  188.1250  173.5140  136.0370 C   0  0  1  0  0  0  0  0  0  0  0  0
  188.1810  175.4660  134.5960 F   0  0  0  0  0  0  0  0  0  0  0  0
  186.2580  174.2800  134.7560 O   0  0  0  0  0  1  0  0  0  0  0  0
  187.3750  174.7410  135.4610 C   0  0  1  0  0  0  0  0  0  0  0  0
  185.5340  178.2500  137.7610 C   0  0  0  0  0  1  0  0  0  0  0  0
  184.4110  176.7790  136.0370 C   0  0  2  0  0  0  0  0  0  0  0  0
  185.6120  177.6720  136.3540 C   0  0  2  0  0  3  0  0  0  0  0  0
  185.7060  175.1340  137.3960 C   0  0  0  0  0  2  0  0  0  0  0  0
  186.8570  177.0260  136.1430 O   0  0  0  0  0  0  0  0  0  0  0  0
  184.3850  175.3830  136.6760 C   0  0  2  0  0  3  0  0  0  0  0  0
  184.1570  174.3760  135.7340 O   0  0  0  0  0  1  0  0  0  0  0  0
  186.9250  175.6730  136.6020 C   0  0  2  0  0  3  0  0  0  0  0  0
  183.9330  176.8970  134.6030 C   0  0  0  0  0  2  0  0  0  0  0  0
  183.0990  177.5010  135.7280 C   0  0  1  0  0  3  0  0  0  0  0  0
  181.8700  176.6260  135.9430 C   0  0  0  0  0  2  0  0  0  0  0  0
  182.0110  176.5000  140.2790 O   0  0  0  0  0  1  0  0  0  0  0  0
  181.3290  179.2920  141.9390 O   0  0  0  0  0  1  0  0  0  0  0  0
  181.3530  177.5590  139.6310 C   0  0  1  0  0  0  0  0  0  0  0  0
  179.5150  179.8310  140.2550 O   0  0  0  0  0  1  0  0  0  0  0  0
  180.2300  175.9710  137.5840 O   0  0  0  0  0  0  0  0  0  0  0  0
  179.8420  175.9520  138.9540 C   0  0  0  0  0  2  0  0  0  0  0  0
  181.8540  177.8030  138.2110 C   0  0  1  0  0  3  0  0  0  0  0  0
  181.5610  176.4760  137.4240 C   0  0  2  0  0  3  0  0  0  0  0  0
  181.2340  178.9090  137.6120 O   0  0  0  0  0  1  0  0  0  0  0  0
  179.8900  177.3960  139.4150 C   0  0  1  0  0  3  0  0  0  0  0  0
  180.3340  178.4720  140.8440 P   0  0  0  0  0  0  0  0  0  0  0  0
  179.4880  177.5400  141.9870 O   0  0  0  0  0  0  0  0  0  0  0  0
  179.6850  177.4990  144.2560 O   0  0  0  0  0  1  0  0  0  0  0  0
  179.4410  178.3100  143.1510 C   0  0  0  0  0  2  0  0  0  0  0  0
  1  8  1  1  0  0  0
  3  2  1  1  0  0  0
  3  1  1  0  0  0  0
  4  3  1  0  0  0  0
  5  4  1  0  0  0  0
  6  4  1  0  0  0  0
  7  4  1  0  0  0  0
  8  9  1  0  0  0  0
  9 10  1  0  0  0  0
 10 11  1  0  0  0  0
 12 11  1  1  0  0  0
 12 13  1  0  0  0  0
 13 17  2  0  0  0  0
 13 15  1  0  0  0  0
 14 16  1  0  0  0  0
 15 19  2  0  0  0  0
 17 18  1  0  0  0  0
 18 14  2  0  0  0  0
 19 14  1  0  0  0  0
 19 22  1  0  0  0  0
 20 21  2  0  0  0  0
 22 20  2  0  0  0  0
 24 23  1  6  0  0  0
 24 12  1  0  0  0  0
 25 26  1  6  0  0  0
 25 28  1  0  0  0  0
 25 24  1  0  0  0  0
 28 27  2  6  0  0  0
 28 30  1  0  0  0  0
 29 28  1  0  0  0  0
 30 31  1  0  0  0  0
 30 32  1  0  0  0  0
 32 34  1  0  0  0  0
 34 33  1  0  0  0  0
 35  1  1  0  0  0  0
 38 35  1  1  0  0  0
 38 37  1  0  0  0  0
 39 36  1  6  0  0  0
 39 38  1  0  0  0  0
 39 37  1  0  0  0  0
 41 42  1  0  0  0  0
 42 40  1  6  0  0  0
 42 39  1  0  0  0  0
 44 51  1  6  0  0  0
 44 45  1  0  0  0  0
 44 48  1  0  0  0  0
 45 43  1  1  0  0  0
 47 45  1  0  0  0  0
 47 50  1  0  0  0  0
 48 49  1  6  0  0  0
 48 46  1  0  0  0  0
 50 42  1  6  0  0  0
 50 46  1  0  0  0  0
 51 52  1  0  0  0  0
 52 53  1  1  0  0  0
 52 44  1  0  0  0  0
 56 54  1  1  0  0  0
 56 64  1  0  0  0  0
 57 64  1  0  0  0  0
 58 59  1  0  0  0  0
 60 62  1  6  0  0  0
 60 56  1  0  0  0  0
 61 53  1  6  0  0  0
 61 58  1  0  0  0  0
 61 60  1  0  0  0  0
 63 59  1  1  0  0  0
 63 56  1  0  0  0  0
 63 64  1  0  0  0  0
 64 55  1  0  0  0  0
 64 65  1  0  0  0  0
 65 67  1  0  0  0  0
 67 66  1  0  0  0  0
M  END
>  <MODEL>
7

>  <REMARK>
 VINA RESULT:      -4.5      3.996      8.596
  Name = 
  23 active torsions:
  status: ('A' for Active; 'I' for Inactive)
    1  A    between atoms: C_4  and  P_37
    2  A    between atoms: C_4  and  C_57
    3  A    between atoms: C_8  and  C_21
    4  A    between atoms: O_10  and  C_49
    5  A    between atoms: O_10  and  P_58
    6  A    between atoms: N_11  and  C_19
    7  A    between atoms: C_19  and  N_43
    8  A    between atoms: C_20  and  C_28
    9  A    between atoms: C_20  and  C_55
   10  A    between atoms: C_21  and  C_57
   11  A    between atoms: C_21  and  N_59
   12  A    between atoms: C_29  and  C_45
   13  A    between atoms: O_34  and  C_40
   14  A    between atoms: O_34  and  C_55
   15  A    between atoms: P_37  and  N_43
   16  A    between atoms: C_41  and  C_61
   17  A    between atoms: C_45  and  C_60
   18  A    between atoms: N_46  and  C_67
   19  A    between atoms: N_47  and  C_50
   20  A    between atoms: N_47  and  C_54
   21  A    between atoms: C_50  and  C_55
   22  A    between atoms: C_54  and  N_59
   23  A    between atoms: C_61  and  C_66
                            x       y       z     vdW  Elec       q    Type
                         _______ _______ _______ _____ _____    ______ ____

>  <TORSDO>
F 23

$$$$
=
 OpenBabel11062416243D

 67 72  0  0  1  0  0  0  0  0999 V2000
  181.7570  179.0800  140.7480 C   0  0  1  0  0  3  0  0  0  0  0  0
  179.5790  179.5950  141.7230 F   0  0  0  0  0  0  0  0  0  0  0  0
  180.2800  179.4620  140.5330 C   0  0  1  0  0  3  0  0  0  0  0  0
  180.1020  180.6880  139.6400 C   0  0  0  0  0  0  0  0  0  0  0  0
  179.3370  181.6370  140.2960 F   0  0  0  0  0  0  0  0  0  0  0  0
  179.4830  180.3470  138.4520 F   0  0  0  0  0  0  0  0  0  0  0  0
  181.3400  181.2300  139.3560 F   0  0  0  0  0  0  0  0  0  0  0  0
  182.1190  178.9250  142.2210 C   0  0  0  0  0  2  0  0  0  0  0  0
  183.4960  179.3090  142.4660 N   0  0  0  0  0  2  0  0  0  0  0  0
  184.2390  178.0690  142.6270 C   0  0  0  0  0  2  0  0  0  0  0  0
  184.7020  177.9390  144.0000 N   0  0  0  0  0  2  0  0  0  0  0  0
  186.1210  178.2950  144.0610 C   0  0  1  0  0  3  0  0  0  0  0  0
  186.6320  178.2850  145.4710 C   0  0  0  0  0  0  0  0  0  0  0  0
  187.6180  178.2110  148.1030 C   0  0  0  0  0  0  0  0  0  0  0  0
  187.6800  177.4240  145.8060 C   0  0  0  0  0  3  0  0  0  0  0  0
  188.1780  178.3010  149.7690 Cl  0  0  0  0  0  0  0  0  0  0  0  0
  186.0740  179.1080  146.4550 C   0  0  0  0  0  3  0  0  0  0  0  0
  186.5690  179.0710  147.7590 C   0  0  0  0  0  3  0  0  0  0  0  0
  188.1840  177.3640  147.1110 C   0  0  0  0  0  0  0  0  0  0  0  0
  190.5010  176.6890  147.2160 C   0  0  0  0  0  0  0  0  0  0  0  0
  191.7120  176.9260  147.0990 O   0  0  0  0  0  0  0  0  0  0  0  0
  189.2600  176.4390  147.3440 N   0  0  0  0  0  0  0  0  0  0  0  0
  186.1390  176.6280  142.3080 O   0  0  0  0  0  1  0  0  0  0  0  0
  186.9560  177.3680  143.1710 C   0  0  1  0  0  3  0  0  0  0  0  0
  188.0150  178.1500  142.3990 C   0  0  2  0  0  3  0  0  0  0  0  0
  187.4930  178.6470  141.2020 O   0  0  0  0  0  1  0  0  0  0  0  0
  189.0060  175.7120  141.6870 O   0  0  0  0  0  1  0  0  0  0  0  0
  189.4690  177.1030  142.0560 P   0  0  1  0  0  0  0  0  0  0  0  0
  190.3280  177.7560  140.7540 O   0  0  0  0  0  0  0  0  0  0  0  0
  190.5260  177.0020  143.4580 N   0  0  0  0  0  0  0  0  0  0  0  0
  191.8940  176.8920  142.9770 C   0  0  0  0  0  1  0  0  0  0  0  0
  190.4300  178.2630  144.1800 C   0  0  0  0  0  2  0  0  0  0  0  0
  191.5280  180.2780  144.6620 C   0  0  0  0  0  1  0  0  0  0  0  0
  191.7380  178.8960  144.2510 N   0  0  0  0  0  2  0  0  0  0  0  0
  182.0100  177.8650  140.1070 O   0  0  0  0  0  0  0  0  0  0  0  0
  179.9860  174.7340  139.9360 C   0  0  0  0  0  1  0  0  0  0  0  0
  179.7700  177.2400  139.5740 C   0  0  0  0  0  2  0  0  0  0  0  0
  180.9680  177.0100  140.4900 C   0  0  1  0  0  3  0  0  0  0  0  0
  180.6230  176.0020  139.3970 C   0  0  1  0  0  0  0  0  0  0  0  0
  180.7840  175.3180  137.0740 F   0  0  0  0  0  0  0  0  0  0  0  0
  181.8200  177.2220  137.7270 O   0  0  0  0  0  1  0  0  0  0  0  0
  181.4820  175.9210  138.1110 C   0  0  1  0  0  0  0  0  0  0  0  0
  185.1620  173.2590  137.5120 C   0  0  0  0  0  1  0  0  0  0  0  0
  184.5500  175.3520  136.2320 C   0  0  2  0  0  0  0  0  0  0  0  0
  184.0840  173.9770  136.7130 C   0  0  2  0  0  3  0  0  0  0  0  0
  184.0210  175.9810  138.5890 C   0  0  0  0  0  2  0  0  0  0  0  0
  182.8660  174.0260  137.4410 O   0  0  0  0  0  0  0  0  0  0  0  0
  184.6150  176.4780  137.2750 C   0  0  2  0  0  3  0  0  0  0  0  0
  183.9430  177.6280  136.8520 O   0  0  0  0  0  1  0  0  0  0  0  0
  182.7600  175.1030  138.3760 C   0  0  2  0  0  3  0  0  0  0  0  0
  184.0420  175.7120  134.8500 C   0  0  0  0  0  2  0  0  0  0  0  0
  185.5120  175.3570  135.0430 C   0  0  1  0  0  3  0  0  0  0  0  0
  186.3360  176.6360  134.9460 C   0  0  0  0  0  2  0  0  0  0  0  0
  190.6710  176.8170  134.9640 O   0  0  0  0  0  1  0  0  0  0  0  0
  192.2170  176.7980  137.9010 O   0  0  0  0  0  1  0  0  0  0  0  0
  189.9840  176.3990  136.1170 C   0  0  1  0  0  0  0  0  0  0  0  0
  190.5260  175.1210  138.7630 O   0  0  0  0  0  1  0  0  0  0  0  0
  188.0140  174.9190  134.7370 O   0  0  0  0  0  0  0  0  0  0  0  0
  189.3860  174.5590  134.8590 C   0  0  0  0  0  2  0  0  0  0  0  0
  188.5520  176.9180  136.1860 C   0  0  1  0  0  3  0  0  0  0  0  0
  187.8230  176.3260  134.9280 C   0  0  2  0  0  3  0  0  0  0  0  0
  187.9110  176.5490  137.3780 O   0  0  0  0  0  1  0  0  0  0  0  0
  189.7860  174.9330  136.2730 C   0  0  1  0  0  3  0  0  0  0  0  0
  191.1650  175.6270  137.2790 P   0  0  0  0  0  0  0  0  0  0  0  0
  192.3520  174.6160  136.6050 O   0  0  0  0  0  0  0  0  0  0  0  0
  194.3070  174.9600  135.4880 O   0  0  0  0  0  1  0  0  0  0  0  0
  193.5240  175.3740  136.5620 C   0  0  0  0  0  2  0  0  0  0  0  0
  1  8  1  1  0  0  0
  3  1  1  0  0  0  0
  3  2  1  1  0  0  0
  4  5  1  0  0  0  0
  4  3  1  0  0  0  0
  6  4  1  0  0  0  0
  7  4  1  0  0  0  0
  8  9  1  0  0  0  0
  9 10  1  0  0  0  0
 10 11  1  0  0  0  0
 12 11  1  1  0  0  0
 12 13  1  0  0  0  0
 13 15  2  0  0  0  0
 13 17  1  0  0  0  0
 14 16  1  0  0  0  0
 15 19  1  0  0  0  0
 17 18  2  0  0  0  0
 18 14  1  0  0  0  0
 19 22  1  0  0  0  0
 19 14  2  0  0  0  0
 20 22  2  0  0  0  0
 21 20  2  0  0  0  0
 24 23  1  6  0  0  0
 24 12  1  0  0  0  0
 25 26  1  6  0  0  0
 25 24  1  0  0  0  0
 27 28  1  0  0  0  0
 28 29  2  6  0  0  0
 28 25  1  0  0  0  0
 28 30  1  0  0  0  0
 30 32  1  0  0  0  0
 31 30  1  0  0  0  0
 32 34  1  0  0  0  0
 34 33  1  0  0  0  0
 35  1  1  0  0  0  0
 37 38  1  0  0  0  0
 38 35  1  6  0  0  0
 39 37  1  0  0  0  0
 39 36  1  1  0  0  0
 39 38  1  0  0  0  0
 41 42  1  0  0  0  0
 42 40  1  6  0  0  0
 42 39  1  0  0  0  0
 44 51  1  6  0  0  0
 44 45  1  0  0  0  0
 44 48  1  0  0  0  0
 45 47  1  0  0  0  0
 45 43  1  1  0  0  0
 47 50  1  0  0  0  0
 48 49  1  6  0  0  0
 48 46  1  0  0  0  0
 50 42  1  6  0  0  0
 50 46  1  0  0  0  0
 51 52  1  0  0  0  0
 52 53  1  1  0  0  0
 52 44  1  0  0  0  0
 56 54  1  6  0  0  0
 56 60  1  0  0  0  0
 56 63  1  0  0  0  0
 56 64  1  0  0  0  0
 58 59  1  0  0  0  0
 58 61  1  0  0  0  0
 60 62  1  1  0  0  0
 61 53  1  1  0  0  0
 61 60  1  0  0  0  0
 63 59  1  6  0  0  0
 63 64  1  0  0  0  0
 64 55  1  0  0  0  0
 64 57  1  0  0  0  0
 65 64  1  0  0  0  0
 66 67  1  0  0  0  0
 67 65  1  0  0  0  0
M  END
>  <MODEL>
8

>  <REMARK>
 VINA RESULT:      -4.5      4.527     10.375
  Name = 
  23 active torsions:
  status: ('A' for Active; 'I' for Inactive)
    1  A    between atoms: C_4  and  P_37
    2  A    between atoms: C_4  and  C_57
    3  A    between atoms: C_8  and  C_21
    4  A    between atoms: O_10  and  C_49
    5  A    between atoms: O_10  and  P_58
    6  A    between atoms: N_11  and  C_19
    7  A    between atoms: C_19  and  N_43
    8  A    between atoms: C_20  and  C_28
    9  A    between atoms: C_20  and  C_55
   10  A    between atoms: C_21  and  C_57
   11  A    between atoms: C_21  and  N_59
   12  A    between atoms: C_29  and  C_45
   13  A    between atoms: O_34  and  C_40
   14  A    between atoms: O_34  and  C_55
   15  A    between atoms: P_37  and  N_43
   16  A    between atoms: C_41  and  C_61
   17  A    between atoms: C_45  and  C_60
   18  A    between atoms: N_46  and  C_67
   19  A    between atoms: N_47  and  C_50
   20  A    between atoms: N_47  and  C_54
   21  A    between atoms: C_50  and  C_55
   22  A    between atoms: C_54  and  N_59
   23  A    between atoms: C_61  and  C_66
                            x       y       z     vdW  Elec       q    Type
                         _______ _______ _______ _____ _____    ______ ____

>  <TORSDO>
F 23

$$$$
=
 OpenBabel11062416243D

 67 72  0  0  1  0  0  0  0  0999 V2000
  190.3430  176.9610  141.3670 C   0  0  1  0  0  3  0  0  0  0  0  0
  192.1330  177.4690  142.9480 F   0  0  0  0  0  0  0  0  0  0  0  0
  191.7090  177.6210  141.6350 C   0  0  1  0  0  3  0  0  0  0  0  0
  192.7890  177.1860  140.6470 C   0  0  0  0  0  0  0  0  0  0  0  0
  193.7340  176.4110  141.2960 F   0  0  0  0  0  0  0  0  0  0  0  0
  193.4120  178.2850  140.0830 F   0  0  0  0  0  0  0  0  0  0  0  0
  192.2120  176.4390  139.6390 F   0  0  0  0  0  0  0  0  0  0  0  0
  189.8870  176.0600  142.5100 C   0  0  0  0  0  2  0  0  0  0  0  0
  188.4480  176.1130  142.6780 N   0  0  0  0  0  2  0  0  0  0  0  0
  188.2120  176.8240  143.9250 C   0  0  0  0  0  2  0  0  0  0  0  0
  186.7850  176.8770  144.2070 N   0  0  0  0  0  2  0  0  0  0  0  0
  186.3810  178.2750  144.3560 C   0  0  1  0  0  3  0  0  0  0  0  0
  184.9680  178.4930  143.9020 C   0  0  0  0  0  0  0  0  0  0  0  0
  182.3410  178.9180  142.9940 C   0  0  0  0  0  0  0  0  0  0  0  0
  184.7010  178.5710  142.5320 C   0  0  0  0  0  3  0  0  0  0  0  0
  180.6500  179.1310  142.5560 Cl  0  0  0  0  0  0  0  0  0  0  0  0
  183.9200  178.6310  144.8180 C   0  0  0  0  0  3  0  0  0  0  0  0
  182.6180  178.8370  144.3630 C   0  0  0  0  0  3  0  0  0  0  0  0
  183.4020  178.7880  142.0560 C   0  0  0  0  0  0  0  0  0  0  0  0
  182.7000  177.9700  139.8940 C   0  0  0  0  0  0  0  0  0  0  0  0
  182.1670  177.1140  139.1730 O   0  0  0  0  0  0  0  0  0  0  0  0
  183.2430  178.8560  140.6280 N   0  0  0  0  0  0  0  0  0  0  0  0
  185.6490  179.7540  146.1260 O   0  0  0  0  0  1  0  0  0  0  0  0
  186.5680  178.7480  145.8020 C   0  0  1  0  0  3  0  0  0  0  0  0
  186.4800  177.5800  146.7810 C   0  0  2  0  0  3  0  0  0  0  0  0
  185.3910  177.7340  147.6440 O   0  0  0  0  0  1  0  0  0  0  0  0
  188.1220  178.5850  148.7110 O   0  0  0  0  0  1  0  0  0  0  0  0
  188.0210  177.4270  147.7440 P   0  0  1  0  0  0  0  0  0  0  0  0
  187.9840  175.9830  148.6250 O   0  0  0  0  0  0  0  0  0  0  0  0
  189.4320  177.4320  146.6950 N   0  0  0  0  0  0  0  0  0  0  0  0
  189.8760  178.8090  146.5540 C   0  0  0  0  0  1  0  0  0  0  0  0
  190.4970  176.7110  147.3790 C   0  0  0  0  0  2  0  0  0  0  0  0
  191.9030  176.0780  145.6120 C   0  0  0  0  0  1  0  0  0  0  0  0
  191.7750  176.9890  146.7410 N   0  0  0  0  0  2  0  0  0  0  0  0
  189.3830  177.9600  141.1900 O   0  0  0  0  0  0  0  0  0  0  0  0
  188.8590  179.7510  137.9580 C   0  0  0  0  0  1  0  0  0  0  0  0
  190.0560  177.7230  138.9140 C   0  0  0  0  0  2  0  0  0  0  0  0
  189.7960  178.6880  140.0660 C   0  0  1  0  0  3  0  0  0  0  0  0
  188.8030  178.5720  138.9130 C   0  0  1  0  0  0  0  0  0  0  0  0
  187.6000  176.7390  139.9520 F   0  0  0  0  0  0  0  0  0  0  0  0
  186.5500  178.7280  139.6930 O   0  0  0  0  0  1  0  0  0  0  0  0
  187.4560  177.8340  139.1130 C   0  0  1  0  0  0  0  0  0  0  0  0
  187.0050  177.0190  134.6280 C   0  0  0  0  0  1  0  0  0  0  0  0
  189.0170  176.5450  136.0850 C   0  0  2  0  0  0  0  0  0  0  0  0
  187.9990  177.5920  135.6280 C   0  0  2  0  0  3  0  0  0  0  0  0
  187.1150  175.8200  137.5290 C   0  0  0  0  0  2  0  0  0  0  0  0
  187.3240  178.2190  136.7070 O   0  0  0  0  0  0  0  0  0  0  0  0
  188.5320  175.4810  137.0810 C   0  0  2  0  0  3  0  0  0  0  0  0
  189.3730  175.3770  138.1930 O   0  0  0  0  0  1  0  0  0  0  0  0
  186.9130  177.3410  137.7590 C   0  0  2  0  0  3  0  0  0  0  0  0
  190.4100  177.1060  136.2890 C   0  0  0  0  0  2  0  0  0  0  0  0
  190.1280  176.2080  135.0900 C   0  0  1  0  0  3  0  0  0  0  0  0
  190.7650  174.8470  135.3430 C   0  0  0  0  0  2  0  0  0  0  0  0
  194.6370  175.9580  136.9580 O   0  0  0  0  0  1  0  0  0  0  0  0
  195.7590  174.2870  139.5960 O   0  0  0  0  0  1  0  0  0  0  0  0
  194.0650  174.7210  137.3010 C   0  0  1  0  0  0  0  0  0  0  0  0
  194.8090  172.1490  138.6270 O   0  0  0  0  0  1  0  0  0  0  0  0
  193.0040  174.1910  134.7370 O   0  0  0  0  0  0  0  0  0  0  0  0
  194.3850  174.1750  135.0820 C   0  0  0  0  0  2  0  0  0  0  0  0
  192.5450  174.7020  137.1700 C   0  0  1  0  0  3  0  0  0  0  0  0
  192.2450  174.9880  135.6550 C   0  0  2  0  0  3  0  0  0  0  0  0
  191.9920  173.4820  137.5870 O   0  0  0  0  0  1  0  0  0  0  0  0
  194.4580  173.5560  136.4640 C   0  0  1  0  0  3  0  0  0  0  0  0
  195.3340  173.6630  138.0820 P   0  0  0  0  0  0  0  0  0  0  0  0
  196.8890  173.7010  137.3960 O   0  0  0  0  0  0  0  0  0  0  0  0
  198.2420  175.2540  136.4250 O   0  0  0  0  0  1  0  0  0  0  0  0
  197.2830  175.0400  137.4120 C   0  0  0  0  0  2  0  0  0  0  0  0
  1  3  1  0  0  0  0
  1  8  1  1  0  0  0
  3  2  1  1  0  0  0
  4  5  1  0  0  0  0
  4  3  1  0  0  0  0
  6  4  1  0  0  0  0
  7  4  1  0  0  0  0
  8  9  1  0  0  0  0
  9 10  1  0  0  0  0
 10 11  1  0  0  0  0
 12 11  1  1  0  0  0
 12 24  1  0  0  0  0
 13 12  1  0  0  0  0
 13 17  1  0  0  0  0
 14 18  1  0  0  0  0
 15 13  2  0  0  0  0
 16 14  1  0  0  0  0
 18 17  2  0  0  0  0
 19 15  1  0  0  0  0
 19 14  2  0  0  0  0
 20 22  2  0  0  0  0
 21 20  2  0  0  0  0
 22 19  1  0  0  0  0
 24 23  1  1  0  0  0
 24 25  1  0  0  0  0
 25 26  1  1  0  0  0
 25 28  1  0  0  0  0
 28 29  2  1  0  0  0
 28 27  1  0  0  0  0
 30 32  1  0  0  0  0
 30 28  1  0  0  0  0
 31 30  1  0  0  0  0
 33 34  1  0  0  0  0
 34 32  1  0  0  0  0
 35  1  1  0  0  0  0
 37 38  1  0  0  0  0
 38 35  1  1  0  0  0
 39 36  1  6  0  0  0
 39 37  1  0  0  0  0
 39 42  1  0  0  0  0
 39 38  1  0  0  0  0
 42 41  1  1  0  0  0
 42 40  1  0  0  0  0
 44 51  1  1  0  0  0
 44 48  1  0  0  0  0
 45 43  1  6  0  0  0
 45 44  1  0  0  0  0
 45 47  1  0  0  0  0
 46 50  1  0  0  0  0
 47 50  1  0  0  0  0
 48 46  1  0  0  0  0
 48 49  1  1  0  0  0
 50 42  1  1  0  0  0
 52 53  1  1  0  0  0
 52 44  1  0  0  0  0
 52 51  1  0  0  0  0
 56 54  1  6  0  0  0
 56 64  1  0  0  0  0
 58 59  1  0  0  0  0
 58 61  1  0  0  0  0
 60 56  1  0  0  0  0
 60 62  1  6  0  0  0
 61 53  1  1  0  0  0
 61 60  1  0  0  0  0
 63 59  1  6  0  0  0
 63 56  1  0  0  0  0
 63 64  1  0  0  0  0
 64 57  1  0  0  0  0
 64 55  1  0  0  0  0
 65 67  1  0  0  0  0
 65 64  1  0  0  0  0
 66 67  1  0  0  0  0
M  END
>  <MODEL>
9

>  <REMARK>
 VINA RESULT:      -4.4      3.851     10.802
  Name = 
  23 active torsions:
  status: ('A' for Active; 'I' for Inactive)
    1  A    between atoms: C_4  and  P_37
    2  A    between atoms: C_4  and  C_57
    3  A    between atoms: C_8  and  C_21
    4  A    between atoms: O_10  and  C_49
    5  A    between atoms: O_10  and  P_58
    6  A    between atoms: N_11  and  C_19
    7  A    between atoms: C_19  and  N_43
    8  A    between atoms: C_20  and  C_28
    9  A    between atoms: C_20  and  C_55
   10  A    between atoms: C_21  and  C_57
   11  A    between atoms: C_21  and  N_59
   12  A    between atoms: C_29  and  C_45
   13  A    between atoms: O_34  and  C_40
   14  A    between atoms: O_34  and  C_55
   15  A    between atoms: P_37  and  N_43
   16  A    between atoms: C_41  and  C_61
   17  A    between atoms: C_45  and  C_60
   18  A    between atoms: N_46  and  C_67
   19  A    between atoms: N_47  and  C_50
   20  A    between atoms: N_47  and  C_54
   21  A    between atoms: C_50  and  C_55
   22  A    between atoms: C_54  and  N_59
   23  A    between atoms: C_61  and  C_66
                            x       y       z     vdW  Elec       q    Type
                         _______ _______ _______ _____ _____    ______ ____

>  <TORSDO>
F 23

$$$$
