=
 OpenBabel11062416173D

 29 33  0  0  1  0  0  0  0  0999 V2000
  189.6460  177.3740  145.4890 N   0  0  0  0  0  2  0  0  0  0  0  0
  183.5810  178.6190  143.7460 C   0  0  1  0  0  3  0  0  0  0  0  0
  184.6730  178.1930  142.7630 C   0  0  0  0  0  2  0  0  0  0  0  0
  189.4680  177.3120  141.2270 C   0  0  0  0  0  3  0  0  0  0  0  0
  190.8580  177.3480  144.7340 C   0  0  0  0  0  0  0  0  0  0  0  0
  185.8740  177.6890  145.0140 C   0  0  2  0  0  3  0  0  0  0  0  0
  188.2910  177.0500  143.4630 C   0  0  1  0  0  3  0  0  0  0  0  0
  187.0140  177.4780  142.7880 C   0  0  0  0  0  3  0  0  0  0  0  0
  191.9480  177.5460  142.4900 C   0  0  0  0  0  3  0  0  0  0  0  0
  191.8680  177.5810  141.0970 C   0  0  0  0  0  3  0  0  0  0  0  0
  191.9660  177.2580  145.3270 O   0  0  0  0  0  0  0  0  0  0  0  0
  185.3460  179.0140  145.5740 C   0  0  0  0  0  2  0  0  0  0  0  0
  187.2050  177.3060  145.6800 C   0  0  0  0  0  2  0  0  0  0  0  0
  190.6310  177.4640  140.4590 C   0  0  0  0  0  0  0  0  0  0  0  0
  189.5290  177.3020  142.6280 C   0  0  0  0  0  0  0  0  0  0  0  0
  188.3950  177.7320  144.8320 C   0  0  1  0  0  3  0  0  0  0  0  0
  190.7880  177.4020  143.2610 C   0  0  0  0  0  0  0  0  0  0  0  0
  185.8970  177.7200  143.4920 C   0  0  0  0  0  0  0  0  0  0  0  0
  184.1500  179.5890  144.7900 C   0  0  0  0  0  2  0  0  0  0  0  0
  181.1040  178.8040  143.5300 C   0  0  0  0  0  1  0  0  0  0  0  0
  182.4410  179.2690  142.9830 C   0  0  0  0  0  2  0  0  0  0  0  0
  190.5770  177.4990  138.9600 C   0  0  2  0  0  3  0  0  0  0  0  0
  188.0610  176.8820  138.3220 C   0  0  0  0  0  1  0  0  0  0  0  0
  189.2010  177.8810  138.4160 C   0  0  1  0  0  0  0  0  0  0  0  0
  188.7690  179.1350  138.8760 O   0  0  0  0  0  0  0  0  0  0  0  0
  189.1360  179.0460  137.5160 C   0  0  0  0  0  2  0  0  0  0  0  0
  191.1270  176.2500  138.3300 C   0  0  0  0  0  0  0  0  0  0  0  0
  190.7230  175.1490  138.6680 O   0  0  0  0  0  0  0  0  0  0  0  0
  192.1870  176.3590  137.2900 C   0  0  0  0  0  1  0  0  0  0  0  0
  2 21  1  6  0  0  0
  2 19  1  0  0  0  0
  3 18  1  0  0  0  0
  3  2  1  0  0  0  0
  4 15  1  0  0  0  0
  5 11  2  0  0  0  0
  5  1  1  0  0  0  0
  6 12  1  1  0  0  0
  6 13  1  0  0  0  0
  7  8  1  6  0  0  0
  7 16  1  0  0  0  0
  8 18  2  0  0  0  0
  9 17  1  0  0  0  0
 10  9  2  0  0  0  0
 14 10  1  0  0  0  0
 14  4  2  0  0  0  0
 15 17  2  0  0  0  0
 15  7  1  0  0  0  0
 16  1  1  0  0  0  0
 16 13  1  1  0  0  0
 17  5  1  0  0  0  0
 18  6  1  0  0  0  0
 19 12  1  0  0  0  0
 21 20  1  0  0  0  0
 22 27  1  6  0  0  0
 22 14  1  0  0  0  0
 24 23  1  6  0  0  0
 24 25  1  0  0  0  0
 24 22  1  0  0  0  0
 26 24  1  0  0  0  0
 26 25  1  0  0  0  0
 27 28  2  0  0  0  0
 29 27  1  0  0  0  0
M  END
>  <MODEL>
1

>  <REMARK>
 VINA RESULT:     -10.0      0.000      0.000
  Name = 
  4 active torsions:
  status: ('A' for Active; 'I' for Inactive)
    1  A    between atoms: C_2  and  C_16
    2  A    between atoms: C_5  and  C_20
    3  A    between atoms: C_18  and  C_20
    4  A    between atoms: C_20  and  C_24
                            x       y       z     vdW  Elec       q    Type
                         _______ _______ _______ _____ _____    ______ ____

>  <TORSDO>
F 4

$$$$
=
 OpenBabel11062416173D

 29 33  0  0  1  0  0  0  0  0999 V2000
  189.7150  177.7300  145.1330 N   0  0  0  0  0  2  0  0  0  0  0  0
  183.4430  178.6940  144.0790 C   0  0  1  0  0  3  0  0  0  0  0  0
  184.3990  178.1240  143.0300 C   0  0  0  0  0  2  0  0  0  0  0  0
  188.9570  177.0210  140.9950 C   0  0  0  0  0  3  0  0  0  0  0  0
  190.8130  177.5900  144.2300 C   0  0  0  0  0  0  0  0  0  0  0  0
  185.9080  177.9680  145.1430 C   0  0  2  0  0  3  0  0  0  0  0  0
  188.1030  177.1010  143.3860 C   0  0  1  0  0  3  0  0  0  0  0  0
  186.7360  177.4210  142.8370 C   0  0  0  0  0  3  0  0  0  0  0  0
  191.5820  177.4440  141.8530 C   0  0  0  0  0  3  0  0  0  0  0  0
  191.3100  177.2670  140.4950 C   0  0  0  0  0  3  0  0  0  0  0  0
  191.9930  177.5910  144.6700 O   0  0  0  0  0  0  0  0  0  0  0  0
  185.4340  179.3620  145.5640 C   0  0  0  0  0  2  0  0  0  0  0  0
  187.3250  177.6910  145.6680 C   0  0  0  0  0  2  0  0  0  0  0  0
  190.0000  177.0540  140.0590 C   0  0  0  0  0  0  0  0  0  0  0  0
  189.2100  177.2240  142.3590 C   0  0  0  0  0  0  0  0  0  0  0  0
  188.3790  177.9830  144.6090 C   0  0  1  0  0  3  0  0  0  0  0  0
  190.5410  177.4190  142.7900 C   0  0  0  0  0  0  0  0  0  0  0  0
  185.7220  177.7680  143.6450 C   0  0  0  0  0  0  0  0  0  0  0  0
  184.1300  179.8120  144.8760 C   0  0  0  0  0  2  0  0  0  0  0  0
  180.9540  178.5920  143.9960 C   0  0  0  0  0  1  0  0  0  0  0  0
  182.1960  179.2200  143.3920 C   0  0  0  0  0  2  0  0  0  0  0  0
  189.7410  176.8610  138.5940 C   0  0  2  0  0  3  0  0  0  0  0  0
  192.2020  176.7350  137.5690 C   0  0  0  0  0  1  0  0  0  0  0  0
  190.8580  176.0990  137.8810 C   0  0  1  0  0  0  0  0  0  0  0  0
  190.9920  174.7810  138.3450 O   0  0  0  0  0  0  0  0  0  0  0  0
  190.4600  174.9510  137.0480 C   0  0  0  0  0  2  0  0  0  0  0  0
  189.3710  178.1400  137.8970 C   0  0  0  0  0  0  0  0  0  0  0  0
  189.2850  179.1890  138.5160 O   0  0  0  0  0  0  0  0  0  0  0  0
  189.0930  178.1230  136.4340 C   0  0  0  0  0  1  0  0  0  0  0  0
  2 21  1  6  0  0  0
  2 19  1  0  0  0  0
  3 18  1  0  0  0  0
  3  2  1  0  0  0  0
  4 15  1  0  0  0  0
  5 11  2  0  0  0  0
  5  1  1  0  0  0  0
  6 12  1  6  0  0  0
  6 13  1  0  0  0  0
  7  8  1  6  0  0  0
  7 16  1  0  0  0  0
  8 18  2  0  0  0  0
  9 17  1  0  0  0  0
 10  9  2  0  0  0  0
 14 10  1  0  0  0  0
 14  4  2  0  0  0  0
 15 17  2  0  0  0  0
 15  7  1  0  0  0  0
 16  1  1  0  0  0  0
 16 13  1  1  0  0  0
 17  5  1  0  0  0  0
 18  6  1  0  0  0  0
 19 12  1  0  0  0  0
 21 20  1  0  0  0  0
 22 27  1  6  0  0  0
 22 14  1  0  0  0  0
 24 23  1  6  0  0  0
 24 25  1  0  0  0  0
 24 22  1  0  0  0  0
 26 24  1  0  0  0  0
 26 25  1  0  0  0  0
 27 28  2  0  0  0  0
 29 27  1  0  0  0  0
M  END
>  <MODEL>
2

>  <REMARK>
 VINA RESULT:      -9.2      0.693      1.968
  Name = 
  4 active torsions:
  status: ('A' for Active; 'I' for Inactive)
    1  A    between atoms: C_2  and  C_16
    2  A    between atoms: C_5  and  C_20
    3  A    between atoms: C_18  and  C_20
    4  A    between atoms: C_20  and  C_24
                            x       y       z     vdW  Elec       q    Type
                         _______ _______ _______ _____ _____    ______ ____

>  <TORSDO>
F 4

$$$$
=
 OpenBabel11062416173D

 29 33  0  0  1  0  0  0  0  0999 V2000
  191.7280  176.9960  143.2200 N   0  0  0  0  0  2  0  0  0  0  0  0
  188.9300  177.0980  137.4290 C   0  0  1  0  0  3  0  0  0  0  0  0
  188.2250  177.5290  138.7170 C   0  0  0  0  0  2  0  0  0  0  0  0
  187.6000  177.9170  143.7750 C   0  0  0  0  0  3  0  0  0  0  0  0
  191.1730  176.9750  144.5360 C   0  0  0  0  0  0  0  0  0  0  0  0
  190.6760  177.3850  139.5740 C   0  0  2  0  0  3  0  0  0  0  0  0
  189.6530  177.9220  142.2800 C   0  0  1  0  0  3  0  0  0  0  0  0
  188.7300  177.8430  141.0910 C   0  0  0  0  0  3  0  0  0  0  0  0
  189.1140  177.0490  145.9560 C   0  0  0  0  0  3  0  0  0  0  0  0
  187.7490  177.3000  146.1090 C   0  0  0  0  0  3  0  0  0  0  0  0
  191.9190  176.7690  145.5300 O   0  0  0  0  0  0  0  0  0  0  0  0
  190.8540  176.0780  138.7960 C   0  0  0  0  0  2  0  0  0  0  0  0
  191.5880  177.4130  140.8110 C   0  0  0  0  0  2  0  0  0  0  0  0
  186.9860  177.7350  145.0220 C   0  0  0  0  0  0  0  0  0  0  0  0
  188.9640  177.6430  143.5990 C   0  0  0  0  0  0  0  0  0  0  0  0
  190.8410  176.9770  142.0640 C   0  0  1  0  0  3  0  0  0  0  0  0
  189.7280  177.2230  144.7100 C   0  0  0  0  0  0  0  0  0  0  0  0
  189.2020  177.6490  139.8500 C   0  0  0  0  0  0  0  0  0  0  0  0
  189.8050  175.8650  137.6860 C   0  0  0  0  0  2  0  0  0  0  0  0
  186.5510  177.3950  136.7480 C   0  0  0  0  0  1  0  0  0  0  0  0
  187.8920  176.8010  136.3620 C   0  0  0  0  0  2  0  0  0  0  0  0
  185.5230  178.0030  145.2190 C   0  0  2  0  0  3  0  0  0  0  0  0
  185.3990  180.1990  143.7080 C   0  0  0  0  0  1  0  0  0  0  0  0
  184.9010  178.8130  144.0820 C   0  0  1  0  0  0  0  0  0  0  0  0
  184.6220  178.0280  142.9520 O   0  0  0  0  0  0  0  0  0  0  0  0
  183.5160  178.4820  143.7030 C   0  0  0  0  0  2  0  0  0  0  0  0
  185.2150  178.5710  146.5760 C   0  0  0  0  0  0  0  0  0  0  0  0
  184.2250  178.2130  147.1950 O   0  0  0  0  0  0  0  0  0  0  0  0
  186.1230  179.5930  147.1660 C   0  0  0  0  0  1  0  0  0  0  0  0
  1  5  1  0  0  0  0
  2 21  1  6  0  0  0
  2 19  1  0  0  0  0
  2  3  1  0  0  0  0
  3 18  1  0  0  0  0
  4 14  1  0  0  0  0
  5 17  1  0  0  0  0
  5 11  2  0  0  0  0
  6 12  1  1  0  0  0
  6 18  1  0  0  0  0
  6 13  1  0  0  0  0
  7  8  1  6  0  0  0
  7 15  1  0  0  0  0
  9 10  1  0  0  0  0
 14 22  1  0  0  0  0
 14 10  2  0  0  0  0
 15  4  2  0  0  0  0
 15 17  1  0  0  0  0
 16 13  1  6  0  0  0
 16  7  1  0  0  0  0
 16  1  1  0  0  0  0
 17  9  2  0  0  0  0
 18  8  2  0  0  0  0
 19 12  1  0  0  0  0
 21 20  1  0  0  0  0
 22 27  1  1  0  0  0
 24 23  1  6  0  0  0
 24 22  1  0  0  0  0
 25 26  1  0  0  0  0
 25 24  1  0  0  0  0
 26 24  1  0  0  0  0
 27 29  1  0  0  0  0
 27 28  2  0  0  0  0
M  END
>  <MODEL>
3

>  <REMARK>
 VINA RESULT:      -8.7      2.240      6.825
  Name = 
  4 active torsions:
  status: ('A' for Active; 'I' for Inactive)
    1  A    between atoms: C_2  and  C_16
    2  A    between atoms: C_5  and  C_20
    3  A    between atoms: C_18  and  C_20
    4  A    between atoms: C_20  and  C_24
                            x       y       z     vdW  Elec       q    Type
                         _______ _______ _______ _____ _____    ______ ____

>  <TORSDO>
F 4

$$$$
=
 OpenBabel11062416173D

 29 33  0  0  1  0  0  0  0  0999 V2000
  191.2290  177.2150  141.8420 N   0  0  0  0  0  2  0  0  0  0  0  0
  186.7890  177.6720  146.4750 C   0  0  1  0  0  3  0  0  0  0  0  0
  186.4510  177.5630  144.9860 C   0  0  0  0  0  2  0  0  0  0  0  0
  187.4240  177.6870  139.9700 C   0  0  0  0  0  3  0  0  0  0  0  0
  191.1620  177.4880  140.4410 C   0  0  0  0  0  0  0  0  0  0  0  0
  188.9820  176.9700  144.9150 C   0  0  2  0  0  3  0  0  0  0  0  0
  188.7890  176.9440  141.9800 C   0  0  1  0  0  3  0  0  0  0  0  0
  187.5910  177.2430  142.8440 C   0  0  0  0  0  3  0  0  0  0  0  0
  189.7470  178.1540  138.4890 C   0  0  0  0  0  3  0  0  0  0  0  0
  188.4940  178.3590  137.9070 C   0  0  0  0  0  3  0  0  0  0  0  0
  192.2180  177.5030  139.7530 O   0  0  0  0  0  0  0  0  0  0  0  0
  189.2590  178.1060  145.9060 C   0  0  0  0  0  2  0  0  0  0  0  0
  190.1990  176.7250  144.0100 C   0  0  0  0  0  2  0  0  0  0  0  0
  187.3290  178.1270  138.6420 C   0  0  0  0  0  0  0  0  0  0  0  0
  188.6760  177.5030  140.5770 C   0  0  0  0  0  0  0  0  0  0  0  0
  190.0570  177.4480  142.6780 C   0  0  1  0  0  3  0  0  0  0  0  0
  189.8460  177.7230  139.8170 C   0  0  0  0  0  0  0  0  0  0  0  0
  187.6680  177.2050  144.1830 C   0  0  0  0  0  0  0  0  0  0  0  0
  188.0120  178.5760  146.6790 C   0  0  0  0  0  2  0  0  0  0  0  0
  184.4980  178.6290  146.2530 C   0  0  0  0  0  1  0  0  0  0  0  0
  185.5900  178.2210  147.2250 C   0  0  0  0  0  2  0  0  0  0  0  0
  185.9970  178.3500  137.9870 C   0  0  2  0  0  3  0  0  0  0  0  0
  184.2160  177.4950  139.7810 C   0  0  0  0  0  1  0  0  0  0  0  0
  184.8710  178.6120  138.9870 C   0  0  1  0  0  0  0  0  0  0  0  0
  185.1040  179.7530  139.7720 O   0  0  0  0  0  0  0  0  0  0  0  0
  184.0830  179.8430  138.8010 C   0  0  0  0  0  2  0  0  0  0  0  0
  185.6540  177.2790  136.9910 C   0  0  0  0  0  0  0  0  0  0  0  0
  184.8850  177.5030  136.0690 O   0  0  0  0  0  0  0  0  0  0  0  0
  186.2510  175.9230  137.1380 C   0  0  0  0  0  1  0  0  0  0  0  0
  1 16  1  0  0  0  0
  2 19  1  0  0  0  0
  2 21  1  1  0  0  0
  3  2  1  0  0  0  0
  4 15  1  0  0  0  0
  5  1  1  0  0  0  0
  6 13  1  6  0  0  0
  6 12  1  0  0  0  0
  7 16  1  0  0  0  0
  7  8  1  1  0  0  0
  8 18  2  0  0  0  0
  9 17  1  0  0  0  0
 10  9  2  0  0  0  0
 10 14  1  0  0  0  0
 11  5  2  0  0  0  0
 12 19  1  0  0  0  0
 14  4  2  0  0  0  0
 15  7  1  0  0  0  0
 16 13  1  1  0  0  0
 17  5  1  0  0  0  0
 17 15  2  0  0  0  0
 18  6  1  0  0  0  0
 18  3  1  0  0  0  0
 20 21  1  0  0  0  0
 22 27  1  1  0  0  0
 22 14  1  0  0  0  0
 22 24  1  0  0  0  0
 24 25  1  0  0  0  0
 24 23  1  1  0  0  0
 26 24  1  0  0  0  0
 26 25  1  0  0  0  0
 27 29  1  0  0  0  0
 28 27  2  0  0  0  0
M  END
>  <MODEL>
4

>  <REMARK>
 VINA RESULT:      -8.2      2.354      4.199
  Name = 
  4 active torsions:
  status: ('A' for Active; 'I' for Inactive)
    1  A    between atoms: C_2  and  C_16
    2  A    between atoms: C_5  and  C_20
    3  A    between atoms: C_18  and  C_20
    4  A    between atoms: C_20  and  C_24
                            x       y       z     vdW  Elec       q    Type
                         _______ _______ _______ _____ _____    ______ ____

>  <TORSDO>
F 4

$$$$
=
 OpenBabel11062416173D

 29 33  0  0  1  0  0  0  0  0999 V2000
  192.3610  177.1300  141.9030 N   0  0  0  0  0  2  0  0  0  0  0  0
  187.4290  177.4480  146.0200 C   0  0  1  0  0  3  0  0  0  0  0  0
  187.2720  177.1080  144.5370 C   0  0  0  0  0  2  0  0  0  0  0  0
  188.7520  176.7750  139.6550 C   0  0  0  0  0  3  0  0  0  0  0  0
  192.4080  177.2180  140.4780 C   0  0  0  0  0  0  0  0  0  0  0  0
  189.8550  176.9120  144.7700 C   0  0  2  0  0  3  0  0  0  0  0  0
  189.9840  176.5010  141.8600 C   0  0  1  0  0  3  0  0  0  0  0  0
  188.6700  176.7120  142.5660 C   0  0  0  0  0  3  0  0  0  0  0  0
  191.1300  177.4150  138.3350 C   0  0  0  0  0  3  0  0  0  0  0  0
  189.9310  177.3500  137.6230 C   0  0  0  0  0  3  0  0  0  0  0  0
  193.5180  177.3130  139.8900 O   0  0  0  0  0  0  0  0  0  0  0  0
  189.8580  178.1880  145.6180 C   0  0  0  0  0  2  0  0  0  0  0  0
  191.1850  176.7520  144.0180 C   0  0  0  0  0  2  0  0  0  0  0  0
  188.7390  177.0300  138.2770 C   0  0  0  0  0  0  0  0  0  0  0  0
  189.9440  176.8620  140.3900 C   0  0  0  0  0  0  0  0  0  0  0  0
  191.0850  177.2770  142.5920 C   0  0  1  0  0  3  0  0  0  0  0  0
  191.1460  177.1680  139.7140 C   0  0  0  0  0  0  0  0  0  0  0  0
  188.6070  176.8490  143.9000 C   0  0  0  0  0  0  0  0  0  0  0  0
  188.4810  178.5490  146.2080 C   0  0  0  0  0  2  0  0  0  0  0  0
  185.4130  178.8610  145.6300 C   0  0  0  0  0  1  0  0  0  0  0  0
  186.0900  177.8900  146.5800 C   0  0  0  0  0  2  0  0  0  0  0  0
  187.4670  176.9620  137.4830 C   0  0  2  0  0  3  0  0  0  0  0  0
  188.1610  177.2960  134.9280 C   0  0  0  0  0  1  0  0  0  0  0  0
  187.6690  176.4210  136.0680 C   0  0  1  0  0  0  0  0  0  0  0  0
  188.2700  175.1520  136.0590 O   0  0  0  0  0  0  0  0  0  0  0  0
  186.9070  175.2160  135.6970 C   0  0  0  0  0  2  0  0  0  0  0  0
  186.6980  178.2530  137.5080 C   0  0  0  0  0  0  0  0  0  0  0  0
  187.2240  179.3020  137.1710 O   0  0  0  0  0  0  0  0  0  0  0  0
  185.2800  178.2530  137.9640 C   0  0  0  0  0  1  0  0  0  0  0  0
  1 16  1  0  0  0  0
  2 19  1  0  0  0  0
  2 21  1  6  0  0  0
  3  2  1  0  0  0  0
  4 15  1  0  0  0  0
  5  1  1  0  0  0  0
  6 13  1  6  0  0  0
  6 12  1  0  0  0  0
  7  8  1  1  0  0  0
  7 16  1  0  0  0  0
  8 18  2  0  0  0  0
  9 17  1  0  0  0  0
 10 14  1  0  0  0  0
 10  9  2  0  0  0  0
 11  5  2  0  0  0  0
 12 19  1  0  0  0  0
 14  4  2  0  0  0  0
 15  7  1  0  0  0  0
 16 13  1  1  0  0  0
 17 15  2  0  0  0  0
 17  5  1  0  0  0  0
 18  3  1  0  0  0  0
 18  6  1  0  0  0  0
 20 21  1  0  0  0  0
 22 27  1  6  0  0  0
 22 14  1  0  0  0  0
 24 23  1  6  0  0  0
 24 22  1  0  0  0  0
 25 24  1  0  0  0  0
 26 25  1  0  0  0  0
 26 24  1  0  0  0  0
 27 29  1  0  0  0  0
 28 27  2  0  0  0  0
M  END
>  <MODEL>
5

>  <REMARK>
 VINA RESULT:      -8.0      2.318      4.222
  Name = 
  4 active torsions:
  status: ('A' for Active; 'I' for Inactive)
    1  A    between atoms: C_2  and  C_16
    2  A    between atoms: C_5  and  C_20
    3  A    between atoms: C_18  and  C_20
    4  A    between atoms: C_20  and  C_24
                            x       y       z     vdW  Elec       q    Type
                         _______ _______ _______ _____ _____    ______ ____

>  <TORSDO>
F 4

$$$$
=
 OpenBabel11062416173D

 29 33  0  0  1  0  0  0  0  0999 V2000
  181.6120  179.2430  143.2150 N   0  0  0  0  0  2  0  0  0  0  0  0
  187.5450  177.9390  145.3290 C   0  0  1  0  0  3  0  0  0  0  0  0
  187.1080  177.7600  143.8740 C   0  0  0  0  0  2  0  0  0  0  0  0
  183.7540  177.3680  140.0370 C   0  0  0  0  0  3  0  0  0  0  0  0
  180.9060  178.8020  142.0530 C   0  0  0  0  0  0  0  0  0  0  0  0
  185.0850  179.1160  144.7870 C   0  0  2  0  0  3  0  0  0  0  0  0
  183.7830  178.7360  142.1770 C   0  0  1  0  0  3  0  0  0  0  0  0
  185.1520  178.1750  142.4620 C   0  0  0  0  0  3  0  0  0  0  0  0
  180.9650  177.4960  139.9200 C   0  0  0  0  0  3  0  0  0  0  0  0
  181.6770  176.8360  138.9160 C   0  0  0  0  0  3  0  0  0  0  0  0
  179.6750  179.0440  141.9370 O   0  0  0  0  0  0  0  0  0  0  0  0
  185.0980  178.2520  146.0520 C   0  0  0  0  0  2  0  0  0  0  0  0
  183.6670  179.6290  144.4890 C   0  0  0  0  0  2  0  0  0  0  0  0
  183.0720  176.7690  138.9680 C   0  0  0  0  0  0  0  0  0  0  0  0
  183.0510  178.0110  141.0660 C   0  0  0  0  0  0  0  0  0  0  0  0
  182.9590  178.7480  143.4690 C   0  0  1  0  0  3  0  0  0  0  0  0
  181.6430  178.0880  140.9930 C   0  0  0  0  0  0  0  0  0  0  0  0
  185.7660  178.3910  143.6350 C   0  0  0  0  0  0  0  0  0  0  0  0
  186.4250  177.5030  146.2820 C   0  0  0  0  0  2  0  0  0  0  0  0
  189.1590  177.1460  147.0550 C   0  0  0  0  0  1  0  0  0  0  0  0
  188.8030  177.1280  145.5810 C   0  0  0  0  0  2  0  0  0  0  0  0
  183.8090  176.0580  137.8710 C   0  0  2  0  0  3  0  0  0  0  0  0
  182.7730  177.4310  135.8320 C   0  0  0  0  0  1  0  0  0  0  0  0
  183.9670  176.9020  136.6070 C   0  0  1  0  0  0  0  0  0  0  0  0
  184.9890  177.8580  136.7230 O   0  0  0  0  0  0  0  0  0  0  0  0
  185.2320  176.7650  135.8640 C   0  0  0  0  0  2  0  0  0  0  0  0
  183.2550  174.6890  137.5930 C   0  0  0  0  0  0  0  0  0  0  0  0
  182.0600  174.5240  137.4040 O   0  0  0  0  0  0  0  0  0  0  0  0
  184.1750  173.5190  137.5590 C   0  0  0  0  0  1  0  0  0  0  0  0
  1 16  1  0  0  0  0
  2 21  1  1  0  0  0
  2 19  1  0  0  0  0
  3  2  1  0  0  0  0
  4 15  1  0  0  0  0
  5  1  1  0  0  0  0
  6 13  1  6  0  0  0
  6 12  1  0  0  0  0
  7  8  1  1  0  0  0
  7 16  1  0  0  0  0
  8 18  2  0  0  0  0
  9 17  1  0  0  0  0
 10 14  1  0  0  0  0
 10  9  2  0  0  0  0
 11  5  2  0  0  0  0
 12 19  1  0  0  0  0
 14  4  2  0  0  0  0
 15  7  1  0  0  0  0
 16 13  1  1  0  0  0
 17 15  2  0  0  0  0
 17  5  1  0  0  0  0
 18  3  1  0  0  0  0
 18  6  1  0  0  0  0
 21 20  1  0  0  0  0
 22 27  1  6  0  0  0
 22 14  1  0  0  0  0
 24 23  1  6  0  0  0
 24 25  1  0  0  0  0
 24 22  1  0  0  0  0
 26 24  1  0  0  0  0
 26 25  1  0  0  0  0
 28 27  2  0  0  0  0
 29 27  1  0  0  0  0
M  END
>  <MODEL>
6

>  <REMARK>
 VINA RESULT:      -8.0      4.434      7.045
  Name = 
  4 active torsions:
  status: ('A' for Active; 'I' for Inactive)
    1  A    between atoms: C_2  and  C_16
    2  A    between atoms: C_5  and  C_20
    3  A    between atoms: C_18  and  C_20
    4  A    between atoms: C_20  and  C_24
                            x       y       z     vdW  Elec       q    Type
                         _______ _______ _______ _____ _____    ______ ____

>  <TORSDO>
F 4

$$$$
=
 OpenBabel11062416173D

 29 33  0  0  1  0  0  0  0  0999 V2000
  186.4890  178.2390  145.8460 N   0  0  0  0  0  2  0  0  0  0  0  0
  190.4200  177.0340  140.9000 C   0  0  1  0  0  3  0  0  0  0  0  0
  189.0210  177.6330  140.7420 C   0  0  0  0  0  2  0  0  0  0  0  0
  184.3000  178.8910  142.2430 C   0  0  0  0  0  3  0  0  0  0  0  0
  185.0720  178.4140  145.9050 C   0  0  0  0  0  0  0  0  0  0  0  0
  189.3180  177.8590  143.3160 C   0  0  2  0  0  3  0  0  0  0  0  0
  186.5320  178.7950  143.4510 C   0  0  1  0  0  3  0  0  0  0  0  0
  187.1720  178.4210  142.1400 C   0  0  0  0  0  3  0  0  0  0  0  0
  182.9140  178.5720  144.6480 C   0  0  0  0  0  3  0  0  0  0  0  0
  182.2110  178.7290  143.4520 C   0  0  0  0  0  3  0  0  0  0  0  0
  184.4900  178.4590  147.0210 O   0  0  0  0  0  0  0  0  0  0  0  0
  189.9200  176.4510  143.3540 C   0  0  0  0  0  2  0  0  0  0  0  0
  188.6230  178.1930  144.6450 C   0  0  0  0  0  2  0  0  0  0  0  0
  182.8970  178.8890  142.2460 C   0  0  0  0  0  0  0  0  0  0  0  0
  185.0200  178.7070  143.4320 C   0  0  0  0  0  0  0  0  0  0  0  0
  187.1240  177.9320  144.5710 C   0  0  1  0  0  3  0  0  0  0  0  0
  184.3150  178.5650  144.6470 C   0  0  0  0  0  0  0  0  0  0  0  0
  188.4580  178.0420  142.0720 C   0  0  0  0  0  0  0  0  0  0  0  0
  190.4170  175.9480  141.9840 C   0  0  0  0  0  2  0  0  0  0  0  0
  189.8520  176.7510  138.4900 C   0  0  0  0  0  1  0  0  0  0  0  0
  190.8750  176.4570  139.5710 C   0  0  0  0  0  2  0  0  0  0  0  0
  182.1140  179.0630  140.9780 C   0  0  2  0  0  3  0  0  0  0  0  0
  179.7220  178.0520  141.5940 C   0  0  0  0  0  1  0  0  0  0  0  0
  180.6130  179.2230  141.2160 C   0  0  1  0  0  0  0  0  0  0  0  0
  180.3050  180.3810  141.9480 O   0  0  0  0  0  0  0  0  0  0  0  0
  179.9540  180.3780  140.5810 C   0  0  0  0  0  2  0  0  0  0  0  0
  182.4320  178.0120  139.9510 C   0  0  0  0  0  0  0  0  0  0  0  0
  182.5840  176.8450  140.2760 O   0  0  0  0  0  0  0  0  0  0  0  0
  182.5760  178.4040  138.5220 C   0  0  0  0  0  1  0  0  0  0  0  0
  1  5  1  0  0  0  0
  2 21  1  6  0  0  0
  2 19  1  0  0  0  0
  3  2  1  0  0  0  0
  3 18  1  0  0  0  0
  4 14  2  0  0  0  0
  4 15  1  0  0  0  0
  5 11  2  0  0  0  0
  6 12  1  1  0  0  0
  6 13  1  0  0  0  0
  7  8  1  6  0  0  0
  7 16  1  0  0  0  0
 10  9  2  0  0  0  0
 14 10  1  0  0  0  0
 15  7  1  0  0  0  0
 15 17  2  0  0  0  0
 16 13  1  1  0  0  0
 16  1  1  0  0  0  0
 17  9  1  0  0  0  0
 17  5  1  0  0  0  0
 18  8  2  0  0  0  0
 18  6  1  0  0  0  0
 19 12  1  0  0  0  0
 20 21  1  0  0  0  0
 22 27  1  6  0  0  0
 22 24  1  0  0  0  0
 22 14  1  0  0  0  0
 24 23  1  1  0  0  0
 24 25  1  0  0  0  0
 26 24  1  0  0  0  0
 26 25  1  0  0  0  0
 27 28  2  0  0  0  0
 29 27  1  0  0  0  0
M  END
>  <MODEL>
7

>  <REMARK>
 VINA RESULT:      -7.9      3.114      7.280
  Name = 
  4 active torsions:
  status: ('A' for Active; 'I' for Inactive)
    1  A    between atoms: C_2  and  C_16
    2  A    between atoms: C_5  and  C_20
    3  A    between atoms: C_18  and  C_20
    4  A    between atoms: C_20  and  C_24
                            x       y       z     vdW  Elec       q    Type
                         _______ _______ _______ _____ _____    ______ ____

>  <TORSDO>
F 4

$$$$
=
 OpenBabel11062416173D

 29 33  0  0  1  0  0  0  0  0999 V2000
  181.2920  179.0090  144.0300 N   0  0  0  0  0  2  0  0  0  0  0  0
  187.6240  177.8780  144.1260 C   0  0  1  0  0  3  0  0  0  0  0  0
  186.7890  177.9090  142.8440 C   0  0  0  0  0  2  0  0  0  0  0  0
  182.4820  177.8830  140.0910 C   0  0  0  0  0  3  0  0  0  0  0  0
  180.2950  178.7110  143.0510 C   0  0  0  0  0  0  0  0  0  0  0  0
  185.0740  178.9160  144.5200 C   0  0  2  0  0  3  0  0  0  0  0  0
  183.0850  178.8700  142.3530 C   0  0  1  0  0  3  0  0  0  0  0  0
  184.4950  178.3870  142.1350 C   0  0  0  0  0  3  0  0  0  0  0  0
  179.7770  177.7920  140.7820 C   0  0  0  0  0  3  0  0  0  0  0  0
  180.1890  177.3730  139.5160 C   0  0  0  0  0  3  0  0  0  0  0  0
  179.0760  178.8640  143.3300 O   0  0  0  0  0  0  0  0  0  0  0  0
  185.4810  177.8560  145.5480 C   0  0  0  0  0  2  0  0  0  0  0  0
  183.6150  179.3490  144.7290 C   0  0  0  0  0  2  0  0  0  0  0  0
  181.5400  177.4160  139.1630 C   0  0  0  0  0  0  0  0  0  0  0  0
  182.0870  178.2820  141.3760 C   0  0  0  0  0  0  0  0  0  0  0  0
  182.6710  178.5950  143.8030 C   0  0  1  0  0  3  0  0  0  0  0  0
  180.7160  178.2510  141.7140 C   0  0  0  0  0  0  0  0  0  0  0  0
  185.4160  178.4550  143.1090 C   0  0  0  0  0  0  0  0  0  0  0  0
  186.8420  177.1930  145.2550 C   0  0  0  0  0  2  0  0  0  0  0  0
  189.7930  177.1390  145.1070 C   0  0  0  0  0  1  0  0  0  0  0  0
  188.9270  177.1450  143.8610 C   0  0  0  0  0  2  0  0  0  0  0  0
  181.9510  176.9650  137.7920 C   0  0  2  0  0  3  0  0  0  0  0  0
  184.6130  177.0740  137.6340 C   0  0  0  0  0  1  0  0  0  0  0  0
  183.3200  176.2870  137.7680 C   0  0  1  0  0  0  0  0  0  0  0  0
  183.4260  175.2530  138.7120 O   0  0  0  0  0  0  0  0  0  0  0  0
  183.3600  174.8730  137.3540 C   0  0  0  0  0  2  0  0  0  0  0  0
  181.8190  178.0500  136.7610 C   0  0  0  0  0  0  0  0  0  0  0  0
  181.7130  179.2200  137.0930 O   0  0  0  0  0  0  0  0  0  0  0  0
  181.8070  177.6900  135.3160 C   0  0  0  0  0  1  0  0  0  0  0  0
  2 21  1  6  0  0  0
  2 19  1  0  0  0  0
  3 18  1  0  0  0  0
  3  2  1  0  0  0  0
  4 15  1  0  0  0  0
  5 11  2  0  0  0  0
  5  1  1  0  0  0  0
  6 13  1  6  0  0  0
  6 12  1  0  0  0  0
  7  8  1  6  0  0  0
  7 16  1  0  0  0  0
  8 18  2  0  0  0  0
  9 17  1  0  0  0  0
 10  9  2  0  0  0  0
 14 10  1  0  0  0  0
 14  4  2  0  0  0  0
 15 17  2  0  0  0  0
 15  7  1  0  0  0  0
 16  1  1  0  0  0  0
 16 13  1  1  0  0  0
 17  5  1  0  0  0  0
 18  6  1  0  0  0  0
 19 12  1  0  0  0  0
 21 20  1  0  0  0  0
 22 27  1  6  0  0  0
 22 14  1  0  0  0  0
 24 23  1  6  0  0  0
 24 22  1  0  0  0  0
 24 25  1  0  0  0  0
 26 24  1  0  0  0  0
 26 25  1  0  0  0  0
 27 28  2  0  0  0  0
 29 27  1  0  0  0  0
M  END
>  <MODEL>
8

>  <REMARK>
 VINA RESULT:      -7.8      4.335      7.738
  Name = 
  4 active torsions:
  status: ('A' for Active; 'I' for Inactive)
    1  A    between atoms: C_2  and  C_16
    2  A    between atoms: C_5  and  C_20
    3  A    between atoms: C_18  and  C_20
    4  A    between atoms: C_20  and  C_24
                            x       y       z     vdW  Elec       q    Type
                         _______ _______ _______ _____ _____    ______ ____

>  <TORSDO>
F 4

$$$$
=
 OpenBabel11062416173D

 29 33  0  0  1  0  0  0  0  0999 V2000
  185.9720  178.4190  145.3430 N   0  0  0  0  0  2  0  0  0  0  0  0
  190.6470  177.0190  141.1530 C   0  0  1  0  0  3  0  0  0  0  0  0
  189.2850  177.5830  140.7430 C   0  0  0  0  0  2  0  0  0  0  0  0
  184.3740  178.8360  141.4090 C   0  0  0  0  0  3  0  0  0  0  0  0
  184.5620  178.5710  145.1680 C   0  0  0  0  0  0  0  0  0  0  0  0
  189.1690  177.9530  143.3150 C   0  0  2  0  0  3  0  0  0  0  0  0
  186.3880  178.8460  142.9580 C   0  0  1  0  0  3  0  0  0  0  0  0
  187.2310  178.4120  141.7860 C   0  0  0  0  0  3  0  0  0  0  0  0
  182.6290  178.6230  143.5800 C   0  0  0  0  0  3  0  0  0  0  0  0
  182.1220  178.7030  142.2820 C   0  0  0  0  0  3  0  0  0  0  0  0
  183.8110  178.6660  146.1750 O   0  0  0  0  0  0  0  0  0  0  0  0
  189.7700  176.5600  143.5260 C   0  0  0  0  0  2  0  0  0  0  0  0
  188.2690  178.3460  144.4970 C   0  0  0  0  0  2  0  0  0  0  0  0
  182.9900  178.8100  141.1920 C   0  0  0  0  0  0  0  0  0  0  0  0
  184.8990  178.7290  142.7060 C   0  0  0  0  0  0  0  0  0  0  0  0
  186.8040  178.0550  144.2030 C   0  0  1  0  0  3  0  0  0  0  0  0
  184.0120  178.6410  143.8010 C   0  0  0  0  0  0  0  0  0  0  0  0
  188.5150  178.0540  141.9430 C   0  0  0  0  0  0  0  0  0  0  0  0
  190.4820  175.9930  142.2820 C   0  0  0  0  0  2  0  0  0  0  0  0
  190.4820  176.6170  138.6980 C   0  0  0  0  0  1  0  0  0  0  0  0
  191.3110  176.3800  139.9460 C   0  0  0  0  0  2  0  0  0  0  0  0
  182.4150  178.9010  139.8080 C   0  0  2  0  0  3  0  0  0  0  0  0
  183.8100  177.4470  138.0590 C   0  0  0  0  0  1  0  0  0  0  0  0
  182.6210  177.6290  138.9870 C   0  0  1  0  0  0  0  0  0  0  0  0
  182.3370  176.4640  139.7170 O   0  0  0  0  0  0  0  0  0  0  0  0
  181.4260  176.8170  138.6980 C   0  0  0  0  0  2  0  0  0  0  0  0
  182.8480  180.1420  139.0800 C   0  0  0  0  0  0  0  0  0  0  0  0
  184.0150  180.5000  139.0930 O   0  0  0  0  0  0  0  0  0  0  0  0
  181.8370  180.9510  138.3450 C   0  0  0  0  0  1  0  0  0  0  0  0
  2 21  1  6  0  0  0
  2 19  1  0  0  0  0
  3  2  1  0  0  0  0
  3 18  1  0  0  0  0
  4 15  1  0  0  0  0
  5  1  1  0  0  0  0
  5 11  2  0  0  0  0
  6 12  1  1  0  0  0
  6 13  1  0  0  0  0
  7  8  1  6  0  0  0
  7 16  1  0  0  0  0
  8 18  2  0  0  0  0
  9 17  1  0  0  0  0
 10  9  2  0  0  0  0
 14  4  2  0  0  0  0
 14 10  1  0  0  0  0
 15  7  1  0  0  0  0
 15 17  2  0  0  0  0
 16 13  1  1  0  0  0
 16  1  1  0  0  0  0
 17  5  1  0  0  0  0
 18  6  1  0  0  0  0
 19 12  1  0  0  0  0
 20 21  1  0  0  0  0
 22 27  1  6  0  0  0
 22 14  1  0  0  0  0
 24 23  1  6  0  0  0
 24 25  1  0  0  0  0
 24 22  1  0  0  0  0
 26 24  1  0  0  0  0
 26 25  1  0  0  0  0
 27 28  2  0  0  0  0
 29 27  1  0  0  0  0
M  END
>  <MODEL>
9

>  <REMARK>
 VINA RESULT:      -7.8      3.200      7.025
  Name = 
  4 active torsions:
  status: ('A' for Active; 'I' for Inactive)
    1  A    between atoms: C_2  and  C_16
    2  A    between atoms: C_5  and  C_20
    3  A    between atoms: C_18  and  C_20
    4  A    between atoms: C_20  and  C_24
                            x       y       z     vdW  Elec       q    Type
                         _______ _______ _______ _____ _____    ______ ____

>  <TORSDO>
F 4

$$$$
