=
 OpenBabel11062413533D

 25 27  0  0  0  0  0  0  0  0999 V2000
  186.9230  177.9970  145.5060 C   0  0  0  0  0  3  0  0  0  0  0  0
  185.9160  178.2900  146.3250 C   0  0  0  0  0  3  0  0  0  0  0  0
  188.2670  177.6170  145.9780 C   0  0  0  0  0  0  0  0  0  0  0  0
  188.5090  177.5280  147.3600 C   0  0  0  0  0  3  0  0  0  0  0  0
  190.5800  176.9720  145.5860 C   0  0  0  0  0  3  0  0  0  0  0  0
  189.3250  177.3360  145.0680 C   0  0  0  0  0  0  0  0  0  0  0  0
  189.7640  177.1670  147.8480 C   0  0  0  0  0  3  0  0  0  0  0  0
  190.8000  176.8880  146.9610 C   0  0  0  0  0  0  0  0  0  0  0  0
  192.0810  176.5190  147.4550 N   0  0  0  0  0  1  0  0  0  0  0  0
  188.8560  176.3820  142.8210 C   0  0  0  0  0  3  0  0  0  0  0  0
  188.7910  176.7990  141.5420 N   0  0  0  0  0  0  0  0  0  0  0  0
  189.0720  178.1170  141.6210 C   0  0  0  0  0  3  0  0  0  0  0  0
  189.3000  178.4930  142.8920 N   0  0  0  0  0  0  0  0  0  0  0  0
  189.1630  177.4090  143.6350 N   0  0  0  0  0  0  0  0  0  0  0  0
  184.5790  178.6720  145.7850 C   0  0  0  0  0  2  0  0  0  0  0  0
  184.7000  179.4020  144.4520 C   0  0  0  0  0  2  0  0  0  0  0  0
  183.6390  178.9580  143.4980 C   0  0  0  0  0  0  0  0  0  0  0  0
  182.4920  178.6830  143.9410 O   0  0  0  0  0  0  0  0  0  0  0  0
  183.7100  178.3600  138.3800 O   0  0  0  0  0  0  0  0  0  0  0  0
  182.6150  178.5380  140.8360 S   0  0  0  0  0  0  0  0  0  0  0  0
  185.1430  178.8870  141.6150 N   0  0  0  0  0  0  0  0  0  0  0  0
  183.9260  178.8170  142.0610 C   0  0  0  0  0  0  0  0  0  0  0  0
  183.9070  178.5250  139.6120 C   0  0  0  0  0  0  0  0  0  0  0  0
  186.2840  178.7600  139.5650 O   0  0  0  0  0  0  0  0  0  0  0  0
  185.2020  178.7270  140.2100 C   0  0  0  0  0  0  0  0  0  0  0  0
  1  3  1  0  0  0  0
  1  2  2  0  0  0  0
  3  4  1  0  0  0  0
  4  7  2  0  0  0  0
  5  8  2  0  0  0  0
  6  5  1  0  0  0  0
  6  3  2  0  0  0  0
  8  9  1  0  0  0  0
  8  7  1  0  0  0  0
 10 14  1  0  0  0  0
 11 12  1  0  0  0  0
 11 10  2  0  0  0  0
 12 13  2  0  0  0  0
 13 14  1  0  0  0  0
 14  6  1  0  0  0  0
 15  2  1  0  0  0  0
 16 15  1  0  0  0  0
 17 18  2  0  0  0  0
 17 16  1  0  0  0  0
 19 23  2  0  0  0  0
 20 22  1  0  0  0  0
 21 22  2  0  0  0  0
 22 17  1  0  0  0  0
 23 25  1  0  0  0  0
 23 20  1  0  0  0  0
 24 25  2  0  0  0  0
 25 21  1  0  0  0  0
M  END
>  <MODEL>
1

>  <REMARK>
 VINA RESULT:      -8.3      0.000      0.000
  Name = 
  6 active torsions:
  status: ('A' for Active; 'I' for Inactive)
    1  A    between atoms: C_1  and  C_2
    2  A    between atoms: C_7  and  C_10
    3  A    between atoms: C_7  and  C_25
    4  A    between atoms: C_10  and  C_16
    5  A    between atoms: C_13  and  N_21
    6  A    between atoms: C_14  and  C_16
                            x       y       z     vdW  Elec       q    Type
                         _______ _______ _______ _____ _____    ______ ____

>  <TORSDO>
F 6

$$$$
=
 OpenBabel11062413533D

 25 27  0  0  0  0  0  0  0  0999 V2000
  186.9090  177.9510  145.5810 C   0  0  0  0  0  3  0  0  0  0  0  0
  185.9000  178.2980  146.3760 C   0  0  0  0  0  3  0  0  0  0  0  0
  188.2530  177.6050  146.0800 C   0  0  0  0  0  0  0  0  0  0  0  0
  188.4750  177.5480  147.4670 C   0  0  0  0  0  3  0  0  0  0  0  0
  190.5830  176.9970  145.7360 C   0  0  0  0  0  3  0  0  0  0  0  0
  189.3290  177.3270  145.1920 C   0  0  0  0  0  0  0  0  0  0  0  0
  189.7290  177.2200  147.9810 C   0  0  0  0  0  3  0  0  0  0  0  0
  190.7840  176.9440  147.1150 C   0  0  0  0  0  0  0  0  0  0  0  0
  192.0630  176.6090  147.6350 N   0  0  0  0  0  1  0  0  0  0  0  0
  188.7010  176.3810  142.9800 C   0  0  0  0  0  3  0  0  0  0  0  0
  188.7160  176.7500  141.6840 N   0  0  0  0  0  0  0  0  0  0  0  0
  189.2330  177.9970  141.7130 C   0  0  0  0  0  3  0  0  0  0  0  0
  189.5230  178.3770  142.9710 N   0  0  0  0  0  0  0  0  0  0  0  0
  189.1880  177.3680  143.7550 N   0  0  0  0  0  0  0  0  0  0  0  0
  184.5630  178.6400  145.8090 C   0  0  0  0  0  2  0  0  0  0  0  0
  184.6900  179.3940  144.4900 C   0  0  0  0  0  2  0  0  0  0  0  0
  183.6370  178.9640  143.5220 C   0  0  0  0  0  0  0  0  0  0  0  0
  182.4910  178.6690  143.9550 O   0  0  0  0  0  0  0  0  0  0  0  0
  185.5580  178.7410  138.7450 O   0  0  0  0  0  0  0  0  0  0  0  0
  185.6160  179.0100  141.4270 S   0  0  0  0  0  0  0  0  0  0  0  0
  182.9790  178.6590  141.2220 N   0  0  0  0  0  0  0  0  0  0  0  0
  183.9290  178.8610  142.0830 C   0  0  0  0  0  0  0  0  0  0  0  0
  184.8970  178.7630  139.8160 C   0  0  0  0  0  0  0  0  0  0  0  0
  182.7200  178.4020  138.9020 O   0  0  0  0  0  0  0  0  0  0  0  0
  183.4690  178.5920  139.8970 C   0  0  0  0  0  0  0  0  0  0  0  0
  1  3  1  0  0  0  0
  1  2  2  0  0  0  0
  3  4  1  0  0  0  0
  4  7  2  0  0  0  0
  5  8  2  0  0  0  0
  6  5  1  0  0  0  0
  6  3  2  0  0  0  0
  8  9  1  0  0  0  0
  8  7  1  0  0  0  0
 10 14  1  0  0  0  0
 11 12  1  0  0  0  0
 11 10  2  0  0  0  0
 12 13  2  0  0  0  0
 13 14  1  0  0  0  0
 14  6  1  0  0  0  0
 15  2  1  0  0  0  0
 16 15  1  0  0  0  0
 17 18  2  0  0  0  0
 17 16  1  0  0  0  0
 19 23  2  0  0  0  0
 20 22  1  0  0  0  0
 21 22  2  0  0  0  0
 22 17  1  0  0  0  0
 23 25  1  0  0  0  0
 23 20  1  0  0  0  0
 24 25  2  0  0  0  0
 25 21  1  0  0  0  0
M  END
>  <MODEL>
2

>  <REMARK>
 VINA RESULT:      -8.3      0.844      1.200
  Name = 
  6 active torsions:
  status: ('A' for Active; 'I' for Inactive)
    1  A    between atoms: C_1  and  C_2
    2  A    between atoms: C_7  and  C_10
    3  A    between atoms: C_7  and  C_25
    4  A    between atoms: C_10  and  C_16
    5  A    between atoms: C_13  and  N_21
    6  A    between atoms: C_14  and  C_16
                            x       y       z     vdW  Elec       q    Type
                         _______ _______ _______ _____ _____    ______ ____

>  <TORSDO>
F 6

$$$$
=
 OpenBabel11062413533D

 25 27  0  0  0  0  0  0  0  0999 V2000
  187.1720  178.0850  145.8980 C   0  0  0  0  0  3  0  0  0  0  0  0
  187.2560  178.1210  147.2260 C   0  0  0  0  0  3  0  0  0  0  0  0
  185.9170  178.3160  145.1590 C   0  0  0  0  0  0  0  0  0  0  0  0
  184.7680  178.7110  145.8670 C   0  0  0  0  0  3  0  0  0  0  0  0
  184.6150  178.3940  143.1060 C   0  0  0  0  0  3  0  0  0  0  0  0
  185.8410  178.1510  143.7490 C   0  0  0  0  0  0  0  0  0  0  0  0
  183.5630  178.9450  145.2070 C   0  0  0  0  0  3  0  0  0  0  0  0
  183.4860  178.7870  143.8250 C   0  0  0  0  0  0  0  0  0  0  0  0
  182.2590  179.0250  143.1480 N   0  0  0  0  0  1  0  0  0  0  0  0
  187.7460  176.6640  143.1640 C   0  0  0  0  0  3  0  0  0  0  0  0
  188.7140  176.5850  142.2310 N   0  0  0  0  0  0  0  0  0  0  0  0
  188.4910  177.6610  141.4460 C   0  0  0  0  0  3  0  0  0  0  0  0
  187.4320  178.3690  141.8790 N   0  0  0  0  0  0  0  0  0  0  0  0
  186.9720  177.7430  142.9470 N   0  0  0  0  0  0  0  0  0  0  0  0
  188.5570  177.8750  147.9160 C   0  0  0  0  0  2  0  0  0  0  0  0
  189.1860  176.5600  147.4720 C   0  0  0  0  0  2  0  0  0  0  0  0
  190.6070  176.7570  147.0550 C   0  0  0  0  0  0  0  0  0  0  0  0
  191.5240  176.5860  147.9030 O   0  0  0  0  0  0  0  0  0  0  0  0
  192.0860  177.3110  142.1500 O   0  0  0  0  0  0  0  0  0  0  0  0
  191.6970  176.0280  144.4880 S   0  0  0  0  0  0  0  0  0  0  0  0
  190.7080  178.3780  145.2730 N   0  0  0  0  0  0  0  0  0  0  0  0
  190.9420  177.1690  145.6820 C   0  0  0  0  0  0  0  0  0  0  0  0
  191.6670  177.3840  143.3340 C   0  0  0  0  0  0  0  0  0  0  0  0
  190.9660  179.6670  143.3270 O   0  0  0  0  0  0  0  0  0  0  0  0
  191.1010  178.5680  143.9270 C   0  0  0  0  0  0  0  0  0  0  0  0
  1  2  2  0  0  0  0
  2 15  1  0  0  0  0
  3  4  1  0  0  0  0
  3  1  1  0  0  0  0
  5  6  1  0  0  0  0
  5  8  2  0  0  0  0
  6  3  2  0  0  0  0
  7  4  2  0  0  0  0
  8  7  1  0  0  0  0
  9  8  1  0  0  0  0
 11 10  2  0  0  0  0
 12 13  2  0  0  0  0
 12 11  1  0  0  0  0
 13 14  1  0  0  0  0
 14 10  1  0  0  0  0
 14  6  1  0  0  0  0
 16 15  1  0  0  0  0
 17 16  1  0  0  0  0
 17 18  2  0  0  0  0
 19 23  2  0  0  0  0
 20 22  1  0  0  0  0
 21 22  2  0  0  0  0
 22 17  1  0  0  0  0
 23 25  1  0  0  0  0
 23 20  1  0  0  0  0
 24 25  2  0  0  0  0
 25 21  1  0  0  0  0
M  END
>  <MODEL>
3

>  <REMARK>
 VINA RESULT:      -8.3      3.740      6.384
  Name = 
  6 active torsions:
  status: ('A' for Active; 'I' for Inactive)
    1  A    between atoms: C_1  and  C_2
    2  A    between atoms: C_7  and  C_10
    3  A    between atoms: C_7  and  C_25
    4  A    between atoms: C_10  and  C_16
    5  A    between atoms: C_13  and  N_21
    6  A    between atoms: C_14  and  C_16
                            x       y       z     vdW  Elec       q    Type
                         _______ _______ _______ _____ _____    ______ ____

>  <TORSDO>
F 6

$$$$
=
 OpenBabel11062413533D

 25 27  0  0  0  0  0  0  0  0999 V2000
  188.0260  177.7670  144.6820 C   0  0  0  0  0  3  0  0  0  0  0  0
  186.8030  177.8910  145.1910 C   0  0  0  0  0  3  0  0  0  0  0  0
  189.1960  177.3520  145.4780 C   0  0  0  0  0  0  0  0  0  0  0  0
  189.1060  177.3500  146.8810 C   0  0  0  0  0  3  0  0  0  0  0  0
  191.4890  176.5630  145.6770 C   0  0  0  0  0  3  0  0  0  0  0  0
  190.4140  176.9540  144.8590 C   0  0  0  0  0  0  0  0  0  0  0  0
  190.1860  176.9600  147.6700 C   0  0  0  0  0  3  0  0  0  0  0  0
  191.3790  176.5660  147.0680 C   0  0  0  0  0  0  0  0  0  0  0  0
  192.4830  176.1670  147.8690 N   0  0  0  0  0  1  0  0  0  0  0  0
  190.1350  175.9860  142.5870 C   0  0  0  0  0  3  0  0  0  0  0  0
  190.4860  176.2730  141.3180 N   0  0  0  0  0  0  0  0  0  0  0  0
  191.1750  177.4290  141.4310 C   0  0  0  0  0  3  0  0  0  0  0  0
  191.2430  177.8340  142.7120 N   0  0  0  0  0  0  0  0  0  0  0  0
  190.5930  176.9320  143.4260 N   0  0  0  0  0  0  0  0  0  0  0  0
  185.6580  178.3190  144.3340 C   0  0  0  0  0  2  0  0  0  0  0  0
  185.7650  177.7420  142.9280 C   0  0  0  0  0  2  0  0  0  0  0  0
  185.7860  178.8270  141.9010 C   0  0  0  0  0  0  0  0  0  0  0  0
  185.3340  179.9640  142.2020 O   0  0  0  0  0  0  0  0  0  0  0  0
  186.6890  177.9840  136.8980 O   0  0  0  0  0  0  0  0  0  0  0  0
  185.2090  178.4450  139.1030 S   0  0  0  0  0  0  0  0  0  0  0  0
  187.5760  178.4370  140.3340 N   0  0  0  0  0  0  0  0  0  0  0  0
  186.3030  178.5760  140.5460 C   0  0  0  0  0  0  0  0  0  0  0  0
  186.6830  178.1740  138.1420 C   0  0  0  0  0  0  0  0  0  0  0  0
  189.0350  178.0380  138.5360 O   0  0  0  0  0  0  0  0  0  0  0  0
  187.8630  178.2030  138.9680 C   0  0  0  0  0  0  0  0  0  0  0  0
  1  2  2  0  0  0  0
  1  3  1  0  0  0  0
  3  4  1  0  0  0  0
  4  7  2  0  0  0  0
  5  8  2  0  0  0  0
  6  3  2  0  0  0  0
  6  5  1  0  0  0  0
  8  7  1  0  0  0  0
  8  9  1  0  0  0  0
 10 14  1  0  0  0  0
 11 12  1  0  0  0  0
 11 10  2  0  0  0  0
 12 13  2  0  0  0  0
 13 14  1  0  0  0  0
 14  6  1  0  0  0  0
 15  2  1  0  0  0  0
 16 15  1  0  0  0  0
 17 18  2  0  0  0  0
 17 16  1  0  0  0  0
 19 23  2  0  0  0  0
 20 22  1  0  0  0  0
 21 22  2  0  0  0  0
 22 17  1  0  0  0  0
 23 25  1  0  0  0  0
 23 20  1  0  0  0  0
 24 25  2  0  0  0  0
 25 21  1  0  0  0  0
M  END
>  <MODEL>
4

>  <REMARK>
 VINA RESULT:      -8.2      1.940      2.194
  Name = 
  6 active torsions:
  status: ('A' for Active; 'I' for Inactive)
    1  A    between atoms: C_1  and  C_2
    2  A    between atoms: C_7  and  C_10
    3  A    between atoms: C_7  and  C_25
    4  A    between atoms: C_10  and  C_16
    5  A    between atoms: C_13  and  N_21
    6  A    between atoms: C_14  and  C_16
                            x       y       z     vdW  Elec       q    Type
                         _______ _______ _______ _____ _____    ______ ____

>  <TORSDO>
F 6

$$$$
=
 OpenBabel11062413533D

 25 27  0  0  0  0  0  0  0  0999 V2000
  184.7550  178.9750  144.7820 C   0  0  0  0  0  3  0  0  0  0  0  0
  184.6410  178.5930  146.0520 C   0  0  0  0  0  3  0  0  0  0  0  0
  183.6600  178.8630  143.8010 C   0  0  0  0  0  0  0  0  0  0  0  0
  182.3290  178.9450  144.2470 C   0  0  0  0  0  3  0  0  0  0  0  0
  182.8260  178.5830  141.5330 C   0  0  0  0  0  3  0  0  0  0  0  0
  183.9180  178.6750  142.4150 C   0  0  0  0  0  0  0  0  0  0  0  0
  181.2640  178.8500  143.3520 C   0  0  0  0  0  3  0  0  0  0  0  0
  181.5130  178.6690  141.9940 C   0  0  0  0  0  0  0  0  0  0  0  0
  180.4300  178.5710  141.0790 N   0  0  0  0  0  1  0  0  0  0  0  0
  185.6280  178.9140  140.6270 C   0  0  0  0  0  3  0  0  0  0  0  0
  186.9450  178.6880  140.4540 N   0  0  0  0  0  0  0  0  0  0  0  0
  187.3450  178.1980  141.6470 C   0  0  0  0  0  3  0  0  0  0  0  0
  186.3180  178.1270  142.5140 N   0  0  0  0  0  0  0  0  0  0  0  0
  185.2530  178.5750  141.8740 N   0  0  0  0  0  0  0  0  0  0  0  0
  185.7890  178.7290  146.9960 C   0  0  0  0  0  2  0  0  0  0  0  0
  186.7290  177.5320  146.9120 C   0  0  0  0  0  2  0  0  0  0  0  0
  188.0800  177.8700  147.4530 C   0  0  0  0  0  0  0  0  0  0  0  0
  188.1640  178.5560  148.5060 O   0  0  0  0  0  0  0  0  0  0  0  0
  191.8990  176.5830  144.2410 O   0  0  0  0  0  0  0  0  0  0  0  0
  189.4670  177.5020  144.9530 S   0  0  0  0  0  0  0  0  0  0  0  0
  190.3180  176.9730  147.4260 N   0  0  0  0  0  0  0  0  0  0  0  0
  189.3020  177.4320  146.7600 C   0  0  0  0  0  0  0  0  0  0  0  0
  191.1000  176.8300  145.1820 C   0  0  0  0  0  0  0  0  0  0  0  0
  192.4740  176.1390  147.0100 O   0  0  0  0  0  0  0  0  0  0  0  0
  191.3890  176.6090  146.5760 C   0  0  0  0  0  0  0  0  0  0  0  0
  1  2  2  0  0  0  0
  2 15  1  0  0  0  0
  3  4  1  0  0  0  0
  3  1  1  0  0  0  0
  5  8  2  0  0  0  0
  5  6  1  0  0  0  0
  6  3  2  0  0  0  0
  7  4  2  0  0  0  0
  8  7  1  0  0  0  0
  9  8  1  0  0  0  0
 10 14  1  0  0  0  0
 11 10  2  0  0  0  0
 11 12  1  0  0  0  0
 12 13  2  0  0  0  0
 14  6  1  0  0  0  0
 14 13  1  0  0  0  0
 16 15  1  0  0  0  0
 16 17  1  0  0  0  0
 17 18  2  0  0  0  0
 19 23  2  0  0  0  0
 20 23  1  0  0  0  0
 20 22  1  0  0  0  0
 22 21  2  0  0  0  0
 22 17  1  0  0  0  0
 23 25  1  0  0  0  0
 25 24  2  0  0  0  0
 25 21  1  0  0  0  0
M  END
>  <MODEL>
5

>  <REMARK>
 VINA RESULT:      -7.9      3.670      7.257
  Name = 
  6 active torsions:
  status: ('A' for Active; 'I' for Inactive)
    1  A    between atoms: C_1  and  C_2
    2  A    between atoms: C_7  and  C_10
    3  A    between atoms: C_7  and  C_25
    4  A    between atoms: C_10  and  C_16
    5  A    between atoms: C_13  and  N_21
    6  A    between atoms: C_14  and  C_16
                            x       y       z     vdW  Elec       q    Type
                         _______ _______ _______ _____ _____    ______ ____

>  <TORSDO>
F 6

$$$$
=
 OpenBabel11062413533D

 25 27  0  0  0  0  0  0  0  0999 V2000
  187.9230  177.8740  144.8150 C   0  0  0  0  0  3  0  0  0  0  0  0
  186.7160  177.9850  145.3650 C   0  0  0  0  0  3  0  0  0  0  0  0
  189.1160  177.4340  145.5620 C   0  0  0  0  0  0  0  0  0  0  0  0
  189.0810  177.4260  146.9680 C   0  0  0  0  0  3  0  0  0  0  0  0
  191.3990  176.6010  145.6680 C   0  0  0  0  0  3  0  0  0  0  0  0
  190.3000  177.0150  144.8940 C   0  0  0  0  0  0  0  0  0  0  0  0
  190.1850  177.0130  147.7110 C   0  0  0  0  0  3  0  0  0  0  0  0
  191.3450  176.5990  147.0610 C   0  0  0  0  0  0  0  0  0  0  0  0
  192.4730  176.1760  147.8160 N   0  0  0  0  0  1  0  0  0  0  0  0
  189.9010  176.0710  142.6300 C   0  0  0  0  0  3  0  0  0  0  0  0
  190.2110  176.3540  141.3490 N   0  0  0  0  0  0  0  0  0  0  0  0
  190.9410  177.4870  141.4400 C   0  0  0  0  0  3  0  0  0  0  0  0
  191.0730  177.8810  142.7200 N   0  0  0  0  0  0  0  0  0  0  0  0
  190.4220  176.9960  143.4550 N   0  0  0  0  0  0  0  0  0  0  0  0
  185.5480  178.4400  144.5570 C   0  0  0  0  0  2  0  0  0  0  0  0
  185.5910  177.8750  143.1420 C   0  0  0  0  0  2  0  0  0  0  0  0
  184.9100  178.7900  142.1760 C   0  0  0  0  0  0  0  0  0  0  0  0
  185.5810  179.6960  141.6130 O   0  0  0  0  0  0  0  0  0  0  0  0
  180.1520  177.9630  140.3760 O   0  0  0  0  0  0  0  0  0  0  0  0
  182.8480  177.9610  140.3400 S   0  0  0  0  0  0  0  0  0  0  0  0
  182.5860  179.0430  142.7660 N   0  0  0  0  0  0  0  0  0  0  0  0
  183.4710  178.6590  141.8970 C   0  0  0  0  0  0  0  0  0  0  0  0
  181.2150  178.2440  140.9910 C   0  0  0  0  0  0  0  0  0  0  0  0
  180.2490  179.1320  142.9870 O   0  0  0  0  0  0  0  0  0  0  0  0
  181.2650  178.8310  142.3050 C   0  0  0  0  0  0  0  0  0  0  0  0
  1  2  2  0  0  0  0
  1  3  1  0  0  0  0
  3  4  1  0  0  0  0
  4  7  2  0  0  0  0
  5  8  2  0  0  0  0
  6  3  2  0  0  0  0
  6  5  1  0  0  0  0
  8  7  1  0  0  0  0
  8  9  1  0  0  0  0
 10 14  1  0  0  0  0
 11 12  1  0  0  0  0
 11 10  2  0  0  0  0
 12 13  2  0  0  0  0
 13 14  1  0  0  0  0
 14  6  1  0  0  0  0
 15  2  1  0  0  0  0
 16 15  1  0  0  0  0
 17 16  1  0  0  0  0
 18 17  2  0  0  0  0
 19 23  2  0  0  0  0
 20 23  1  0  0  0  0
 20 22  1  0  0  0  0
 22 17  1  0  0  0  0
 22 21  2  0  0  0  0
 23 25  1  0  0  0  0
 25 21  1  0  0  0  0
 25 24  2  0  0  0  0
M  END
>  <MODEL>
6

>  <REMARK>
 VINA RESULT:      -7.9      1.768      2.449
  Name = 
  6 active torsions:
  status: ('A' for Active; 'I' for Inactive)
    1  A    between atoms: C_1  and  C_2
    2  A    between atoms: C_7  and  C_10
    3  A    between atoms: C_7  and  C_25
    4  A    between atoms: C_10  and  C_16
    5  A    between atoms: C_13  and  N_21
    6  A    between atoms: C_14  and  C_16
                            x       y       z     vdW  Elec       q    Type
                         _______ _______ _______ _____ _____    ______ ____

>  <TORSDO>
F 6

$$$$
=
 OpenBabel11062413533D

 25 27  0  0  0  0  0  0  0  0999 V2000
  186.2420  177.9020  143.4450 C   0  0  0  0  0  3  0  0  0  0  0  0
  184.9780  178.2830  143.2830 C   0  0  0  0  0  3  0  0  0  0  0  0
  186.9220  177.8860  144.7540 C   0  0  0  0  0  0  0  0  0  0  0  0
  186.1880  178.1980  145.9120 C   0  0  0  0  0  3  0  0  0  0  0  0
  188.8850  177.5580  146.1530 C   0  0  0  0  0  3  0  0  0  0  0  0
  188.3020  177.5610  144.8740 C   0  0  0  0  0  0  0  0  0  0  0  0
  186.7900  178.1890  147.1690 C   0  0  0  0  0  3  0  0  0  0  0  0
  188.1400  177.8680  147.2900 C   0  0  0  0  0  0  0  0  0  0  0  0
  188.7580  177.8580  148.5700 N   0  0  0  0  0  1  0  0  0  0  0  0
  189.3100  176.0050  143.2180 C   0  0  0  0  0  3  0  0  0  0  0  0
  190.1500  176.0580  142.1650 N   0  0  0  0  0  0  0  0  0  0  0  0
  190.4660  177.3680  142.0730 C   0  0  0  0  0  3  0  0  0  0  0  0
  189.8480  178.0870  143.0280 N   0  0  0  0  0  0  0  0  0  0  0  0
  189.1300  177.2340  143.7360 N   0  0  0  0  0  0  0  0  0  0  0  0
  184.3470  178.2810  141.9310 C   0  0  0  0  0  2  0  0  0  0  0  0
  185.2560  178.9210  140.8880 C   0  0  0  0  0  2  0  0  0  0  0  0
  184.6000  178.9460  139.5450 C   0  0  0  0  0  0  0  0  0  0  0  0
  183.4690  179.4870  139.4260 O   0  0  0  0  0  0  0  0  0  0  0  0
  186.0450  176.3300  135.3460 O   0  0  0  0  0  0  0  0  0  0  0  0
  184.3920  177.1210  137.3230 S   0  0  0  0  0  0  0  0  0  0  0  0
  186.4690  178.6280  138.0550 N   0  0  0  0  0  0  0  0  0  0  0  0
  185.2480  178.3280  138.3770 C   0  0  0  0  0  0  0  0  0  0  0  0
  185.8920  177.0530  136.3660 C   0  0  0  0  0  0  0  0  0  0  0  0
  188.0540  178.0660  136.4150 O   0  0  0  0  0  0  0  0  0  0  0  0
  186.9010  177.9270  136.9040 C   0  0  0  0  0  0  0  0  0  0  0  0
  1  3  1  0  0  0  0
  2  1  2  0  0  0  0
  3  6  2  0  0  0  0
  3  4  1  0  0  0  0
  4  7  2  0  0  0  0
  5  8  2  0  0  0  0
  6  5  1  0  0  0  0
  7  8  1  0  0  0  0
  8  9  1  0  0  0  0
 10 14  1  0  0  0  0
 11 10  2  0  0  0  0
 12 11  1  0  0  0  0
 12 13  2  0  0  0  0
 13 14  1  0  0  0  0
 14  6  1  0  0  0  0
 15  2  1  0  0  0  0
 16 15  1  0  0  0  0
 17 16  1  0  0  0  0
 18 17  2  0  0  0  0
 19 23  2  0  0  0  0
 20 22  1  0  0  0  0
 21 22  2  0  0  0  0
 22 17  1  0  0  0  0
 23 25  1  0  0  0  0
 23 20  1  0  0  0  0
 24 25  2  0  0  0  0
 25 21  1  0  0  0  0
M  END
>  <MODEL>
7

>  <REMARK>
 VINA RESULT:      -7.7      2.320      3.148
  Name = 
  6 active torsions:
  status: ('A' for Active; 'I' for Inactive)
    1  A    between atoms: C_1  and  C_2
    2  A    between atoms: C_7  and  C_10
    3  A    between atoms: C_7  and  C_25
    4  A    between atoms: C_10  and  C_16
    5  A    between atoms: C_13  and  N_21
    6  A    between atoms: C_14  and  C_16
                            x       y       z     vdW  Elec       q    Type
                         _______ _______ _______ _____ _____    ______ ____

>  <TORSDO>
F 6

$$$$
=
 OpenBabel11062413533D

 25 27  0  0  0  0  0  0  0  0999 V2000
  188.4270  177.5070  143.7120 C   0  0  0  0  0  3  0  0  0  0  0  0
  188.7130  176.3240  143.1750 C   0  0  0  0  0  3  0  0  0  0  0  0
  187.0690  177.8970  144.1360 C   0  0  0  0  0  0  0  0  0  0  0  0
  186.0720  178.0810  143.1610 C   0  0  0  0  0  3  0  0  0  0  0  0
  185.4270  178.4550  145.8420 C   0  0  0  0  0  3  0  0  0  0  0  0
  186.7430  178.0910  145.5070 C   0  0  0  0  0  0  0  0  0  0  0  0
  184.7750  178.4440  143.5190 C   0  0  0  0  0  3  0  0  0  0  0  0
  184.4520  178.6310  144.8610 C   0  0  0  0  0  0  0  0  0  0  0  0
  183.1300  179.0010  145.2300 N   0  0  0  0  0  1  0  0  0  0  0  0
  188.9770  177.5070  146.4280 C   0  0  0  0  0  3  0  0  0  0  0  0
  189.5950  177.4640  147.6250 N   0  0  0  0  0  0  0  0  0  0  0  0
  188.6440  177.8760  148.4910 C   0  0  0  0  0  3  0  0  0  0  0  0
  187.4930  178.1580  147.8540 N   0  0  0  0  0  0  0  0  0  0  0  0
  187.7070  177.9280  146.5710 N   0  0  0  0  0  0  0  0  0  0  0  0
  190.1080  175.9900  142.7620 C   0  0  0  0  0  2  0  0  0  0  0  0
  190.9240  177.2460  142.4800 C   0  0  0  0  0  2  0  0  0  0  0  0
  191.2160  177.3810  141.0210 C   0  0  0  0  0  0  0  0  0  0  0  0
  192.4110  177.5100  140.6440 O   0  0  0  0  0  0  0  0  0  0  0  0
  187.9380  176.7890  137.0880 O   0  0  0  0  0  0  0  0  0  0  0  0
  190.1830  176.3790  138.5230 S   0  0  0  0  0  0  0  0  0  0  0  0
  189.0760  178.1320  140.2030 N   0  0  0  0  0  0  0  0  0  0  0  0
  190.1270  177.3900  140.0310 C   0  0  0  0  0  0  0  0  0  0  0  0
  188.5920  177.0730  138.1260 C   0  0  0  0  0  0  0  0  0  0  0  0
  187.0600  178.6250  139.1010 O   0  0  0  0  0  0  0  0  0  0  0  0
  188.1510  177.9960  139.1400 C   0  0  0  0  0  0  0  0  0  0  0  0
  1  3  1  0  0  0  0
  2  1  2  0  0  0  0
  3  6  1  0  0  0  0
  4  7  1  0  0  0  0
  4  3  2  0  0  0  0
  6  5  2  0  0  0  0
  6 14  1  0  0  0  0
  7  8  2  0  0  0  0
  8  9  1  0  0  0  0
  8  5  1  0  0  0  0
 10 14  1  0  0  0  0
 10 11  2  0  0  0  0
 11 12  1  0  0  0  0
 13 12  2  0  0  0  0
 14 13  1  0  0  0  0
 15  2  1  0  0  0  0
 16 15  1  0  0  0  0
 17 16  1  0  0  0  0
 18 17  2  0  0  0  0
 19 23  2  0  0  0  0
 20 22  1  0  0  0  0
 22 21  2  0  0  0  0
 22 17  1  0  0  0  0
 23 20  1  0  0  0  0
 23 25  1  0  0  0  0
 24 25  2  0  0  0  0
 25 21  1  0  0  0  0
M  END
>  <MODEL>
8

>  <REMARK>
 VINA RESULT:      -7.7      3.051      5.918
  Name = 
  6 active torsions:
  status: ('A' for Active; 'I' for Inactive)
    1  A    between atoms: C_1  and  C_2
    2  A    between atoms: C_7  and  C_10
    3  A    between atoms: C_7  and  C_25
    4  A    between atoms: C_10  and  C_16
    5  A    between atoms: C_13  and  N_21
    6  A    between atoms: C_14  and  C_16
                            x       y       z     vdW  Elec       q    Type
                         _______ _______ _______ _____ _____    ______ ____

>  <TORSDO>
F 6

$$$$
=
 OpenBabel11062413533D

 25 27  0  0  0  0  0  0  0  0999 V2000
  187.6270  177.7200  143.9050 C   0  0  0  0  0  3  0  0  0  0  0  0
  186.3570  177.8820  144.2650 C   0  0  0  0  0  3  0  0  0  0  0  0
  188.7130  177.4480  144.8650 C   0  0  0  0  0  0  0  0  0  0  0  0
  188.4370  177.4930  146.2430 C   0  0  0  0  0  3  0  0  0  0  0  0
  191.0190  176.8840  145.4000 C   0  0  0  0  0  3  0  0  0  0  0  0
  190.0320  177.1400  144.4310 C   0  0  0  0  0  0  0  0  0  0  0  0
  189.4330  177.2370  147.1840 C   0  0  0  0  0  3  0  0  0  0  0  0
  190.7250  176.9320  146.7620 C   0  0  0  0  0  0  0  0  0  0  0  0
  191.7430  176.6700  147.7190 N   0  0  0  0  0  1  0  0  0  0  0  0
  191.3640  177.8070  142.4410 C   0  0  0  0  0  3  0  0  0  0  0  0
  191.4400  177.5040  141.1300 N   0  0  0  0  0  0  0  0  0  0  0  0
  190.4840  176.5650  140.9630 C   0  0  0  0  0  3  0  0  0  0  0  0
  189.8490  176.3030  142.1200 N   0  0  0  0  0  0  0  0  0  0  0  0
  190.4020  177.0780  143.0360 N   0  0  0  0  0  0  0  0  0  0  0  0
  185.3030  178.1590  143.2460 C   0  0  0  0  0  2  0  0  0  0  0  0
  185.6860  179.3300  142.3480 C   0  0  0  0  0  2  0  0  0  0  0  0
  185.5750  178.9610  140.9050 C   0  0  0  0  0  0  0  0  0  0  0  0
  186.6140  178.6280  140.2750 O   0  0  0  0  0  0  0  0  0  0  0  0
  180.8850  178.2770  138.8810 O   0  0  0  0  0  0  0  0  0  0  0  0
  183.0620  177.6630  140.3480 S   0  0  0  0  0  0  0  0  0  0  0  0
  183.9530  180.0200  139.4690 N   0  0  0  0  0  0  0  0  0  0  0  0
  184.2770  179.0060  140.2120 C   0  0  0  0  0  0  0  0  0  0  0  0
  182.0290  178.6310  139.2670 C   0  0  0  0  0  0  0  0  0  0  0  0
  182.1530  180.7320  138.1380 O   0  0  0  0  0  0  0  0  0  0  0  0
  182.6680  179.8670  138.8950 C   0  0  0  0  0  0  0  0  0  0  0  0
  1  2  2  0  0  0  0
  1  3  1  0  0  0  0
  3  4  1  0  0  0  0
  4  7  2  0  0  0  0
  5  8  2  0  0  0  0
  6  3  2  0  0  0  0
  6  5  1  0  0  0  0
  8  7  1  0  0  0  0
  8  9  1  0  0  0  0
 10 14  1  0  0  0  0
 11 10  2  0  0  0  0
 12 11  1  0  0  0  0
 12 13  2  0  0  0  0
 13 14  1  0  0  0  0
 14  6  1  0  0  0  0
 15  2  1  0  0  0  0
 16 15  1  0  0  0  0
 17 16  1  0  0  0  0
 18 17  2  0  0  0  0
 19 23  2  0  0  0  0
 21 22  2  0  0  0  0
 22 20  1  0  0  0  0
 22 17  1  0  0  0  0
 23 20  1  0  0  0  0
 24 25  2  0  0  0  0
 25 23  1  0  0  0  0
 25 21  1  0  0  0  0
M  END
>  <MODEL>
9

>  <REMARK>
 VINA RESULT:      -7.6      1.883      2.458
  Name = 
  6 active torsions:
  status: ('A' for Active; 'I' for Inactive)
    1  A    between atoms: C_1  and  C_2
    2  A    between atoms: C_7  and  C_10
    3  A    between atoms: C_7  and  C_25
    4  A    between atoms: C_10  and  C_16
    5  A    between atoms: C_13  and  N_21
    6  A    between atoms: C_14  and  C_16
                            x       y       z     vdW  Elec       q    Type
                         _______ _______ _______ _____ _____    ______ ____

>  <TORSDO>
F 6

$$$$
