=
 OpenBabel11062416073D

 43 46  0  0  1  0  0  0  0  0999 V2000
  182.4390  176.6300  139.1740 C   0  0  0  0  0  2  0  0  0  0  0  0
  181.0390  177.9360  140.7940 C   0  0  1  0  0  3  0  0  0  0  0  0
  180.9440  179.0260  139.7260 C   0  0  0  0  0  2  0  0  0  0  0  0
  182.1620  179.0830  138.9010 N   0  0  1  0  0  0  0  0  0  0  0  0
  181.2250  176.5910  140.0900 C   0  0  0  0  0  2  0  0  0  0  0  0
  182.3380  177.8030  138.1830 C   0  0  1  0  0  3  0  0  0  0  0  0
  183.3480  177.0730  135.9750 C   0  0  0  0  0  2  0  0  0  0  0  0
  184.8150  177.2520  137.9160 C   0  0  0  0  0  2  0  0  0  0  0  0
  183.5740  177.8380  137.2670 C   0  0  2  0  0  3  0  0  0  0  0  0
  184.6260  176.3000  135.6880 C   0  0  2  0  0  3  0  0  0  0  0  0
  184.3540  174.9460  135.7200 F   0  0  0  0  0  0  0  0  0  0  0  0
  185.6220  176.6400  136.7870 C   0  0  1  0  0  3  0  0  0  0  0  0
  187.6770  176.9450  135.4070 C   0  0  0  0  0  2  0  0  0  0  0  0
  186.6370  177.6550  136.2640 C   0  0  2  0  0  3  0  0  0  0  0  0
  188.0490  177.4250  136.7900 C   0  0  1  0  0  0  0  0  0  0  0  0
  188.3480  176.2800  137.7490 C   0  0  0  0  0  1  0  0  0  0  0  0
  188.9810  178.6220  136.7580 C   0  0  0  0  0  2  0  0  0  0  0  0
  188.9810  179.2600  138.0000 O   0  0  0  0  0  1  0  0  0  0  0  0
  182.0300  180.1790  137.9250 C   0  0  2  0  0  3  0  0  0  0  0  0
  181.7850  181.5060  138.6180 C   0  0  0  0  0  2  0  0  0  0  0  0
  180.5720  182.0530  137.9330 C   0  0  0  0  0  2  0  0  0  0  0  0
  181.0040  179.9280  136.9900 O   0  0  0  0  0  0  0  0  0  0  0  0
  178.9670  181.0070  136.3660 C   0  0  0  0  0  1  0  0  0  0  0  0
  180.4310  181.1780  136.7120 C   0  0  1  0  0  3  0  0  0  0  0  0
  182.1500  178.2120  141.8320 C   0  0  1  0  0  3  0  0  0  0  0  0
  183.0840  179.3630  141.4010 C   0  0  2  0  0  3  0  0  0  0  0  0
  184.3940  178.8730  140.9850 C   0  0  1  0  0  3  0  0  0  0  0  0
  184.9360  179.7410  140.0390 O   0  0  0  0  0  1  0  0  0  0  0  0
  184.2770  179.5760  142.2740 N   0  0  0  0  0  0  0  0  0  0  0  0
  184.4510  178.5700  143.3290 C   0  0  2  0  0  3  0  0  0  0  0  0
  184.4700  179.2400  144.6940 C   0  0  0  0  0  1  0  0  0  0  0  0
  185.7290  177.7430  143.1210 C   0  0  0  0  0  2  0  0  0  0  0  0
  186.7420  177.8940  144.2520 C   0  0  0  0  0  2  0  0  0  0  0  0
  187.7890  176.7900  144.1890 C   0  0  1  0  0  3  0  0  0  0  0  0
  191.1150  177.9700  144.9340 N   0  0  0  0  0  1  0  0  0  0  0  0
  188.3010  176.6260  142.7710 C   0  0  0  0  0  2  0  0  0  0  0  0
  189.8590  177.5380  142.6090 S   0  0  0  0  0  0  0  0  0  0  0  0
  189.7840  178.0160  144.3560 C   0  0  1  0  0  3  0  0  0  0  0  0
  188.9080  177.0990  145.0690 N   0  0  0  0  0  2  0  0  0  0  0  0
  181.5660  178.5070  143.2190 C   0  0  0  0  0  1  0  0  0  0  0  0
  179.2980  178.9310  144.3880 C   0  0  0  0  0 15  0  0  0  0  0  0
  180.0770  178.3640  143.2530 C   0  0  0  0  0  3  0  0  0  0  0  0
  179.3840  178.8700  144.2650 C   0  0  0  0  0  3  0  0  0  0  0  0
  1  5  1  0  0  0  0
  2 25  1  1  0  0  0
  3  2  1  0  0  0  0
  4  3  1  6  0  0  0
  5  2  1  0  0  0  0
  6  4  1  0  0  0  0
  6  1  1  1  0  0  0
  9  7  1  6  0  0  0
  9  8  1  0  0  0  0
  9  6  1  0  0  0  0
 10 11  1  1  0  0  0
 10  7  1  0  0  0  0
 10 12  1  0  0  0  0
 12  8  1  1  0  0  0
 13 15  1  0  0  0  0
 14 13  1  6  0  0  0
 14 12  1  0  0  0  0
 14 15  1  0  0  0  0
 15 16  1  1  0  0  0
 17 15  1  0  0  0  0
 17 18  1  0  0  0  0
 19 20  1  1  0  0  0
 19  4  1  0  0  0  0
 21 20  1  0  0  0  0
 22 19  1  0  0  0  0
 24 23  1  1  0  0  0
 24 22  1  0  0  0  0
 24 21  1  0  0  0  0
 25 40  1  1  0  0  0
 26 25  1  1  0  0  0
 26 29  1  0  0  0  0
 27 28  1  6  0  0  0
 27 26  1  0  0  0  0
 27 29  1  0  0  0  0
 29 30  1  0  0  0  0
 30 31  1  1  0  0  0
 32 30  1  0  0  0  0
 32 33  1  0  0  0  0
 34 33  1  6  0  0  0
 34 39  1  0  0  0  0
 36 34  1  0  0  0  0
 37 36  1  0  0  0  0
 37 38  1  0  0  0  0
 38 35  1  1  0  0  0
 38 39  1  0  0  0  0
 42 43  3  0  0  0  0
M  END
>  <MODEL>
1

>  <REMARK>
 VINA RESULT:      -7.0      0.000      0.000
  Name = 
  12 active torsions:
  status: ('A' for Active; 'I' for Inactive)
    1  A    between atoms: C_3  and  C_7
    2  A    between atoms: C_5  and  N_20
    3  A    between atoms: C_5  and  C_32
    4  A    between atoms: C_7  and  CA_8
    5  A    between atoms: C_7  and  C_39
    6  A    between atoms: C_11  and  N_18
    7  A    between atoms: C_12  and  C_39
    8  A    between atoms: C_14  and  C_40
    9  A    between atoms: C_16  and  C_37
   10  A    between atoms: C_23  and  C_27
   11  A    between atoms: C_26  and  C_29
   12  A    between atoms: C_32  and  C_40
                            x       y       z     vdW  Elec       q    Type
                         _______ _______ _______ _____ _____    ______ ____

>  <TORSDO>
F 12

$$$$
=
 OpenBabel11062416073D

 43 46  0  0  1  0  0  0  0  0999 V2000
  184.9090  177.1370  135.9630 C   0  0  0  0  0  2  0  0  0  0  0  0
  187.3580  176.7490  136.3420 C   0  0  1  0  0  3  0  0  0  0  0  0
  187.0190  175.2730  136.5550 C   0  0  0  0  0  2  0  0  0  0  0  0
  185.6870  175.1050  137.1590 N   0  0  1  0  0  0  0  0  0  0  0  0
  186.3080  177.3500  135.4060 C   0  0  0  0  0  2  0  0  0  0  0  0
  184.6560  175.6470  136.2490 C   0  0  1  0  0  3  0  0  0  0  0  0
  182.2270  176.3710  136.1750 C   0  0  0  0  0  2  0  0  0  0  0  0
  183.1620  175.6780  138.3180 C   0  0  0  0  0  2  0  0  0  0  0  0
  183.2410  175.4440  136.8200 C   0  0  2  0  0  3  0  0  0  0  0  0
  181.3190  176.8770  137.2840 C   0  0  2  0  0  3  0  0  0  0  0  0
  181.4590  178.2470  137.3950 F   0  0  0  0  0  0  0  0  0  0  0  0
  181.7690  176.2170  138.5790 C   0  0  1  0  0  3  0  0  0  0  0  0
  179.3900  175.4670  138.5980 C   0  0  0  0  0  2  0  0  0  0  0  0
  180.8240  175.0690  138.9270 C   0  0  2  0  0  3  0  0  0  0  0  0
  179.8390  175.4100  140.0390 C   0  0  1  0  0  0  0  0  0  0  0  0
  179.8580  176.7800  140.7040 C   0  0  0  0  0  1  0  0  0  0  0  0
  179.2380  174.2350  140.7880 C   0  0  0  0  0  2  0  0  0  0  0  0
  179.0260  174.5810  142.1250 O   0  0  0  0  0  1  0  0  0  0  0  0
  185.4400  173.6700  137.3810 C   0  0  2  0  0  3  0  0  0  0  0  0
  186.7260  172.8700  137.2990 C   0  0  0  0  0  2  0  0  0  0  0  0
  186.4120  171.7780  136.3260 C   0  0  0  0  0  2  0  0  0  0  0  0
  184.4940  173.1520  136.4720 O   0  0  0  0  0  0  0  0  0  0  0  0
  184.4960  171.4550  134.7920 C   0  0  0  0  0  1  0  0  0  0  0  0
  184.9100  171.8420  136.1960 C   0  0  1  0  0  3  0  0  0  0  0  0
  187.4740  177.5320  137.6690 C   0  0  1  0  0  3  0  0  0  0  0  0
  188.8780  178.1400  137.8720 C   0  0  2  0  0  3  0  0  0  0  0  0
  189.8240  177.1590  138.3960 C   0  0  1  0  0  3  0  0  0  0  0  0
  191.1100  177.4780  137.9650 O   0  0  0  0  0  1  0  0  0  0  0  0
  189.3380  178.2230  139.2910 N   0  0  0  0  0  0  0  0  0  0  0  0
  188.4390  177.5890  140.2640 C   0  0  2  0  0  3  0  0  0  0  0  0
  187.9780  178.6080  141.2930 C   0  0  0  0  0  1  0  0  0  0  0  0
  189.1060  176.3910  140.9570 C   0  0  0  0  0  2  0  0  0  0  0  0
  189.4070  176.6340  142.4330 C   0  0  0  0  0  2  0  0  0  0  0  0
  190.9090  176.6270  142.6850 C   0  0  1  0  0  3  0  0  0  0  0  0
  191.7470  177.0470  146.1680 N   0  0  0  0  0  1  0  0  0  0  0  0
  191.4830  178.0200  142.5090 C   0  0  0  0  0  2  0  0  0  0  0  0
  191.6350  178.7930  144.1410 S   0  0  0  0  0  0  0  0  0  0  0  0
  191.0170  177.2860  144.9360 C   0  0  1  0  0  3  0  0  0  0  0  0
  191.1970  176.1580  144.0340 N   0  0  0  0  0  2  0  0  0  0  0  0
  186.4120  178.6340  137.7680 C   0  0  0  0  0  1  0  0  0  0  0  0
  184.2640  179.2920  139.0500 C   0  0  0  0  0 15  0  0  0  0  0  0
  185.4300  178.3850  138.8690 C   0  0  0  0  0  3  0  0  0  0  0  0
  184.3910  179.1940  139.0290 C   0  0  0  0  0  3  0  0  0  0  0  0
  2  3  1  0  0  0  0
  2 25  1  1  0  0  0
  4  3  1  6  0  0  0
  4 19  1  0  0  0  0
  5  1  1  0  0  0  0
  5  2  1  0  0  0  0
  6  1  1  1  0  0  0
  6  9  1  0  0  0  0
  6  4  1  0  0  0  0
  7 10  1  0  0  0  0
  9  7  1  6  0  0  0
  9  8  1  0  0  0  0
 10 11  1  1  0  0  0
 10 12  1  0  0  0  0
 12  8  1  6  0  0  0
 12 14  1  0  0  0  0
 13 15  1  0  0  0  0
 14 13  1  6  0  0  0
 14 15  1  0  0  0  0
 15 16  1  1  0  0  0
 15 17  1  0  0  0  0
 17 18  1  0  0  0  0
 19 20  1  6  0  0  0
 21 20  1  0  0  0  0
 22 19  1  0  0  0  0
 24 23  1  6  0  0  0
 24 21  1  0  0  0  0
 24 22  1  0  0  0  0
 25 40  1  6  0  0  0
 26 25  1  1  0  0  0
 26 27  1  0  0  0  0
 26 29  1  0  0  0  0
 27 28  1  6  0  0  0
 27 29  1  0  0  0  0
 29 30  1  0  0  0  0
 30 32  1  0  0  0  0
 30 31  1  1  0  0  0
 32 33  1  0  0  0  0
 34 33  1  1  0  0  0
 34 39  1  0  0  0  0
 36 34  1  0  0  0  0
 36 37  1  0  0  0  0
 37 38  1  0  0  0  0
 38 35  1  1  0  0  0
 39 38  1  0  0  0  0
 42 43  3  0  0  0  0
M  END
>  <MODEL>
2

>  <REMARK>
 VINA RESULT:      -6.7      3.356      6.811
  Name = 
  12 active torsions:
  status: ('A' for Active; 'I' for Inactive)
    1  A    between atoms: C_3  and  C_7
    2  A    between atoms: C_5  and  N_20
    3  A    between atoms: C_5  and  C_32
    4  A    between atoms: C_7  and  CA_8
    5  A    between atoms: C_7  and  C_39
    6  A    between atoms: C_11  and  N_18
    7  A    between atoms: C_12  and  C_39
    8  A    between atoms: C_14  and  C_40
    9  A    between atoms: C_16  and  C_37
   10  A    between atoms: C_23  and  C_27
   11  A    between atoms: C_26  and  C_29
   12  A    between atoms: C_32  and  C_40
                            x       y       z     vdW  Elec       q    Type
                         _______ _______ _______ _____ _____    ______ ____

>  <TORSDO>
F 12

$$$$
=
 OpenBabel11062416073D

 43 46  0  0  1  0  0  0  0  0999 V2000
  180.6750  175.5000  139.4530 C   0  0  0  0  0  2  0  0  0  0  0  0
  180.4050  177.9320  140.0020 C   0  0  1  0  0  3  0  0  0  0  0  0
  180.0990  178.1600  138.5200 C   0  0  0  0  0  2  0  0  0  0  0  0
  180.8340  177.2140  137.6640 N   0  0  1  0  0  0  0  0  0  0  0  0
  179.9860  176.5060  140.3620 C   0  0  0  0  0  2  0  0  0  0  0  0
  180.4140  175.8320  137.9740 C   0  0  1  0  0  3  0  0  0  0  0  0
  180.3620  173.5010  136.9780 C   0  0  0  0  0  2  0  0  0  0  0  0
  182.5290  174.4790  137.5220 C   0  0  0  0  0  2  0  0  0  0  0  0
  181.1210  174.8130  137.0630 C   0  0  2  0  0  3  0  0  0  0  0  0
  181.3950  172.3860  137.0330 C   0  0  2  0  0  3  0  0  0  0  0  0
  181.1830  171.6290  138.1700 F   0  0  0  0  0  0  0  0  0  0  0  0
  182.7670  173.0380  137.1100 C   0  0  1  0  0  3  0  0  0  0  0  0
  184.0090  171.6030  135.4920 C   0  0  0  0  0  2  0  0  0  0  0  0
  183.4350  172.9930  135.7380 C   0  0  2  0  0  3  0  0  0  0  0  0
  184.9390  172.7520  135.8030 C   0  0  1  0  0  0  0  0  0  0  0  0
  185.6450  172.5900  137.1420 C   0  0  0  0  0  1  0  0  0  0  0  0
  185.7430  173.1920  134.5940 C   0  0  0  0  0  2  0  0  0  0  0  0
  186.8450  173.9460  135.0040 O   0  0  0  0  0  1  0  0  0  0  0  0
  180.5350  177.5140  136.2530 C   0  0  2  0  0  3  0  0  0  0  0  0
  181.8040  177.7710  135.4640 C   0  0  0  0  0  2  0  0  0  0  0  0
  181.5490  179.0790  134.7830 C   0  0  0  0  0  2  0  0  0  0  0  0
  179.6580  178.6110  136.1230 O   0  0  0  0  0  0  0  0  0  0  0  0
  179.7640  180.7650  135.0970 C   0  0  0  0  0  1  0  0  0  0  0  0
  180.0660  179.2870  134.9640 C   0  0  1  0  0  3  0  0  0  0  0  0
  181.8820  178.2160  140.3560 C   0  0  1  0  0  3  0  0  0  0  0  0
  182.2800  179.6830  140.0910 C   0  0  2  0  0  3  0  0  0  0  0  0
  182.6080  179.9110  138.6870 C   0  0  1  0  0  3  0  0  0  0  0  0
  182.3180  181.2320  138.3510 O   0  0  0  0  0  1  0  0  0  0  0  0
  183.6990  179.8950  139.6770 N   0  0  0  0  0  0  0  0  0  0  0  0
  184.4620  178.6590  139.4540 C   0  0  2  0  0  3  0  0  0  0  0  0
  185.6860  178.6290  140.3560 C   0  0  0  0  0  1  0  0  0  0  0  0
  184.8770  178.5050  137.9830 C   0  0  0  0  0  2  0  0  0  0  0  0
  185.4680  177.1360  137.6580 C   0  0  0  0  0  2  0  0  0  0  0  0
  186.6780  177.2750  136.7440 C   0  0  1  0  0  3  0  0  0  0  0  0
  189.7350  176.1390  138.2830 N   0  0  0  0  0  1  0  0  0  0  0  0
  187.2790  178.6620  136.8670 C   0  0  0  0  0  2  0  0  0  0  0  0
  188.6800  178.5850  138.0140 S   0  0  0  0  0  0  0  0  0  0  0  0
  188.4440  176.7990  138.2150 C   0  0  1  0  0  3  0  0  0  0  0  0
  187.6890  176.2830  137.0830 N   0  0  0  0  0  2  0  0  0  0  0  0
  182.1920  177.8490  141.8130 C   0  0  0  0  0  1  0  0  0  0  0  0
  183.5640  178.9460  143.7110 C   0  0  0  0  0 15  0  0  0  0  0  0
  182.5310  179.0450  142.6440 C   0  0  0  0  0  3  0  0  0  0  0  0
  183.4520  178.9560  143.5940 C   0  0  0  0  0  3  0  0  0  0  0  0
  1  5  1  0  0  0  0
  2 25  1  6  0  0  0
  2  5  1  0  0  0  0
  3  2  1  0  0  0  0
  4  6  1  0  0  0  0
  4  3  1  1  0  0  0
  6  1  1  1  0  0  0
  7 10  1  0  0  0  0
  9  7  1  1  0  0  0
  9  8  1  0  0  0  0
  9  6  1  0  0  0  0
 10 12  1  0  0  0  0
 10 11  1  1  0  0  0
 12  8  1  6  0  0  0
 13 15  1  0  0  0  0
 14 13  1  6  0  0  0
 14 15  1  0  0  0  0
 14 12  1  0  0  0  0
 15 16  1  1  0  0  0
 17 18  1  0  0  0  0
 17 15  1  0  0  0  0
 19 20  1  6  0  0  0
 19  4  1  0  0  0  0
 21 24  1  0  0  0  0
 21 20  1  0  0  0  0
 22 19  1  0  0  0  0
 24 23  1  1  0  0  0
 24 22  1  0  0  0  0
 25 40  1  1  0  0  0
 26 25  1  6  0  0  0
 27 28  1  1  0  0  0
 27 29  1  0  0  0  0
 27 26  1  0  0  0  0
 29 26  1  0  0  0  0
 30 29  1  0  0  0  0
 30 31  1  1  0  0  0
 32 30  1  0  0  0  0
 33 32  1  0  0  0  0
 34 36  1  0  0  0  0
 34 39  1  0  0  0  0
 34 33  1  1  0  0  0
 36 37  1  0  0  0  0
 37 38  1  0  0  0  0
 38 35  1  6  0  0  0
 39 38  1  0  0  0  0
 42 43  3  0  0  0  0
M  END
>  <MODEL>
3

>  <REMARK>
 VINA RESULT:      -6.3      3.094      4.574
  Name = 
  12 active torsions:
  status: ('A' for Active; 'I' for Inactive)
    1  A    between atoms: C_3  and  C_7
    2  A    between atoms: C_5  and  N_20
    3  A    between atoms: C_5  and  C_32
    4  A    between atoms: C_7  and  CA_8
    5  A    between atoms: C_7  and  C_39
    6  A    between atoms: C_11  and  N_18
    7  A    between atoms: C_12  and  C_39
    8  A    between atoms: C_14  and  C_40
    9  A    between atoms: C_16  and  C_37
   10  A    between atoms: C_23  and  C_27
   11  A    between atoms: C_26  and  C_29
   12  A    between atoms: C_32  and  C_40
                            x       y       z     vdW  Elec       q    Type
                         _______ _______ _______ _____ _____    ______ ____

>  <TORSDO>
F 12

$$$$
=
 OpenBabel11062416073D

 43 46  0  0  1  0  0  0  0  0999 V2000
  187.8790  177.9870  138.9510 C   0  0  0  0  0  2  0  0  0  0  0  0
  189.8360  178.0480  140.5190 C   0  0  1  0  0  3  0  0  0  0  0  0
  190.6880  177.5170  139.3650 C   0  0  0  0  0  2  0  0  0  0  0  0
  189.9090  176.6370  138.4770 N   0  0  1  0  0  0  0  0  0  0  0  0
  188.6720  178.8430  139.9270 C   0  0  0  0  0  2  0  0  0  0  0  0
  188.8000  177.4000  137.8670 C   0  0  1  0  0  3  0  0  0  0  0  0
  187.0270  177.3540  136.0550 C   0  0  0  0  0  2  0  0  0  0  0  0
  187.1680  175.4590  137.5850 C   0  0  0  0  0  2  0  0  0  0  0  0
  187.9900  176.5290  136.8900 C   0  0  2  0  0  3  0  0  0  0  0  0
  185.7270  176.5690  135.9730 C   0  0  2  0  0  3  0  0  0  0  0  0
  184.7220  177.2940  136.5840 F   0  0  0  0  0  0  0  0  0  0  0  0
  185.9340  175.2620  136.7250 C   0  0  1  0  0  3  0  0  0  0  0  0
  184.8740  173.8150  134.9920 C   0  0  0  0  0  2  0  0  0  0  0  0
  186.1700  174.1290  135.7290 C   0  0  2  0  0  3  0  0  0  0  0  0
  185.3820  172.8650  136.0510 C   0  0  1  0  0  0  0  0  0  0  0  0
  184.4710  172.8030  137.2700 C   0  0  0  0  0  1  0  0  0  0  0  0
  185.9150  171.5720  135.4630 C   0  0  0  0  0  2  0  0  0  0  0  0
  184.9460  170.5710  135.5570 O   0  0  0  0  0  1  0  0  0  0  0  0
  190.7930  176.1220  137.4170 C   0  0  2  0  0  3  0  0  0  0  0  0
  190.6930  174.6130  137.3010 C   0  0  0  0  0  2  0  0  0  0  0  0
  192.1140  174.1510  137.3640 C   0  0  0  0  0  2  0  0  0  0  0  0
  192.1360  176.5000  137.6230 O   0  0  0  0  0  0  0  0  0  0  0  0
  194.1990  175.3460  137.9600 C   0  0  0  0  0  1  0  0  0  0  0  0
  192.9080  175.4190  137.1720 C   0  0  1  0  0  3  0  0  0  0  0  0
  189.3560  176.9290  141.4700 C   0  0  1  0  0  3  0  0  0  0  0  0
  190.5080  176.0070  141.9230 C   0  0  2  0  0  3  0  0  0  0  0  0
  190.2780  175.4670  143.2600 C   0  0  1  0  0  3  0  0  0  0  0  0
  190.9010  174.2250  143.3720 O   0  0  0  0  0  1  0  0  0  0  0  0
  191.3060  176.5070  143.0830 N   0  0  0  0  0  0  0  0  0  0  0  0
  190.7860  177.7340  143.7000 C   0  0  2  0  0  3  0  0  0  0  0  0
  191.7600  178.8820  143.4870 C   0  0  0  0  0  1  0  0  0  0  0  0
  190.5050  177.5410  145.1980 C   0  0  0  0  0  2  0  0  0  0  0  0
  189.2200  178.2170  145.6670 C   0  0  0  0  0  2  0  0  0  0  0  0
  188.3590  177.2450  146.4630 C   0  0  1  0  0  3  0  0  0  0  0  0
  185.0450  178.5140  147.1080 N   0  0  0  0  0  1  0  0  0  0  0  0
  188.5840  177.4330  147.9510 C   0  0  0  0  0  2  0  0  0  0  0  0
  187.2640  178.4870  148.6070 S   0  0  0  0  0  0  0  0  0  0  0  0
  186.4890  178.5710  146.9700 C   0  0  1  0  0  3  0  0  0  0  0  0
  186.9480  177.4510  146.1630 N   0  0  0  0  0  2  0  0  0  0  0  0
  188.6370  177.5030  142.6970 C   0  0  0  0  0  1  0  0  0  0  0  0
  186.1670  178.2670  142.7670 C   0  0  0  0  0 15  0  0  0  0  0  0
  187.1770  177.1760  142.7090 C   0  0  0  0  0  3  0  0  0  0  0  0
  186.2780  178.1500  142.7600 C   0  0  0  0  0  3  0  0  0  0  0  0
  1  5  1  0  0  0  0
  2 25  1  6  0  0  0
  3  2  1  0  0  0  0
  4  3  1  1  0  0  0
  5  2  1  0  0  0  0
  6  4  1  0  0  0  0
  6  1  1  1  0  0  0
  9  7  1  1  0  0  0
  9  8  1  0  0  0  0
  9  6  1  0  0  0  0
 10  7  1  0  0  0  0
 10 11  1  1  0  0  0
 10 12  1  0  0  0  0
 12  8  1  1  0  0  0
 13 15  1  0  0  0  0
 14 13  1  6  0  0  0
 14 15  1  0  0  0  0
 14 12  1  0  0  0  0
 15 16  1  1  0  0  0
 17 18  1  0  0  0  0
 17 15  1  0  0  0  0
 19 20  1  1  0  0  0
 19 22  1  0  0  0  0
 19  4  1  0  0  0  0
 20 21  1  0  0  0  0
 24 21  1  0  0  0  0
 24 22  1  0  0  0  0
 24 23  1  1  0  0  0
 25 40  1  1  0  0  0
 26 25  1  1  0  0  0
 26 29  1  0  0  0  0
 26 27  1  0  0  0  0
 27 28  1  6  0  0  0
 29 27  1  0  0  0  0
 29 30  1  0  0  0  0
 30 31  1  1  0  0  0
 30 32  1  0  0  0  0
 32 33  1  0  0  0  0
 34 33  1  6  0  0  0
 34 36  1  0  0  0  0
 36 37  1  0  0  0  0
 38 35  1  1  0  0  0
 38 37  1  0  0  0  0
 39 34  1  0  0  0  0
 39 38  1  0  0  0  0
 42 43  3  0  0  0  0
M  END
>  <MODEL>
4

>  <REMARK>
 VINA RESULT:      -6.2      4.760      7.577
  Name = 
  12 active torsions:
  status: ('A' for Active; 'I' for Inactive)
    1  A    between atoms: C_3  and  C_7
    2  A    between atoms: C_5  and  N_20
    3  A    between atoms: C_5  and  C_32
    4  A    between atoms: C_7  and  CA_8
    5  A    between atoms: C_7  and  C_39
    6  A    between atoms: C_11  and  N_18
    7  A    between atoms: C_12  and  C_39
    8  A    between atoms: C_14  and  C_40
    9  A    between atoms: C_16  and  C_37
   10  A    between atoms: C_23  and  C_27
   11  A    between atoms: C_26  and  C_29
   12  A    between atoms: C_32  and  C_40
                            x       y       z     vdW  Elec       q    Type
                         _______ _______ _______ _____ _____    ______ ____

>  <TORSDO>
F 12

$$$$
=
 OpenBabel11062416073D

 43 46  0  0  1  0  0  0  0  0999 V2000
  184.9230  178.4590  138.4130 C   0  0  0  0  0  2  0  0  0  0  0  0
  185.3330  179.1990  140.7740 C   0  0  1  0  0  3  0  0  0  0  0  0
  186.8270  179.0260  140.4950 C   0  0  0  0  0  2  0  0  0  0  0  0
  187.0760  177.9370  139.5360 N   0  0  1  0  0  0  0  0  0  0  0  0
  184.6360  179.5300  139.4540 C   0  0  0  0  0  2  0  0  0  0  0  0
  186.4390  178.2590  138.2410 C   0  0  1  0  0  3  0  0  0  0  0  0
  186.4100  177.6400  135.7830 C   0  0  0  0  0  2  0  0  0  0  0  0
  185.9160  175.9000  137.4190 C   0  0  0  0  0  2  0  0  0  0  0  0
  186.7190  177.1680  137.1920 C   0  0  2  0  0  3  0  0  0  0  0  0
  185.7250  176.4860  135.0680 C   0  0  2  0  0  3  0  0  0  0  0  0
  184.4400  176.8630  134.7270 F   0  0  0  0  0  0  0  0  0  0  0  0
  185.6650  175.3180  136.0410 C   0  0  1  0  0  3  0  0  0  0  0  0
  186.2520  173.3520  134.6220 C   0  0  0  0  0  2  0  0  0  0  0  0
  186.7570  174.3070  135.6970 C   0  0  2  0  0  3  0  0  0  0  0  0
  186.3850  172.8710  136.0480 C   0  0  1  0  0  0  0  0  0  0  0  0
  185.0410  172.5460  136.6860 C   0  0  0  0  0  1  0  0  0  0  0  0
  187.5400  171.9030  136.2280 C   0  0  0  0  0  2  0  0  0  0  0  0
  187.4220  170.8470  135.3220 O   0  0  0  0  0  1  0  0  0  0  0  0
  188.5290  177.7890  139.3450 C   0  0  2  0  0  3  0  0  0  0  0  0
  189.0270  178.6660  138.2120 C   0  0  0  0  0  2  0  0  0  0  0  0
  189.8000  177.7270  137.3400 C   0  0  0  0  0  2  0  0  0  0  0  0
  188.8940  176.4470  139.1090 O   0  0  0  0  0  0  0  0  0  0  0  0
  189.9580  175.2570  137.3330 C   0  0  0  0  0  1  0  0  0  0  0  0
  189.9610  176.4980  138.2000 C   0  0  1  0  0  3  0  0  0  0  0  0
  184.7100  177.9690  141.4730 C   0  0  1  0  0  3  0  0  0  0  0  0
  184.3410  178.2530  142.9440 C   0  0  2  0  0  3  0  0  0  0  0  0
  185.1080  179.3670  143.4910 C   0  0  1  0  0  3  0  0  0  0  0  0
  184.3610  180.0040  144.4800 O   0  0  0  0  0  1  0  0  0  0  0  0
  185.4290  178.0000  143.9350 N   0  0  0  0  0  0  0  0  0  0  0  0
  186.7270  177.6510  143.3430 C   0  0  2  0  0  3  0  0  0  0  0  0
  187.0400  176.1840  143.5940 C   0  0  0  0  0  1  0  0  0  0  0  0
  187.8570  178.5400  143.8840 C   0  0  0  0  0  2  0  0  0  0  0  0
  188.7310  177.8470  144.9250 C   0  0  0  0  0  2  0  0  0  0  0  0
  190.1890  178.2530  144.7610 C   0  0  1  0  0  3  0  0  0  0  0  0
  191.4980  177.4840  141.4890 N   0  0  0  0  0  1  0  0  0  0  0  0
  191.1060  177.1470  145.2490 C   0  0  0  0  0  2  0  0  0  0  0  0
  191.6500  176.1750  143.8200 S   0  0  0  0  0  0  0  0  0  0  0  0
  190.7300  177.2640  142.7010 C   0  0  1  0  0  3  0  0  0  0  0  0
  190.4850  178.5360  143.3630 N   0  0  0  0  0  2  0  0  0  0  0  0
  183.4780  177.4570  140.7170 C   0  0  0  0  0  1  0  0  0  0  0  0
  181.2050  178.6810  140.5470 C   0  0  0  0  0 15  0  0  0  0  0  0
  182.1960  177.9060  141.3430 C   0  0  0  0  0  3  0  0  0  0  0  0
  181.3140  178.5960  140.6320 C   0  0  0  0  0  3  0  0  0  0  0  0
  1  5  1  0  0  0  0
  2 25  1  6  0  0  0
  3  2  1  0  0  0  0
  4  3  1  1  0  0  0
  5  2  1  0  0  0  0
  6  1  1  1  0  0  0
  6  4  1  0  0  0  0
  9  7  1  6  0  0  0
  9  8  1  0  0  0  0
  9  6  1  0  0  0  0
 10 11  1  1  0  0  0
 10  7  1  0  0  0  0
 10 12  1  0  0  0  0
 12  8  1  1  0  0  0
 13 15  1  0  0  0  0
 14 13  1  6  0  0  0
 14 12  1  0  0  0  0
 14 15  1  0  0  0  0
 15 17  1  0  0  0  0
 15 16  1  1  0  0  0
 18 17  1  0  0  0  0
 19 20  1  6  0  0  0
 19  4  1  0  0  0  0
 21 24  1  0  0  0  0
 21 20  1  0  0  0  0
 22 19  1  0  0  0  0
 24 23  1  6  0  0  0
 24 22  1  0  0  0  0
 25 40  1  6  0  0  0
 26 25  1  6  0  0  0
 26 27  1  0  0  0  0
 26 29  1  0  0  0  0
 27 29  1  0  0  0  0
 27 28  1  1  0  0  0
 30 31  1  1  0  0  0
 30 32  1  0  0  0  0
 30 29  1  0  0  0  0
 32 33  1  0  0  0  0
 34 33  1  6  0  0  0
 34 36  1  0  0  0  0
 37 36  1  0  0  0  0
 38 35  1  6  0  0  0
 38 39  1  0  0  0  0
 38 37  1  0  0  0  0
 39 34  1  0  0  0  0
 43 42  3  0  0  0  0
M  END
>  <MODEL>
5

>  <REMARK>
 VINA RESULT:      -6.0      2.819      5.095
  Name = 
  12 active torsions:
  status: ('A' for Active; 'I' for Inactive)
    1  A    between atoms: C_3  and  C_7
    2  A    between atoms: C_5  and  N_20
    3  A    between atoms: C_5  and  C_32
    4  A    between atoms: C_7  and  CA_8
    5  A    between atoms: C_7  and  C_39
    6  A    between atoms: C_11  and  N_18
    7  A    between atoms: C_12  and  C_39
    8  A    between atoms: C_14  and  C_40
    9  A    between atoms: C_16  and  C_37
   10  A    between atoms: C_23  and  C_27
   11  A    between atoms: C_26  and  C_29
   12  A    between atoms: C_32  and  C_40
                            x       y       z     vdW  Elec       q    Type
                         _______ _______ _______ _____ _____    ______ ____

>  <TORSDO>
F 12

$$$$
=
 OpenBabel11062416073D

 43 46  0  0  1  0  0  0  0  0999 V2000
  182.7500  178.4540  138.4460 C   0  0  0  0  0  2  0  0  0  0  0  0
  184.3610  179.2930  140.1760 C   0  0  1  0  0  3  0  0  0  0  0  0
  185.4830  178.9560  139.1920 C   0  0  0  0  0  2  0  0  0  0  0  0
  185.1420  177.7910  138.3590 N   0  0  1  0  0  0  0  0  0  0  0  0
  183.1000  179.6100  139.3710 C   0  0  0  0  0  2  0  0  0  0  0  0
  183.9450  178.0940  137.5460 C   0  0  1  0  0  3  0  0  0  0  0  0
  182.4320  177.2590  135.6910 C   0  0  0  0  0  2  0  0  0  0  0  0
  183.1860  175.6640  137.3760 C   0  0  0  0  0  2  0  0  0  0  0  0
  183.5840  176.9190  136.6200 C   0  0  2  0  0  3  0  0  0  0  0  0
  181.5320  176.0340  135.6350 C   0  0  2  0  0  3  0  0  0  0  0  0
  180.2930  176.3600  136.1520 F   0  0  0  0  0  0  0  0  0  0  0  0
  182.1710  174.9570  136.4970 C   0  0  1  0  0  3  0  0  0  0  0  0
  181.8420  173.1390  134.8210 C   0  0  0  0  0  2  0  0  0  0  0  0
  182.8770  173.9370  135.6060 C   0  0  2  0  0  3  0  0  0  0  0  0
  182.5670  172.4910  135.9770 C   0  0  1  0  0  0  0  0  0  0  0  0
  181.6430  172.1660  137.1430 C   0  0  0  0  0  1  0  0  0  0  0  0
  183.5730  171.4510  135.5220 C   0  0  0  0  0  2  0  0  0  0  0  0
  183.4240  170.2830  136.2730 O   0  0  0  0  0  1  0  0  0  0  0  0
  186.2760  177.4890  137.4690 C   0  0  2  0  0  3  0  0  0  0  0  0
  187.0660  176.2950  137.9690 C   0  0  0  0  0  2  0  0  0  0  0  0
  188.4790  176.7830  138.0020 C   0  0  0  0  0  2  0  0  0  0  0  0
  187.1330  178.6000  137.3140 O   0  0  0  0  0  0  0  0  0  0  0  0
  189.4310  179.0570  137.7740 C   0  0  0  0  0  1  0  0  0  0  0  0
  188.4270  178.0700  137.2160 C   0  0  1  0  0  3  0  0  0  0  0  0
  184.1250  178.1750  141.2170 C   0  0  1  0  0  3  0  0  0  0  0  0
  184.1590  178.7060  142.6660 C   0  0  2  0  0  3  0  0  0  0  0  0
  185.2830  179.6110  142.8860 C   0  0  1  0  0  3  0  0  0  0  0  0
  184.9490  180.5330  143.8770 O   0  0  0  0  0  1  0  0  0  0  0  0
  185.3310  178.2640  143.4790 N   0  0  0  0  0  0  0  0  0  0  0  0
  186.3420  177.5030  142.7330 C   0  0  2  0  0  3  0  0  0  0  0  0
  186.8920  176.3760  143.5940 C   0  0  0  0  0  1  0  0  0  0  0  0
  187.4830  178.4050  142.2400 C   0  0  0  0  0  2  0  0  0  0  0  0
  188.7120  177.6310  141.7710 C   0  0  0  0  0  2  0  0  0  0  0  0
  189.9740  178.1740  142.4260 C   0  0  1  0  0  3  0  0  0  0  0  0
  191.9710  175.5970  143.9680 N   0  0  0  0  0  1  0  0  0  0  0  0
  189.6840  178.6220  143.8460 C   0  0  0  0  0  2  0  0  0  0  0  0
  190.1670  177.2950  144.9820 S   0  0  0  0  0  0  0  0  0  0  0  0
  190.7530  176.2900  143.5920 C   0  0  1  0  0  3  0  0  0  0  0  0
  191.0140  177.1540  142.4510 N   0  0  0  0  0  2  0  0  0  0  0  0
  182.8040  177.4400  140.9640 C   0  0  0  0  0  1  0  0  0  0  0  0
  180.2890  177.9090  141.3470 C   0  0  0  0  0 15  0  0  0  0  0  0
  181.6950  177.9410  141.8340 C   0  0  0  0  0  3  0  0  0  0  0  0
  180.4420  177.9110  141.3990 C   0  0  0  0  0  3  0  0  0  0  0  0
  1  5  1  0  0  0  0
  2 25  1  1  0  0  0
  3  2  1  0  0  0  0
  4  3  1  6  0  0  0
  5  2  1  0  0  0  0
  6  4  1  0  0  0  0
  6  1  1  1  0  0  0
  9  7  1  6  0  0  0
  9  8  1  0  0  0  0
  9  6  1  0  0  0  0
 10  7  1  0  0  0  0
 10 11  1  1  0  0  0
 10 12  1  0  0  0  0
 12  8  1  1  0  0  0
 13 15  1  0  0  0  0
 14 13  1  6  0  0  0
 14 15  1  0  0  0  0
 14 12  1  0  0  0  0
 15 16  1  1  0  0  0
 17 15  1  0  0  0  0
 17 18  1  0  0  0  0
 19 20  1  1  0  0  0
 19  4  1  0  0  0  0
 20 21  1  0  0  0  0
 22 19  1  0  0  0  0
 24 22  1  0  0  0  0
 24 23  1  1  0  0  0
 24 21  1  0  0  0  0
 25 40  1  6  0  0  0
 26 25  1  6  0  0  0
 26 27  1  0  0  0  0
 26 29  1  0  0  0  0
 27 29  1  0  0  0  0
 27 28  1  1  0  0  0
 30 29  1  0  0  0  0
 30 31  1  1  0  0  0
 32 30  1  0  0  0  0
 33 32  1  0  0  0  0
 34 33  1  1  0  0  0
 34 39  1  0  0  0  0
 34 36  1  0  0  0  0
 36 37  1  0  0  0  0
 38 35  1  1  0  0  0
 38 37  1  0  0  0  0
 39 38  1  0  0  0  0
 43 42  3  0  0  0  0
M  END
>  <MODEL>
6

>  <REMARK>
 VINA RESULT:      -5.9      2.743      4.950
  Name = 
  12 active torsions:
  status: ('A' for Active; 'I' for Inactive)
    1  A    between atoms: C_3  and  C_7
    2  A    between atoms: C_5  and  N_20
    3  A    between atoms: C_5  and  C_32
    4  A    between atoms: C_7  and  CA_8
    5  A    between atoms: C_7  and  C_39
    6  A    between atoms: C_11  and  N_18
    7  A    between atoms: C_12  and  C_39
    8  A    between atoms: C_14  and  C_40
    9  A    between atoms: C_16  and  C_37
   10  A    between atoms: C_23  and  C_27
   11  A    between atoms: C_26  and  C_29
   12  A    between atoms: C_32  and  C_40
                            x       y       z     vdW  Elec       q    Type
                         _______ _______ _______ _____ _____    ______ ____

>  <TORSDO>
F 12

$$$$
=
 OpenBabel11062416073D

 43 46  0  0  1  0  0  0  0  0999 V2000
  189.2210  177.9770  139.2440 C   0  0  0  0  0  2  0  0  0  0  0  0
  187.7350  177.7830  137.2330 C   0  0  1  0  0  3  0  0  0  0  0  0
  186.6730  178.5390  138.0320 C   0  0  0  0  0  2  0  0  0  0  0  0
  186.7620  178.2390  139.4710 N   0  0  1  0  0  0  0  0  0  0  0  0
  189.1120  178.2100  137.7450 C   0  0  0  0  0  2  0  0  0  0  0  0
  188.0730  178.6790  139.9900 C   0  0  1  0  0  3  0  0  0  0  0  0
  189.3300  179.2160  142.1260 C   0  0  0  0  0  2  0  0  0  0  0  0
  188.4150  176.9710  141.8560 C   0  0  0  0  0  2  0  0  0  0  0  0
  188.1880  178.4310  141.5050 C   0  0  2  0  0  3  0  0  0  0  0  0
  190.0140  178.2920  143.1220 C   0  0  2  0  0  3  0  0  0  0  0  0
  191.3150  178.0690  142.7140 F   0  0  0  0  0  0  0  0  0  0  0  0
  189.2520  176.9740  143.1200 C   0  0  1  0  0  3  0  0  0  0  0  0
  188.4100  178.2210  145.1090 C   0  0  0  0  0  2  0  0  0  0  0  0
  188.3440  176.9040  144.3450 C   0  0  2  0  0  3  0  0  0  0  0  0
  189.1000  176.9980  145.6660 C   0  0  1  0  0  0  0  0  0  0  0  0
  190.6160  177.1380  145.6890 C   0  0  0  0  0  1  0  0  0  0  0  0
  188.3930  176.4380  146.8860 C   0  0  0  0  0  2  0  0  0  0  0  0
  188.8820  177.0500  148.0420 O   0  0  0  0  0  1  0  0  0  0  0  0
  185.6870  178.9570  140.1770 C   0  0  2  0  0  3  0  0  0  0  0  0
  184.8520  178.0100  141.0170 C   0  0  0  0  0  2  0  0  0  0  0  0
  183.4450  178.3020  140.6010 C   0  0  0  0  0  2  0  0  0  0  0  0
  184.8570  179.6690  139.2870 O   0  0  0  0  0  0  0  0  0  0  0  0
  182.5370  179.6280  138.7180 C   0  0  0  0  0  1  0  0  0  0  0  0
  183.5650  179.5930  139.8290 C   0  0  1  0  0  3  0  0  0  0  0  0
  187.5420  176.2500  137.2820 C   0  0  1  0  0  3  0  0  0  0  0  0
  187.0060  175.6820  135.9510 C   0  0  2  0  0  3  0  0  0  0  0  0
  185.5470  175.6700  135.9150 C   0  0  1  0  0  3  0  0  0  0  0  0
  185.1150  175.8000  134.5960 O   0  0  0  0  0  1  0  0  0  0  0  0
  186.2630  174.3910  136.0620 N   0  0  0  0  0  0  0  0  0  0  0  0
  186.0390  173.9310  137.4390 C   0  0  2  0  0  3  0  0  0  0  0  0
  186.7620  172.6140  137.6760 C   0  0  0  0  0  1  0  0  0  0  0  0
  184.5420  173.7830  137.7530 C   0  0  0  0  0  2  0  0  0  0  0  0
  183.9330  172.4910  137.2180 C   0  0  0  0  0  2  0  0  0  0  0  0
  182.7950  172.7910  136.2510 C   0  0  1  0  0  3  0  0  0  0  0  0
  180.4270  175.1680  137.5730 N   0  0  0  0  0  1  0  0  0  0  0  0
  181.6780  171.7770  136.4170 C   0  0  0  0  0  2  0  0  0  0  0  0
  180.4020  172.4920  137.4870 S   0  0  0  0  0  0  0  0  0  0  0  0
  181.3390  174.0400  137.6050 C   0  0  1  0  0  3  0  0  0  0  0  0
  182.2660  174.1270  136.4870 N   0  0  0  0  0  2  0  0  0  0  0  0
  188.8400  175.5310  137.6700 C   0  0  0  0  0  1  0  0  0  0  0  0
  190.2490  173.6500  136.5900 C   0  0  0  0  0 15  0  0  0  0  0  0
  189.5530  174.9610  136.4850 C   0  0  0  0  0  3  0  0  0  0  0  0
  190.1720  173.7920  136.5800 C   0  0  0  0  0  3  0  0  0  0  0  0
  2 25  1  1  0  0  0
  2  5  1  0  0  0  0
  2  3  1  0  0  0  0
  4  3  1  6  0  0  0
  4  6  1  0  0  0  0
  4 19  1  0  0  0  0
  5  1  1  0  0  0  0
  6  1  1  6  0  0  0
  6  9  1  0  0  0  0
  7 10  1  0  0  0  0
  9  8  1  6  0  0  0
  9  7  1  0  0  0  0
 10 11  1  6  0  0  0
 12  8  1  6  0  0  0
 12 10  1  0  0  0  0
 12 14  1  0  0  0  0
 13 15  1  0  0  0  0
 14 13  1  6  0  0  0
 14 15  1  0  0  0  0
 15 16  1  6  0  0  0
 15 17  1  0  0  0  0
 17 18  1  0  0  0  0
 19 20  1  6  0  0  0
 21 20  1  0  0  0  0
 22 24  1  0  0  0  0
 22 19  1  0  0  0  0
 24 23  1  6  0  0  0
 24 21  1  0  0  0  0
 25 40  1  6  0  0  0
 26 29  1  0  0  0  0
 26 25  1  1  0  0  0
 27 28  1  6  0  0  0
 27 26  1  0  0  0  0
 27 29  1  0  0  0  0
 29 30  1  0  0  0  0
 30 31  1  6  0  0  0
 30 32  1  0  0  0  0
 33 32  1  0  0  0  0
 34 36  1  0  0  0  0
 34 39  1  0  0  0  0
 34 33  1  1  0  0  0
 36 37  1  0  0  0  0
 37 38  1  0  0  0  0
 38 35  1  6  0  0  0
 39 38  1  0  0  0  0
 42 43  3  0  0  0  0
M  END
>  <MODEL>
7

>  <REMARK>
 VINA RESULT:      -5.8      4.008      8.793
  Name = 
  12 active torsions:
  status: ('A' for Active; 'I' for Inactive)
    1  A    between atoms: C_3  and  C_7
    2  A    between atoms: C_5  and  N_20
    3  A    between atoms: C_5  and  C_32
    4  A    between atoms: C_7  and  CA_8
    5  A    between atoms: C_7  and  C_39
    6  A    between atoms: C_11  and  N_18
    7  A    between atoms: C_12  and  C_39
    8  A    between atoms: C_14  and  C_40
    9  A    between atoms: C_16  and  C_37
   10  A    between atoms: C_23  and  C_27
   11  A    between atoms: C_26  and  C_29
   12  A    between atoms: C_32  and  C_40
                            x       y       z     vdW  Elec       q    Type
                         _______ _______ _______ _____ _____    ______ ____

>  <TORSDO>
F 12

$$$$
=
 OpenBabel11062416073D

 43 46  0  0  1  0  0  0  0  0999 V2000
  187.3790  177.9790  137.3180 C   0  0  0  0  0  2  0  0  0  0  0  0
  189.7630  178.5100  137.8880 C   0  0  1  0  0  3  0  0  0  0  0  0
  190.1700  177.5830  136.7420 C   0  0  0  0  0  2  0  0  0  0  0  0
  189.2120  176.4780  136.5720 N   0  0  1  0  0  0  0  0  0  0  0  0
  188.3860  179.0920  137.5660 C   0  0  0  0  0  2  0  0  0  0  0  0
  187.8820  177.0210  136.2240 C   0  0  1  0  0  3  0  0  0  0  0  0
  185.8210  176.2780  134.9480 C   0  0  0  0  0  2  0  0  0  0  0  0
  186.1040  175.5000  137.2420 C   0  0  0  0  0  2  0  0  0  0  0  0
  186.8600  175.8950  135.9860 C   0  0  2  0  0  3  0  0  0  0  0  0
  184.4790  175.7750  135.4570 C   0  0  2  0  0  3  0  0  0  0  0  0
  183.6440  176.8550  135.6720 F   0  0  0  0  0  0  0  0  0  0  0  0
  184.7300  175.0600  136.7760 C   0  0  1  0  0  3  0  0  0  0  0  0
  183.7900  173.2120  135.3890 C   0  0  0  0  0  2  0  0  0  0  0  0
  184.7160  173.5500  136.5510 C   0  0  2  0  0  3  0  0  0  0  0  0
  183.3540  172.9130  136.8050 C   0  0  1  0  0  0  0  0  0  0  0  0
  182.1670  173.7580  137.2460 C   0  0  0  0  0  1  0  0  0  0  0  0
  183.3540  171.4260  137.1090 C   0  0  0  0  0  2  0  0  0  0  0  0
  182.4480  170.7690  136.2740 O   0  0  0  0  0  1  0  0  0  0  0  0
  189.6820  175.5980  135.4890 C   0  0  2  0  0  3  0  0  0  0  0  0
  189.8430  174.1690  135.9710 C   0  0  0  0  0  2  0  0  0  0  0  0
  191.2320  173.8010  135.5550 C   0  0  0  0  0  2  0  0  0  0  0  0
  190.8930  176.0550  134.9290 O   0  0  0  0  0  0  0  0  0  0  0  0
  193.1020  175.1780  134.6980 C   0  0  0  0  0  1  0  0  0  0  0  0
  191.6170  174.9000  134.5970 C   0  0  1  0  0  3  0  0  0  0  0  0
  189.7940  177.8060  139.2640 C   0  0  1  0  0  3  0  0  0  0  0  0
  188.3790  177.5600  139.8300 C   0  0  2  0  0  3  0  0  0  0  0  0
  187.9630  178.6290  140.7330 C   0  0  1  0  0  3  0  0  0  0  0  0
  186.5750  178.7520  140.6970 O   0  0  0  0  0  1  0  0  0  0  0  0
  188.3150  177.3180  141.3020 N   0  0  0  0  0  0  0  0  0  0  0  0
  189.5930  177.4850  142.0070 C   0  0  2  0  0  3  0  0  0  0  0  0
  190.0310  176.1650  142.6200 C   0  0  0  0  0  1  0  0  0  0  0  0
  189.5090  178.5750  143.0860 C   0  0  0  0  0  2  0  0  0  0  0  0
  190.0970  178.1490  144.4280 C   0  0  0  0  0  2  0  0  0  0  0  0
  189.2680  177.0350  145.0510 C   0  0  1  0  0  3  0  0  0  0  0  0
  186.2970  178.2530  146.6950 N   0  0  0  0  0  1  0  0  0  0  0  0
  189.7630  176.7250  146.4510 C   0  0  0  0  0  2  0  0  0  0  0  0
  188.7150  177.6020  147.6420 S   0  0  0  0  0  0  0  0  0  0  0  0
  187.6930  178.2540  146.2940 C   0  0  1  0  0  3  0  0  0  0  0  0
  187.8640  177.4200  145.1150 N   0  0  0  0  0  2  0  0  0  0  0  0
  190.5670  176.4830  139.2030 C   0  0  0  0  0  1  0  0  0  0  0  0
  192.9200  175.9590  138.2640 C   0  0  0  0  0 15  0  0  0  0  0  0
  192.0490  176.6850  139.2290 C   0  0  0  0  0  3  0  0  0  0  0  0
  192.8230  176.0370  138.3690 C   0  0  0  0  0  3  0  0  0  0  0  0
  1  5  1  0  0  0  0
  2 25  1  1  0  0  0
  3  2  1  0  0  0  0
  4  3  1  6  0  0  0
  5  2  1  0  0  0  0
  6  4  1  0  0  0  0
  6  1  1  1  0  0  0
  7 10  1  0  0  0  0
  9  7  1  6  0  0  0
  9  6  1  0  0  0  0
  9  8  1  0  0  0  0
 10 11  1  1  0  0  0
 10 12  1  0  0  0  0
 12  8  1  6  0  0  0
 13 15  1  0  0  0  0
 14 13  1  6  0  0  0
 14 12  1  0  0  0  0
 14 15  1  0  0  0  0
 15 17  1  0  0  0  0
 15 16  1  1  0  0  0
 18 17  1  0  0  0  0
 19 20  1  1  0  0  0
 19  4  1  0  0  0  0
 21 20  1  0  0  0  0
 22 19  1  0  0  0  0
 24 23  1  1  0  0  0
 24 22  1  0  0  0  0
 24 21  1  0  0  0  0
 25 40  1  6  0  0  0
 26 25  1  1  0  0  0
 26 27  1  0  0  0  0
 26 29  1  0  0  0  0
 27 28  1  6  0  0  0
 27 29  1  0  0  0  0
 29 30  1  0  0  0  0
 30 31  1  1  0  0  0
 30 32  1  0  0  0  0
 32 33  1  0  0  0  0
 34 33  1  1  0  0  0
 34 39  1  0  0  0  0
 34 36  1  0  0  0  0
 36 37  1  0  0  0  0
 38 35  1  1  0  0  0
 38 37  1  0  0  0  0
 39 38  1  0  0  0  0
 43 42  3  0  0  0  0
M  END
>  <MODEL>
8

>  <REMARK>
 VINA RESULT:      -5.7      4.679      7.934
  Name = 
  12 active torsions:
  status: ('A' for Active; 'I' for Inactive)
    1  A    between atoms: C_3  and  C_7
    2  A    between atoms: C_5  and  N_20
    3  A    between atoms: C_5  and  C_32
    4  A    between atoms: C_7  and  CA_8
    5  A    between atoms: C_7  and  C_39
    6  A    between atoms: C_11  and  N_18
    7  A    between atoms: C_12  and  C_39
    8  A    between atoms: C_14  and  C_40
    9  A    between atoms: C_16  and  C_37
   10  A    between atoms: C_23  and  C_27
   11  A    between atoms: C_26  and  C_29
   12  A    between atoms: C_32  and  C_40
                            x       y       z     vdW  Elec       q    Type
                         _______ _______ _______ _____ _____    ______ ____

>  <TORSDO>
F 12

$$$$
=
 OpenBabel11062416073D

 43 46  0  0  1  0  0  0  0  0999 V2000
  188.8990  177.4870  136.0280 C   0  0  0  0  0  2  0  0  0  0  0  0
  186.7300  177.6720  137.2740 C   0  0  1  0  0  3  0  0  0  0  0  0
  187.5550  177.9850  138.5230 C   0  0  0  0  0  2  0  0  0  0  0  0
  188.8530  177.2900  138.5020 N   0  0  1  0  0  0  0  0  0  0  0  0
  187.5220  178.1330  136.0500 C   0  0  0  0  0  2  0  0  0  0  0  0
  189.6480  177.7520  137.3450 C   0  0  1  0  0  3  0  0  0  0  0  0
  191.5710  176.9480  135.9020 C   0  0  0  0  0  2  0  0  0  0  0  0
  191.0470  175.7000  137.9310 C   0  0  0  0  0  2  0  0  0  0  0  0
  191.0360  177.0880  137.3160 C   0  0  2  0  0  3  0  0  0  0  0  0
  192.2210  175.5760  135.8080 C   0  0  2  0  0  3  0  0  0  0  0  0
  191.5390  174.8160  134.8770 F   0  0  0  0  0  0  0  0  0  0  0  0
  192.1060  174.9210  137.1760 C   0  0  1  0  0  3  0  0  0  0  0  0
  194.5790  175.0880  136.8920 C   0  0  0  0  0  2  0  0  0  0  0  0
  193.4440  175.0210  137.9060 C   0  0  2  0  0  3  0  0  0  0  0  0
  194.3500  173.8170  137.6770 C   0  0  1  0  0  0  0  0  0  0  0  0
  193.9000  172.6570  136.7990 C   0  0  0  0  0  1  0  0  0  0  0  0
  195.4270  173.5780  138.7190 C   0  0  0  0  0  2  0  0  0  0  0  0
  196.2090  172.4810  138.3520 O   0  0  0  0  0  1  0  0  0  0  0  0
  189.5790  177.5930  139.7480 C   0  0  2  0  0  3  0  0  0  0  0  0
  189.9670  176.3240  140.4830 C   0  0  0  0  0  2  0  0  0  0  0  0
  189.4570  176.5400  141.8720 C   0  0  0  0  0  2  0  0  0  0  0  0
  188.8300  178.4320  140.6010 O   0  0  0  0  0  0  0  0  0  0  0  0
  187.9450  178.2600  142.8130 C   0  0  0  0  0  1  0  0  0  0  0  0
  189.1320  178.0130  141.9050 C   0  0  1  0  0  3  0  0  0  0  0  0
  186.3280  176.1820  137.1820 C   0  0  1  0  0  3  0  0  0  0  0  0
  185.4960  175.8740  135.9190 C   0  0  2  0  0  3  0  0  0  0  0  0
  184.1730  176.4870  135.9780 C   0  0  1  0  0  3  0  0  0  0  0  0
  183.7330  176.7670  134.6850 O   0  0  0  0  0  1  0  0  0  0  0  0
  184.2860  175.0280  136.1430 N   0  0  0  0  0  0  0  0  0  0  0  0
  183.9980  174.7330  137.5520 C   0  0  2  0  0  3  0  0  0  0  0  0
  184.0390  173.2320  137.7920 C   0  0  0  0  0  1  0  0  0  0  0  0
  182.6430  175.3080  137.9890 C   0  0  0  0  0  2  0  0  0  0  0  0
  182.6720  175.9510  139.3730 C   0  0  0  0  0  2  0  0  0  0  0  0
  182.4410  177.4530  139.2740 C   0  0  1  0  0  3  0  0  0  0  0  0
  185.1660  179.3800  140.6400 N   0  0  0  0  0  1  0  0  0  0  0  0
  181.6560  177.9480  140.4740 C   0  0  0  0  0  2  0  0  0  0  0  0
  182.8200  178.6280  141.6860 S   0  0  0  0  0  0  0  0  0  0  0  0
  184.2090  178.2910  140.5720 C   0  0  1  0  0  3  0  0  0  0  0  0
  183.7130  178.1600  139.2100 N   0  0  0  0  0  2  0  0  0  0  0  0
  187.5550  175.2630  137.2340 C   0  0  0  0  0  1  0  0  0  0  0  0
  188.0360  172.7500  136.8530 C   0  0  0  0  0 15  0  0  0  0  0  0
  187.3650  174.0120  136.4360 C   0  0  0  0  0  3  0  0  0  0  0  0
  187.9630  172.8880  136.8090 C   0  0  0  0  0  3  0  0  0  0  0  0
  1  5  1  0  0  0  0
  2 25  1  6  0  0  0
  2  3  1  0  0  0  0
  4  3  1  1  0  0  0
  4 19  1  0  0  0  0
  5  2  1  0  0  0  0
  6  1  1  6  0  0  0
  6  4  1  0  0  0  0
  9  7  1  6  0  0  0
  9  6  1  0  0  0  0
  9  8  1  0  0  0  0
 10 11  1  6  0  0  0
 10  7  1  0  0  0  0
 10 12  1  0  0  0  0
 12 14  1  0  0  0  0
 12  8  1  1  0  0  0
 13 15  1  0  0  0  0
 14 13  1  6  0  0  0
 15 16  1  6  0  0  0
 15 14  1  0  0  0  0
 15 17  1  0  0  0  0
 18 17  1  0  0  0  0
 19 20  1  1  0  0  0
 19 22  1  0  0  0  0
 20 21  1  0  0  0  0
 21 24  1  0  0  0  0
 22 24  1  0  0  0  0
 24 23  1  1  0  0  0
 25 40  1  6  0  0  0
 26 27  1  0  0  0  0
 26 29  1  0  0  0  0
 26 25  1  1  0  0  0
 27 28  1  6  0  0  0
 27 29  1  0  0  0  0
 29 30  1  0  0  0  0
 30 31  1  6  0  0  0
 30 32  1  0  0  0  0
 32 33  1  0  0  0  0
 34 33  1  1  0  0  0
 34 36  1  0  0  0  0
 36 37  1  0  0  0  0
 38 35  1  6  0  0  0
 38 37  1  0  0  0  0
 39 34  1  0  0  0  0
 39 38  1  0  0  0  0
 42 43  3  0  0  0  0
M  END
>  <MODEL>
9

>  <REMARK>
 VINA RESULT:      -5.6      3.972      8.218
  Name = 
  12 active torsions:
  status: ('A' for Active; 'I' for Inactive)
    1  A    between atoms: C_3  and  C_7
    2  A    between atoms: C_5  and  N_20
    3  A    between atoms: C_5  and  C_32
    4  A    between atoms: C_7  and  CA_8
    5  A    between atoms: C_7  and  C_39
    6  A    between atoms: C_11  and  N_18
    7  A    between atoms: C_12  and  C_39
    8  A    between atoms: C_14  and  C_40
    9  A    between atoms: C_16  and  C_37
   10  A    between atoms: C_23  and  C_27
   11  A    between atoms: C_26  and  C_29
   12  A    between atoms: C_32  and  C_40
                            x       y       z     vdW  Elec       q    Type
                         _______ _______ _______ _____ _____    ______ ____

>  <TORSDO>
F 12

$$$$
