=
 OpenBabel11062414043D

 53 57  0  0  1  0  0  0  0  0999 V2000
  186.8310  178.0700  137.9960 C   0  0  1  0  0  3  0  0  0  0  0  0
  187.1810  178.9550  136.9760 O   0  0  0  0  0  1  0  0  0  0  0  0
  187.8150  178.1870  139.1110 C   0  0  0  0  0  3  0  0  0  0  0  0
  188.9320  177.4580  139.1910 C   0  0  0  0  0  0  0  0  0  0  0  0
  189.2650  176.4960  138.2300 O   0  0  0  0  0  0  0  0  0  0  0  0
  189.8800  177.3210  136.1750 O   0  0  0  0  0  1  0  0  0  0  0  0
  190.3470  176.6760  137.3230 C   0  0  2  0  0  3  0  0  0  0  0  0
  190.9710  175.3250  136.9740 C   0  0  1  0  0  3  0  0  0  0  0  0
  190.2900  174.7270  135.7360 C   0  0  2  0  0  3  0  0  0  0  0  0
  189.4130  173.5470  136.0080 C   0  0  2  0  0  3  0  0  0  0  0  0
  189.3720  173.1980  137.3630 O   0  0  0  0  0  1  0  0  0  0  0  0
  190.7300  173.4030  135.5340 O   0  0  0  0  0  0  0  0  0  0  0  0
  192.4550  175.5370  136.6950 C   0  0  0  0  0  2  0  0  0  0  0  0
  193.1540  174.3310  136.7970 O   0  0  0  0  0  0  0  0  0  0  0  0
  194.4970  174.7090  136.8750 C   0  0  0  0  0  2  0  0  0  0  0  0
  194.9910  174.6050  138.3080 C   0  0  0  0  0  2  0  0  0  0  0  0
  195.5800  173.2320  138.5640 C   0  0  0  0  0  1  0  0  0  0  0  0
  189.8370  177.7210  140.2640 N   0  0  0  0  0  2  0  0  0  0  0  0
  191.2880  177.1530  142.1270 C   0  0  0  0  0  2  0  0  0  0  0  0
  191.6620  175.4410  143.7350 O   0  0  0  0  0  1  0  0  0  0  0  0
  190.0580  176.7670  141.3390 C   0  0  1  0  0  3  0  0  0  0  0  0
  191.0340  176.6730  143.5480 C   0  0  2  0  0  0  0  0  0  0  0  0
  188.9180  176.8180  142.3320 C   0  0  0  0  0  2  0  0  0  0  0  0
  189.5290  176.4950  143.6840 C   0  0  0  0  0  2  0  0  0  0  0  0
  191.8400  177.2510  145.8650 O   0  0  0  0  0  1  0  0  0  0  0  0
  191.5350  177.6560  144.5670 C   0  0  0  0  0  0  0  0  0  0  0  0
  191.6920  178.8650  144.2480 O   0  0  0  0  0  0  0  0  0  0  0  0
  185.4290  178.3920  138.4860 C   0  0  0  0  0  2  0  0  0  0  0  0
  184.4460  177.3590  137.9590 C   0  0  2  0  0  3  0  0  0  0  0  0
  183.9570  177.7370  136.7030 O   0  0  0  0  0  1  0  0  0  0  0  0
  183.3090  177.1160  138.9590 C   0  0  1  0  0  3  0  0  0  0  0  0
  182.8010  175.6750  138.9900 C   0  0  0  0  0  2  0  0  0  0  0  0
  181.5920  175.1250  136.9050 C   0  0  0  0  0  1  0  0  0  0  0  0
  182.9210  175.0310  137.6220 C   0  0  0  0  0  2  0  0  0  0  0  0
  183.6880  177.6060  140.3560 C   0  0  0  0  0  2  0  0  0  0  0  0
  182.5500  178.3420  141.0510 C   0  0  0  0  0  2  0  0  0  0  0  0
  184.5100  178.9730  142.4370 C   0  0  1  0  0  0  0  0  0  0  0  0
  182.3760  179.2970  143.4120 C   0  0  1  0  0  3  0  0  0  0  0  0
  185.5250  179.9090  142.2200 O   0  0  0  0  0  1  0  0  0  0  0  0
  184.4070  178.5310  143.8860 C   0  0  1  0  0  0  0  0  0  0  0  0
  183.0550  178.3920  144.2420 O   0  0  0  0  0  0  0  0  0  0  0  0
  183.0950  179.3460  142.0640 C   0  0  2  0  0  3  0  0  0  0  0  0
  184.9160  177.5540  142.8390 C   0  0  0  0  0  2  0  0  0  0  0  0
  184.7430  179.1380  146.2970 C   0  0  0  0  0  2  0  0  0  0  0  0
  185.3640  179.1690  144.9170 C   0  0  1  0  0  3  0  0  0  0  0  0
  186.4770  177.5640  146.3340 C   0  0  1  0  0  3  0  0  0  0  0  0
  185.2290  177.9500  146.9870 N   0  0  0  0  0  2  0  0  0  0  0  0
  186.6630  178.4110  145.0880 C   0  0  0  0  0  2  0  0  0  0  0  0
  187.6290  177.7450  147.2670 C   0  0  0  0  0  0  0  0  0  0  0  0
  187.6440  178.7010  148.0880 O   0  0  0  0  0  0  0  0  0  0  0  0
  188.7200  176.8330  147.2250 N   0  0  0  0  0  1  0  0  0  0  0  0
  180.4230  178.0390  144.0680 N   0  0  0  0  0  2  0  0  0  0  0  0
  180.9140  178.9760  143.3460 C   0  0  0  0  0  3  0  0  0  0  0  0
  1  2  1  6  0  0  0
  1 28  1  0  0  0  0
  1  3  1  0  0  0  0
  3  4  2  0  0  0  0
  4 18  1  0  0  0  0
  5  4  1  0  0  0  0
  7  6  1  6  0  0  0
  7  5  1  0  0  0  0
  8 13  1  6  0  0  0
  8  7  1  0  0  0  0
  9 10  1  0  0  0  0
  9  8  1  1  0  0  0
 10 11  1  1  0  0  0
 12  9  1  0  0  0  0
 12 10  1  0  0  0  0
 13 14  1  0  0  0  0
 14 15  1  0  0  0  0
 15 16  1  0  0  0  0
 16 17  1  0  0  0  0
 19 22  1  0  0  0  0
 21 18  1  6  0  0  0
 21 19  1  0  0  0  0
 21 23  1  0  0  0  0
 22 24  1  0  0  0  0
 22 20  1  1  0  0  0
 22 26  1  0  0  0  0
 23 24  1  0  0  0  0
 26 25  1  0  0  0  0
 27 26  2  0  0  0  0
 29 30  1  6  0  0  0
 29 28  1  0  0  0  0
 29 31  1  0  0  0  0
 31 32  1  1  0  0  0
 31 35  1  0  0  0  0
 33 34  1  0  0  0  0
 34 32  1  0  0  0  0
 35 36  1  0  0  0  0
 37 39  1  6  0  0  0
 37 43  1  0  0  0  0
 37 40  1  0  0  0  0
 38 53  1  6  0  0  0
 38 41  1  0  0  0  0
 40 43  1  6  0  0  0
 40 41  1  0  0  0  0
 40 45  1  0  0  0  0
 42 36  1  6  0  0  0
 42 37  1  0  0  0  0
 42 38  1  0  0  0  0
 44 47  1  0  0  0  0
 45 48  1  1  0  0  0
 45 44  1  0  0  0  0
 46 47  1  0  0  0  0
 46 49  1  1  0  0  0
 48 46  1  0  0  0  0
 49 50  2  0  0  0  0
 51 49  1  0  0  0  0
 53 52  2  0  0  0  0
M  END
>  <MODEL>
1

>  <REMARK>
 VINA RESULT:      -6.6      0.000      0.000
  Name = 
  23 active torsions:
  status: ('A' for Active; 'I' for Inactive)
    1  A    between atoms: C_2  and  C_28
    2  A    between atoms: C_4  and  C_37
    3  A    between atoms: C_4  and  C_42
    4  A    between atoms: C_7  and  C_21
    5  A    between atoms: C_9  and  C_10
    6  A    between atoms: C_9  and  C_31
    7  A    between atoms: C_9  and  C_52
    8  A    between atoms: C_13  and  C_19
    9  A    between atoms: C_13  and  C_37
   10  A    between atoms: C_14  and  C_33
   11  A    between atoms: C_15  and  C_46
   12  A    between atoms: C_17  and  N_23
   13  A    between atoms: O_18  and  C_26
   14  A    between atoms: O_18  and  C_31
   15  A    between atoms: C_19  and  C_48
   16  A    between atoms: N_23  and  C_30
   17  A    between atoms: C_25  and  C_26
   18  A    between atoms: C_27  and  C_38
   19  A    between atoms: C_30  and  O_47
   20  A    between atoms: C_33  and  C_37
   21  A    between atoms: C_34  and  C_35
   22  A    between atoms: C_38  and  C_42
   23  A    between atoms: O_47  and  C_52
                            x       y       z     vdW  Elec       q    Type
                         _______ _______ _______ _____ _____    ______ ____

>  <TORSDO>
F 23

$$$$
=
 OpenBabel11062414043D

 53 57  0  0  1  0  0  0  0  0999 V2000
  188.8860  178.5000  137.7710 C   0  0  1  0  0  3  0  0  0  0  0  0
  188.8930  179.2330  138.9570 O   0  0  0  0  0  1  0  0  0  0  0  0
  189.8740  177.3850  137.8730 C   0  0  0  0  0  3  0  0  0  0  0  0
  190.1500  176.7430  139.0100 C   0  0  0  0  0  0  0  0  0  0  0  0
  189.5390  177.0810  140.2240 O   0  0  0  0  0  0  0  0  0  0  0  0
  191.6130  177.4930  141.1220 O   0  0  0  0  0  1  0  0  0  0  0  0
  190.2460  177.7350  141.2710 C   0  0  2  0  0  3  0  0  0  0  0  0
  189.7490  177.2420  142.6300 C   0  0  1  0  0  3  0  0  0  0  0  0
  190.3450  178.0960  143.7580 C   0  0  2  0  0  3  0  0  0  0  0  0
  191.4000  177.4170  144.5700 C   0  0  2  0  0  3  0  0  0  0  0  0
  191.6570  176.1070  144.1490 O   0  0  0  0  0  1  0  0  0  0  0  0
  190.0660  177.5090  145.0090 O   0  0  0  0  0  0  0  0  0  0  0  0
  188.2280  177.3440  142.6540 C   0  0  0  0  0  2  0  0  0  0  0  0
  187.6990  176.5950  143.7080 O   0  0  0  0  0  0  0  0  0  0  0  0
  186.4830  177.2150  144.0050 C   0  0  0  0  0  2  0  0  0  0  0  0
  186.0950  178.1730  142.8920 C   0  0  0  0  0  2  0  0  0  0  0  0
  184.8970  179.0050  143.3060 C   0  0  0  0  0  1  0  0  0  0  0  0
  191.0530  175.6380  138.9630 N   0  0  0  0  0  2  0  0  0  0  0  0
  193.4580  175.7150  138.6320 C   0  0  0  0  0  2  0  0  0  0  0  0
  195.0960  175.7320  136.9080 O   0  0  0  0  0  1  0  0  0  0  0  0
  192.1110  175.5460  137.9700 C   0  0  1  0  0  3  0  0  0  0  0  0
  194.4310  174.8920  137.8030 C   0  0  2  0  0  0  0  0  0  0  0  0
  192.1400  174.1640  137.3560 C   0  0  0  0  0  2  0  0  0  0  0  0
  193.5950  173.8880  137.0220 C   0  0  0  0  0  2  0  0  0  0  0  0
  196.3250  174.8850  139.4650 O   0  0  0  0  0  1  0  0  0  0  0  0
  195.4320  174.1760  138.6640 C   0  0  0  0  0  0  0  0  0  0  0  0
  195.4650  172.9160  138.6730 O   0  0  0  0  0  0  0  0  0  0  0  0
  187.4900  177.9530  137.5210 C   0  0  0  0  0  2  0  0  0  0  0  0
  187.4010  177.3870  136.1130 C   0  0  2  0  0  3  0  0  0  0  0  0
  186.9150  178.3500  135.2220 O   0  0  0  0  0  1  0  0  0  0  0  0
  186.5510  176.1100  136.0850 C   0  0  1  0  0  3  0  0  0  0  0  0
  187.3650  174.8190  136.0020 C   0  0  0  0  0  2  0  0  0  0  0  0
  187.7830  172.6490  137.1120 C   0  0  0  0  0  1  0  0  0  0  0  0
  186.7620  173.7440  136.8870 C   0  0  0  0  0  2  0  0  0  0  0  0
  185.5640  176.0760  137.2510 C   0  0  0  0  0  2  0  0  0  0  0  0
  184.1410  176.4190  136.8280 C   0  0  0  0  0  2  0  0  0  0  0  0
  183.7140  177.7600  138.8730 C   0  0  1  0  0  0  0  0  0  0  0  0
  182.2930  178.1710  137.0230 C   0  0  1  0  0  3  0  0  0  0  0  0
  184.5270  178.6570  139.5690 O   0  0  0  0  0  1  0  0  0  0  0  0
  182.2430  177.8920  139.2260 C   0  0  1  0  0  0  0  0  0  0  0  0
  181.4630  177.7360  138.0670 O   0  0  0  0  0  0  0  0  0  0  0  0
  183.7340  177.7900  137.3640 C   0  0  2  0  0  3  0  0  0  0  0  0
  183.0120  176.6590  139.6710 C   0  0  0  0  0  2  0  0  0  0  0  0
  180.4840  179.5680  139.8520 C   0  0  0  0  0  2  0  0  0  0  0  0
  181.8260  178.9830  140.2370 C   0  0  1  0  0  3  0  0  0  0  0  0
  180.1020  178.2810  141.7710 C   0  0  1  0  0  3  0  0  0  0  0  0
  179.4510  178.8640  140.6000 N   0  0  0  0  0  2  0  0  0  0  0  0
  181.6030  178.4580  141.6380 C   0  0  0  0  0  2  0  0  0  0  0  0
  179.6060  178.9330  143.0200 C   0  0  0  0  0  0  0  0  0  0  0  0
  179.1900  180.1220  142.9990 O   0  0  0  0  0  0  0  0  0  0  0  0
  179.6080  178.2070  144.2430 N   0  0  0  0  0  1  0  0  0  0  0  0
  182.3400  178.0810  134.6110 N   0  0  0  0  0  2  0  0  0  0  0  0
  181.7980  177.6750  135.6980 C   0  0  0  0  0  3  0  0  0  0  0  0
  1  3  1  0  0  0  0
  1  2  1  1  0  0  0
  3  4  2  0  0  0  0
  4  5  1  0  0  0  0
  5  7  1  0  0  0  0
  7  6  1  6  0  0  0
  7  8  1  0  0  0  0
  8 13  1  6  0  0  0
  9  8  1  6  0  0  0
  9 10  1  0  0  0  0
  9 12  1  0  0  0  0
 10 11  1  6  0  0  0
 10 12  1  0  0  0  0
 13 14  1  0  0  0  0
 14 15  1  0  0  0  0
 16 17  1  0  0  0  0
 16 15  1  0  0  0  0
 18  4  1  0  0  0  0
 21 19  1  0  0  0  0
 21 18  1  1  0  0  0
 22 20  1  6  0  0  0
 22 19  1  0  0  0  0
 22 26  1  0  0  0  0
 23 21  1  0  0  0  0
 24 23  1  0  0  0  0
 24 22  1  0  0  0  0
 26 27  2  0  0  0  0
 26 25  1  0  0  0  0
 28  1  1  0  0  0  0
 29 30  1  6  0  0  0
 29 28  1  0  0  0  0
 31 32  1  1  0  0  0
 31 29  1  0  0  0  0
 31 35  1  0  0  0  0
 32 34  1  0  0  0  0
 34 33  1  0  0  0  0
 36 35  1  0  0  0  0
 37 40  1  0  0  0  0
 37 39  1  1  0  0  0
 37 43  1  0  0  0  0
 38 53  1  6  0  0  0
 38 42  1  0  0  0  0
 38 41  1  0  0  0  0
 40 43  1  1  0  0  0
 40 45  1  0  0  0  0
 41 40  1  0  0  0  0
 42 36  1  6  0  0  0
 42 37  1  0  0  0  0
 44 47  1  0  0  0  0
 45 44  1  6  0  0  0
 45 48  1  0  0  0  0
 46 49  1  1  0  0  0
 47 46  1  0  0  0  0
 48 46  1  0  0  0  0
 49 51  1  0  0  0  0
 50 49  2  0  0  0  0
 52 53  2  0  0  0  0
M  END
>  <MODEL>
2

>  <REMARK>
 VINA RESULT:      -6.4      2.601      6.877
  Name = 
  23 active torsions:
  status: ('A' for Active; 'I' for Inactive)
    1  A    between atoms: C_2  and  C_28
    2  A    between atoms: C_4  and  C_37
    3  A    between atoms: C_4  and  C_42
    4  A    between atoms: C_7  and  C_21
    5  A    between atoms: C_9  and  C_10
    6  A    between atoms: C_9  and  C_31
    7  A    between atoms: C_9  and  C_52
    8  A    between atoms: C_13  and  C_19
    9  A    between atoms: C_13  and  C_37
   10  A    between atoms: C_14  and  C_33
   11  A    between atoms: C_15  and  C_46
   12  A    between atoms: C_17  and  N_23
   13  A    between atoms: O_18  and  C_26
   14  A    between atoms: O_18  and  C_31
   15  A    between atoms: C_19  and  C_48
   16  A    between atoms: N_23  and  C_30
   17  A    between atoms: C_25  and  C_26
   18  A    between atoms: C_27  and  C_38
   19  A    between atoms: C_30  and  O_47
   20  A    between atoms: C_33  and  C_37
   21  A    between atoms: C_34  and  C_35
   22  A    between atoms: C_38  and  C_42
   23  A    between atoms: O_47  and  C_52
                            x       y       z     vdW  Elec       q    Type
                         _______ _______ _______ _____ _____    ______ ____

>  <TORSDO>
F 23

$$$$
=
 OpenBabel11062414043D

 53 57  0  0  1  0  0  0  0  0999 V2000
  191.1160  176.7700  141.9990 C   0  0  1  0  0  3  0  0  0  0  0  0
  190.2850  175.6780  142.2510 O   0  0  0  0  0  1  0  0  0  0  0  0
  190.5490  177.5740  140.8770 C   0  0  0  0  0  3  0  0  0  0  0  0
  190.6440  177.2220  139.5920 C   0  0  0  0  0  0  0  0  0  0  0  0
  191.3110  176.0600  139.1850 O   0  0  0  0  0  0  0  0  0  0  0  0
  193.1260  177.3490  138.6180 O   0  0  0  0  0  1  0  0  0  0  0  0
  192.7040  176.0480  138.8980 C   0  0  2  0  0  3  0  0  0  0  0  0
  192.9910  175.1160  137.7220 C   0  0  1  0  0  3  0  0  0  0  0  0
  192.7480  175.8440  136.3930 C   0  0  2  0  0  3  0  0  0  0  0  0
  191.7410  175.1990  135.4970 C   0  0  2  0  0  3  0  0  0  0  0  0
  191.1930  174.0320  136.0410 O   0  0  0  0  0  1  0  0  0  0  0  0
  193.1240  175.0190  135.3130 O   0  0  0  0  0  0  0  0  0  0  0  0
  194.4450  174.6660  137.8060 C   0  0  0  0  0  2  0  0  0  0  0  0
  194.5250  173.2970  138.0720 O   0  0  0  0  0  0  0  0  0  0  0  0
  195.8950  173.0310  138.1440 C   0  0  0  0  0  2  0  0  0  0  0  0
  196.2150  171.7220  137.4430 C   0  0  0  0  0  2  0  0  0  0  0  0
  195.3640  170.6010  138.0060 C   0  0  0  0  0  1  0  0  0  0  0  0
  189.9880  178.0320  138.6170 N   0  0  0  0  0  2  0  0  0  0  0  0
  188.4670  176.4570  137.5650 C   0  0  0  0  0  2  0  0  0  0  0  0
  187.9370  175.5210  135.4440 O   0  0  0  0  0  1  0  0  0  0  0  0
  189.5400  177.4960  137.3410 C   0  0  1  0  0  3  0  0  0  0  0  0
  187.5670  176.5240  136.3400 C   0  0  2  0  0  0  0  0  0  0  0  0
  188.8790  178.5790  136.5180 C   0  0  0  0  0  2  0  0  0  0  0  0
  187.8060  177.8830  135.7000 C   0  0  0  0  0  2  0  0  0  0  0  0
  185.5330  175.1070  136.7940 O   0  0  0  0  0  0  0  0  0  0  0  0
  186.1170  176.3680  136.7040 C   0  0  0  0  0  0  0  0  0  0  0  0
  185.4170  177.3890  136.9390 O   0  0  0  0  0  1  0  0  0  0  0  0
  191.2330  177.6170  143.2550 C   0  0  0  0  0  2  0  0  0  0  0  0
  191.6950  176.7550  144.4190 C   0  0  2  0  0  3  0  0  0  0  0  0
  191.9010  175.4340  144.0050 O   0  0  0  0  0  1  0  0  0  0  0  0
  190.7090  176.8340  145.5910 C   0  0  1  0  0  3  0  0  0  0  0  0
  191.3750  176.8690  146.9670 C   0  0  0  0  0  2  0  0  0  0  0  0
  192.9390  175.7360  148.5090 C   0  0  0  0  0  1  0  0  0  0  0  0
  192.1650  175.5990  147.2160 C   0  0  0  0  0  2  0  0  0  0  0  0
  189.7310  177.9930  145.4130 C   0  0  0  0  0  2  0  0  0  0  0  0
  188.5380  177.9080  146.3580 C   0  0  0  0  0  2  0  0  0  0  0  0
  187.5060  177.2770  144.1900 C   0  0  1  0  0  0  0  0  0  0  0  0
  186.0190  177.8460  145.9440 C   0  0  1  0  0  3  0  0  0  0  0  0
  187.5750  176.0940  143.4500 O   0  0  0  0  0  1  0  0  0  0  0  0
  186.3540  178.1740  143.7730 C   0  0  1  0  0  0  0  0  0  0  0  0
  185.7780  178.7640  144.9110 O   0  0  0  0  0  0  0  0  0  0  0  0
  187.3720  177.1810  145.6910 C   0  0  2  0  0  3  0  0  0  0  0  0
  187.7810  178.5960  143.4640 C   0  0  0  0  0  2  0  0  0  0  0  0
  183.9980  178.1780  142.9070 C   0  0  0  0  0  2  0  0  0  0  0  0
  185.4060  177.6810  142.6570 C   0  0  1  0  0  3  0  0  0  0  0  0
  184.7960  179.3930  141.0710 C   0  0  1  0  0  3  0  0  0  0  0  0
  183.8100  179.4080  142.1480 N   0  0  0  0  0  2  0  0  0  0  0  0
  185.7450  178.2290  141.2880 C   0  0  0  0  0  2  0  0  0  0  0  0
  184.1170  179.2750  139.7460 C   0  0  0  0  0  0  0  0  0  0  0  0
  184.1930  180.2090  138.9030 O   0  0  0  0  0  0  0  0  0  0  0  0
  183.3740  178.1030  139.4360 N   0  0  0  0  0  1  0  0  0  0  0  0
  185.8960  179.7680  147.3990 N   0  0  0  0  0  2  0  0  0  0  0  0
  185.8660  178.4930  147.2880 C   0  0  0  0  0  3  0  0  0  0  0  0
  1  2  1  1  0  0  0
  1 28  1  0  0  0  0
  3  1  1  0  0  0  0
  4  3  2  0  0  0  0
  5  4  1  0  0  0  0
  7  6  1  6  0  0  0
  7  5  1  0  0  0  0
  8 13  1  6  0  0  0
  8  7  1  0  0  0  0
  9  8  1  1  0  0  0
 10 11  1  1  0  0  0
 10  9  1  0  0  0  0
 12 10  1  0  0  0  0
 12  9  1  0  0  0  0
 13 14  1  0  0  0  0
 14 15  1  0  0  0  0
 16 17  1  0  0  0  0
 16 15  1  0  0  0  0
 18  4  1  0  0  0  0
 21 19  1  0  0  0  0
 21 18  1  1  0  0  0
 22 20  1  6  0  0  0
 22 26  1  0  0  0  0
 22 19  1  0  0  0  0
 23 21  1  0  0  0  0
 24 22  1  0  0  0  0
 24 23  1  0  0  0  0
 26 25  2  0  0  0  0
 26 27  1  0  0  0  0
 28 29  1  0  0  0  0
 29 30  1  6  0  0  0
 29 31  1  0  0  0  0
 31 35  1  6  0  0  0
 31 32  1  0  0  0  0
 32 34  1  0  0  0  0
 34 33  1  0  0  0  0
 35 36  1  0  0  0  0
 37 39  1  6  0  0  0
 37 42  1  0  0  0  0
 38 53  1  1  0  0  0
 40 43  1  6  0  0  0
 40 37  1  0  0  0  0
 40 41  1  0  0  0  0
 41 38  1  0  0  0  0
 42 38  1  0  0  0  0
 42 36  1  1  0  0  0
 43 37  1  0  0  0  0
 45 48  1  6  0  0  0
 45 44  1  0  0  0  0
 45 40  1  0  0  0  0
 46 49  1  6  0  0  0
 46 48  1  0  0  0  0
 46 47  1  0  0  0  0
 47 44  1  0  0  0  0
 50 49  2  0  0  0  0
 51 49  1  0  0  0  0
 53 52  2  0  0  0  0
M  END
>  <MODEL>
3

>  <REMARK>
 VINA RESULT:      -6.3      2.241      6.798
  Name = 
  23 active torsions:
  status: ('A' for Active; 'I' for Inactive)
    1  A    between atoms: C_2  and  C_28
    2  A    between atoms: C_4  and  C_37
    3  A    between atoms: C_4  and  C_42
    4  A    between atoms: C_7  and  C_21
    5  A    between atoms: C_9  and  C_10
    6  A    between atoms: C_9  and  C_31
    7  A    between atoms: C_9  and  C_52
    8  A    between atoms: C_13  and  C_19
    9  A    between atoms: C_13  and  C_37
   10  A    between atoms: C_14  and  C_33
   11  A    between atoms: C_15  and  C_46
   12  A    between atoms: C_17  and  N_23
   13  A    between atoms: O_18  and  C_26
   14  A    between atoms: O_18  and  C_31
   15  A    between atoms: C_19  and  C_48
   16  A    between atoms: N_23  and  C_30
   17  A    between atoms: C_25  and  C_26
   18  A    between atoms: C_27  and  C_38
   19  A    between atoms: C_30  and  O_47
   20  A    between atoms: C_33  and  C_37
   21  A    between atoms: C_34  and  C_35
   22  A    between atoms: C_38  and  C_42
   23  A    between atoms: O_47  and  C_52
                            x       y       z     vdW  Elec       q    Type
                         _______ _______ _______ _____ _____    ______ ____

>  <TORSDO>
F 23

$$$$
=
 OpenBabel11062414043D

 53 57  0  0  1  0  0  0  0  0999 V2000
  190.5390  177.0560  141.1770 C   0  0  1  0  0  3  0  0  0  0  0  0
  189.7360  178.1960  141.1380 O   0  0  0  0  0  1  0  0  0  0  0  0
  191.3170  176.9540  139.9080 C   0  0  0  0  0  3  0  0  0  0  0  0
  190.7560  176.7770  138.7080 C   0  0  0  0  0  0  0  0  0  0  0  0
  189.3710  176.6500  138.5450 O   0  0  0  0  0  0  0  0  0  0  0  0
  187.8910  178.4000  138.3900 O   0  0  0  0  0  1  0  0  0  0  0  0
  188.6360  177.4780  137.6520 C   0  0  2  0  0  3  0  0  0  0  0  0
  187.7270  176.6230  136.7700 C   0  0  1  0  0  3  0  0  0  0  0  0
  187.0490  177.4920  135.7010 C   0  0  2  0  0  3  0  0  0  0  0  0
  185.5760  177.2830  135.5610 C   0  0  2  0  0  3  0  0  0  0  0  0
  185.0740  176.3190  136.4430 O   0  0  0  0  0  1  0  0  0  0  0  0
  186.5000  176.6760  134.6910 O   0  0  0  0  0  0  0  0  0  0  0  0
  188.5750  175.5480  136.1000 C   0  0  0  0  0  2  0  0  0  0  0  0
  187.9500  174.3020  136.1820 O   0  0  0  0  0  0  0  0  0  0  0  0
  188.2910  173.6580  134.9890 C   0  0  0  0  0  2  0  0  0  0  0  0
  188.2270  172.1510  135.1680 C   0  0  0  0  0  2  0  0  0  0  0  0
  187.7390  171.8060  136.5620 C   0  0  0  0  0  1  0  0  0  0  0  0
  191.6020  176.7790  137.5580 N   0  0  0  0  0  2  0  0  0  0  0  0
  192.4590  174.5070  137.6220 C   0  0  0  0  0  2  0  0  0  0  0  0
  194.5050  173.2950  137.6690 O   0  0  0  0  0  1  0  0  0  0  0  0
  192.8080  175.9700  137.4830 C   0  0  1  0  0  3  0  0  0  0  0  0
  193.5050  173.7570  136.8120 C   0  0  2  0  0  0  0  0  0  0  0  0
  193.4450  176.1000  136.1180 C   0  0  0  0  0  2  0  0  0  0  0  0
  194.1020  174.7610  135.8370 C   0  0  0  0  0  2  0  0  0  0  0  0
  191.7020  172.7350  135.3780 O   0  0  0  0  0  0  0  0  0  0  0  0
  192.9060  172.5990  136.0640 C   0  0  0  0  0  0  0  0  0  0  0  0
  193.5020  171.4880  136.0460 O   0  0  0  0  0  1  0  0  0  0  0  0
  191.4760  177.1380  142.3710 C   0  0  0  0  0  2  0  0  0  0  0  0
  191.2140  175.9760  143.3160 C   0  0  2  0  0  3  0  0  0  0  0  0
  190.1890  175.1600  142.8240 O   0  0  0  0  0  1  0  0  0  0  0  0
  190.9090  176.4740  144.7340 C   0  0  1  0  0  3  0  0  0  0  0  0
  192.0840  176.3580  145.7040 C   0  0  0  0  0  2  0  0  0  0  0  0
  192.5210  175.8640  148.0860 C   0  0  0  0  0  1  0  0  0  0  0  0
  191.7390  175.4410  146.8620 C   0  0  0  0  0  2  0  0  0  0  0  0
  190.3400  177.8920  144.7110 C   0  0  0  0  0  2  0  0  0  0  0  0
  189.4530  178.1900  145.9130 C   0  0  0  0  0  2  0  0  0  0  0  0
  187.5210  177.5390  144.4960 C   0  0  1  0  0  0  0  0  0  0  0  0
  187.0790  177.8750  146.7990 C   0  0  1  0  0  3  0  0  0  0  0  0
  187.2950  176.4010  143.7190 O   0  0  0  0  0  1  0  0  0  0  0  0
  186.2540  178.3240  144.7850 C   0  0  1  0  0  0  0  0  0  0  0  0
  186.2860  178.8030  146.1070 O   0  0  0  0  0  0  0  0  0  0  0  0
  188.1660  177.3690  145.8510 C   0  0  2  0  0  3  0  0  0  0  0  0
  187.2980  178.9080  143.8490 C   0  0  0  0  0  2  0  0  0  0  0  0
  183.7550  178.5480  144.8430 C   0  0  0  0  0  2  0  0  0  0  0  0
  184.9130  177.7760  144.2470 C   0  0  1  0  0  3  0  0  0  0  0  0
  183.8750  179.1960  142.5960 C   0  0  1  0  0  3  0  0  0  0  0  0
  183.3860  179.6040  143.9100 N   0  0  0  0  0  2  0  0  0  0  0  0
  184.7390  177.9590  142.7550 C   0  0  0  0  0  2  0  0  0  0  0  0
  182.7300  178.9200  141.6770 C   0  0  0  0  0  0  0  0  0  0  0  0
  181.5470  178.9220  142.1120 O   0  0  0  0  0  0  0  0  0  0  0  0
  182.9770  178.6500  140.3030 N   0  0  0  0  0  1  0  0  0  0  0  0
  187.8690  177.6760  149.0710 N   0  0  0  0  0  2  0  0  0  0  0  0
  187.5740  178.4480  148.0920 C   0  0  0  0  0  3  0  0  0  0  0  0
  1  2  1  6  0  0  0
  1 28  1  0  0  0  0
  3  1  1  0  0  0  0
  4  3  2  0  0  0  0
  5  4  1  0  0  0  0
  7  6  1  1  0  0  0
  7  5  1  0  0  0  0
  8 13  1  6  0  0  0
  8  7  1  0  0  0  0
  9  8  1  1  0  0  0
 10  9  1  0  0  0  0
 10 11  1  1  0  0  0
 12 10  1  0  0  0  0
 12  9  1  0  0  0  0
 13 14  1  0  0  0  0
 15 16  1  0  0  0  0
 15 14  1  0  0  0  0
 16 17  1  0  0  0  0
 18  4  1  0  0  0  0
 21 18  1  6  0  0  0
 21 19  1  0  0  0  0
 22 19  1  0  0  0  0
 22 20  1  1  0  0  0
 23 21  1  0  0  0  0
 24 23  1  0  0  0  0
 24 22  1  0  0  0  0
 25 26  2  0  0  0  0
 26 22  1  0  0  0  0
 27 26  1  0  0  0  0
 28 29  1  0  0  0  0
 29 30  1  6  0  0  0
 29 31  1  0  0  0  0
 31 35  1  6  0  0  0
 31 32  1  0  0  0  0
 32 34  1  0  0  0  0
 34 33  1  0  0  0  0
 35 36  1  0  0  0  0
 37 39  1  6  0  0  0
 37 40  1  0  0  0  0
 37 42  1  0  0  0  0
 38 53  1  1  0  0  0
 40 43  1  6  0  0  0
 40 41  1  0  0  0  0
 41 38  1  0  0  0  0
 42 36  1  6  0  0  0
 42 38  1  0  0  0  0
 43 37  1  0  0  0  0
 45 48  1  6  0  0  0
 45 40  1  0  0  0  0
 45 44  1  0  0  0  0
 46 49  1  6  0  0  0
 46 48  1  0  0  0  0
 46 47  1  0  0  0  0
 47 44  1  0  0  0  0
 49 50  2  0  0  0  0
 51 49  1  0  0  0  0
 53 52  2  0  0  0  0
M  END
>  <MODEL>
4

>  <REMARK>
 VINA RESULT:      -6.2      2.285      7.033
  Name = 
  23 active torsions:
  status: ('A' for Active; 'I' for Inactive)
    1  A    between atoms: C_2  and  C_28
    2  A    between atoms: C_4  and  C_37
    3  A    between atoms: C_4  and  C_42
    4  A    between atoms: C_7  and  C_21
    5  A    between atoms: C_9  and  C_10
    6  A    between atoms: C_9  and  C_31
    7  A    between atoms: C_9  and  C_52
    8  A    between atoms: C_13  and  C_19
    9  A    between atoms: C_13  and  C_37
   10  A    between atoms: C_14  and  C_33
   11  A    between atoms: C_15  and  C_46
   12  A    between atoms: C_17  and  N_23
   13  A    between atoms: O_18  and  C_26
   14  A    between atoms: O_18  and  C_31
   15  A    between atoms: C_19  and  C_48
   16  A    between atoms: N_23  and  C_30
   17  A    between atoms: C_25  and  C_26
   18  A    between atoms: C_27  and  C_38
   19  A    between atoms: C_30  and  O_47
   20  A    between atoms: C_33  and  C_37
   21  A    between atoms: C_34  and  C_35
   22  A    between atoms: C_38  and  C_42
   23  A    between atoms: O_47  and  C_52
                            x       y       z     vdW  Elec       q    Type
                         _______ _______ _______ _____ _____    ______ ____

>  <TORSDO>
F 23

$$$$
=
 OpenBabel11062414043D

 53 57  0  0  1  0  0  0  0  0999 V2000
  183.3780  178.3800  140.1770 C   0  0  1  0  0  3  0  0  0  0  0  0
  182.2580  178.1740  140.9830 O   0  0  0  0  0  1  0  0  0  0  0  0
  183.0090  179.2650  139.0340 C   0  0  0  0  0  3  0  0  0  0  0  0
  182.2010  178.8910  138.0390 C   0  0  0  0  0  0  0  0  0  0  0  0
  181.6390  177.6090  137.9770 O   0  0  0  0  0  0  0  0  0  0  0  0
  181.7420  176.8200  135.8220 O   0  0  0  0  0  1  0  0  0  0  0  0
  182.1660  176.5920  137.1330 C   0  0  2  0  0  3  0  0  0  0  0  0
  181.7140  175.2170  137.6220 C   0  0  1  0  0  3  0  0  0  0  0  0
  180.1890  175.1850  137.7920 C   0  0  2  0  0  3  0  0  0  0  0  0
  179.7140  175.1710  139.2090 C   0  0  2  0  0  3  0  0  0  0  0  0
  180.7620  175.1910  140.1370 O   0  0  0  0  0  1  0  0  0  0  0  0
  179.7990  173.9960  138.4410 O   0  0  0  0  0  0  0  0  0  0  0  0
  182.1410  174.1750  136.5940 C   0  0  0  0  0  2  0  0  0  0  0  0
  183.5340  174.0940  136.5200 O   0  0  0  0  0  0  0  0  0  0  0  0
  183.9300  173.6740  137.7930 C   0  0  0  0  0  2  0  0  0  0  0  0
  185.1330  172.7510  137.6910 C   0  0  0  0  0  2  0  0  0  0  0  0
  185.4480  172.4560  136.2390 C   0  0  0  0  0  1  0  0  0  0  0  0
  181.8560  179.8570  137.0450 N   0  0  0  0  0  2  0  0  0  0  0  0
  181.3510  182.1150  137.7820 C   0  0  0  0  0  2  0  0  0  0  0  0
  179.5110  183.5520  138.2380 O   0  0  0  0  0  1  0  0  0  0  0  0
  180.7870  180.8220  137.2430 C   0  0  1  0  0  3  0  0  0  0  0  0
  180.4400  183.2130  137.2530 C   0  0  2  0  0  0  0  0  0  0  0  0
  180.1530  181.1850  135.9180 C   0  0  0  0  0  2  0  0  0  0  0  0
  179.7090  182.6300  136.0520 C   0  0  0  0  0  2  0  0  0  0  0  0
  182.3160  184.8630  137.5860 O   0  0  0  0  0  1  0  0  0  0  0  0
  181.2150  184.4340  136.8480 C   0  0  0  0  0  0  0  0  0  0  0  0
  180.8740  185.0810  135.8210 O   0  0  0  0  0  0  0  0  0  0  0  0
  184.4860  179.0110  141.0030 C   0  0  0  0  0  2  0  0  0  0  0  0
  184.5840  178.3170  142.3530 C   0  0  2  0  0  3  0  0  0  0  0  0
  183.6390  178.8340  143.2450 O   0  0  0  0  0  1  0  0  0  0  0  0
  186.0070  178.4080  142.9190 C   0  0  1  0  0  3  0  0  0  0  0  0
  186.4020  177.2300  143.8090 C   0  0  0  0  0  2  0  0  0  0  0  0
  187.8670  177.6700  145.7510 C   0  0  0  0  0  1  0  0  0  0  0  0
  186.4330  177.6430  145.2680 C   0  0  0  0  0  2  0  0  0  0  0  0
  187.0300  178.6390  141.8090 C   0  0  0  0  0  2  0  0  0  0  0  0
  188.0860  177.5420  141.7440 C   0  0  0  0  0  2  0  0  0  0  0  0
  189.1260  177.9050  139.5190 C   0  0  1  0  0  0  0  0  0  0  0  0
  190.5620  177.1600  141.2490 C   0  0  1  0  0  3  0  0  0  0  0  0
  189.2280  179.0520  138.7290 O   0  0  0  0  0  1  0  0  0  0  0  0
  190.0930  176.8090  139.1060 C   0  0  1  0  0  0  0  0  0  0  0  0
  190.6050  176.1750  140.2520 O   0  0  0  0  0  0  0  0  0  0  0  0
  189.3310  178.0350  141.0090 C   0  0  2  0  0  3  0  0  0  0  0  0
  188.6050  176.6240  138.8620 C   0  0  0  0  0  2  0  0  0  0  0  0
  192.4600  176.6160  138.2950 C   0  0  0  0  0  2  0  0  0  0  0  0
  191.0670  177.0920  137.9400 C   0  0  1  0  0  3  0  0  0  0  0  0
  191.6630  175.1270  136.6730 C   0  0  1  0  0  3  0  0  0  0  0  0
  192.6320  175.2740  137.7550 N   0  0  0  0  0  2  0  0  0  0  0  0
  190.7360  176.3280  136.6770 C   0  0  0  0  0  2  0  0  0  0  0  0
  192.3630  175.0090  135.3590 C   0  0  0  0  0  0  0  0  0  0  0  0
  193.0650  175.9590  134.9220 O   0  0  0  0  0  0  0  0  0  0  0  0
  192.2310  173.8170  134.5940 N   0  0  0  0  0  1  0  0  0  0  0  0
  190.9880  177.2660  143.6230 N   0  0  0  0  0  2  0  0  0  0  0  0
  190.6550  176.5490  142.6150 C   0  0  0  0  0  3  0  0  0  0  0  0
  1  2  1  1  0  0  0
  1 28  1  0  0  0  0
  3  1  1  0  0  0  0
  4  3  2  0  0  0  0
  5  4  1  0  0  0  0
  7  6  1  6  0  0  0
  7  8  1  0  0  0  0
  7  5  1  0  0  0  0
  8 13  1  6  0  0  0
  9  8  1  1  0  0  0
  9 12  1  0  0  0  0
  9 10  1  0  0  0  0
 10 11  1  1  0  0  0
 12 10  1  0  0  0  0
 14 13  1  0  0  0  0
 14 15  1  0  0  0  0
 16 15  1  0  0  0  0
 17 16  1  0  0  0  0
 18  4  1  0  0  0  0
 21 18  1  6  0  0  0
 21 19  1  0  0  0  0
 22 19  1  0  0  0  0
 22 20  1  1  0  0  0
 23 24  1  0  0  0  0
 23 21  1  0  0  0  0
 24 22  1  0  0  0  0
 26 22  1  0  0  0  0
 26 25  1  0  0  0  0
 27 26  2  0  0  0  0
 28 29  1  0  0  0  0
 29 31  1  0  0  0  0
 29 30  1  1  0  0  0
 31 35  1  6  0  0  0
 31 32  1  0  0  0  0
 32 34  1  0  0  0  0
 34 33  1  0  0  0  0
 36 35  1  0  0  0  0
 37 39  1  6  0  0  0
 37 42  1  0  0  0  0
 38 53  1  1  0  0  0
 40 43  1  6  0  0  0
 40 37  1  0  0  0  0
 40 41  1  0  0  0  0
 41 38  1  0  0  0  0
 42 38  1  0  0  0  0
 42 36  1  1  0  0  0
 43 37  1  0  0  0  0
 45 48  1  6  0  0  0
 45 44  1  0  0  0  0
 45 40  1  0  0  0  0
 46 49  1  6  0  0  0
 46 48  1  0  0  0  0
 46 47  1  0  0  0  0
 47 44  1  0  0  0  0
 50 49  2  0  0  0  0
 51 49  1  0  0  0  0
 53 52  2  0  0  0  0
M  END
>  <MODEL>
5

>  <REMARK>
 VINA RESULT:      -6.1      3.788      9.912
  Name = 
  23 active torsions:
  status: ('A' for Active; 'I' for Inactive)
    1  A    between atoms: C_2  and  C_28
    2  A    between atoms: C_4  and  C_37
    3  A    between atoms: C_4  and  C_42
    4  A    between atoms: C_7  and  C_21
    5  A    between atoms: C_9  and  C_10
    6  A    between atoms: C_9  and  C_31
    7  A    between atoms: C_9  and  C_52
    8  A    between atoms: C_13  and  C_19
    9  A    between atoms: C_13  and  C_37
   10  A    between atoms: C_14  and  C_33
   11  A    between atoms: C_15  and  C_46
   12  A    between atoms: C_17  and  N_23
   13  A    between atoms: O_18  and  C_26
   14  A    between atoms: O_18  and  C_31
   15  A    between atoms: C_19  and  C_48
   16  A    between atoms: N_23  and  C_30
   17  A    between atoms: C_25  and  C_26
   18  A    between atoms: C_27  and  C_38
   19  A    between atoms: C_30  and  O_47
   20  A    between atoms: C_33  and  C_37
   21  A    between atoms: C_34  and  C_35
   22  A    between atoms: C_38  and  C_42
   23  A    between atoms: O_47  and  C_52
                            x       y       z     vdW  Elec       q    Type
                         _______ _______ _______ _____ _____    ______ ____

>  <TORSDO>
F 23

$$$$
=
 OpenBabel11062414043D

 53 57  0  0  1  0  0  0  0  0999 V2000
  189.6690  177.3820  141.1730 C   0  0  1  0  0  3  0  0  0  0  0  0
  188.7410  178.4180  141.2740 O   0  0  0  0  0  1  0  0  0  0  0  0
  190.2770  177.3950  139.8100 C   0  0  0  0  0  3  0  0  0  0  0  0
  189.5760  177.2340  138.6850 C   0  0  0  0  0  0  0  0  0  0  0  0
  188.1920  177.0180  138.6940 O   0  0  0  0  0  0  0  0  0  0  0  0
  186.5410  178.5830  139.0160 O   0  0  0  0  0  1  0  0  0  0  0  0
  187.2840  177.9030  138.0480 C   0  0  2  0  0  3  0  0  0  0  0  0
  186.3680  177.1220  137.1070 C   0  0  1  0  0  3  0  0  0  0  0  0
  186.8130  175.6550  137.0250 C   0  0  2  0  0  3  0  0  0  0  0  0
  187.2590  175.2080  135.6710 C   0  0  2  0  0  3  0  0  0  0  0  0
  187.1910  176.2220  134.7090 O   0  0  0  0  0  1  0  0  0  0  0  0
  185.9660  174.9400  136.1540 O   0  0  0  0  0  0  0  0  0  0  0  0
  184.9430  177.2000  137.6440 C   0  0  0  0  0  2  0  0  0  0  0  0
  184.0360  177.4350  136.6080 O   0  0  0  0  0  0  0  0  0  0  0  0
  182.9140  176.6730  136.9420 C   0  0  0  0  0  2  0  0  0  0  0  0
  182.0860  177.3900  137.9950 C   0  0  0  0  0  2  0  0  0  0  0  0
  181.0390  178.2650  137.3350 C   0  0  0  0  0  1  0  0  0  0  0  0
  190.2600  177.3490  137.4380 N   0  0  0  0  0  2  0  0  0  0  0  0
  192.3670  176.3040  136.8300 C   0  0  0  0  0  2  0  0  0  0  0  0
  193.2430  174.4860  135.5720 O   0  0  0  0  0  1  0  0  0  0  0  0
  190.8610  176.2010  136.7760 C   0  0  1  0  0  3  0  0  0  0  0  0
  192.8750  174.8710  136.8620 C   0  0  2  0  0  0  0  0  0  0  0  0
  190.5210  174.9290  137.5200 C   0  0  0  0  0  2  0  0  0  0  0  0
  191.7140  174.0080  137.3320 C   0  0  0  0  0  2  0  0  0  0  0  0
  194.5510  173.4540  138.1020 O   0  0  0  0  0  0  0  0  0  0  0  0
  194.0470  174.7150  137.7900 C   0  0  0  0  0  0  0  0  0  0  0  0
  194.5910  175.7360  138.2900 O   0  0  0  0  0  1  0  0  0  0  0  0
  190.7400  177.5570  142.2370 C   0  0  0  0  0  2  0  0  0  0  0  0
  190.9120  176.2620  143.0150 C   0  0  2  0  0  3  0  0  0  0  0  0
  189.9640  175.3140  142.6150 O   0  0  0  0  0  1  0  0  0  0  0  0
  190.8570  176.5140  144.5270 C   0  0  1  0  0  3  0  0  0  0  0  0
  192.1310  176.1210  145.2740 C   0  0  0  0  0  2  0  0  0  0  0  0
  192.2150  175.9350  147.7370 C   0  0  0  0  0  1  0  0  0  0  0  0
  191.8090  175.2320  146.4590 C   0  0  0  0  0  2  0  0  0  0  0  0
  190.4520  177.9550  144.8320 C   0  0  0  0  0  2  0  0  0  0  0  0
  189.6850  178.0870  146.1420 C   0  0  0  0  0  2  0  0  0  0  0  0
  187.6500  177.5250  144.8370 C   0  0  1  0  0  0  0  0  0  0  0  0
  187.4020  177.6310  147.1900 C   0  0  1  0  0  3  0  0  0  0  0  0
  187.3770  176.4600  143.9750 O   0  0  0  0  0  1  0  0  0  0  0  0
  186.3990  178.2470  145.3060 C   0  0  1  0  0  0  0  0  0  0  0  0
  186.5370  178.6000  146.6600 O   0  0  0  0  0  0  0  0  0  0  0  0
  188.4120  177.2440  146.1100 C   0  0  2  0  0  3  0  0  0  0  0  0
  187.3490  178.9430  144.3460 C   0  0  0  0  0  2  0  0  0  0  0  0
  183.9140  178.3550  145.6400 C   0  0  0  0  0  2  0  0  0  0  0  0
  185.0260  177.7200  144.8330 C   0  0  1  0  0  3  0  0  0  0  0  0
  183.7820  179.3030  143.5030 C   0  0  1  0  0  3  0  0  0  0  0  0
  183.4210  179.5100  144.9030 N   0  0  0  0  0  2  0  0  0  0  0  0
  184.6940  178.0930  143.4040 C   0  0  0  0  0  2  0  0  0  0  0  0
  182.5560  179.1040  142.6730 C   0  0  0  0  0  0  0  0  0  0  0  0
  182.6520  178.8730  141.4380 O   0  0  0  0  0  0  0  0  0  0  0  0
  181.2730  179.1810  143.2800 N   0  0  0  0  0  1  0  0  0  0  0  0
  189.2420  178.3800  148.5610 N   0  0  0  0  0  2  0  0  0  0  0  0
  187.9970  178.0900  148.4870 C   0  0  0  0  0  3  0  0  0  0  0  0
  1  2  1  6  0  0  0
  1 28  1  0  0  0  0
  3  1  1  0  0  0  0
  4  5  1  0  0  0  0
  4  3  2  0  0  0  0
  7  5  1  0  0  0  0
  7  6  1  1  0  0  0
  8 13  1  1  0  0  0
  8  7  1  0  0  0  0
  9  8  1  6  0  0  0
 10 11  1  6  0  0  0
 10 12  1  0  0  0  0
 10  9  1  0  0  0  0
 12  9  1  0  0  0  0
 14 15  1  0  0  0  0
 14 13  1  0  0  0  0
 15 16  1  0  0  0  0
 17 16  1  0  0  0  0
 18  4  1  0  0  0  0
 19 22  1  0  0  0  0
 21 19  1  0  0  0  0
 21 18  1  1  0  0  0
 21 23  1  0  0  0  0
 22 20  1  6  0  0  0
 22 24  1  0  0  0  0
 22 26  1  0  0  0  0
 24 23  1  0  0  0  0
 26 25  2  0  0  0  0
 26 27  1  0  0  0  0
 28 29  1  0  0  0  0
 29 30  1  6  0  0  0
 29 31  1  0  0  0  0
 31 35  1  6  0  0  0
 31 32  1  0  0  0  0
 32 34  1  0  0  0  0
 34 33  1  0  0  0  0
 35 36  1  0  0  0  0
 37 39  1  6  0  0  0
 37 40  1  0  0  0  0
 37 42  1  0  0  0  0
 38 53  1  1  0  0  0
 40 43  1  6  0  0  0
 40 41  1  0  0  0  0
 41 38  1  0  0  0  0
 42 36  1  6  0  0  0
 42 38  1  0  0  0  0
 43 37  1  0  0  0  0
 45 48  1  6  0  0  0
 45 40  1  0  0  0  0
 45 44  1  0  0  0  0
 46 49  1  6  0  0  0
 46 47  1  0  0  0  0
 47 44  1  0  0  0  0
 48 46  1  0  0  0  0
 49 51  1  0  0  0  0
 50 49  2  0  0  0  0
 53 52  2  0  0  0  0
M  END
>  <MODEL>
6

>  <REMARK>
 VINA RESULT:      -6.0      1.961      7.322
  Name = 
  23 active torsions:
  status: ('A' for Active; 'I' for Inactive)
    1  A    between atoms: C_2  and  C_28
    2  A    between atoms: C_4  and  C_37
    3  A    between atoms: C_4  and  C_42
    4  A    between atoms: C_7  and  C_21
    5  A    between atoms: C_9  and  C_10
    6  A    between atoms: C_9  and  C_31
    7  A    between atoms: C_9  and  C_52
    8  A    between atoms: C_13  and  C_19
    9  A    between atoms: C_13  and  C_37
   10  A    between atoms: C_14  and  C_33
   11  A    between atoms: C_15  and  C_46
   12  A    between atoms: C_17  and  N_23
   13  A    between atoms: O_18  and  C_26
   14  A    between atoms: O_18  and  C_31
   15  A    between atoms: C_19  and  C_48
   16  A    between atoms: N_23  and  C_30
   17  A    between atoms: C_25  and  C_26
   18  A    between atoms: C_27  and  C_38
   19  A    between atoms: C_30  and  O_47
   20  A    between atoms: C_33  and  C_37
   21  A    between atoms: C_34  and  C_35
   22  A    between atoms: C_38  and  C_42
   23  A    between atoms: O_47  and  C_52
                            x       y       z     vdW  Elec       q    Type
                         _______ _______ _______ _____ _____    ______ ____

>  <TORSDO>
F 23

$$$$
=
 OpenBabel11062414043D

 53 57  0  0  1  0  0  0  0  0999 V2000
  186.1960  178.1220  143.3530 C   0  0  1  0  0  3  0  0  0  0  0  0
  186.4410  177.0360  144.1930 O   0  0  0  0  0  1  0  0  0  0  0  0
  187.3010  178.2350  142.3560 C   0  0  0  0  0  3  0  0  0  0  0  0
  188.5780  177.9570  142.6310 C   0  0  0  0  0  0  0  0  0  0  0  0
  188.9940  177.5490  143.9050 O   0  0  0  0  0  0  0  0  0  0  0  0
  190.9150  178.7420  144.3080 O   0  0  0  0  0  1  0  0  0  0  0  0
  189.6480  178.4330  144.8070 C   0  0  2  0  0  3  0  0  0  0  0  0
  189.7470  177.7940  146.1910 C   0  0  1  0  0  3  0  0  0  0  0  0
  188.3480  177.4570  146.7250 C   0  0  2  0  0  3  0  0  0  0  0  0
  188.0720  177.9340  148.1140 C   0  0  2  0  0  3  0  0  0  0  0  0
  189.1560  178.6120  148.6850 O   0  0  0  0  0  1  0  0  0  0  0  0
  188.4480  176.6050  147.8440 O   0  0  0  0  0  0  0  0  0  0  0  0
  190.5760  176.5200  146.0770 C   0  0  0  0  0  2  0  0  0  0  0  0
  191.8940  176.7490  146.4810 O   0  0  0  0  0  0  0  0  0  0  0  0
  192.2450  175.6060  147.2040 C   0  0  0  0  0  2  0  0  0  0  0  0
  192.9870  175.9930  148.4710 C   0  0  0  0  0  2  0  0  0  0  0  0
  192.3960  177.2570  149.0630 C   0  0  0  0  0  1  0  0  0  0  0  0
  189.5300  178.0230  141.5700 N   0  0  0  0  0  2  0  0  0  0  0  0
  188.5730  177.6450  139.3700 C   0  0  0  0  0  2  0  0  0  0  0  0
  188.4440  175.9980  137.6590 O   0  0  0  0  0  1  0  0  0  0  0  0
  189.4940  177.1080  140.4400 C   0  0  1  0  0  3  0  0  0  0  0  0
  189.1400  177.1420  138.0510 C   0  0  2  0  0  0  0  0  0  0  0  0
  190.8550  177.0220  139.7880 C   0  0  0  0  0  2  0  0  0  0  0  0
  190.5950  176.7820  138.3120 C   0  0  0  0  0  2  0  0  0  0  0  0
  189.2180  177.8430  135.6310 O   0  0  0  0  0  0  0  0  0  0  0  0
  189.0480  178.1840  136.9710 C   0  0  0  0  0  0  0  0  0  0  0  0
  188.8060  179.3830  137.2750 O   0  0  0  0  0  1  0  0  0  0  0  0
  184.8620  177.9280  142.6510 C   0  0  0  0  0  2  0  0  0  0  0  0
  183.8130  178.8350  143.2740 C   0  0  2  0  0  3  0  0  0  0  0  0
  183.7770  178.6690  144.6630 O   0  0  0  0  0  1  0  0  0  0  0  0
  182.4360  178.6050  142.6400 C   0  0  1  0  0  3  0  0  0  0  0  0
  181.3210  179.4650  143.2350 C   0  0  0  0  0  2  0  0  0  0  0  0
  178.9310  179.1280  143.7690 C   0  0  0  0  0  1  0  0  0  0  0  0
  180.3330  178.6100  144.0050 C   0  0  0  0  0  2  0  0  0  0  0  0
  182.4970  178.7420  141.1200 C   0  0  0  0  0  2  0  0  0  0  0  0
  181.1510  178.4930  140.4510 C   0  0  0  0  0  2  0  0  0  0  0  0
  181.3260  176.7540  138.6890 C   0  0  1  0  0  0  0  0  0  0  0  0
  182.7000  178.6650  138.4290 C   0  0  1  0  0  3  0  0  0  0  0  0
  180.3710  176.2360  137.8110 O   0  0  0  0  0  1  0  0  0  0  0  0
  182.7520  176.4510  138.2630 C   0  0  1  0  0  0  0  0  0  0  0  0
  183.5680  177.5670  138.5170 O   0  0  0  0  0  0  0  0  0  0  0  0
  181.3300  178.2400  138.9550 C   0  0  2  0  0  3  0  0  0  0  0  0
  182.1760  175.7650  139.4900 C   0  0  0  0  0  2  0  0  0  0  0  0
  184.4300  175.7550  136.5310 C   0  0  0  0  0  2  0  0  0  0  0  0
  182.9750  175.6770  136.9440 C   0  0  1  0  0  3  0  0  0  0  0  0
  184.0770  173.5510  137.2380 C   0  0  1  0  0  3  0  0  0  0  0  0
  185.1070  174.5650  137.0270 N   0  0  0  0  0  2  0  0  0  0  0  0
  182.7130  174.1920  137.0620 C   0  0  0  0  0  2  0  0  0  0  0  0
  184.2540  172.4210  136.2770 C   0  0  0  0  0  0  0  0  0  0  0  0
  184.7190  172.6290  135.1250 O   0  0  0  0  0  0  0  0  0  0  0  0
  183.8890  171.1020  136.6650 N   0  0  0  0  0  1  0  0  0  0  0  0
  184.5570  180.0710  139.0640 N   0  0  0  0  0  2  0  0  0  0  0  0
  183.2920  179.8750  139.0880 C   0  0  0  0  0  3  0  0  0  0  0  0
  1  2  1  1  0  0  0
  3  4  2  0  0  0  0
  3  1  1  0  0  0  0
  4  5  1  0  0  0  0
  5  7  1  0  0  0  0
  7  6  1  6  0  0  0
  7  8  1  0  0  0  0
  8 13  1  6  0  0  0
  9  8  1  1  0  0  0
  9 12  1  0  0  0  0
  9 10  1  0  0  0  0
 10 11  1  1  0  0  0
 12 10  1  0  0  0  0
 13 14  1  0  0  0  0
 14 15  1  0  0  0  0
 15 16  1  0  0  0  0
 16 17  1  0  0  0  0
 18  4  1  0  0  0  0
 19 21  1  0  0  0  0
 21 18  1  1  0  0  0
 22 20  1  6  0  0  0
 22 24  1  0  0  0  0
 22 19  1  0  0  0  0
 23 21  1  0  0  0  0
 24 23  1  0  0  0  0
 25 26  2  0  0  0  0
 26 27  1  0  0  0  0
 26 22  1  0  0  0  0
 28 29  1  0  0  0  0
 28  1  1  0  0  0  0
 29 30  1  1  0  0  0
 31 35  1  6  0  0  0
 31 32  1  0  0  0  0
 31 29  1  0  0  0  0
 32 34  1  0  0  0  0
 33 34  1  0  0  0  0
 36 35  1  0  0  0  0
 37 39  1  6  0  0  0
 37 42  1  0  0  0  0
 37 43  1  0  0  0  0
 38 41  1  0  0  0  0
 38 42  1  0  0  0  0
 38 53  1  1  0  0  0
 40 41  1  0  0  0  0
 40 37  1  0  0  0  0
 40 43  1  1  0  0  0
 42 36  1  1  0  0  0
 44 47  1  0  0  0  0
 45 44  1  1  0  0  0
 45 48  1  0  0  0  0
 45 40  1  0  0  0  0
 46 49  1  6  0  0  0
 47 46  1  0  0  0  0
 48 46  1  0  0  0  0
 49 51  1  0  0  0  0
 50 49  2  0  0  0  0
 52 53  2  0  0  0  0
M  END
>  <MODEL>
7

>  <REMARK>
 VINA RESULT:      -5.9      2.796      8.184
  Name = 
  23 active torsions:
  status: ('A' for Active; 'I' for Inactive)
    1  A    between atoms: C_2  and  C_28
    2  A    between atoms: C_4  and  C_37
    3  A    between atoms: C_4  and  C_42
    4  A    between atoms: C_7  and  C_21
    5  A    between atoms: C_9  and  C_10
    6  A    between atoms: C_9  and  C_31
    7  A    between atoms: C_9  and  C_52
    8  A    between atoms: C_13  and  C_19
    9  A    between atoms: C_13  and  C_37
   10  A    between atoms: C_14  and  C_33
   11  A    between atoms: C_15  and  C_46
   12  A    between atoms: C_17  and  N_23
   13  A    between atoms: O_18  and  C_26
   14  A    between atoms: O_18  and  C_31
   15  A    between atoms: C_19  and  C_48
   16  A    between atoms: N_23  and  C_30
   17  A    between atoms: C_25  and  C_26
   18  A    between atoms: C_27  and  C_38
   19  A    between atoms: C_30  and  O_47
   20  A    between atoms: C_33  and  C_37
   21  A    between atoms: C_34  and  C_35
   22  A    between atoms: C_38  and  C_42
   23  A    between atoms: O_47  and  C_52
                            x       y       z     vdW  Elec       q    Type
                         _______ _______ _______ _____ _____    ______ ____

>  <TORSDO>
F 23

$$$$
=
 OpenBabel11062414043D

 53 57  0  0  1  0  0  0  0  0999 V2000
  191.2920  177.0610  141.1430 C   0  0  1  0  0  3  0  0  0  0  0  0
  190.5470  178.2000  140.8390 O   0  0  0  0  0  1  0  0  0  0  0  0
  192.4350  176.9480  140.1900 C   0  0  0  0  0  3  0  0  0  0  0  0
  192.3810  176.2550  139.0500 C   0  0  0  0  0  0  0  0  0  0  0  0
  191.2360  175.5510  138.6580 O   0  0  0  0  0  0  0  0  0  0  0  0
  189.1250  176.4430  138.4980 O   0  0  0  0  0  1  0  0  0  0  0  0
  190.2710  176.1070  137.7730 C   0  0  2  0  0  3  0  0  0  0  0  0
  189.9420  175.1120  136.6610 C   0  0  1  0  0  3  0  0  0  0  0  0
  190.7310  173.8110  136.8580 C   0  0  2  0  0  3  0  0  0  0  0  0
  191.7450  173.5230  135.7980 C   0  0  2  0  0  3  0  0  0  0  0  0
  191.7910  174.5060  134.8040 O   0  0  0  0  0  1  0  0  0  0  0  0
  190.4730  172.9220  135.7960 O   0  0  0  0  0  0  0  0  0  0  0  0
  188.4460  174.8200  136.7010 C   0  0  0  0  0  2  0  0  0  0  0  0
  187.8060  175.3620  135.5840 O   0  0  0  0  0  0  0  0  0  0  0  0
  187.0810  176.4470  136.0840 C   0  0  0  0  0  2  0  0  0  0  0  0
  187.7350  177.7530  135.6670 C   0  0  0  0  0  2  0  0  0  0  0  0
  187.1130  178.9150  136.4160 C   0  0  0  0  0  1  0  0  0  0  0  0
  193.5140  176.2910  138.1810 N   0  0  0  0  0  2  0  0  0  0  0  0
  194.9010  175.4710  136.3630 C   0  0  0  0  0  2  0  0  0  0  0  0
  195.5550  173.4520  135.2920 O   0  0  0  0  0  1  0  0  0  0  0  0
  194.0380  175.0930  137.5440 C   0  0  1  0  0  3  0  0  0  0  0  0
  195.9530  174.3780  136.2560 C   0  0  2  0  0  0  0  0  0  0  0  0
  194.9590  174.3540  138.4890 C   0  0  0  0  0  2  0  0  0  0  0  0
  196.0110  173.6960  137.6150 C   0  0  0  0  0  2  0  0  0  0  0  0
  198.1990  174.1980  135.1280 O   0  0  0  0  0  0  0  0  0  0  0  0
  197.3010  174.9350  135.8960 C   0  0  0  0  0  0  0  0  0  0  0  0
  197.6280  176.0890  136.2850 O   0  0  0  0  0  1  0  0  0  0  0  0
  191.7980  177.1540  142.5730 C   0  0  0  0  0  2  0  0  0  0  0  0
  190.7830  177.8890  143.4340 C   0  0  2  0  0  3  0  0  0  0  0  0
  191.2300  179.1820  143.7310 O   0  0  0  0  0  1  0  0  0  0  0  0
  190.4600  177.0960  144.7070 C   0  0  1  0  0  3  0  0  0  0  0  0
  191.6830  176.7480  145.5550 C   0  0  0  0  0  2  0  0  0  0  0  0
  192.3850  175.6800  147.6700 C   0  0  0  0  0  1  0  0  0  0  0  0
  191.2800  176.4570  146.9870 C   0  0  0  0  0  2  0  0  0  0  0  0
  189.3850  177.7970  145.5360 C   0  0  0  0  0  2  0  0  0  0  0  0
  187.9740  177.3560  145.1640 C   0  0  0  0  0  2  0  0  0  0  0  0
  185.9060  178.6730  145.5560 C   0  0  1  0  0  0  0  0  0  0  0  0
  186.5530  178.3660  143.2990 C   0  0  1  0  0  3  0  0  0  0  0  0
  185.6950  179.8650  146.2520 O   0  0  0  0  0  1  0  0  0  0  0  0
  184.7660  178.3210  144.6170 C   0  0  1  0  0  0  0  0  0  0  0  0
  185.2830  177.7830  143.4260 O   0  0  0  0  0  0  0  0  0  0  0  0
  187.1420  178.5490  144.6970 C   0  0  2  0  0  3  0  0  0  0  0  0
  184.9900  177.4870  145.8670 C   0  0  0  0  0  2  0  0  0  0  0  0
  183.4820  179.8610  143.1080 C   0  0  0  0  0  2  0  0  0  0  0  0
  183.5750  179.3000  144.5110 C   0  0  1  0  0  3  0  0  0  0  0  0
  181.6720  178.3930  143.3370 C   0  0  1  0  0  3  0  0  0  0  0  0
  182.5320  179.0500  142.3570 N   0  0  0  0  0  2  0  0  0  0  0  0
  182.2290  178.6420  144.7260 C   0  0  0  0  0  2  0  0  0  0  0  0
  180.2750  178.9090  143.2320 C   0  0  0  0  0  0  0  0  0  0  0  0
  179.3030  178.1100  143.1500 O   0  0  0  0  0  0  0  0  0  0  0  0
  180.0390  180.3110  143.2210 N   0  0  0  0  0  1  0  0  0  0  0  0
  187.6050  178.0260  141.1520 N   0  0  0  0  0  2  0  0  0  0  0  0
  187.4080  177.5920  142.3410 C   0  0  0  0  0  3  0  0  0  0  0  0
  1  2  1  6  0  0  0
  1 28  1  0  0  0  0
  3  1  1  0  0  0  0
  4  3  2  0  0  0  0
  5  4  1  0  0  0  0
  7  6  1  1  0  0  0
  7  5  1  0  0  0  0
  8 13  1  1  0  0  0
  8  7  1  0  0  0  0
  9  8  1  6  0  0  0
 10 11  1  6  0  0  0
 10  9  1  0  0  0  0
 12 10  1  0  0  0  0
 12  9  1  0  0  0  0
 14 15  1  0  0  0  0
 14 13  1  0  0  0  0
 16 15  1  0  0  0  0
 16 17  1  0  0  0  0
 18  4  1  0  0  0  0
 19 21  1  0  0  0  0
 21 18  1  1  0  0  0
 21 23  1  0  0  0  0
 22 20  1  6  0  0  0
 22 19  1  0  0  0  0
 22 24  1  0  0  0  0
 24 23  1  0  0  0  0
 25 26  2  0  0  0  0
 26 22  1  0  0  0  0
 26 27  1  0  0  0  0
 28 29  1  0  0  0  0
 29 30  1  1  0  0  0
 29 31  1  0  0  0  0
 31 35  1  1  0  0  0
 31 32  1  0  0  0  0
 32 34  1  0  0  0  0
 34 33  1  0  0  0  0
 36 35  1  0  0  0  0
 37 43  1  0  0  0  0
 37 39  1  1  0  0  0
 38 53  1  6  0  0  0
 38 41  1  0  0  0  0
 38 42  1  0  0  0  0
 40 37  1  0  0  0  0
 40 43  1  1  0  0  0
 41 40  1  0  0  0  0
 42 36  1  1  0  0  0
 42 37  1  0  0  0  0
 45 44  1  6  0  0  0
 45 40  1  0  0  0  0
 45 48  1  0  0  0  0
 46 49  1  1  0  0  0
 46 48  1  0  0  0  0
 47 44  1  0  0  0  0
 47 46  1  0  0  0  0
 50 49  2  0  0  0  0
 51 49  1  0  0  0  0
 52 53  2  0  0  0  0
M  END
>  <MODEL>
8

>  <REMARK>
 VINA RESULT:      -5.8      2.666      7.164
  Name = 
  23 active torsions:
  status: ('A' for Active; 'I' for Inactive)
    1  A    between atoms: C_2  and  C_28
    2  A    between atoms: C_4  and  C_37
    3  A    between atoms: C_4  and  C_42
    4  A    between atoms: C_7  and  C_21
    5  A    between atoms: C_9  and  C_10
    6  A    between atoms: C_9  and  C_31
    7  A    between atoms: C_9  and  C_52
    8  A    between atoms: C_13  and  C_19
    9  A    between atoms: C_13  and  C_37
   10  A    between atoms: C_14  and  C_33
   11  A    between atoms: C_15  and  C_46
   12  A    between atoms: C_17  and  N_23
   13  A    between atoms: O_18  and  C_26
   14  A    between atoms: O_18  and  C_31
   15  A    between atoms: C_19  and  C_48
   16  A    between atoms: N_23  and  C_30
   17  A    between atoms: C_25  and  C_26
   18  A    between atoms: C_27  and  C_38
   19  A    between atoms: C_30  and  O_47
   20  A    between atoms: C_33  and  C_37
   21  A    between atoms: C_34  and  C_35
   22  A    between atoms: C_38  and  C_42
   23  A    between atoms: O_47  and  C_52
                            x       y       z     vdW  Elec       q    Type
                         _______ _______ _______ _____ _____    ______ ____

>  <TORSDO>
F 23

$$$$
=
 OpenBabel11062414043D

 53 57  0  0  1  0  0  0  0  0999 V2000
  190.6360  176.6960  141.5970 C   0  0  1  0  0  3  0  0  0  0  0  0
  189.4660  176.1310  142.1060 O   0  0  0  0  0  1  0  0  0  0  0  0
  190.3130  177.4820  140.3700 C   0  0  0  0  0  3  0  0  0  0  0  0
  190.6190  177.0820  139.1330 C   0  0  0  0  0  0  0  0  0  0  0  0
  191.2960  175.8820  138.8840 O   0  0  0  0  0  0  0  0  0  0  0  0
  193.2310  177.1110  138.7330 O   0  0  0  0  0  1  0  0  0  0  0  0
  192.6710  175.8500  138.5190 C   0  0  2  0  0  3  0  0  0  0  0  0
  192.8180  175.4280  137.0580 C   0  0  1  0  0  3  0  0  0  0  0  0
  193.8050  174.2580  136.9370 C   0  0  2  0  0  3  0  0  0  0  0  0
  195.1850  174.6420  136.5090 C   0  0  2  0  0  3  0  0  0  0  0  0
  195.3290  176.0170  136.2940 O   0  0  0  0  0  1  0  0  0  0  0  0
  194.2400  174.1280  135.6020 O   0  0  0  0  0  0  0  0  0  0  0  0
  191.4490  175.0030  136.5380 C   0  0  0  0  0  2  0  0  0  0  0  0
  191.2390  173.6390  136.7530 O   0  0  0  0  0  0  0  0  0  0  0  0
  189.8530  173.5110  136.8730 C   0  0  0  0  0  2  0  0  0  0  0  0
  189.2180  173.3590  135.5010 C   0  0  0  0  0  2  0  0  0  0  0  0
  188.4130  172.0770  135.4330 C   0  0  0  0  0  1  0  0  0  0  0  0
  190.1820  177.8820  138.0340 N   0  0  0  0  0  2  0  0  0  0  0  0
  187.9050  177.0360  138.0630 C   0  0  0  0  0  2  0  0  0  0  0  0
  186.1920  176.2670  136.6040 O   0  0  0  0  0  1  0  0  0  0  0  0
  189.0550  177.5000  137.1990 C   0  0  1  0  0  3  0  0  0  0  0  0
  186.6430  177.3930  137.2940 C   0  0  2  0  0  0  0  0  0  0  0  0
  188.5270  178.7000  136.4450 C   0  0  0  0  0  2  0  0  0  0  0  0
  187.0330  178.4720  136.2940 C   0  0  0  0  0  2  0  0  0  0  0  0
  185.8470  178.7760  139.2450 O   0  0  0  0  0  1  0  0  0  0  0  0
  185.5580  177.8970  138.2040 C   0  0  0  0  0  0  0  0  0  0  0  0
  184.3670  177.5280  138.0240 O   0  0  0  0  0  0  0  0  0  0  0  0
  191.2670  177.5900  142.6510 C   0  0  0  0  0  2  0  0  0  0  0  0
  191.6940  176.7550  143.8490 C   0  0  2  0  0  3  0  0  0  0  0  0
  191.7780  175.4020  143.5040 O   0  0  0  0  0  1  0  0  0  0  0  0
  190.7550  176.9780  145.0410 C   0  0  1  0  0  3  0  0  0  0  0  0
  191.4730  177.1500  146.3790 C   0  0  0  0  0  2  0  0  0  0  0  0
  192.7150  175.6150  147.8660 C   0  0  0  0  0  1  0  0  0  0  0  0
  191.3780  175.8840  147.2080 C   0  0  0  0  0  2  0  0  0  0  0  0
  189.7860  178.1290  144.7730 C   0  0  0  0  0  2  0  0  0  0  0  0
  188.8730  178.4170  145.9580 C   0  0  0  0  0  2  0  0  0  0  0  0
  186.9940  177.7090  144.4980 C   0  0  1  0  0  0  0  0  0  0  0  0
  186.4770  178.0870  146.7780 C   0  0  1  0  0  3  0  0  0  0  0  0
  186.8070  176.5520  143.7380 O   0  0  0  0  0  1  0  0  0  0  0  0
  185.7080  178.4820  144.7320 C   0  0  1  0  0  0  0  0  0  0  0  0
  185.6930  178.9890  146.0430 O   0  0  0  0  0  0  0  0  0  0  0  0
  187.5990  177.5770  145.8750 C   0  0  2  0  0  3  0  0  0  0  0  0
  186.7720  179.0610  143.8150 C   0  0  0  0  0  2  0  0  0  0  0  0
  183.2040  178.6500  144.7360 C   0  0  0  0  0  2  0  0  0  0  0  0
  184.3910  177.9040  144.1650 C   0  0  1  0  0  3  0  0  0  0  0  0
  183.3580  179.3000  142.4910 C   0  0  1  0  0  3  0  0  0  0  0  0
  182.8320  179.6980  143.7940 N   0  0  0  0  0  2  0  0  0  0  0  0
  184.2460  178.0820  142.6700 C   0  0  0  0  0  2  0  0  0  0  0  0
  182.2390  178.9980  141.5480 C   0  0  0  0  0  0  0  0  0  0  0  0
  181.1520  178.5260  141.9760 O   0  0  0  0  0  0  0  0  0  0  0  0
  182.4040  179.2420  140.1570 N   0  0  0  0  0  1  0  0  0  0  0  0
  187.6720  178.0310  148.8750 N   0  0  0  0  0  2  0  0  0  0  0  0
  186.9240  178.6940  148.0740 C   0  0  0  0  0  3  0  0  0  0  0  0
  1  2  1  1  0  0  0
  1 28  1  0  0  0  0
  3  1  1  0  0  0  0
  4  3  2  0  0  0  0
  5  4  1  0  0  0  0
  7  6  1  6  0  0  0
  7  5  1  0  0  0  0
  8 13  1  1  0  0  0
  8  7  1  0  0  0  0
  9  8  1  6  0  0  0
 10 11  1  6  0  0  0
 10  9  1  0  0  0  0
 12 10  1  0  0  0  0
 12  9  1  0  0  0  0
 13 14  1  0  0  0  0
 14 15  1  0  0  0  0
 16 15  1  0  0  0  0
 17 16  1  0  0  0  0
 18  4  1  0  0  0  0
 21 18  1  1  0  0  0
 21 19  1  0  0  0  0
 22 20  1  6  0  0  0
 22 19  1  0  0  0  0
 22 26  1  0  0  0  0
 23 21  1  0  0  0  0
 24 23  1  0  0  0  0
 24 22  1  0  0  0  0
 26 25  1  0  0  0  0
 27 26  2  0  0  0  0
 28 29  1  0  0  0  0
 29 30  1  6  0  0  0
 29 31  1  0  0  0  0
 31 35  1  6  0  0  0
 31 32  1  0  0  0  0
 32 34  1  0  0  0  0
 34 33  1  0  0  0  0
 35 36  1  0  0  0  0
 37 39  1  6  0  0  0
 37 40  1  0  0  0  0
 37 42  1  0  0  0  0
 38 53  1  1  0  0  0
 40 43  1  6  0  0  0
 40 41  1  0  0  0  0
 41 38  1  0  0  0  0
 42 36  1  6  0  0  0
 42 38  1  0  0  0  0
 43 37  1  0  0  0  0
 45 48  1  6  0  0  0
 45 40  1  0  0  0  0
 45 44  1  0  0  0  0
 46 49  1  6  0  0  0
 46 48  1  0  0  0  0
 46 47  1  0  0  0  0
 47 44  1  0  0  0  0
 49 50  2  0  0  0  0
 51 49  1  0  0  0  0
 53 52  2  0  0  0  0
M  END
>  <MODEL>
9

>  <REMARK>
 VINA RESULT:      -5.8      2.071      6.815
  Name = 
  23 active torsions:
  status: ('A' for Active; 'I' for Inactive)
    1  A    between atoms: C_2  and  C_28
    2  A    between atoms: C_4  and  C_37
    3  A    between atoms: C_4  and  C_42
    4  A    between atoms: C_7  and  C_21
    5  A    between atoms: C_9  and  C_10
    6  A    between atoms: C_9  and  C_31
    7  A    between atoms: C_9  and  C_52
    8  A    between atoms: C_13  and  C_19
    9  A    between atoms: C_13  and  C_37
   10  A    between atoms: C_14  and  C_33
   11  A    between atoms: C_15  and  C_46
   12  A    between atoms: C_17  and  N_23
   13  A    between atoms: O_18  and  C_26
   14  A    between atoms: O_18  and  C_31
   15  A    between atoms: C_19  and  C_48
   16  A    between atoms: N_23  and  C_30
   17  A    between atoms: C_25  and  C_26
   18  A    between atoms: C_27  and  C_38
   19  A    between atoms: C_30  and  O_47
   20  A    between atoms: C_33  and  C_37
   21  A    between atoms: C_34  and  C_35
   22  A    between atoms: C_38  and  C_42
   23  A    between atoms: O_47  and  C_52
                            x       y       z     vdW  Elec       q    Type
                         _______ _______ _______ _____ _____    ______ ____

>  <TORSDO>
F 23

$$$$
