=
 OpenBabel11062412073D

 48 53  0  0  1  0  0  0  0  0999 V2000
  190.8790  176.2900  143.7370 C   0  0  0  0  0  3  0  0  0  0  0  0
  190.8850  177.2990  144.6090 C   0  0  0  0  0  0  0  0  0  0  0  0
  191.5960  176.3630  142.5060 N   0  0  0  0  0  2  0  0  0  0  0  0
  190.9570  176.7760  141.2960 C   0  0  0  0  0  0  0  0  0  0  0  0
  189.7120  176.9620  141.2660 O   0  0  0  0  0  0  0  0  0  0  0  0
  192.8270  177.8700  140.2930 O   0  0  0  0  0  1  0  0  0  0  0  0
  191.7780  176.9780  140.0570 C   0  0  2  0  0  3  0  0  0  0  0  0
  190.9490  177.4190  138.8460 C   0  0  0  0  0  2  0  0  0  0  0  0
  186.7420  176.7650  136.9540 C   0  0  2  0  0  0  0  0  0  0  0  0
  189.0380  178.1270  136.5040 C   0  0  2  0  0  3  0  0  0  0  0  0
  185.3810  176.0920  136.7090 C   0  0  2  0  0  3  0  0  0  0  0  0
  188.9880  176.0880  137.9690 C   0  0  1  0  0  3  0  0  0  0  0  0
  185.4130  175.8340  135.2190 C   0  0  0  0  0  2  0  0  0  0  0  0
  186.8920  177.9120  137.9960 C   0  0  2  0  0  3  0  0  0  0  0  0
  186.9640  177.4560  135.6060 C   0  0  2  0  0  3  0  0  0  0  0  0
  190.5080  176.2620  137.9520 C   0  0  1  0  0  3  0  0  0  0  0  0
  185.8090  178.7980  137.9670 O   0  0  0  0  0  1  0  0  0  0  0  0
  184.3030  176.9280  137.0060 O   0  0  0  0  0  1  0  0  0  0  0  0
  186.3300  176.5790  134.5940 C   0  0  0  0  0  2  0  0  0  0  0  0
  189.7300  176.7620  136.7900 C   0  0  2  0  0  0  0  0  0  0  0  0
  187.7430  175.5870  137.2350 C   0  0  0  0  0  2  0  0  0  0  0  0
  188.1950  178.7240  137.6940 C   0  0  0  0  0  2  0  0  0  0  0  0
  188.2580  177.9690  135.3180 O   0  0  0  0  0  0  0  0  0  0  0  0
  190.0480  175.8890  135.5740 C   0  0  0  0  0  1  0  0  0  0  0  0
  191.6300  178.4460  144.3390 O   0  0  0  0  0  0  0  0  0  0  0  0
  191.0990  179.4710  143.6550 O   0  0  0  0  0  1  0  0  0  0  0  0
  190.0730  177.2070  145.8690 C   0  0  1  0  0  3  0  0  0  0  0  0
  190.9800  177.1160  147.1000 C   0  0  0  0  0  3  0  0  0  0  0  0
  190.3020  177.5080  148.2590 O   0  0  0  0  0  1  0  0  0  0  0  0
  191.4530  175.8110  147.2510 O   0  0  0  0  0  1  0  0  0  0  0  0
  189.1820  178.2840  145.9680 O   0  0  0  0  0  0  0  0  0  0  0  0
  184.5130  178.9260  143.9010 C   0  0  0  0  0  0  0  0  0  0  0  0
  187.6970  177.7030  144.1830 C   0  0  0  0  0  2  0  0  0  0  0  0
  186.2950  177.1740  143.8730 C   0  0  0  0  0  2  0  0  0  0  0  0
  187.9180  177.7520  145.6970 C   0  0  2  0  0  3  0  0  0  0  0  0
  184.7100  180.1580  144.0920 O   0  0  0  0  0  0  0  0  0  0  0  0
  186.8530  178.6270  146.3570 C   0  0  0  0  0  2  0  0  0  0  0  0
  185.3080  177.9630  144.6010 N   0  0  0  0  0  0  0  0  0  0  0  0
  185.4650  178.0800  146.0460 C   0  0  0  0  0  2  0  0  0  0  0  0
  183.6420  178.7930  141.5740 C   0  0  0  0  0  0  0  0  0  0  0  0
  182.1240  179.1290  143.4730 N   0  0  0  0  0  2  0  0  0  0  0  0
  184.8180  178.7110  141.1180 O   0  0  0  0  0  0  0  0  0  0  0  0
  182.5390  179.0580  140.6860 N   0  0  0  0  0  0  0  0  0  0  0  0
  183.3680  178.4980  143.0310 C   0  0  2  0  0  3  0  0  0  0  0  0
  181.2030  179.3250  141.2220 C   0  0  0  0  0  2  0  0  0  0  0  0
  181.0360  178.6930  142.6020 C   0  0  0  0  0  2  0  0  0  0  0  0
  181.4870  179.0070  138.4810 C   0  0  0  0  0  1  0  0  0  0  0  0
  182.7630  179.2840  139.2640 C   0  0  0  0  0  2  0  0  0  0  0  0
  1  2  2  0  0  0  0
  3  1  1  0  0  0  0
  4  3  1  0  0  0  0
  5  4  2  0  0  0  0
  7  6  1  1  0  0  0
  7  4  1  0  0  0  0
  8  7  1  0  0  0  0
  9 21  1  1  0  0  0
  9 14  1  0  0  0  0
 10 20  1  0  0  0  0
 10 22  1  1  0  0  0
 11  9  1  0  0  0  0
 11 18  1  6  0  0  0
 12 21  1  6  0  0  0
 13 11  1  0  0  0  0
 14 17  1  6  0  0  0
 15 19  1  6  0  0  0
 15  9  1  0  0  0  0
 16 12  1  0  0  0  0
 16  8  1  1  0  0  0
 19 13  1  0  0  0  0
 20 24  1  6  0  0  0
 20 16  1  0  0  0  0
 20 12  1  0  0  0  0
 22 14  1  0  0  0  0
 23 15  1  0  0  0  0
 23 10  1  0  0  0  0
 25  2  1  0  0  0  0
 26 25  1  0  0  0  0
 27  2  1  6  0  0  0
 27 31  1  0  0  0  0
 27 28  1  0  0  0  0
 28 30  1  0  0  0  0
 28 29  1  0  0  0  0
 32 36  2  0  0  0  0
 32 38  1  0  0  0  0
 33 35  1  0  0  0  0
 34 33  1  0  0  0  0
 34 38  1  0  0  0  0
 35 31  1  6  0  0  0
 35 37  1  0  0  0  0
 38 39  1  0  0  0  0
 39 37  1  0  0  0  0
 40 44  1  0  0  0  0
 42 40  2  0  0  0  0
 43 45  1  0  0  0  0
 43 40  1  0  0  0  0
 44 41  1  0  0  0  0
 44 32  1  1  0  0  0
 45 46  1  0  0  0  0
 46 41  1  0  0  0  0
 47 48  1  0  0  0  0
 48 43  1  0  0  0  0
M  END
>  <MODEL>
1

>  <REMARK>
 VINA RESULT:      -8.0      0.000      0.000
  Name = 
  11 active torsions:
  status: ('A' for Active; 'I' for Inactive)
    1  A    between atoms: C_4  and  C_8
    2  A    between atoms: C_4  and  O_27
    3  A    between atoms: C_4  and  C_33
    4  A    between atoms: C_6  and  C_32
    5  A    between atoms: C_7  and  N_19
    6  A    between atoms: O_11  and  C_33
    7  A    between atoms: C_21  and  O_27
    8  A    between atoms: C_22  and  C_37
    9  A    between atoms: C_23  and  N_25
   10  A    between atoms: C_37  and  C_46
   11  A    between atoms: C_40  and  C_46
                            x       y       z     vdW  Elec       q    Type
                         _______ _______ _______ _____ _____    ______ ____

>  <TORSDO>
F 11

$$$$
=
 OpenBabel11062412073D

 48 53  0  0  1  0  0  0  0  0999 V2000
  188.5230  176.1930  137.4870 C   0  0  0  0  0  3  0  0  0  0  0  0
  189.5260  177.0330  137.7450 C   0  0  0  0  0  0  0  0  0  0  0  0
  187.3470  176.6240  136.8040 N   0  0  0  0  0  2  0  0  0  0  0  0
  186.1620  175.8260  136.7870 C   0  0  0  0  0  0  0  0  0  0  0  0
  186.1720  174.6630  137.2690 O   0  0  0  0  0  0  0  0  0  0  0  0
  185.1500  176.8980  134.9080 O   0  0  0  0  0  1  0  0  0  0  0  0
  184.9060  176.3790  136.1820 C   0  0  2  0  0  3  0  0  0  0  0  0
  184.2120  177.4190  137.0690 C   0  0  0  0  0  2  0  0  0  0  0  0
  181.0950  178.3520  140.4040 C   0  0  2  0  0  0  0  0  0  0  0  0
  182.6860  179.6300  138.6250 C   0  0  2  0  0  3  0  0  0  0  0  0
  179.9580  178.0840  141.4050 C   0  0  2  0  0  3  0  0  0  0  0  0
  182.0100  177.2340  138.2950 C   0  0  1  0  0  3  0  0  0  0  0  0
  178.9310  179.1200  141.0090 C   0  0  0  0  0  2  0  0  0  0  0  0
  182.5870  178.2150  140.8310 C   0  0  2  0  0  3  0  0  0  0  0  0
  180.9130  179.8520  140.1640 C   0  0  2  0  0  3  0  0  0  0  0  0
  182.6900  177.4190  136.9380 C   0  0  1  0  0  3  0  0  0  0  0  0
  182.8180  178.7220  142.1140 O   0  0  0  0  0  1  0  0  0  0  0  0
  180.3410  178.3000  142.7300 O   0  0  0  0  0  1  0  0  0  0  0  0
  179.4580  180.1070  140.2790 C   0  0  0  0  0  2  0  0  0  0  0  0
  182.1050  178.6130  137.5990 C   0  0  2  0  0  0  0  0  0  0  0  0
  180.7630  177.4640  139.1500 C   0  0  0  0  0  2  0  0  0  0  0  0
  183.4910  179.0010  139.8250 C   0  0  0  0  0  2  0  0  0  0  0  0
  181.6040  180.4480  139.0730 O   0  0  0  0  0  0  0  0  0  0  0  0
  180.8890  179.0730  136.7930 C   0  0  0  0  0  1  0  0  0  0  0  0
  189.4510  178.3580  137.3170 O   0  0  0  0  0  0  0  0  0  0  0  0
  188.9630  179.3170  138.1170 O   0  0  0  0  0  1  0  0  0  0  0  0
  190.7240  176.5560  138.5160 C   0  0  1  0  0  3  0  0  0  0  0  0
  191.8980  176.2640  137.5760 C   0  0  0  0  0  3  0  0  0  0  0  0
  192.5270  175.0600  137.9120 O   0  0  0  0  0  1  0  0  0  0  0  0
  191.4510  176.2060  136.2550 O   0  0  0  0  0  1  0  0  0  0  0  0
  191.0800  177.4810  139.5070 O   0  0  0  0  0  0  0  0  0  0  0  0
  189.8240  177.7690  144.4890 C   0  0  0  0  0  0  0  0  0  0  0  0
  189.4320  177.0050  141.1760 C   0  0  0  0  0  2  0  0  0  0  0  0
  189.2160  176.3360  142.5350 C   0  0  0  0  0  2  0  0  0  0  0  0
  190.8820  176.8220  140.7230 C   0  0  2  0  0  3  0  0  0  0  0  0
  190.2230  178.9640  144.4150 O   0  0  0  0  0  0  0  0  0  0  0  0
  191.8370  177.3980  141.7680 C   0  0  0  0  0  2  0  0  0  0  0  0
  190.2100  176.8290  143.4820 N   0  0  0  0  0  0  0  0  0  0  0  0
  191.6140  176.7140  143.1110 C   0  0  0  0  0  2  0  0  0  0  0  0
  187.5770  177.6480  145.5530 C   0  0  0  0  0  0  0  0  0  0  0  0
  189.6020  177.9410  146.9080 N   0  0  0  0  0  2  0  0  0  0  0  0
  187.0220  177.5880  144.4190 O   0  0  0  0  0  0  0  0  0  0  0  0
  186.7900  177.9060  146.7300 N   0  0  0  0  0  0  0  0  0  0  0  0
  189.0490  177.3340  145.6980 C   0  0  2  0  0  3  0  0  0  0  0  0
  187.4390  178.1470  148.0190 C   0  0  0  0  0  2  0  0  0  0  0  0
  188.8210  177.4980  148.0600 C   0  0  0  0  0  2  0  0  0  0  0  0
  185.0870  179.3410  145.7210 C   0  0  0  0  0  1  0  0  0  0  0  0
  185.3560  178.1510  146.6320 C   0  0  0  0  0  2  0  0  0  0  0  0
  1  2  2  0  0  0  0
  2 27  1  0  0  0  0
  3  1  1  0  0  0  0
  4  3  1  0  0  0  0
  4  5  2  0  0  0  0
  7  6  1  6  0  0  0
  7  4  1  0  0  0  0
  7  8  1  0  0  0  0
  9 21  1  6  0  0  0
  9 14  1  0  0  0  0
  9 11  1  0  0  0  0
 10 23  1  0  0  0  0
 10 22  1  1  0  0  0
 11 18  1  1  0  0  0
 12 21  1  6  0  0  0
 13 11  1  0  0  0  0
 14 17  1  1  0  0  0
 15 19  1  6  0  0  0
 15  9  1  0  0  0  0
 16  8  1  1  0  0  0
 16 20  1  0  0  0  0
 16 12  1  0  0  0  0
 19 13  1  0  0  0  0
 20 24  1  6  0  0  0
 20 12  1  0  0  0  0
 20 10  1  0  0  0  0
 22 14  1  0  0  0  0
 23 15  1  0  0  0  0
 25  2  1  0  0  0  0
 25 26  1  0  0  0  0
 27 28  1  6  0  0  0
 27 31  1  0  0  0  0
 28 29  1  0  0  0  0
 30 28  1  0  0  0  0
 33 34  1  0  0  0  0
 34 38  1  0  0  0  0
 35 31  1  6  0  0  0
 35 33  1  0  0  0  0
 35 37  1  0  0  0  0
 36 32  2  0  0  0  0
 37 39  1  0  0  0  0
 38 32  1  0  0  0  0
 39 38  1  0  0  0  0
 40 44  1  0  0  0  0
 40 43  1  0  0  0  0
 41 46  1  0  0  0  0
 42 40  2  0  0  0  0
 43 45  1  0  0  0  0
 44 32  1  6  0  0  0
 44 41  1  0  0  0  0
 45 46  1  0  0  0  0
 47 48  1  0  0  0  0
 48 43  1  0  0  0  0
M  END
>  <MODEL>
2

>  <REMARK>
 VINA RESULT:      -7.7      2.337      7.387
  Name = 
  11 active torsions:
  status: ('A' for Active; 'I' for Inactive)
    1  A    between atoms: C_4  and  C_8
    2  A    between atoms: C_4  and  O_27
    3  A    between atoms: C_4  and  C_33
    4  A    between atoms: C_6  and  C_32
    5  A    between atoms: C_7  and  N_19
    6  A    between atoms: O_11  and  C_33
    7  A    between atoms: C_21  and  O_27
    8  A    between atoms: C_22  and  C_37
    9  A    between atoms: C_23  and  N_25
   10  A    between atoms: C_37  and  C_46
   11  A    between atoms: C_40  and  C_46
                            x       y       z     vdW  Elec       q    Type
                         _______ _______ _______ _____ _____    ______ ____

>  <TORSDO>
F 11

$$$$
=
 OpenBabel11062412073D

 48 53  0  0  1  0  0  0  0  0999 V2000
  189.6810  175.9110  136.7930 C   0  0  0  0  0  3  0  0  0  0  0  0
  190.1960  176.8790  137.5510 C   0  0  0  0  0  0  0  0  0  0  0  0
  188.6900  176.1860  135.8040 N   0  0  0  0  0  2  0  0  0  0  0  0
  187.3070  176.2940  136.1460 C   0  0  0  0  0  0  0  0  0  0  0  0
  186.9170  176.0230  137.3120 O   0  0  0  0  0  0  0  0  0  0  0  0
  186.2500  178.1190  135.0250 O   0  0  0  0  0  1  0  0  0  0  0  0
  186.3190  176.7260  135.1030 C   0  0  2  0  0  3  0  0  0  0  0  0
  184.9240  176.1220  135.3030 C   0  0  0  0  0  2  0  0  0  0  0  0
  180.9050  175.2020  137.4740 C   0  0  2  0  0  0  0  0  0  0  0  0
  183.5420  175.4960  138.0120 C   0  0  2  0  0  3  0  0  0  0  0  0
  179.3820  175.1200  137.6740 C   0  0  2  0  0  3  0  0  0  0  0  0
  182.5070  176.4820  135.9470 C   0  0  1  0  0  3  0  0  0  0  0  0
  179.1840  175.9040  138.9510 C   0  0  0  0  0  2  0  0  0  0  0  0
  181.7030  173.9960  136.8950 C   0  0  2  0  0  3  0  0  0  0  0  0
  181.3780  175.2980  138.9260 C   0  0  2  0  0  3  0  0  0  0  0  0
  183.8830  177.1290  135.7870 C   0  0  1  0  0  3  0  0  0  0  0  0
  181.2550  172.7730  137.4040 O   0  0  0  0  0  1  0  0  0  0  0  0
  178.9310  173.8120  137.8640 O   0  0  0  0  0  1  0  0  0  0  0  0
  180.3160  176.0370  139.6480 C   0  0  0  0  0  2  0  0  0  0  0  0
  183.4210  176.7910  137.1570 C   0  0  2  0  0  0  0  0  0  0  0  0
  181.1450  176.5130  136.6410 C   0  0  0  0  0  2  0  0  0  0  0  0
  183.2170  174.1510  137.2580 C   0  0  0  0  0  2  0  0  0  0  0  0
  182.7270  175.6730  139.1710 O   0  0  0  0  0  0  0  0  0  0  0  0
  183.1540  178.0910  137.9190 C   0  0  0  0  0  1  0  0  0  0  0  0
  189.7900  178.2000  137.3630 O   0  0  0  0  0  0  0  0  0  0  0  0
  188.8860  178.7680  138.1750 O   0  0  0  0  0  1  0  0  0  0  0  0
  191.1960  176.5430  138.6210 C   0  0  1  0  0  3  0  0  0  0  0  0
  192.5990  176.3830  138.0270 C   0  0  0  0  0  3  0  0  0  0  0  0
  193.5460  177.0980  138.7680 O   0  0  0  0  0  1  0  0  0  0  0  0
  192.9530  175.0340  137.9910 O   0  0  0  0  0  1  0  0  0  0  0  0
  191.1780  177.5050  139.6400 O   0  0  0  0  0  0  0  0  0  0  0  0
  189.7630  177.6840  144.5840 C   0  0  0  0  0  0  0  0  0  0  0  0
  189.4040  177.1950  141.2160 C   0  0  0  0  0  2  0  0  0  0  0  0
  189.0260  176.4870  142.5190 C   0  0  0  0  0  2  0  0  0  0  0  0
  190.8260  176.8130  140.8020 C   0  0  2  0  0  3  0  0  0  0  0  0
  190.3460  178.8030  144.6050 O   0  0  0  0  0  0  0  0  0  0  0  0
  191.8120  177.1660  141.9150 C   0  0  0  0  0  2  0  0  0  0  0  0
  190.0420  176.7580  143.5300 N   0  0  0  0  0  0  0  0  0  0  0  0
  191.4270  176.4450  143.2010 C   0  0  0  0  0  2  0  0  0  0  0  0
  187.5800  178.0820  145.7120 C   0  0  0  0  0  0  0  0  0  0  0  0
  189.5790  177.4850  147.0050 N   0  0  0  0  0  2  0  0  0  0  0  0
  187.0470  178.3990  144.6110 O   0  0  0  0  0  0  0  0  0  0  0  0
  186.9000  178.3590  146.9510 N   0  0  0  0  0  0  0  0  0  0  0  0
  188.8770  177.3050  145.7340 C   0  0  2  0  0  3  0  0  0  0  0  0
  187.5780  178.1530  148.2310 C   0  0  0  0  0  2  0  0  0  0  0  0
  188.6860  177.1100  148.0980 C   0  0  0  0  0  2  0  0  0  0  0  0
  184.5280  178.1460  146.4000 C   0  0  0  0  0  1  0  0  0  0  0  0
  185.6170  179.0500  146.9600 C   0  0  0  0  0  2  0  0  0  0  0  0
  1  2  2  0  0  0  0
  3  4  1  0  0  0  0
  3  1  1  0  0  0  0
  4  5  2  0  0  0  0
  7  6  1  1  0  0  0
  7  8  1  0  0  0  0
  7  4  1  0  0  0  0
  9 21  1  6  0  0  0
  9 11  1  0  0  0  0
  9 15  1  0  0  0  0
 10 22  1  6  0  0  0
 10 23  1  0  0  0  0
 11 18  1  1  0  0  0
 11 13  1  0  0  0  0
 12 21  1  1  0  0  0
 12 20  1  0  0  0  0
 13 19  1  0  0  0  0
 14 22  1  0  0  0  0
 14 17  1  1  0  0  0
 14  9  1  0  0  0  0
 15 23  1  0  0  0  0
 15 19  1  1  0  0  0
 16  8  1  6  0  0  0
 16 12  1  0  0  0  0
 16 20  1  0  0  0  0
 20 24  1  1  0  0  0
 20 10  1  0  0  0  0
 25  2  1  0  0  0  0
 25 26  1  0  0  0  0
 27  2  1  6  0  0  0
 27 31  1  0  0  0  0
 28 27  1  0  0  0  0
 28 29  1  0  0  0  0
 30 28  1  0  0  0  0
 32 36  2  0  0  0  0
 33 34  1  0  0  0  0
 34 38  1  0  0  0  0
 35 31  1  6  0  0  0
 35 33  1  0  0  0  0
 35 37  1  0  0  0  0
 37 39  1  0  0  0  0
 38 32  1  0  0  0  0
 39 38  1  0  0  0  0
 40 44  1  0  0  0  0
 40 43  1  0  0  0  0
 41 46  1  0  0  0  0
 42 40  2  0  0  0  0
 43 48  1  0  0  0  0
 43 45  1  0  0  0  0
 44 32  1  6  0  0  0
 44 41  1  0  0  0  0
 46 45  1  0  0  0  0
 47 48  1  0  0  0  0
M  END
>  <MODEL>
3

>  <REMARK>
 VINA RESULT:      -7.5      2.865      7.047
  Name = 
  11 active torsions:
  status: ('A' for Active; 'I' for Inactive)
    1  A    between atoms: C_4  and  C_8
    2  A    between atoms: C_4  and  O_27
    3  A    between atoms: C_4  and  C_33
    4  A    between atoms: C_6  and  C_32
    5  A    between atoms: C_7  and  N_19
    6  A    between atoms: O_11  and  C_33
    7  A    between atoms: C_21  and  O_27
    8  A    between atoms: C_22  and  C_37
    9  A    between atoms: C_23  and  N_25
   10  A    between atoms: C_37  and  C_46
   11  A    between atoms: C_40  and  C_46
                            x       y       z     vdW  Elec       q    Type
                         _______ _______ _______ _____ _____    ______ ____

>  <TORSDO>
F 11

$$$$
=
 OpenBabel11062412073D

 48 53  0  0  1  0  0  0  0  0999 V2000
  186.5710  176.6160  137.3050 C   0  0  0  0  0  3  0  0  0  0  0  0
  187.6920  175.8950  137.3380 C   0  0  0  0  0  0  0  0  0  0  0  0
  185.2910  176.0000  137.1760 N   0  0  0  0  0  2  0  0  0  0  0  0
  184.3810  176.3830  136.1440 C   0  0  0  0  0  0  0  0  0  0  0  0
  184.6400  177.3660  135.4010 O   0  0  0  0  0  0  0  0  0  0  0  0
  182.8600  175.3790  134.6010 O   0  0  0  0  0  1  0  0  0  0  0  0
  183.1080  175.6120  135.9560 C   0  0  2  0  0  3  0  0  0  0  0  0
  181.8960  176.2700  136.6260 C   0  0  0  0  0  2  0  0  0  0  0  0
  183.3990  178.2650  140.5580 C   0  0  2  0  0  0  0  0  0  0  0  0
  181.3900  178.4710  138.7560 C   0  0  2  0  0  3  0  0  0  0  0  0
  184.2020  178.4130  141.8630 C   0  0  2  0  0  3  0  0  0  0  0  0
  182.7030  176.3470  139.0190 C   0  0  1  0  0  3  0  0  0  0  0  0
  183.1120  178.6470  142.8850 C   0  0  0  0  0  2  0  0  0  0  0  0
  183.9480  178.8230  139.2120 C   0  0  2  0  0  3  0  0  0  0  0  0
  182.1920  179.1540  140.8660 C   0  0  2  0  0  3  0  0  0  0  0  0
  181.6530  175.7920  138.0560 C   0  0  1  0  0  3  0  0  0  0  0  0
  184.5650  180.0690  139.3700 O   0  0  0  0  0  1  0  0  0  0  0  0
  185.0600  179.5140  141.8470 O   0  0  0  0  0  1  0  0  0  0  0  0
  181.9630  179.0350  142.3250 C   0  0  0  0  0  2  0  0  0  0  0  0
  181.2720  176.9290  138.9330 C   0  0  2  0  0  0  0  0  0  0  0  0
  183.0510  176.7360  140.4570 C   0  0  0  0  0  2  0  0  0  0  0  0
  182.7700  178.9880  138.1970 C   0  0  0  0  0  2  0  0  0  0  0  0
  181.0600  179.0690  140.0100 O   0  0  0  0  0  0  0  0  0  0  0  0
  180.2540  176.4340  139.9630 C   0  0  0  0  0  1  0  0  0  0  0  0
  187.6250  174.5030  137.2780 O   0  0  0  0  0  0  0  0  0  0  0  0
  187.2460  173.8770  136.1540 O   0  0  0  0  0  1  0  0  0  0  0  0
  189.0250  176.5820  137.4180 C   0  0  1  0  0  3  0  0  0  0  0  0
  189.5330  176.9550  136.0220 C   0  0  0  0  0  3  0  0  0  0  0  0
  189.1210  176.0180  135.0670 O   0  0  0  0  0  1  0  0  0  0  0  0
  189.0680  178.2220  135.6650 O   0  0  0  0  0  1  0  0  0  0  0  0
  188.9570  177.7050  138.2540 O   0  0  0  0  0  0  0  0  0  0  0  0
  190.1050  178.3500  143.2290 C   0  0  0  0  0  0  0  0  0  0  0  0
  188.1160  178.1410  140.4520 C   0  0  0  0  0  2  0  0  0  0  0  0
  188.1200  177.6300  141.8940 C   0  0  0  0  0  2  0  0  0  0  0  0
  188.9260  177.2000  139.5570 C   0  0  2  0  0  3  0  0  0  0  0  0
  191.0200  179.1130  142.8130 O   0  0  0  0  0  0  0  0  0  0  0  0
  190.3550  177.0740  140.0820 C   0  0  0  0  0  2  0  0  0  0  0  0
  189.4960  177.4190  142.3300 N   0  0  0  0  0  0  0  0  0  0  0  0
  190.3400  176.5540  141.5140 C   0  0  0  0  0  2  0  0  0  0  0  0
  190.8590  177.7300  145.5180 C   0  0  0  0  0  0  0  0  0  0  0  0
  188.4800  177.6860  144.9170 N   0  0  0  0  0  2  0  0  0  0  0  0
  192.0680  177.8630  145.1780 O   0  0  0  0  0  0  0  0  0  0  0  0
  190.5250  177.0780  146.7580 N   0  0  0  0  0  0  0  0  0  0  0  0
  189.7600  178.3560  144.6890 C   0  0  2  0  0  3  0  0  0  0  0  0
  189.1310  176.7670  147.0810 C   0  0  0  0  0  2  0  0  0  0  0  0
  188.1810  177.7090  146.3460 C   0  0  0  0  0  2  0  0  0  0  0  0
  192.0840  175.2150  147.0240 C   0  0  0  0  0  1  0  0  0  0  0  0
  191.5650  176.5200  147.6130 C   0  0  0  0  0  2  0  0  0  0  0  0
  1  2  2  0  0  0  0
  2 27  1  0  0  0  0
  3  1  1  0  0  0  0
  4  3  1  0  0  0  0
  5  4  2  0  0  0  0
  7  6  1  6  0  0  0
  7  4  1  0  0  0  0
  7  8  1  0  0  0  0
  9 21  1  6  0  0  0
  9 15  1  0  0  0  0
  9 11  1  0  0  0  0
 10 22  1  1  0  0  0
 10 20  1  0  0  0  0
 10 23  1  0  0  0  0
 11 18  1  6  0  0  0
 11 13  1  0  0  0  0
 12 21  1  1  0  0  0
 14 17  1  1  0  0  0
 14  9  1  0  0  0  0
 15 19  1  1  0  0  0
 16  8  1  6  0  0  0
 16 20  1  0  0  0  0
 16 12  1  0  0  0  0
 19 13  1  0  0  0  0
 20 12  1  0  0  0  0
 20 24  1  1  0  0  0
 22 14  1  0  0  0  0
 23 15  1  0  0  0  0
 25  2  1  0  0  0  0
 26 25  1  0  0  0  0
 27 28  1  6  0  0  0
 27 31  1  0  0  0  0
 29 28  1  0  0  0  0
 30 28  1  0  0  0  0
 33 34  1  0  0  0  0
 34 38  1  0  0  0  0
 35 31  1  6  0  0  0
 35 37  1  0  0  0  0
 35 33  1  0  0  0  0
 36 32  2  0  0  0  0
 37 39  1  0  0  0  0
 38 32  1  0  0  0  0
 39 38  1  0  0  0  0
 40 43  1  0  0  0  0
 41 46  1  0  0  0  0
 42 40  2  0  0  0  0
 43 45  1  0  0  0  0
 43 48  1  0  0  0  0
 44 32  1  6  0  0  0
 44 41  1  0  0  0  0
 44 40  1  0  0  0  0
 46 45  1  0  0  0  0
 47 48  1  0  0  0  0
M  END
>  <MODEL>
4

>  <REMARK>
 VINA RESULT:      -7.1      2.298      8.358
  Name = 
  11 active torsions:
  status: ('A' for Active; 'I' for Inactive)
    1  A    between atoms: C_4  and  C_8
    2  A    between atoms: C_4  and  O_27
    3  A    between atoms: C_4  and  C_33
    4  A    between atoms: C_6  and  C_32
    5  A    between atoms: C_7  and  N_19
    6  A    between atoms: O_11  and  C_33
    7  A    between atoms: C_21  and  O_27
    8  A    between atoms: C_22  and  C_37
    9  A    between atoms: C_23  and  N_25
   10  A    between atoms: C_37  and  C_46
   11  A    between atoms: C_40  and  C_46
                            x       y       z     vdW  Elec       q    Type
                         _______ _______ _______ _____ _____    ______ ____

>  <TORSDO>
F 11

$$$$
=
 OpenBabel11062412073D

 48 53  0  0  1  0  0  0  0  0999 V2000
  186.3260  177.9300  144.8040 C   0  0  0  0  0  3  0  0  0  0  0  0
  186.8750  178.0280  146.0150 C   0  0  0  0  0  0  0  0  0  0  0  0
  184.9190  178.0680  144.6100 N   0  0  0  0  0  2  0  0  0  0  0  0
  184.3710  179.1830  143.9050 C   0  0  0  0  0  0  0  0  0  0  0  0
  185.1120  180.1360  143.5490 O   0  0  0  0  0  0  0  0  0  0  0  0
  182.1520  178.8140  144.7070 O   0  0  0  0  0  1  0  0  0  0  0  0
  182.9030  179.2150  143.5990 C   0  0  2  0  0  3  0  0  0  0  0  0
  182.5240  178.3980  142.3590 C   0  0  0  0  0  2  0  0  0  0  0  0
  182.1610  176.5840  138.0830 C   0  0  2  0  0  0  0  0  0  0  0  0
  181.3480  178.7390  139.5060 C   0  0  2  0  0  3  0  0  0  0  0  0
  182.5010  175.6760  136.8890 C   0  0  2  0  0  3  0  0  0  0  0  0
  183.3540  177.3940  140.1940 C   0  0  1  0  0  3  0  0  0  0  0  0
  182.7260  176.6770  135.7780 C   0  0  0  0  0  2  0  0  0  0  0  0
  181.1010  176.1540  139.1400 C   0  0  2  0  0  3  0  0  0  0  0  0
  181.5100  177.7670  137.3630 C   0  0  2  0  0  3  0  0  0  0  0  0
  183.5300  178.5180  141.2160 C   0  0  1  0  0  3  0  0  0  0  0  0
  179.9920  175.5340  138.5540 O   0  0  0  0  0  1  0  0  0  0  0  0
  181.4480  174.8290  136.5360 O   0  0  0  0  0  1  0  0  0  0  0  0
  182.1960  177.8720  136.0550 C   0  0  0  0  0  2  0  0  0  0  0  0
  182.8400  178.8310  139.9380 C   0  0  2  0  0  0  0  0  0  0  0  0
  183.5420  176.9290  138.7490 C   0  0  0  0  0  2  0  0  0  0  0  0
  180.6010  177.4140  139.9190 C   0  0  0  0  0  2  0  0  0  0  0  0
  181.2980  178.9670  138.0960 O   0  0  0  0  0  0  0  0  0  0  0  0
  183.7360  179.7560  139.1110 C   0  0  0  0  0  1  0  0  0  0  0  0
  186.0730  178.3030  147.1220 O   0  0  0  0  0  0  0  0  0  0  0  0
  185.6410  179.5480  147.3710 O   0  0  0  0  0  1  0  0  0  0  0  0
  188.3530  177.8200  146.1880 C   0  0  1  0  0  3  0  0  0  0  0  0
  188.6980  177.5330  147.6520 C   0  0  0  0  0  3  0  0  0  0  0  0
  189.7920  176.6660  147.7540 O   0  0  0  0  0  1  0  0  0  0  0  0
  188.9800  178.7250  148.3210 O   0  0  0  0  0  1  0  0  0  0  0  0
  188.8150  176.8020  145.3430 O   0  0  0  0  0  0  0  0  0  0  0  0
  190.7360  177.3090  140.5960 C   0  0  0  0  0  0  0  0  0  0  0  0
  188.6650  176.1290  143.0510 C   0  0  0  0  0  2  0  0  0  0  0  0
  188.5530  176.6570  141.6200 C   0  0  0  0  0  2  0  0  0  0  0  0
  188.6610  177.2930  144.0440 C   0  0  2  0  0  3  0  0  0  0  0  0
  191.8640  177.1810  141.1490 O   0  0  0  0  0  0  0  0  0  0  0  0
  189.8050  178.2560  143.7310 C   0  0  0  0  0  2  0  0  0  0  0  0
  189.5940  177.6510  141.3870 N   0  0  0  0  0  0  0  0  0  0  0  0
  189.6710  178.7790  142.3070 C   0  0  0  0  0  2  0  0  0  0  0  0
  189.4970  178.0430  138.5670 C   0  0  0  0  0  0  0  0  0  0  0  0
  190.5320  175.8200  138.6790 N   0  0  0  0  0  2  0  0  0  0  0  0
  189.1760  179.1270  139.1310 O   0  0  0  0  0  0  0  0  0  0  0  0
  188.8470  177.6430  137.3460 N   0  0  0  0  0  0  0  0  0  0  0  0
  190.6440  177.2160  139.1020 C   0  0  2  0  0  3  0  0  0  0  0  0
  189.0860  176.3150  136.7780 C   0  0  0  0  0  2  0  0  0  0  0  0
  190.4410  175.7710  137.2230 C   0  0  0  0  0  2  0  0  0  0  0  0
  186.5190  177.6120  136.5990 C   0  0  0  0  0  1  0  0  0  0  0  0
  187.7790  178.4500  136.7690 C   0  0  0  0  0  2  0  0  0  0  0  0
  1  2  2  0  0  0  0
  2 27  1  0  0  0  0
  2 25  1  0  0  0  0
  3  1  1  0  0  0  0
  4  3  1  0  0  0  0
  5  4  2  0  0  0  0
  7  4  1  0  0  0  0
  7  6  1  1  0  0  0
  8  7  1  0  0  0  0
  9 21  1  1  0  0  0
  9 14  1  0  0  0  0
 10 22  1  6  0  0  0
 10 20  1  0  0  0  0
 11 18  1  6  0  0  0
 11  9  1  0  0  0  0
 12 21  1  6  0  0  0
 12 16  1  0  0  0  0
 13 19  1  0  0  0  0
 13 11  1  0  0  0  0
 14 17  1  6  0  0  0
 14 22  1  0  0  0  0
 15 19  1  6  0  0  0
 15  9  1  0  0  0  0
 15 23  1  0  0  0  0
 16  8  1  1  0  0  0
 20 24  1  6  0  0  0
 20 12  1  0  0  0  0
 20 16  1  0  0  0  0
 23 10  1  0  0  0  0
 25 26  1  0  0  0  0
 27 31  1  6  0  0  0
 27 28  1  0  0  0  0
 28 29  1  0  0  0  0
 28 30  1  0  0  0  0
 32 36  2  0  0  0  0
 32 38  1  0  0  0  0
 33 35  1  0  0  0  0
 34 33  1  0  0  0  0
 35 31  1  1  0  0  0
 37 35  1  0  0  0  0
 38 34  1  0  0  0  0
 38 39  1  0  0  0  0
 39 37  1  0  0  0  0
 40 44  1  0  0  0  0
 40 42  2  0  0  0  0
 41 44  1  0  0  0  0
 43 40  1  0  0  0  0
 44 32  1  1  0  0  0
 45 46  1  0  0  0  0
 45 43  1  0  0  0  0
 46 41  1  0  0  0  0
 47 48  1  0  0  0  0
 48 43  1  0  0  0  0
M  END
>  <MODEL>
5

>  <REMARK>
 VINA RESULT:      -7.1      2.322      6.513
  Name = 
  11 active torsions:
  status: ('A' for Active; 'I' for Inactive)
    1  A    between atoms: C_4  and  C_8
    2  A    between atoms: C_4  and  O_27
    3  A    between atoms: C_4  and  C_33
    4  A    between atoms: C_6  and  C_32
    5  A    between atoms: C_7  and  N_19
    6  A    between atoms: O_11  and  C_33
    7  A    between atoms: C_21  and  O_27
    8  A    between atoms: C_22  and  C_37
    9  A    between atoms: C_23  and  N_25
   10  A    between atoms: C_37  and  C_46
   11  A    between atoms: C_40  and  C_46
                            x       y       z     vdW  Elec       q    Type
                         _______ _______ _______ _____ _____    ______ ____

>  <TORSDO>
F 11

$$$$
=
 OpenBabel11062412073D

 48 53  0  0  1  0  0  0  0  0999 V2000
  186.3150  178.2210  144.8440 C   0  0  0  0  0  3  0  0  0  0  0  0
  186.8270  178.1170  146.0700 C   0  0  0  0  0  0  0  0  0  0  0  0
  184.9210  178.4420  144.6330 N   0  0  0  0  0  2  0  0  0  0  0  0
  184.4270  178.9490  143.3930 C   0  0  0  0  0  0  0  0  0  0  0  0
  185.2270  179.3320  142.4980 O   0  0  0  0  0  0  0  0  0  0  0  0
  182.2410  178.6290  144.3000 O   0  0  0  0  0  1  0  0  0  0  0  0
  182.9470  179.0310  143.1630 C   0  0  2  0  0  3  0  0  0  0  0  0
  182.4800  178.2510  141.9290 C   0  0  0  0  0  2  0  0  0  0  0  0
  182.5600  177.1670  137.3990 C   0  0  2  0  0  0  0  0  0  0  0  0
  180.9890  176.8690  139.5830 C   0  0  2  0  0  3  0  0  0  0  0  0
  183.0060  177.2310  135.9270 C   0  0  2  0  0  3  0  0  0  0  0  0
  182.7210  178.6820  139.4510 C   0  0  1  0  0  3  0  0  0  0  0  0
  181.7040  177.5070  135.2090 C   0  0  0  0  0  2  0  0  0  0  0  0
  183.2150  176.1610  138.3910 C   0  0  2  0  0  3  0  0  0  0  0  0
  181.1280  176.6520  137.2390 C   0  0  2  0  0  3  0  0  0  0  0  0
  182.0750  179.1440  140.7580 C   0  0  1  0  0  3  0  0  0  0  0  0
  183.4430  174.9120  137.8040 O   0  0  0  0  0  1  0  0  0  0  0  0
  183.5340  176.0220  135.4690 O   0  0  0  0  0  1  0  0  0  0  0  0
  180.6370  177.2130  135.9580 C   0  0  0  0  0  2  0  0  0  0  0  0
  181.2390  178.3910  139.7880 C   0  0  2  0  0  0  0  0  0  0  0  0
  182.6480  178.6460  137.9230 C   0  0  0  0  0  2  0  0  0  0  0  0
  182.2740  175.9570  139.6240 C   0  0  0  0  0  2  0  0  0  0  0  0
  180.2610  176.7170  138.3640 O   0  0  0  0  0  0  0  0  0  0  0  0
  180.1910  179.3410  139.2040 C   0  0  0  0  0  1  0  0  0  0  0  0
  185.9990  178.2590  147.1830 O   0  0  0  0  0  0  0  0  0  0  0  0
  185.6820  179.4720  147.6610 O   0  0  0  0  0  1  0  0  0  0  0  0
  188.2900  177.8270  146.2510 C   0  0  1  0  0  3  0  0  0  0  0  0
  188.6040  177.4890  147.7110 C   0  0  0  0  0  3  0  0  0  0  0  0
  189.5680  176.4790  147.8010 O   0  0  0  0  0  1  0  0  0  0  0  0
  189.0550  178.6280  148.3800 O   0  0  0  0  0  1  0  0  0  0  0  0
  188.7050  176.8040  145.3880 O   0  0  0  0  0  0  0  0  0  0  0  0
  190.6900  177.3220  140.6680 C   0  0  0  0  0  0  0  0  0  0  0  0
  188.5440  176.1880  143.0810 C   0  0  0  0  0  2  0  0  0  0  0  0
  188.4690  176.7510  141.6600 C   0  0  0  0  0  2  0  0  0  0  0  0
  188.5850  177.3300  144.0980 C   0  0  2  0  0  3  0  0  0  0  0  0
  191.8050  177.1280  141.2270 O   0  0  0  0  0  0  0  0  0  0  0  0
  189.7760  178.2450  143.8160 C   0  0  0  0  0  2  0  0  0  0  0  0
  189.5580  177.7000  141.4570 N   0  0  0  0  0  0  0  0  0  0  0  0
  189.6800  178.8030  142.4020 C   0  0  0  0  0  2  0  0  0  0  0  0
  189.4280  178.0570  138.6530 C   0  0  0  0  0  0  0  0  0  0  0  0
  190.5540  175.8780  138.7110 N   0  0  0  0  0  2  0  0  0  0  0  0
  189.0600  179.1120  139.2450 O   0  0  0  0  0  0  0  0  0  0  0  0
  188.7990  177.6640  137.4190 N   0  0  0  0  0  0  0  0  0  0  0  0
  190.6070  177.2650  139.1710 C   0  0  2  0  0  3  0  0  0  0  0  0
  189.0950  176.3630  136.8170 C   0  0  0  0  0  2  0  0  0  0  0  0
  190.4710  175.8640  137.2540 C   0  0  0  0  0  2  0  0  0  0  0  0
  186.3650  177.8700  137.3170 C   0  0  0  0  0  1  0  0  0  0  0  0
  187.7000  178.4410  136.8590 C   0  0  0  0  0  2  0  0  0  0  0  0
  1  2  2  0  0  0  0
  2 27  1  0  0  0  0
  2 25  1  0  0  0  0
  3  1  1  0  0  0  0
  4  3  1  0  0  0  0
  5  4  2  0  0  0  0
  7  4  1  0  0  0  0
  7  6  1  1  0  0  0
  8  7  1  0  0  0  0
  9 21  1  1  0  0  0
  9 14  1  0  0  0  0
 10 22  1  6  0  0  0
 10 20  1  0  0  0  0
 11 18  1  6  0  0  0
 11  9  1  0  0  0  0
 12 21  1  6  0  0  0
 12 20  1  0  0  0  0
 12 16  1  0  0  0  0
 13 11  1  0  0  0  0
 13 19  1  0  0  0  0
 14 17  1  6  0  0  0
 14 22  1  0  0  0  0
 15 19  1  6  0  0  0
 15  9  1  0  0  0  0
 15 23  1  0  0  0  0
 16  8  1  1  0  0  0
 20 24  1  6  0  0  0
 20 16  1  0  0  0  0
 23 10  1  0  0  0  0
 25 26  1  0  0  0  0
 27 31  1  6  0  0  0
 27 28  1  0  0  0  0
 28 29  1  0  0  0  0
 28 30  1  0  0  0  0
 32 36  2  0  0  0  0
 32 38  1  0  0  0  0
 33 35  1  0  0  0  0
 34 33  1  0  0  0  0
 35 31  1  1  0  0  0
 37 35  1  0  0  0  0
 38 34  1  0  0  0  0
 38 39  1  0  0  0  0
 39 37  1  0  0  0  0
 40 44  1  0  0  0  0
 40 42  2  0  0  0  0
 41 44  1  0  0  0  0
 43 40  1  0  0  0  0
 44 32  1  1  0  0  0
 45 46  1  0  0  0  0
 45 43  1  0  0  0  0
 46 41  1  0  0  0  0
 48 47  1  0  0  0  0
 48 43  1  0  0  0  0
M  END
>  <MODEL>
6

>  <REMARK>
 VINA RESULT:      -7.0      2.308      6.610
  Name = 
  11 active torsions:
  status: ('A' for Active; 'I' for Inactive)
    1  A    between atoms: C_4  and  C_8
    2  A    between atoms: C_4  and  O_27
    3  A    between atoms: C_4  and  C_33
    4  A    between atoms: C_6  and  C_32
    5  A    between atoms: C_7  and  N_19
    6  A    between atoms: O_11  and  C_33
    7  A    between atoms: C_21  and  O_27
    8  A    between atoms: C_22  and  C_37
    9  A    between atoms: C_23  and  N_25
   10  A    between atoms: C_37  and  C_46
   11  A    between atoms: C_40  and  C_46
                            x       y       z     vdW  Elec       q    Type
                         _______ _______ _______ _____ _____    ______ ____

>  <TORSDO>
F 11

$$$$
=
 OpenBabel11062412073D

 48 53  0  0  1  0  0  0  0  0999 V2000
  188.8290  175.6210  137.7120 C   0  0  0  0  0  3  0  0  0  0  0  0
  189.8170  176.5070  137.5810 C   0  0  0  0  0  0  0  0  0  0  0  0
  187.6740  175.6620  136.8760 N   0  0  0  0  0  2  0  0  0  0  0  0
  186.6660  176.6590  137.0490 C   0  0  0  0  0  0  0  0  0  0  0  0
  186.7140  177.4490  138.0280 O   0  0  0  0  0  0  0  0  0  0  0  0
  185.6680  177.9000  135.2690 O   0  0  0  0  0  1  0  0  0  0  0  0
  185.5420  176.7550  136.0590 C   0  0  2  0  0  3  0  0  0  0  0  0
  184.1560  176.6910  136.7090 C   0  0  0  0  0  2  0  0  0  0  0  0
  181.2030  179.8940  138.3590 C   0  0  2  0  0  0  0  0  0  0  0  0
  181.3420  177.2290  137.9050 C   0  0  2  0  0  3  0  0  0  0  0  0
  180.7430  181.2500  138.9230 C   0  0  2  0  0  3  0  0  0  0  0  0
  183.4130  178.6270  138.1530 C   0  0  1  0  0  3  0  0  0  0  0  0
  180.0600  180.8470  140.2110 C   0  0  0  0  0  2  0  0  0  0  0  0
  181.1790  179.6140  136.8270 C   0  0  2  0  0  3  0  0  0  0  0  0
  180.1210  178.9710  138.9230 C   0  0  2  0  0  3  0  0  0  0  0  0
  184.1140  177.2680  138.1220 C   0  0  1  0  0  3  0  0  0  0  0  0
  180.0350  180.1350  136.2130 O   0  0  0  0  0  1  0  0  0  0  0  0
  179.8200  181.8940  138.0970 O   0  0  0  0  0  1  0  0  0  0  0  0
  179.7350  179.5510  140.2310 C   0  0  0  0  0  2  0  0  0  0  0  0
  182.7180  177.3280  138.6260 C   0  0  2  0  0  0  0  0  0  0  0  0
  182.6280  179.6510  138.9740 C   0  0  0  0  0  2  0  0  0  0  0  0
  181.2070  178.0700  136.5790 C   0  0  0  0  0  2  0  0  0  0  0  0
  180.3360  177.5670  138.8610 O   0  0  0  0  0  0  0  0  0  0  0  0
  182.7260  177.0390  140.1280 C   0  0  0  0  0  1  0  0  0  0  0  0
  189.7480  177.4830  136.5880 O   0  0  0  0  0  0  0  0  0  0  0  0
  189.4300  178.7520  136.8860 O   0  0  0  0  0  1  0  0  0  0  0  0
  190.9910  176.4660  138.5170 C   0  0  1  0  0  3  0  0  0  0  0  0
  192.3090  176.6010  137.7470 C   0  0  0  0  0  3  0  0  0  0  0  0
  193.3920  176.7520  138.6210 O   0  0  0  0  0  1  0  0  0  0  0  0
  192.5100  175.4790  136.9410 O   0  0  0  0  0  1  0  0  0  0  0  0
  190.8740  177.4500  139.5070 O   0  0  0  0  0  0  0  0  0  0  0  0
  189.6920  177.6470  144.5120 C   0  0  0  0  0  0  0  0  0  0  0  0
  189.1710  177.1620  141.1640 C   0  0  0  0  0  2  0  0  0  0  0  0
  188.8460  176.4590  142.4840 C   0  0  0  0  0  2  0  0  0  0  0  0
  190.5680  176.7620  140.6850 C   0  0  2  0  0  3  0  0  0  0  0  0
  190.2890  178.7580  144.5050 O   0  0  0  0  0  0  0  0  0  0  0  0
  191.6090  177.1030  141.7510 C   0  0  0  0  0  2  0  0  0  0  0  0
  189.9100  176.7170  143.4470 N   0  0  0  0  0  0  0  0  0  0  0  0
  191.2740  176.3870  143.0530 C   0  0  0  0  0  2  0  0  0  0  0  0
  187.5480  178.0370  145.7140 C   0  0  0  0  0  0  0  0  0  0  0  0
  189.6020  177.4930  146.9410 N   0  0  0  0  0  2  0  0  0  0  0  0
  186.9690  178.3250  144.6280 O   0  0  0  0  0  0  0  0  0  0  0  0
  186.9110  178.3290  146.9720 N   0  0  0  0  0  0  0  0  0  0  0  0
  188.8560  177.2780  145.7020 C   0  0  2  0  0  3  0  0  0  0  0  0
  187.6400  178.1580  148.2300 C   0  0  0  0  0  2  0  0  0  0  0  0
  188.7570  177.1280  148.0740 C   0  0  0  0  0  2  0  0  0  0  0  0
  184.5560  178.1450  146.3470 C   0  0  0  0  0  1  0  0  0  0  0  0
  185.6200  179.0030  147.0170 C   0  0  0  0  0  2  0  0  0  0  0  0
  2  1  2  0  0  0  0
  3  4  1  0  0  0  0
  3  1  1  0  0  0  0
  4  5  2  0  0  0  0
  7  6  1  1  0  0  0
  7  8  1  0  0  0  0
  7  4  1  0  0  0  0
  9 15  1  0  0  0  0
  9 11  1  0  0  0  0
  9 21  1  1  0  0  0
 10 22  1  6  0  0  0
 10 20  1  0  0  0  0
 10 23  1  0  0  0  0
 11 18  1  6  0  0  0
 11 13  1  0  0  0  0
 12 20  1  0  0  0  0
 12 21  1  1  0  0  0
 13 19  1  0  0  0  0
 14 17  1  1  0  0  0
 14  9  1  0  0  0  0
 15 19  1  1  0  0  0
 16  8  1  6  0  0  0
 16 12  1  0  0  0  0
 16 20  1  0  0  0  0
 20 24  1  1  0  0  0
 22 14  1  0  0  0  0
 23 15  1  0  0  0  0
 25 26  1  0  0  0  0
 25  2  1  0  0  0  0
 27  2  1  6  0  0  0
 27 31  1  0  0  0  0
 28 27  1  0  0  0  0
 28 29  1  0  0  0  0
 30 28  1  0  0  0  0
 33 34  1  0  0  0  0
 34 38  1  0  0  0  0
 35 31  1  6  0  0  0
 35 33  1  0  0  0  0
 35 37  1  0  0  0  0
 36 32  2  0  0  0  0
 37 39  1  0  0  0  0
 38 32  1  0  0  0  0
 39 38  1  0  0  0  0
 40 43  1  0  0  0  0
 41 46  1  0  0  0  0
 42 40  2  0  0  0  0
 43 48  1  0  0  0  0
 43 45  1  0  0  0  0
 44 32  1  6  0  0  0
 44 40  1  0  0  0  0
 44 41  1  0  0  0  0
 46 45  1  0  0  0  0
 47 48  1  0  0  0  0
M  END
>  <MODEL>
7

>  <REMARK>
 VINA RESULT:      -6.9      2.534      7.287
  Name = 
  11 active torsions:
  status: ('A' for Active; 'I' for Inactive)
    1  A    between atoms: C_4  and  C_8
    2  A    between atoms: C_4  and  O_27
    3  A    between atoms: C_4  and  C_33
    4  A    between atoms: C_6  and  C_32
    5  A    between atoms: C_7  and  N_19
    6  A    between atoms: O_11  and  C_33
    7  A    between atoms: C_21  and  O_27
    8  A    between atoms: C_22  and  C_37
    9  A    between atoms: C_23  and  N_25
   10  A    between atoms: C_37  and  C_46
   11  A    between atoms: C_40  and  C_46
                            x       y       z     vdW  Elec       q    Type
                         _______ _______ _______ _____ _____    ______ ____

>  <TORSDO>
F 11

$$$$
=
 OpenBabel11062412073D

 48 53  0  0  1  0  0  0  0  0999 V2000
  185.4170  175.4440  135.6040 C   0  0  0  0  0  3  0  0  0  0  0  0
  186.4020  174.9830  136.3740 C   0  0  0  0  0  0  0  0  0  0  0  0
  184.0540  175.1090  135.8570 N   0  0  0  0  0  2  0  0  0  0  0  0
  183.0210  176.0940  135.7940 C   0  0  0  0  0  0  0  0  0  0  0  0
  183.3100  177.3100  135.6380 O   0  0  0  0  0  0  0  0  0  0  0  0
  180.9470  175.6880  134.6820 O   0  0  0  0  0  1  0  0  0  0  0  0
  181.5870  175.6730  135.9240 C   0  0  2  0  0  3  0  0  0  0  0  0
  180.8030  176.4980  136.9510 C   0  0  0  0  0  2  0  0  0  0  0  0
  183.2920  178.2880  140.4590 C   0  0  2  0  0  0  0  0  0  0  0  0
  180.9050  178.6100  139.2230 C   0  0  2  0  0  3  0  0  0  0  0  0
  184.3960  178.3630  141.5270 C   0  0  2  0  0  3  0  0  0  0  0  0
  182.1810  176.4530  139.0680 C   0  0  1  0  0  3  0  0  0  0  0  0
  183.6020  178.5710  142.7970 C   0  0  0  0  0  2  0  0  0  0  0  0
  183.5050  178.8960  139.0410 C   0  0  2  0  0  3  0  0  0  0  0  0
  182.2240  179.1840  141.0910 C   0  0  2  0  0  3  0  0  0  0  0  0
  180.9090  175.9610  138.3770 C   0  0  1  0  0  3  0  0  0  0  0  0
  184.1770  180.1220  139.0880 O   0  0  0  0  0  1  0  0  0  0  0  0
  185.2550  179.4480  141.3410 O   0  0  0  0  0  1  0  0  0  0  0  0
  182.3610  179.0040  142.5560 C   0  0  0  0  0  2  0  0  0  0  0  0
  180.7900  177.0640  139.3640 C   0  0  2  0  0  0  0  0  0  0  0  0
  182.8860  176.7710  140.3880 C   0  0  0  0  0  2  0  0  0  0  0  0
  182.1160  179.1260  138.3580 C   0  0  0  0  0  2  0  0  0  0  0  0
  180.9130  179.1580  140.5430 O   0  0  0  0  0  0  0  0  0  0  0  0
  180.0460  176.5420  140.5950 C   0  0  0  0  0  1  0  0  0  0  0  0
  186.1060  174.1780  137.4740 O   0  0  0  0  0  0  0  0  0  0  0  0
  185.9960  172.8470  137.3480 O   0  0  0  0  0  1  0  0  0  0  0  0
  187.8300  175.3110  136.0430 C   0  0  1  0  0  3  0  0  0  0  0  0
  188.2840  174.5700  134.7820 C   0  0  0  0  0  3  0  0  0  0  0  0
  189.6690  174.3730  134.7810 O   0  0  0  0  0  1  0  0  0  0  0  0
  187.6350  173.3370  134.6910 O   0  0  0  0  0  1  0  0  0  0  0  0
  188.0060  176.6960  135.9150 O   0  0  0  0  0  0  0  0  0  0  0  0
  189.1040  177.3750  140.8960 C   0  0  0  0  0  0  0  0  0  0  0  0
  189.1770  175.8610  137.8280 C   0  0  0  0  0  2  0  0  0  0  0  0
  190.1620  176.2490  138.9330 C   0  0  0  0  0  2  0  0  0  0  0  0
  188.9460  177.0460  136.8890 C   0  0  2  0  0  3  0  0  0  0  0  0
  187.8660  177.5770  141.0360 O   0  0  0  0  0  0  0  0  0  0  0  0
  188.4290  178.2490  137.6750 C   0  0  0  0  0  2  0  0  0  0  0  0
  189.6940  177.4610  139.5960 N   0  0  0  0  0  0  0  0  0  0  0  0
  189.4260  178.6270  138.7640 C   0  0  0  0  0  2  0  0  0  0  0  0
  189.0980  176.9540  143.3490 C   0  0  0  0  0  0  0  0  0  0  0  0
  190.8740  178.2850  142.3010 N   0  0  0  0  0  2  0  0  0  0  0  0
  187.9930  176.3480  143.2620 O   0  0  0  0  0  0  0  0  0  0  0  0
  189.6070  177.3480  144.6370 N   0  0  0  0  0  0  0  0  0  0  0  0
  189.9500  177.1660  142.1180 C   0  0  2  0  0  3  0  0  0  0  0  0
  190.7960  178.1960  144.7380 C   0  0  0  0  0  2  0  0  0  0  0  0
  191.6750  178.0470  143.4980 C   0  0  0  0  0  2  0  0  0  0  0  0
  189.5160  177.7600  147.0450 C   0  0  0  0  0  1  0  0  0  0  0  0
  188.8390  177.1010  145.8510 C   0  0  0  0  0  2  0  0  0  0  0  0
  1  3  1  0  0  0  0
  1  2  2  0  0  0  0
  2 25  1  0  0  0  0
  4  3  1  0  0  0  0
  4  7  1  0  0  0  0
  5  4  2  0  0  0  0
  7  6  1  6  0  0  0
  7  8  1  0  0  0  0
  9 21  1  6  0  0  0
  9 15  1  0  0  0  0
  9 11  1  0  0  0  0
 10 22  1  1  0  0  0
 10 20  1  0  0  0  0
 10 23  1  0  0  0  0
 11 18  1  6  0  0  0
 11 13  1  0  0  0  0
 12 20  1  0  0  0  0
 12 21  1  1  0  0  0
 14 17  1  1  0  0  0
 14  9  1  0  0  0  0
 15 19  1  1  0  0  0
 16  8  1  6  0  0  0
 16 12  1  0  0  0  0
 16 20  1  0  0  0  0
 19 13  1  0  0  0  0
 20 24  1  1  0  0  0
 22 14  1  0  0  0  0
 23 15  1  0  0  0  0
 26 25  1  0  0  0  0
 27 28  1  6  0  0  0
 27  2  1  0  0  0  0
 29 28  1  0  0  0  0
 30 28  1  0  0  0  0
 31 27  1  0  0  0  0
 32 36  2  0  0  0  0
 33 34  1  0  0  0  0
 34 38  1  0  0  0  0
 35 31  1  6  0  0  0
 35 37  1  0  0  0  0
 35 33  1  0  0  0  0
 37 39  1  0  0  0  0
 38 32  1  0  0  0  0
 39 38  1  0  0  0  0
 40 43  1  0  0  0  0
 41 46  1  0  0  0  0
 42 40  2  0  0  0  0
 43 45  1  0  0  0  0
 43 48  1  0  0  0  0
 44 32  1  6  0  0  0
 44 41  1  0  0  0  0
 44 40  1  0  0  0  0
 46 45  1  0  0  0  0
 48 47  1  0  0  0  0
M  END
>  <MODEL>
8

>  <REMARK>
 VINA RESULT:      -6.7      2.762      8.919
  Name = 
  11 active torsions:
  status: ('A' for Active; 'I' for Inactive)
    1  A    between atoms: C_4  and  C_8
    2  A    between atoms: C_4  and  O_27
    3  A    between atoms: C_4  and  C_33
    4  A    between atoms: C_6  and  C_32
    5  A    between atoms: C_7  and  N_19
    6  A    between atoms: O_11  and  C_33
    7  A    between atoms: C_21  and  O_27
    8  A    between atoms: C_22  and  C_37
    9  A    between atoms: C_23  and  N_25
   10  A    between atoms: C_37  and  C_46
   11  A    between atoms: C_40  and  C_46
                            x       y       z     vdW  Elec       q    Type
                         _______ _______ _______ _____ _____    ______ ____

>  <TORSDO>
F 11

$$$$
=
 OpenBabel11062412073D

 48 53  0  0  1  0  0  0  0  0999 V2000
  181.3370  179.1430  139.1860 C   0  0  0  0  0  3  0  0  0  0  0  0
  181.0450  178.4710  140.3000 C   0  0  0  0  0  0  0  0  0  0  0  0
  181.2650  178.5260  137.9020 N   0  0  0  0  0  2  0  0  0  0  0  0
  181.0980  179.2980  136.7130 C   0  0  0  0  0  0  0  0  0  0  0  0
  180.8830  180.5370  136.7840 O   0  0  0  0  0  0  0  0  0  0  0  0
  180.1100  177.7290  135.2070 O   0  0  0  0  0  1  0  0  0  0  0  0
  181.1710  178.6240  135.3750 C   0  0  2  0  0  3  0  0  0  0  0  0
  182.5140  177.9310  135.1180 C   0  0  0  0  0  2  0  0  0  0  0  0
  185.5080  174.5480  136.2560 C   0  0  2  0  0  0  0  0  0  0  0  0
  183.4680  175.9690  137.3260 C   0  0  2  0  0  3  0  0  0  0  0  0
  186.5420  173.4300  136.0380 C   0  0  2  0  0  3  0  0  0  0  0  0
  183.7450  175.7420  134.8410 C   0  0  1  0  0  3  0  0  0  0  0  0
  185.9000  172.2560  136.7410 C   0  0  0  0  0  2  0  0  0  0  0  0
  185.9560  176.0180  136.5010 C   0  0  2  0  0  3  0  0  0  0  0  0
  184.9010  174.1160  137.5920 C   0  0  2  0  0  3  0  0  0  0  0  0
  182.3850  176.4410  134.8090 C   0  0  1  0  0  3  0  0  0  0  0  0
  187.0730  176.0970  137.3400 O   0  0  0  0  0  1  0  0  0  0  0  0
  187.7720  173.7070  136.6390 O   0  0  0  0  0  1  0  0  0  0  0  0
  184.9470  172.6350  137.5980 C   0  0  0  0  0  2  0  0  0  0  0  0
  182.7270  175.6250  136.0010 C   0  0  2  0  0  0  0  0  0  0  0  0
  184.5140  174.4350  135.0430 C   0  0  0  0  0  2  0  0  0  0  0  0
  184.7870  176.8160  137.1680 C   0  0  0  0  0  2  0  0  0  0  0  0
  183.6970  174.7400  138.0180 O   0  0  0  0  0  0  0  0  0  0  0  0
  181.8310  174.3850  136.0210 C   0  0  0  0  0  1  0  0  0  0  0  0
  180.6270  177.1440  140.2220 O   0  0  0  0  0  0  0  0  0  0  0  0
  179.4360  176.8230  139.6940 O   0  0  0  0  0  1  0  0  0  0  0  0
  181.1880  179.1390  141.6380 C   0  0  1  0  0  3  0  0  0  0  0  0
  179.8430  179.6900  142.1210 C   0  0  0  0  0  3  0  0  0  0  0  0
  179.1400  178.7330  142.8610 O   0  0  0  0  0  1  0  0  0  0  0  0
  180.0440  180.8300  142.9010 O   0  0  0  0  0  1  0  0  0  0  0  0
  181.7480  178.2610  142.5760 O   0  0  0  0  0  0  0  0  0  0  0  0
  186.3280  177.8010  144.8780 C   0  0  0  0  0  0  0  0  0  0  0  0
  184.1240  178.2150  142.2920 C   0  0  0  0  0  2  0  0  0  0  0  0
  185.4340  178.8340  142.7860 C   0  0  0  0  0  2  0  0  0  0  0  0
  182.9340  178.8700  142.9970 C   0  0  2  0  0  3  0  0  0  0  0  0
  185.8130  176.8180  145.4780 O   0  0  0  0  0  0  0  0  0  0  0  0
  183.0690  178.7150  144.5120 C   0  0  0  0  0  2  0  0  0  0  0  0
  185.4840  178.7650  144.2420 N   0  0  0  0  0  0  0  0  0  0  0  0
  184.3720  179.3440  144.9860 C   0  0  0  0  0  2  0  0  0  0  0  0
  188.5250  177.2080  143.8710 C   0  0  0  0  0  0  0  0  0  0  0  0
  188.3180  177.6520  146.2750 N   0  0  0  0  0  2  0  0  0  0  0  0
  187.9840  177.0400  142.7410 O   0  0  0  0  0  0  0  0  0  0  0  0
  189.8690  176.7470  144.1040 N   0  0  0  0  0  0  0  0  0  0  0  0
  187.8140  177.9980  144.9460 C   0  0  2  0  0  3  0  0  0  0  0  0
  190.4420  176.7810  145.4500 C   0  0  0  0  0  2  0  0  0  0  0  0
  189.7640  177.8520  146.3010 C   0  0  0  0  0  2  0  0  0  0  0  0
  191.5050  177.0040  142.3070 C   0  0  0  0  0  1  0  0  0  0  0  0
  190.6070  176.0380  143.0660 C   0  0  0  0  0  2  0  0  0  0  0  0
  1  2  2  0  0  0  0
  3  1  1  0  0  0  0
  4  5  2  0  0  0  0
  4  3  1  0  0  0  0
  7  6  1  1  0  0  0
  7  4  1  0  0  0  0
  8  7  1  0  0  0  0
  9 21  1  6  0  0  0
  9 14  1  0  0  0  0
  9 15  1  0  0  0  0
 10 22  1  6  0  0  0
 10 23  1  0  0  0  0
 11  9  1  0  0  0  0
 11 18  1  1  0  0  0
 11 13  1  0  0  0  0
 12 21  1  6  0  0  0
 12 20  1  0  0  0  0
 13 19  1  0  0  0  0
 14 22  1  0  0  0  0
 14 17  1  1  0  0  0
 15 19  1  6  0  0  0
 15 23  1  0  0  0  0
 16 12  1  0  0  0  0
 16  8  1  1  0  0  0
 16 20  1  0  0  0  0
 20 24  1  1  0  0  0
 20 10  1  0  0  0  0
 25  2  1  0  0  0  0
 26 25  1  0  0  0  0
 27  2  1  6  0  0  0
 27 28  1  0  0  0  0
 27 31  1  0  0  0  0
 28 29  1  0  0  0  0
 28 30  1  0  0  0  0
 32 36  2  0  0  0  0
 33 34  1  0  0  0  0
 33 35  1  0  0  0  0
 34 38  1  0  0  0  0
 35 31  1  6  0  0  0
 35 37  1  0  0  0  0
 37 39  1  0  0  0  0
 38 32  1  0  0  0  0
 38 39  1  0  0  0  0
 40 43  1  0  0  0  0
 40 44  1  0  0  0  0
 41 46  1  0  0  0  0
 42 40  2  0  0  0  0
 43 45  1  0  0  0  0
 44 32  1  1  0  0  0
 44 41  1  0  0  0  0
 45 46  1  0  0  0  0
 47 48  1  0  0  0  0
 48 43  1  0  0  0  0
M  END
>  <MODEL>
9

>  <REMARK>
 VINA RESULT:      -6.7      2.818      8.056
  Name = 
  11 active torsions:
  status: ('A' for Active; 'I' for Inactive)
    1  A    between atoms: C_4  and  C_8
    2  A    between atoms: C_4  and  O_27
    3  A    between atoms: C_4  and  C_33
    4  A    between atoms: C_6  and  C_32
    5  A    between atoms: C_7  and  N_19
    6  A    between atoms: O_11  and  C_33
    7  A    between atoms: C_21  and  O_27
    8  A    between atoms: C_22  and  C_37
    9  A    between atoms: C_23  and  N_25
   10  A    between atoms: C_37  and  C_46
   11  A    between atoms: C_40  and  C_46
                            x       y       z     vdW  Elec       q    Type
                         _______ _______ _______ _____ _____    ______ ____

>  <TORSDO>
F 11

$$$$
