=
 OpenBabel11062414503D

 33 36  0  0  1  0  0  0  0  0999 V2000
  191.3470  177.8120  139.6720 O   0  0  0  0  0  0  0  0  0  0  0  0
  189.3790  176.8460  138.6410 C   0  0  0  0  0  0  0  0  0  0  0  0
  192.0740  176.6370  139.3370 C   0  0  0  0  0  2  0  0  0  0  0  0
  188.0140  176.8460  138.2820 N   0  0  0  0  0  0  0  0  0  0  0  0
  191.5580  176.0260  138.0640 C   0  0  0  0  0  0  0  0  0  0  0  0
  187.8980  176.1290  137.2070 C   0  0  0  0  0  0  0  0  0  0  0  0
  192.3350  175.4280  137.2770 O   0  0  0  0  0  0  0  0  0  0  0  0
  189.9620  177.5220  139.8520 C   0  0  1  0  0  3  0  0  0  0  0  0
  189.2300  175.5700  136.7280 C   0  0  2  0  0  0  0  0  0  0  0  0
  190.1120  176.1290  137.8210 C   0  0  0  0  0  0  0  0  0  0  0  0
  185.4990  176.7730  137.2310 C   0  0  0  0  0  1  0  0  0  0  0  0
  186.5370  175.8660  136.5800 C   0  0  0  0  0  0  0  0  0  0  0  0
  186.5490  176.1920  135.0920 C   0  0  0  0  0  1  0  0  0  0  0  0
  186.1390  174.3810  136.7440 C   0  0  2  0  0  3  0  0  0  0  0  0
  186.1680  173.7080  135.5040 O   0  0  0  0  0  0  0  0  0  0  0  0
  184.5290  172.6920  137.6240 C   0  0  0  0  0  2  0  0  0  0  0  0
  186.4380  171.6150  134.6240 O   0  0  0  0  0  1  0  0  0  0  0  0
  186.1700  172.3300  135.7900 C   0  0  2  0  0  3  0  0  0  0  0  0
  184.7610  174.1830  137.4000 C   0  0  0  0  0  2  0  0  0  0  0  0
  184.8060  171.9130  136.3410 C   0  0  0  0  0  2  0  0  0  0  0  0
  189.6780  177.5640  135.3860 O   0  0  0  0  0  1  0  0  0  0  0  0
  189.5340  176.1760  135.3410 C   0  0  0  0  0  2  0  0  0  0  0  0
  189.1330  174.1550  136.7480 O   0  0  0  0  0  0  0  0  0  0  0  0
  189.7350  173.5960  135.6120 C   0  0  0  0  0  1  0  0  0  0  0  0
  189.7020  176.7070  141.1150 C   0  0  0  0  0  2  0  0  0  0  0  0
  189.7740  178.5810  143.1050 O   0  0  0  0  0  0  0  0  0  0  0  0
  186.7930  177.4190  144.1150 C   0  0  0  0  0  2  0  0  0  0  0  0
  186.3140  178.7600  142.0400 C   0  0  0  0  0  0  0  0  0  0  0  0
  185.5380  179.6170  141.5440 O   0  0  0  0  0  0  0  0  0  0  0  0
  188.8090  177.7030  142.3420 P   0  0  1  0  0  0  0  0  0  0  0  0
  185.7670  177.7900  143.0500 C   0  0  0  0  0  2  0  0  0  0  0  0
  187.6300  178.6860  141.5720 O   0  0  0  0  0  0  0  0  0  0  0  0
  187.9330  176.6250  143.5020 C   0  0  0  0  0  2  0  0  0  0  0  0
  1  8  1  0  0  0  0
  2  8  1  0  0  0  0
  3  1  1  0  0  0  0
  4  2  1  0  0  0  0
  5  3  1  0  0  0  0
  6  4  2  0  0  0  0
  7  5  2  0  0  0  0
  8 25  1  1  0  0  0
  9 22  1  6  0  0  0
  9 23  1  0  0  0  0
  9  6  1  0  0  0  0
  9 10  1  0  0  0  0
 10  5  1  0  0  0  0
 10  2  2  0  0  0  0
 12  6  1  0  0  0  0
 12 11  1  0  0  0  0
 13 12  1  0  0  0  0
 14 12  1  6  0  0  0
 14 19  1  0  0  0  0
 15 18  1  0  0  0  0
 15 14  1  0  0  0  0
 18 17  1  6  0  0  0
 18 20  1  0  0  0  0
 19 16  1  0  0  0  0
 20 16  1  0  0  0  0
 22 21  1  0  0  0  0
 24 23  1  0  0  0  0
 25 30  1  0  0  0  0
 28 31  1  0  0  0  0
 29 28  2  0  0  0  0
 30 26  2  1  0  0  0
 30 33  1  0  0  0  0
 31 27  1  0  0  0  0
 32 28  1  0  0  0  0
 32 30  1  0  0  0  0
 33 27  1  0  0  0  0
M  END
>  <MODEL>
1

>  <REMARK>
 VINA RESULT:      -6.5      0.000      0.000
  Name = 
  6 active torsions:
  status: ('A' for Active; 'I' for Inactive)
    1  A    between atoms: C_7  and  C_13
    2  A    between atoms: O_10  and  C_32
    3  A    between atoms: P_12  and  C_21
    4  A    between atoms: C_13  and  C_26
    5  A    between atoms: C_21  and  C_31
    6  A    between atoms: C_30  and  C_32
                            x       y       z     vdW  Elec       q    Type
                         _______ _______ _______ _____ _____    ______ ____

>  <TORSDO>
F 6

$$$$
=
 OpenBabel11062414503D

 33 36  0  0  1  0  0  0  0  0999 V2000
  185.2950  179.5450  143.3890 O   0  0  0  0  0  0  0  0  0  0  0  0
  186.7680  178.5960  141.7170 C   0  0  0  0  0  0  0  0  0  0  0  0
  185.5370  178.4120  144.2130 C   0  0  0  0  0  2  0  0  0  0  0  0
  187.4050  178.5840  140.4560 N   0  0  0  0  0  0  0  0  0  0  0  0
  186.9220  177.8700  143.9970 C   0  0  0  0  0  0  0  0  0  0  0  0
  188.5190  177.9340  140.5940 C   0  0  0  0  0  0  0  0  0  0  0  0
  187.5620  177.3430  144.9430 O   0  0  0  0  0  0  0  0  0  0  0  0
  185.4260  179.2080  142.0090 C   0  0  1  0  0  3  0  0  0  0  0  0
  188.7400  177.4410  142.0170 C   0  0  2  0  0  0  0  0  0  0  0  0
  187.4560  177.9510  142.6300 C   0  0  0  0  0  0  0  0  0  0  0  0
  189.4160  178.8930  138.4850 C   0  0  0  0  0  1  0  0  0  0  0  0
  189.4320  177.6760  139.4030 C   0  0  0  0  0  0  0  0  0  0  0  0
  190.8730  177.4720  139.8540 C   0  0  0  0  0  1  0  0  0  0  0  0
  188.9830  176.4110  138.6370 C   0  0  2  0  0  3  0  0  0  0  0  0
  190.0710  175.8110  137.9690 O   0  0  0  0  0  0  0  0  0  0  0  0
  187.4040  175.3440  137.0280 C   0  0  0  0  0  2  0  0  0  0  0  0
  190.7720  173.7820  137.1810 O   0  0  0  0  0  1  0  0  0  0  0  0
  189.6680  174.5060  137.6280 C   0  0  2  0  0  3  0  0  0  0  0  0
  187.8480  176.6730  137.6310 C   0  0  0  0  0  2  0  0  0  0  0  0
  188.6130  174.5610  136.5230 C   0  0  0  0  0  2  0  0  0  0  0  0
  189.7040  178.9650  143.6670 O   0  0  0  0  0  1  0  0  0  0  0  0
  189.9960  178.1410  142.5780 C   0  0  0  0  0  2  0  0  0  0  0  0
  188.8210  176.0250  141.9710 O   0  0  0  0  0  0  0  0  0  0  0  0
  189.7940  175.5510  142.8620 C   0  0  0  0  0  1  0  0  0  0  0  0
  184.2940  178.3080  141.5240 C   0  0  0  0  0  2  0  0  0  0  0  0
  184.4130  180.0840  139.4470 O   0  0  0  0  0  0  0  0  0  0  0  0
  181.6290  178.6480  138.2440 C   0  0  0  0  0  2  0  0  0  0  0  0
  183.4820  177.0180  137.7520 C   0  0  0  0  0  0  0  0  0  0  0  0
  183.9610  176.2660  136.8640 O   0  0  0  0  0  0  0  0  0  0  0  0
  183.8110  178.7510  139.8300 P   0  0  1  0  0  0  0  0  0  0  0  0
  181.9960  177.2410  137.7840 C   0  0  0  0  0  2  0  0  0  0  0  0
  184.3370  177.5480  138.7240 O   0  0  0  0  0  0  0  0  0  0  0  0
  182.0090  178.8470  139.7010 C   0  0  0  0  0  2  0  0  0  0  0  0
  1  3  1  0  0  0  0
  2  8  1  0  0  0  0
  2 10  2  0  0  0  0
  4  6  2  0  0  0  0
  4  2  1  0  0  0  0
  5  3  1  0  0  0  0
  5  7  2  0  0  0  0
  6  9  1  0  0  0  0
  8 25  1  1  0  0  0
  8  1  1  0  0  0  0
  9 22  1  1  0  0  0
  9 10  1  0  0  0  0
 10  5  1  0  0  0  0
 11 12  1  0  0  0  0
 12 13  1  0  0  0  0
 12  6  1  0  0  0  0
 14 12  1  6  0  0  0
 15 14  1  0  0  0  0
 16 19  1  0  0  0  0
 18 17  1  6  0  0  0
 18 15  1  0  0  0  0
 19 14  1  0  0  0  0
 20 16  1  0  0  0  0
 20 18  1  0  0  0  0
 22 21  1  0  0  0  0
 23  9  1  0  0  0  0
 23 24  1  0  0  0  0
 27 33  1  0  0  0  0
 28 31  1  0  0  0  0
 28 32  1  0  0  0  0
 29 28  2  0  0  0  0
 30 26  2  6  0  0  0
 30 25  1  0  0  0  0
 31 27  1  0  0  0  0
 32 30  1  0  0  0  0
 33 30  1  0  0  0  0
M  END
>  <MODEL>
2

>  <REMARK>
 VINA RESULT:      -6.4      2.578      6.033
  Name = 
  6 active torsions:
  status: ('A' for Active; 'I' for Inactive)
    1  A    between atoms: C_7  and  C_13
    2  A    between atoms: O_10  and  C_32
    3  A    between atoms: P_12  and  C_21
    4  A    between atoms: C_13  and  C_26
    5  A    between atoms: C_21  and  C_31
    6  A    between atoms: C_30  and  C_32
                            x       y       z     vdW  Elec       q    Type
                         _______ _______ _______ _____ _____    ______ ____

>  <TORSDO>
F 6

$$$$
=
 OpenBabel11062414503D

 33 36  0  0  1  0  0  0  0  0999 V2000
  190.3520  176.6560  138.6020 O   0  0  0  0  0  0  0  0  0  0  0  0
  189.2400  177.2260  140.6770 C   0  0  0  0  0  0  0  0  0  0  0  0
  191.4620  177.4470  139.0040 C   0  0  0  0  0  2  0  0  0  0  0  0
  188.1470  177.2040  141.5710 N   0  0  0  0  0  0  0  0  0  0  0  0
  191.6220  177.4350  140.4990 C   0  0  0  0  0  0  0  0  0  0  0  0
  188.6260  177.3360  142.7690 C   0  0  0  0  0  0  0  0  0  0  0  0
  192.7630  177.5030  141.0240 O   0  0  0  0  0  0  0  0  0  0  0  0
  189.1420  177.1440  139.1780 C   0  0  1  0  0  3  0  0  0  0  0  0
  190.1440  177.4540  142.7840 C   0  0  2  0  0  0  0  0  0  0  0  0
  190.3870  177.3870  141.2940 C   0  0  0  0  0  0  0  0  0  0  0  0
  187.2800  176.0100  144.3820 C   0  0  0  0  0  1  0  0  0  0  0  0
  187.7070  177.4170  143.9800 C   0  0  0  0  0  0  0  0  0  0  0  0
  188.4310  178.0260  145.1740 C   0  0  0  0  0  1  0  0  0  0  0  0
  186.4710  178.2910  143.6680 C   0  0  2  0  0  3  0  0  0  0  0  0
  185.4850  178.1490  144.6660 O   0  0  0  0  0  0  0  0  0  0  0  0
  184.7220  179.0020  142.0380 C   0  0  0  0  0  2  0  0  0  0  0  0
  183.7350  179.2790  145.6090 O   0  0  0  0  0  1  0  0  0  0  0  0
  184.5930  179.2270  144.5120 C   0  0  2  0  0  3  0  0  0  0  0  0
  185.8480  178.0040  142.2900 C   0  0  0  0  0  2  0  0  0  0  0  0
  183.7740  179.0440  143.2340 C   0  0  0  0  0  2  0  0  0  0  0  0
  190.4590  175.0320  142.8840 O   0  0  0  0  0  1  0  0  0  0  0  0
  190.7120  176.2370  143.5430 C   0  0  0  0  0  2  0  0  0  0  0  0
  190.4690  178.7120  143.3540 O   0  0  0  0  0  0  0  0  0  0  0  0
  191.6770  178.6440  144.0610 C   0  0  0  0  0  1  0  0  0  0  0  0
  188.7160  178.4820  138.5810 C   0  0  0  0  0  2  0  0  0  0  0  0
  187.2540  179.4180  136.4680 O   0  0  0  0  0  0  0  0  0  0  0  0
  184.7770  177.3850  137.4610 C   0  0  0  0  0  2  0  0  0  0  0  0
  186.4860  175.8770  136.3930 C   0  0  0  0  0  0  0  0  0  0  0  0
  186.6300  174.9120  135.5990 O   0  0  0  0  0  0  0  0  0  0  0  0
  187.3330  178.2520  137.4270 P   0  0  1  0  0  0  0  0  0  0  0  0
  185.2330  175.9490  137.2200 C   0  0  0  0  0  2  0  0  0  0  0  0
  187.5300  176.7960  136.5400 O   0  0  0  0  0  0  0  0  0  0  0  0
  185.7760  178.1190  138.3390 C   0  0  0  0  0  2  0  0  0  0  0  0
  1  3  1  0  0  0  0
  1  8  1  0  0  0  0
  2 10  2  0  0  0  0
  2  4  1  0  0  0  0
  3  5  1  0  0  0  0
  4  6  2  0  0  0  0
  5  7  2  0  0  0  0
  5 10  1  0  0  0  0
  6  9  1  0  0  0  0
  6 12  1  0  0  0  0
  8 25  1  6  0  0  0
  8  2  1  0  0  0  0
  9 23  1  0  0  0  0
  9 22  1  1  0  0  0
 10  9  1  0  0  0  0
 12 11  1  0  0  0  0
 12 13  1  0  0  0  0
 14 12  1  1  0  0  0
 14 15  1  0  0  0  0
 16 19  1  0  0  0  0
 16 20  1  0  0  0  0
 18 15  1  0  0  0  0
 18 17  1  1  0  0  0
 19 14  1  0  0  0  0
 20 18  1  0  0  0  0
 21 22  1  0  0  0  0
 23 24  1  0  0  0  0
 27 33  1  0  0  0  0
 28 32  1  0  0  0  0
 28 31  1  0  0  0  0
 29 28  2  0  0  0  0
 30 26  2  6  0  0  0
 30 33  1  0  0  0  0
 30 25  1  0  0  0  0
 31 27  1  0  0  0  0
 32 30  1  0  0  0  0
M  END
>  <MODEL>
3

>  <REMARK>
 VINA RESULT:      -6.4      2.468      7.115
  Name = 
  6 active torsions:
  status: ('A' for Active; 'I' for Inactive)
    1  A    between atoms: C_7  and  C_13
    2  A    between atoms: O_10  and  C_32
    3  A    between atoms: P_12  and  C_21
    4  A    between atoms: C_13  and  C_26
    5  A    between atoms: C_21  and  C_31
    6  A    between atoms: C_30  and  C_32
                            x       y       z     vdW  Elec       q    Type
                         _______ _______ _______ _____ _____    ______ ____

>  <TORSDO>
F 6

$$$$
=
 OpenBabel11062414503D

 33 36  0  0  1  0  0  0  0  0999 V2000
  188.4290  177.3100  142.2060 O   0  0  0  0  0  0  0  0  0  0  0  0
  189.5240  176.7650  140.1150 C   0  0  0  0  0  0  0  0  0  0  0  0
  187.8220  178.4280  141.5710 C   0  0  0  0  0  2  0  0  0  0  0  0
  190.3990  176.0020  139.3100 N   0  0  0  0  0  0  0  0  0  0  0  0
  187.5690  178.1520  140.1150 C   0  0  0  0  0  0  0  0  0  0  0  0
  189.9600  176.0730  138.0910 C   0  0  0  0  0  0  0  0  0  0  0  0
  186.5720  178.6490  139.5300 O   0  0  0  0  0  0  0  0  0  0  0  0
  189.6780  176.9920  141.5940 C   0  0  1  0  0  3  0  0  0  0  0  0
  188.6980  176.9150  137.9690 C   0  0  2  0  0  0  0  0  0  0  0  0
  188.5610  177.3210  139.4190 C   0  0  0  0  0  0  0  0  0  0  0  0
  190.2170  173.9770  136.7830 C   0  0  0  0  0  1  0  0  0  0  0  0
  190.7100  175.4100  136.9450 C   0  0  0  0  0  0  0  0  0  0  0  0
  190.4430  176.1290  135.6290 C   0  0  0  0  0  1  0  0  0  0  0  0
  192.2340  175.4330  137.2060 C   0  0  2  0  0  3  0  0  0  0  0  0
  192.9220  176.0420  136.1350 O   0  0  0  0  0  0  0  0  0  0  0  0
  194.3060  174.1970  137.8360 C   0  0  0  0  0  2  0  0  0  0  0  0
  194.8570  177.1720  135.6800 O   0  0  0  0  0  1  0  0  0  0  0  0
  194.2100  176.3580  136.6080 C   0  0  2  0  0  3  0  0  0  0  0  0
  192.8330  174.0410  137.4720 C   0  0  0  0  0  2  0  0  0  0  0  0
  195.0170  175.0740  136.8090 C   0  0  0  0  0  2  0  0  0  0  0  0
  186.9220  176.4870  136.3450 O   0  0  0  0  0  1  0  0  0  0  0  0
  187.5530  175.9970  137.4910 C   0  0  0  0  0  2  0  0  0  0  0  0
  188.9890  178.0000  137.1030 O   0  0  0  0  0  0  0  0  0  0  0  0
  189.3560  179.1380  137.8340 C   0  0  0  0  0  1  0  0  0  0  0  0
  190.7450  178.0440  141.8800 C   0  0  0  0  0  2  0  0  0  0  0  0
  192.0480  179.2720  143.9480 O   0  0  0  0  0  0  0  0  0  0  0  0
  191.3980  176.5450  145.7920 C   0  0  0  0  0  2  0  0  0  0  0  0
  189.2100  177.7800  145.6380 C   0  0  0  0  0  0  0  0  0  0  0  0
  188.2170  178.1690  146.3060 O   0  0  0  0  0  0  0  0  0  0  0  0
  191.0500  178.1720  143.6660 P   0  0  1  0  0  0  0  0  0  0  0  0
  189.8930  176.5020  146.0390 C   0  0  0  0  0  2  0  0  0  0  0  0
  189.5870  178.5010  144.5000 O   0  0  0  0  0  0  0  0  0  0  0  0
  191.6900  176.6030  144.3030 C   0  0  0  0  0  2  0  0  0  0  0  0
  2  8  1  0  0  0  0
  3  1  1  0  0  0  0
  4  2  1  0  0  0  0
  5  3  1  0  0  0  0
  6  4  2  0  0  0  0
  7  5  2  0  0  0  0
  8 25  1  6  0  0  0
  8  1  1  0  0  0  0
  9 22  1  6  0  0  0
  9  6  1  0  0  0  0
  9 10  1  0  0  0  0
 10  2  2  0  0  0  0
 10  5  1  0  0  0  0
 11 12  1  0  0  0  0
 12  6  1  0  0  0  0
 13 12  1  0  0  0  0
 14 12  1  6  0  0  0
 14 19  1  0  0  0  0
 15 18  1  0  0  0  0
 15 14  1  0  0  0  0
 18 17  1  6  0  0  0
 18 20  1  0  0  0  0
 19 16  1  0  0  0  0
 20 16  1  0  0  0  0
 21 22  1  0  0  0  0
 23 24  1  0  0  0  0
 23  9  1  0  0  0  0
 25 30  1  0  0  0  0
 27 31  1  0  0  0  0
 28 31  1  0  0  0  0
 28 29  2  0  0  0  0
 30 26  2  1  0  0  0
 30 33  1  0  0  0  0
 30 32  1  0  0  0  0
 32 28  1  0  0  0  0
 33 27  1  0  0  0  0
M  END
>  <MODEL>
4

>  <REMARK>
 VINA RESULT:      -6.2      2.598      5.444
  Name = 
  6 active torsions:
  status: ('A' for Active; 'I' for Inactive)
    1  A    between atoms: C_7  and  C_13
    2  A    between atoms: O_10  and  C_32
    3  A    between atoms: P_12  and  C_21
    4  A    between atoms: C_13  and  C_26
    5  A    between atoms: C_21  and  C_31
    6  A    between atoms: C_30  and  C_32
                            x       y       z     vdW  Elec       q    Type
                         _______ _______ _______ _____ _____    ______ ____

>  <TORSDO>
F 6

$$$$
=
 OpenBabel11062414503D

 33 36  0  0  1  0  0  0  0  0999 V2000
  191.1130  177.6580  139.3160 O   0  0  0  0  0  0  0  0  0  0  0  0
  188.9200  176.9830  138.5380 C   0  0  0  0  0  0  0  0  0  0  0  0
  191.6350  176.4200  138.8510 C   0  0  0  0  0  2  0  0  0  0  0  0
  187.5300  177.1630  138.3700 N   0  0  0  0  0  0  0  0  0  0  0  0
  190.8820  175.9340  137.6430 C   0  0  0  0  0  0  0  0  0  0  0  0
  187.1830  176.5150  137.3010 C   0  0  0  0  0  0  0  0  0  0  0  0
  191.4670  175.2830  136.7400 O   0  0  0  0  0  0  0  0  0  0  0  0
  189.7390  177.5280  139.6760 C   0  0  1  0  0  3  0  0  0  0  0  0
  188.3600  175.8220  136.6280 C   0  0  2  0  0  0  0  0  0  0  0  0
  189.4410  176.2210  137.6050 C   0  0  0  0  0  0  0  0  0  0  0  0
  185.5560  177.2420  135.5710 C   0  0  0  0  0  1  0  0  0  0  0  0
  185.7280  176.4460  136.8590 C   0  0  0  0  0  0  0  0  0  0  0  0
  185.3170  175.0100  136.5590 C   0  0  0  0  0  1  0  0  0  0  0  0
  184.7970  176.9930  137.9650 C   0  0  2  0  0  3  0  0  0  0  0  0
  183.6250  176.2150  138.0710 O   0  0  0  0  0  0  0  0  0  0  0  0
  183.6010  178.9360  138.9740 C   0  0  0  0  0  2  0  0  0  0  0  0
  182.0080  175.6340  139.5810 O   0  0  0  0  0  1  0  0  0  0  0  0
  183.0350  176.5370  139.3090 C   0  0  2  0  0  3  0  0  0  0  0  0
  184.4140  178.4710  137.7690 C   0  0  0  0  0  2  0  0  0  0  0  0
  182.4670  177.9550  139.2590 C   0  0  0  0  0  2  0  0  0  0  0  0
  189.0460  177.7530  135.2940 O   0  0  0  0  0  1  0  0  0  0  0  0
  188.5500  176.4490  135.2300 C   0  0  0  0  0  2  0  0  0  0  0  0
  188.0890  174.4300  136.6210 O   0  0  0  0  0  0  0  0  0  0  0  0
  188.5890  173.8290  135.4560 C   0  0  0  0  0  1  0  0  0  0  0  0
  189.5480  176.6930  140.9390 C   0  0  0  0  0  2  0  0  0  0  0  0
  189.7990  178.5160  142.9630 O   0  0  0  0  0  0  0  0  0  0  0  0
  186.8540  177.4110  144.1330 C   0  0  0  0  0  2  0  0  0  0  0  0
  186.2850  178.8150  142.1230 C   0  0  0  0  0  0  0  0  0  0  0  0
  185.5050  179.7050  141.6980 O   0  0  0  0  0  0  0  0  0  0  0  0
  188.7620  177.6830  142.2430 P   0  0  1  0  0  0  0  0  0  0  0  0
  185.7750  177.8350  143.1430 C   0  0  0  0  0  2  0  0  0  0  0  0
  187.5670  178.7160  141.5710 O   0  0  0  0  0  0  0  0  0  0  0  0
  187.9300  176.6010  143.4310 C   0  0  0  0  0  2  0  0  0  0  0  0
  1  8  1  0  0  0  0
  2  8  1  0  0  0  0
  3  1  1  0  0  0  0
  4  2  1  0  0  0  0
  5  3  1  0  0  0  0
  6  4  2  0  0  0  0
  7  5  2  0  0  0  0
  8 25  1  1  0  0  0
  9 22  1  6  0  0  0
  9  6  1  0  0  0  0
  9 10  1  0  0  0  0
 10  5  1  0  0  0  0
 10  2  2  0  0  0  0
 11 12  1  0  0  0  0
 12  6  1  0  0  0  0
 13 12  1  0  0  0  0
 14 12  1  6  0  0  0
 14 15  1  0  0  0  0
 15 18  1  0  0  0  0
 16 20  1  0  0  0  0
 18 17  1  6  0  0  0
 19 14  1  0  0  0  0
 19 16  1  0  0  0  0
 20 18  1  0  0  0  0
 22 21  1  0  0  0  0
 23  9  1  0  0  0  0
 24 23  1  0  0  0  0
 25 30  1  0  0  0  0
 28 31  1  0  0  0  0
 29 28  2  0  0  0  0
 30 26  2  1  0  0  0
 30 33  1  0  0  0  0
 31 27  1  0  0  0  0
 32 28  1  0  0  0  0
 32 30  1  0  0  0  0
 33 27  1  0  0  0  0
M  END
>  <MODEL>
5

>  <REMARK>
 VINA RESULT:      -6.2      1.794      2.801
  Name = 
  6 active torsions:
  status: ('A' for Active; 'I' for Inactive)
    1  A    between atoms: C_7  and  C_13
    2  A    between atoms: O_10  and  C_32
    3  A    between atoms: P_12  and  C_21
    4  A    between atoms: C_13  and  C_26
    5  A    between atoms: C_21  and  C_31
    6  A    between atoms: C_30  and  C_32
                            x       y       z     vdW  Elec       q    Type
                         _______ _______ _______ _____ _____    ______ ____

>  <TORSDO>
F 6

$$$$
=
 OpenBabel11062414503D

 33 36  0  0  1  0  0  0  0  0999 V2000
  191.2810  177.8780  139.6890 O   0  0  0  0  0  0  0  0  0  0  0  0
  189.6640  176.4170  138.6310 C   0  0  0  0  0  0  0  0  0  0  0  0
  192.2570  176.8520  139.5660 C   0  0  0  0  0  2  0  0  0  0  0  0
  188.3720  176.0930  138.1630 N   0  0  0  0  0  0  0  0  0  0  0  0
  192.0100  176.0140  138.3420 C   0  0  0  0  0  0  0  0  0  0  0  0
  188.5150  175.2580  137.1820 C   0  0  0  0  0  0  0  0  0  0  0  0
  192.9700  175.5110  137.7030 O   0  0  0  0  0  0  0  0  0  0  0  0
  189.9700  177.3260  139.7900 C   0  0  1  0  0  3  0  0  0  0  0  0
  189.9750  174.9420  136.8880 C   0  0  2  0  0  0  0  0  0  0  0  0
  190.6070  175.7860  137.9700 C   0  0  0  0  0  0  0  0  0  0  0  0
  187.6690  174.3330  135.0370 C   0  0  0  0  0  1  0  0  0  0  0  0
  187.3070  174.6500  136.4830 C   0  0  0  0  0  0  0  0  0  0  0  0
  186.8980  173.3380  137.1420 C   0  0  0  0  0  1  0  0  0  0  0  0
  186.1010  175.6150  136.5410 C   0  0  2  0  0  3  0  0  0  0  0  0
  185.0180  175.0320  137.2320 O   0  0  0  0  0  0  0  0  0  0  0  0
  184.5230  177.1270  135.3390 C   0  0  0  0  0  2  0  0  0  0  0  0
  183.1690  175.6080  138.4480 O   0  0  0  0  0  1  0  0  0  0  0  0
  184.1360  176.0790  137.5620 C   0  0  2  0  0  3  0  0  0  0  0  0
  185.6280  176.0910  135.1560 C   0  0  0  0  0  2  0  0  0  0  0  0
  183.4560  176.6020  136.2960 C   0  0  0  0  0  2  0  0  0  0  0  0
  190.1650  176.8310  135.3480 O   0  0  0  0  0  1  0  0  0  0  0  0
  190.2980  175.4460  135.4650 C   0  0  0  0  0  2  0  0  0  0  0  0
  190.1580  173.5480  137.0780 O   0  0  0  0  0  0  0  0  0  0  0  0
  190.9930  173.0130  136.0870 C   0  0  0  0  0  1  0  0  0  0  0  0
  189.7440  176.6130  141.1200 C   0  0  0  0  0  2  0  0  0  0  0  0
  189.8200  178.5900  143.0080 O   0  0  0  0  0  0  0  0  0  0  0  0
  186.7970  177.5450  144.0220 C   0  0  0  0  0  2  0  0  0  0  0  0
  186.3840  178.7810  141.8690 C   0  0  0  0  0  0  0  0  0  0  0  0
  185.6360  179.6260  141.3130 O   0  0  0  0  0  0  0  0  0  0  0  0
  188.8500  177.6920  142.2750 P   0  0  1  0  0  0  0  0  0  0  0  0
  185.7980  177.8780  142.9190 C   0  0  0  0  0  2  0  0  0  0  0  0
  187.7060  178.6550  141.4310 O   0  0  0  0  0  0  0  0  0  0  0  0
  187.9300  176.6960  143.4740 C   0  0  0  0  0  2  0  0  0  0  0  0
  1  8  1  0  0  0  0
  2  8  1  0  0  0  0
  3  1  1  0  0  0  0
  4  2  1  0  0  0  0
  5  3  1  0  0  0  0
  6  4  2  0  0  0  0
  7  5  2  0  0  0  0
  8 25  1  1  0  0  0
  9 22  1  6  0  0  0
  9 23  1  0  0  0  0
  9  6  1  0  0  0  0
  9 10  1  0  0  0  0
 10  5  1  0  0  0  0
 10  2  2  0  0  0  0
 11 12  1  0  0  0  0
 12 13  1  0  0  0  0
 12  6  1  0  0  0  0
 14 12  1  6  0  0  0
 14 15  1  0  0  0  0
 15 18  1  0  0  0  0
 16 20  1  0  0  0  0
 18 17  1  1  0  0  0
 19 16  1  0  0  0  0
 19 14  1  0  0  0  0
 20 18  1  0  0  0  0
 21 22  1  0  0  0  0
 24 23  1  0  0  0  0
 25 30  1  0  0  0  0
 28 31  1  0  0  0  0
 29 28  2  0  0  0  0
 30 26  2  1  0  0  0
 30 33  1  0  0  0  0
 31 27  1  0  0  0  0
 32 28  1  0  0  0  0
 32 30  1  0  0  0  0
 33 27  1  0  0  0  0
M  END
>  <MODEL>
6

>  <REMARK>
 VINA RESULT:      -6.2      1.373      2.261
  Name = 
  6 active torsions:
  status: ('A' for Active; 'I' for Inactive)
    1  A    between atoms: C_7  and  C_13
    2  A    between atoms: O_10  and  C_32
    3  A    between atoms: P_12  and  C_21
    4  A    between atoms: C_13  and  C_26
    5  A    between atoms: C_21  and  C_31
    6  A    between atoms: C_30  and  C_32
                            x       y       z     vdW  Elec       q    Type
                         _______ _______ _______ _____ _____    ______ ____

>  <TORSDO>
F 6

$$$$
=
 OpenBabel11062414503D

 33 36  0  0  1  0  0  0  0  0999 V2000
  185.6560  175.2170  135.2980 O   0  0  0  0  0  0  0  0  0  0  0  0
  184.8990  176.5030  137.2070 C   0  0  0  0  0  0  0  0  0  0  0  0
  184.9280  174.0990  135.7900 C   0  0  0  0  0  2  0  0  0  0  0  0
  184.8550  177.6640  138.0100 N   0  0  0  0  0  0  0  0  0  0  0  0
  183.6980  174.5390  136.5340 C   0  0  0  0  0  0  0  0  0  0  0  0
  183.7040  177.6760  138.6070 C   0  0  0  0  0  0  0  0  0  0  0  0
  182.6510  173.8420  136.5150 O   0  0  0  0  0  0  0  0  0  0  0  0
  186.0680  176.0670  136.3670 C   0  0  1  0  0  3  0  0  0  0  0  0
  182.8380  176.4810  138.2370 C   0  0  2  0  0  0  0  0  0  0  0  0
  183.8050  175.7840  137.3080 C   0  0  0  0  0  0  0  0  0  0  0  0
  183.8410  180.1110  139.0820 C   0  0  0  0  0  1  0  0  0  0  0  0
  183.3480  178.7670  139.6070 C   0  0  0  0  0  0  0  0  0  0  0  0
  181.8380  178.8780  139.7800 C   0  0  0  0  0  1  0  0  0  0  0  0
  183.9700  178.4630  140.9890 C   0  0  2  0  0  3  0  0  0  0  0  0
  183.1900  179.0130  142.0280 O   0  0  0  0  0  0  0  0  0  0  0  0
  185.9720  178.4920  142.4770 C   0  0  0  0  0  2  0  0  0  0  0  0
  182.7110  178.7080  144.2430 O   0  0  0  0  0  1  0  0  0  0  0  0
  183.6010  178.3860  143.2200 C   0  0  2  0  0  3  0  0  0  0  0  0
  185.4230  178.9510  141.1290 C   0  0  0  0  0  2  0  0  0  0  0  0
  185.0040  178.8600  143.5980 C   0  0  0  0  0  2  0  0  0  0  0  0
  181.8910  177.7240  136.3570 O   0  0  0  0  0  1  0  0  0  0  0  0
  181.5790  177.0060  137.5140 C   0  0  0  0  0  2  0  0  0  0  0  0
  182.5770  175.7560  139.4280 O   0  0  0  0  0  0  0  0  0  0  0  0
  181.2330  175.3590  139.4880 C   0  0  0  0  0  1  0  0  0  0  0  0
  187.1540  175.4280  137.2280 C   0  0  0  0  0  2  0  0  0  0  0  0
  188.4940  177.7040  136.5170 O   0  0  0  0  0  0  0  0  0  0  0  0
  191.0360  176.6360  138.4290 C   0  0  0  0  0  2  0  0  0  0  0  0
  189.2850  177.4460  140.0450 C   0  0  0  0  0  0  0  0  0  0  0  0
  189.1060  178.1250  141.0890 O   0  0  0  0  0  0  0  0  0  0  0  0
  188.4760  176.6250  137.5750 P   0  0  1  0  0  0  0  0  0  0  0  0
  190.5800  176.6990  139.8830 C   0  0  0  0  0  2  0  0  0  0  0  0
  188.2430  177.3410  139.1180 O   0  0  0  0  0  0  0  0  0  0  0  0
  190.0800  175.7890  137.6090 C   0  0  0  0  0  2  0  0  0  0  0  0
  1  3  1  0  0  0  0
  1  8  1  0  0  0  0
  2 10  2  0  0  0  0
  2  4  1  0  0  0  0
  3  5  1  0  0  0  0
  4  6  2  0  0  0  0
  5 10  1  0  0  0  0
  6 12  1  0  0  0  0
  7  5  2  0  0  0  0
  8  2  1  0  0  0  0
  8 25  1  1  0  0  0
  9 22  1  6  0  0  0
  9  6  1  0  0  0  0
  9 23  1  0  0  0  0
 10  9  1  0  0  0  0
 11 12  1  0  0  0  0
 12 13  1  0  0  0  0
 14 12  1  6  0  0  0
 14 19  1  0  0  0  0
 14 15  1  0  0  0  0
 15 18  1  0  0  0  0
 16 20  1  0  0  0  0
 18 20  1  0  0  0  0
 18 17  1  1  0  0  0
 19 16  1  0  0  0  0
 21 22  1  0  0  0  0
 23 24  1  0  0  0  0
 25 30  1  0  0  0  0
 27 31  1  0  0  0  0
 28 29  2  0  0  0  0
 30 26  2  6  0  0  0
 30 33  1  0  0  0  0
 30 32  1  0  0  0  0
 31 28  1  0  0  0  0
 32 28  1  0  0  0  0
 33 27  1  0  0  0  0
M  END
>  <MODEL>
7

>  <REMARK>
 VINA RESULT:      -6.1      2.918      7.088
  Name = 
  6 active torsions:
  status: ('A' for Active; 'I' for Inactive)
    1  A    between atoms: C_7  and  C_13
    2  A    between atoms: O_10  and  C_32
    3  A    between atoms: P_12  and  C_21
    4  A    between atoms: C_13  and  C_26
    5  A    between atoms: C_21  and  C_31
    6  A    between atoms: C_30  and  C_32
                            x       y       z     vdW  Elec       q    Type
                         _______ _______ _______ _____ _____    ______ ____

>  <TORSDO>
F 6

$$$$
=
 OpenBabel11062414503D

 33 36  0  0  1  0  0  0  0  0999 V2000
  188.5910  178.6070  138.8060 O   0  0  0  0  0  0  0  0  0  0  0  0
  187.0450  178.4690  140.6660 C   0  0  0  0  0  0  0  0  0  0  0  0
  187.7130  177.7890  138.0440 C   0  0  0  0  0  2  0  0  0  0  0  0
  186.6420  178.7290  141.9940 N   0  0  0  0  0  0  0  0  0  0  0  0
  186.2810  178.0170  138.4390 C   0  0  0  0  0  0  0  0  0  0  0  0
  185.3450  178.7420  142.0070 C   0  0  0  0  0  0  0  0  0  0  0  0
  185.3570  177.9270  137.5890 O   0  0  0  0  0  0  0  0  0  0  0  0
  188.4680  178.3270  140.1990 C   0  0  1  0  0  3  0  0  0  0  0  0
  184.7410  178.4880  140.6330 C   0  0  2  0  0  0  0  0  0  0  0  0
  186.0250  178.3010  139.8580 C   0  0  0  0  0  0  0  0  0  0  0  0
  184.3720  180.4240  143.5540 C   0  0  0  0  0  1  0  0  0  0  0  0
  184.5730  178.9340  143.3050 C   0  0  0  0  0  0  0  0  0  0  0  0
  183.1890  178.3020  143.2160 C   0  0  0  0  0  1  0  0  0  0  0  0
  185.3250  178.2820  144.4880 C   0  0  2  0  0  3  0  0  0  0  0  0
  185.6410  179.2380  145.4760 O   0  0  0  0  0  0  0  0  0  0  0  0
  187.1960  176.8380  145.2860 C   0  0  0  0  0  2  0  0  0  0  0  0
  186.0570  179.4050  147.7190 O   0  0  0  0  0  1  0  0  0  0  0  0
  185.9680  178.5220  146.6430 C   0  0  2  0  0  3  0  0  0  0  0  0
  186.6070  177.5420  144.0670 C   0  0  0  0  0  2  0  0  0  0  0  0
  187.3080  177.8110  146.4560 C   0  0  0  0  0  2  0  0  0  0  0  0
  184.5200  180.3740  139.0940 O   0  0  0  0  0  1  0  0  0  0  0  0
  183.9610  179.7510  140.2110 C   0  0  0  0  0  2  0  0  0  0  0  0
  183.9570  177.3090  140.7210 O   0  0  0  0  0  0  0  0  0  0  0  0
  182.8670  177.3670  139.8420 C   0  0  0  0  0  1  0  0  0  0  0  0
  189.0320  176.9570  140.5660 C   0  0  0  0  0  2  0  0  0  0  0  0
  191.7600  177.0760  140.7260 O   0  0  0  0  0  0  0  0  0  0  0  0
  191.4630  176.2910  143.9750 C   0  0  0  0  0  2  0  0  0  0  0  0
  190.7620  178.7020  143.8080 C   0  0  0  0  0  0  0  0  0  0  0  0
  190.8880  179.8340  144.3440 O   0  0  0  0  0  0  0  0  0  0  0  0
  190.5210  177.1360  141.5900 P   0  0  1  0  0  0  0  0  0  0  0  0
  190.8190  177.4800  144.6810 C   0  0  0  0  0  2  0  0  0  0  0  0
  190.4880  178.6280  142.4380 O   0  0  0  0  0  0  0  0  0  0  0  0
  190.5880  175.8170  142.8270 C   0  0  0  0  0  2  0  0  0  0  0  0
  1  8  1  0  0  0  0
  2  4  1  0  0  0  0
  3  5  1  0  0  0  0
  3  1  1  0  0  0  0
  4  6  2  0  0  0  0
  5 10  1  0  0  0  0
  6 12  1  0  0  0  0
  7  5  2  0  0  0  0
  8 25  1  6  0  0  0
  8  2  1  0  0  0  0
  9 22  1  6  0  0  0
  9 23  1  0  0  0  0
  9  6  1  0  0  0  0
 10  9  1  0  0  0  0
 10  2  2  0  0  0  0
 12 11  1  0  0  0  0
 13 12  1  0  0  0  0
 14 12  1  6  0  0  0
 14 15  1  0  0  0  0
 15 18  1  0  0  0  0
 16 20  1  0  0  0  0
 18 17  1  1  0  0  0
 19 14  1  0  0  0  0
 19 16  1  0  0  0  0
 20 18  1  0  0  0  0
 21 22  1  0  0  0  0
 24 23  1  0  0  0  0
 25 30  1  0  0  0  0
 27 31  1  0  0  0  0
 28 29  2  0  0  0  0
 28 31  1  0  0  0  0
 30 26  2  6  0  0  0
 30 32  1  0  0  0  0
 30 33  1  0  0  0  0
 32 28  1  0  0  0  0
 33 27  1  0  0  0  0
M  END
>  <MODEL>
8

>  <REMARK>
 VINA RESULT:      -6.0      3.627      7.230
  Name = 
  6 active torsions:
  status: ('A' for Active; 'I' for Inactive)
    1  A    between atoms: C_7  and  C_13
    2  A    between atoms: O_10  and  C_32
    3  A    between atoms: P_12  and  C_21
    4  A    between atoms: C_13  and  C_26
    5  A    between atoms: C_21  and  C_31
    6  A    between atoms: C_30  and  C_32
                            x       y       z     vdW  Elec       q    Type
                         _______ _______ _______ _____ _____    ______ ____

>  <TORSDO>
F 6

$$$$
=
 OpenBabel11062414503D

 33 36  0  0  1  0  0  0  0  0999 V2000
  191.7500  177.6770  140.1580 O   0  0  0  0  0  0  0  0  0  0  0  0
  189.6990  177.0530  139.0320 C   0  0  0  0  0  0  0  0  0  0  0  0
  192.4550  176.7530  139.3390 C   0  0  0  0  0  2  0  0  0  0  0  0
  188.3020  177.1100  138.8300 N   0  0  0  0  0  0  0  0  0  0  0  0
  191.8140  176.6310  137.9850 C   0  0  0  0  0  0  0  0  0  0  0  0
  188.0820  176.8380  137.5810 C   0  0  0  0  0  0  0  0  0  0  0  0
  192.5110  176.4120  136.9610 O   0  0  0  0  0  0  0  0  0  0  0  0
  190.3980  177.2640  140.3460 C   0  0  1  0  0  3  0  0  0  0  0  0
  189.3630  176.5730  136.8030 C   0  0  2  0  0  0  0  0  0  0  0  0
  190.3490  176.7340  137.9370 C   0  0  0  0  0  0  0  0  0  0  0  0
  185.8290  177.8840  137.6150 C   0  0  0  0  0  1  0  0  0  0  0  0
  186.6650  176.7500  137.0320 C   0  0  0  0  0  0  0  0  0  0  0  0
  186.6540  176.9160  135.5180 C   0  0  0  0  0  1  0  0  0  0  0  0
  186.0340  175.3800  137.3710 C   0  0  2  0  0  3  0  0  0  0  0  0
  186.6100  174.3510  136.5980 O   0  0  0  0  0  0  0  0  0  0  0  0
  183.9800  173.9990  137.6800 C   0  0  0  0  0  2  0  0  0  0  0  0
  186.9990  172.0980  136.6430 O   0  0  0  0  0  1  0  0  0  0  0  0
  186.2660  173.1350  137.2180 C   0  0  2  0  0  3  0  0  0  0  0  0
  184.5040  175.3500  137.2030 C   0  0  0  0  0  2  0  0  0  0  0  0
  184.7720  172.8650  137.0360 C   0  0  0  0  0  2  0  0  0  0  0  0
  189.3470  178.9520  136.2420 O   0  0  0  0  0  1  0  0  0  0  0  0
  189.5030  177.6660  135.7220 C   0  0  0  0  0  2  0  0  0  0  0  0
  189.2920  175.2480  136.3000 O   0  0  0  0  0  0  0  0  0  0  0  0
  189.9260  175.1520  135.0530 C   0  0  0  0  0  1  0  0  0  0  0  0
  190.2910  176.0240  141.2300 C   0  0  0  0  0  2  0  0  0  0  0  0
  188.3840  175.9860  143.1900 O   0  0  0  0  0  0  0  0  0  0  0  0
  189.9680  178.5940  144.5870 C   0  0  0  0  0  2  0  0  0  0  0  0
  191.4040  176.5910  145.1010 C   0  0  0  0  0  0  0  0  0  0  0  0
  192.0560  176.0200  146.0130 O   0  0  0  0  0  0  0  0  0  0  0  0
  189.7840  176.4850  142.9120 P   0  0  1  0  0  0  0  0  0  0  0  0
  191.3080  178.0920  145.1150 C   0  0  0  0  0  2  0  0  0  0  0  0
  190.8660  175.8190  144.0660 O   0  0  0  0  0  0  0  0  0  0  0  0
  189.8300  178.2830  143.1070 C   0  0  0  0  0  2  0  0  0  0  0  0
  1  8  1  0  0  0  0
  2  8  1  0  0  0  0
  3  1  1  0  0  0  0
  4  2  1  0  0  0  0
  5  3  1  0  0  0  0
  6  4  2  0  0  0  0
  7  5  2  0  0  0  0
  8 25  1  6  0  0  0
  9 22  1  6  0  0  0
  9  6  1  0  0  0  0
  9 10  1  0  0  0  0
 10  5  1  0  0  0  0
 10  2  2  0  0  0  0
 12  6  1  0  0  0  0
 12 11  1  0  0  0  0
 13 12  1  0  0  0  0
 14 12  1  6  0  0  0
 15 18  1  0  0  0  0
 15 14  1  0  0  0  0
 18 17  1  6  0  0  0
 19 14  1  0  0  0  0
 19 16  1  0  0  0  0
 20 18  1  0  0  0  0
 20 16  1  0  0  0  0
 22 21  1  0  0  0  0
 23  9  1  0  0  0  0
 24 23  1  0  0  0  0
 25 30  1  0  0  0  0
 27 31  1  0  0  0  0
 28 31  1  0  0  0  0
 28 29  2  0  0  0  0
 30 33  1  0  0  0  0
 30 26  2  1  0  0  0
 30 32  1  0  0  0  0
 32 28  1  0  0  0  0
 33 27  1  0  0  0  0
M  END
>  <MODEL>
9

>  <REMARK>
 VINA RESULT:      -5.6      1.943      2.692
  Name = 
  6 active torsions:
  status: ('A' for Active; 'I' for Inactive)
    1  A    between atoms: C_7  and  C_13
    2  A    between atoms: O_10  and  C_32
    3  A    between atoms: P_12  and  C_21
    4  A    between atoms: C_13  and  C_26
    5  A    between atoms: C_21  and  C_31
    6  A    between atoms: C_30  and  C_32
                            x       y       z     vdW  Elec       q    Type
                         _______ _______ _______ _____ _____    ______ ____

>  <TORSDO>
F 6

$$$$
