=
 OpenBabel11062414343D

 31 33  0  0  1  0  0  0  0  0999 V2000
  188.4900  177.4830  147.3560 C   0  0  0  0  0  2  0  0  0  0  0  0
  191.8260  176.0300  145.4200 N   0  0  0  0  0  0  0  0  0  0  0  0
  191.9060  176.2480  146.6940 C   0  0  0  0  0  3  0  0  0  0  0  0
  187.2440  177.4530  145.1970 C   0  0  0  0  0  2  0  0  0  0  0  0
  190.7100  176.4670  144.6240 C   0  0  0  0  0  0  0  0  0  0  0  0
  188.5290  177.6650  144.4040 C   0  0  0  0  0  2  0  0  0  0  0  0
  190.8730  176.9680  147.3660 N   0  0  0  0  0  0  0  0  0  0  0  0
  187.3480  178.1220  146.5660 C   0  0  1  0  0  3  0  0  0  0  0  0
  189.8220  177.6620  146.6280 C   0  0  0  0  0  0  0  0  0  0  0  0
  189.7180  177.1900  145.1920 C   0  0  0  0  0  0  0  0  0  0  0  0
  190.9890  177.0670  142.1980 C   0  0  0  0  0  0  0  0  0  0  0  0
  190.2190  174.8900  142.8570 O   0  0  0  0  0  1  0  0  0  0  0  0
  190.6750  176.1120  143.2260 N   0  0  0  0  0  0  0  0  0  0  0  0
  191.4280  178.2110  142.4970 O   0  0  0  0  0  0  0  0  0  0  0  0
  189.3520  177.6130  138.8100 C   0  0  0  0  0  2  0  0  0  0  0  0
  190.7610  176.7150  140.7590 C   0  0  1  0  0  3  0  0  0  0  0  0
  190.2400  176.6830  137.9850 C   0  0  2  0  0  3  0  0  0  0  0  0
  191.7120  176.7460  138.4210 C   0  0  0  0  0  2  0  0  0  0  0  0
  189.3920  177.2390  140.2970 C   0  0  0  0  0  2  0  0  0  0  0  0
  191.9010  177.2130  139.8700 C   0  0  0  0  0  2  0  0  0  0  0  0
  190.1110  176.9750  136.5280 C   0  0  0  0  0  0  0  0  0  0  0  0
  190.7640  176.1690  135.6040 O   0  0  0  0  0  0  0  0  0  0  0  0
  189.4230  177.9530  136.1280 O   0  0  0  0  0  1  0  0  0  0  0  0
  186.1460  177.9570  147.2570 O   0  0  0  0  0  0  0  0  0  0  0  0
  185.3530  179.0350  146.8620 C   0  0  0  0  0  2  0  0  0  0  0  0
  184.2780  178.5490  145.9130 C   0  0  0  0  0  2  0  0  0  0  0  0
  184.3310  179.3600  144.6320 C   0  0  0  0  0  2  0  0  0  0  0  0
  183.9560  178.4960  143.4410 C   0  0  1  0  0  3  0  0  0  0  0  0
  182.6810  178.9360  142.8950 N   0  0  0  0  0  1  0  0  0  0  0  0
  185.0150  178.6120  142.3960 C   0  0  0  0  0  3  0  0  0  0  0  0
  185.4570  179.7060  142.0820 O   0  0  0  0  0  0  0  0  0  0  0  0
  2  3  1  0  0  0  0
  3  7  2  0  0  0  0
  4  8  1  0  0  0  0
  5 10  1  0  0  0  0
  5  2  2  0  0  0  0
  6 10  1  0  0  0  0
  6  4  1  0  0  0  0
  8 24  1  1  0  0  0
  8  1  1  0  0  0  0
  9  1  1  0  0  0  0
  9  7  1  0  0  0  0
 10  9  2  0  0  0  0
 11 14  2  0  0  0  0
 11 13  1  0  0  0  0
 12 13  1  0  0  0  0
 13  5  1  0  0  0  0
 15 19  1  0  0  0  0
 16 11  1  1  0  0  0
 17 21  1  6  0  0  0
 17 18  1  0  0  0  0
 17 15  1  0  0  0  0
 18 20  1  0  0  0  0
 19 16  1  0  0  0  0
 20 16  1  0  0  0  0
 22 21  2  0  0  0  0
 23 21  1  0  0  0  0
 25 24  1  0  0  0  0
 26 25  1  0  0  0  0
 27 26  1  0  0  0  0
 28 29  1  6  0  0  0
 28 27  1  0  0  0  0
 30 28  1  0  0  0  0
 31 30  2  0  0  0  0
M  END
>  <MODEL>
1

>  <REMARK>
 VINA RESULT:      -8.2      0.000      0.000
  Name = 
  9 active torsions:
  status: ('A' for Active; 'I' for Inactive)
    1  A    between atoms: C_1  and  CA_6
    2  A    between atoms: C_2  and  C_11
    3  A    between atoms: C_3  and  CA_6
    4  A    between atoms: C_3  and  C_9
    5  A    between atoms: O_4  and  C_20
    6  A    between atoms: O_4  and  C_24
    7  A    between atoms: C_9  and  C_24
    8  A    between atoms: C_13  and  C_23
    9  A    between atoms: C_15  and  N_27
                            x       y       z     vdW  Elec       q    Type
                         _______ _______ _______ _____ _____    ______ ____

>  <TORSDO>
F 9

$$$$
=
 OpenBabel11062414343D

 31 33  0  0  1  0  0  0  0  0999 V2000
  184.5650  178.6740  145.9760 C   0  0  0  0  0  2  0  0  0  0  0  0
  188.3770  177.1170  146.1560 N   0  0  0  0  0  0  0  0  0  0  0  0
  187.8330  177.5280  147.2570 C   0  0  0  0  0  3  0  0  0  0  0  0
  184.5280  178.2560  143.5180 C   0  0  0  0  0  2  0  0  0  0  0  0
  187.8030  177.3710  144.8610 C   0  0  0  0  0  0  0  0  0  0  0  0
  186.0420  178.4110  143.4270 C   0  0  0  0  0  2  0  0  0  0  0  0
  186.6250  178.2870  147.2210 N   0  0  0  0  0  0  0  0  0  0  0  0
  183.9720  179.1270  144.6420 C   0  0  1  0  0  3  0  0  0  0  0  0
  186.0870  178.8080  145.9680 C   0  0  0  0  0  0  0  0  0  0  0  0
  186.6820  178.1200  144.7550 C   0  0  0  0  0  0  0  0  0  0  0  0
  189.4410  177.5370  142.9610 C   0  0  0  0  0  0  0  0  0  0  0  0
  188.0150  175.6190  143.2070 O   0  0  0  0  0  1  0  0  0  0  0  0
  188.4440  176.8090  143.6970 N   0  0  0  0  0  0  0  0  0  0  0  0
  189.8760  178.6410  143.3870 O   0  0  0  0  0  0  0  0  0  0  0  0
  189.6470  177.5380  139.1640 C   0  0  0  0  0  2  0  0  0  0  0  0
  189.9440  176.9980  141.6560 C   0  0  1  0  0  3  0  0  0  0  0  0
  190.8350  176.5900  139.0080 C   0  0  2  0  0  3  0  0  0  0  0  0
  191.9100  176.8240  140.0820 C   0  0  0  0  0  2  0  0  0  0  0  0
  188.9660  177.3490  140.5250 C   0  0  0  0  0  2  0  0  0  0  0  0
  191.3670  177.4760  141.3590 C   0  0  0  0  0  2  0  0  0  0  0  0
  191.4260  176.6940  137.6420 C   0  0  0  0  0  0  0  0  0  0  0  0
  192.8060  176.7240  137.4900 O   0  0  0  0  0  1  0  0  0  0  0  0
  190.6830  176.7670  136.6260 O   0  0  0  0  0  0  0  0  0  0  0  0
  182.5810  179.0070  144.6790 O   0  0  0  0  0  0  0  0  0  0  0  0
  182.2160  178.6510  143.3800 C   0  0  0  0  0  2  0  0  0  0  0  0
  180.7370  178.9100  143.1830 C   0  0  0  0  0  2  0  0  0  0  0  0
  180.3580  178.6080  141.7460 C   0  0  0  0  0  2  0  0  0  0  0  0
  179.7730  179.8410  141.0810 C   0  0  1  0  0  3  0  0  0  0  0  0
  179.6570  180.9180  142.0520 N   0  0  0  0  0  1  0  0  0  0  0  0
  180.6670  180.2670  139.9640 C   0  0  0  0  0  3  0  0  0  0  0  0
  180.5090  181.3500  139.4250 O   0  0  0  0  0  0  0  0  0  0  0  0
  2  3  1  0  0  0  0
  4  8  1  0  0  0  0
  5  2  2  0  0  0  0
  6  4  1  0  0  0  0
  6 10  1  0  0  0  0
  7  3  2  0  0  0  0
  8 24  1  1  0  0  0
  8  1  1  0  0  0  0
  9  1  1  0  0  0  0
  9  7  1  0  0  0  0
 10  5  1  0  0  0  0
 10  9  2  0  0  0  0
 11 14  2  0  0  0  0
 11 13  1  0  0  0  0
 12 13  1  0  0  0  0
 13  5  1  0  0  0  0
 15 19  1  0  0  0  0
 16 11  1  1  0  0  0
 17 21  1  6  0  0  0
 17 15  1  0  0  0  0
 17 18  1  0  0  0  0
 18 20  1  0  0  0  0
 19 16  1  0  0  0  0
 20 16  1  0  0  0  0
 22 21  1  0  0  0  0
 23 21  2  0  0  0  0
 25 24  1  0  0  0  0
 26 25  1  0  0  0  0
 27 26  1  0  0  0  0
 28 27  1  0  0  0  0
 28 29  1  1  0  0  0
 30 28  1  0  0  0  0
 31 30  2  0  0  0  0
M  END
>  <MODEL>
2

>  <REMARK>
 VINA RESULT:      -7.5      2.599      3.452
  Name = 
  9 active torsions:
  status: ('A' for Active; 'I' for Inactive)
    1  A    between atoms: C_1  and  CA_6
    2  A    between atoms: C_2  and  C_11
    3  A    between atoms: C_3  and  CA_6
    4  A    between atoms: C_3  and  C_9
    5  A    between atoms: O_4  and  C_20
    6  A    between atoms: O_4  and  C_24
    7  A    between atoms: C_9  and  C_24
    8  A    between atoms: C_13  and  C_23
    9  A    between atoms: C_15  and  N_27
                            x       y       z     vdW  Elec       q    Type
                         _______ _______ _______ _____ _____    ______ ____

>  <TORSDO>
F 9

$$$$
=
 OpenBabel11062414343D

 31 33  0  0  1  0  0  0  0  0999 V2000
  182.4970  179.2030  144.0120 C   0  0  0  0  0  2  0  0  0  0  0  0
  181.4150  179.3450  140.0370 N   0  0  0  0  0  0  0  0  0  0  0  0
  180.4750  179.3810  140.9270 C   0  0  0  0  0  3  0  0  0  0  0  0
  184.8950  179.1010  143.3380 C   0  0  0  0  0  2  0  0  0  0  0  0
  182.7850  179.0490  140.3620 C   0  0  0  0  0  0  0  0  0  0  0  0
  184.5400  178.4160  142.0230 C   0  0  0  0  0  2  0  0  0  0  0  0
  180.7700  179.0960  142.2940 N   0  0  0  0  0  0  0  0  0  0  0  0
  183.8890  178.7230  144.4220 C   0  0  1  0  0  3  0  0  0  0  0  0
  182.0620  178.5510  142.7000 C   0  0  0  0  0  0  0  0  0  0  0  0
  183.1230  178.7300  141.6320 C   0  0  0  0  0  0  0  0  0  0  0  0
  184.1480  177.9370  138.5660 C   0  0  0  0  0  0  0  0  0  0  0  0
  184.4600  180.2570  139.1030 O   0  0  0  0  0  1  0  0  0  0  0  0
  183.7740  179.1070  139.3130 N   0  0  0  0  0  0  0  0  0  0  0  0
  183.5280  176.8500  138.7210 O   0  0  0  0  0  0  0  0  0  0  0  0
  187.7490  177.2060  137.5870 C   0  0  0  0  0  2  0  0  0  0  0  0
  185.3070  177.9990  137.6170 C   0  0  1  0  0  3  0  0  0  0  0  0
  187.6490  177.5570  136.1030 C   0  0  2  0  0  3  0  0  0  0  0  0
  186.3180  177.0990  135.4860 C   0  0  0  0  0  2  0  0  0  0  0  0
  186.6300  177.8810  138.3900 C   0  0  0  0  0  2  0  0  0  0  0  0
  185.1880  176.9480  136.5120 C   0  0  0  0  0  2  0  0  0  0  0  0
  188.8020  176.9940  135.3420 C   0  0  0  0  0  0  0  0  0  0  0  0
  189.1010  175.6420  135.4460 O   0  0  0  0  0  1  0  0  0  0  0  0
  189.5140  177.7380  134.6140 O   0  0  0  0  0  0  0  0  0  0  0  0
  184.2570  179.3220  145.6280 O   0  0  0  0  0  0  0  0  0  0  0  0
  184.7760  178.2830  146.4030 C   0  0  0  0  0  2  0  0  0  0  0  0
  186.2030  178.6070  146.7900 C   0  0  0  0  0  2  0  0  0  0  0  0
  187.1510  177.7070  146.0210 C   0  0  0  0  0  2  0  0  0  0  0  0
  188.2550  177.1970  146.9310 C   0  0  1  0  0  3  0  0  0  0  0  0
  189.5520  177.4450  146.3210 N   0  0  0  0  0  1  0  0  0  0  0  0
  188.1740  177.9020  148.2440 C   0  0  0  0  0  3  0  0  0  0  0  0
  189.1520  178.4720  148.7000 O   0  0  0  0  0  0  0  0  0  0  0  0
  1  8  1  0  0  0  0
  2  5  2  0  0  0  0
  2  3  1  0  0  0  0
  3  7  2  0  0  0  0
  4  8  1  0  0  0  0
  5 10  1  0  0  0  0
  6  4  1  0  0  0  0
  7  9  1  0  0  0  0
  8 24  1  1  0  0  0
  9  1  1  0  0  0  0
 10  6  1  0  0  0  0
 10  9  2  0  0  0  0
 11 14  2  0  0  0  0
 11 13  1  0  0  0  0
 12 13  1  0  0  0  0
 13  5  1  0  0  0  0
 15 19  1  0  0  0  0
 16 19  1  0  0  0  0
 16 11  1  1  0  0  0
 17 21  1  6  0  0  0
 17 15  1  0  0  0  0
 18 17  1  0  0  0  0
 18 20  1  0  0  0  0
 20 16  1  0  0  0  0
 21 22  1  0  0  0  0
 23 21  2  0  0  0  0
 24 25  1  0  0  0  0
 25 26  1  0  0  0  0
 27 26  1  0  0  0  0
 27 28  1  0  0  0  0
 28 29  1  6  0  0  0
 28 30  1  0  0  0  0
 30 31  2  0  0  0  0
M  END
>  <MODEL>
3

>  <REMARK>
 VINA RESULT:      -7.3      3.107      6.862
  Name = 
  9 active torsions:
  status: ('A' for Active; 'I' for Inactive)
    1  A    between atoms: C_1  and  CA_6
    2  A    between atoms: C_2  and  C_11
    3  A    between atoms: C_3  and  CA_6
    4  A    between atoms: C_3  and  C_9
    5  A    between atoms: O_4  and  C_20
    6  A    between atoms: O_4  and  C_24
    7  A    between atoms: C_9  and  C_24
    8  A    between atoms: C_13  and  C_23
    9  A    between atoms: C_15  and  N_27
                            x       y       z     vdW  Elec       q    Type
                         _______ _______ _______ _____ _____    ______ ____

>  <TORSDO>
F 9

$$$$
=
 OpenBabel11062414343D

 31 33  0  0  1  0  0  0  0  0999 V2000
  191.9870  175.7910  137.2460 C   0  0  0  0  0  2  0  0  0  0  0  0
  188.1470  176.6530  138.4700 N   0  0  0  0  0  0  0  0  0  0  0  0
  188.3060  176.0680  137.3250 C   0  0  0  0  0  3  0  0  0  0  0  0
  192.8650  176.7750  139.3620 C   0  0  0  0  0  2  0  0  0  0  0  0
  189.2430  177.1990  139.2250 C   0  0  0  0  0  0  0  0  0  0  0  0
  191.6740  177.7220  139.4650 C   0  0  0  0  0  2  0  0  0  0  0  0
  189.6060  175.9630  136.7480 N   0  0  0  0  0  0  0  0  0  0  0  0
  193.1840  176.4810  137.8980 C   0  0  1  0  0  3  0  0  0  0  0  0
  190.7480  176.6850  137.3000 C   0  0  0  0  0  0  0  0  0  0  0  0
  190.4950  177.1690  138.7140 C   0  0  0  0  0  0  0  0  0  0  0  0
  189.2880  177.0540  141.7350 C   0  0  0  0  0  0  0  0  0  0  0  0
  188.3020  178.9380  140.6180 O   0  0  0  0  0  1  0  0  0  0  0  0
  188.9750  177.7650  140.5250 N   0  0  0  0  0  0  0  0  0  0  0  0
  189.9240  175.9650  141.6940 O   0  0  0  0  0  0  0  0  0  0  0  0
  186.9490  177.0850  144.7320 C   0  0  0  0  0  2  0  0  0  0  0  0
  188.8250  177.5910  143.0550 C   0  0  1  0  0  3  0  0  0  0  0  0
  187.7690  178.0000  145.6410 C   0  0  2  0  0  3  0  0  0  0  0  0
  189.2770  177.7230  145.5350 C   0  0  0  0  0  2  0  0  0  0  0  0
  187.3350  177.2800  143.2610 C   0  0  0  0  0  2  0  0  0  0  0  0
  189.6880  177.0750  144.2080 C   0  0  0  0  0  2  0  0  0  0  0  0
  187.3130  177.8930  147.0580 C   0  0  0  0  0  0  0  0  0  0  0  0
  187.9980  177.0680  147.9400 O   0  0  0  0  0  1  0  0  0  0  0  0
  186.3060  178.5370  147.4580 O   0  0  0  0  0  0  0  0  0  0  0  0
  194.3050  175.6520  137.8250 O   0  0  0  0  0  0  0  0  0  0  0  0
  193.7910  174.3670  137.6430 C   0  0  0  0  0  2  0  0  0  0  0  0
  194.7900  173.3470  138.1470 C   0  0  0  0  0  2  0  0  0  0  0  0
  196.0300  174.0620  138.6500 C   0  0  0  0  0  2  0  0  0  0  0  0
  197.2740  173.4950  137.9890 C   0  0  1  0  0  3  0  0  0  0  0  0
  196.8950  172.6410  136.8740 N   0  0  0  0  0  1  0  0  0  0  0  0
  198.1230  174.6180  137.4970 C   0  0  0  0  0  3  0  0  0  0  0  0
  197.6110  175.6260  137.0380 O   0  0  0  0  0  0  0  0  0  0  0  0
  1  9  1  0  0  0  0
  1  8  1  0  0  0  0
  2  5  1  0  0  0  0
  3  2  2  0  0  0  0
  4  6  1  0  0  0  0
  5 13  1  0  0  0  0
  7  9  2  0  0  0  0
  7  3  1  0  0  0  0
  8 24  1  1  0  0  0
  8  4  1  0  0  0  0
  9 10  1  0  0  0  0
 10  5  2  0  0  0  0
 10  6  1  0  0  0  0
 13 12  1  0  0  0  0
 13 11  1  0  0  0  0
 14 11  2  0  0  0  0
 15 17  1  0  0  0  0
 16 11  1  6  0  0  0
 16 19  1  0  0  0  0
 16 20  1  0  0  0  0
 17 21  1  1  0  0  0
 18 17  1  0  0  0  0
 19 15  1  0  0  0  0
 20 18  1  0  0  0  0
 21 23  2  0  0  0  0
 21 22  1  0  0  0  0
 25 24  1  0  0  0  0
 25 26  1  0  0  0  0
 26 27  1  0  0  0  0
 28 29  1  6  0  0  0
 28 27  1  0  0  0  0
 30 28  1  0  0  0  0
 31 30  2  0  0  0  0
M  END
>  <MODEL>
4

>  <REMARK>
 VINA RESULT:      -7.1      3.728      9.999
  Name = 
  9 active torsions:
  status: ('A' for Active; 'I' for Inactive)
    1  A    between atoms: C_1  and  CA_6
    2  A    between atoms: C_2  and  C_11
    3  A    between atoms: C_3  and  CA_6
    4  A    between atoms: C_3  and  C_9
    5  A    between atoms: O_4  and  C_20
    6  A    between atoms: O_4  and  C_24
    7  A    between atoms: C_9  and  C_24
    8  A    between atoms: C_13  and  C_23
    9  A    between atoms: C_15  and  N_27
                            x       y       z     vdW  Elec       q    Type
                         _______ _______ _______ _____ _____    ______ ____

>  <TORSDO>
F 9

$$$$
=
 OpenBabel11062414343D

 31 33  0  0  1  0  0  0  0  0999 V2000
  188.8630  177.4250  145.6360 C   0  0  0  0  0  2  0  0  0  0  0  0
  185.3220  179.3650  146.4650 N   0  0  0  0  0  0  0  0  0  0  0  0
  186.0910  179.0470  147.4580 C   0  0  0  0  0  3  0  0  0  0  0  0
  188.3250  177.5180  143.2030 C   0  0  0  0  0  2  0  0  0  0  0  0
  185.5430  178.8900  145.1250 C   0  0  0  0  0  0  0  0  0  0  0  0
  186.8280  177.5040  143.4910 C   0  0  0  0  0  2  0  0  0  0  0  0
  187.2000  178.1720  147.2550 N   0  0  0  0  0  0  0  0  0  0  0  0
  189.0800  176.7470  144.2830 C   0  0  1  0  0  3  0  0  0  0  0  0
  187.3790  177.4430  146.0030 C   0  0  0  0  0  0  0  0  0  0  0  0
  186.5530  178.0250  144.8740 C   0  0  0  0  0  0  0  0  0  0  0  0
  183.2980  178.9600  143.9970 C   0  0  0  0  0  0  0  0  0  0  0  0
  185.1940  180.0960  143.0570 O   0  0  0  0  0  1  0  0  0  0  0  0
  184.6770  179.3600  144.0720 N   0  0  0  0  0  0  0  0  0  0  0  0
  182.7730  178.2860  144.9250 O   0  0  0  0  0  0  0  0  0  0  0  0
  181.7340  178.1580  140.6250 C   0  0  0  0  0  2  0  0  0  0  0  0
  182.4830  179.3160  142.7900 C   0  0  1  0  0  3  0  0  0  0  0  0
  180.8020  179.3650  140.5220 C   0  0  2  0  0  3  0  0  0  0  0  0
  180.1660  179.7250  141.8750 C   0  0  0  0  0  2  0  0  0  0  0  0
  182.8860  178.4320  141.6000 C   0  0  0  0  0  2  0  0  0  0  0  0
  180.9830  179.2460  143.0810 C   0  0  0  0  0  2  0  0  0  0  0  0
  179.7490  179.1410  139.4900 C   0  0  0  0  0  0  0  0  0  0  0  0
  179.1120  180.2300  138.9090 O   0  0  0  0  0  0  0  0  0  0  0  0
  179.4250  177.9710  139.1480 O   0  0  0  0  0  1  0  0  0  0  0  0
  190.4420  176.7310  143.9770 O   0  0  0  0  0  0  0  0  0  0  0  0
  190.4980  176.5810  142.5910 C   0  0  0  0  0  2  0  0  0  0  0  0
  191.8240  177.1050  142.0800 C   0  0  0  0  0  2  0  0  0  0  0  0
  191.6610  177.5840  140.6500 C   0  0  0  0  0  2  0  0  0  0  0  0
  190.5810  176.7850  139.9420 C   0  0  1  0  0  3  0  0  0  0  0  0
  189.5520  177.6820  139.4410 N   0  0  0  0  0  1  0  0  0  0  0  0
  191.1910  176.0340  138.8060 C   0  0  0  0  0  3  0  0  0  0  0  0
  190.5300  175.2280  138.1720 O   0  0  0  0  0  0  0  0  0  0  0  0
  1  9  1  0  0  0  0
  2  3  1  0  0  0  0
  4  6  1  0  0  0  0
  4  8  1  0  0  0  0
  5  2  2  0  0  0  0
  6 10  1  0  0  0  0
  7  3  2  0  0  0  0
  8 24  1  6  0  0  0
  8  1  1  0  0  0  0
  9  7  1  0  0  0  0
 10  5  1  0  0  0  0
 10  9  2  0  0  0  0
 11 13  1  0  0  0  0
 11 14  2  0  0  0  0
 12 13  1  0  0  0  0
 13  5  1  0  0  0  0
 15 19  1  0  0  0  0
 16 20  1  0  0  0  0
 16 11  1  1  0  0  0
 17 21  1  6  0  0  0
 17 15  1  0  0  0  0
 17 18  1  0  0  0  0
 18 20  1  0  0  0  0
 19 16  1  0  0  0  0
 22 21  2  0  0  0  0
 23 21  1  0  0  0  0
 25 24  1  0  0  0  0
 26 25  1  0  0  0  0
 27 26  1  0  0  0  0
 28 29  1  6  0  0  0
 28 27  1  0  0  0  0
 30 28  1  0  0  0  0
 31 30  2  0  0  0  0
M  END
>  <MODEL>
5

>  <REMARK>
 VINA RESULT:      -6.9      3.136      7.760
  Name = 
  9 active torsions:
  status: ('A' for Active; 'I' for Inactive)
    1  A    between atoms: C_1  and  CA_6
    2  A    between atoms: C_2  and  C_11
    3  A    between atoms: C_3  and  CA_6
    4  A    between atoms: C_3  and  C_9
    5  A    between atoms: O_4  and  C_20
    6  A    between atoms: O_4  and  C_24
    7  A    between atoms: C_9  and  C_24
    8  A    between atoms: C_13  and  C_23
    9  A    between atoms: C_15  and  N_27
                            x       y       z     vdW  Elec       q    Type
                         _______ _______ _______ _____ _____    ______ ____

>  <TORSDO>
F 9

$$$$
=
 OpenBabel11062414343D

 31 33  0  0  1  0  0  0  0  0999 V2000
  188.6570  175.8610  135.6440 C   0  0  0  0  0  2  0  0  0  0  0  0
  189.2280  178.9480  138.3150 N   0  0  0  0  0  0  0  0  0  0  0  0
  188.5890  179.2010  137.2180 C   0  0  0  0  0  3  0  0  0  0  0  0
  189.8530  174.3190  137.1960 C   0  0  0  0  0  2  0  0  0  0  0  0
  189.9220  177.7090  138.5450 C   0  0  0  0  0  0  0  0  0  0  0  0
  190.6880  175.4650  137.7580 C   0  0  0  0  0  2  0  0  0  0  0  0
  188.5710  178.2430  136.1610 N   0  0  0  0  0  0  0  0  0  0  0  0
  189.4980  174.5880  135.7360 C   0  0  1  0  0  3  0  0  0  0  0  0
  189.4310  177.0640  136.1830 C   0  0  0  0  0  0  0  0  0  0  0  0
  189.9790  176.7760  137.5670 C   0  0  0  0  0  0  0  0  0  0  0  0
  189.7660  177.4030  141.0350 C   0  0  0  0  0  0  0  0  0  0  0  0
  191.8950  177.4880  139.9270 O   0  0  0  0  0  1  0  0  0  0  0  0
  190.5430  177.4900  139.8290 N   0  0  0  0  0  0  0  0  0  0  0  0
  188.5060  177.3890  140.9890 O   0  0  0  0  0  0  0  0  0  0  0  0
  189.8300  177.7880  144.8170 C   0  0  0  0  0  2  0  0  0  0  0  0
  190.4570  177.3630  142.3650 C   0  0  1  0  0  3  0  0  0  0  0  0
  191.1790  177.1230  145.0840 C   0  0  2  0  0  3  0  0  0  0  0  0
  191.4090  175.8960  144.1860 C   0  0  0  0  0  2  0  0  0  0  0  0
  189.7310  178.2740  143.3670 C   0  0  0  0  0  2  0  0  0  0  0  0
  190.5990  175.9310  142.8840 C   0  0  0  0  0  2  0  0  0  0  0  0
  191.3180  176.7530  146.5220 C   0  0  0  0  0  0  0  0  0  0  0  0
  192.4150  176.0100  146.9390 O   0  0  0  0  0  0  0  0  0  0  0  0
  190.4430  177.1000  147.3610 O   0  0  0  0  0  1  0  0  0  0  0  0
  188.7750  173.5080  135.2260 O   0  0  0  0  0  0  0  0  0  0  0  0
  187.4430  173.9220  135.2520 C   0  0  0  0  0  2  0  0  0  0  0  0
  186.5710  172.7850  135.7420 C   0  0  0  0  0  2  0  0  0  0  0  0
  186.3740  172.9090  137.2410 C   0  0  0  0  0  2  0  0  0  0  0  0
  184.8940  172.9250  137.5820 C   0  0  1  0  0  3  0  0  0  0  0  0
  184.3340  174.2350  137.2910 N   0  0  0  0  0  1  0  0  0  0  0  0
  184.1920  171.8870  136.7720 C   0  0  0  0  0  3  0  0  0  0  0  0
  182.9860  171.7310  136.8780 O   0  0  0  0  0  0  0  0  0  0  0  0
  1  8  1  0  0  0  0
  1  9  1  0  0  0  0
  2  5  1  0  0  0  0
  3  2  2  0  0  0  0
  4  6  1  0  0  0  0
  5 13  1  0  0  0  0
  7  9  2  0  0  0  0
  7  3  1  0  0  0  0
  8 24  1  1  0  0  0
  8  4  1  0  0  0  0
  9 10  1  0  0  0  0
 10  6  1  0  0  0  0
 10  5  2  0  0  0  0
 13 12  1  0  0  0  0
 13 11  1  0  0  0  0
 14 11  2  0  0  0  0
 15 17  1  0  0  0  0
 16 11  1  6  0  0  0
 16 20  1  0  0  0  0
 16 19  1  0  0  0  0
 17 21  1  1  0  0  0
 18 17  1  0  0  0  0
 19 15  1  0  0  0  0
 20 18  1  0  0  0  0
 21 22  2  0  0  0  0
 21 23  1  0  0  0  0
 24 25  1  0  0  0  0
 25 26  1  0  0  0  0
 26 27  1  0  0  0  0
 27 28  1  0  0  0  0
 28 29  1  6  0  0  0
 30 31  2  0  0  0  0
 30 28  1  0  0  0  0
M  END
>  <MODEL>
6

>  <REMARK>
 VINA RESULT:      -6.9      4.145      8.714
  Name = 
  9 active torsions:
  status: ('A' for Active; 'I' for Inactive)
    1  A    between atoms: C_1  and  CA_6
    2  A    between atoms: C_2  and  C_11
    3  A    between atoms: C_3  and  CA_6
    4  A    between atoms: C_3  and  C_9
    5  A    between atoms: O_4  and  C_20
    6  A    between atoms: O_4  and  C_24
    7  A    between atoms: C_9  and  C_24
    8  A    between atoms: C_13  and  C_23
    9  A    between atoms: C_15  and  N_27
                            x       y       z     vdW  Elec       q    Type
                         _______ _______ _______ _____ _____    ______ ____

>  <TORSDO>
F 9

$$$$
=
 OpenBabel11062414343D

 31 33  0  0  1  0  0  0  0  0999 V2000
  190.8840  176.9200  137.1810 C   0  0  0  0  0  2  0  0  0  0  0  0
  192.0280  177.3760  141.1140 N   0  0  0  0  0  0  0  0  0  0  0  0
  192.9540  177.2090  140.2240 C   0  0  0  0  0  3  0  0  0  0  0  0
  188.4980  177.1590  137.8640 C   0  0  0  0  0  2  0  0  0  0  0  0
  190.6300  177.2000  140.8250 C   0  0  0  0  0  0  0  0  0  0  0  0
  188.7930  176.5870  139.2460 C   0  0  0  0  0  2  0  0  0  0  0  0
  192.6120  176.8110  138.8970 N   0  0  0  0  0  0  0  0  0  0  0  0
  189.4420  176.5550  136.8270 C   0  0  1  0  0  3  0  0  0  0  0  0
  191.2620  176.3710  138.5560 C   0  0  0  0  0  0  0  0  0  0  0  0
  190.2410  176.7820  139.5980 C   0  0  0  0  0  0  0  0  0  0  0  0
  189.2690  176.4790  142.8130 C   0  0  0  0  0  0  0  0  0  0  0  0
  189.0260  178.6760  141.8740 O   0  0  0  0  0  1  0  0  0  0  0  0
  189.6670  177.4810  141.8620 N   0  0  0  0  0  0  0  0  0  0  0  0
  189.8480  175.3590  142.8450 O   0  0  0  0  0  0  0  0  0  0  0  0
  187.7140  178.2440  145.8000 C   0  0  0  0  0  2  0  0  0  0  0  0
  188.1350  176.7530  143.7530 C   0  0  1  0  0  3  0  0  0  0  0  0
  186.2580  177.8520  145.5540 C   0  0  2  0  0  3  0  0  0  0  0  0
  185.8950  177.8760  144.0600 C   0  0  0  0  0  2  0  0  0  0  0  0
  188.6730  177.2780  145.0940 C   0  0  0  0  0  2  0  0  0  0  0  0
  187.1040  177.6990  143.1340 C   0  0  0  0  0  2  0  0  0  0  0  0
  185.3310  178.7220  146.3340 C   0  0  0  0  0  0  0  0  0  0  0  0
  184.0020  178.8340  145.9450 O   0  0  0  0  0  0  0  0  0  0  0  0
  185.7450  179.3650  147.3360 O   0  0  0  0  0  1  0  0  0  0  0  0
  189.1260  177.0550  135.5630 O   0  0  0  0  0  0  0  0  0  0  0  0
  188.8890  175.9260  134.7770 C   0  0  0  0  0  2  0  0  0  0  0  0
  187.4290  175.5390  134.8760 C   0  0  0  0  0  2  0  0  0  0  0  0
  187.3160  174.0420  135.0880 C   0  0  0  0  0  2  0  0  0  0  0  0
  185.9840  173.6950  135.7290 C   0  0  1  0  0  3  0  0  0  0  0  0
  185.6410  172.3110  135.4360 N   0  0  0  0  0  1  0  0  0  0  0  0
  186.0850  173.8860  137.2050 C   0  0  0  0  0  3  0  0  0  0  0  0
  185.7270  173.0030  137.9690 O   0  0  0  0  0  0  0  0  0  0  0  0
  1  9  1  0  0  0  0
  3  2  2  0  0  0  0
  4  6  1  0  0  0  0
  5  2  1  0  0  0  0
  5 13  1  0  0  0  0
  6 10  1  0  0  0  0
  7  3  1  0  0  0  0
  8 24  1  6  0  0  0
  8  1  1  0  0  0  0
  8  4  1  0  0  0  0
  9  7  2  0  0  0  0
  9 10  1  0  0  0  0
 10  5  2  0  0  0  0
 11 14  2  0  0  0  0
 13 12  1  0  0  0  0
 13 11  1  0  0  0  0
 16 11  1  6  0  0  0
 16 19  1  0  0  0  0
 17 15  1  0  0  0  0
 17 21  1  1  0  0  0
 18 17  1  0  0  0  0
 19 15  1  0  0  0  0
 20 16  1  0  0  0  0
 20 18  1  0  0  0  0
 21 23  1  0  0  0  0
 22 21  2  0  0  0  0
 25 26  1  0  0  0  0
 25 24  1  0  0  0  0
 26 27  1  0  0  0  0
 27 28  1  0  0  0  0
 28 29  1  1  0  0  0
 28 30  1  0  0  0  0
 30 31  2  0  0  0  0
M  END
>  <MODEL>
7

>  <REMARK>
 VINA RESULT:      -6.7      3.152      8.358
  Name = 
  9 active torsions:
  status: ('A' for Active; 'I' for Inactive)
    1  A    between atoms: C_1  and  CA_6
    2  A    between atoms: C_2  and  C_11
    3  A    between atoms: C_3  and  CA_6
    4  A    between atoms: C_3  and  C_9
    5  A    between atoms: O_4  and  C_20
    6  A    between atoms: O_4  and  C_24
    7  A    between atoms: C_9  and  C_24
    8  A    between atoms: C_13  and  C_23
    9  A    between atoms: C_15  and  N_27
                            x       y       z     vdW  Elec       q    Type
                         _______ _______ _______ _____ _____    ______ ____

>  <TORSDO>
F 9

$$$$
=
 OpenBabel11062414343D

 31 33  0  0  1  0  0  0  0  0999 V2000
  191.8310  177.6360  140.9720 C   0  0  0  0  0  2  0  0  0  0  0  0
  189.6920  178.5250  144.3810 N   0  0  0  0  0  0  0  0  0  0  0  0
  190.9570  178.8070  144.3630 C   0  0  0  0  0  3  0  0  0  0  0  0
  189.7510  176.7570  139.9160 C   0  0  0  0  0  2  0  0  0  0  0  0
  189.0550  177.7350  143.3620 C   0  0  0  0  0  0  0  0  0  0  0  0
  189.1760  176.3690  141.2740 C   0  0  0  0  0  2  0  0  0  0  0  0
  191.7870  178.3090  143.3150 N   0  0  0  0  0  0  0  0  0  0  0  0
  191.2740  176.6590  139.9370 C   0  0  1  0  0  3  0  0  0  0  0  0
  191.3060  177.3070  142.3690 C   0  0  0  0  0  0  0  0  0  0  0  0
  189.7940  177.1980  142.3640 C   0  0  0  0  0  0  0  0  0  0  0  0
  186.7230  178.3050  142.6180 C   0  0  0  0  0  0  0  0  0  0  0  0
  187.1110  176.7010  144.3630 O   0  0  0  0  0  1  0  0  0  0  0  0
  187.6280  177.5380  143.4290 N   0  0  0  0  0  0  0  0  0  0  0  0
  187.1610  179.0860  141.7290 O   0  0  0  0  0  0  0  0  0  0  0  0
  183.4580  179.5130  144.1470 C   0  0  0  0  0  2  0  0  0  0  0  0
  185.2450  178.2040  142.8510 C   0  0  1  0  0  3  0  0  0  0  0  0
  182.4990  178.6520  143.3270 C   0  0  2  0  0  3  0  0  0  0  0  0
  182.9440  178.5200  141.8620 C   0  0  0  0  0  2  0  0  0  0  0  0
  184.8670  178.9090  144.1630 C   0  0  0  0  0  2  0  0  0  0  0  0
  184.4490  178.7370  141.6580 C   0  0  0  0  0  2  0  0  0  0  0  0
  181.1050  179.1790  143.4070 C   0  0  0  0  0  0  0  0  0  0  0  0
  180.2030  178.6070  144.2940 O   0  0  0  0  0  1  0  0  0  0  0  0
  180.7370  180.1310  142.6670 O   0  0  0  0  0  0  0  0  0  0  0  0
  191.7780  176.9720  138.6740 O   0  0  0  0  0  0  0  0  0  0  0  0
  191.3660  175.9230  137.8510 C   0  0  0  0  0  2  0  0  0  0  0  0
  190.9570  176.4720  136.5000 C   0  0  0  0  0  2  0  0  0  0  0  0
  189.4600  176.3090  136.3210 C   0  0  0  0  0  2  0  0  0  0  0  0
  188.8310  177.6200  135.8810 C   0  0  1  0  0  3  0  0  0  0  0  0
  187.3910  177.4590  135.7550 N   0  0  0  0  0  1  0  0  0  0  0  0
  189.1320  178.6730  136.8950 C   0  0  0  0  0  3  0  0  0  0  0  0
  188.2710  179.4670  137.2350 O   0  0  0  0  0  0  0  0  0  0  0  0
  1  9  1  0  0  0  0
  3  2  1  0  0  0  0
  4  8  1  0  0  0  0
  4  6  1  0  0  0  0
  5 13  1  0  0  0  0
  5  2  2  0  0  0  0
  6 10  1  0  0  0  0
  7  3  2  0  0  0  0
  8 24  1  6  0  0  0
  8  1  1  0  0  0  0
  9  7  1  0  0  0  0
 10  9  2  0  0  0  0
 10  5  1  0  0  0  0
 11 13  1  0  0  0  0
 13 12  1  0  0  0  0
 14 11  2  0  0  0  0
 15 19  1  0  0  0  0
 16 11  1  6  0  0  0
 16 19  1  0  0  0  0
 17 21  1  6  0  0  0
 17 15  1  0  0  0  0
 18 17  1  0  0  0  0
 20 18  1  0  0  0  0
 20 16  1  0  0  0  0
 21 22  1  0  0  0  0
 23 21  2  0  0  0  0
 25 24  1  0  0  0  0
 26 25  1  0  0  0  0
 27 26  1  0  0  0  0
 28 29  1  1  0  0  0
 28 27  1  0  0  0  0
 28 30  1  0  0  0  0
 30 31  2  0  0  0  0
M  END
>  <MODEL>
8

>  <REMARK>
 VINA RESULT:      -6.6      2.681      7.729
  Name = 
  9 active torsions:
  status: ('A' for Active; 'I' for Inactive)
    1  A    between atoms: C_1  and  CA_6
    2  A    between atoms: C_2  and  C_11
    3  A    between atoms: C_3  and  CA_6
    4  A    between atoms: C_3  and  C_9
    5  A    between atoms: O_4  and  C_20
    6  A    between atoms: O_4  and  C_24
    7  A    between atoms: C_9  and  C_24
    8  A    between atoms: C_13  and  C_23
    9  A    between atoms: C_15  and  N_27
                            x       y       z     vdW  Elec       q    Type
                         _______ _______ _______ _____ _____    ______ ____

>  <TORSDO>
F 9

$$$$
=
 OpenBabel11062414343D

 31 33  0  0  1  0  0  0  0  0999 V2000
  192.0550  177.6350  141.0690 C   0  0  0  0  0  2  0  0  0  0  0  0
  189.7840  178.3850  144.4250 N   0  0  0  0  0  0  0  0  0  0  0  0
  191.0490  178.6570  144.4720 C   0  0  0  0  0  3  0  0  0  0  0  0
  190.0140  176.8230  139.8890 C   0  0  0  0  0  2  0  0  0  0  0  0
  189.1840  177.6470  143.3460 C   0  0  0  0  0  0  0  0  0  0  0  0
  189.3810  176.3770  141.2030 C   0  0  0  0  0  2  0  0  0  0  0  0
  191.9190  178.2000  143.4370 N   0  0  0  0  0  0  0  0  0  0  0  0
  191.5350  176.7110  139.9680 C   0  0  1  0  0  3  0  0  0  0  0  0
  191.4710  177.2470  142.4270 C   0  0  0  0  0  0  0  0  0  0  0  0
  189.9600  177.1510  142.3550 C   0  0  0  0  0  0  0  0  0  0  0  0
  186.8860  178.2800  142.5450 C   0  0  0  0  0  0  0  0  0  0  0  0
  187.1950  176.5750  144.2080 O   0  0  0  0  0  1  0  0  0  0  0  0
  187.7540  177.4590  143.3460 N   0  0  0  0  0  0  0  0  0  0  0  0
  187.3640  179.1060  141.7200 O   0  0  0  0  0  0  0  0  0  0  0  0
  183.5810  179.3840  144.0650 C   0  0  0  0  0  2  0  0  0  0  0  0
  185.4000  178.1790  142.7130 C   0  0  1  0  0  3  0  0  0  0  0  0
  182.6430  178.6190  143.1310 C   0  0  2  0  0  3  0  0  0  0  0  0
  183.1420  178.6220  141.6770 C   0  0  0  0  0  2  0  0  0  0  0  0
  184.9810  178.7600  144.0730 C   0  0  0  0  0  2  0  0  0  0  0  0
  184.6550  178.8350  141.5500 C   0  0  0  0  0  2  0  0  0  0  0  0
  181.2540  179.1570  143.2110 C   0  0  0  0  0  0  0  0  0  0  0  0
  180.3400  178.5740  144.0790 O   0  0  0  0  0  1  0  0  0  0  0  0
  180.8990  180.1280  142.4890 O   0  0  0  0  0  0  0  0  0  0  0  0
  192.0920  177.0780  138.7420 O   0  0  0  0  0  0  0  0  0  0  0  0
  191.5400  176.1920  137.8150 C   0  0  0  0  0  2  0  0  0  0  0  0
  192.5120  175.0590  137.5590 C   0  0  0  0  0  2  0  0  0  0  0  0
  193.8090  175.6220  137.0110 C   0  0  0  0  0  2  0  0  0  0  0  0
  194.9500  174.6470  137.2420 C   0  0  1  0  0  3  0  0  0  0  0  0
  196.2080  175.2530  136.8320 N   0  0  0  0  0  1  0  0  0  0  0  0
  195.0110  174.2960  138.6910 C   0  0  0  0  0  3  0  0  0  0  0  0
  195.8080  173.4640  139.0930 O   0  0  0  0  0  0  0  0  0  0  0  0
  1  9  1  0  0  0  0
  2  3  1  0  0  0  0
  4  8  1  0  0  0  0
  4  6  1  0  0  0  0
  5  2  2  0  0  0  0
  6 10  1  0  0  0  0
  7  3  2  0  0  0  0
  8 24  1  6  0  0  0
  8  1  1  0  0  0  0
  9  7  1  0  0  0  0
 10  9  2  0  0  0  0
 10  5  1  0  0  0  0
 11 13  1  0  0  0  0
 13  5  1  0  0  0  0
 13 12  1  0  0  0  0
 14 11  2  0  0  0  0
 15 19  1  0  0  0  0
 16 11  1  6  0  0  0
 16 19  1  0  0  0  0
 17 21  1  6  0  0  0
 17 15  1  0  0  0  0
 18 17  1  0  0  0  0
 20 18  1  0  0  0  0
 20 16  1  0  0  0  0
 21 22  1  0  0  0  0
 23 21  2  0  0  0  0
 25 24  1  0  0  0  0
 26 25  1  0  0  0  0
 27 28  1  0  0  0  0
 27 26  1  0  0  0  0
 28 29  1  1  0  0  0
 28 30  1  0  0  0  0
 30 31  2  0  0  0  0
M  END
>  <MODEL>
9

>  <REMARK>
 VINA RESULT:      -6.6      3.112      8.693
  Name = 
  9 active torsions:
  status: ('A' for Active; 'I' for Inactive)
    1  A    between atoms: C_1  and  CA_6
    2  A    between atoms: C_2  and  C_11
    3  A    between atoms: C_3  and  CA_6
    4  A    between atoms: C_3  and  C_9
    5  A    between atoms: O_4  and  C_20
    6  A    between atoms: O_4  and  C_24
    7  A    between atoms: C_9  and  C_24
    8  A    between atoms: C_13  and  C_23
    9  A    between atoms: C_15  and  N_27
                            x       y       z     vdW  Elec       q    Type
                         _______ _______ _______ _____ _____    ______ ____

>  <TORSDO>
F 9

$$$$
