=
 OpenBabel11062416353D

 29 33  0  0  1  0  0  0  0  0999 V2000
  188.3140  177.2090  144.6140 N   0  0  0  0  0  2  0  0  0  0  0  0
  187.8520  177.7390  147.6050 C   0  0  0  0  0  2  0  0  0  0  0  0
  189.0310  176.8090  147.3490 C   0  0  0  0  0  2  0  0  0  0  0  0
  186.8040  177.6070  146.5070 C   0  0  0  0  0  2  0  0  0  0  0  0
  189.6470  177.6530  145.0160 C   0  0  2  0  0  0  0  0  0  0  0  0
  187.3300  178.1300  145.1760 C   0  0  2  0  0  3  0  0  0  0  0  0
  190.5320  176.4930  145.4040 C   0  0  0  0  0  2  0  0  0  0  0  0
  190.0810  177.4830  146.4700 C   0  0  2  0  0  3  0  0  0  0  0  0
  184.0820  178.7710  142.4410 C   0  0  0  0  0  3  0  0  0  0  0  0
  182.4540  178.7620  144.3360 C   0  0  0  0  0  1  0  0  0  0  0  0
  186.2120  178.3560  144.2110 C   0  0  0  0  0  0  0  0  0  0  0  0
  184.9050  178.4540  144.6960 C   0  0  0  0  0  3  0  0  0  0  0  0
  185.3890  178.6820  141.9490 C   0  0  0  0  0  0  0  0  0  0  0  0
  183.8410  178.6610  143.8140 C   0  0  0  0  0  0  0  0  0  0  0  0
  186.4530  178.4640  142.8330 C   0  0  0  0  0  3  0  0  0  0  0  0
  185.6440  178.7730  140.4820 C   0  0  0  0  0  0  0  0  0  0  0  0
  184.6380  178.3310  139.6610 O   0  0  0  0  0  0  0  0  0  0  0  0
  186.9250  178.6090  139.9580 O   0  0  0  0  0  1  0  0  0  0  0  0
  184.8600  179.6560  139.7830 O   0  0  0  0  0  0  0  0  0  0  0  0
  190.5230  178.8470  143.9510 S   0  0  0  0  0  0  0  0  0  0  0  0
  190.9520  177.6170  142.6850 C   0  0  0  0  0  2  0  0  0  0  0  0
  189.9360  177.6480  141.5580 C   0  0  0  0  0  2  0  0  0  0  0  0
  190.2540  176.5840  140.5170 C   0  0  0  0  0  2  0  0  0  0  0  0
  190.9500  177.1810  139.3010 C   0  0  1  0  0  3  0  0  0  0  0  0
  191.3580  176.0800  138.3350 C   0  0  1  0  0  3  0  0  0  0  0  0
  190.3250  176.5650  137.3360 C   0  0  0  0  0  2  0  0  0  0  0  0
  189.9090  177.6580  138.3050 C   0  0  0  0  0  2  0  0  0  0  0  0
  192.7540  176.2870  137.8210 C   0  0  0  0  0  3  0  0  0  0  0  0
  193.5850  176.9160  138.4590 O   0  0  0  0  0  0  0  0  0  0  0  0
  1  5  1  0  0  0  0
  1  6  1  0  0  0  0
  3  2  1  0  0  0  0
  4  2  1  0  0  0  0
  5 20  1  6  0  0  0
  5  7  1  0  0  0  0
  5  8  1  0  0  0  0
  6 11  1  6  0  0  0
  6  4  1  0  0  0  0
  8  7  1  6  0  0  0
  8  3  1  0  0  0  0
  9 14  1  0  0  0  0
 11 12  1  0  0  0  0
 13  9  2  0  0  0  0
 13 15  1  0  0  0  0
 14 10  1  0  0  0  0
 14 12  2  0  0  0  0
 15 11  2  0  0  0  0
 16 13  1  0  0  0  0
 17 19  1  0  0  0  0
 17 16  1  0  0  0  0
 18 16  1  0  0  0  0
 19 16  1  0  0  0  0
 21 20  1  0  0  0  0
 22 21  1  0  0  0  0
 23 22  1  0  0  0  0
 24 23  1  1  0  0  0
 25 28  1  6  0  0  0
 25 24  1  0  0  0  0
 26 27  1  0  0  0  0
 26 25  1  0  0  0  0
 27 24  1  0  0  0  0
 28 29  2  0  0  0  0
M  END
>  <MODEL>
1

>  <REMARK>
 VINA RESULT:      -8.8      0.000      0.000
  Name = 
  8 active torsions:
  status: ('A' for Active; 'I' for Inactive)
    1  A    between atoms: C_5  and  C_15
    2  A    between atoms: C_5  and  C_20
    3  A    between atoms: C_7  and  C_13
    4  A    between atoms: C_8  and  C_21
    5  A    between atoms: S_9  and  C_11
    6  A    between atoms: S_9  and  C_15
    7  A    between atoms: C_12  and  C_20
    8  A    between atoms: C_16  and  C_17
                            x       y       z     vdW  Elec       q    Type
                         _______ _______ _______ _____ _____    ______ ____

>  <TORSDO>
F 8

$$$$
=
 OpenBabel11062416353D

 29 33  0  0  1  0  0  0  0  0999 V2000
  187.2890  177.3100  144.4900 N   0  0  0  0  0  2  0  0  0  0  0  0
  186.9720  178.4000  147.3460 C   0  0  0  0  0  2  0  0  0  0  0  0
  188.0830  177.3640  147.2330 C   0  0  0  0  0  2  0  0  0  0  0  0
  185.8780  178.1400  146.3180 C   0  0  0  0  0  2  0  0  0  0  0  0
  188.6600  177.7320  144.7700 C   0  0  2  0  0  0  0  0  0  0  0  0
  186.3830  178.3790  144.9000 C   0  0  2  0  0  3  0  0  0  0  0  0
  189.4890  176.6050  145.3400 C   0  0  0  0  0  2  0  0  0  0  0  0
  189.1380  177.7980  146.2190 C   0  0  2  0  0  3  0  0  0  0  0  0
  183.0790  178.7200  142.1790 C   0  0  0  0  0  3  0  0  0  0  0  0
  181.4820  178.8400  144.0960 C   0  0  0  0  0  1  0  0  0  0  0  0
  185.2460  178.5000  143.9390 C   0  0  0  0  0  0  0  0  0  0  0  0
  183.9450  178.6130  144.4380 C   0  0  0  0  0  3  0  0  0  0  0  0
  184.3800  178.6140  141.6730 C   0  0  0  0  0  0  0  0  0  0  0  0
  182.8630  178.7230  143.5600 C   0  0  0  0  0  0  0  0  0  0  0  0
  185.4620  178.4940  142.5540 C   0  0  0  0  0  3  0  0  0  0  0  0
  184.6090  178.5850  140.1990 C   0  0  0  0  0  0  0  0  0  0  0  0
  184.8730  179.7910  139.6000 O   0  0  0  0  0  0  0  0  0  0  0  0
  183.9440  177.6720  139.3810 O   0  0  0  0  0  1  0  0  0  0  0  0
  185.8740  178.9020  139.7740 O   0  0  0  0  0  0  0  0  0  0  0  0
  189.5660  178.6530  143.4820 S   0  0  0  0  0  0  0  0  0  0  0  0
  190.4880  177.2040  142.8940 C   0  0  0  0  0  2  0  0  0  0  0  0
  189.7790  176.5770  141.7070 C   0  0  0  0  0  2  0  0  0  0  0  0
  189.1680  177.6490  140.8170 C   0  0  0  0  0  2  0  0  0  0  0  0
  189.8240  177.6760  139.4420 C   0  0  1  0  0  3  0  0  0  0  0  0
  189.2190  176.6030  138.5490 C   0  0  1  0  0  3  0  0  0  0  0  0
  188.5730  177.6750  137.6910 C   0  0  0  0  0  2  0  0  0  0  0  0
  189.1680  178.7460  138.5880 C   0  0  0  0  0  2  0  0  0  0  0  0
  190.2770  175.8580  137.7890 C   0  0  0  0  0  3  0  0  0  0  0  0
  190.9870  175.0230  138.3290 O   0  0  0  0  0  0  0  0  0  0  0  0
  1  5  1  0  0  0  0
  1  6  1  0  0  0  0
  3  2  1  0  0  0  0
  4  2  1  0  0  0  0
  5 20  1  6  0  0  0
  5  7  1  0  0  0  0
  5  8  1  0  0  0  0
  6 11  1  6  0  0  0
  6  4  1  0  0  0  0
  8  7  1  6  0  0  0
  8  3  1  0  0  0  0
  9 14  1  0  0  0  0
 11 12  1  0  0  0  0
 13  9  2  0  0  0  0
 13 15  1  0  0  0  0
 14 10  1  0  0  0  0
 14 12  2  0  0  0  0
 15 11  2  0  0  0  0
 16 13  1  0  0  0  0
 17 19  1  0  0  0  0
 17 16  1  0  0  0  0
 18 16  1  0  0  0  0
 19 16  1  0  0  0  0
 21 20  1  0  0  0  0
 22 21  1  0  0  0  0
 23 22  1  0  0  0  0
 24 23  1  1  0  0  0
 25 28  1  6  0  0  0
 25 24  1  0  0  0  0
 26 25  1  0  0  0  0
 26 27  1  0  0  0  0
 27 24  1  0  0  0  0
 28 29  2  0  0  0  0
M  END
>  <MODEL>
2

>  <REMARK>
 VINA RESULT:      -8.8      1.206      1.508
  Name = 
  8 active torsions:
  status: ('A' for Active; 'I' for Inactive)
    1  A    between atoms: C_5  and  C_15
    2  A    between atoms: C_5  and  C_20
    3  A    between atoms: C_7  and  C_13
    4  A    between atoms: C_8  and  C_21
    5  A    between atoms: S_9  and  C_11
    6  A    between atoms: S_9  and  C_15
    7  A    between atoms: C_12  and  C_20
    8  A    between atoms: C_16  and  C_17
                            x       y       z     vdW  Elec       q    Type
                         _______ _______ _______ _____ _____    ______ ____

>  <TORSDO>
F 8

$$$$
=
 OpenBabel11062416353D

 29 33  0  0  1  0  0  0  0  0999 V2000
  189.0460  176.9680  144.4810 N   0  0  0  0  0  2  0  0  0  0  0  0
  189.0830  177.4870  147.5090 C   0  0  0  0  0  2  0  0  0  0  0  0
  190.1560  176.5000  147.0700 C   0  0  0  0  0  2  0  0  0  0  0  0
  187.8720  177.4220  146.5870 C   0  0  0  0  0  2  0  0  0  0  0  0
  190.4470  177.3370  144.6730 C   0  0  2  0  0  0  0  0  0  0  0  0
  188.2120  177.9320  145.1920 C   0  0  2  0  0  3  0  0  0  0  0  0
  191.3190  176.1280  144.9150 C   0  0  0  0  0  2  0  0  0  0  0  0
  191.0920  177.1280  146.0410 C   0  0  2  0  0  3  0  0  0  0  0  0
  184.6180  178.7720  142.9960 C   0  0  0  0  0  3  0  0  0  0  0  0
  183.3010  178.8020  145.1190 C   0  0  0  0  0  1  0  0  0  0  0  0
  186.9720  178.2270  144.4120 C   0  0  0  0  0  0  0  0  0  0  0  0
  185.7610  178.3750  145.0940 C   0  0  0  0  0  3  0  0  0  0  0  0
  185.8290  178.6320  142.3080 C   0  0  0  0  0  0  0  0  0  0  0  0
  184.5850  178.6480  144.3880 C   0  0  0  0  0  0  0  0  0  0  0  0
  187.0030  178.3490  143.0160 C   0  0  0  0  0  3  0  0  0  0  0  0
  185.8600  178.7380  140.8200 C   0  0  0  0  0  0  0  0  0  0  0  0
  184.7340  178.3200  140.1560 O   0  0  0  0  0  0  0  0  0  0  0  0
  187.0450  178.5640  140.1070 O   0  0  0  0  0  1  0  0  0  0  0  0
  184.9930  179.6410  140.2570 O   0  0  0  0  0  0  0  0  0  0  0  0
  191.2100  178.4950  143.4880 S   0  0  0  0  0  0  0  0  0  0  0  0
  191.4880  177.2310  142.2140 C   0  0  0  0  0  2  0  0  0  0  0  0
  190.3970  177.2970  141.1620 C   0  0  0  0  0  2  0  0  0  0  0  0
  190.9360  176.8860  139.7990 C   0  0  0  0  0  2  0  0  0  0  0  0
  189.8220  176.7670  138.7690 C   0  0  1  0  0  3  0  0  0  0  0  0
  190.1010  177.6780  137.5830 C   0  0  1  0  0  3  0  0  0  0  0  0
  190.3410  176.4670  136.7020 C   0  0  0  0  0  2  0  0  0  0  0  0
  190.0740  175.5570  137.8870 C   0  0  0  0  0  2  0  0  0  0  0  0
  188.8690  178.4260  137.1610 C   0  0  0  0  0  3  0  0  0  0  0  0
  188.7590  179.6300  137.3340 O   0  0  0  0  0  0  0  0  0  0  0  0
  1  5  1  0  0  0  0
  1  6  1  0  0  0  0
  3  2  1  0  0  0  0
  4  2  1  0  0  0  0
  5 20  1  6  0  0  0
  5  7  1  0  0  0  0
  5  8  1  0  0  0  0
  6 11  1  6  0  0  0
  6  4  1  0  0  0  0
  8  7  1  6  0  0  0
  8  3  1  0  0  0  0
  9 14  1  0  0  0  0
 11 12  1  0  0  0  0
 13  9  2  0  0  0  0
 13 15  1  0  0  0  0
 14 12  2  0  0  0  0
 14 10  1  0  0  0  0
 15 11  2  0  0  0  0
 16 13  1  0  0  0  0
 17 19  1  0  0  0  0
 17 16  1  0  0  0  0
 18 16  1  0  0  0  0
 19 16  1  0  0  0  0
 21 20  1  0  0  0  0
 22 21  1  0  0  0  0
 23 22  1  0  0  0  0
 24 23  1  1  0  0  0
 25 28  1  6  0  0  0
 25 24  1  0  0  0  0
 26 25  1  0  0  0  0
 26 27  1  0  0  0  0
 27 24  1  0  0  0  0
 28 29  2  0  0  0  0
M  END
>  <MODEL>
3

>  <REMARK>
 VINA RESULT:      -8.8      1.411      1.672
  Name = 
  8 active torsions:
  status: ('A' for Active; 'I' for Inactive)
    1  A    between atoms: C_5  and  C_15
    2  A    between atoms: C_5  and  C_20
    3  A    between atoms: C_7  and  C_13
    4  A    between atoms: C_8  and  C_21
    5  A    between atoms: S_9  and  C_11
    6  A    between atoms: S_9  and  C_15
    7  A    between atoms: C_12  and  C_20
    8  A    between atoms: C_16  and  C_17
                            x       y       z     vdW  Elec       q    Type
                         _______ _______ _______ _____ _____    ______ ____

>  <TORSDO>
F 8

$$$$
=
 OpenBabel11062416353D

 29 33  0  0  1  0  0  0  0  0999 V2000
  186.8750  177.3610  144.7100 N   0  0  0  0  0  2  0  0  0  0  0  0
  186.5860  178.8900  147.3590 C   0  0  0  0  0  2  0  0  0  0  0  0
  187.6090  177.7650  147.4390 C   0  0  0  0  0  2  0  0  0  0  0  0
  185.4970  178.5660  146.3440 C   0  0  0  0  0  2  0  0  0  0  0  0
  188.2700  177.7100  144.9710 C   0  0  2  0  0  0  0  0  0  0  0  0
  186.0530  178.5480  144.9250 C   0  0  2  0  0  3  0  0  0  0  0  0
  188.9890  176.6200  145.7300 C   0  0  0  0  0  2  0  0  0  0  0  0
  188.7190  177.9560  146.4090 C   0  0  2  0  0  3  0  0  0  0  0  0
  182.8490  178.7240  142.0700 C   0  0  0  0  0  3  0  0  0  0  0  0
  181.1730  178.7990  143.9210 C   0  0  0  0  0  1  0  0  0  0  0  0
  184.9510  178.6110  143.9180 C   0  0  0  0  0  0  0  0  0  0  0  0
  183.6270  178.6760  144.3630 C   0  0  0  0  0  3  0  0  0  0  0  0
  184.1730  178.6670  141.6180 C   0  0  0  0  0  0  0  0  0  0  0  0
  182.5780  178.7320  143.4420 C   0  0  0  0  0  0  0  0  0  0  0  0
  185.2220  178.6010  142.5420 C   0  0  0  0  0  3  0  0  0  0  0  0
  184.4620  178.6330  140.1550 C   0  0  0  0  0  0  0  0  0  0  0  0
  184.7190  179.8400  139.5560 O   0  0  0  0  0  0  0  0  0  0  0  0
  183.8550  177.6960  139.3190 O   0  0  0  0  0  1  0  0  0  0  0  0
  185.7350  178.9800  139.7780 O   0  0  0  0  0  0  0  0  0  0  0  0
  189.2770  178.3530  143.5930 S   0  0  0  0  0  0  0  0  0  0  0  0
  189.4020  176.7490  142.7490 C   0  0  0  0  0  2  0  0  0  0  0  0
  189.9540  176.9350  141.3480 C   0  0  0  0  0  2  0  0  0  0  0  0
  189.0740  177.8800  140.5430 C   0  0  0  0  0  2  0  0  0  0  0  0
  188.7440  177.3060  139.1710 C   0  0  1  0  0  3  0  0  0  0  0  0
  189.1250  178.2960  138.0810 C   0  0  1  0  0  3  0  0  0  0  0  0
  190.2400  177.3740  137.6260 C   0  0  0  0  0  2  0  0  0  0  0  0
  189.8680  176.3900  138.7210 C   0  0  0  0  0  2  0  0  0  0  0  0
  188.0500  178.4090  137.0390 C   0  0  0  0  0  3  0  0  0  0  0  0
  187.4190  179.4430  136.8780 O   0  0  0  0  0  0  0  0  0  0  0  0
  1  6  1  0  0  0  0
  1  5  1  0  0  0  0
  2  3  1  0  0  0  0
  4  2  1  0  0  0  0
  5 20  1  6  0  0  0
  5  7  1  0  0  0  0
  5  8  1  0  0  0  0
  6 11  1  6  0  0  0
  6  4  1  0  0  0  0
  8  7  1  1  0  0  0
  8  3  1  0  0  0  0
  9 14  1  0  0  0  0
 11 12  1  0  0  0  0
 13  9  2  0  0  0  0
 13 15  1  0  0  0  0
 14 10  1  0  0  0  0
 14 12  2  0  0  0  0
 15 11  2  0  0  0  0
 16 13  1  0  0  0  0
 17 19  1  0  0  0  0
 17 16  1  0  0  0  0
 18 16  1  0  0  0  0
 19 16  1  0  0  0  0
 21 20  1  0  0  0  0
 22 21  1  0  0  0  0
 23 22  1  0  0  0  0
 24 23  1  1  0  0  0
 25 28  1  6  0  0  0
 25 24  1  0  0  0  0
 26 25  1  0  0  0  0
 26 27  1  0  0  0  0
 27 24  1  0  0  0  0
 29 28  2  0  0  0  0
M  END
>  <MODEL>
4

>  <REMARK>
 VINA RESULT:      -8.7      1.762      2.251
  Name = 
  8 active torsions:
  status: ('A' for Active; 'I' for Inactive)
    1  A    between atoms: C_5  and  C_15
    2  A    between atoms: C_5  and  C_20
    3  A    between atoms: C_7  and  C_13
    4  A    between atoms: C_8  and  C_21
    5  A    between atoms: S_9  and  C_11
    6  A    between atoms: S_9  and  C_15
    7  A    between atoms: C_12  and  C_20
    8  A    between atoms: C_16  and  C_17
                            x       y       z     vdW  Elec       q    Type
                         _______ _______ _______ _____ _____    ______ ____

>  <TORSDO>
F 8

$$$$
=
 OpenBabel11062416353D

 29 33  0  0  1  0  0  0  0  0999 V2000
  186.9730  178.8950  141.4510 N   0  0  0  0  0  2  0  0  0  0  0  0
  185.7400  178.0130  138.7780 C   0  0  0  0  0  2  0  0  0  0  0  0
  187.1400  178.5900  138.6170 C   0  0  0  0  0  2  0  0  0  0  0  0
  185.0300  178.6320  139.9760 C   0  0  0  0  0  2  0  0  0  0  0  0
  188.0280  178.0200  140.9450 C   0  0  2  0  0  0  0  0  0  0  0  0
  185.6910  178.2170  141.2850 C   0  0  2  0  0  3  0  0  0  0  0  0
  189.0670  178.7880  140.1620 C   0  0  0  0  0  2  0  0  0  0  0  0
  188.1570  177.8030  139.4390 C   0  0  2  0  0  3  0  0  0  0  0  0
  183.1600  179.0120  144.6620 C   0  0  0  0  0  3  0  0  0  0  0  0
  185.1430  179.0010  146.1810 C   0  0  0  0  0  1  0  0  0  0  0  0
  184.7960  178.4970  142.4480 C   0  0  0  0  0  0  0  0  0  0  0  0
  185.3570  178.6180  143.7230 C   0  0  0  0  0  3  0  0  0  0  0  0
  182.5920  178.8990  143.3870 C   0  0  0  0  0  0  0  0  0  0  0  0
  184.5410  178.8760  144.8280 C   0  0  0  0  0  0  0  0  0  0  0  0
  183.4100  178.6320  142.2820 C   0  0  0  0  0  3  0  0  0  0  0  0
  181.1160  179.0200  143.2130 C   0  0  0  0  0  0  0  0  0  0  0  0
  180.6410  180.2640  142.8840 O   0  0  0  0  0  0  0  0  0  0  0  0
  180.2330  178.2510  143.9700 O   0  0  0  0  0  1  0  0  0  0  0  0
  180.6740  179.2970  141.9440 O   0  0  0  0  0  0  0  0  0  0  0  0
  188.7930  176.8270  142.0940 S   0  0  0  0  0  0  0  0  0  0  0  0
  190.0860  177.9750  142.6500 C   0  0  0  0  0  2  0  0  0  0  0  0
  189.9590  178.2260  144.1410 C   0  0  0  0  0  2  0  0  0  0  0  0
  188.6920  177.5840  144.6900 C   0  0  0  0  0  2  0  0  0  0  0  0
  188.9610  176.8350  145.9870 C   0  0  1  0  0  3  0  0  0  0  0  0
  190.1200  177.4750  146.7350 C   0  0  1  0  0  3  0  0  0  0  0  0
  189.1670  177.9530  147.8140 C   0  0  0  0  0  2  0  0  0  0  0  0
  188.0080  177.3240  147.0630 C   0  0  0  0  0  2  0  0  0  0  0  0
  191.0720  176.4420  147.2660 C   0  0  0  0  0  3  0  0  0  0  0  0
  192.0560  176.7520  147.9220 O   0  0  0  0  0  0  0  0  0  0  0  0
  2  4  1  0  0  0  0
  3  2  1  0  0  0  0
  4  6  1  0  0  0  0
  5  1  1  0  0  0  0
  5 20  1  1  0  0  0
  6  1  1  0  0  0  0
  6 11  1  1  0  0  0
  7  5  1  0  0  0  0
  8  3  1  6  0  0  0
  8  7  1  0  0  0  0
  8  5  1  0  0  0  0
  9 14  1  0  0  0  0
 11 12  1  0  0  0  0
 12 14  2  0  0  0  0
 13  9  2  0  0  0  0
 14 10  1  0  0  0  0
 15 11  2  0  0  0  0
 15 13  1  0  0  0  0
 16 13  1  0  0  0  0
 16 18  1  0  0  0  0
 17 16  1  0  0  0  0
 19 17  1  0  0  0  0
 19 16  1  0  0  0  0
 20 21  1  0  0  0  0
 21 22  1  0  0  0  0
 22 23  1  0  0  0  0
 24 23  1  6  0  0  0
 24 25  1  0  0  0  0
 24 27  1  0  0  0  0
 25 28  1  1  0  0  0
 25 26  1  0  0  0  0
 27 26  1  0  0  0  0
 28 29  2  0  0  0  0
M  END
>  <MODEL>
5

>  <REMARK>
 VINA RESULT:      -8.5      3.175      6.095
  Name = 
  8 active torsions:
  status: ('A' for Active; 'I' for Inactive)
    1  A    between atoms: C_5  and  C_15
    2  A    between atoms: C_5  and  C_20
    3  A    between atoms: C_7  and  C_13
    4  A    between atoms: C_8  and  C_21
    5  A    between atoms: S_9  and  C_11
    6  A    between atoms: S_9  and  C_15
    7  A    between atoms: C_12  and  C_20
    8  A    between atoms: C_16  and  C_17
                            x       y       z     vdW  Elec       q    Type
                         _______ _______ _______ _____ _____    ______ ____

>  <TORSDO>
F 8

$$$$
=
 OpenBabel11062416353D

 29 33  0  0  1  0  0  0  0  0999 V2000
  189.4780  176.4200  144.2680 N   0  0  0  0  0  2  0  0  0  0  0  0
  190.6260  177.1870  147.0130 C   0  0  0  0  0  2  0  0  0  0  0  0
  191.4160  176.0760  146.3360 C   0  0  0  0  0  2  0  0  0  0  0  0
  189.1630  177.1520  146.5890 C   0  0  0  0  0  2  0  0  0  0  0  0
  190.8710  176.6800  143.9130 C   0  0  2  0  0  0  0  0  0  0  0  0
  189.0060  177.5110  145.1160 C   0  0  2  0  0  3  0  0  0  0  0  0
  191.7070  175.4230  143.9640 C   0  0  0  0  0  2  0  0  0  0  0  0
  191.9520  176.5300  144.9800 C   0  0  2  0  0  3  0  0  0  0  0  0
  184.9110  178.4690  144.2470 C   0  0  0  0  0  3  0  0  0  0  0  0
  184.3680  178.4660  146.6850 C   0  0  0  0  0  1  0  0  0  0  0  0
  187.5860  177.8470  144.7960 C   0  0  0  0  0  0  0  0  0  0  0  0
  186.6710  177.9980  145.8420 C   0  0  0  0  0  3  0  0  0  0  0  0
  185.8230  178.3270  143.1950 C   0  0  0  0  0  0  0  0  0  0  0  0
  185.3360  178.3090  145.5690 C   0  0  0  0  0  0  0  0  0  0  0  0
  187.1580  178.0050  143.4700 C   0  0  0  0  0  3  0  0  0  0  0  0
  185.3650  178.4720  141.7830 C   0  0  0  0  0  0  0  0  0  0  0  0
  185.6260  179.6760  141.1790 O   0  0  0  0  0  0  0  0  0  0  0  0
  184.2060  177.8430  141.3290 O   0  0  0  0  0  1  0  0  0  0  0  0
  186.3480  178.5900  140.8330 O   0  0  0  0  0  0  0  0  0  0  0  0
  191.2180  177.6620  142.4150 S   0  0  0  0  0  0  0  0  0  0  0  0
  189.9120  176.8770  141.4260 C   0  0  0  0  0  2  0  0  0  0  0  0
  190.3170  176.8320  139.9640 C   0  0  0  0  0  2  0  0  0  0  0  0
  189.7420  178.0220  139.2100 C   0  0  0  0  0  2  0  0  0  0  0  0
  189.3150  177.6380  137.8000 C   0  0  1  0  0  3  0  0  0  0  0  0
  187.8750  177.1470  137.8020 C   0  0  1  0  0  3  0  0  0  0  0  0
  187.4460  178.3850  137.0370 C   0  0  0  0  0  2  0  0  0  0  0  0
  188.8810  178.8810  137.0440 C   0  0  0  0  0  2  0  0  0  0  0  0
  187.7130  175.9080  136.9690 C   0  0  0  0  0  3  0  0  0  0  0  0
  188.4280  174.9300  137.1300 O   0  0  0  0  0  0  0  0  0  0  0  0
  1  6  1  0  0  0  0
  3  2  1  0  0  0  0
  4  2  1  0  0  0  0
  5 20  1  6  0  0  0
  5  7  1  0  0  0  0
  5  1  1  0  0  0  0
  5  8  1  0  0  0  0
  6 11  1  1  0  0  0
  6  4  1  0  0  0  0
  8  7  1  6  0  0  0
  8  3  1  0  0  0  0
  9 14  1  0  0  0  0
 11 12  1  0  0  0  0
 13 15  1  0  0  0  0
 13  9  2  0  0  0  0
 14 12  2  0  0  0  0
 14 10  1  0  0  0  0
 15 11  2  0  0  0  0
 16 13  1  0  0  0  0
 17 16  1  0  0  0  0
 18 16  1  0  0  0  0
 19 17  1  0  0  0  0
 19 16  1  0  0  0  0
 21 20  1  0  0  0  0
 22 21  1  0  0  0  0
 23 22  1  0  0  0  0
 24 25  1  0  0  0  0
 24 23  1  1  0  0  0
 25 28  1  6  0  0  0
 26 27  1  0  0  0  0
 26 25  1  0  0  0  0
 27 24  1  0  0  0  0
 28 29  2  0  0  0  0
M  END
>  <MODEL>
6

>  <REMARK>
 VINA RESULT:      -8.4      1.753      2.624
  Name = 
  8 active torsions:
  status: ('A' for Active; 'I' for Inactive)
    1  A    between atoms: C_5  and  C_15
    2  A    between atoms: C_5  and  C_20
    3  A    between atoms: C_7  and  C_13
    4  A    between atoms: C_8  and  C_21
    5  A    between atoms: S_9  and  C_11
    6  A    between atoms: S_9  and  C_15
    7  A    between atoms: C_12  and  C_20
    8  A    between atoms: C_16  and  C_17
                            x       y       z     vdW  Elec       q    Type
                         _______ _______ _______ _____ _____    ______ ____

>  <TORSDO>
F 8

$$$$
=
 OpenBabel11062416353D

 29 33  0  0  1  0  0  0  0  0999 V2000
  187.0110  178.9620  140.5850 N   0  0  0  0  0  2  0  0  0  0  0  0
  185.5300  177.9470  138.0920 C   0  0  0  0  0  2  0  0  0  0  0  0
  186.8570  178.6130  137.7550 C   0  0  0  0  0  2  0  0  0  0  0  0
  184.9280  178.5400  139.3600 C   0  0  0  0  0  2  0  0  0  0  0  0
  188.0560  178.1500  139.9650 C   0  0  2  0  0  0  0  0  0  0  0  0
  185.7680  178.1960  140.5830 C   0  0  2  0  0  3  0  0  0  0  0  0
  188.9370  178.9700  139.0530 C   0  0  0  0  0  2  0  0  0  0  0  0
  188.0170  177.9120  138.4570 C   0  0  2  0  0  3  0  0  0  0  0  0
  183.5250  178.9050  144.1760 C   0  0  0  0  0  3  0  0  0  0  0  0
  181.4530  179.2890  142.8340 C   0  0  0  0  0  1  0  0  0  0  0  0
  185.0020  178.4370  141.8430 C   0  0  0  0  0  0  0  0  0  0  0  0
  183.6390  178.7360  141.7630 C   0  0  0  0  0  3  0  0  0  0  0  0
  184.8880  178.6000  144.2640 C   0  0  0  0  0  0  0  0  0  0  0  0
  182.9010  178.9700  142.9270 C   0  0  0  0  0  0  0  0  0  0  0  0
  185.6280  178.3760  143.0970 C   0  0  0  0  0  3  0  0  0  0  0  0
  185.5600  178.5570  145.5950 C   0  0  0  0  0  0  0  0  0  0  0  0
  185.6790  179.7530  146.2560 O   0  0  0  0  0  0  0  0  0  0  0  0
  186.5870  177.6510  145.8580 O   0  0  0  0  0  1  0  0  0  0  0  0
  184.7750  178.8470  146.6820 O   0  0  0  0  0  0  0  0  0  0  0  0
  189.0340  177.0330  141.0250 S   0  0  0  0  0  0  0  0  0  0  0  0
  189.0260  178.1540  142.4540 C   0  0  0  0  0  2  0  0  0  0  0  0
  190.2160  177.8670  143.3520 C   0  0  0  0  0  2  0  0  0  0  0  0
  189.8000  177.0160  144.5420 C   0  0  0  0  0  2  0  0  0  0  0  0
  190.4120  177.5280  145.8390 C   0  0  1  0  0  3  0  0  0  0  0  0
  189.7350  176.8770  147.0350 C   0  0  1  0  0  3  0  0  0  0  0  0
  191.0060  176.1090  147.3440 C   0  0  0  0  0  2  0  0  0  0  0  0
  191.6800  176.7500  146.1440 C   0  0  0  0  0  2  0  0  0  0  0  0
  189.4280  177.8810  148.1090 C   0  0  0  0  0  3  0  0  0  0  0  0
  188.3720  177.8590  148.7240 O   0  0  0  0  0  0  0  0  0  0  0  0
  2  4  1  0  0  0  0
  3  2  1  0  0  0  0
  4  6  1  0  0  0  0
  5  1  1  0  0  0  0
  5 20  1  1  0  0  0
  6  1  1  0  0  0  0
  6 11  1  1  0  0  0
  7  5  1  0  0  0  0
  8  3  1  6  0  0  0
  8  7  1  0  0  0  0
  8  5  1  0  0  0  0
  9 13  1  0  0  0  0
 10 14  1  0  0  0  0
 11 15  1  0  0  0  0
 12 11  2  0  0  0  0
 12 14  1  0  0  0  0
 13 16  1  0  0  0  0
 14  9  2  0  0  0  0
 15 13  2  0  0  0  0
 16 18  1  0  0  0  0
 16 17  1  0  0  0  0
 16 19  1  0  0  0  0
 17 19  1  0  0  0  0
 20 21  1  0  0  0  0
 21 22  1  0  0  0  0
 22 23  1  0  0  0  0
 24 23  1  6  0  0  0
 24 27  1  0  0  0  0
 24 25  1  0  0  0  0
 25 26  1  0  0  0  0
 25 28  1  1  0  0  0
 27 26  1  0  0  0  0
 28 29  2  0  0  0  0
M  END
>  <MODEL>
7

>  <REMARK>
 VINA RESULT:      -8.3      3.452      6.461
  Name = 
  8 active torsions:
  status: ('A' for Active; 'I' for Inactive)
    1  A    between atoms: C_5  and  C_15
    2  A    between atoms: C_5  and  C_20
    3  A    between atoms: C_7  and  C_13
    4  A    between atoms: C_8  and  C_21
    5  A    between atoms: S_9  and  C_11
    6  A    between atoms: S_9  and  C_15
    7  A    between atoms: C_12  and  C_20
    8  A    between atoms: C_16  and  C_17
                            x       y       z     vdW  Elec       q    Type
                         _______ _______ _______ _____ _____    ______ ____

>  <TORSDO>
F 8

$$$$
=
 OpenBabel11062416353D

 29 33  0  0  1  0  0  0  0  0999 V2000
  189.2470  176.6540  144.0390 N   0  0  0  0  0  2  0  0  0  0  0  0
  189.7370  177.4820  146.9570 C   0  0  0  0  0  2  0  0  0  0  0  0
  190.6520  176.3520  146.5060 C   0  0  0  0  0  2  0  0  0  0  0  0
  188.4110  177.4410  146.2070 C   0  0  0  0  0  2  0  0  0  0  0  0
  190.6870  176.9000  144.0090 C   0  0  2  0  0  0  0  0  0  0  0  0
  188.6010  177.7660  144.7300 C   0  0  2  0  0  3  0  0  0  0  0  0
  191.4770  175.6420  144.2800 C   0  0  0  0  0  2  0  0  0  0  0  0
  191.4900  176.7720  145.3010 C   0  0  2  0  0  3  0  0  0  0  0  0
  184.8270  178.7160  142.9170 C   0  0  0  0  0  3  0  0  0  0  0  0
  183.7240  178.7230  145.1590 C   0  0  0  0  0  1  0  0  0  0  0  0
  187.2970  178.0990  144.0830 C   0  0  0  0  0  0  0  0  0  0  0  0
  186.1610  178.2540  144.8840 C   0  0  0  0  0  3  0  0  0  0  0  0
  185.9610  178.5700  142.1100 C   0  0  0  0  0  0  0  0  0  0  0  0
  184.9280  178.5620  144.3020 C   0  0  0  0  0  0  0  0  0  0  0  0
  187.1930  178.2510  142.6930 C   0  0  0  0  0  3  0  0  0  0  0  0
  185.8480  178.7080  140.6290 C   0  0  0  0  0  0  0  0  0  0  0  0
  184.6590  178.3140  140.0690 O   0  0  0  0  0  0  0  0  0  0  0  0
  186.9560  178.5390  139.7990 O   0  0  0  0  0  1  0  0  0  0  0  0
  184.9400  179.6300  140.1720 O   0  0  0  0  0  0  0  0  0  0  0  0
  191.3780  177.8450  142.6110 S   0  0  0  0  0  0  0  0  0  0  0  0
  190.5620  176.8360  141.3410 C   0  0  0  0  0  2  0  0  0  0  0  0
  190.8230  177.4140  139.9620 C   0  0  0  0  0  2  0  0  0  0  0  0
  192.1700  176.9480  139.4290 C   0  0  0  0  0  2  0  0  0  0  0  0
  192.0760  176.5130  137.9730 C   0  0  1  0  0  3  0  0  0  0  0  0
  193.3350  175.7630  137.5650 C   0  0  1  0  0  3  0  0  0  0  0  0
  192.5400  174.4750  137.4610 C   0  0  0  0  0  2  0  0  0  0  0  0
  191.2850  175.2210  137.8790 C   0  0  0  0  0  2  0  0  0  0  0  0
  193.8310  176.2090  136.2190 C   0  0  0  0  0  3  0  0  0  0  0  0
  194.9200  176.7460  136.0830 O   0  0  0  0  0  0  0  0  0  0  0  0
  1  6  1  0  0  0  0
  3  2  1  0  0  0  0
  4  2  1  0  0  0  0
  5 20  1  6  0  0  0
  5  1  1  0  0  0  0
  5  7  1  0  0  0  0
  5  8  1  0  0  0  0
  6 11  1  6  0  0  0
  6  4  1  0  0  0  0
  8  7  1  6  0  0  0
  8  3  1  0  0  0  0
  9 14  1  0  0  0  0
 11 12  1  0  0  0  0
 13 15  1  0  0  0  0
 13  9  2  0  0  0  0
 14 12  2  0  0  0  0
 14 10  1  0  0  0  0
 15 11  2  0  0  0  0
 16 13  1  0  0  0  0
 17 19  1  0  0  0  0
 17 16  1  0  0  0  0
 18 16  1  0  0  0  0
 19 16  1  0  0  0  0
 21 20  1  0  0  0  0
 22 21  1  0  0  0  0
 23 22  1  0  0  0  0
 24 23  1  1  0  0  0
 25 28  1  6  0  0  0
 25 24  1  0  0  0  0
 26 25  1  0  0  0  0
 26 27  1  0  0  0  0
 27 24  1  0  0  0  0
 29 28  2  0  0  0  0
M  END
>  <MODEL>
8

>  <REMARK>
 VINA RESULT:      -8.2      1.200      1.692
  Name = 
  8 active torsions:
  status: ('A' for Active; 'I' for Inactive)
    1  A    between atoms: C_5  and  C_15
    2  A    between atoms: C_5  and  C_20
    3  A    between atoms: C_7  and  C_13
    4  A    between atoms: C_8  and  C_21
    5  A    between atoms: S_9  and  C_11
    6  A    between atoms: S_9  and  C_15
    7  A    between atoms: C_12  and  C_20
    8  A    between atoms: C_16  and  C_17
                            x       y       z     vdW  Elec       q    Type
                         _______ _______ _______ _____ _____    ______ ____

>  <TORSDO>
F 8

$$$$
=
 OpenBabel11062416353D

 29 33  0  0  1  0  0  0  0  0999 V2000
  189.1450  176.9960  142.1720 N   0  0  0  0  0  2  0  0  0  0  0  0
  191.9920  177.5550  141.1600 C   0  0  0  0  0  2  0  0  0  0  0  0
  191.0750  177.0190  140.0680 C   0  0  0  0  0  2  0  0  0  0  0  0
  191.5720  177.0330  142.5280 C   0  0  0  0  0  2  0  0  0  0  0  0
  188.8580  177.8550  141.0260 C   0  0  2  0  0  0  0  0  0  0  0  0
  190.2230  177.6030  142.9470 C   0  0  2  0  0  3  0  0  0  0  0  0
  188.6160  177.0540  139.7690 C   0  0  0  0  0  2  0  0  0  0  0  0
  189.8610  177.9240  139.8770 C   0  0  2  0  0  3  0  0  0  0  0  0
  189.5060  177.0680  147.1470 C   0  0  0  0  0  3  0  0  0  0  0  0
  187.1590  177.8800  146.8740 C   0  0  0  0  0  1  0  0  0  0  0  0
  189.9900  177.4080  144.4100 C   0  0  0  0  0  0  0  0  0  0  0  0
  188.7360  177.7170  144.9450 C   0  0  0  0  0  3  0  0  0  0  0  0
  190.7620  176.7500  146.6170 C   0  0  0  0  0  0  0  0  0  0  0  0
  188.4930  177.5470  146.3110 C   0  0  0  0  0  0  0  0  0  0  0  0
  191.0060  176.9300  145.2500 C   0  0  0  0  0  3  0  0  0  0  0  0
  191.8500  176.2630  147.5130 C   0  0  0  0  0  0  0  0  0  0  0  0
  191.7920  174.9420  147.8800 O   0  0  0  0  0  0  0  0  0  0  0  0
  192.4300  177.0980  148.4670 O   0  0  0  0  0  1  0  0  0  0  0  0
  192.7120  175.3390  146.9760 O   0  0  0  0  0  0  0  0  0  0  0  0
  187.6280  179.1880  141.2250 S   0  0  0  0  0  0  0  0  0  0  0  0
  186.3690  178.3720  140.2000 C   0  0  0  0  0  2  0  0  0  0  0  0
  184.9790  178.7350  140.6880 C   0  0  0  0  0  2  0  0  0  0  0  0
  184.7640  178.2490  142.1140 C   0  0  0  0  0  2  0  0  0  0  0  0
  183.9960  179.2700  142.9440 C   0  0  1  0  0  3  0  0  0  0  0  0
  183.0370  178.5640  143.8910 C   0  0  1  0  0  3  0  0  0  0  0  0
  183.8770  179.0010  145.0760 C   0  0  0  0  0  2  0  0  0  0  0  0
  184.8410  179.6970  144.1310 C   0  0  0  0  0  2  0  0  0  0  0  0
  181.6880  179.2240  143.9020 C   0  0  0  0  0  3  0  0  0  0  0  0
  180.6850  178.6270  144.2650 O   0  0  0  0  0  0  0  0  0  0  0  0
  1  6  1  0  0  0  0
  2  4  1  0  0  0  0
  3  2  1  0  0  0  0
  4  6  1  0  0  0  0
  5 20  1  1  0  0  0
  5  1  1  0  0  0  0
  6 11  1  1  0  0  0
  7  5  1  0  0  0  0
  8  7  1  6  0  0  0
  8  3  1  0  0  0  0
  8  5  1  0  0  0  0
 11 12  2  0  0  0  0
 11 15  1  0  0  0  0
 12 14  1  0  0  0  0
 13  9  1  0  0  0  0
 13 16  1  0  0  0  0
 14 10  1  0  0  0  0
 14  9  2  0  0  0  0
 15 13  2  0  0  0  0
 16 17  1  0  0  0  0
 16 18  1  0  0  0  0
 19 16  1  0  0  0  0
 19 17  1  0  0  0  0
 21 22  1  0  0  0  0
 21 20  1  0  0  0  0
 22 23  1  0  0  0  0
 24 23  1  6  0  0  0
 24 25  1  0  0  0  0
 24 27  1  0  0  0  0
 25 28  1  1  0  0  0
 25 26  1  0  0  0  0
 27 26  1  0  0  0  0
 28 29  2  0  0  0  0
M  END
>  <MODEL>
9

>  <REMARK>
 VINA RESULT:      -8.2      3.541      7.834
  Name = 
  8 active torsions:
  status: ('A' for Active; 'I' for Inactive)
    1  A    between atoms: C_5  and  C_15
    2  A    between atoms: C_5  and  C_20
    3  A    between atoms: C_7  and  C_13
    4  A    between atoms: C_8  and  C_21
    5  A    between atoms: S_9  and  C_11
    6  A    between atoms: S_9  and  C_15
    7  A    between atoms: C_12  and  C_20
    8  A    between atoms: C_16  and  C_17
                            x       y       z     vdW  Elec       q    Type
                         _______ _______ _______ _____ _____    ______ ____

>  <TORSDO>
F 8

$$$$
