=
 OpenBabel11062413043D

 40 43  0  0  1  0  0  0  0  0999 V2000
  188.1660  177.6230  141.2670 C   0  0  2  0  0  3  0  0  0  0  0  0
  191.4480  177.3160  139.5600 O   0  0  0  0  0  0  0  0  0  0  0  0
  189.3370  177.6950  138.6220 N   0  0  0  0  0  0  0  0  0  0  0  0
  187.8880  177.6610  138.8150 C   0  0  0  0  0  2  0  0  0  0  0  0
  189.7010  177.6630  141.1640 C   0  0  2  0  0  3  0  0  0  0  0  0
  190.2160  177.5140  139.7490 C   0  0  0  0  0  0  0  0  0  0  0  0
  187.5130  178.3590  140.1100 C   0  0  0  0  0  2  0  0  0  0  0  0
  191.3920  177.0190  142.9480 N   0  0  0  0  0  0  0  0  0  0  0  0
  189.9040  175.4540  142.0660 O   0  0  0  0  0  0  0  0  0  0  0  0
  191.8400  178.3200  142.9780 O   0  0  0  0  0  0  0  0  0  0  0  0
  190.3250  176.6440  142.0740 C   0  0  0  0  0  0  0  0  0  0  0  0
  191.9230  176.1710  143.6940 O   0  0  0  0  0  0  0  0  0  0  0  0
  189.7560  176.1900  136.7340 C   0  0  1  0  0  3  0  0  0  0  0  0
  189.8610  177.6120  137.2590 C   0  0  1  0  0  3  0  0  0  0  0  0
  189.0320  177.7700  135.0300 O   0  0  0  0  0  1  0  0  0  0  0  0
  188.7450  177.2480  136.2940 C   0  0  1  0  0  3  0  0  0  0  0  0
  190.8740  175.9460  135.7300 C   0  0  0  0  0  2  0  0  0  0  0  0
  193.0260  176.5130  136.9090 N   0  0  0  0  0  2  0  0  0  0  0  0
  193.6660  173.8560  137.3370 C   0  0  0  0  0  3  0  0  0  0  0  0
  194.1910  176.1510  137.5590 O   0  0  0  0  0  0  0  0  0  0  0  0
  192.1140  175.5110  136.4430 C   0  0  0  0  0  0  0  0  0  0  0  0
  194.4980  174.8030  137.7740 C   0  0  0  0  0  0  0  0  0  0  0  0
  192.4130  174.2130  136.6360 C   0  0  0  0  0  0  0  0  0  0  0  0
  196.0260  174.3560  138.5880 P   0  0  2  0  0  0  0  0  0  0  0  0
  196.0660  172.8550  138.7560 O   0  0  0  0  0  0  0  0  0  0  0  0
  196.1020  175.0830  140.1150 O   0  0  0  0  0  1  0  0  0  0  0  0
  197.3520  174.8390  137.6470 O   0  0  0  0  0  0  0  0  0  0  0  0
  198.4780  174.5940  138.4350 C   0  0  0  0  0  1  0  0  0  0  0  0
  191.5140  173.1480  136.1620 C   0  0  0  0  0  3  0  0  0  0  0  0
  191.8900  172.2970  135.2650 N   0  0  0  0  0  2  0  0  0  0  0  0
  187.7020  178.2610  142.5670 C   0  0  0  0  0  2  0  0  0  0  0  0
  186.8670  177.2760  143.3650 C   0  0  0  0  0  2  0  0  0  0  0  0
  187.6440  176.7900  144.5780 C   0  0  0  0  0  2  0  0  0  0  0  0
  189.6860  177.0250  147.7340 C   0  0  0  0  0  2  0  0  0  0  0  0
  187.1890  178.9030  147.7410 C   0  0  0  0  0  1  0  0  0  0  0  0
  190.2190  177.1950  146.3180 C   0  0  0  0  0  2  0  0  0  0  0  0
  187.9270  177.9390  145.5400 C   0  0  1  0  0  3  0  0  0  0  0  0
  187.3620  177.6280  146.9330 C   0  0  1  0  0  3  0  0  0  0  0  0
  188.2170  176.6080  147.6930 C   0  0  0  0  0  2  0  0  0  0  0  0
  189.4260  178.2740  145.5880 C   0  0  0  0  0  2  0  0  0  0  0  0
  1 31  1  1  0  0  0
  2  6  2  0  0  0  0
  3  4  1  0  0  0  0
  3  6  1  0  0  0  0
  4  7  1  0  0  0  0
  5  1  1  0  0  0  0
  5 11  1  1  0  0  0
  6  5  1  0  0  0  0
  7  1  1  0  0  0  0
  8 10  2  0  0  0  0
  8 12  2  0  0  0  0
  9 11  2  0  0  0  0
 11  8  1  0  0  0  0
 13 17  1  6  0  0  0
 13 14  1  0  0  0  0
 14  3  1  1  0  0  0
 16 15  1  6  0  0  0
 16 13  1  0  0  0  0
 16 14  1  0  0  0  0
 17 21  1  0  0  0  0
 18 20  1  0  0  0  0
 19 22  2  0  0  0  0
 20 22  1  0  0  0  0
 21 23  2  0  0  0  0
 21 18  1  0  0  0  0
 22 24  1  0  0  0  0
 23 19  1  0  0  0  0
 24 25  2  1  0  0  0
 24 26  1  0  0  0  0
 27 28  1  0  0  0  0
 27 24  1  0  0  0  0
 29 23  1  0  0  0  0
 30 29  2  0  0  0  0
 31 32  1  0  0  0  0
 32 33  1  0  0  0  0
 36 34  1  0  0  0  0
 37 33  1  6  0  0  0
 37 40  1  0  0  0  0
 37 38  1  0  0  0  0
 38 39  1  0  0  0  0
 38 35  1  1  0  0  0
 39 34  1  0  0  0  0
 40 36  1  0  0  0  0
M  END
>  <MODEL>
1

>  <REMARK>
 VINA RESULT:      -8.0      0.000      0.000
  Name = 
  11 active torsions:
  status: ('A' for Active; 'I' for Inactive)
    1  A    between atoms: C_2  and  C_34
    2  A    between atoms: P_3  and  O_12
    3  A    between atoms: P_3  and  C_35
    4  A    between atoms: C_6  and  C_19
    5  A    between atoms: C_8  and  N_18
    6  A    between atoms: C_9  and  C_39
    7  A    between atoms: C_10  and  C_29
    8  A    between atoms: C_10  and  C_34
    9  A    between atoms: C_19  and  C_30
   10  A    between atoms: C_21  and  C_27
   11  A    between atoms: C_29  and  C_32
                            x       y       z     vdW  Elec       q    Type
                         _______ _______ _______ _____ _____    ______ ____

>  <TORSDO>
F 11

$$$$
=
 OpenBabel11062413043D

 40 43  0  0  1  0  0  0  0  0999 V2000
  188.6730  177.5600  142.5520 C   0  0  2  0  0  3  0  0  0  0  0  0
  191.7280  177.2070  140.4720 O   0  0  0  0  0  0  0  0  0  0  0  0
  189.6080  177.9800  139.8460 N   0  0  0  0  0  0  0  0  0  0  0  0
  188.1890  178.0710  140.1860 C   0  0  0  0  0  2  0  0  0  0  0  0
  190.1860  177.4490  142.2910 C   0  0  2  0  0  3  0  0  0  0  0  0
  190.5520  177.5030  140.8240 C   0  0  0  0  0  0  0  0  0  0  0  0
  188.0200  178.5600  141.6120 C   0  0  0  0  0  2  0  0  0  0  0  0
  191.6540  176.3430  144.0450 N   0  0  0  0  0  0  0  0  0  0  0  0
  190.4290  175.0770  142.5150 O   0  0  0  0  0  0  0  0  0  0  0  0
  191.9910  177.5850  144.5310 O   0  0  0  0  0  0  0  0  0  0  0  0
  190.7520  176.2200  142.9430 C   0  0  0  0  0  0  0  0  0  0  0  0
  192.1380  175.3240  144.5790 O   0  0  0  0  0  0  0  0  0  0  0  0
  189.7040  176.7890  137.7060 C   0  0  1  0  0  3  0  0  0  0  0  0
  189.9960  178.0870  138.4390 C   0  0  1  0  0  3  0  0  0  0  0  0
  188.9900  178.6900  136.3650 O   0  0  0  0  0  1  0  0  0  0  0  0
  188.7670  177.9870  137.5510 C   0  0  1  0  0  3  0  0  0  0  0  0
  190.6970  176.6270  136.5630 C   0  0  0  0  0  2  0  0  0  0  0  0
  193.0260  176.5900  137.5230 N   0  0  0  0  0  2  0  0  0  0  0  0
  193.1740  173.8290  137.4460 C   0  0  0  0  0  3  0  0  0  0  0  0
  194.1560  175.9190  137.9510 O   0  0  0  0  0  0  0  0  0  0  0  0
  191.8930  175.8630  137.0310 C   0  0  0  0  0  0  0  0  0  0  0  0
  194.2140  174.5230  137.9120 C   0  0  0  0  0  0  0  0  0  0  0  0
  191.9510  174.5190  136.9800 C   0  0  0  0  0  0  0  0  0  0  0  0
  195.6980  173.6770  138.4390 P   0  0  2  0  0  0  0  0  0  0  0  0
  196.1770  174.2930  139.7320 O   0  0  0  0  0  1  0  0  0  0  0  0
  196.9080  173.8470  137.2670 O   0  0  0  0  0  0  0  0  0  0  0  0
  195.3710  172.0330  138.7020 O   0  0  0  0  0  0  0  0  0  0  0  0
  196.0250  171.3530  137.6720 C   0  0  0  0  0  1  0  0  0  0  0  0
  190.8180  173.7290  136.4690 C   0  0  0  0  0  3  0  0  0  0  0  0
  189.8890  173.2960  137.2550 N   0  0  0  0  0  2  0  0  0  0  0  0
  188.4090  177.9990  143.9830 C   0  0  0  0  0  2  0  0  0  0  0  0
  187.7880  176.8620  144.7740 C   0  0  0  0  0  2  0  0  0  0  0  0
  186.3170  177.1440  145.0300 C   0  0  0  0  0  2  0  0  0  0  0  0
  183.0320  178.9800  144.8500 C   0  0  0  0  0  2  0  0  0  0  0  0
  185.0490  179.8450  142.6260 C   0  0  0  0  0  1  0  0  0  0  0  0
  183.9250  178.8770  146.0790 C   0  0  0  0  0  2  0  0  0  0  0  0
  185.9470  178.5560  144.5890 C   0  0  1  0  0  3  0  0  0  0  0  0
  185.0260  178.5160  143.3620 C   0  0  1  0  0  3  0  0  0  0  0  0
  183.5920  178.1130  143.7240 C   0  0  0  0  0  2  0  0  0  0  0  0
  185.3320  179.3620  145.7440 C   0  0  0  0  0  2  0  0  0  0  0  0
  1 31  1  1  0  0  0
  2  6  2  0  0  0  0
  3  4  1  0  0  0  0
  3  6  1  0  0  0  0
  4  7  1  0  0  0  0
  5  1  1  0  0  0  0
  5 11  1  6  0  0  0
  6  5  1  0  0  0  0
  7  1  1  0  0  0  0
  8 10  2  0  0  0  0
  8 12  2  0  0  0  0
  9 11  2  0  0  0  0
 11  8  1  0  0  0  0
 13 17  1  6  0  0  0
 13 14  1  0  0  0  0
 14  3  1  1  0  0  0
 16 15  1  6  0  0  0
 16 13  1  0  0  0  0
 16 14  1  0  0  0  0
 17 21  1  0  0  0  0
 18 20  1  0  0  0  0
 19 22  2  0  0  0  0
 21 18  1  0  0  0  0
 22 20  1  0  0  0  0
 22 24  1  0  0  0  0
 23 21  2  0  0  0  0
 23 19  1  0  0  0  0
 24 26  2  6  0  0  0
 24 27  1  0  0  0  0
 24 25  1  0  0  0  0
 28 27  1  0  0  0  0
 29 23  1  0  0  0  0
 29 30  2  0  0  0  0
 31 32  1  0  0  0  0
 32 33  1  0  0  0  0
 34 36  1  0  0  0  0
 37 33  1  1  0  0  0
 37 40  1  0  0  0  0
 38 35  1  1  0  0  0
 38 39  1  0  0  0  0
 38 37  1  0  0  0  0
 39 34  1  0  0  0  0
 40 36  1  0  0  0  0
M  END
>  <MODEL>
2

>  <REMARK>
 VINA RESULT:      -7.8      1.772      2.759
  Name = 
  11 active torsions:
  status: ('A' for Active; 'I' for Inactive)
    1  A    between atoms: C_2  and  C_34
    2  A    between atoms: P_3  and  O_12
    3  A    between atoms: P_3  and  C_35
    4  A    between atoms: C_6  and  C_19
    5  A    between atoms: C_8  and  N_18
    6  A    between atoms: C_9  and  C_39
    7  A    between atoms: C_10  and  C_29
    8  A    between atoms: C_10  and  C_34
    9  A    between atoms: C_19  and  C_30
   10  A    between atoms: C_21  and  C_27
   11  A    between atoms: C_29  and  C_32
                            x       y       z     vdW  Elec       q    Type
                         _______ _______ _______ _____ _____    ______ ____

>  <TORSDO>
F 11

$$$$
=
 OpenBabel11062413043D

 40 43  0  0  1  0  0  0  0  0999 V2000
  190.1260  176.6720  138.7370 C   0  0  2  0  0  3  0  0  0  0  0  0
  187.4680  178.6670  140.3930 O   0  0  0  0  0  0  0  0  0  0  0  0
  189.2710  177.5320  141.3650 N   0  0  0  0  0  0  0  0  0  0  0  0
  190.3220  176.5300  141.1930 C   0  0  0  0  0  2  0  0  0  0  0  0
  189.0170  177.7360  138.8170 C   0  0  2  0  0  3  0  0  0  0  0  0
  188.5160  177.9830  140.2240 C   0  0  0  0  0  0  0  0  0  0  0  0
  191.0880  176.7840  139.9080 C   0  0  0  0  0  2  0  0  0  0  0  0
  187.3450  178.3920  137.0200 N   0  0  0  0  0  0  0  0  0  0  0  0
  187.4040  176.2290  137.8900 O   0  0  0  0  0  0  0  0  0  0  0  0
  187.8780  179.6610  137.0030 O   0  0  0  0  0  0  0  0  0  0  0  0
  187.8820  177.3960  137.8930 C   0  0  0  0  0  0  0  0  0  0  0  0
  186.3930  178.1170  136.2620 O   0  0  0  0  0  0  0  0  0  0  0  0
  187.4700  177.1650  142.9850 C   0  0  1  0  0  3  0  0  0  0  0  0
  188.8090  177.8330  142.7200 C   0  0  1  0  0  3  0  0  0  0  0  0
  188.9490  176.8690  144.8950 O   0  0  0  0  0  1  0  0  0  0  0  0
  188.7560  176.5590  143.5460 C   0  0  1  0  0  3  0  0  0  0  0  0
  186.6880  178.0000  143.9910 C   0  0  0  0  0  2  0  0  0  0  0  0
  185.0000  177.9040  142.1240 N   0  0  0  0  0  2  0  0  0  0  0  0
  183.0080  179.0500  143.6650 C   0  0  0  0  0  3  0  0  0  0  0  0
  183.7370  178.1340  141.6100 O   0  0  0  0  0  0  0  0  0  0  0  0
  185.3050  178.2510  143.4800 C   0  0  0  0  0  0  0  0  0  0  0  0
  182.7390  178.7090  142.4030 C   0  0  0  0  0  0  0  0  0  0  0  0
  184.3510  178.8160  144.2420 C   0  0  0  0  0  0  0  0  0  0  0  0
  181.1230  179.0290  141.7090 P   0  0  2  0  0  0  0  0  0  0  0  0
  181.2870  179.4410  140.2650 O   0  0  0  0  0  0  0  0  0  0  0  0
  180.3680  180.2850  142.5580 O   0  0  0  0  0  1  0  0  0  0  0  0
  180.1700  177.6280  141.7760 O   0  0  0  0  0  0  0  0  0  0  0  0
  180.2980  177.0280  140.5220 C   0  0  0  0  0  1  0  0  0  0  0  0
  184.6220  179.2040  145.6370 C   0  0  0  0  0  3  0  0  0  0  0  0
  184.4420  178.3770  146.6130 N   0  0  0  0  0  2  0  0  0  0  0  0
  190.9170  176.8220  137.4480 C   0  0  0  0  0  2  0  0  0  0  0  0
  191.4210  175.4680  136.9810 C   0  0  0  0  0  2  0  0  0  0  0  0
  192.5370  175.6460  135.9650 C   0  0  0  0  0  2  0  0  0  0  0  0
  195.2820  173.0700  135.8340 C   0  0  0  0  0  2  0  0  0  0  0  0
  195.0860  174.5210  138.5950 C   0  0  0  0  0  1  0  0  0  0  0  0
  195.0920  174.2150  134.8490 C   0  0  0  0  0  2  0  0  0  0  0  0
  193.9040  175.5600  136.6350 C   0  0  1  0  0  3  0  0  0  0  0  0
  193.9700  174.3520  137.5780 C   0  0  1  0  0  3  0  0  0  0  0  0
  194.1150  173.0280  136.8180 C   0  0  0  0  0  2  0  0  0  0  0  0
  195.0370  175.5440  135.5970 C   0  0  0  0  0  2  0  0  0  0  0  0
  1 31  1  6  0  0  0
  1  5  1  0  0  0  0
  1  7  1  0  0  0  0
  4  3  1  0  0  0  0
  5 11  1  6  0  0  0
  5  6  1  0  0  0  0
  6  2  2  0  0  0  0
  6  3  1  0  0  0  0
  7  4  1  0  0  0  0
  8 11  1  0  0  0  0
  9 11  2  0  0  0  0
 10  8  2  0  0  0  0
 12  8  2  0  0  0  0
 13 16  1  0  0  0  0
 13 17  1  1  0  0  0
 14  3  1  6  0  0  0
 14 13  1  0  0  0  0
 14 16  1  0  0  0  0
 16 15  1  1  0  0  0
 18 21  1  0  0  0  0
 19 23  1  0  0  0  0
 20 18  1  0  0  0  0
 20 22  1  0  0  0  0
 21 17  1  0  0  0  0
 21 23  2  0  0  0  0
 22 19  2  0  0  0  0
 23 29  1  0  0  0  0
 24 25  2  6  0  0  0
 24 27  1  0  0  0  0
 24 22  1  0  0  0  0
 24 26  1  0  0  0  0
 28 27  1  0  0  0  0
 29 30  2  0  0  0  0
 32 31  1  0  0  0  0
 33 32  1  0  0  0  0
 34 39  1  0  0  0  0
 36 40  1  0  0  0  0
 36 34  1  0  0  0  0
 37 33  1  6  0  0  0
 37 38  1  0  0  0  0
 38 35  1  1  0  0  0
 39 38  1  0  0  0  0
 40 37  1  0  0  0  0
M  END
>  <MODEL>
3

>  <REMARK>
 VINA RESULT:      -7.6      4.809     10.730
  Name = 
  11 active torsions:
  status: ('A' for Active; 'I' for Inactive)
    1  A    between atoms: C_2  and  C_34
    2  A    between atoms: P_3  and  O_12
    3  A    between atoms: P_3  and  C_35
    4  A    between atoms: C_6  and  C_19
    5  A    between atoms: C_8  and  N_18
    6  A    between atoms: C_9  and  C_39
    7  A    between atoms: C_10  and  C_29
    8  A    between atoms: C_10  and  C_34
    9  A    between atoms: C_19  and  C_30
   10  A    between atoms: C_21  and  C_27
   11  A    between atoms: C_29  and  C_32
                            x       y       z     vdW  Elec       q    Type
                         _______ _______ _______ _____ _____    ______ ____

>  <TORSDO>
F 11

$$$$
=
 OpenBabel11062413043D

 40 43  0  0  1  0  0  0  0  0999 V2000
  182.3870  178.6060  138.9350 C   0  0  2  0  0  3  0  0  0  0  0  0
  180.7410  178.3180  142.2510 O   0  0  0  0  0  0  0  0  0  0  0  0
  183.0090  178.6300  141.7600 N   0  0  0  0  0  0  0  0  0  0  0  0
  184.0620  178.5730  140.7470 C   0  0  0  0  0  2  0  0  0  0  0  0
  181.2120  178.6740  139.9270 C   0  0  2  0  0  3  0  0  0  0  0  0
  181.6290  178.4970  141.3700 C   0  0  0  0  0  0  0  0  0  0  0  0
  183.6210  179.2980  139.4890 C   0  0  0  0  0  2  0  0  0  0  0  0
  180.4380  176.2960  139.4790 N   0  0  0  0  0  0  0  0  0  0  0  0
  178.9720  178.1020  139.3020 O   0  0  0  0  0  0  0  0  0  0  0  0
  181.7020  175.8410  139.7730 O   0  0  0  0  0  0  0  0  0  0  0  0
  180.1380  177.6920  139.5520 C   0  0  0  0  0  0  0  0  0  0  0  0
  179.5520  175.4790  139.1530 O   0  0  0  0  0  0  0  0  0  0  0  0
  184.9040  178.5350  143.3130 C   0  0  1  0  0  3  0  0  0  0  0  0
  183.3910  178.5210  143.1690 C   0  0  1  0  0  3  0  0  0  0  0  0
  183.8870  179.9780  144.9880 O   0  0  0  0  0  1  0  0  0  0  0  0
  184.0910  179.7930  143.6180 C   0  0  1  0  0  3  0  0  0  0  0  0
  185.2940  177.7340  144.5480 C   0  0  0  0  0  2  0  0  0  0  0  0
  187.4490  177.1380  143.3880 N   0  0  0  0  0  2  0  0  0  0  0  0
  188.9560  177.5010  145.6790 C   0  0  0  0  0  3  0  0  0  0  0  0
  188.8170  176.9390  143.3870 O   0  0  0  0  0  0  0  0  0  0  0  0
  186.7770  177.5460  144.5860 C   0  0  0  0  0  0  0  0  0  0  0  0
  189.5660  177.1330  144.5510 C   0  0  0  0  0  0  0  0  0  0  0  0
  187.4940  177.7200  145.7110 C   0  0  0  0  0  0  0  0  0  0  0  0
  191.3300  176.8370  144.5360 P   0  0  2  0  0  0  0  0  0  0  0  0
  191.5890  175.4710  143.9480 O   0  0  0  0  0  0  0  0  0  0  0  0
  191.9370  176.8810  146.1160 O   0  0  0  0  0  1  0  0  0  0  0  0
  192.1090  178.0030  143.5820 O   0  0  0  0  0  0  0  0  0  0  0  0
  191.5130  179.2200  143.9180 C   0  0  0  0  0  1  0  0  0  0  0  0
  186.8440  178.1240  146.9700 C   0  0  0  0  0  3  0  0  0  0  0  0
  187.4610  178.0450  148.1020 N   0  0  0  0  0  2  0  0  0  0  0  0
  182.0120  179.2690  137.6190 C   0  0  0  0  0  2  0  0  0  0  0  0
  181.3160  180.5930  137.8800 C   0  0  0  0  0  2  0  0  0  0  0  0
  180.8650  181.2150  136.5690 C   0  0  0  0  0  2  0  0  0  0  0  0
  180.9540  184.9510  136.0960 C   0  0  0  0  0  2  0  0  0  0  0  0
  179.1540  184.0570  138.4890 C   0  0  0  0  0  1  0  0  0  0  0  0
  180.6040  183.9300  135.0230 C   0  0  0  0  0  2  0  0  0  0  0  0
  179.8320  182.3110  136.8110 C   0  0  1  0  0  3  0  0  0  0  0  0
  180.3200  183.2850  137.8920 C   0  0  1  0  0  3  0  0  0  0  0  0
  181.4010  184.2390  137.3710 C   0  0  0  0  0  2  0  0  0  0  0  0
  179.4660  183.0350  135.5060 C   0  0  0  0  0  2  0  0  0  0  0  0
  1 31  1  6  0  0  0
  1  7  1  0  0  0  0
  1  5  1  0  0  0  0
  4  3  1  0  0  0  0
  5 11  1  6  0  0  0
  5  6  1  0  0  0  0
  6  3  1  0  0  0  0
  6  2  2  0  0  0  0
  7  4  1  0  0  0  0
  8 11  1  0  0  0  0
  8 10  2  0  0  0  0
  9 11  2  0  0  0  0
 12  8  2  0  0  0  0
 13 16  1  0  0  0  0
 13 17  1  1  0  0  0
 14  3  1  6  0  0  0
 14 13  1  0  0  0  0
 14 16  1  0  0  0  0
 16 15  1  1  0  0  0
 17 21  1  0  0  0  0
 18 21  1  0  0  0  0
 19 23  1  0  0  0  0
 20 18  1  0  0  0  0
 20 22  1  0  0  0  0
 21 23  2  0  0  0  0
 22 19  2  0  0  0  0
 23 29  1  0  0  0  0
 24 25  2  6  0  0  0
 24 22  1  0  0  0  0
 24 26  1  0  0  0  0
 27 28  1  0  0  0  0
 27 24  1  0  0  0  0
 29 30  2  0  0  0  0
 31 32  1  0  0  0  0
 33 32  1  0  0  0  0
 34 39  1  0  0  0  0
 36 40  1  0  0  0  0
 36 34  1  0  0  0  0
 37 33  1  6  0  0  0
 37 38  1  0  0  0  0
 38 35  1  6  0  0  0
 39 38  1  0  0  0  0
 40 37  1  0  0  0  0
M  END
>  <MODEL>
4

>  <REMARK>
 VINA RESULT:      -7.5      6.673     10.659
  Name = 
  11 active torsions:
  status: ('A' for Active; 'I' for Inactive)
    1  A    between atoms: C_2  and  C_34
    2  A    between atoms: P_3  and  O_12
    3  A    between atoms: P_3  and  C_35
    4  A    between atoms: C_6  and  C_19
    5  A    between atoms: C_8  and  N_18
    6  A    between atoms: C_9  and  C_39
    7  A    between atoms: C_10  and  C_29
    8  A    between atoms: C_10  and  C_34
    9  A    between atoms: C_19  and  C_30
   10  A    between atoms: C_21  and  C_27
   11  A    between atoms: C_29  and  C_32
                            x       y       z     vdW  Elec       q    Type
                         _______ _______ _______ _____ _____    ______ ____

>  <TORSDO>
F 11

$$$$
=
 OpenBabel11062413043D

 40 43  0  0  1  0  0  0  0  0999 V2000
  190.8550  176.9410  139.6860 C   0  0  2  0  0  3  0  0  0  0  0  0
  189.9810  176.3090  136.1330 O   0  0  0  0  0  0  0  0  0  0  0  0
  188.6060  177.0670  137.8690 N   0  0  0  0  0  0  0  0  0  0  0  0
  188.4320  177.2260  139.3120 C   0  0  0  0  0  2  0  0  0  0  0  0
  191.1370  176.7680  138.1830 C   0  0  2  0  0  3  0  0  0  0  0  0
  189.8850  176.6660  137.3400 C   0  0  0  0  0  0  0  0  0  0  0  0
  189.6680  177.8590  139.9250 C   0  0  0  0  0  2  0  0  0  0  0  0
  193.4030  175.8090  137.5480 N   0  0  0  0  0  0  0  0  0  0  0  0
  191.6060  174.4210  138.0850 O   0  0  0  0  0  0  0  0  0  0  0  0
  193.8940  177.0870  137.4110 O   0  0  0  0  0  0  0  0  0  0  0  0
  192.0450  175.5960  137.9410 C   0  0  0  0  0  0  0  0  0  0  0  0
  194.1560  174.8370  137.3320 O   0  0  0  0  0  0  0  0  0  0  0  0
  186.3340  177.9400  137.5800 C   0  0  1  0  0  3  0  0  0  0  0  0
  187.4130  177.0250  137.0240 C   0  0  1  0  0  3  0  0  0  0  0  0
  186.5120  178.2200  135.1690 O   0  0  0  0  0  1  0  0  0  0  0  0
  187.1790  178.3840  136.3860 C   0  0  1  0  0  3  0  0  0  0  0  0
  184.9670  177.3860  137.2000 C   0  0  0  0  0  2  0  0  0  0  0  0
  183.9250  179.1170  138.7050 N   0  0  0  0  0  2  0  0  0  0  0  0
  182.1420  177.3080  139.8000 C   0  0  0  0  0  3  0  0  0  0  0  0
  183.0170  179.5010  139.6740 O   0  0  0  0  0  0  0  0  0  0  0  0
  183.9580  177.7630  138.2380 C   0  0  0  0  0  0  0  0  0  0  0  0
  182.1180  178.5760  140.2140 C   0  0  0  0  0  0  0  0  0  0  0  0
  183.1030  176.8680  138.7650 C   0  0  0  0  0  0  0  0  0  0  0  0
  180.9740  179.0850  141.4910 P   0  0  2  0  0  0  0  0  0  0  0  0
  180.1880  177.8800  141.9490 O   0  0  0  0  0  1  0  0  0  0  0  0
  179.9010  180.2430  140.8780 O   0  0  0  0  0  0  0  0  0  0  0  0
  181.8230  179.7230  142.8140 O   0  0  0  0  0  0  0  0  0  0  0  0
  182.6920  178.7100  143.2230 C   0  0  0  0  0  1  0  0  0  0  0  0
  183.1100  175.4610  138.3270 C   0  0  0  0  0  3  0  0  0  0  0  0
  182.0130  174.8290  138.0740 N   0  0  0  0  0  2  0  0  0  0  0  0
  192.0670  177.5270  140.3910 C   0  0  0  0  0  2  0  0  0  0  0  0
  192.1610  176.9870  141.8070 C   0  0  0  0  0  2  0  0  0  0  0  0
  191.5660  177.9830  142.7880 C   0  0  0  0  0  2  0  0  0  0  0  0
  188.2030  176.4860  143.5880 C   0  0  0  0  0  2  0  0  0  0  0  0
  189.6470  177.6760  146.0910 C   0  0  0  0  0  1  0  0  0  0  0  0
  189.3390  175.7790  142.8600 C   0  0  0  0  0  2  0  0  0  0  0  0
  191.0190  177.2740  144.0230 C   0  0  1  0  0  3  0  0  0  0  0  0
  189.8660  178.0760  144.6410 C   0  0  1  0  0  3  0  0  0  0  0  0
  188.5700  177.9480  143.8330 C   0  0  0  0  0  2  0  0  0  0  0  0
  190.6090  175.8280  143.7040 C   0  0  0  0  0  2  0  0  0  0  0  0
  1  7  1  0  0  0  0
  1 31  1  1  0  0  0
  2  6  2  0  0  0  0
  3  4  1  0  0  0  0
  4  7  1  0  0  0  0
  5 11  1  1  0  0  0
  5  1  1  0  0  0  0
  6  3  1  0  0  0  0
  6  5  1  0  0  0  0
  8 11  1  0  0  0  0
 10  8  2  0  0  0  0
 11  9  2  0  0  0  0
 12  8  2  0  0  0  0
 13 17  1  6  0  0  0
 14 13  1  0  0  0  0
 14  3  1  1  0  0  0
 16 15  1  6  0  0  0
 16 14  1  0  0  0  0
 16 13  1  0  0  0  0
 17 21  1  0  0  0  0
 18 20  1  0  0  0  0
 19 22  2  0  0  0  0
 20 22  1  0  0  0  0
 21 18  1  0  0  0  0
 21 23  2  0  0  0  0
 22 24  1  0  0  0  0
 23 19  1  0  0  0  0
 24 26  2  6  0  0  0
 24 25  1  0  0  0  0
 24 27  1  0  0  0  0
 27 28  1  0  0  0  0
 29 23  1  0  0  0  0
 30 29  2  0  0  0  0
 31 32  1  0  0  0  0
 32 33  1  0  0  0  0
 34 39  1  0  0  0  0
 36 34  1  0  0  0  0
 36 40  1  0  0  0  0
 37 33  1  6  0  0  0
 37 38  1  0  0  0  0
 38 35  1  1  0  0  0
 39 38  1  0  0  0  0
 40 37  1  0  0  0  0
M  END
>  <MODEL>
5

>  <REMARK>
 VINA RESULT:      -7.3      4.869      8.354
  Name = 
  11 active torsions:
  status: ('A' for Active; 'I' for Inactive)
    1  A    between atoms: C_2  and  C_34
    2  A    between atoms: P_3  and  O_12
    3  A    between atoms: P_3  and  C_35
    4  A    between atoms: C_6  and  C_19
    5  A    between atoms: C_8  and  N_18
    6  A    between atoms: C_9  and  C_39
    7  A    between atoms: C_10  and  C_29
    8  A    between atoms: C_10  and  C_34
    9  A    between atoms: C_19  and  C_30
   10  A    between atoms: C_21  and  C_27
   11  A    between atoms: C_29  and  C_32
                            x       y       z     vdW  Elec       q    Type
                         _______ _______ _______ _____ _____    ______ ____

>  <TORSDO>
F 11

$$$$
=
 OpenBabel11062413043D

 40 43  0  0  1  0  0  0  0  0999 V2000
  181.7180  179.3730  138.0650 C   0  0  2  0  0  3  0  0  0  0  0  0
  183.0060  176.7120  140.3110 O   0  0  0  0  0  0  0  0  0  0  0  0
  181.6540  178.5500  140.8380 N   0  0  0  0  0  0  0  0  0  0  0  0
  181.1390  179.8520  140.4160 C   0  0  0  0  0  2  0  0  0  0  0  0
  182.2770  177.9820  138.4120 C   0  0  2  0  0  3  0  0  0  0  0  0
  182.3670  177.7210  139.9000 C   0  0  0  0  0  0  0  0  0  0  0  0
  180.5900  179.7680  139.0040 C   0  0  0  0  0  2  0  0  0  0  0  0
  183.8720  176.5230  137.0760 N   0  0  0  0  0  0  0  0  0  0  0  0
  184.4840  178.6630  137.7760 O   0  0  0  0  0  0  0  0  0  0  0  0
  182.9090  175.5420  137.0190 O   0  0  0  0  0  0  0  0  0  0  0  0
  183.6040  177.7580  137.7450 C   0  0  0  0  0  0  0  0  0  0  0  0
  184.9790  176.3280  136.5340 O   0  0  0  0  0  0  0  0  0  0  0  0
  182.5070  179.3000  143.0100 C   0  0  1  0  0  3  0  0  0  0  0  0
  181.6980  178.2480  142.2690 C   0  0  1  0  0  3  0  0  0  0  0  0
  180.4640  178.7950  144.2330 O   0  0  0  0  0  1  0  0  0  0  0  0
  180.9790  179.3350  143.0520 C   0  0  1  0  0  3  0  0  0  0  0  0
  183.1460  178.6630  144.2370 C   0  0  0  0  0  2  0  0  0  0  0  0
  185.0060  178.1690  142.6120 N   0  0  0  0  0  2  0  0  0  0  0  0
  186.9010  177.9560  144.6160 C   0  0  0  0  0  3  0  0  0  0  0  0
  186.3270  177.8820  142.3240 O   0  0  0  0  0  0  0  0  0  0  0  0
  184.5870  178.3700  143.9680 C   0  0  0  0  0  0  0  0  0  0  0  0
  187.2750  177.7830  143.3470 C   0  0  0  0  0  0  0  0  0  0  0  0
  185.4940  178.2630  144.9560 C   0  0  0  0  0  0  0  0  0  0  0  0
  188.9720  177.3780  142.9550 P   0  0  2  0  0  0  0  0  0  0  0  0
  189.3160  176.0540  143.5960 O   0  0  0  0  0  1  0  0  0  0  0  0
  190.0070  178.5710  143.5640 O   0  0  0  0  0  0  0  0  0  0  0  0
  189.1660  177.2410  141.2750 O   0  0  0  0  0  0  0  0  0  0  0  0
  190.5380  177.3610  141.0470 C   0  0  0  0  0  1  0  0  0  0  0  0
  185.1080  178.4470  146.3650 C   0  0  0  0  0  3  0  0  0  0  0  0
  185.6850  179.3270  147.1130 N   0  0  0  0  0  2  0  0  0  0  0  0
  181.1880  179.3940  136.6400 C   0  0  0  0  0  2  0  0  0  0  0  0
  179.9020  180.1980  136.5710 C   0  0  0  0  0  2  0  0  0  0  0  0
  180.0720  181.3780  135.6290 C   0  0  0  0  0  2  0  0  0  0  0  0
  181.2040  184.8960  136.3580 C   0  0  0  0  0  2  0  0  0  0  0  0
  178.9340  183.9130  138.2670 C   0  0  0  0  0  1  0  0  0  0  0  0
  180.7410  184.3760  135.0040 C   0  0  0  0  0  2  0  0  0  0  0  0
  179.3420  182.6080  136.1570 C   0  0  1  0  0  3  0  0  0  0  0  0
  179.9230  183.0420  137.5100 C   0  0  1  0  0  3  0  0  0  0  0  0
  181.2750  183.7480  137.3630 C   0  0  0  0  0  2  0  0  0  0  0  0
  179.3550  183.7520  135.1310 C   0  0  0  0  0  2  0  0  0  0  0  0
  1 31  1  6  0  0  0
  1  5  1  0  0  0  0
  1  7  1  0  0  0  0
  4  3  1  0  0  0  0
  5 11  1  1  0  0  0
  5  6  1  0  0  0  0
  6  2  2  0  0  0  0
  6  3  1  0  0  0  0
  7  4  1  0  0  0  0
  8 11  1  0  0  0  0
 10  8  2  0  0  0  0
 11  9  2  0  0  0  0
 12  8  2  0  0  0  0
 13 16  1  0  0  0  0
 13 17  1  1  0  0  0
 14  3  1  6  0  0  0
 14 13  1  0  0  0  0
 14 16  1  0  0  0  0
 16 15  1  1  0  0  0
 18 21  1  0  0  0  0
 19 23  1  0  0  0  0
 20 18  1  0  0  0  0
 20 22  1  0  0  0  0
 21 17  1  0  0  0  0
 21 23  2  0  0  0  0
 22 19  2  0  0  0  0
 23 29  1  0  0  0  0
 24 22  1  0  0  0  0
 24 26  2  1  0  0  0
 24 25  1  0  0  0  0
 27 24  1  0  0  0  0
 28 27  1  0  0  0  0
 29 30  2  0  0  0  0
 32 31  1  0  0  0  0
 33 32  1  0  0  0  0
 34 39  1  0  0  0  0
 36 40  1  0  0  0  0
 36 34  1  0  0  0  0
 37 33  1  6  0  0  0
 37 38  1  0  0  0  0
 38 35  1  6  0  0  0
 39 38  1  0  0  0  0
 40 37  1  0  0  0  0
M  END
>  <MODEL>
6

>  <REMARK>
 VINA RESULT:      -7.3      6.698     10.901
  Name = 
  11 active torsions:
  status: ('A' for Active; 'I' for Inactive)
    1  A    between atoms: C_2  and  C_34
    2  A    between atoms: P_3  and  O_12
    3  A    between atoms: P_3  and  C_35
    4  A    between atoms: C_6  and  C_19
    5  A    between atoms: C_8  and  N_18
    6  A    between atoms: C_9  and  C_39
    7  A    between atoms: C_10  and  C_29
    8  A    between atoms: C_10  and  C_34
    9  A    between atoms: C_19  and  C_30
   10  A    between atoms: C_21  and  C_27
   11  A    between atoms: C_29  and  C_32
                            x       y       z     vdW  Elec       q    Type
                         _______ _______ _______ _____ _____    ______ ____

>  <TORSDO>
F 11

$$$$
=
 OpenBabel11062413043D

 40 43  0  0  1  0  0  0  0  0999 V2000
  188.6770  177.2840  141.6780 C   0  0  2  0  0  3  0  0  0  0  0  0
  192.2140  177.1560  140.5590 O   0  0  0  0  0  0  0  0  0  0  0  0
  190.2730  177.3540  139.2660 N   0  0  0  0  0  0  0  0  0  0  0  0
  188.8170  177.2240  139.2150 C   0  0  0  0  0  2  0  0  0  0  0  0
  190.2010  177.4300  141.8320 C   0  0  2  0  0  3  0  0  0  0  0  0
  190.9570  177.2720  140.5310 C   0  0  0  0  0  0  0  0  0  0  0  0
  188.1830  177.9340  140.3970 C   0  0  0  0  0  2  0  0  0  0  0  0
  191.5770  176.9710  143.9180 N   0  0  0  0  0  0  0  0  0  0  0  0
  190.4130  175.2650  142.8340 O   0  0  0  0  0  0  0  0  0  0  0  0
  191.9030  178.3060  143.9830 O   0  0  0  0  0  0  0  0  0  0  0  0
  190.7260  176.4870  142.8770 C   0  0  0  0  0  0  0  0  0  0  0  0
  192.0270  176.1880  144.7790 O   0  0  0  0  0  0  0  0  0  0  0  0
  191.9800  176.0830  138.0500 C   0  0  1  0  0  3  0  0  0  0  0  0
  191.0250  177.2650  138.0140 C   0  0  1  0  0  3  0  0  0  0  0  0
  190.8330  176.1710  135.9060 O   0  0  0  0  0  1  0  0  0  0  0  0
  190.6630  175.9840  137.2800 C   0  0  1  0  0  3  0  0  0  0  0  0
  193.1880  176.3920  137.1760 C   0  0  0  0  0  2  0  0  0  0  0  0
  193.8200  174.0830  137.9610 N   0  0  0  0  0  2  0  0  0  0  0  0
  195.9570  173.9120  136.2120 C   0  0  0  0  0  3  0  0  0  0  0  0
  194.6250  172.9600  137.9190 O   0  0  0  0  0  0  0  0  0  0  0  0
  194.0730  175.1900  137.0870 C   0  0  0  0  0  0  0  0  0  0  0  0
  195.6980  172.8860  137.0250 C   0  0  0  0  0  0  0  0  0  0  0  0
  195.1130  175.1270  136.2350 C   0  0  0  0  0  0  0  0  0  0  0  0
  196.7480  171.4380  137.0110 P   0  0  2  0  0  0  0  0  0  0  0  0
  196.8510  170.9260  135.5940 O   0  0  0  0  0  0  0  0  0  0  0  0
  196.0770  170.2280  137.9870 O   0  0  0  0  0  1  0  0  0  0  0  0
  198.3000  171.8380  137.5660 O   0  0  0  0  0  0  0  0  0  0  0  0
  199.1090  171.8620  136.4280 C   0  0  0  0  0  1  0  0  0  0  0  0
  195.4220  176.2460  135.3290 C   0  0  0  0  0  3  0  0  0  0  0  0
  196.5670  176.8440  135.3620 N   0  0  0  0  0  2  0  0  0  0  0  0
  187.9590  177.9280  142.8530 C   0  0  0  0  0  2  0  0  0  0  0  0
  187.0090  176.9340  143.4970 C   0  0  0  0  0  2  0  0  0  0  0  0
  187.3750  176.7300  144.9570 C   0  0  0  0  0  2  0  0  0  0  0  0
  188.6760  177.6490  148.3710 C   0  0  0  0  0  2  0  0  0  0  0  0
  186.4490  179.5830  147.3410 C   0  0  0  0  0  1  0  0  0  0  0  0
  189.5260  177.4360  147.1250 C   0  0  0  0  0  2  0  0  0  0  0  0
  187.5540  178.0670  145.6680 C   0  0  1  0  0  3  0  0  0  0  0  0
  186.6640  178.1400  146.9160 C   0  0  1  0  0  3  0  0  0  0  0  0
  187.2180  177.3030  148.0750 C   0  0  0  0  0  2  0  0  0  0  0  0
  189.0310  178.3340  145.9960 C   0  0  0  0  0  2  0  0  0  0  0  0
  1  5  1  0  0  0  0
  1 31  1  1  0  0  0
  3  6  1  0  0  0  0
  4  3  1  0  0  0  0
  4  7  1  0  0  0  0
  5 11  1  1  0  0  0
  6  2  2  0  0  0  0
  6  5  1  0  0  0  0
  7  1  1  0  0  0  0
  8 10  2  0  0  0  0
  8 12  2  0  0  0  0
  9 11  2  0  0  0  0
 11  8  1  0  0  0  0
 13 17  1  6  0  0  0
 14 13  1  0  0  0  0
 14  3  1  1  0  0  0
 16 15  1  6  0  0  0
 16 14  1  0  0  0  0
 16 13  1  0  0  0  0
 19 23  1  0  0  0  0
 19 22  2  0  0  0  0
 20 18  1  0  0  0  0
 21 17  1  0  0  0  0
 21 18  1  0  0  0  0
 22 20  1  0  0  0  0
 23 21  2  0  0  0  0
 24 25  2  6  0  0  0
 24 22  1  0  0  0  0
 24 27  1  0  0  0  0
 24 26  1  0  0  0  0
 28 27  1  0  0  0  0
 29 30  2  0  0  0  0
 29 23  1  0  0  0  0
 31 32  1  0  0  0  0
 32 33  1  0  0  0  0
 36 34  1  0  0  0  0
 37 33  1  1  0  0  0
 37 40  1  0  0  0  0
 37 38  1  0  0  0  0
 38 35  1  1  0  0  0
 38 39  1  0  0  0  0
 39 34  1  0  0  0  0
 40 36  1  0  0  0  0
M  END
>  <MODEL>
7

>  <REMARK>
 VINA RESULT:      -7.0      1.845      2.429
  Name = 
  11 active torsions:
  status: ('A' for Active; 'I' for Inactive)
    1  A    between atoms: C_2  and  C_34
    2  A    between atoms: P_3  and  O_12
    3  A    between atoms: P_3  and  C_35
    4  A    between atoms: C_6  and  C_19
    5  A    between atoms: C_8  and  N_18
    6  A    between atoms: C_9  and  C_39
    7  A    between atoms: C_10  and  C_29
    8  A    between atoms: C_10  and  C_34
    9  A    between atoms: C_19  and  C_30
   10  A    between atoms: C_21  and  C_27
   11  A    between atoms: C_29  and  C_32
                            x       y       z     vdW  Elec       q    Type
                         _______ _______ _______ _____ _____    ______ ____

>  <TORSDO>
F 11

$$$$
=
 OpenBabel11062413043D

 40 43  0  0  1  0  0  0  0  0999 V2000
  184.7740  178.6640  144.3120 C   0  0  2  0  0  3  0  0  0  0  0  0
  184.8900  178.7880  140.6030 O   0  0  0  0  0  0  0  0  0  0  0  0
  183.0350  178.9770  142.0200 N   0  0  0  0  0  0  0  0  0  0  0  0
  182.4970  178.7780  143.3650 C   0  0  0  0  0  2  0  0  0  0  0  0
  185.4320  178.8750  142.9370 C   0  0  2  0  0  3  0  0  0  0  0  0
  184.4510  178.8440  141.7860 C   0  0  0  0  0  0  0  0  0  0  0  0
  183.4330  179.3750  144.4000 C   0  0  0  0  0  2  0  0  0  0  0  0
  187.6670  178.2430  141.9070 N   0  0  0  0  0  0  0  0  0  0  0  0
  186.4900  176.7510  143.2600 O   0  0  0  0  0  0  0  0  0  0  0  0
  187.7440  179.4910  141.3340 O   0  0  0  0  0  0  0  0  0  0  0  0
  186.5460  177.8900  142.7210 C   0  0  0  0  0  0  0  0  0  0  0  0
  188.5870  177.4210  141.7130 O   0  0  0  0  0  0  0  0  0  0  0  0
  181.1230  177.8510  140.9790 C   0  0  1  0  0  3  0  0  0  0  0  0
  182.1020  179.0100  140.8930 C   0  0  1  0  0  3  0  0  0  0  0  0
  179.9480  179.9030  140.4030 O   0  0  0  0  0  1  0  0  0  0  0  0
  180.6890  179.2570  141.3960 C   0  0  1  0  0  3  0  0  0  0  0  0
  180.6890  177.4600  139.5730 C   0  0  0  0  0  2  0  0  0  0  0  0
  182.6390  175.9310  139.1220 N   0  0  0  0  0  2  0  0  0  0  0  0
  183.4930  177.4150  136.9490 C   0  0  0  0  0  3  0  0  0  0  0  0
  183.7600  175.5670  138.3990 O   0  0  0  0  0  0  0  0  0  0  0  0
  181.8850  177.0920  138.7550 C   0  0  0  0  0  0  0  0  0  0  0  0
  184.1760  176.3230  137.3000 C   0  0  0  0  0  0  0  0  0  0  0  0
  182.2900  177.8300  137.7040 C   0  0  0  0  0  0  0  0  0  0  0  0
  185.6470  175.8540  136.3990 P   0  0  2  0  0  0  0  0  0  0  0  0
  185.2440  175.3640  135.0290 O   0  0  0  0  0  0  0  0  0  0  0  0
  186.4510  174.6070  137.2150 O   0  0  0  0  0  1  0  0  0  0  0  0
  186.6760  177.1910  136.2240 O   0  0  0  0  0  0  0  0  0  0  0  0
  187.3960  177.2680  137.4180 C   0  0  0  0  0  1  0  0  0  0  0  0
  181.5560  179.0400  137.2980 C   0  0  0  0  0  3  0  0  0  0  0  0
  180.8560  179.0720  136.2130 N   0  0  0  0  0  2  0  0  0  0  0  0
  185.6720  179.1910  145.4190 C   0  0  0  0  0  2  0  0  0  0  0  0
  185.8210  178.1490  146.5130 C   0  0  0  0  0  2  0  0  0  0  0  0
  187.0980  177.3510  146.3070 C   0  0  0  0  0  2  0  0  0  0  0  0
  190.7920  176.6310  146.1660 C   0  0  0  0  0  2  0  0  0  0  0  0
  190.0050  178.5710  148.4850 C   0  0  0  0  0  1  0  0  0  0  0  0
  189.9440  177.1410  145.0100 C   0  0  0  0  0  2  0  0  0  0  0  0
  188.3260  178.1860  146.6540 C   0  0  1  0  0  3  0  0  0  0  0  0
  189.1040  177.5480  147.8120 C   0  0  1  0  0  3  0  0  0  0  0  0
  189.9040  176.3190  147.3690 C   0  0  0  0  0  2  0  0  0  0  0  0
  189.2140  178.4160  145.4210 C   0  0  0  0  0  2  0  0  0  0  0  0
  1  7  1  0  0  0  0
  1 31  1  1  0  0  0
  2  6  2  0  0  0  0
  3  4  1  0  0  0  0
  4  7  1  0  0  0  0
  5 11  1  6  0  0  0
  5  1  1  0  0  0  0
  6  3  1  0  0  0  0
  6  5  1  0  0  0  0
  8 11  1  0  0  0  0
 10  8  2  0  0  0  0
 11  9  2  0  0  0  0
 12  8  2  0  0  0  0
 13 17  1  6  0  0  0
 13 16  1  0  0  0  0
 14 13  1  0  0  0  0
 14 16  1  0  0  0  0
 14  3  1  1  0  0  0
 16 15  1  6  0  0  0
 19 22  2  0  0  0  0
 19 23  1  0  0  0  0
 20 18  1  0  0  0  0
 21 18  1  0  0  0  0
 21 17  1  0  0  0  0
 22 20  1  0  0  0  0
 23 21  2  0  0  0  0
 24 25  2  6  0  0  0
 24 26  1  0  0  0  0
 24 22  1  0  0  0  0
 27 24  1  0  0  0  0
 27 28  1  0  0  0  0
 29 23  1  0  0  0  0
 30 29  2  0  0  0  0
 31 32  1  0  0  0  0
 33 32  1  0  0  0  0
 34 39  1  0  0  0  0
 36 40  1  0  0  0  0
 36 34  1  0  0  0  0
 37 33  1  6  0  0  0
 37 38  1  0  0  0  0
 38 35  1  6  0  0  0
 39 38  1  0  0  0  0
 40 37  1  0  0  0  0
M  END
>  <MODEL>
8

>  <REMARK>
 VINA RESULT:      -6.9      5.194      7.900
  Name = 
  11 active torsions:
  status: ('A' for Active; 'I' for Inactive)
    1  A    between atoms: C_2  and  C_34
    2  A    between atoms: P_3  and  O_12
    3  A    between atoms: P_3  and  C_35
    4  A    between atoms: C_6  and  C_19
    5  A    between atoms: C_8  and  N_18
    6  A    between atoms: C_9  and  C_39
    7  A    between atoms: C_10  and  C_29
    8  A    between atoms: C_10  and  C_34
    9  A    between atoms: C_19  and  C_30
   10  A    between atoms: C_21  and  C_27
   11  A    between atoms: C_29  and  C_32
                            x       y       z     vdW  Elec       q    Type
                         _______ _______ _______ _____ _____    ______ ____

>  <TORSDO>
F 11

$$$$
=
 OpenBabel11062413043D

 40 43  0  0  1  0  0  0  0  0999 V2000
  182.5170  176.9580  139.2770 C   0  0  2  0  0  3  0  0  0  0  0  0
  184.9230  179.7480  139.7370 O   0  0  0  0  0  0  0  0  0  0  0  0
  184.9660  178.0180  138.1590 N   0  0  0  0  0  0  0  0  0  0  0  0
  184.4530  176.7070  137.7660 C   0  0  0  0  0  2  0  0  0  0  0  0
  182.9750  178.3500  139.7470 C   0  0  2  0  0  3  0  0  0  0  0  0
  184.3510  178.7340  139.2480 C   0  0  0  0  0  0  0  0  0  0  0  0
  182.9370  176.6910  137.8410 C   0  0  0  0  0  2  0  0  0  0  0  0
  181.8140  179.1710  141.8520 N   0  0  0  0  0  0  0  0  0  0  0  0
  183.7850  177.9280  141.9610 O   0  0  0  0  0  0  0  0  0  0  0  0
  180.8290  179.7360  141.0750 O   0  0  0  0  0  0  0  0  0  0  0  0
  182.8950  178.4620  141.2430 C   0  0  0  0  0  0  0  0  0  0  0  0
  181.7520  179.2790  143.0940 O   0  0  0  0  0  0  0  0  0  0  0  0
  187.3130  177.3640  137.8900 C   0  0  1  0  0  3  0  0  0  0  0  0
  186.2690  178.4400  137.6430 C   0  0  1  0  0  3  0  0  0  0  0  0
  187.5270  178.2390  135.6290 O   0  0  0  0  0  1  0  0  0  0  0  0
  186.6960  177.5320  136.5020 C   0  0  1  0  0  3  0  0  0  0  0  0
  188.6790  178.0210  138.0450 C   0  0  0  0  0  2  0  0  0  0  0  0
  188.4090  178.6570  140.4660 N   0  0  0  0  0  2  0  0  0  0  0  0
  190.6060  177.1740  141.2560 C   0  0  0  0  0  3  0  0  0  0  0  0
  188.8050  178.6090  141.7900 O   0  0  0  0  0  0  0  0  0  0  0  0
  189.1310  177.9280  139.4660 C   0  0  0  0  0  0  0  0  0  0  0  0
  189.9140  177.8500  142.1750 C   0  0  0  0  0  0  0  0  0  0  0  0
  190.2070  177.2070  139.8320 C   0  0  0  0  0  0  0  0  0  0  0  0
  190.4300  177.8290  143.8870 P   0  0  2  0  0  0  0  0  0  0  0  0
  191.4910  178.8850  144.0890 O   0  0  0  0  0  0  0  0  0  0  0  0
  191.0790  176.3140  144.2760 O   0  0  0  0  0  1  0  0  0  0  0  0
  189.1120  178.1740  144.8980 O   0  0  0  0  0  0  0  0  0  0  0  0
  189.1040  177.1610  145.8590 C   0  0  0  0  0  1  0  0  0  0  0  0
  190.9900  176.4540  138.8370 C   0  0  0  0  0  3  0  0  0  0  0  0
  192.2090  176.7740  138.5570 N   0  0  0  0  0  2  0  0  0  0  0  0
  181.0050  176.8360  139.3670 C   0  0  0  0  0  2  0  0  0  0  0  0
  180.4400  176.3320  138.0510 C   0  0  0  0  0  2  0  0  0  0  0  0
  179.8930  174.9240  138.2200 C   0  0  0  0  0  2  0  0  0  0  0  0
  181.6620  171.8970  136.8450 C   0  0  0  0  0  2  0  0  0  0  0  0
  180.9780  174.0210  134.6580 C   0  0  0  0  0  1  0  0  0  0  0  0
  180.3950  171.8760  137.6890 C   0  0  0  0  0  2  0  0  0  0  0  0
  179.8130  174.2040  136.8790 C   0  0  1  0  0  3  0  0  0  0  0  0
  181.1590  174.2760  136.1460 C   0  0  1  0  0  3  0  0  0  0  0  0
  182.1990  173.3220  136.7430 C   0  0  0  0  0  2  0  0  0  0  0  0
  179.3260  172.7560  137.0480 C   0  0  0  0  0  2  0  0  0  0  0  0
  1 31  1  6  0  0  0
  1  5  1  0  0  0  0
  3  6  1  0  0  0  0
  4  7  1  0  0  0  0
  4  3  1  0  0  0  0
  5 11  1  1  0  0  0
  6  2  2  0  0  0  0
  6  5  1  0  0  0  0
  7  1  1  0  0  0  0
  8 12  2  0  0  0  0
 10  8  2  0  0  0  0
 11  8  1  0  0  0  0
 11  9  2  0  0  0  0
 13 17  1  6  0  0  0
 14 13  1  0  0  0  0
 14  3  1  1  0  0  0
 16 15  1  6  0  0  0
 16 14  1  0  0  0  0
 16 13  1  0  0  0  0
 17 21  1  0  0  0  0
 18 20  1  0  0  0  0
 19 22  2  0  0  0  0
 20 22  1  0  0  0  0
 21 23  2  0  0  0  0
 21 18  1  0  0  0  0
 22 24  1  0  0  0  0
 23 19  1  0  0  0  0
 24 25  2  1  0  0  0
 24 26  1  0  0  0  0
 24 27  1  0  0  0  0
 27 28  1  0  0  0  0
 29 23  1  0  0  0  0
 30 29  2  0  0  0  0
 32 33  1  0  0  0  0
 32 31  1  0  0  0  0
 34 36  1  0  0  0  0
 37 40  1  0  0  0  0
 37 33  1  1  0  0  0
 38 35  1  6  0  0  0
 38 39  1  0  0  0  0
 38 37  1  0  0  0  0
 39 34  1  0  0  0  0
 40 36  1  0  0  0  0
M  END
>  <MODEL>
9

>  <REMARK>
 VINA RESULT:      -6.6      5.750      8.716
  Name = 
  11 active torsions:
  status: ('A' for Active; 'I' for Inactive)
    1  A    between atoms: C_2  and  C_34
    2  A    between atoms: P_3  and  O_12
    3  A    between atoms: P_3  and  C_35
    4  A    between atoms: C_6  and  C_19
    5  A    between atoms: C_8  and  N_18
    6  A    between atoms: C_9  and  C_39
    7  A    between atoms: C_10  and  C_29
    8  A    between atoms: C_10  and  C_34
    9  A    between atoms: C_19  and  C_30
   10  A    between atoms: C_21  and  C_27
   11  A    between atoms: C_29  and  C_32
                            x       y       z     vdW  Elec       q    Type
                         _______ _______ _______ _____ _____    ______ ____

>  <TORSDO>
F 11

$$$$
