=
 OpenBabel11062418103D

 25 27  0  0  0  0  0  0  0  0999 V2000
  186.9710  178.5680  139.9960 O   0  0  0  0  0  0  0  0  0  0  0  0
  182.5480  178.7920  144.3730 C   0  0  0  0  0  3  0  0  0  0  0  0
  182.7900  179.0610  141.9770 C   0  0  0  0  0  3  0  0  0  0  0  0
  186.2820  178.5540  141.0500 C   0  0  0  0  0  0  0  0  0  0  0  0
  181.9750  179.0580  143.1200 C   0  0  0  0  0  0  0  0  0  0  0  0
  186.0890  178.2780  143.4410 C   0  0  0  0  0  3  0  0  0  0  0  0
  184.9460  178.8040  140.9790 N   0  0  0  0  0  2  0  0  0  0  0  0
  183.9170  178.5320  144.4890 C   0  0  0  0  0  3  0  0  0  0  0  0
  184.1580  178.8010  142.0850 C   0  0  0  0  0  0  0  0  0  0  0  0
  186.8880  178.2840  142.2900 C   0  0  0  0  0  0  0  0  0  0  0  0
  184.7230  178.5350  143.3490 C   0  0  0  0  0  0  0  0  0  0  0  0
  188.2520  175.7990  143.1010 O   0  0  0  0  0  0  0  0  0  0  0  0
  188.2980  178.0240  142.3490 N   0  0  0  0  0  2  0  0  0  0  0  0
  188.9300  176.8040  142.7590 C   0  0  0  0  0  0  0  0  0  0  0  0
  190.4150  176.7130  142.7470 C   0  0  0  0  0  2  0  0  0  0  0  0
  190.9950  177.6630  143.7760 C   0  0  0  0  0  2  0  0  0  0  0  0
  190.7770  177.1260  145.1070 N   0  0  0  0  0  2  0  0  0  0  0  0
  189.9440  177.9840  145.7420 O   0  0  0  0  0  0  0  0  0  0  0  0
  189.2080  177.1800  146.6140 C   0  0  0  0  0  3  0  0  0  0  0  0
  187.7420  177.5530  146.5310 C   0  0  0  0  0  2  0  0  0  0  0  0
  189.2720  177.7590  148.0130 C   0  0  0  0  0  2  0  0  0  0  0  0
  187.8080  178.1370  147.9270 C   0  0  0  0  0  2  0  0  0  0  0  0
  180.1260  180.4880  142.7070 O   0  0  0  0  0  0  0  0  0  0  0  0
  180.5320  179.3330  143.0040 C   0  0  0  0  0  0  0  0  0  0  0  0
  179.5800  178.2970  143.2270 N   0  0  0  0  0  1  0  0  0  0  0  0
  1  4  2  0  0  0  0
  2  8  1  0  0  0  0
  3  9  2  0  0  0  0
  3  5  1  0  0  0  0
  4 10  1  0  0  0  0
  5  2  2  0  0  0  0
  7  4  1  0  0  0  0
  7  9  1  0  0  0  0
  9 11  1  0  0  0  0
 10 13  1  0  0  0  0
 10  6  2  0  0  0  0
 11  6  1  0  0  0  0
 11  8  2  0  0  0  0
 13 14  1  0  0  0  0
 14 12  2  0  0  0  0
 15 14  1  0  0  0  0
 15 16  1  0  0  0  0
 16 17  1  0  0  0  0
 17 18  1  0  0  0  0
 18 19  1  0  0  0  0
 19 21  1  0  0  0  0
 20 19  1  0  0  0  0
 20 22  1  0  0  0  0
 22 21  1  0  0  0  0
 23 24  2  0  0  0  0
 24  5  1  0  0  0  0
 24 25  1  0  0  0  0
M  END
>  <MODEL>
1

>  <REMARK>
 VINA RESULT:      -8.0      0.000      0.000
  Name = 
  7 active torsions:
  status: ('A' for Active; 'I' for Inactive)
    1  A    between atoms: C_1  and  C_17
    2  A    between atoms: C_1  and  C_20
    3  A    between atoms: C_2  and  O_18
    4  A    between atoms: N_6  and  O_18
    5  A    between atoms: N_6  and  C_20
    6  A    between atoms: C_11  and  C_21
    7  A    between atoms: N_15  and  C_23
                            x       y       z     vdW  Elec       q    Type
                         _______ _______ _______ _____ _____    ______ ____

>  <TORSDO>
F 7

$$$$
=
 OpenBabel11062418103D

 25 27  0  0  0  0  0  0  0  0999 V2000
  185.7610  178.8290  147.3290 O   0  0  0  0  0  0  0  0  0  0  0  0
  182.7160  178.6330  141.9010 C   0  0  0  0  0  3  0  0  0  0  0  0
  182.2910  179.0990  144.2410 C   0  0  0  0  0  3  0  0  0  0  0  0
  185.3890  178.7200  146.1310 C   0  0  0  0  0  0  0  0  0  0  0  0
  181.8220  178.9910  142.9220 C   0  0  0  0  0  0  0  0  0  0  0  0
  185.8590  178.2470  143.8100 C   0  0  0  0  0  3  0  0  0  0  0  0
  184.0870  178.9540  145.8110 N   0  0  0  0  0  2  0  0  0  0  0  0
  184.0620  178.3830  142.1880 C   0  0  0  0  0  3  0  0  0  0  0  0
  183.6340  178.8510  144.5350 C   0  0  0  0  0  0  0  0  0  0  0  0
  186.3100  178.3590  145.1320 C   0  0  0  0  0  0  0  0  0  0  0  0
  184.5230  178.4910  143.5010 C   0  0  0  0  0  0  0  0  0  0  0  0
  188.1510  176.3460  144.0110 O   0  0  0  0  0  0  0  0  0  0  0  0
  187.6800  178.1140  145.4840 N   0  0  0  0  0  2  0  0  0  0  0  0
  188.5470  177.1180  144.9250 C   0  0  0  0  0  0  0  0  0  0  0  0
  189.9490  177.0170  145.4110 C   0  0  0  0  0  2  0  0  0  0  0  0
  190.8670  177.8030  144.4960 C   0  0  0  0  0  2  0  0  0  0  0  0
  191.3170  176.9490  143.4130 N   0  0  0  0  0  2  0  0  0  0  0  0
  191.2580  177.6900  142.2820 O   0  0  0  0  0  0  0  0  0  0  0  0
  190.5300  176.9060  141.3850 C   0  0  0  0  0  3  0  0  0  0  0  0
  191.0640  177.1150  139.9820 C   0  0  0  0  0  2  0  0  0  0  0  0
  189.2540  177.6250  141.0020 C   0  0  0  0  0  2  0  0  0  0  0  0
  189.7890  177.8390  139.6020 C   0  0  0  0  0  2  0  0  0  0  0  0
  180.0440  180.3840  142.1950 O   0  0  0  0  0  0  0  0  0  0  0  0
  180.4050  179.2530  142.6140 C   0  0  0  0  0  0  0  0  0  0  0  0
  179.4290  178.2300  142.7880 N   0  0  0  0  0  1  0  0  0  0  0  0
  2  8  2  0  0  0  0
  2  5  1  0  0  0  0
  3  9  1  0  0  0  0
  4  1  2  0  0  0  0
  5  3  2  0  0  0  0
  6 10  2  0  0  0  0
  7  4  1  0  0  0  0
  8 11  1  0  0  0  0
  9  7  1  0  0  0  0
 10 13  1  0  0  0  0
 10  4  1  0  0  0  0
 11  6  1  0  0  0  0
 11  9  2  0  0  0  0
 12 14  2  0  0  0  0
 14 15  1  0  0  0  0
 14 13  1  0  0  0  0
 16 15  1  0  0  0  0
 17 16  1  0  0  0  0
 18 17  1  0  0  0  0
 19 18  1  0  0  0  0
 20 19  1  0  0  0  0
 21 19  1  0  0  0  0
 22 20  1  0  0  0  0
 22 21  1  0  0  0  0
 23 24  2  0  0  0  0
 24 25  1  0  0  0  0
 24  5  1  0  0  0  0
M  END
>  <MODEL>
2

>  <REMARK>
 VINA RESULT:      -7.7      2.132      3.928
  Name = 
  7 active torsions:
  status: ('A' for Active; 'I' for Inactive)
    1  A    between atoms: C_1  and  C_17
    2  A    between atoms: C_1  and  C_20
    3  A    between atoms: C_2  and  O_18
    4  A    between atoms: N_6  and  O_18
    5  A    between atoms: N_6  and  C_20
    6  A    between atoms: C_11  and  C_21
    7  A    between atoms: N_15  and  C_23
                            x       y       z     vdW  Elec       q    Type
                         _______ _______ _______ _____ _____    ______ ____

>  <TORSDO>
F 7

$$$$
=
 OpenBabel11062418103D

 25 27  0  0  0  0  0  0  0  0999 V2000
  184.9330  178.4880  145.2760 O   0  0  0  0  0  0  0  0  0  0  0  0
  190.7690  176.4290  144.5850 C   0  0  0  0  0  3  0  0  0  0  0  0
  189.2830  177.2170  146.3300 C   0  0  0  0  0  3  0  0  0  0  0  0
  186.0430  178.0510  144.8740 C   0  0  0  0  0  0  0  0  0  0  0  0
  190.5400  176.7320  145.9360 C   0  0  0  0  0  0  0  0  0  0  0  0
  187.4890  177.2730  143.1020 C   0  0  0  0  0  3  0  0  0  0  0  0
  187.0530  177.8650  145.7680 N   0  0  0  0  0  2  0  0  0  0  0  0
  189.7580  176.6070  143.6350 C   0  0  0  0  0  3  0  0  0  0  0  0
  188.2690  177.3960  145.3860 C   0  0  0  0  0  0  0  0  0  0  0  0
  186.2390  177.7570  143.5130 C   0  0  0  0  0  0  0  0  0  0  0  0
  188.5100  177.0880  144.0320 C   0  0  0  0  0  0  0  0  0  0  0  0
  186.0260  179.7880  141.3850 O   0  0  0  0  0  0  0  0  0  0  0  0
  185.1660  177.9580  142.5820 N   0  0  0  0  0  2  0  0  0  0  0  0
  185.0890  178.9640  141.5620 C   0  0  0  0  0  0  0  0  0  0  0  0
  183.8950  179.0150  140.6770 C   0  0  0  0  0  2  0  0  0  0  0  0
  184.3200  179.3380  139.2590 C   0  0  0  0  0  2  0  0  0  0  0  0
  185.2000  178.2930  138.7690 N   0  0  0  0  0  2  0  0  0  0  0  0
  186.1480  178.9020  138.0190 O   0  0  0  0  0  0  0  0  0  0  0  0
  187.1850  177.9700  137.9370 C   0  0  0  0  0  3  0  0  0  0  0  0
  187.9990  178.0060  139.2150 C   0  0  0  0  0  2  0  0  0  0  0  0
  188.3510  178.5740  137.1820 C   0  0  0  0  0  2  0  0  0  0  0  0
  189.1630  178.6140  138.4590 C   0  0  0  0  0  2  0  0  0  0  0  0
  192.4670  175.6340  146.7810 O   0  0  0  0  0  0  0  0  0  0  0  0
  191.6090  176.5440  146.9330 C   0  0  0  0  0  0  0  0  0  0  0  0
  191.6840  177.3880  148.0780 N   0  0  0  0  0  1  0  0  0  0  0  0
  2  5  1  0  0  0  0
  4  1  2  0  0  0  0
  4  7  1  0  0  0  0
  5  3  2  0  0  0  0
  5 24  1  0  0  0  0
  6 10  2  0  0  0  0
  6 11  1  0  0  0  0
  8 11  1  0  0  0  0
  8  2  2  0  0  0  0
  9  7  1  0  0  0  0
  9  3  1  0  0  0  0
 10  4  1  0  0  0  0
 11  9  2  0  0  0  0
 12 14  2  0  0  0  0
 13 10  1  0  0  0  0
 14 13  1  0  0  0  0
 15 14  1  0  0  0  0
 16 15  1  0  0  0  0
 17 16  1  0  0  0  0
 18 17  1  0  0  0  0
 19 18  1  0  0  0  0
 19 20  1  0  0  0  0
 21 19  1  0  0  0  0
 21 22  1  0  0  0  0
 22 20  1  0  0  0  0
 23 24  2  0  0  0  0
 24 25  1  0  0  0  0
M  END
>  <MODEL>
3

>  <REMARK>
 VINA RESULT:      -7.6      2.825      7.914
  Name = 
  7 active torsions:
  status: ('A' for Active; 'I' for Inactive)
    1  A    between atoms: C_1  and  C_17
    2  A    between atoms: C_1  and  C_20
    3  A    between atoms: C_2  and  O_18
    4  A    between atoms: N_6  and  O_18
    5  A    between atoms: N_6  and  C_20
    6  A    between atoms: C_11  and  C_21
    7  A    between atoms: N_15  and  C_23
                            x       y       z     vdW  Elec       q    Type
                         _______ _______ _______ _____ _____    ______ ____

>  <TORSDO>
F 7

$$$$
=
 OpenBabel11062418103D

 25 27  0  0  0  0  0  0  0  0999 V2000
  188.2680  177.1730  143.1020 O   0  0  0  0  0  0  0  0  0  0  0  0
  182.3880  179.1120  143.7610 C   0  0  0  0  0  3  0  0  0  0  0  0
  183.8820  178.3010  142.0340 C   0  0  0  0  0  3  0  0  0  0  0  0
  187.1500  177.5960  143.4960 C   0  0  0  0  0  0  0  0  0  0  0  0
  182.6160  178.7680  142.4200 C   0  0  0  0  0  0  0  0  0  0  0  0
  185.6970  178.4010  145.2490 C   0  0  0  0  0  3  0  0  0  0  0  0
  186.1310  177.7270  142.6030 N   0  0  0  0  0  2  0  0  0  0  0  0
  183.4090  178.9930  144.7100 C   0  0  0  0  0  3  0  0  0  0  0  0
  184.9060  178.1790  142.9770 C   0  0  0  0  0  0  0  0  0  0  0  0
  186.9550  177.9320  144.8470 C   0  0  0  0  0  0  0  0  0  0  0  0
  184.6660  178.5270  144.3210 C   0  0  0  0  0  0  0  0  0  0  0  0
  186.8690  178.0980  147.7910 O   0  0  0  0  0  0  0  0  0  0  0  0
  188.0400  177.7900  145.7770 N   0  0  0  0  0  2  0  0  0  0  0  0
  187.9650  177.8860  147.2060 C   0  0  0  0  0  0  0  0  0  0  0  0
  189.1990  177.7000  148.0140 C   0  0  0  0  0  2  0  0  0  0  0  0
  190.1010  176.6820  147.3460 C   0  0  0  0  0  2  0  0  0  0  0  0
  191.4440  177.2220  147.2400 N   0  0  0  0  0  2  0  0  0  0  0  0
  192.0170  176.6340  146.1630 O   0  0  0  0  0  0  0  0  0  0  0  0
  191.1010  176.8280  145.1270 C   0  0  0  0  0  3  0  0  0  0  0  0
  191.5390  176.0410  143.9090 C   0  0  0  0  0  2  0  0  0  0  0  0
  191.4210  178.1190  144.4020 C   0  0  0  0  0  2  0  0  0  0  0  0
  191.8640  177.3320  143.1870 C   0  0  0  0  0  2  0  0  0  0  0  0
  181.7880  179.3230  140.2660 O   0  0  0  0  0  0  0  0  0  0  0  0
  181.5370  178.8960  141.4250 C   0  0  0  0  0  0  0  0  0  0  0  0
  180.1990  178.5410  141.7610 N   0  0  0  0  0  1  0  0  0  0  0  0
  1  4  2  0  0  0  0
  2  8  1  0  0  0  0
  3  5  1  0  0  0  0
  3  9  2  0  0  0  0
  4 10  1  0  0  0  0
  5  2  2  0  0  0  0
  7  9  1  0  0  0  0
  7  4  1  0  0  0  0
  9 11  1  0  0  0  0
 10  6  2  0  0  0  0
 10 13  1  0  0  0  0
 11  8  2  0  0  0  0
 11  6  1  0  0  0  0
 13 14  1  0  0  0  0
 14 12  2  0  0  0  0
 14 15  1  0  0  0  0
 16 15  1  0  0  0  0
 17 16  1  0  0  0  0
 18 17  1  0  0  0  0
 19 18  1  0  0  0  0
 20 19  1  0  0  0  0
 21 19  1  0  0  0  0
 22 20  1  0  0  0  0
 22 21  1  0  0  0  0
 23 24  2  0  0  0  0
 24 25  1  0  0  0  0
 24  5  1  0  0  0  0
M  END
>  <MODEL>
4

>  <REMARK>
 VINA RESULT:      -7.5      1.736      3.255
  Name = 
  7 active torsions:
  status: ('A' for Active; 'I' for Inactive)
    1  A    between atoms: C_1  and  C_17
    2  A    between atoms: C_1  and  C_20
    3  A    between atoms: C_2  and  O_18
    4  A    between atoms: N_6  and  O_18
    5  A    between atoms: N_6  and  C_20
    6  A    between atoms: C_11  and  C_21
    7  A    between atoms: N_15  and  C_23
                            x       y       z     vdW  Elec       q    Type
                         _______ _______ _______ _____ _____    ______ ____

>  <TORSDO>
F 7

$$$$
=
 OpenBabel11062418103D

 25 27  0  0  0  0  0  0  0  0999 V2000
  186.9690  178.0010  142.0120 O   0  0  0  0  0  0  0  0  0  0  0  0
  189.1360  177.0360  147.7700 C   0  0  0  0  0  3  0  0  0  0  0  0
  189.9310  177.0760  145.4800 C   0  0  0  0  0  3  0  0  0  0  0  0
  187.1490  177.8520  143.2490 C   0  0  0  0  0  0  0  0  0  0  0  0
  190.1870  176.9000  146.8490 C   0  0  0  0  0  0  0  0  0  0  0  0
  186.3130  177.8220  145.5150 C   0  0  0  0  0  3  0  0  0  0  0  0
  188.3940  177.5530  143.7130 N   0  0  0  0  0  2  0  0  0  0  0  0
  187.8430  177.3420  147.3330 C   0  0  0  0  0  3  0  0  0  0  0  0
  188.6410  177.3830  145.0380 C   0  0  0  0  0  0  0  0  0  0  0  0
  186.0750  177.9950  144.1440 C   0  0  0  0  0  0  0  0  0  0  0  0
  187.5930  177.5160  145.9710 C   0  0  0  0  0  0  0  0  0  0  0  0
  183.7620  179.0790  145.6190 O   0  0  0  0  0  0  0  0  0  0  0  0
  184.7680  178.3100  143.6400 N   0  0  0  0  0  2  0  0  0  0  0  0
  183.6600  178.8280  144.3890 C   0  0  0  0  0  0  0  0  0  0  0  0
  182.3760  179.1050  143.6910 C   0  0  0  0  0  2  0  0  0  0  0  0
  182.5190  178.8010  142.2130 C   0  0  0  0  0  2  0  0  0  0  0  0
  181.2030  178.6410  141.6230 N   0  0  0  0  0  2  0  0  0  0  0  0
  180.4280  179.6330  142.1220 O   0  0  0  0  0  0  0  0  0  0  0  0
  179.4420  179.8300  141.1540 C   0  0  0  0  0  3  0  0  0  0  0  0
  180.0950  180.1000  139.8130 C   0  0  0  0  0  2  0  0  0  0  0  0
  178.9620  181.2660  141.2040 C   0  0  0  0  0  2  0  0  0  0  0  0
  179.6200  181.5370  139.8670 C   0  0  0  0  0  2  0  0  0  0  0  0
  192.0820  177.2500  148.2350 O   0  0  0  0  0  0  0  0  0  0  0  0
  191.5470  176.5770  147.3140 C   0  0  0  0  0  0  0  0  0  0  0  0
  192.2730  175.5000  146.7270 N   0  0  0  0  0  1  0  0  0  0  0  0
  1  4  2  0  0  0  0
  3  5  1  0  0  0  0
  4  7  1  0  0  0  0
  4 10  1  0  0  0  0
  5 24  1  0  0  0  0
  5  2  2  0  0  0  0
  6 11  1  0  0  0  0
  7  9  1  0  0  0  0
  8  2  1  0  0  0  0
  9  3  2  0  0  0  0
  9 11  1  0  0  0  0
 10  6  2  0  0  0  0
 11  8  2  0  0  0  0
 13 10  1  0  0  0  0
 13 14  1  0  0  0  0
 14 12  2  0  0  0  0
 15 14  1  0  0  0  0
 16 15  1  0  0  0  0
 17 18  1  0  0  0  0
 17 16  1  0  0  0  0
 19 21  1  0  0  0  0
 19 18  1  0  0  0  0
 20 22  1  0  0  0  0
 20 19  1  0  0  0  0
 22 21  1  0  0  0  0
 24 23  2  0  0  0  0
 25 24  1  0  0  0  0
M  END
>  <MODEL>
5

>  <REMARK>
 VINA RESULT:      -7.5      2.219      8.561
  Name = 
  7 active torsions:
  status: ('A' for Active; 'I' for Inactive)
    1  A    between atoms: C_1  and  C_17
    2  A    between atoms: C_1  and  C_20
    3  A    between atoms: C_2  and  O_18
    4  A    between atoms: N_6  and  O_18
    5  A    between atoms: N_6  and  C_20
    6  A    between atoms: C_11  and  C_21
    7  A    between atoms: N_15  and  C_23
                            x       y       z     vdW  Elec       q    Type
                         _______ _______ _______ _____ _____    ______ ____

>  <TORSDO>
F 7

$$$$
=
 OpenBabel11062418103D

 25 27  0  0  0  0  0  0  0  0999 V2000
  188.1920  177.8190  141.3750 O   0  0  0  0  0  0  0  0  0  0  0  0
  189.2050  176.8820  147.4470 C   0  0  0  0  0  3  0  0  0  0  0  0
  190.4450  177.0410  145.3710 C   0  0  0  0  0  3  0  0  0  0  0  0
  188.1260  177.6550  142.6210 C   0  0  0  0  0  0  0  0  0  0  0  0
  190.4290  176.8510  146.7620 C   0  0  0  0  0  0  0  0  0  0  0  0
  186.8490  177.5040  144.6660 C   0  0  0  0  0  3  0  0  0  0  0  0
  189.2690  177.4400  143.3290 N   0  0  0  0  0  2  0  0  0  0  0  0
  188.0080  177.0990  146.7560 C   0  0  0  0  0  3  0  0  0  0  0  0
  189.2530  177.2580  144.6750 C   0  0  0  0  0  0  0  0  0  0  0  0
  186.8830  177.6920  143.2770 C   0  0  0  0  0  0  0  0  0  0  0  0
  188.0290  177.2870  145.3740 C   0  0  0  0  0  0  0  0  0  0  0  0
  184.7950  179.7270  143.7230 O   0  0  0  0  0  0  0  0  0  0  0  0
  185.6860  177.9180  142.5180 N   0  0  0  0  0  2  0  0  0  0  0  0
  184.6840  178.9130  142.7680 C   0  0  0  0  0  0  0  0  0  0  0  0
  183.5080  179.0050  141.8620 C   0  0  0  0  0  2  0  0  0  0  0  0
  183.9120  178.6160  140.4550 C   0  0  0  0  0  2  0  0  0  0  0  0
  184.7030  179.6800  139.8660 N   0  0  0  0  0  2  0  0  0  0  0  0
  184.8020  179.4080  138.5440 O   0  0  0  0  0  0  0  0  0  0  0  0
  185.2690  178.0930  138.4890 C   0  0  0  0  0  3  0  0  0  0  0  0
  186.7000  178.0850  137.9900 C   0  0  0  0  0  2  0  0  0  0  0  0
  184.8190  177.4480  137.1950 C   0  0  0  0  0  2  0  0  0  0  0  0
  186.2480  177.4450  136.6940 C   0  0  0  0  0  2  0  0  0  0  0  0
  192.0330  177.4000  148.4230 O   0  0  0  0  0  0  0  0  0  0  0  0
  191.6870  176.6220  147.4940 C   0  0  0  0  0  0  0  0  0  0  0  0
  192.5270  175.5210  147.1590 N   0  0  0  0  0  1  0  0  0  0  0  0
  1  4  2  0  0  0  0
  3  5  2  0  0  0  0
  4 10  1  0  0  0  0
  4  7  1  0  0  0  0
  5  2  1  0  0  0  0
  5 24  1  0  0  0  0
  6 11  1  0  0  0  0
  7  9  1  0  0  0  0
  8  2  2  0  0  0  0
  9  3  1  0  0  0  0
  9 11  2  0  0  0  0
 10  6  2  0  0  0  0
 11  8  1  0  0  0  0
 13 14  1  0  0  0  0
 13 10  1  0  0  0  0
 14 12  2  0  0  0  0
 15 14  1  0  0  0  0
 16 15  1  0  0  0  0
 17 16  1  0  0  0  0
 18 17  1  0  0  0  0
 19 18  1  0  0  0  0
 20 19  1  0  0  0  0
 21 19  1  0  0  0  0
 22 21  1  0  0  0  0
 22 20  1  0  0  0  0
 24 23  2  0  0  0  0
 25 24  1  0  0  0  0
M  END
>  <MODEL>
6

>  <REMARK>
 VINA RESULT:      -7.4      2.403      8.028
  Name = 
  7 active torsions:
  status: ('A' for Active; 'I' for Inactive)
    1  A    between atoms: C_1  and  C_17
    2  A    between atoms: C_1  and  C_20
    3  A    between atoms: C_2  and  O_18
    4  A    between atoms: N_6  and  O_18
    5  A    between atoms: N_6  and  C_20
    6  A    between atoms: C_11  and  C_21
    7  A    between atoms: N_15  and  C_23
                            x       y       z     vdW  Elec       q    Type
                         _______ _______ _______ _____ _____    ______ ____

>  <TORSDO>
F 7

$$$$
=
 OpenBabel11062418103D

 25 27  0  0  0  0  0  0  0  0999 V2000
  183.0310  179.0460  144.5170 O   0  0  0  0  0  0  0  0  0  0  0  0
  188.9530  177.1540  144.8830 C   0  0  0  0  0  3  0  0  0  0  0  0
  187.1860  177.9820  146.3220 C   0  0  0  0  0  3  0  0  0  0  0  0
  184.2020  178.6270  144.3230 C   0  0  0  0  0  0  0  0  0  0  0  0
  188.5020  177.5210  146.1610 C   0  0  0  0  0  0  0  0  0  0  0  0
  185.9320  177.8050  142.8520 C   0  0  0  0  0  3  0  0  0  0  0  0
  185.0590  178.5240  145.3750 N   0  0  0  0  0  2  0  0  0  0  0  0
  188.1030  177.2460  143.7760 C   0  0  0  0  0  3  0  0  0  0  0  0
  186.3330  178.0760  145.2200 C   0  0  0  0  0  0  0  0  0  0  0  0
  184.6210  178.2680  143.0300 C   0  0  0  0  0  0  0  0  0  0  0  0
  186.7950  177.7060  143.9410 C   0  0  0  0  0  0  0  0  0  0  0  0
  185.0700  179.5420  140.4080 O   0  0  0  0  0  0  0  0  0  0  0  0
  183.7070  178.3830  141.9300 N   0  0  0  0  0  2  0  0  0  0  0  0
  183.9540  179.0190  140.6690 C   0  0  0  0  0  0  0  0  0  0  0  0
  182.8830  179.0320  139.6370 C   0  0  0  0  0  2  0  0  0  0  0  0
  183.0510  180.2410  138.7380 C   0  0  0  0  0  2  0  0  0  0  0  0
  181.7800  180.9300  138.6120 N   0  0  0  0  0  2  0  0  0  0  0  0
  182.0630  182.2200  138.3140 O   0  0  0  0  0  0  0  0  0  0  0  0
  180.8560  182.7480  137.8540 C   0  0  0  0  0  3  0  0  0  0  0  0
  180.5570  182.2000  136.4730 C   0  0  0  0  0  2  0  0  0  0  0  0
  181.0980  184.1180  137.2520 C   0  0  0  0  0  2  0  0  0  0  0  0
  180.8050  183.5680  135.8720 C   0  0  0  0  0  2  0  0  0  0  0  0
  190.3460  176.5890  147.3290 O   0  0  0  0  0  0  0  0  0  0  0  0
  189.4010  177.4230  147.3240 C   0  0  0  0  0  0  0  0  0  0  0  0
  189.2120  178.2670  148.4560 N   0  0  0  0  0  1  0  0  0  0  0  0
  2  5  1  0  0  0  0
  4  1  2  0  0  0  0
  4  7  1  0  0  0  0
  5  3  2  0  0  0  0
  5 24  1  0  0  0  0
  6 10  2  0  0  0  0
  6 11  1  0  0  0  0
  8 11  1  0  0  0  0
  8  2  2  0  0  0  0
  9  7  1  0  0  0  0
  9  3  1  0  0  0  0
 10  4  1  0  0  0  0
 11  9  2  0  0  0  0
 12 14  2  0  0  0  0
 13 10  1  0  0  0  0
 14 13  1  0  0  0  0
 15 14  1  0  0  0  0
 16 15  1  0  0  0  0
 17 16  1  0  0  0  0
 18 17  1  0  0  0  0
 19 18  1  0  0  0  0
 20 19  1  0  0  0  0
 21 19  1  0  0  0  0
 22 20  1  0  0  0  0
 22 21  1  0  0  0  0
 24 23  2  0  0  0  0
 24 25  1  0  0  0  0
M  END
>  <MODEL>
7

>  <REMARK>
 VINA RESULT:      -7.4      3.631      8.814
  Name = 
  7 active torsions:
  status: ('A' for Active; 'I' for Inactive)
    1  A    between atoms: C_1  and  C_17
    2  A    between atoms: C_1  and  C_20
    3  A    between atoms: C_2  and  O_18
    4  A    between atoms: N_6  and  O_18
    5  A    between atoms: N_6  and  C_20
    6  A    between atoms: C_11  and  C_21
    7  A    between atoms: N_15  and  C_23
                            x       y       z     vdW  Elec       q    Type
                         _______ _______ _______ _____ _____    ______ ____

>  <TORSDO>
F 7

$$$$
=
 OpenBabel11062418103D

 25 27  0  0  0  0  0  0  0  0999 V2000
  186.7900  178.0830  145.7050 O   0  0  0  0  0  0  0  0  0  0  0  0
  182.1150  178.7760  141.6500 C   0  0  0  0  0  3  0  0  0  0  0  0
  182.5400  178.9630  144.0290 C   0  0  0  0  0  3  0  0  0  0  0  0
  186.0330  178.1520  144.7010 C   0  0  0  0  0  0  0  0  0  0  0  0
  181.6520  179.0560  142.9450 C   0  0  0  0  0  0  0  0  0  0  0  0
  185.6560  177.9520  142.3240 C   0  0  0  0  0  3  0  0  0  0  0  0
  184.7290  178.5060  144.8700 N   0  0  0  0  0  2  0  0  0  0  0  0
  183.4470  178.4070  141.4350 C   0  0  0  0  0  3  0  0  0  0  0  0
  183.8710  178.5960  143.8210 C   0  0  0  0  0  0  0  0  0  0  0  0
  186.5290  177.8650  143.4170 C   0  0  0  0  0  0  0  0  0  0  0  0
  184.3260  178.3170  142.5160 C   0  0  0  0  0  0  0  0  0  0  0  0
  188.4280  178.7490  141.3410 O   0  0  0  0  0  0  0  0  0  0  0  0
  187.9060  177.4920  143.2550 N   0  0  0  0  0  2  0  0  0  0  0  0
  188.8010  177.9340  142.2260 C   0  0  0  0  0  0  0  0  0  0  0  0
  190.2060  177.4450  142.2230 C   0  0  0  0  0  2  0  0  0  0  0  0
  191.0820  178.3980  143.0100 C   0  0  0  0  0  2  0  0  0  0  0  0
  191.5850  177.7280  144.1950 N   0  0  0  0  0  2  0  0  0  0  0  0
  190.7150  178.0000  145.1960 O   0  0  0  0  0  0  0  0  0  0  0  0
  190.5300  176.7770  145.8430 C   0  0  0  0  0  3  0  0  0  0  0  0
  190.3530  177.0130  147.3300 C   0  0  0  0  0  2  0  0  0  0  0  0
  191.8750  176.1350  146.1100 C   0  0  0  0  0  2  0  0  0  0  0  0
  191.7010  176.3760  147.5940 C   0  0  0  0  0  2  0  0  0  0  0  0
  179.8650  180.6170  142.9170 O   0  0  0  0  0  0  0  0  0  0  0  0
  180.2480  179.4430  143.1660 C   0  0  0  0  0  0  0  0  0  0  0  0
  179.3080  178.4950  143.6650 N   0  0  0  0  0  1  0  0  0  0  0  0
  2  5  1  0  0  0  0
  4  7  1  0  0  0  0
  4  1  2  0  0  0  0
  5 24  1  0  0  0  0
  5  3  2  0  0  0  0
  6 11  1  0  0  0  0
  6 10  2  0  0  0  0
  8  2  2  0  0  0  0
  8 11  1  0  0  0  0
  9  3  1  0  0  0  0
  9  7  1  0  0  0  0
 10  4  1  0  0  0  0
 11  9  2  0  0  0  0
 12 14  2  0  0  0  0
 13 10  1  0  0  0  0
 14 13  1  0  0  0  0
 15 14  1  0  0  0  0
 15 16  1  0  0  0  0
 16 17  1  0  0  0  0
 17 18  1  0  0  0  0
 18 19  1  0  0  0  0
 19 21  1  0  0  0  0
 19 20  1  0  0  0  0
 20 22  1  0  0  0  0
 21 22  1  0  0  0  0
 23 24  2  0  0  0  0
 24 25  1  0  0  0  0
M  END
>  <MODEL>
8

>  <REMARK>
 VINA RESULT:      -7.3      1.613      2.466
  Name = 
  7 active torsions:
  status: ('A' for Active; 'I' for Inactive)
    1  A    between atoms: C_1  and  C_17
    2  A    between atoms: C_1  and  C_20
    3  A    between atoms: C_2  and  O_18
    4  A    between atoms: N_6  and  O_18
    5  A    between atoms: N_6  and  C_20
    6  A    between atoms: C_11  and  C_21
    7  A    between atoms: N_15  and  C_23
                            x       y       z     vdW  Elec       q    Type
                         _______ _______ _______ _____ _____    ______ ____

>  <TORSDO>
F 7

$$$$
=
 OpenBabel11062418103D

 25 27  0  0  0  0  0  0  0  0999 V2000
  186.8930  178.6100  140.3890 O   0  0  0  0  0  0  0  0  0  0  0  0
  186.0360  178.1360  146.5390 C   0  0  0  0  0  3  0  0  0  0  0  0
  187.7740  177.7930  144.8840 C   0  0  0  0  0  3  0  0  0  0  0  0
  186.4680  178.6000  141.5740 C   0  0  0  0  0  0  0  0  0  0  0  0
  187.3520  177.7640  146.2230 C   0  0  0  0  0  0  0  0  0  0  0  0
  184.7060  178.9550  143.1870 C   0  0  0  0  0  3  0  0  0  0  0  0
  187.3010  178.2180  142.5810 N   0  0  0  0  0  2  0  0  0  0  0  0
  185.1480  178.5340  145.5330 C   0  0  0  0  0  3  0  0  0  0  0  0
  186.8930  178.1900  143.8760 C   0  0  0  0  0  0  0  0  0  0  0  0
  185.1440  178.9790  141.8560 C   0  0  0  0  0  0  0  0  0  0  0  0
  185.5730  178.5620  144.2040 C   0  0  0  0  0  0  0  0  0  0  0  0
  183.1630  177.3440  140.4050 O   0  0  0  0  0  0  0  0  0  0  0  0
  184.2770  179.3780  140.7840 N   0  0  0  0  0  2  0  0  0  0  0  0
  183.3290  178.5530  140.0920 C   0  0  0  0  0  0  0  0  0  0  0  0
  182.5040  179.1460  139.0060 C   0  0  0  0  0  2  0  0  0  0  0  0
  181.0360  179.0610  139.3720 C   0  0  0  0  0  2  0  0  0  0  0  0
  180.7360  180.0410  140.3990 N   0  0  0  0  0  2  0  0  0  0  0  0
  179.7470  179.5170  141.1620 O   0  0  0  0  0  0  0  0  0  0  0  0
  180.0470  179.9300  142.4610 C   0  0  0  0  0  3  0  0  0  0  0  0
  181.0900  179.0060  143.0570 C   0  0  0  0  0  2  0  0  0  0  0  0
  179.0150  179.3760  143.4210 C   0  0  0  0  0  2  0  0  0  0  0  0
  180.0560  178.4500  144.0130 C   0  0  0  0  0  2  0  0  0  0  0  0
  189.3980  176.8380  146.9910 O   0  0  0  0  0  0  0  0  0  0  0  0
  188.2820  177.3450  147.2860 C   0  0  0  0  0  0  0  0  0  0  0  0
  187.9320  177.5070  148.6570 N   0  0  0  0  0  1  0  0  0  0  0  0
  1  4  2  0  0  0  0
  3  5  2  0  0  0  0
  4 10  1  0  0  0  0
  4  7  1  0  0  0  0
  5  2  1  0  0  0  0
  5 24  1  0  0  0  0
  6 11  1  0  0  0  0
  7  9  1  0  0  0  0
  8  2  2  0  0  0  0
  9 11  2  0  0  0  0
  9  3  1  0  0  0  0
 10  6  2  0  0  0  0
 11  8  1  0  0  0  0
 13 10  1  0  0  0  0
 14 12  2  0  0  0  0
 14 13  1  0  0  0  0
 15 16  1  0  0  0  0
 15 14  1  0  0  0  0
 16 17  1  0  0  0  0
 17 18  1  0  0  0  0
 18 19  1  0  0  0  0
 19 20  1  0  0  0  0
 19 21  1  0  0  0  0
 20 22  1  0  0  0  0
 21 22  1  0  0  0  0
 23 24  2  0  0  0  0
 24 25  1  0  0  0  0
M  END
>  <MODEL>
9

>  <REMARK>
 VINA RESULT:      -7.2      2.083      7.358
  Name = 
  7 active torsions:
  status: ('A' for Active; 'I' for Inactive)
    1  A    between atoms: C_1  and  C_17
    2  A    between atoms: C_1  and  C_20
    3  A    between atoms: C_2  and  O_18
    4  A    between atoms: N_6  and  O_18
    5  A    between atoms: N_6  and  C_20
    6  A    between atoms: C_11  and  C_21
    7  A    between atoms: N_15  and  C_23
                            x       y       z     vdW  Elec       q    Type
                         _______ _______ _______ _____ _____    ______ ____

>  <TORSDO>
F 7

$$$$
