=
 OpenBabel11062416323D

 29 33  0  0  1  0  0  0  0  0999 V2000
  190.3050  178.9390  144.3290 N   0  0  0  0  0  2  0  0  0  0  0  0
  189.9960  176.4710  141.9080 C   0  0  2  0  0  3  0  0  0  0  0  0
  188.5810  177.5340  143.3680 C   0  0  1  0  0  3  0  0  0  0  0  0
  189.6730  178.2680  143.2740 C   0  0  2  0  0  3  0  0  0  0  0  0
  191.8810  177.9000  143.0140 C   0  0  0  0  0  2  0  0  0  0  0  0
  188.6890  176.4660  142.4890 O   0  0  0  0  0  0  0  0  0  0  0  0
  191.6970  178.8130  144.1690 N   0  0  0  0  0  2  0  0  0  0  0  0
  190.5830  177.7240  142.3770 N   0  0  1  0  0  0  0  0  0  0  0  0
  186.5510  177.7980  146.5930 C   0  0  0  0  0  3  0  0  0  0  0  0
  185.3290  178.2870  146.1070 C   0  0  0  0  0  2  0  0  0  0  0  0
  187.6230  177.4980  145.7240 C   0  0  0  0  0  0  0  0  0  0  0  0
  184.6150  178.9740  142.7000 C   0  0  0  0  0  3  0  0  0  0  0  0
  186.2310  178.2000  143.8740 C   0  0  0  0  0  0  0  0  0  0  0  0
  187.4690  177.7060  144.3190 C   0  0  0  0  0  0  0  0  0  0  0  0
  184.1500  178.9660  144.0150 C   0  0  0  0  0  3  0  0  0  0  0  0
  185.2090  178.4700  144.7370 C   0  0  0  0  0  0  0  0  0  0  0  0
  185.8870  178.5140  142.6140 N   0  0  0  0  0  0  0  0  0  0  0  0
  188.7930  177.0020  146.3210 O   0  0  0  0  0  0  0  0  0  0  0  0
  189.3430  177.4750  147.5420 C   0  0  0  0  0  1  0  0  0  0  0  0
  188.5820  177.0240  138.6240 C   0  0  2  0  0  3  0  0  0  0  0  0
  189.8900  176.4830  140.3890 C   0  0  1  0  0  3  0  0  0  0  0  0
  191.0550  176.9880  138.2560 C   0  0  0  0  0  2  0  0  0  0  0  0
  188.7970  177.2760  139.9930 O   0  0  0  0  0  0  0  0  0  0  0  0
  189.5510  177.3170  136.4380 O   0  0  0  0  0  1  0  0  0  0  0  0
  189.7370  177.6040  137.7920 C   0  0  1  0  0  3  0  0  0  0  0  0
  191.1730  177.0450  139.7750 C   0  0  0  0  0  2  0  0  0  0  0  0
  186.9010  178.7280  138.6620 O   0  0  0  0  0  0  0  0  0  0  0  0
  187.2730  177.6130  138.2090 C   0  0  0  0  0  0  0  0  0  0  0  0
  186.4450  176.9130  137.2890 N   0  0  0  0  0  1  0  0  0  0  0  0
  2  8  1  0  0  0  0
  2  6  1  1  0  0  0
  3 14  1  1  0  0  0
  4  3  1  0  0  0  0
  4  1  1  1  0  0  0
  5  7  1  0  0  0  0
  6  3  1  0  0  0  0
  7  1  1  0  0  0  0
  8  5  1  1  0  0  0
  8  4  1  0  0  0  0
 10  9  1  0  0  0  0
 11 18  1  0  0  0  0
 11  9  2  0  0  0  0
 12 15  1  0  0  0  0
 13 14  2  0  0  0  0
 13 16  1  0  0  0  0
 14 11  1  0  0  0  0
 15 16  2  0  0  0  0
 16 10  1  0  0  0  0
 17 12  2  0  0  0  0
 17 13  1  0  0  0  0
 18 19  1  0  0  0  0
 20 28  1  6  0  0  0
 20 23  1  0  0  0  0
 21 26  1  6  0  0  0
 21  2  1  0  0  0  0
 22 26  1  0  0  0  0
 23 21  1  0  0  0  0
 25 24  1  6  0  0  0
 25 22  1  0  0  0  0
 25 20  1  0  0  0  0
 28 27  2  0  0  0  0
 29 28  1  0  0  0  0
M  END
>  <MODEL>
1

>  <REMARK>
 VINA RESULT:      -9.3      0.000      0.000
  Name = 
  4 active torsions:
  status: ('A' for Active; 'I' for Inactive)
    1  A    between atoms: C_2  and  C_16
    2  A    between atoms: C_6  and  O_9
    3  A    between atoms: C_8  and  C_10
    4  A    between atoms: C_14  and  C_18
                            x       y       z     vdW  Elec       q    Type
                         _______ _______ _______ _____ _____    ______ ____

>  <TORSDO>
F 4

$$$$
=
 OpenBabel11062416323D

 29 33  0  0  1  0  0  0  0  0999 V2000
  190.3740  178.7950  144.3940 N   0  0  0  0  0  2  0  0  0  0  0  0
  190.1610  176.7170  141.6230 C   0  0  2  0  0  3  0  0  0  0  0  0
  188.6770  177.6390  143.1100 C   0  0  1  0  0  3  0  0  0  0  0  0
  189.8040  178.3170  143.2070 C   0  0  2  0  0  3  0  0  0  0  0  0
  192.0080  177.8670  143.0660 C   0  0  0  0  0  2  0  0  0  0  0  0
  188.8110  176.7020  142.0950 O   0  0  0  0  0  0  0  0  0  0  0  0
  191.7680  178.6150  144.3240 N   0  0  0  0  0  2  0  0  0  0  0  0
  190.7610  177.8560  142.3130 N   0  0  1  0  0  0  0  0  0  0  0  0
  186.4190  177.6650  146.1910 C   0  0  0  0  0  3  0  0  0  0  0  0
  185.2290  178.1760  145.6520 C   0  0  0  0  0  2  0  0  0  0  0  0
  187.5540  177.4340  145.3830 C   0  0  0  0  0  0  0  0  0  0  0  0
  184.7490  179.0880  142.2570 C   0  0  0  0  0  3  0  0  0  0  0  0
  186.2880  178.2490  143.4890 C   0  0  0  0  0  0  0  0  0  0  0  0
  187.4970  177.7360  143.9880 C   0  0  0  0  0  0  0  0  0  0  0  0
  184.1920  178.9870  143.5320 C   0  0  0  0  0  3  0  0  0  0  0  0
  185.2040  178.4510  144.2930 C   0  0  0  0  0  0  0  0  0  0  0  0
  186.0300  178.6460  142.2320 N   0  0  0  0  0  0  0  0  0  0  0  0
  188.6850  176.9080  146.0270 O   0  0  0  0  0  0  0  0  0  0  0  0
  189.0150  177.1260  147.3910 C   0  0  0  0  0  1  0  0  0  0  0  0
  190.7710  176.0810  138.1140 C   0  0  2  0  0  3  0  0  0  0  0  0
  190.1820  176.9490  140.1180 C   0  0  1  0  0  3  0  0  0  0  0  0
  188.8920  177.7310  138.1460 C   0  0  0  0  0  2  0  0  0  0  0  0
  190.4920  175.7480  139.4530 O   0  0  0  0  0  0  0  0  0  0  0  0
  189.7660  176.9100  136.0880 O   0  0  0  0  0  1  0  0  0  0  0  0
  189.4850  176.5360  137.4030 C   0  0  1  0  0  3  0  0  0  0  0  0
  188.8180  177.4530  139.6430 C   0  0  0  0  0  2  0  0  0  0  0  0
  192.5660  174.9460  137.0110 O   0  0  0  0  0  0  0  0  0  0  0  0
  191.3770  174.9020  137.4240 C   0  0  0  0  0  0  0  0  0  0  0  0
  190.6080  173.7200  137.2400 N   0  0  0  0  0  1  0  0  0  0  0  0
  2  6  1  1  0  0  0
  2  8  1  0  0  0  0
  3  4  1  0  0  0  0
  3 14  1  1  0  0  0
  4  1  1  1  0  0  0
  5  7  1  0  0  0  0
  6  3  1  0  0  0  0
  7  1  1  0  0  0  0
  8  5  1  1  0  0  0
  8  4  1  0  0  0  0
 10  9  1  0  0  0  0
 11 18  1  0  0  0  0
 11  9  2  0  0  0  0
 12 15  1  0  0  0  0
 13 14  2  0  0  0  0
 13 16  1  0  0  0  0
 14 11  1  0  0  0  0
 15 16  2  0  0  0  0
 16 10  1  0  0  0  0
 17 12  2  0  0  0  0
 17 13  1  0  0  0  0
 18 19  1  0  0  0  0
 20 28  1  6  0  0  0
 20 23  1  0  0  0  0
 21 26  1  6  0  0  0
 21  2  1  0  0  0  0
 22 26  1  0  0  0  0
 23 21  1  0  0  0  0
 25 24  1  6  0  0  0
 25 20  1  0  0  0  0
 25 22  1  0  0  0  0
 27 28  2  0  0  0  0
 29 28  1  0  0  0  0
M  END
>  <MODEL>
2

>  <REMARK>
 VINA RESULT:      -8.9      1.450      2.106
  Name = 
  4 active torsions:
  status: ('A' for Active; 'I' for Inactive)
    1  A    between atoms: C_2  and  C_16
    2  A    between atoms: C_6  and  O_9
    3  A    between atoms: C_8  and  C_10
    4  A    between atoms: C_14  and  C_18
                            x       y       z     vdW  Elec       q    Type
                         _______ _______ _______ _____ _____    ______ ____

>  <TORSDO>
F 4

$$$$
=
 OpenBabel11062416323D

 29 33  0  0  1  0  0  0  0  0999 V2000
  190.5420  179.0180  144.1720 N   0  0  0  0  0  2  0  0  0  0  0  0
  190.0810  176.5020  141.8270 C   0  0  2  0  0  3  0  0  0  0  0  0
  188.7500  177.6350  143.3130 C   0  0  1  0  0  3  0  0  0  0  0  0
  189.8540  178.3380  143.1590 C   0  0  2  0  0  3  0  0  0  0  0  0
  192.0410  177.9090  142.8250 C   0  0  0  0  0  2  0  0  0  0  0  0
  188.7980  176.5440  142.4570 O   0  0  0  0  0  0  0  0  0  0  0  0
  191.9240  178.8530  143.9630 N   0  0  0  0  0  2  0  0  0  0  0  0
  190.7150  177.7510  142.2430 N   0  0  1  0  0  0  0  0  0  0  0  0
  185.3340  178.2470  144.9100 C   0  0  0  0  0  3  0  0  0  0  0  0
  185.6270  178.0410  146.2660 C   0  0  0  0  0  2  0  0  0  0  0  0
  186.3380  178.1670  143.9190 C   0  0  0  0  0  0  0  0  0  0  0  0
  188.8210  177.2020  147.5630 C   0  0  0  0  0  3  0  0  0  0  0  0
  187.9280  177.6550  145.6680 C   0  0  0  0  0  0  0  0  0  0  0  0
  187.6790  177.8570  144.3010 C   0  0  0  0  0  0  0  0  0  0  0  0
  187.4800  177.4690  147.8370 C   0  0  0  0  0  3  0  0  0  0  0  0
  186.9400  177.7500  146.6040 C   0  0  0  0  0  0  0  0  0  0  0  0
  189.0930  177.3070  146.2390 N   0  0  0  0  0  0  0  0  0  0  0  0
  185.9320  178.4060  142.5970 O   0  0  0  0  0  0  0  0  0  0  0  0
  184.6010  178.2710  142.1200 C   0  0  0  0  0  1  0  0  0  0  0  0
  188.5520  177.0050  138.5870 C   0  0  2  0  0  3  0  0  0  0  0  0
  189.9160  176.4800  140.3130 C   0  0  1  0  0  3  0  0  0  0  0  0
  191.0090  176.9120  138.1260 C   0  0  0  0  0  2  0  0  0  0  0  0
  188.8240  177.2850  139.9400 O   0  0  0  0  0  0  0  0  0  0  0  0
  189.4420  177.2270  136.3590 O   0  0  0  0  0  1  0  0  0  0  0  0
  189.6860  177.5430  137.6970 C   0  0  1  0  0  3  0  0  0  0  0  0
  191.1850  177.0020  139.6370 C   0  0  0  0  0  2  0  0  0  0  0  0
  186.9000  178.7350  138.6600 O   0  0  0  0  0  0  0  0  0  0  0  0
  187.2390  177.6100  138.2070 C   0  0  0  0  0  0  0  0  0  0  0  0
  186.3720  176.9130  137.3220 N   0  0  0  0  0  1  0  0  0  0  0  0
  2  8  1  0  0  0  0
  2  6  1  1  0  0  0
  3 14  1  1  0  0  0
  4  3  1  0  0  0  0
  4  1  1  1  0  0  0
  5  7  1  0  0  0  0
  6  3  1  0  0  0  0
  7  1  1  0  0  0  0
  8  5  1  1  0  0  0
  8  4  1  0  0  0  0
  9 10  1  0  0  0  0
 10 16  1  0  0  0  0
 11 14  1  0  0  0  0
 11  9  2  0  0  0  0
 12 15  1  0  0  0  0
 13 17  1  0  0  0  0
 13 16  1  0  0  0  0
 14 13  2  0  0  0  0
 16 15  2  0  0  0  0
 17 12  2  0  0  0  0
 18 11  1  0  0  0  0
 19 18  1  0  0  0  0
 20 28  1  6  0  0  0
 20 23  1  0  0  0  0
 21 26  1  6  0  0  0
 21  2  1  0  0  0  0
 22 26  1  0  0  0  0
 23 21  1  0  0  0  0
 25 24  1  6  0  0  0
 25 22  1  0  0  0  0
 25 20  1  0  0  0  0
 28 27  2  0  0  0  0
 29 28  1  0  0  0  0
M  END
>  <MODEL>
3

>  <REMARK>
 VINA RESULT:      -8.6      1.235      2.612
  Name = 
  4 active torsions:
  status: ('A' for Active; 'I' for Inactive)
    1  A    between atoms: C_2  and  C_16
    2  A    between atoms: C_6  and  O_9
    3  A    between atoms: C_8  and  C_10
    4  A    between atoms: C_14  and  C_18
                            x       y       z     vdW  Elec       q    Type
                         _______ _______ _______ _____ _____    ______ ____

>  <TORSDO>
F 4

$$$$
=
 OpenBabel11062416323D

 29 33  0  0  1  0  0  0  0  0999 V2000
  190.9760  178.8100  144.6340 N   0  0  0  0  0  2  0  0  0  0  0  0
  189.5700  176.8130  142.1680 C   0  0  2  0  0  3  0  0  0  0  0  0
  188.9480  177.5410  144.2530 C   0  0  1  0  0  3  0  0  0  0  0  0
  189.9300  178.3190  143.8410 C   0  0  2  0  0  3  0  0  0  0  0  0
  191.8060  178.0850  142.6140 C   0  0  0  0  0  2  0  0  0  0  0  0
  188.6290  176.6550  143.2340 O   0  0  0  0  0  0  0  0  0  0  0  0
  192.1650  178.7660  143.8830 N   0  0  0  0  0  2  0  0  0  0  0  0
  190.3540  177.9810  142.5640 N   0  0  1  0  0  0  0  0  0  0  0  0
  188.4690  177.1180  148.0190 C   0  0  0  0  0  3  0  0  0  0  0  0
  187.1900  177.6660  148.1940 C   0  0  0  0  0  2  0  0  0  0  0  0
  189.0600  177.0190  146.7390 C   0  0  0  0  0  0  0  0  0  0  0  0
  185.1650  178.9980  145.6030 C   0  0  0  0  0  3  0  0  0  0  0  0
  187.0710  178.0420  145.8170 C   0  0  0  0  0  0  0  0  0  0  0  0
  188.3470  177.4970  145.5980 C   0  0  0  0  0  0  0  0  0  0  0  0
  185.2920  178.7190  146.9630 C   0  0  0  0  0  3  0  0  0  0  0  0
  186.5210  178.1140  147.0640 C   0  0  0  0  0  0  0  0  0  0  0  0
  186.2530  178.5920  144.9040 N   0  0  0  0  0  0  0  0  0  0  0  0
  190.3370  176.4410  146.6820 O   0  0  0  0  0  0  0  0  0  0  0  0
  191.4080  176.7510  147.5630 C   0  0  0  0  0  1  0  0  0  0  0  0
  187.0630  178.1380  139.9210 C   0  0  2  0  0  3  0  0  0  0  0  0
  188.8350  177.0960  140.8640 C   0  0  1  0  0  3  0  0  0  0  0  0
  189.0680  177.7460  138.4790 C   0  0  0  0  0  2  0  0  0  0  0  0
  187.8880  178.1180  141.0620 O   0  0  0  0  0  0  0  0  0  0  0  0
  187.0530  178.6240  137.5620 O   0  0  0  0  0  1  0  0  0  0  0  0
  187.8550  178.6450  138.7040 C   0  0  1  0  0  3  0  0  0  0  0  0
  189.8280  177.5280  139.7830 C   0  0  0  0  0  2  0  0  0  0  0  0
  185.7640  179.6290  141.2700 O   0  0  0  0  0  0  0  0  0  0  0  0
  185.8710  179.0010  140.1840 C   0  0  0  0  0  0  0  0  0  0  0  0
  184.8560  179.1210  139.1960 N   0  0  0  0  0  1  0  0  0  0  0  0
  2  8  1  0  0  0  0
  2  6  1  1  0  0  0
  3 14  1  1  0  0  0
  4  3  1  0  0  0  0
  4  1  1  1  0  0  0
  5  7  1  0  0  0  0
  6  3  1  0  0  0  0
  7  1  1  0  0  0  0
  8  5  1  1  0  0  0
  8  4  1  0  0  0  0
  9 10  1  0  0  0  0
 11  9  2  0  0  0  0
 12 15  1  0  0  0  0
 13 16  1  0  0  0  0
 14 13  2  0  0  0  0
 14 11  1  0  0  0  0
 15 16  2  0  0  0  0
 16 10  1  0  0  0  0
 17 12  2  0  0  0  0
 17 13  1  0  0  0  0
 18 11  1  0  0  0  0
 18 19  1  0  0  0  0
 20 28  1  1  0  0  0
 20 23  1  0  0  0  0
 21 26  1  6  0  0  0
 21 23  1  0  0  0  0
 21  2  1  0  0  0  0
 22 25  1  0  0  0  0
 22 26  1  0  0  0  0
 25 24  1  6  0  0  0
 25 20  1  0  0  0  0
 28 27  2  0  0  0  0
 29 28  1  0  0  0  0
M  END
>  <MODEL>
4

>  <REMARK>
 VINA RESULT:      -8.2      1.539      2.083
  Name = 
  4 active torsions:
  status: ('A' for Active; 'I' for Inactive)
    1  A    between atoms: C_2  and  C_16
    2  A    between atoms: C_6  and  O_9
    3  A    between atoms: C_8  and  C_10
    4  A    between atoms: C_14  and  C_18
                            x       y       z     vdW  Elec       q    Type
                         _______ _______ _______ _____ _____    ______ ____

>  <TORSDO>
F 4

$$$$
=
 OpenBabel11062416323D

 29 33  0  0  1  0  0  0  0  0999 V2000
  187.2670  179.0910  140.6180 N   0  0  0  0  0  2  0  0  0  0  0  0
  187.4510  176.7760  143.1980 C   0  0  2  0  0  3  0  0  0  0  0  0
  188.7920  177.4000  141.4450 C   0  0  1  0  0  3  0  0  0  0  0  0
  187.9110  178.3640  141.6280 C   0  0  2  0  0  3  0  0  0  0  0  0
  185.7500  178.5170  142.2510 C   0  0  0  0  0  2  0  0  0  0  0  0
  188.6110  176.4420  142.4320 O   0  0  0  0  0  0  0  0  0  0  0  0
  185.9260  179.2890  140.9960 N   0  0  0  0  0  2  0  0  0  0  0  0
  187.0710  178.0960  142.7000 N   0  0  1  0  0  0  0  0  0  0  0  0
  192.0100  177.0510  139.4160 C   0  0  0  0  0  3  0  0  0  0  0  0
  191.5000  176.7390  138.1470 C   0  0  0  0  0  3  0  0  0  0  0  0
  191.1560  177.3170  140.5090 C   0  0  0  0  0  0  0  0  0  0  0  0
  188.0560  176.4500  137.3450 C   0  0  0  0  0  3  0  0  0  0  0  0
  189.2710  176.9390  139.0400 C   0  0  0  0  0  0  0  0  0  0  0  0
  189.7400  177.2580  140.3250 C   0  0  0  0  0  0  0  0  0  0  0  0
  189.3730  176.3840  136.8910 C   0  0  0  0  0  3  0  0  0  0  0  0
  190.1210  176.6980  138.0000 C   0  0  0  0  0  0  0  0  0  0  0  0
  187.9930  176.7810  138.6570 N   0  0  0  0  0  2  0  0  0  0  0  0
  191.7770  177.6310  141.7280 O   0  0  0  0  0  0  0  0  0  0  0  0
  191.9860  176.7130  142.7910 C   0  0  0  0  0  1  0  0  0  0  0  0
  189.5060  176.9130  146.1730 C   0  0  2  0  0  3  0  0  0  0  0  0
  187.8110  176.8610  144.6760 C   0  0  1  0  0  3  0  0  0  0  0  0
  187.3510  177.9950  146.8360 C   0  0  0  0  0  2  0  0  0  0  0  0
  189.1860  177.1230  144.8180 O   0  0  0  0  0  0  0  0  0  0  0  0
  189.1400  177.7740  148.3920 O   0  0  0  0  0  1  0  0  0  0  0  0
  188.8640  178.0050  147.0440 C   0  0  1  0  0  3  0  0  0  0  0  0
  187.0100  177.9760  145.3500 C   0  0  0  0  0  2  0  0  0  0  0  0
  191.7040  177.7720  145.7780 O   0  0  0  0  0  0  0  0  0  0  0  0
  190.9910  176.8980  146.3380 C   0  0  0  0  0  0  0  0  0  0  0  0
  191.6020  175.8950  147.1400 N   0  0  0  0  0  1  0  0  0  0  0  0
  1  7  1  0  0  0  0
  2  6  1  6  0  0  0
  2 21  1  0  0  0  0
  3 14  1  6  0  0  0
  3  4  1  0  0  0  0
  3  6  1  0  0  0  0
  4  1  1  6  0  0  0
  4  8  1  0  0  0  0
  7  5  1  0  0  0  0
  8  5  1  6  0  0  0
  8  2  1  0  0  0  0
  9 11  1  0  0  0  0
 10  9  2  0  0  0  0
 11 18  1  0  0  0  0
 12 17  1  0  0  0  0
 13 14  1  0  0  0  0
 14 11  2  0  0  0  0
 15 12  2  0  0  0  0
 15 16  1  0  0  0  0
 16 10  1  0  0  0  0
 16 13  2  0  0  0  0
 17 13  1  0  0  0  0
 18 19  1  0  0  0  0
 20 28  1  6  0  0  0
 20 25  1  0  0  0  0
 21 23  1  0  0  0  0
 21 26  1  6  0  0  0
 22 25  1  0  0  0  0
 23 20  1  0  0  0  0
 25 24  1  1  0  0  0
 26 22  1  0  0  0  0
 27 28  2  0  0  0  0
 28 29  1  0  0  0  0
M  END
>  <MODEL>
5

>  <REMARK>
 VINA RESULT:      -8.2      2.287      7.085
  Name = 
  4 active torsions:
  status: ('A' for Active; 'I' for Inactive)
    1  A    between atoms: C_2  and  C_16
    2  A    between atoms: C_6  and  O_9
    3  A    between atoms: C_8  and  C_10
    4  A    between atoms: C_14  and  C_18
                            x       y       z     vdW  Elec       q    Type
                         _______ _______ _______ _____ _____    ______ ____

>  <TORSDO>
F 4

$$$$
=
 OpenBabel11062416323D

 29 33  0  0  1  0  0  0  0  0999 V2000
  187.2910  179.0290  140.4860 N   0  0  0  0  0  2  0  0  0  0  0  0
  187.5270  176.7300  143.0760 C   0  0  2  0  0  3  0  0  0  0  0  0
  188.7400  177.2210  141.1920 C   0  0  1  0  0  3  0  0  0  0  0  0
  187.9660  178.2590  141.4420 C   0  0  2  0  0  3  0  0  0  0  0  0
  185.8960  178.6020  142.2650 C   0  0  0  0  0  2  0  0  0  0  0  0
  188.5750  176.2910  142.2080 O   0  0  0  0  0  0  0  0  0  0  0  0
  186.0150  179.3450  140.9870 N   0  0  0  0  0  2  0  0  0  0  0  0
  187.2140  178.0730  142.5940 N   0  0  1  0  0  0  0  0  0  0  0  0
  189.8260  176.6580  137.5730 C   0  0  0  0  0  3  0  0  0  0  0  0
  191.2190  176.7790  137.6840 C   0  0  0  0  0  3  0  0  0  0  0  0
  188.9850  176.7530  138.7040 C   0  0  0  0  0  0  0  0  0  0  0  0
  192.9800  177.4200  140.6970 C   0  0  0  0  0  3  0  0  0  0  0  0
  190.9590  177.1060  140.0570 C   0  0  0  0  0  0  0  0  0  0  0  0
  189.5610  176.9880  139.9900 C   0  0  0  0  0  0  0  0  0  0  0  0
  193.0550  177.1910  139.3230 C   0  0  0  0  0  3  0  0  0  0  0  0
  191.7460  176.9990  138.9480 C   0  0  0  0  0  0  0  0  0  0  0  0
  191.7010  177.3760  141.1440 N   0  0  0  0  0  2  0  0  0  0  0  0
  187.6080  176.6020  138.4750 O   0  0  0  0  0  0  0  0  0  0  0  0
  186.8890  177.2250  137.4210 C   0  0  0  0  0  1  0  0  0  0  0  0
  189.8660  176.9710  145.8250 C   0  0  2  0  0  3  0  0  0  0  0  0
  188.0340  176.7970  144.5110 C   0  0  1  0  0  3  0  0  0  0  0  0
  187.6970  177.7930  146.7600 C   0  0  0  0  0  2  0  0  0  0  0  0
  189.3820  177.1970  144.5220 O   0  0  0  0  0  0  0  0  0  0  0  0
  189.6570  177.7040  148.1100 O   0  0  0  0  0  1  0  0  0  0  0  0
  189.2140  177.9560  146.8100 C   0  0  1  0  0  3  0  0  0  0  0  0
  187.2010  177.7950  145.3180 C   0  0  0  0  0  2  0  0  0  0  0  0
  191.9210  177.9680  145.1110 O   0  0  0  0  0  0  0  0  0  0  0  0
  191.3540  177.1080  145.8350 C   0  0  0  0  0  0  0  0  0  0  0  0
  192.1340  176.2650  146.6740 N   0  0  0  0  0  1  0  0  0  0  0  0
  1  7  1  0  0  0  0
  2  6  1  6  0  0  0
  2 21  1  0  0  0  0
  3 14  1  6  0  0  0
  3  4  1  0  0  0  0
  3  6  1  0  0  0  0
  4  1  1  6  0  0  0
  4  8  1  0  0  0  0
  7  5  1  0  0  0  0
  8  5  1  6  0  0  0
  8  2  1  0  0  0  0
  9 10  2  0  0  0  0
  9 11  1  0  0  0  0
 10 16  1  0  0  0  0
 11 14  2  0  0  0  0
 12 17  1  0  0  0  0
 13 17  1  0  0  0  0
 14 13  1  0  0  0  0
 15 12  2  0  0  0  0
 16 15  1  0  0  0  0
 16 13  2  0  0  0  0
 18 11  1  0  0  0  0
 19 18  1  0  0  0  0
 20 28  1  6  0  0  0
 20 25  1  0  0  0  0
 21 23  1  0  0  0  0
 21 26  1  1  0  0  0
 22 25  1  0  0  0  0
 23 20  1  0  0  0  0
 25 24  1  1  0  0  0
 26 22  1  0  0  0  0
 27 28  2  0  0  0  0
 28 29  1  0  0  0  0
M  END
>  <MODEL>
6

>  <REMARK>
 VINA RESULT:      -8.1      1.954      7.484
  Name = 
  4 active torsions:
  status: ('A' for Active; 'I' for Inactive)
    1  A    between atoms: C_2  and  C_16
    2  A    between atoms: C_6  and  O_9
    3  A    between atoms: C_8  and  C_10
    4  A    between atoms: C_14  and  C_18
                            x       y       z     vdW  Elec       q    Type
                         _______ _______ _______ _____ _____    ______ ____

>  <TORSDO>
F 4

$$$$
=
 OpenBabel11062416323D

 29 33  0  0  1  0  0  0  0  0999 V2000
  187.0200  178.9060  140.5240 N   0  0  0  0  0  2  0  0  0  0  0  0
  183.7510  177.7730  140.2430 C   0  0  2  0  0  3  0  0  0  0  0  0
  185.1480  178.3650  141.9640 C   0  0  1  0  0  3  0  0  0  0  0  0
  185.6580  178.8620  140.8540 C   0  0  2  0  0  3  0  0  0  0  0  0
  185.7970  178.2460  138.6900 C   0  0  0  0  0  2  0  0  0  0  0  0
  183.9360  177.7620  141.6610 O   0  0  0  0  0  0  0  0  0  0  0  0
  187.1580  178.6090  139.1560 N   0  0  0  0  0  2  0  0  0  0  0  0
  184.8600  178.5880  139.7530 N   0  0  1  0  0  0  0  0  0  0  0  0
  185.7520  178.6860  145.7220 C   0  0  0  0  0  3  0  0  0  0  0  0
  186.9600  177.9860  145.8650 C   0  0  0  0  0  2  0  0  0  0  0  0
  185.1520  178.8700  144.4570 C   0  0  0  0  0  0  0  0  0  0  0  0
  188.7560  176.4500  143.2180 C   0  0  0  0  0  3  0  0  0  0  0  0
  186.9840  177.6260  143.4820 C   0  0  0  0  0  0  0  0  0  0  0  0
  185.7780  178.3220  143.2960 C   0  0  0  0  0  0  0  0  0  0  0  0
  188.6920  176.7260  144.5840 C   0  0  0  0  0  3  0  0  0  0  0  0
  187.5460  177.4740  144.7170 C   0  0  0  0  0  0  0  0  0  0  0  0
  187.7100  176.9920  142.5470 N   0  0  0  0  0  0  0  0  0  0  0  0
  183.9520  179.5980  144.4320 O   0  0  0  0  0  0  0  0  0  0  0  0
  182.6550  179.0260  144.5090 C   0  0  0  0  0  1  0  0  0  0  0  0
  180.5250  179.3350  140.7360 C   0  0  2  0  0  3  0  0  0  0  0  0
  182.4240  178.4370  139.8980 C   0  0  1  0  0  3  0  0  0  0  0  0
  181.2890  180.1420  138.4960 C   0  0  0  0  0  2  0  0  0  0  0  0
  181.8520  178.9920  141.0570 O   0  0  0  0  0  0  0  0  0  0  0  0
  179.1930  180.8300  139.3960 O   0  0  0  0  0  1  0  0  0  0  0  0
  180.5060  180.5170  139.7530 C   0  0  1  0  0  3  0  0  0  0  0  0
  182.6410  179.5410  138.8610 C   0  0  0  0  0  2  0  0  0  0  0  0
  179.8900  180.8040  142.5150 O   0  0  0  0  0  0  0  0  0  0  0  0
  179.7790  179.6660  141.9880 C   0  0  0  0  0  0  0  0  0  0  0  0
  178.9310  178.6920  142.5830 N   0  0  0  0  0  1  0  0  0  0  0  0
  2  6  1  1  0  0  0
  3 14  1  6  0  0  0
  4  1  1  6  0  0  0
  4  3  1  0  0  0  0
  5  7  1  0  0  0  0
  6  3  1  0  0  0  0
  7  1  1  0  0  0  0
  8  5  1  6  0  0  0
  8  2  1  0  0  0  0
  8  4  1  0  0  0  0
  9 10  1  0  0  0  0
 11  9  2  0  0  0  0
 12 15  1  0  0  0  0
 13 16  1  0  0  0  0
 14 13  2  0  0  0  0
 14 11  1  0  0  0  0
 15 16  2  0  0  0  0
 16 10  1  0  0  0  0
 17 12  2  0  0  0  0
 17 13  1  0  0  0  0
 18 11  1  0  0  0  0
 18 19  1  0  0  0  0
 20 23  1  0  0  0  0
 20 28  1  1  0  0  0
 21 26  1  6  0  0  0
 21  2  1  0  0  0  0
 21 23  1  0  0  0  0
 22 26  1  0  0  0  0
 22 25  1  0  0  0  0
 25 24  1  6  0  0  0
 25 20  1  0  0  0  0
 28 27  2  0  0  0  0
 28 29  1  0  0  0  0
M  END
>  <MODEL>
7

>  <REMARK>
 VINA RESULT:      -8.1      3.950      6.625
  Name = 
  4 active torsions:
  status: ('A' for Active; 'I' for Inactive)
    1  A    between atoms: C_2  and  C_16
    2  A    between atoms: C_6  and  O_9
    3  A    between atoms: C_8  and  C_10
    4  A    between atoms: C_14  and  C_18
                            x       y       z     vdW  Elec       q    Type
                         _______ _______ _______ _____ _____    ______ ____

>  <TORSDO>
F 4

$$$$
=
 OpenBabel11062416323D

 29 33  0  0  1  0  0  0  0  0999 V2000
  186.1570  177.5010  144.4270 N   0  0  0  0  0  2  0  0  0  0  0  0
  188.1430  178.4670  141.7500 C   0  0  2  0  0  3  0  0  0  0  0  0
  188.5030  177.5700  143.8310 C   0  0  1  0  0  3  0  0  0  0  0  0
  187.2310  177.3820  143.5370 C   0  0  2  0  0  3  0  0  0  0  0  0
  185.6210  178.5020  142.4260 C   0  0  0  0  0  2  0  0  0  0  0  0
  189.1280  178.1530  142.7380 O   0  0  0  0  0  0  0  0  0  0  0  0
  185.0870  178.1220  143.7570 N   0  0  0  0  0  2  0  0  0  0  0  0
  186.9200  177.8610  142.2710 N   0  0  1  0  0  0  0  0  0  0  0  0
  191.1110  176.7290  146.4920 C   0  0  0  0  0  3  0  0  0  0  0  0
  190.4470  177.1320  147.6610 C   0  0  0  0  0  2  0  0  0  0  0  0
  190.4910  176.8160  145.2260 C   0  0  0  0  0  0  0  0  0  0  0  0
  187.1810  178.5130  147.7830 C   0  0  0  0  0  3  0  0  0  0  0  0
  188.5360  177.7290  146.3200 C   0  0  0  0  0  0  0  0  0  0  0  0
  189.1640  177.3340  145.1270 C   0  0  0  0  0  0  0  0  0  0  0  0
  188.3110  178.1140  148.4970 C   0  0  0  0  0  3  0  0  0  0  0  0
  189.1570  177.6230  147.5310 C   0  0  0  0  0  0  0  0  0  0  0  0
  187.3210  178.2850  146.4540 N   0  0  0  0  0  0  0  0  0  0  0  0
  191.2450  176.3720  144.1280 O   0  0  0  0  0  0  0  0  0  0  0  0
  191.9850  175.1600  144.0900 C   0  0  0  0  0  1  0  0  0  0  0  0
  188.1400  177.8200  138.1900 C   0  0  2  0  0  3  0  0  0  0  0  0
  188.5170  177.8240  140.4200 C   0  0  1  0  0  3  0  0  0  0  0  0
  190.3760  177.0270  138.9810 C   0  0  0  0  0  2  0  0  0  0  0  0
  188.0100  178.5950  139.3580 O   0  0  0  0  0  0  0  0  0  0  0  0
  189.7600  176.8630  136.6860 O   0  0  0  0  0  1  0  0  0  0  0  0
  189.6240  177.6690  137.8170 C   0  0  1  0  0  3  0  0  0  0  0  0
  190.0390  177.7260  140.2940 C   0  0  0  0  0  2  0  0  0  0  0  0
  187.5390  179.6750  136.8030 O   0  0  0  0  0  0  0  0  0  0  0  0
  187.3700  178.4580  137.0800 C   0  0  0  0  0  0  0  0  0  0  0  0
  186.4450  177.6830  136.3270 N   0  0  0  0  0  1  0  0  0  0  0  0
  2  8  1  0  0  0  0
  2  6  1  1  0  0  0
  3 14  1  1  0  0  0
  4  3  1  0  0  0  0
  4  1  1  1  0  0  0
  5  7  1  0  0  0  0
  6  3  1  0  0  0  0
  7  1  1  0  0  0  0
  8  5  1  1  0  0  0
  8  4  1  0  0  0  0
  9 10  1  0  0  0  0
 11  9  2  0  0  0  0
 12 15  1  0  0  0  0
 13 17  1  0  0  0  0
 13 16  1  0  0  0  0
 14 11  1  0  0  0  0
 14 13  2  0  0  0  0
 16 10  1  0  0  0  0
 16 15  2  0  0  0  0
 17 12  2  0  0  0  0
 18 11  1  0  0  0  0
 19 18  1  0  0  0  0
 20 28  1  6  0  0  0
 20 23  1  0  0  0  0
 21 26  1  6  0  0  0
 21  2  1  0  0  0  0
 22 26  1  0  0  0  0
 23 21  1  0  0  0  0
 25 24  1  6  0  0  0
 25 20  1  0  0  0  0
 25 22  1  0  0  0  0
 27 28  2  0  0  0  0
 29 28  1  0  0  0  0
M  END
>  <MODEL>
8

>  <REMARK>
 VINA RESULT:      -8.1      2.022      3.605
  Name = 
  4 active torsions:
  status: ('A' for Active; 'I' for Inactive)
    1  A    between atoms: C_2  and  C_16
    2  A    between atoms: C_6  and  O_9
    3  A    between atoms: C_8  and  C_10
    4  A    between atoms: C_14  and  C_18
                            x       y       z     vdW  Elec       q    Type
                         _______ _______ _______ _____ _____    ______ ____

>  <TORSDO>
F 4

$$$$
=
 OpenBabel11062416323D

 29 33  0  0  1  0  0  0  0  0999 V2000
  190.2230  178.7250  144.0070 N   0  0  0  0  0  2  0  0  0  0  0  0
  190.0980  176.6240  141.2470 C   0  0  2  0  0  3  0  0  0  0  0  0
  188.5780  177.8330  142.4690 C   0  0  1  0  0  3  0  0  0  0  0  0
  189.7750  178.3130  142.7450 C   0  0  2  0  0  3  0  0  0  0  0  0
  191.8620  177.4910  142.9670 C   0  0  0  0  0  2  0  0  0  0  0  0
  188.7080  176.8550  141.4940 O   0  0  0  0  0  0  0  0  0  0  0  0
  191.5580  178.3090  144.1660 N   0  0  0  0  0  2  0  0  0  0  0  0
  190.7680  177.6670  142.0210 N   0  0  1  0  0  0  0  0  0  0  0  0
  184.9420  178.8060  143.1200 C   0  0  0  0  0  3  0  0  0  0  0  0
  184.8290  178.5360  144.4920 C   0  0  0  0  0  2  0  0  0  0  0  0
  186.1640  178.6310  142.4330 C   0  0  0  0  0  0  0  0  0  0  0  0
  187.4400  177.2990  146.5530 C   0  0  0  0  0  3  0  0  0  0  0  0
  187.1520  177.8960  144.5150 C   0  0  0  0  0  0  0  0  0  0  0  0
  187.3090  178.1570  143.1430 C   0  0  0  0  0  0  0  0  0  0  0  0
  186.1110  177.7160  146.4700 C   0  0  0  0  0  3  0  0  0  0  0  0
  185.9620  178.0850  145.1540 C   0  0  0  0  0  0  0  0  0  0  0  0
  188.0730  177.4020  145.3590 N   0  0  0  0  0  0  0  0  0  0  0  0
  186.1630  178.9450  141.0650 O   0  0  0  0  0  0  0  0  0  0  0  0
  185.0130  178.9350  140.2310 C   0  0  0  0  0  1  0  0  0  0  0  0
  191.1930  175.7970  137.8990 C   0  0  2  0  0  3  0  0  0  0  0  0
  190.3990  176.8010  139.7650 C   0  0  1  0  0  3  0  0  0  0  0  0
  189.5660  177.6720  137.5940 C   0  0  0  0  0  2  0  0  0  0  0  0
  190.6550  175.5480  139.1770 O   0  0  0  0  0  0  0  0  0  0  0  0
  190.6550  176.6780  135.7230 O   0  0  0  0  0  1  0  0  0  0  0  0
  190.1140  176.3870  136.9770 C   0  0  1  0  0  3  0  0  0  0  0  0
  189.2100  177.4570  139.0610 C   0  0  0  0  0  2  0  0  0  0  0  0
  191.0190  173.5040  137.2360 O   0  0  0  0  0  0  0  0  0  0  0  0
  191.7460  174.5280  137.3360 C   0  0  0  0  0  0  0  0  0  0  0  0
  193.0990  174.4800  136.9030 N   0  0  0  0  0  1  0  0  0  0  0  0
  1  7  1  0  0  0  0
  2  6  1  6  0  0  0
  2  8  1  0  0  0  0
  3  4  1  0  0  0  0
  3 14  1  1  0  0  0
  4  1  1  1  0  0  0
  5  7  1  0  0  0  0
  6  3  1  0  0  0  0
  8  4  1  0  0  0  0
  8  5  1  1  0  0  0
  9 10  1  0  0  0  0
 10 16  1  0  0  0  0
 11  9  2  0  0  0  0
 11 14  1  0  0  0  0
 13 16  1  0  0  0  0
 13 17  1  0  0  0  0
 14 13  2  0  0  0  0
 15 12  1  0  0  0  0
 16 15  2  0  0  0  0
 17 12  2  0  0  0  0
 18 11  1  0  0  0  0
 19 18  1  0  0  0  0
 20 28  1  6  0  0  0
 20 23  1  0  0  0  0
 21 26  1  6  0  0  0
 21  2  1  0  0  0  0
 22 26  1  0  0  0  0
 23 21  1  0  0  0  0
 25 24  1  6  0  0  0
 25 22  1  0  0  0  0
 25 20  1  0  0  0  0
 27 28  2  0  0  0  0
 29 28  1  0  0  0  0
M  END
>  <MODEL>
9

>  <REMARK>
 VINA RESULT:      -8.0      2.010      3.519
  Name = 
  4 active torsions:
  status: ('A' for Active; 'I' for Inactive)
    1  A    between atoms: C_2  and  C_16
    2  A    between atoms: C_6  and  O_9
    3  A    between atoms: C_8  and  C_10
    4  A    between atoms: C_14  and  C_18
                            x       y       z     vdW  Elec       q    Type
                         _______ _______ _______ _____ _____    ______ ____

>  <TORSDO>
F 4

$$$$
