=
 OpenBabel11062415223D

 48 53  0  0  1  0  0  0  0  0999 V2000
  188.9730  175.2250  137.9170 O   0  0  0  0  0  0  0  0  0  0  0  0
  189.5130  174.7120  136.7300 C   0  0  0  0  0  2  0  0  0  0  0  0
  187.9780  176.1690  137.5760 C   0  0  2  0  0  3  0  0  0  0  0  0
  186.8720  175.6340  136.6260 C   0  0  1  0  0  3  0  0  0  0  0  0
  187.1450  171.9580  136.2440 O   0  0  0  0  0  0  0  0  0  0  0  0
  188.9270  173.4110  136.4590 N   0  0  0  0  0  2  0  0  0  0  0  0
  187.5210  173.1330  136.5010 C   0  0  0  0  0  0  0  0  0  0  0  0
  186.4910  174.1630  136.9470 C   0  0  2  0  0  3  0  0  0  0  0  0
  183.4600  176.1880  135.6180 O   0  0  0  0  0  0  0  0  0  0  0  0
  183.8420  177.3570  137.7290 C   0  0  2  0  0  3  0  0  0  0  0  0
  181.6300  177.0630  136.6920 O   0  0  0  0  0  1  0  0  0  0  0  0
  182.9910  177.2410  136.4310 C   0  0  2  0  0  3  0  0  0  0  0  0
  185.6520  176.5740  136.6130 C   0  0  1  0  0  3  0  0  0  0  0  0
  184.8140  176.4540  135.3190 C   0  0  0  0  0  2  0  0  0  0  0  0
  184.8550  176.3790  137.7580 O   0  0  0  0  0  0  0  0  0  0  0  0
  183.0600  177.3270  139.0150 C   0  0  0  0  0  0  0  0  0  0  0  0
  182.6410  176.2610  139.4420 O   0  0  0  0  0  0  0  0  0  0  0  0
  182.7360  178.6150  139.7370 C   0  0  1  0  0  3  0  0  0  0  0  0
  182.2010  180.6940  138.5710 C   0  0  0  0  0  3  0  0  0  0  0  0
  180.3410  179.1530  138.8770 C   0  0  0  0  0  3  0  0  0  0  0  0
  181.2600  181.6910  137.9540 C   0  0  0  0  0  2  0  0  0  0  0  0
  181.7610  179.5220  139.0370 C   0  0  0  0  0  0  0  0  0  0  0  0
  179.5340  179.9190  138.1440 C   0  0  0  0  0  3  0  0  0  0  0  0
  180.0260  181.0860  137.5480 O   0  0  0  0  0  0  0  0  0  0  0  0
  182.4100  178.4350  141.1220 O   0  0  0  0  0  0  0  0  0  0  0  0
  185.0190  178.8130  144.4040 C   0  0  0  0  0  3  0  0  0  0  0  0
  183.3030  178.5470  142.1990 C   0  0  0  0  0  0  0  0  0  0  0  0
  185.5350  178.4480  143.1580 C   0  0  0  0  0  3  0  0  0  0  0  0
  184.6800  178.3140  142.0600 C   0  0  0  0  0  3  0  0  0  0  0  0
  183.6500  179.0460  144.5510 C   0  0  0  0  0  3  0  0  0  0  0  0
  182.7960  178.9140  143.4510 C   0  0  0  0  0  3  0  0  0  0  0  0
  185.0770  173.7750  136.4780 C   0  0  0  0  0  2  0  0  0  0  0  0
  184.2430  173.1780  137.6030 C   0  0  0  0  0  1  0  0  0  0  0  0
  188.5890  177.4900  137.0940 C   0  0  0  0  0  2  0  0  0  0  0  0
  188.9960  179.7080  137.8930 O   0  0  0  0  0  0  0  0  0  0  0  0
  188.5450  178.5590  138.1400 C   0  0  0  0  0  0  0  0  0  0  0  0
  188.0130  178.2110  139.4690 C   0  0  0  0  0  3  0  0  0  0  0  0
  188.7060  177.7140  140.4980 C   0  0  0  0  0  3  0  0  0  0  0  0
  190.1680  177.4060  140.4740 C   0  0  0  0  0  2  0  0  0  0  0  0
  190.4410  176.3130  141.3000 O   0  0  0  0  0  0  0  0  0  0  0  0
  190.0520  176.7060  142.5390 N   0  0  0  0  0  2  0  0  0  0  0  0
  188.6710  177.5980  146.8890 C   0  0  0  0  0  2  0  0  0  0  0  0
  190.7760  176.3150  143.7060 C   0  0  0  0  0  0  0  0  0  0  0  0
  188.2470  177.4090  145.5140 C   0  0  0  0  0  2  0  0  0  0  0  0
  190.3640  176.7830  144.9850 N   0  0  0  0  0  0  0  0  0  0  0  0
  190.6430  177.1110  146.2930 O   0  0  0  0  0  0  0  0  0  0  0  0
  191.7820  175.5640  143.6100 O   0  0  0  0  0  0  0  0  0  0  0  0
  189.7010  177.8620  145.7710 C   0  0  0  0  0  0  0  0  0  0  0  0
  2  1  1  0  0  0  0
  3 34  1  6  0  0  0
  3  1  1  0  0  0  0
  4 13  1  1  0  0  0
  4  8  1  0  0  0  0
  4  3  1  0  0  0  0
  5  7  2  0  0  0  0
  6  7  1  0  0  0  0
  6  2  1  0  0  0  0
  7  8  1  0  0  0  0
  8 32  1  6  0  0  0
  9 12  1  0  0  0  0
 10 15  1  0  0  0  0
 10 16  1  1  0  0  0
 12 11  1  1  0  0  0
 12 10  1  0  0  0  0
 13 14  1  6  0  0  0
 13 15  1  0  0  0  0
 14  9  1  0  0  0  0
 16 17  2  0  0  0  0
 18 16  1  6  0  0  0
 18 25  1  0  0  0  0
 19 22  2  0  0  0  0
 20 22  1  0  0  0  0
 21 19  1  0  0  0  0
 22 18  1  0  0  0  0
 23 20  2  0  0  0  0
 24 21  1  0  0  0  0
 24 23  1  0  0  0  0
 25 27  1  0  0  0  0
 26 30  1  0  0  0  0
 27 31  1  0  0  0  0
 28 26  2  0  0  0  0
 29 27  2  0  0  0  0
 29 28  1  0  0  0  0
 31 30  2  0  0  0  0
 32 33  1  0  0  0  0
 34 36  1  0  0  0  0
 35 36  2  0  0  0  0
 36 37  1  0  0  0  0
 37 38  2  0  0  0  0
 39 38  1  0  0  0  0
 39 40  1  0  0  0  0
 40 41  1  0  0  0  0
 41 43  1  0  0  0  0
 43 45  1  0  0  0  0
 44 48  1  0  0  0  0
 44 42  1  0  0  0  0
 45 48  1  0  0  0  0
 45 46  1  0  0  0  0
 47 43  2  0  0  0  0
 48 46  1  0  0  0  0
 48 42  1  0  0  0  0
M  END
>  <MODEL>
1

>  <REMARK>
 VINA RESULT:      -8.2      0.000      0.000
  Name = 
  13 active torsions:
  status: ('A' for Active; 'I' for Inactive)
    1  A    between atoms: C_1  and  C_13
    2  A    between atoms: C_5  and  O_7
    3  A    between atoms: N_6  and  O_12
    4  A    between atoms: O_7  and  C_46
    5  A    between atoms: O_12  and  C_27
    6  A    between atoms: C_13  and  C_14
    7  A    between atoms: C_14  and  C_17
    8  A    between atoms: C_16  and  C_45
    9  A    between atoms: C_19  and  C_43
   10  A    between atoms: C_24  and  C_28
   11  A    between atoms: C_25  and  C_27
   12  A    between atoms: C_28  and  C_46
   13  A    between atoms: C_31  and  C_46
                            x       y       z     vdW  Elec       q    Type
                         _______ _______ _______ _____ _____    ______ ____

>  <TORSDO>
F 13

$$$$
=
 OpenBabel11062415223D

 48 53  0  0  1  0  0  0  0  0999 V2000
  188.9280  177.4330  142.3830 O   0  0  0  0  0  0  0  0  0  0  0  0
  189.9630  178.3490  142.6150 C   0  0  0  0  0  2  0  0  0  0  0  0
  188.1800  177.8870  141.2730 C   0  0  2  0  0  3  0  0  0  0  0  0
  189.0140  178.1500  139.9900 C   0  0  1  0  0  3  0  0  0  0  0  0
  192.4670  176.8640  140.3900 O   0  0  0  0  0  0  0  0  0  0  0  0
  191.2010  177.8260  142.0650 N   0  0  0  0  0  2  0  0  0  0  0  0
  191.3330  177.2850  140.7440 C   0  0  0  0  0  0  0  0  0  0  0  0
  190.1460  177.1020  139.8070 C   0  0  2  0  0  3  0  0  0  0  0  0
  188.7540  178.3700  136.4060 O   0  0  0  0  0  0  0  0  0  0  0  0
  186.7910  177.1870  137.2510 C   0  0  2  0  0  3  0  0  0  0  0  0
  187.3770  177.3650  134.8680 O   0  0  0  0  0  1  0  0  0  0  0  0
  187.4210  178.0240  136.1000 C   0  0  2  0  0  3  0  0  0  0  0  0
  188.1040  178.2640  138.7520 C   0  0  1  0  0  3  0  0  0  0  0  0
  188.7370  179.0970  137.6140 C   0  0  0  0  0  2  0  0  0  0  0  0
  187.7150  176.9900  138.2960 O   0  0  0  0  0  0  0  0  0  0  0  0
  186.1930  175.8700  136.8360 C   0  0  0  0  0  0  0  0  0  0  0  0
  186.9060  175.0150  136.3320 O   0  0  0  0  0  0  0  0  0  0  0  0
  184.7070  175.6330  136.9770 C   0  0  1  0  0  3  0  0  0  0  0  0
  183.6250  174.2960  135.2420 C   0  0  0  0  0  3  0  0  0  0  0  0
  184.3280  173.0720  137.2250 C   0  0  0  0  0  3  0  0  0  0  0  0
  183.0130  173.0360  134.6940 C   0  0  0  0  0  2  0  0  0  0  0  0
  184.2070  174.3180  136.4430 C   0  0  0  0  0  0  0  0  0  0  0  0
  183.9900  171.9060  136.6750 C   0  0  0  0  0  3  0  0  0  0  0  0
  183.4970  171.8670  135.3650 O   0  0  0  0  0  0  0  0  0  0  0  0
  184.1980  175.9140  138.2880 O   0  0  0  0  0  0  0  0  0  0  0  0
  181.5750  179.0720  139.2200 C   0  0  0  0  0  3  0  0  0  0  0  0
  183.3120  176.9500  138.6230 C   0  0  0  0  0  0  0  0  0  0  0  0
  181.7420  178.0290  140.1340 C   0  0  0  0  0  3  0  0  0  0  0  0
  182.6060  176.9710  139.8360 C   0  0  0  0  0  3  0  0  0  0  0  0
  182.2730  179.0580  138.0110 C   0  0  0  0  0  3  0  0  0  0  0  0
  183.1390  178.0000  137.7150 C   0  0  0  0  0  3  0  0  0  0  0  0
  190.6080  176.9420  138.3470 C   0  0  0  0  0  2  0  0  0  0  0  0
  190.6270  175.4840  137.9080 C   0  0  0  0  0  1  0  0  0  0  0  0
  187.2700  179.0650  141.6430 C   0  0  0  0  0  2  0  0  0  0  0  0
  185.2860  179.3740  140.3430 O   0  0  0  0  0  0  0  0  0  0  0  0
  185.8330  178.8030  141.3240 C   0  0  0  0  0  0  0  0  0  0  0  0
  185.0730  177.9090  142.2140 C   0  0  0  0  0  3  0  0  0  0  0  0
  184.5380  178.2300  143.3960 C   0  0  0  0  0  3  0  0  0  0  0  0
  184.6300  179.5760  144.0380 C   0  0  0  0  0  2  0  0  0  0  0  0
  184.4950  179.4550  145.4230 O   0  0  0  0  0  0  0  0  0  0  0  0
  185.6030  178.7870  145.8260 N   0  0  0  0  0  2  0  0  0  0  0  0
  189.6240  176.9080  147.2170 C   0  0  0  0  0  2  0  0  0  0  0  0
  186.2310  179.0710  147.0770 C   0  0  0  0  0  0  0  0  0  0  0  0
  188.8040  177.2720  146.0760 C   0  0  0  0  0  2  0  0  0  0  0  0
  187.3670  178.3180  147.4870 N   0  0  0  0  0  0  0  0  0  0  0  0
  188.1790  177.8080  148.4750 O   0  0  0  0  0  0  0  0  0  0  0  0
  185.7820  179.9810  147.8240 O   0  0  0  0  0  0  0  0  0  0  0  0
  188.0990  177.0220  147.4270 C   0  0  0  0  0  0  0  0  0  0  0  0
  1  2  1  0  0  0  0
  3 34  1  1  0  0  0
  3  1  1  0  0  0  0
  4 13  1  6  0  0  0
  4  3  1  0  0  0  0
  5  7  2  0  0  0  0
  6  2  1  0  0  0  0
  7  6  1  0  0  0  0
  8 32  1  6  0  0  0
  8  4  1  0  0  0  0
  8  7  1  0  0  0  0
  9 14  1  0  0  0  0
 10 16  1  6  0  0  0
 10 15  1  0  0  0  0
 12 11  1  6  0  0  0
 12  9  1  0  0  0  0
 12 10  1  0  0  0  0
 13 14  1  6  0  0  0
 15 13  1  0  0  0  0
 17 16  2  0  0  0  0
 18 16  1  1  0  0  0
 18 25  1  0  0  0  0
 19 22  2  0  0  0  0
 21 19  1  0  0  0  0
 21 24  1  0  0  0  0
 22 18  1  0  0  0  0
 22 20  1  0  0  0  0
 23 20  2  0  0  0  0
 24 23  1  0  0  0  0
 25 27  1  0  0  0  0
 26 28  1  0  0  0  0
 27 29  1  0  0  0  0
 29 28  2  0  0  0  0
 30 26  2  0  0  0  0
 31 30  1  0  0  0  0
 31 27  2  0  0  0  0
 33 32  1  0  0  0  0
 35 36  2  0  0  0  0
 36 34  1  0  0  0  0
 36 37  1  0  0  0  0
 37 38  2  0  0  0  0
 38 39  1  0  0  0  0
 39 40  1  0  0  0  0
 40 41  1  0  0  0  0
 41 43  1  0  0  0  0
 42 48  1  0  0  0  0
 43 45  1  0  0  0  0
 43 47  2  0  0  0  0
 44 42  1  0  0  0  0
 44 48  1  0  0  0  0
 45 46  1  0  0  0  0
 48 45  1  0  0  0  0
 48 46  1  0  0  0  0
M  END
>  <MODEL>
2

>  <REMARK>
 VINA RESULT:      -8.1      2.324      5.835
  Name = 
  13 active torsions:
  status: ('A' for Active; 'I' for Inactive)
    1  A    between atoms: C_1  and  C_13
    2  A    between atoms: C_5  and  O_7
    3  A    between atoms: N_6  and  O_12
    4  A    between atoms: O_7  and  C_46
    5  A    between atoms: O_12  and  C_27
    6  A    between atoms: C_13  and  C_14
    7  A    between atoms: C_14  and  C_17
    8  A    between atoms: C_16  and  C_45
    9  A    between atoms: C_19  and  C_43
   10  A    between atoms: C_24  and  C_28
   11  A    between atoms: C_25  and  C_27
   12  A    between atoms: C_28  and  C_46
   13  A    between atoms: C_31  and  C_46
                            x       y       z     vdW  Elec       q    Type
                         _______ _______ _______ _____ _____    ______ ____

>  <TORSDO>
F 13

$$$$
=
 OpenBabel11062415223D

 48 53  0  0  1  0  0  0  0  0999 V2000
  184.9460  179.3800  141.7300 O   0  0  0  0  0  0  0  0  0  0  0  0
  185.3720  178.3360  142.5630 C   0  0  0  0  0  2  0  0  0  0  0  0
  183.8840  178.9000  140.9310 C   0  0  2  0  0  3  0  0  0  0  0  0
  182.7030  178.2790  141.7250 C   0  0  1  0  0  3  0  0  0  0  0  0
  183.0750  178.9410  145.3530 O   0  0  0  0  0  0  0  0  0  0  0  0
  184.8120  178.5200  143.8900 N   0  0  0  0  0  2  0  0  0  0  0  0
  183.4310  178.8030  144.1510 C   0  0  0  0  0  0  0  0  0  0  0  0
  182.4170  179.0510  143.0420 C   0  0  2  0  0  3  0  0  0  0  0  0
  181.1230  178.9400  138.5580 O   0  0  0  0  0  0  0  0  0  0  0  0
  180.2610  176.8250  139.4240 C   0  0  2  0  0  3  0  0  0  0  0  0
  179.8340  177.6640  137.1510 O   0  0  0  0  0  1  0  0  0  0  0  0
  180.0380  178.0430  138.4800 C   0  0  2  0  0  3  0  0  0  0  0  0
  181.4520  178.1380  140.8360 C   0  0  1  0  0  3  0  0  0  0  0  0
  181.2380  179.3520  139.9030 C   0  0  0  0  0  2  0  0  0  0  0  0
  181.4880  176.9340  140.1070 O   0  0  0  0  0  0  0  0  0  0  0  0
  180.1530  175.4750  138.7690 C   0  0  0  0  0  0  0  0  0  0  0  0
  179.1040  174.8510  138.8410 O   0  0  0  0  0  0  0  0  0  0  0  0
  181.3550  174.8630  138.0870 C   0  0  1  0  0  3  0  0  0  0  0  0
  181.2690  172.5870  137.2030 C   0  0  0  0  0  3  0  0  0  0  0  0
  180.5310  174.3340  135.6770 C   0  0  0  0  0  3  0  0  0  0  0  0
  181.0800  171.5690  136.1120 C   0  0  0  0  0  2  0  0  0  0  0  0
  181.0470  173.8860  136.9850 C   0  0  0  0  0  0  0  0  0  0  0  0
  180.1510  173.4370  134.7690 C   0  0  0  0  0  3  0  0  0  0  0  0
  180.2650  172.0690  135.0450 O   0  0  0  0  0  0  0  0  0  0  0  0
  182.3490  175.8210  137.6990 O   0  0  0  0  0  0  0  0  0  0  0  0
  186.0410  174.9090  135.8910 C   0  0  0  0  0  3  0  0  0  0  0  0
  183.5700  175.5310  137.0690 C   0  0  0  0  0  0  0  0  0  0  0  0
  185.1820  175.8200  135.2710 C   0  0  0  0  0  3  0  0  0  0  0  0
  183.9510  176.1280  135.8570 C   0  0  0  0  0  3  0  0  0  0  0  0
  185.6700  174.3100  137.0960 C   0  0  0  0  0  3  0  0  0  0  0  0
  184.4390  174.6220  137.6830 C   0  0  0  0  0  3  0  0  0  0  0  0
  180.9760  178.8810  143.5570 C   0  0  0  0  0  2  0  0  0  0  0  0
  180.1200  180.1110  143.2850 C   0  0  0  0  0  1  0  0  0  0  0  0
  184.3860  177.9910  139.8030 C   0  0  0  0  0  2  0  0  0  0  0  0
  184.8070  179.9050  138.4310 O   0  0  0  0  0  0  0  0  0  0  0  0
  185.1540  178.7400  138.7610 C   0  0  0  0  0  0  0  0  0  0  0  0
  186.2820  178.0580  138.1020 C   0  0  0  0  0  3  0  0  0  0  0  0
  187.4980  177.8540  138.6170 C   0  0  0  0  0  3  0  0  0  0  0  0
  187.9380  178.3020  139.9720 C   0  0  0  0  0  2  0  0  0  0  0  0
  189.0210  177.5310  140.4030 O   0  0  0  0  0  0  0  0  0  0  0  0
  189.0040  177.6270  141.7550 N   0  0  0  0  0  2  0  0  0  0  0  0
  188.7730  177.5220  146.3990 C   0  0  0  0  0  2  0  0  0  0  0  0
  189.7590  176.7340  142.5760 C   0  0  0  0  0  0  0  0  0  0  0  0
  188.0760  177.8650  145.1730 C   0  0  0  0  0  2  0  0  0  0  0  0
  189.7510  176.8940  143.9900 N   0  0  0  0  0  0  0  0  0  0  0  0
  190.3460  176.7360  145.2210 O   0  0  0  0  0  0  0  0  0  0  0  0
  190.4360  175.8090  142.0550 O   0  0  0  0  0  0  0  0  0  0  0  0
  189.6190  177.8260  145.1450 C   0  0  0  0  0  0  0  0  0  0  0  0
  1  2  1  0  0  0  0
  2  6  1  0  0  0  0
  3 34  1  6  0  0  0
  3  4  1  0  0  0  0
  3  1  1  0  0  0  0
  4 13  1  6  0  0  0
  4  8  1  0  0  0  0
  6  7  1  0  0  0  0
  7  5  2  0  0  0  0
  8 32  1  1  0  0  0
  8  7  1  0  0  0  0
  9 14  1  0  0  0  0
 10 16  1  6  0  0  0
 10 15  1  0  0  0  0
 12 11  1  6  0  0  0
 12  9  1  0  0  0  0
 12 10  1  0  0  0  0
 13 14  1  6  0  0  0
 15 13  1  0  0  0  0
 16 17  2  0  0  0  0
 18 25  1  6  0  0  0
 18 16  1  0  0  0  0
 20 22  1  0  0  0  0
 21 19  1  0  0  0  0
 22 19  2  0  0  0  0
 22 18  1  0  0  0  0
 23 24  1  0  0  0  0
 23 20  2  0  0  0  0
 24 21  1  0  0  0  0
 26 30  1  0  0  0  0
 27 31  1  0  0  0  0
 27 25  1  0  0  0  0
 28 29  1  0  0  0  0
 28 26  2  0  0  0  0
 29 27  2  0  0  0  0
 30 31  2  0  0  0  0
 33 32  1  0  0  0  0
 35 36  2  0  0  0  0
 36 34  1  0  0  0  0
 37 38  2  0  0  0  0
 37 36  1  0  0  0  0
 38 39  1  0  0  0  0
 39 40  1  0  0  0  0
 40 41  1  0  0  0  0
 41 43  1  0  0  0  0
 43 45  1  0  0  0  0
 44 42  1  0  0  0  0
 45 48  1  0  0  0  0
 45 46  1  0  0  0  0
 47 43  2  0  0  0  0
 48 44  1  0  0  0  0
 48 46  1  0  0  0  0
 48 42  1  0  0  0  0
M  END
>  <MODEL>
3

>  <REMARK>
 VINA RESULT:      -7.8      2.465      6.266
  Name = 
  13 active torsions:
  status: ('A' for Active; 'I' for Inactive)
    1  A    between atoms: C_1  and  C_13
    2  A    between atoms: C_5  and  O_7
    3  A    between atoms: N_6  and  O_12
    4  A    between atoms: O_7  and  C_46
    5  A    between atoms: O_12  and  C_27
    6  A    between atoms: C_13  and  C_14
    7  A    between atoms: C_14  and  C_17
    8  A    between atoms: C_16  and  C_45
    9  A    between atoms: C_19  and  C_43
   10  A    between atoms: C_24  and  C_28
   11  A    between atoms: C_25  and  C_27
   12  A    between atoms: C_28  and  C_46
   13  A    between atoms: C_31  and  C_46
                            x       y       z     vdW  Elec       q    Type
                         _______ _______ _______ _____ _____    ______ ____

>  <TORSDO>
F 13

$$$$
=
 OpenBabel11062415223D

 48 53  0  0  1  0  0  0  0  0999 V2000
  182.9070  178.4390  143.6660 O   0  0  0  0  0  0  0  0  0  0  0  0
  183.2650  179.6780  144.2160 C   0  0  0  0  0  2  0  0  0  0  0  0
  183.4370  178.3690  142.3580 C   0  0  2  0  0  3  0  0  0  0  0  0
  184.9660  178.6210  142.2610 C   0  0  1  0  0  3  0  0  0  0  0  0
  186.4950  178.6910  145.6360 O   0  0  0  0  0  0  0  0  0  0  0  0
  184.3980  179.5000  145.1060 N   0  0  0  0  0  2  0  0  0  0  0  0
  185.5840  178.7700  144.7690 C   0  0  0  0  0  0  0  0  0  0  0  0
  185.7350  178.0030  143.4610 C   0  0  2  0  0  3  0  0  0  0  0  0
  185.3360  179.2700  138.7390 O   0  0  0  0  0  0  0  0  0  0  0  0
  187.3040  178.0460  139.5090 C   0  0  2  0  0  3  0  0  0  0  0  0
  187.1020  179.0790  137.2860 O   0  0  0  0  0  1  0  0  0  0  0  0
  186.3950  178.4440  138.3100 C   0  0  2  0  0  3  0  0  0  0  0  0
  185.5180  178.1570  140.9000 C   0  0  1  0  0  3  0  0  0  0  0  0
  184.6090  178.5550  139.7150 C   0  0  0  0  0  2  0  0  0  0  0  0
  186.8360  178.6150  140.7090 O   0  0  0  0  0  0  0  0  0  0  0  0
  188.7680  178.3440  139.3340 C   0  0  0  0  0  0  0  0  0  0  0  0
  189.1120  179.3230  138.6870 O   0  0  0  0  0  0  0  0  0  0  0  0
  189.8080  177.4010  139.8940 C   0  0  1  0  0  3  0  0  0  0  0  0
  191.8880  176.6960  138.8240 C   0  0  0  0  0  3  0  0  0  0  0  0
  189.8570  175.6930  137.9330 C   0  0  0  0  0  3  0  0  0  0  0  0
  192.6890  175.9880  137.7650 C   0  0  0  0  0  2  0  0  0  0  0  0
  190.5590  176.5850  138.8760 C   0  0  0  0  0  0  0  0  0  0  0  0
  190.5550  174.8910  137.1310 C   0  0  0  0  0  3  0  0  0  0  0  0
  191.9550  174.9140  137.1640 O   0  0  0  0  0  0  0  0  0  0  0  0
  190.6840  178.0090  140.8530 O   0  0  0  0  0  0  0  0  0  0  0  0
  191.2670  176.8330  144.8530 C   0  0  0  0  0  3  0  0  0  0  0  0
  190.8750  177.5870  142.1770 C   0  0  0  0  0  0  0  0  0  0  0  0
  191.3150  175.8690  143.8420 C   0  0  0  0  0  3  0  0  0  0  0  0
  191.1190  176.2450  142.5100 C   0  0  0  0  0  3  0  0  0  0  0  0
  191.0260  178.1700  144.5300 C   0  0  0  0  0  3  0  0  0  0  0  0
  190.8310  178.5440  143.1970 C   0  0  0  0  0  3  0  0  0  0  0  0
  187.2150  177.7040  143.1580 C   0  0  0  0  0  2  0  0  0  0  0  0
  187.6150  176.2980  143.5850 C   0  0  0  0  0  1  0  0  0  0  0  0
  182.6300  179.2200  141.3710 C   0  0  0  0  0  2  0  0  0  0  0  0
  180.3470  179.3920  142.0650 O   0  0  0  0  0  0  0  0  0  0  0  0
  181.1880  178.8260  141.3180 C   0  0  0  0  0  0  0  0  0  0  0  0
  180.7980  177.7300  140.4140 C   0  0  0  0  0  3  0  0  0  0  0  0
  180.3110  177.8560  139.1750 C   0  0  0  0  0  3  0  0  0  0  0  0
  180.0630  179.1570  138.4830 C   0  0  0  0  0  2  0  0  0  0  0  0
  181.2060  179.5540  137.7850 O   0  0  0  0  0  0  0  0  0  0  0  0
  180.9820  180.8500  137.4560 N   0  0  0  0  0  2  0  0  0  0  0  0
  180.1370  185.3730  136.7820 C   0  0  0  0  0  2  0  0  0  0  0  0
  181.7790  181.9040  137.9980 C   0  0  0  0  0  0  0  0  0  0  0  0
  179.5610  184.0410  136.8260 C   0  0  0  0  0  2  0  0  0  0  0  0
  181.5440  183.2490  137.5950 N   0  0  0  0  0  0  0  0  0  0  0  0
  181.9820  184.5380  137.3960 O   0  0  0  0  0  0  0  0  0  0  0  0
  182.6930  181.6510  138.8270 O   0  0  0  0  0  0  0  0  0  0  0  0
  181.0700  184.1720  136.5260 C   0  0  0  0  0  0  0  0  0  0  0  0
  1  2  1  0  0  0  0
  2  6  1  0  0  0  0
  3 34  1  6  0  0  0
  3  1  1  0  0  0  0
  4 13  1  6  0  0  0
  4  3  1  0  0  0  0
  4  8  1  0  0  0  0
  7  6  1  0  0  0  0
  7  5  2  0  0  0  0
  8 32  1  6  0  0  0
  8  7  1  0  0  0  0
  9 14  1  0  0  0  0
 10 16  1  6  0  0  0
 10 15  1  0  0  0  0
 12 11  1  6  0  0  0
 12  9  1  0  0  0  0
 12 10  1  0  0  0  0
 13 14  1  6  0  0  0
 15 13  1  0  0  0  0
 17 16  2  0  0  0  0
 18 16  1  6  0  0  0
 18 25  1  0  0  0  0
 19 22  2  0  0  0  0
 20 22  1  0  0  0  0
 21 19  1  0  0  0  0
 22 18  1  0  0  0  0
 23 24  1  0  0  0  0
 23 20  2  0  0  0  0
 24 21  1  0  0  0  0
 25 27  1  0  0  0  0
 27 29  2  0  0  0  0
 27 31  1  0  0  0  0
 28 26  2  0  0  0  0
 29 28  1  0  0  0  0
 30 26  1  0  0  0  0
 31 30  2  0  0  0  0
 32 33  1  0  0  0  0
 36 34  1  0  0  0  0
 36 35  2  0  0  0  0
 37 36  1  0  0  0  0
 38 37  2  0  0  0  0
 39 38  1  0  0  0  0
 40 39  1  0  0  0  0
 41 40  1  0  0  0  0
 41 43  1  0  0  0  0
 42 44  1  0  0  0  0
 43 47  2  0  0  0  0
 45 43  1  0  0  0  0
 46 45  1  0  0  0  0
 48 42  1  0  0  0  0
 48 44  1  0  0  0  0
 48 46  1  0  0  0  0
 48 45  1  0  0  0  0
M  END
>  <MODEL>
4

>  <REMARK>
 VINA RESULT:      -7.8      3.378      9.443
  Name = 
  13 active torsions:
  status: ('A' for Active; 'I' for Inactive)
    1  A    between atoms: C_1  and  C_13
    2  A    between atoms: C_5  and  O_7
    3  A    between atoms: N_6  and  O_12
    4  A    between atoms: O_7  and  C_46
    5  A    between atoms: O_12  and  C_27
    6  A    between atoms: C_13  and  C_14
    7  A    between atoms: C_14  and  C_17
    8  A    between atoms: C_16  and  C_45
    9  A    between atoms: C_19  and  C_43
   10  A    between atoms: C_24  and  C_28
   11  A    between atoms: C_25  and  C_27
   12  A    between atoms: C_28  and  C_46
   13  A    between atoms: C_31  and  C_46
                            x       y       z     vdW  Elec       q    Type
                         _______ _______ _______ _____ _____    ______ ____

>  <TORSDO>
F 13

$$$$
=
 OpenBabel11062415223D

 48 53  0  0  1  0  0  0  0  0999 V2000
  190.4410  177.8960  143.3940 O   0  0  0  0  0  0  0  0  0  0  0  0
  190.9840  176.6460  143.7230 C   0  0  0  0  0  2  0  0  0  0  0  0
  189.0470  177.7390  143.2240 C   0  0  2  0  0  3  0  0  0  0  0  0
  188.3140  177.0930  144.4310 C   0  0  1  0  0  3  0  0  0  0  0  0
  190.5730  176.8520  147.3580 O   0  0  0  0  0  0  0  0  0  0  0  0
  191.2130  176.5820  145.1550 N   0  0  0  0  0  2  0  0  0  0  0  0
  190.2460  176.9550  146.1450 C   0  0  0  0  0  0  0  0  0  0  0  0
  188.8970  177.5680  145.7890 C   0  0  2  0  0  3  0  0  0  0  0  0
  185.4640  179.1480  145.2190 O   0  0  0  0  0  0  0  0  0  0  0  0
  185.0520  178.0450  143.0790 C   0  0  2  0  0  3  0  0  0  0  0  0
  183.6420  179.8360  144.0040 O   0  0  0  0  0  1  0  0  0  0  0  0
  184.4460  178.7410  144.3320 C   0  0  2  0  0  3  0  0  0  0  0  0
  186.7910  177.3060  144.3310 C   0  0  1  0  0  3  0  0  0  0  0  0
  186.1970  177.9980  145.5800 C   0  0  0  0  0  2  0  0  0  0  0  0
  186.4580  178.0050  143.1540 O   0  0  0  0  0  0  0  0  0  0  0  0
  184.6230  178.6150  141.7550 C   0  0  0  0  0  0  0  0  0  0  0  0
  185.1400  179.6440  141.3440 O   0  0  0  0  0  0  0  0  0  0  0  0
  183.5090  177.9600  140.9700 C   0  0  1  0  0  3  0  0  0  0  0  0
  182.0130  179.5040  139.8100 C   0  0  0  0  0  3  0  0  0  0  0  0
  181.2250  178.7020  141.9700 C   0  0  0  0  0  3  0  0  0  0  0  0
  180.8010  180.3900  139.7100 C   0  0  0  0  0  2  0  0  0  0  0  0
  182.2270  178.7440  140.8860 C   0  0  0  0  0  0  0  0  0  0  0  0
  180.0480  179.3050  141.8100 C   0  0  0  0  0  3  0  0  0  0  0  0
  179.7720  180.0000  140.6260 O   0  0  0  0  0  0  0  0  0  0  0  0
  183.9200  177.4560  139.6920 O   0  0  0  0  0  0  0  0  0  0  0  0
  181.5500  175.0730  137.1570 C   0  0  0  0  0  3  0  0  0  0  0  0
  183.1390  176.6810  138.8220 C   0  0  0  0  0  0  0  0  0  0  0  0
  182.4450  175.9890  136.5960 C   0  0  0  0  0  3  0  0  0  0  0  0
  183.2350  176.7900  137.4260 C   0  0  0  0  0  3  0  0  0  0  0  0
  181.4480  174.9590  138.5440 C   0  0  0  0  0  3  0  0  0  0  0  0
  182.2410  175.7600  139.3730 C   0  0  0  0  0  3  0  0  0  0  0  0
  187.9060  177.4520  146.9610 C   0  0  0  0  0  2  0  0  0  0  0  0
  188.2450  178.4070  148.0970 C   0  0  0  0  0  1  0  0  0  0  0  0
  188.7090  177.0630  141.8900 C   0  0  0  0  0  2  0  0  0  0  0  0
  188.2770  178.9850  140.5340 O   0  0  0  0  0  0  0  0  0  0  0  0
  188.9700  177.9500  140.7150 C   0  0  0  0  0  0  0  0  0  0  0  0
  190.0160  177.5480  139.7570 C   0  0  0  0  0  3  0  0  0  0  0  0
  189.8230  177.0630  138.5270 C   0  0  0  0  0  3  0  0  0  0  0  0
  188.4880  176.8290  137.9000 C   0  0  0  0  0  2  0  0  0  0  0  0
  188.6330  176.0740  136.7330 O   0  0  0  0  0  0  0  0  0  0  0  0
  187.6460  175.1460  136.7920 N   0  0  0  0  0  2  0  0  0  0  0  0
  183.9680  172.3150  137.0830 C   0  0  0  0  0  2  0  0  0  0  0  0
  186.5310  175.1860  135.9010 C   0  0  0  0  0  0  0  0  0  0  0  0
  185.0590  172.9390  137.8100 C   0  0  0  0  0  2  0  0  0  0  0  0
  185.5370  174.1690  135.9640 N   0  0  0  0  0  0  0  0  0  0  0  0
  184.5480  173.4170  135.3720 O   0  0  0  0  0  0  0  0  0  0  0  0
  186.4230  176.1130  135.0560 O   0  0  0  0  0  0  0  0  0  0  0  0
  185.2150  172.7500  136.2860 C   0  0  0  0  0  0  0  0  0  0  0  0
  1  2  1  0  0  0  0
  2  6  1  0  0  0  0
  3 34  1  6  0  0  0
  3  1  1  0  0  0  0
  3  4  1  0  0  0  0
  4 13  1  1  0  0  0
  4  8  1  0  0  0  0
  6  7  1  0  0  0  0
  7  5  2  0  0  0  0
  8  7  1  0  0  0  0
  8 32  1  1  0  0  0
  9 14  1  0  0  0  0
 10 16  1  6  0  0  0
 10 15  1  0  0  0  0
 10 12  1  0  0  0  0
 12 11  1  6  0  0  0
 12  9  1  0  0  0  0
 13 14  1  1  0  0  0
 15 13  1  0  0  0  0
 17 16  2  0  0  0  0
 18 25  1  6  0  0  0
 18 16  1  0  0  0  0
 19 22  2  0  0  0  0
 21 19  1  0  0  0  0
 21 24  1  0  0  0  0
 22 18  1  0  0  0  0
 22 20  1  0  0  0  0
 23 20  2  0  0  0  0
 24 23  1  0  0  0  0
 26 30  1  0  0  0  0
 27 31  1  0  0  0  0
 27 25  1  0  0  0  0
 28 26  2  0  0  0  0
 28 29  1  0  0  0  0
 29 27  2  0  0  0  0
 30 31  2  0  0  0  0
 32 33  1  0  0  0  0
 35 36  2  0  0  0  0
 36 34  1  0  0  0  0
 37 36  1  0  0  0  0
 38 37  2  0  0  0  0
 39 38  1  0  0  0  0
 40 41  1  0  0  0  0
 40 39  1  0  0  0  0
 42 44  1  0  0  0  0
 43 45  1  0  0  0  0
 43 41  1  0  0  0  0
 45 48  1  0  0  0  0
 46 45  1  0  0  0  0
 46 48  1  0  0  0  0
 47 43  2  0  0  0  0
 48 42  1  0  0  0  0
 48 44  1  0  0  0  0
M  END
>  <MODEL>
5

>  <REMARK>
 VINA RESULT:      -7.7      2.078      7.533
  Name = 
  13 active torsions:
  status: ('A' for Active; 'I' for Inactive)
    1  A    between atoms: C_1  and  C_13
    2  A    between atoms: C_5  and  O_7
    3  A    between atoms: N_6  and  O_12
    4  A    between atoms: O_7  and  C_46
    5  A    between atoms: O_12  and  C_27
    6  A    between atoms: C_13  and  C_14
    7  A    between atoms: C_14  and  C_17
    8  A    between atoms: C_16  and  C_45
    9  A    between atoms: C_19  and  C_43
   10  A    between atoms: C_24  and  C_28
   11  A    between atoms: C_25  and  C_27
   12  A    between atoms: C_28  and  C_46
   13  A    between atoms: C_31  and  C_46
                            x       y       z     vdW  Elec       q    Type
                         _______ _______ _______ _____ _____    ______ ____

>  <TORSDO>
F 13

$$$$
=
 OpenBabel11062415223D

 48 53  0  0  1  0  0  0  0  0999 V2000
  188.9040  177.5130  142.4560 O   0  0  0  0  0  0  0  0  0  0  0  0
  189.9320  178.4420  142.6680 C   0  0  0  0  0  2  0  0  0  0  0  0
  188.1680  177.9220  141.3220 C   0  0  2  0  0  3  0  0  0  0  0  0
  189.0170  178.1430  140.0410 C   0  0  1  0  0  3  0  0  0  0  0  0
  192.4700  176.8890  140.5290 O   0  0  0  0  0  0  0  0  0  0  0  0
  191.1790  177.9050  142.1520 N   0  0  0  0  0  2  0  0  0  0  0  0
  191.3300  177.3180  140.8540 C   0  0  0  0  0  0  0  0  0  0  0  0
  190.1560  177.0950  139.9090 C   0  0  2  0  0  3  0  0  0  0  0  0
  188.7930  178.5500  136.4700 O   0  0  0  0  0  0  0  0  0  0  0  0
  186.9990  177.0570  137.1910 C   0  0  2  0  0  3  0  0  0  0  0  0
  187.5960  177.4640  134.8400 O   0  0  0  0  0  1  0  0  0  0  0  0
  187.5270  178.0430  136.1090 C   0  0  2  0  0  3  0  0  0  0  0  0
  188.1220  178.2080  138.7880 C   0  0  1  0  0  3  0  0  0  0  0  0
  188.6530  179.1910  137.7190 C   0  0  0  0  0  2  0  0  0  0  0  0
  187.9230  176.9230  138.2460 O   0  0  0  0  0  0  0  0  0  0  0  0
  186.5980  175.6980  136.6830 C   0  0  0  0  0  0  0  0  0  0  0  0
  187.4220  175.0000  136.1110 O   0  0  0  0  0  0  0  0  0  0  0  0
  185.1670  175.2300  136.8160 C   0  0  1  0  0  3  0  0  0  0  0  0
  183.8650  176.6640  138.3030 C   0  0  0  0  0  3  0  0  0  0  0  0
  183.4530  176.9700  135.9230 C   0  0  0  0  0  3  0  0  0  0  0  0
  182.7840  177.6660  138.6070 C   0  0  0  0  0  2  0  0  0  0  0  0
  184.1490  176.3130  137.0470 C   0  0  0  0  0  0  0  0  0  0  0  0
  182.6520  178.0090  136.1530 C   0  0  0  0  0  3  0  0  0  0  0  0
  182.4500  178.4610  137.4630 O   0  0  0  0  0  0  0  0  0  0  0  0
  184.7610  174.3140  135.7900 O   0  0  0  0  0  0  0  0  0  0  0  0
  183.5860  170.3040  136.3060 C   0  0  0  0  0  3  0  0  0  0  0  0
  184.3500  172.9860  135.9860 C   0  0  0  0  0  0  0  0  0  0  0  0
  182.8830  171.3140  136.9690 C   0  0  0  0  0  3  0  0  0  0  0  0
  183.2650  172.6490  136.8110 C   0  0  0  0  0  3  0  0  0  0  0  0
  184.6660  170.6310  135.4840 C   0  0  0  0  0  3  0  0  0  0  0  0
  185.0450  171.9680  135.3250 C   0  0  0  0  0  3  0  0  0  0  0  0
  190.6370  176.8840  138.4620 C   0  0  0  0  0  2  0  0  0  0  0  0
  190.7480  175.4090  138.1030 C   0  0  0  0  0  1  0  0  0  0  0  0
  187.2490  179.1080  141.6380 C   0  0  0  0  0  2  0  0  0  0  0  0
  185.2640  179.4080  140.3370 O   0  0  0  0  0  0  0  0  0  0  0  0
  185.8170  178.8280  141.3090 C   0  0  0  0  0  0  0  0  0  0  0  0
  185.0690  177.9060  142.1800 C   0  0  0  0  0  3  0  0  0  0  0  0
  184.5460  178.1900  143.3760 C   0  0  0  0  0  3  0  0  0  0  0  0
  184.6400  179.5170  144.0570 C   0  0  0  0  0  2  0  0  0  0  0  0
  184.4810  179.3590  145.4360 O   0  0  0  0  0  0  0  0  0  0  0  0
  185.6040  178.7190  145.8470 N   0  0  0  0  0  2  0  0  0  0  0  0
  189.6630  176.9390  147.2550 C   0  0  0  0  0  2  0  0  0  0  0  0
  186.2310  179.0380  147.0900 C   0  0  0  0  0  0  0  0  0  0  0  0
  188.8320  177.2670  146.1110 C   0  0  0  0  0  2  0  0  0  0  0  0
  187.3820  178.3130  147.5080 N   0  0  0  0  0  0  0  0  0  0  0  0
  188.2070  177.8370  148.5020 O   0  0  0  0  0  0  0  0  0  0  0  0
  185.7690  179.9530  147.8210 O   0  0  0  0  0  0  0  0  0  0  0  0
  188.1370  177.0290  147.4690 C   0  0  0  0  0  0  0  0  0  0  0  0
  1  2  1  0  0  0  0
  3 34  1  1  0  0  0
  3  1  1  0  0  0  0
  4 13  1  6  0  0  0
  4  3  1  0  0  0  0
  5  7  2  0  0  0  0
  6  2  1  0  0  0  0
  7  6  1  0  0  0  0
  8 32  1  6  0  0  0
  8  4  1  0  0  0  0
  8  7  1  0  0  0  0
  9 14  1  0  0  0  0
 10 16  1  6  0  0  0
 10 15  1  0  0  0  0
 12 11  1  6  0  0  0
 12  9  1  0  0  0  0
 12 10  1  0  0  0  0
 13 14  1  6  0  0  0
 15 13  1  0  0  0  0
 16 18  1  0  0  0  0
 17 16  2  0  0  0  0
 18 25  1  6  0  0  0
 18 22  1  0  0  0  0
 19 21  1  0  0  0  0
 20 23  2  0  0  0  0
 20 22  1  0  0  0  0
 22 19  2  0  0  0  0
 23 24  1  0  0  0  0
 24 21  1  0  0  0  0
 25 27  1  0  0  0  0
 26 28  1  0  0  0  0
 27 29  1  0  0  0  0
 29 28  2  0  0  0  0
 30 26  2  0  0  0  0
 31 30  1  0  0  0  0
 31 27  2  0  0  0  0
 33 32  1  0  0  0  0
 35 36  2  0  0  0  0
 36 34  1  0  0  0  0
 36 37  1  0  0  0  0
 37 38  2  0  0  0  0
 38 39  1  0  0  0  0
 39 40  1  0  0  0  0
 40 41  1  0  0  0  0
 41 43  1  0  0  0  0
 42 48  1  0  0  0  0
 43 45  1  0  0  0  0
 43 47  2  0  0  0  0
 44 42  1  0  0  0  0
 44 48  1  0  0  0  0
 45 46  1  0  0  0  0
 48 45  1  0  0  0  0
 48 46  1  0  0  0  0
M  END
>  <MODEL>
6

>  <REMARK>
 VINA RESULT:      -7.7      2.376      6.224
  Name = 
  13 active torsions:
  status: ('A' for Active; 'I' for Inactive)
    1  A    between atoms: C_1  and  C_13
    2  A    between atoms: C_5  and  O_7
    3  A    between atoms: N_6  and  O_12
    4  A    between atoms: O_7  and  C_46
    5  A    between atoms: O_12  and  C_27
    6  A    between atoms: C_13  and  C_14
    7  A    between atoms: C_14  and  C_17
    8  A    between atoms: C_16  and  C_45
    9  A    between atoms: C_19  and  C_43
   10  A    between atoms: C_24  and  C_28
   11  A    between atoms: C_25  and  C_27
   12  A    between atoms: C_28  and  C_46
   13  A    between atoms: C_31  and  C_46
                            x       y       z     vdW  Elec       q    Type
                         _______ _______ _______ _____ _____    ______ ____

>  <TORSDO>
F 13

$$$$
=
 OpenBabel11062415223D

 48 53  0  0  1  0  0  0  0  0999 V2000
  191.2520  177.5140  143.7680 O   0  0  0  0  0  0  0  0  0  0  0  0
  191.6960  176.3410  144.3950 C   0  0  0  0  0  2  0  0  0  0  0  0
  189.9310  177.2980  143.3150 C   0  0  2  0  0  3  0  0  0  0  0  0
  188.9390  176.8200  144.4100 C   0  0  1  0  0  3  0  0  0  0  0  0
  190.4780  177.0760  147.7720 O   0  0  0  0  0  0  0  0  0  0  0  0
  191.5950  176.4980  145.8350 N   0  0  0  0  0  2  0  0  0  0  0  0
  190.4330  176.9890  146.5150 C   0  0  0  0  0  0  0  0  0  0  0  0
  189.2050  177.5070  145.7770 C   0  0  2  0  0  3  0  0  0  0  0  0
  185.7190  178.3500  144.9190 O   0  0  0  0  0  0  0  0  0  0  0  0
  186.0380  178.0000  142.5220 C   0  0  2  0  0  3  0  0  0  0  0  0
  184.1960  179.3090  143.4950 O   0  0  0  0  0  1  0  0  0  0  0  0
  185.0340  178.2100  143.6930 C   0  0  2  0  0  3  0  0  0  0  0  0
  187.4800  176.9770  143.9400 C   0  0  1  0  0  3  0  0  0  0  0  0
  186.4900  177.1840  145.1100 C   0  0  0  0  0  2  0  0  0  0  0  0
  187.3670  178.0090  142.9880 O   0  0  0  0  0  0  0  0  0  0  0  0
  185.8900  178.9560  141.3690 C   0  0  0  0  0  0  0  0  0  0  0  0
  186.2050  180.1290  141.5130 O   0  0  0  0  0  0  0  0  0  0  0  0
  185.2900  178.4850  140.0650 C   0  0  1  0  0  3  0  0  0  0  0  0
  182.9900  177.8320  140.5660 C   0  0  0  0  0  3  0  0  0  0  0  0
  183.2380  179.7540  139.0930 C   0  0  0  0  0  3  0  0  0  0  0  0
  181.4980  177.9040  140.3900 C   0  0  0  0  0  2  0  0  0  0  0  0
  183.8040  178.6760  139.9280 C   0  0  0  0  0  0  0  0  0  0  0  0
  181.9250  179.9750  139.0920 C   0  0  0  0  0  3  0  0  0  0  0  0
  181.0780  179.1680  139.8630 O   0  0  0  0  0  0  0  0  0  0  0  0
  186.0030  178.9350  138.9040 O   0  0  0  0  0  0  0  0  0  0  0  0
  186.5160  176.6770  135.3870 C   0  0  0  0  0  3  0  0  0  0  0  0
  186.1880  178.2070  137.7180 C   0  0  0  0  0  0  0  0  0  0  0  0
  187.1940  177.8910  135.5270 C   0  0  0  0  0  3  0  0  0  0  0  0
  187.0300  178.6530  136.6870 C   0  0  0  0  0  3  0  0  0  0  0  0
  185.6760  176.2270  136.4080 C   0  0  0  0  0  3  0  0  0  0  0  0
  185.5150  176.9900  137.5690 C   0  0  0  0  0  3  0  0  0  0  0  0
  187.9740  177.5420  146.7010 C   0  0  0  0  0  2  0  0  0  0  0  0
  188.1280  178.5570  147.8250 C   0  0  0  0  0  1  0  0  0  0  0  0
  189.8970  176.4230  142.0570 C   0  0  0  0  0  2  0  0  0  0  0  0
  191.5520  177.5660  140.7630 O   0  0  0  0  0  0  0  0  0  0  0  0
  190.3660  177.1510  140.8380 C   0  0  0  0  0  0  0  0  0  0  0  0
  189.3910  177.4110  139.7640 C   0  0  0  0  0  3  0  0  0  0  0  0
  189.3030  176.7660  138.5970 C   0  0  0  0  0  3  0  0  0  0  0  0
  190.2030  175.6550  138.1650 C   0  0  0  0  0  2  0  0  0  0  0  0
  191.1280  176.1250  137.2280 O   0  0  0  0  0  0  0  0  0  0  0  0
  192.2250  175.3470  137.3990 N   0  0  0  0  0  2  0  0  0  0  0  0
  196.2040  172.9550  137.6770 C   0  0  0  0  0  2  0  0  0  0  0  0
  193.4540  175.8890  137.8830 C   0  0  0  0  0  0  0  0  0  0  0  0
  194.9200  173.0710  137.0080 C   0  0  0  0  0  2  0  0  0  0  0  0
  194.5720  175.0340  138.0930 N   0  0  0  0  0  0  0  0  0  0  0  0
  195.7540  174.7350  138.7310 O   0  0  0  0  0  0  0  0  0  0  0  0
  193.5540  177.1200  138.1310 O   0  0  0  0  0  0  0  0  0  0  0  0
  195.0570  173.6650  138.4270 C   0  0  0  0  0  0  0  0  0  0  0  0
  1  2  1  0  0  0  0
  2  6  1  0  0  0  0
  3 34  1  6  0  0  0
  3  1  1  0  0  0  0
  3  4  1  0  0  0  0
  4 13  1  6  0  0  0
  4  8  1  0  0  0  0
  6  7  1  0  0  0  0
  7  5  2  0  0  0  0
  8  7  1  0  0  0  0
  8 32  1  1  0  0  0
  9 14  1  0  0  0  0
 10 16  1  6  0  0  0
 10 15  1  0  0  0  0
 10 12  1  0  0  0  0
 12 11  1  6  0  0  0
 12  9  1  0  0  0  0
 13 14  1  1  0  0  0
 15 13  1  0  0  0  0
 16 17  2  0  0  0  0
 18 25  1  6  0  0  0
 18 16  1  0  0  0  0
 20 22  1  0  0  0  0
 21 19  1  0  0  0  0
 22 18  1  0  0  0  0
 22 19  2  0  0  0  0
 23 20  2  0  0  0  0
 23 24  1  0  0  0  0
 24 21  1  0  0  0  0
 26 28  2  0  0  0  0
 26 30  1  0  0  0  0
 27 25  1  0  0  0  0
 28 29  1  0  0  0  0
 29 27  2  0  0  0  0
 30 31  2  0  0  0  0
 31 27  1  0  0  0  0
 32 33  1  0  0  0  0
 35 36  2  0  0  0  0
 36 34  1  0  0  0  0
 37 36  1  0  0  0  0
 38 37  2  0  0  0  0
 39 38  1  0  0  0  0
 40 41  1  0  0  0  0
 40 39  1  0  0  0  0
 41 43  1  0  0  0  0
 42 48  1  0  0  0  0
 43 45  1  0  0  0  0
 43 47  2  0  0  0  0
 44 42  1  0  0  0  0
 44 48  1  0  0  0  0
 45 48  1  0  0  0  0
 45 46  1  0  0  0  0
 48 46  1  0  0  0  0
M  END
>  <MODEL>
7

>  <REMARK>
 VINA RESULT:      -7.7      2.894      7.431
  Name = 
  13 active torsions:
  status: ('A' for Active; 'I' for Inactive)
    1  A    between atoms: C_1  and  C_13
    2  A    between atoms: C_5  and  O_7
    3  A    between atoms: N_6  and  O_12
    4  A    between atoms: O_7  and  C_46
    5  A    between atoms: O_12  and  C_27
    6  A    between atoms: C_13  and  C_14
    7  A    between atoms: C_14  and  C_17
    8  A    between atoms: C_16  and  C_45
    9  A    between atoms: C_19  and  C_43
   10  A    between atoms: C_24  and  C_28
   11  A    between atoms: C_25  and  C_27
   12  A    between atoms: C_28  and  C_46
   13  A    between atoms: C_31  and  C_46
                            x       y       z     vdW  Elec       q    Type
                         _______ _______ _______ _____ _____    ______ ____

>  <TORSDO>
F 13

$$$$
=
 OpenBabel11062415223D

 48 53  0  0  1  0  0  0  0  0999 V2000
  190.7250  177.7270  143.5160 O   0  0  0  0  0  0  0  0  0  0  0  0
  191.2540  176.4640  143.8170 C   0  0  0  0  0  2  0  0  0  0  0  0
  189.3230  177.5970  143.3930 C   0  0  2  0  0  3  0  0  0  0  0  0
  188.6190  176.9550  144.6190 C   0  0  1  0  0  3  0  0  0  0  0  0
  190.9710  176.6480  147.4660 O   0  0  0  0  0  0  0  0  0  0  0  0
  191.5300  176.3850  145.2400 N   0  0  0  0  0  2  0  0  0  0  0  0
  190.6040  176.7680  146.2650 C   0  0  0  0  0  0  0  0  0  0  0  0
  189.2570  177.4080  145.9600 C   0  0  2  0  0  3  0  0  0  0  0  0
  185.7800  178.7690  145.8890 O   0  0  0  0  0  0  0  0  0  0  0  0
  185.3680  178.2370  143.5410 C   0  0  2  0  0  3  0  0  0  0  0  0
  183.9660  179.7510  144.8800 O   0  0  0  0  0  1  0  0  0  0  0  0
  184.7620  178.6030  144.9260 C   0  0  2  0  0  3  0  0  0  0  0  0
  187.0980  177.1970  144.5720 C   0  0  1  0  0  3  0  0  0  0  0  0
  186.5040  177.5600  145.9530 C   0  0  0  0  0  2  0  0  0  0  0  0
  186.7730  178.1690  143.6060 O   0  0  0  0  0  0  0  0  0  0  0  0
  184.9470  179.1220  142.3990 C   0  0  0  0  0  0  0  0  0  0  0  0
  185.6060  180.1160  142.1310 O   0  0  0  0  0  0  0  0  0  0  0  0
  183.6780  178.8230  141.6340 C   0  0  1  0  0  3  0  0  0  0  0  0
  183.0440  177.1690  139.9520 C   0  0  0  0  0  3  0  0  0  0  0  0
  184.9520  178.5690  139.3810 C   0  0  0  0  0  3  0  0  0  0  0  0
  183.2420  176.3970  138.6760 C   0  0  0  0  0  2  0  0  0  0  0  0
  183.8690  178.1610  140.2970 C   0  0  0  0  0  0  0  0  0  0  0  0
  185.0170  178.0510  138.1550 C   0  0  0  0  0  3  0  0  0  0  0  0
  184.0740  177.1010  137.7450 O   0  0  0  0  0  0  0  0  0  0  0  0
  182.6670  178.1770  142.4190 O   0  0  0  0  0  0  0  0  0  0  0  0
  178.9380  179.8720  143.3910 C   0  0  0  0  0  3  0  0  0  0  0  0
  181.4220  178.7220  142.7680 C   0  0  0  0  0  0  0  0  0  0  0  0
  179.5650  179.0240  144.3090 C   0  0  0  0  0  3  0  0  0  0  0  0
  180.8010  178.4510  143.9970 C   0  0  0  0  0  3  0  0  0  0  0  0
  179.5490  180.1470  142.1660 C   0  0  0  0  0  3  0  0  0  0  0  0
  180.7870  179.5740  141.8580 C   0  0  0  0  0  3  0  0  0  0  0  0
  188.3030  177.3010  147.1640 C   0  0  0  0  0  2  0  0  0  0  0  0
  188.6660  178.2800  148.2730 C   0  0  0  0  0  1  0  0  0  0  0  0
  188.9270  176.9380  142.0660 C   0  0  0  0  0  2  0  0  0  0  0  0
  188.2140  178.7310  140.6510 O   0  0  0  0  0  0  0  0  0  0  0  0
  189.0880  177.8580  140.8980 C   0  0  0  0  0  0  0  0  0  0  0  0
  190.2590  177.6750  140.0240 C   0  0  0  0  0  3  0  0  0  0  0  0
  190.2700  177.0980  138.8180 C   0  0  0  0  0  3  0  0  0  0  0  0
  189.0740  176.5160  138.1390 C   0  0  0  0  0  2  0  0  0  0  0  0
  189.4110  176.0990  136.8490 O   0  0  0  0  0  0  0  0  0  0  0  0
  190.6820  175.6360  136.9520 N   0  0  0  0  0  2  0  0  0  0  0  0
  194.8950  173.8050  137.6760 C   0  0  0  0  0  2  0  0  0  0  0  0
  190.9760  174.2410  136.8630 C   0  0  0  0  0  0  0  0  0  0  0  0
  194.0080  174.9180  137.9630 C   0  0  0  0  0  2  0  0  0  0  0  0
  192.3260  173.7960  136.9300 N   0  0  0  0  0  0  0  0  0  0  0  0
  193.3040  172.8740  136.6350 O   0  0  0  0  0  0  0  0  0  0  0  0
  190.0480  173.4020  136.7180 O   0  0  0  0  0  0  0  0  0  0  0  0
  193.7610  174.1040  136.6730 C   0  0  0  0  0  0  0  0  0  0  0  0
  1  2  1  0  0  0  0
  2  6  1  0  0  0  0
  3 34  1  6  0  0  0
  3  1  1  0  0  0  0
  3  4  1  0  0  0  0
  4 13  1  1  0  0  0
  4  8  1  0  0  0  0
  6  7  1  0  0  0  0
  7  5  2  0  0  0  0
  8  7  1  0  0  0  0
  8 32  1  1  0  0  0
  9 14  1  0  0  0  0
 10 16  1  6  0  0  0
 10 15  1  0  0  0  0
 10 12  1  0  0  0  0
 12 11  1  6  0  0  0
 12  9  1  0  0  0  0
 13 14  1  1  0  0  0
 15 13  1  0  0  0  0
 17 16  2  0  0  0  0
 18 16  1  1  0  0  0
 18 25  1  0  0  0  0
 19 22  2  0  0  0  0
 20 22  1  0  0  0  0
 21 19  1  0  0  0  0
 22 18  1  0  0  0  0
 23 20  2  0  0  0  0
 24 23  1  0  0  0  0
 24 21  1  0  0  0  0
 25 27  1  0  0  0  0
 26 28  1  0  0  0  0
 27 29  1  0  0  0  0
 29 28  2  0  0  0  0
 30 26  2  0  0  0  0
 31 30  1  0  0  0  0
 31 27  2  0  0  0  0
 32 33  1  0  0  0  0
 35 36  2  0  0  0  0
 36 34  1  0  0  0  0
 37 36  1  0  0  0  0
 38 37  2  0  0  0  0
 39 38  1  0  0  0  0
 40 41  1  0  0  0  0
 40 39  1  0  0  0  0
 42 44  1  0  0  0  0
 43 45  1  0  0  0  0
 43 41  1  0  0  0  0
 46 48  1  0  0  0  0
 46 45  1  0  0  0  0
 47 43  2  0  0  0  0
 48 45  1  0  0  0  0
 48 42  1  0  0  0  0
 48 44  1  0  0  0  0
M  END
>  <MODEL>
8

>  <REMARK>
 VINA RESULT:      -7.7      2.583      7.362
  Name = 
  13 active torsions:
  status: ('A' for Active; 'I' for Inactive)
    1  A    between atoms: C_1  and  C_13
    2  A    between atoms: C_5  and  O_7
    3  A    between atoms: N_6  and  O_12
    4  A    between atoms: O_7  and  C_46
    5  A    between atoms: O_12  and  C_27
    6  A    between atoms: C_13  and  C_14
    7  A    between atoms: C_14  and  C_17
    8  A    between atoms: C_16  and  C_45
    9  A    between atoms: C_19  and  C_43
   10  A    between atoms: C_24  and  C_28
   11  A    between atoms: C_25  and  C_27
   12  A    between atoms: C_28  and  C_46
   13  A    between atoms: C_31  and  C_46
                            x       y       z     vdW  Elec       q    Type
                         _______ _______ _______ _____ _____    ______ ____

>  <TORSDO>
F 13

$$$$
=
 OpenBabel11062415223D

 48 53  0  0  1  0  0  0  0  0999 V2000
  188.0910  178.0870  144.4560 O   0  0  0  0  0  0  0  0  0  0  0  0
  187.6040  177.0050  145.2030 C   0  0  0  0  0  2  0  0  0  0  0  0
  187.3390  178.1720  143.2630 C   0  0  2  0  0  3  0  0  0  0  0  0
  185.8020  178.2610  143.4690 C   0  0  1  0  0  3  0  0  0  0  0  0
  184.9890  178.7930  147.0450 O   0  0  0  0  0  0  0  0  0  0  0  0
  186.7300  177.4990  146.2520 N   0  0  0  0  0  2  0  0  0  0  0  0
  185.6750  178.4470  146.0450 C   0  0  0  0  0  0  0  0  0  0  0  0
  185.4280  179.1250  144.7040 C   0  0  2  0  0  3  0  0  0  0  0  0
  185.9630  178.7240  139.9010 O   0  0  0  0  0  0  0  0  0  0  0  0
  183.6510  178.2240  140.5120 C   0  0  2  0  0  3  0  0  0  0  0  0
  184.4810  178.3100  138.1970 O   0  0  0  0  0  1  0  0  0  0  0  0
  184.6240  178.8570  139.4750 C   0  0  2  0  0  3  0  0  0  0  0  0
  185.0980  178.7300  142.1810 C   0  0  1  0  0  3  0  0  0  0  0  0
  186.0730  179.3580  141.1570 C   0  0  0  0  0  2  0  0  0  0  0  0
  184.3570  177.6810  141.6020 O   0  0  0  0  0  0  0  0  0  0  0  0
  182.6950  177.2040  139.9570 C   0  0  0  0  0  0  0  0  0  0  0  0
  183.0490  176.0380  139.8530 O   0  0  0  0  0  0  0  0  0  0  0  0
  181.3300  177.6290  139.4650 C   0  0  1  0  0  3  0  0  0  0  0  0
  181.3370  177.7640  137.0260 C   0  0  0  0  0  3  0  0  0  0  0  0
  180.1020  175.8910  137.9700 C   0  0  0  0  0  3  0  0  0  0  0  0
  180.8930  177.3500  135.6500 C   0  0  0  0  0  2  0  0  0  0  0  0
  180.9350  177.1010  138.1130 C   0  0  0  0  0  0  0  0  0  0  0  0
  179.8740  175.3790  136.7620 C   0  0  0  0  0  3  0  0  0  0  0  0
  180.4030  176.0030  135.6260 O   0  0  0  0  0  0  0  0  0  0  0  0
  180.2880  177.4640  140.4370 O   0  0  0  0  0  0  0  0  0  0  0  0
  179.3320  180.0820  143.5930 C   0  0  0  0  0  3  0  0  0  0  0  0
  179.9760  178.3610  141.4700 C   0  0  0  0  0  0  0  0  0  0  0  0
  179.4710  180.5910  142.2990 C   0  0  0  0  0  3  0  0  0  0  0  0
  179.7930  179.7340  141.2420 C   0  0  0  0  0  3  0  0  0  0  0  0
  179.5130  178.7170  143.8270 C   0  0  0  0  0  3  0  0  0  0  0  0
  179.8330  177.8610  142.7680 C   0  0  0  0  0  3  0  0  0  0  0  0
  184.0110  179.7220  144.6340 C   0  0  0  0  0  2  0  0  0  0  0  0
  182.9330  178.6480  144.6790 C   0  0  0  0  0  1  0  0  0  0  0  0
  187.7430  177.0890  142.2560 C   0  0  0  0  0  2  0  0  0  0  0  0
  190.0690  176.5310  142.2920 O   0  0  0  0  0  0  0  0  0  0  0  0
  189.1560  177.2380  141.7890 C   0  0  0  0  0  0  0  0  0  0  0  0
  189.4500  178.2650  140.7740 C   0  0  0  0  0  3  0  0  0  0  0  0
  189.3950  178.1100  139.4480 C   0  0  0  0  0  3  0  0  0  0  0  0
  189.0300  176.8410  138.7500 C   0  0  0  0  0  2  0  0  0  0  0  0
  188.1740  177.1120  137.6800 O   0  0  0  0  0  0  0  0  0  0  0  0
  187.3180  176.0610  137.6410 N   0  0  0  0  0  2  0  0  0  0  0  0
  184.3200  172.5540  137.0570 C   0  0  0  0  0  2  0  0  0  0  0  0
  187.5490  174.9430  136.7830 C   0  0  0  0  0  0  0  0  0  0  0  0
  184.4720  173.9510  137.4210 C   0  0  0  0  0  2  0  0  0  0  0  0
  186.6530  173.8380  136.8020 N   0  0  0  0  0  0  0  0  0  0  0  0
  186.3880  172.5010  136.6070 O   0  0  0  0  0  0  0  0  0  0  0  0
  188.5450  174.9270  136.0120 O   0  0  0  0  0  0  0  0  0  0  0  0
  185.6910  173.0180  137.5920 C   0  0  0  0  0  0  0  0  0  0  0  0
  1  2  1  0  0  0  0
  2  6  1  0  0  0  0
  3 34  1  6  0  0  0
  3  4  1  0  0  0  0
  3  1  1  0  0  0  0
  4 13  1  6  0  0  0
  4  8  1  0  0  0  0
  7  6  1  0  0  0  0
  7  5  2  0  0  0  0
  8 32  1  6  0  0  0
  8  7  1  0  0  0  0
  9 14  1  0  0  0  0
 10 16  1  6  0  0  0
 10 15  1  0  0  0  0
 12 11  1  6  0  0  0
 12  9  1  0  0  0  0
 12 10  1  0  0  0  0
 13 14  1  6  0  0  0
 15 13  1  0  0  0  0
 17 16  2  0  0  0  0
 18 16  1  1  0  0  0
 18 25  1  0  0  0  0
 19 22  2  0  0  0  0
 20 22  1  0  0  0  0
 21 19  1  0  0  0  0
 22 18  1  0  0  0  0
 23 20  2  0  0  0  0
 24 21  1  0  0  0  0
 24 23  1  0  0  0  0
 25 27  1  0  0  0  0
 26 30  1  0  0  0  0
 27 31  1  0  0  0  0
 28 26  2  0  0  0  0
 29 27  2  0  0  0  0
 29 28  1  0  0  0  0
 31 30  2  0  0  0  0
 32 33  1  0  0  0  0
 36 34  1  0  0  0  0
 36 35  2  0  0  0  0
 37 36  1  0  0  0  0
 38 37  2  0  0  0  0
 39 38  1  0  0  0  0
 40 39  1  0  0  0  0
 41 40  1  0  0  0  0
 42 44  1  0  0  0  0
 42 48  1  0  0  0  0
 43 45  1  0  0  0  0
 43 41  1  0  0  0  0
 44 48  1  0  0  0  0
 45 48  1  0  0  0  0
 46 45  1  0  0  0  0
 46 48  1  0  0  0  0
 47 43  2  0  0  0  0
M  END
>  <MODEL>
9

>  <REMARK>
 VINA RESULT:      -7.7      2.322      6.695
  Name = 
  13 active torsions:
  status: ('A' for Active; 'I' for Inactive)
    1  A    between atoms: C_1  and  C_13
    2  A    between atoms: C_5  and  O_7
    3  A    between atoms: N_6  and  O_12
    4  A    between atoms: O_7  and  C_46
    5  A    between atoms: O_12  and  C_27
    6  A    between atoms: C_13  and  C_14
    7  A    between atoms: C_14  and  C_17
    8  A    between atoms: C_16  and  C_45
    9  A    between atoms: C_19  and  C_43
   10  A    between atoms: C_24  and  C_28
   11  A    between atoms: C_25  and  C_27
   12  A    between atoms: C_28  and  C_46
   13  A    between atoms: C_31  and  C_46
                            x       y       z     vdW  Elec       q    Type
                         _______ _______ _______ _____ _____    ______ ____

>  <TORSDO>
F 13

$$$$
