=
 OpenBabel11062414413D

 68 71  0  0  1  0  0  0  0  0999 V2000
  186.3970  175.7380  136.3460 C   0  0  2  0  0  0  0  0  0  0  0  0
  185.1340  175.9340  135.5510 C   0  0  1  0  0  3  0  0  0  0  0  0
  185.6450  177.0630  136.3850 C   0  0  2  0  0  0  0  0  0  0  0  0
  185.0130  177.2750  135.1450 O   0  0  0  0  0  0  0  0  0  0  0  0
  187.7680  175.9180  135.7200 C   0  0  0  0  0  2  0  0  0  0  0  0
  188.0640  177.2820  135.6640 O   0  0  0  0  0  0  0  0  0  0  0  0
  188.9110  177.5280  136.7600 C   0  0  0  0  0  2  0  0  0  0  0  0
  188.7890  176.4390  137.8160 C   0  0  2  0  0  3  0  0  0  0  0  0
  188.8860  176.9700  139.2350 C   0  0  0  0  0  0  0  0  0  0  0  0
  188.2260  178.0700  139.5870 C   0  0  0  0  0  2  0  0  0  0  0  0
  189.7020  176.3780  140.2150 O   0  0  0  0  0  0  0  0  0  0  0  0
  190.0680  178.0910  141.7320 F   0  0  0  0  0  0  0  0  0  0  0  0
  189.7360  176.7530  141.5970 C   0  0  0  0  0  0  0  0  0  0  0  0
  188.4770  176.5390  142.1260 F   0  0  0  0  0  0  0  0  0  0  0  0
  190.6220  175.9610  142.3010 F   0  0  0  0  0  0  0  0  0  0  0  0
  189.7360  175.4320  137.5420 O   0  0  0  0  0  0  0  0  0  0  0  0
  191.2330  176.2400  137.2540 S   0  0  0  0  0  0  0  0  0  0  0  0
  192.1380  174.6950  136.8990 C   0  0  0  0  0  2  0  0  0  0  0  0
  192.5700  174.6490  135.4450 C   0  0  0  0  0  2  0  0  0  0  0  0
  193.5060  173.4710  135.1700 C   0  0  0  0  0  2  0  0  0  0  0  0
  194.8640  173.6000  135.8780 C   0  0  0  0  0  2  0  0  0  0  0  0
  195.3610  172.2460  136.3680 C   0  0  1  0  0  3  0  0  0  0  0  0
  195.9540  170.4680  134.8700 O   0  0  0  0  0  1  0  0  0  0  0  0
  196.4130  171.6780  135.4000 C   0  0  2  0  0  3  0  0  0  0  0  0
  197.6370  171.4710  136.0660 O   0  0  0  0  0  0  0  0  0  0  0  0
  199.1780  169.6680  136.1320 C   0  0  0  0  0  2  0  0  0  0  0  0
  198.5410  169.7930  137.4900 C   0  0  0  0  0  2  0  0  0  0  0  0
  197.7310  170.0860  136.2450 C   0  0  0  0  0  3  0  0  0  0  0  0
  195.8830  172.3570  137.8020 C   0  0  0  0  0  2  0  0  0  0  0  0
  195.3890  173.6460  138.4370 C   0  0  0  0  0  2  0  0  0  0  0  0
  196.1920  173.9770  139.5320 O   0  0  0  0  0  1  0  0  0  0  0  0
  184.6420  177.2440  137.5200 C   0  0  0  0  0  2  0  0  0  0  0  0
  183.1400  177.2600  137.1480 C   0  0  2  0  0  3  0  0  0  0  0  0
  182.7340  176.0340  136.6030 O   0  0  0  0  0  1  0  0  0  0  0  0
  182.8410  178.3880  136.1410 C   0  0  0  0  0  2  0  0  0  0  0  0
  181.4020  178.3660  135.6220 C   0  0  0  0  0  2  0  0  0  0  0  0
  180.4200  178.5280  136.7740 C   0  0  0  0  0  2  0  0  0  0  0  0
  180.5840  179.8430  137.5360 C   0  0  1  0  0  3  0  0  0  0  0  0
  180.7940  181.0500  136.6430 C   0  0  0  0  0  2  0  0  0  0  0  0
  180.1160  182.1530  137.2020 O   0  0  0  0  0  0  0  0  0  0  0  0
  179.3930  181.6730  138.3210 C   0  0  0  0  0  2  0  0  0  0  0  0
  179.2870  180.1760  138.1930 C   0  0  2  0  0  3  0  0  0  0  0  0
  179.1910  179.5380  139.4400 O   0  0  0  0  0  0  0  0  0  0  0  0
  180.1150  180.0870  140.3730 C   0  0  1  0  0  3  0  0  0  0  0  0
  179.8590  179.7740  141.7250 O   0  0  0  0  0  1  0  0  0  0  0  0
  181.4410  179.7390  140.0360 O   0  0  0  0  0  0  0  0  0  0  0  0
  181.8040  178.5990  140.7710 C   0  0  0  0  0  2  0  0  0  0  0  0
  182.9830  178.9120  141.6260 C   0  0  0  0  0  0  0  0  0  0  0  0
  184.0950  178.9780  141.1190 O   0  0  0  0  0  0  0  0  0  0  0  0
  182.8340  179.1230  143.0980 C   0  0  0  0  0  2  0  0  0  0  0  0
  184.1140  178.6900  143.8130 C   0  0  0  0  0  2  0  0  0  0  0  0
  184.2010  179.3610  145.0450 O   0  0  0  0  0  0  0  0  0  0  0  0
  185.8010  179.9870  146.6420 O   0  0  0  0  0  1  0  0  0  0  0  0
  185.4410  179.0640  145.6380 C   0  0  1  0  0  3  0  0  0  0  0  0
  185.6010  177.6020  146.0720 C   0  0  0  0  0  2  0  0  0  0  0  0
  187.0540  177.1550  146.1650 C   0  0  0  0  0  2  0  0  0  0  0  0
  187.5230  177.1490  147.6140 C   0  0  0  0  0  2  0  0  0  0  0  0
  188.5660  178.1440  147.8310 N   0  0  0  0  0  2  0  0  0  0  0  0
  189.7770  177.7090  147.1380 C   0  0  1  0  0  3  0  0  0  0  0  0
  189.9880  176.3540  147.4230 O   0  0  0  0  0  1  0  0  0  0  0  0
  189.6490  177.9200  145.6190 C   0  0  0  0  0  2  0  0  0  0  0  0
  190.9880  177.7320  144.9150 C   0  0  0  0  0  3  0  0  0  0  0  0
  191.3480  178.8980  144.2680 F   0  0  0  0  0  0  0  0  0  0  0  0
  191.9650  177.3570  145.8130 F   0  0  0  0  0  0  0  0  0  0  0  0
  186.2780  174.9300  137.5110 O   0  0  0  0  0  0  0  0  0  0  0  0
  187.2720  172.8020  136.9170 O   0  0  0  0  0  0  0  0  0  0  0  0
  185.2160  172.9280  137.9090 O   0  0  0  0  0  1  0  0  0  0  0  0
  186.2260  173.5350  137.4660 C   0  0  0  0  0  0  0  0  0  0  0  0
  1  5  1  6  0  0  0
  1  3  1  0  0  0  0
  1 65  1  0  0  0  0
  2  4  1  6  0  0  0
  2  1  1  0  0  0  0
  2  3  1  0  0  0  0
  3 32  1  1  0  0  0
  4  3  1  0  0  0  0
  6  5  1  0  0  0  0
  6  7  1  0  0  0  0
  8  7  1  6  0  0  0
  8  9  1  0  0  0  0
  9 10  2  0  0  0  0
  9 11  1  0  0  0  0
 11 13  1  0  0  0  0
 13 12  1  0  0  0  0
 13 14  1  0  0  0  0
 13 15  1  0  0  0  0
 16  8  1  0  0  0  0
 17 16  1  0  0  0  0
 18 17  1  0  0  0  0
 19 18  1  0  0  0  0
 20 19  1  0  0  0  0
 20 21  1  0  0  0  0
 22 21  1  6  0  0  0
 22 29  1  0  0  0  0
 24 23  1  1  0  0  0
 24 25  1  0  0  0  0
 24 22  1  0  0  0  0
 25 28  1  0  0  0  0
 26 28  1  0  0  0  0
 26 27  1  0  0  0  0
 28 27  1  0  0  0  0
 29 30  1  0  0  0  0
 30 31  1  0  0  0  0
 33 34  1  6  0  0  0
 33 32  1  0  0  0  0
 35 33  1  0  0  0  0
 36 35  1  0  0  0  0
 36 37  1  0  0  0  0
 38 37  1  6  0  0  0
 38 42  1  0  0  0  0
 39 40  1  0  0  0  0
 39 38  1  0  0  0  0
 40 41  1  0  0  0  0
 42 41  1  0  0  0  0
 42 43  1  1  0  0  0
 43 44  1  0  0  0  0
 44 45  1  1  0  0  0
 46 44  1  0  0  0  0
 46 47  1  0  0  0  0
 47 48  1  0  0  0  0
 48 50  1  0  0  0  0
 49 48  2  0  0  0  0
 50 51  1  0  0  0  0
 51 52  1  0  0  0  0
 52 54  1  0  0  0  0
 54 55  1  0  0  0  0
 54 53  1  1  0  0  0
 55 56  1  0  0  0  0
 56 57  1  0  0  0  0
 57 58  1  0  0  0  0
 59 60  1  6  0  0  0
 59 58  1  0  0  0  0
 61 59  1  0  0  0  0
 62 61  1  0  0  0  0
 62 64  1  0  0  0  0
 63 62  1  0  0  0  0
 66 68  2  0  0  0  0
 68 65  1  0  0  0  0
 68 67  1  0  0  0  0
M  END
>  <MODEL>
1

>  <REMARK>
 VINA RESULT:      -4.6      0.000      0.000
  Name = 
  43 active torsions:
  status: ('A' for Active; 'I' for Inactive)
    1  A    between atoms: C_1  and  C_8
    2  A    between atoms: C_1  and  C_15
    3  A    between atoms: C_2  and  O_6
    4  A    between atoms: C_2  and  C_56
    5  A    between atoms: C_3  and  C_22
    6  A    between atoms: C_3  and  N_55
    7  A    between atoms: C_4  and  C_20
    8  A    between atoms: C_4  and  C_37
    9  A    between atoms: C_5  and  C_12
   10  A    between atoms: C_5  and  C_18
   11  A    between atoms: O_6  and  C_51
   12  A    between atoms: C_7  and  C_54
   13  A    between atoms: C_8  and  O_57
   14  A    between atoms: C_9  and  C_15
   15  A    between atoms: C_9  and  O_49
   16  A    between atoms: C_10  and  C_31
   17  A    between atoms: C_10  and  C_58
   18  A    between atoms: O_11  and  C_30
   19  A    between atoms: O_11  and  C_41
   20  A    between atoms: C_12  and  C_46
   21  A    between atoms: C_13  and  C_52
   22  A    between atoms: C_18  and  S_36
   23  A    between atoms: C_20  and  C_64
   24  A    between atoms: C_22  and  C_23
   25  A    between atoms: C_25  and  C_37
   26  A    between atoms: C_25  and  C_52
   27  A    between atoms: C_29  and  O_59
   28  A    between atoms: C_30  and  O_49
   29  A    between atoms: C_31  and  C_53
   30  A    between atoms: O_32  and  C_56
   31  A    between atoms: O_32  and  C_65
   32  A    between atoms: O_35  and  C_43
   33  A    between atoms: O_35  and  C_63
   34  A    between atoms: S_36  and  O_42
   35  A    between atoms: O_42  and  C_47
   36  A    between atoms: C_43  and  C_48
   37  A    between atoms: C_45  and  C_47
   38  A    between atoms: C_45  and  O_59
   39  A    between atoms: C_46  and  C_48
   40  A    between atoms: C_47  and  C_65
   41  A    between atoms: C_48  and  C_54
   42  A    between atoms: C_53  and  N_55
   43  A    between atoms: O_57  and  C_58
                            x       y       z     vdW  Elec       q    Type
                         _______ _______ _______ _____ _____    ______ ____

>  <TORSDO>
F 43

$$$$
=
 OpenBabel11062414413D

 68 71  0  0  1  0  0  0  0  0999 V2000
  187.0900  177.9250  138.3680 C   0  0  2  0  0  0  0  0  0  0  0  0
  187.3760  176.4490  138.3060 C   0  0  1  0  0  3  0  0  0  0  0  0
  186.8340  177.1300  137.0920 C   0  0  2  0  0  0  0  0  0  0  0  0
  187.7660  176.0780  137.0080 O   0  0  0  0  0  0  0  0  0  0  0  0
  188.1800  178.9570  138.1470 C   0  0  0  0  0  2  0  0  0  0  0  0
  189.1490  178.8120  139.1420 O   0  0  0  0  0  0  0  0  0  0  0  0
  188.9210  177.5430  139.7070 C   0  0  0  0  0  2  0  0  0  0  0  0
  190.2190  176.8930  140.1640 C   0  0  2  0  0  3  0  0  0  0  0  0
  190.6870  177.3850  141.5230 C   0  0  0  0  0  0  0  0  0  0  0  0
  191.9450  177.7770  141.6980 C   0  0  0  0  0  2  0  0  0  0  0  0
  189.8530  177.3990  142.6550 O   0  0  0  0  0  0  0  0  0  0  0  0
  190.0200  176.1270  144.5840 F   0  0  0  0  0  0  0  0  0  0  0  0
  189.3910  176.2390  143.3550 C   0  0  0  0  0  0  0  0  0  0  0  0
  188.0290  176.3750  143.5500 F   0  0  0  0  0  0  0  0  0  0  0  0
  189.5910  175.0970  142.6030 F   0  0  0  0  0  0  0  0  0  0  0  0
  191.1900  177.0620  139.1560 O   0  0  0  0  0  0  0  0  0  0  0  0
  190.7980  175.9350  137.9110 S   0  0  0  0  0  0  0  0  0  0  0  0
  192.4880  175.2520  137.8280 C   0  0  0  0  0  2  0  0  0  0  0  0
  192.6320  174.3210  136.6370 C   0  0  0  0  0  2  0  0  0  0  0  0
  194.0320  173.7090  136.5650 C   0  0  0  0  0  2  0  0  0  0  0  0
  195.0630  174.4550  137.4250 C   0  0  0  0  0  2  0  0  0  0  0  0
  195.8060  173.4990  138.3500 C   0  0  1  0  0  3  0  0  0  0  0  0
  195.4450  171.1610  138.7510 O   0  0  0  0  0  1  0  0  0  0  0  0
  195.8120  172.0780  137.7610 C   0  0  2  0  0  3  0  0  0  0  0  0
  197.0890  171.7550  137.2630 O   0  0  0  0  0  0  0  0  0  0  0  0
  196.9410  169.8060  135.9190 C   0  0  0  0  0  2  0  0  0  0  0  0
  198.3360  169.8870  136.4780 C   0  0  0  0  0  2  0  0  0  0  0  0
  197.1610  170.3570  137.3080 C   0  0  0  0  0  3  0  0  0  0  0  0
  197.2150  174.0220  138.6370 C   0  0  0  0  0  2  0  0  0  0  0  0
  197.7860  174.6860  137.3960 C   0  0  0  0  0  2  0  0  0  0  0  0
  199.1800  174.6010  137.4090 O   0  0  0  0  0  1  0  0  0  0  0  0
  185.4190  176.5930  136.8960 C   0  0  0  0  0  2  0  0  0  0  0  0
  184.2560  177.4090  137.5090 C   0  0  2  0  0  3  0  0  0  0  0  0
  183.6020  176.6910  138.5180 O   0  0  0  0  0  1  0  0  0  0  0  0
  183.2370  177.8030  136.4210 C   0  0  0  0  0  2  0  0  0  0  0  0
  182.7700  176.6150  135.5770 C   0  0  0  0  0  2  0  0  0  0  0  0
  181.6780  177.0480  134.6090 C   0  0  0  0  0  2  0  0  0  0  0  0
  180.2740  177.0030  135.2130 C   0  0  1  0  0  3  0  0  0  0  0  0
  180.0350  175.8160  136.1260 C   0  0  0  0  0  2  0  0  0  0  0  0
  179.2300  176.2290  137.2080 O   0  0  0  0  0  0  0  0  0  0  0  0
  179.0620  177.6300  137.0900 C   0  0  0  0  0  2  0  0  0  0  0  0
  180.1290  178.1460  136.1610 C   0  0  2  0  0  3  0  0  0  0  0  0
  179.7280  179.3040  135.4750 O   0  0  0  0  0  0  0  0  0  0  0  0
  180.0500  180.4770  136.2130 C   0  0  1  0  0  3  0  0  0  0  0  0
  178.9520  181.3050  136.5300 O   0  0  0  0  0  1  0  0  0  0  0  0
  180.7730  180.1580  137.3830 O   0  0  0  0  0  0  0  0  0  0  0  0
  180.0580  180.6360  138.4930 C   0  0  0  0  0  2  0  0  0  0  0  0
  180.6480  180.0800  139.7430 C   0  0  0  0  0  0  0  0  0  0  0  0
  181.8450  179.8330  139.7860 O   0  0  0  0  0  0  0  0  0  0  0  0
  179.7960  179.7970  140.9380 C   0  0  0  0  0  2  0  0  0  0  0  0
  180.6430  179.1520  142.0340 C   0  0  0  0  0  2  0  0  0  0  0  0
  181.9740  179.0610  141.5920 O   0  0  0  0  0  0  0  0  0  0  0  0
  182.3680  180.4080  143.4720 O   0  0  0  0  0  1  0  0  0  0  0  0
  182.8320  179.3430  142.6720 C   0  0  1  0  0  3  0  0  0  0  0  0
  183.2520  178.1130  143.4840 C   0  0  0  0  0  2  0  0  0  0  0  0
  183.7510  178.4540  144.8820 C   0  0  0  0  0  2  0  0  0  0  0  0
  185.2730  178.4090  144.9350 C   0  0  0  0  0  2  0  0  0  0  0  0
  185.7380  177.9300  146.2320 N   0  0  0  0  0  2  0  0  0  0  0  0
  186.6860  178.9010  146.7730 C   0  0  1  0  0  3  0  0  0  0  0  0
  185.9680  180.0040  147.2500 O   0  0  0  0  0  1  0  0  0  0  0  0
  187.5240  178.2810  147.9050 C   0  0  0  0  0  2  0  0  0  0  0  0
  188.8140  177.6650  147.3720 C   0  0  0  0  0  3  0  0  0  0  0  0
  189.2680  178.3890  146.2870 F   0  0  0  0  0  0  0  0  0  0  0  0
  189.7760  177.6160  148.3580 F   0  0  0  0  0  0  0  0  0  0  0  0
  185.9280  178.3020  139.0980 O   0  0  0  0  0  0  0  0  0  0  0  0
  186.3320  177.7210  141.4150 O   0  0  0  0  0  1  0  0  0  0  0  0
  185.6370  179.8130  140.8090 O   0  0  0  0  0  0  0  0  0  0  0  0
  185.9620  178.6510  140.4510 C   0  0  0  0  0  0  0  0  0  0  0  0
  1  5  1  1  0  0  0
  1 65  1  0  0  0  0
  2  4  1  6  0  0  0
  2  1  1  0  0  0  0
  3 32  1  6  0  0  0
  3  2  1  0  0  0  0
  3  1  1  0  0  0  0
  4  3  1  0  0  0  0
  5  6  1  0  0  0  0
  6  7  1  0  0  0  0
  8  7  1  6  0  0  0
  8  9  1  0  0  0  0
  9 10  2  0  0  0  0
  9 11  1  0  0  0  0
 11 13  1  0  0  0  0
 13 14  1  0  0  0  0
 13 12  1  0  0  0  0
 15 13  1  0  0  0  0
 16  8  1  0  0  0  0
 17 16  1  0  0  0  0
 18 17  1  0  0  0  0
 19 18  1  0  0  0  0
 20 19  1  0  0  0  0
 20 21  1  0  0  0  0
 22 21  1  6  0  0  0
 22 29  1  0  0  0  0
 24 22  1  0  0  0  0
 24 23  1  1  0  0  0
 25 28  1  0  0  0  0
 25 24  1  0  0  0  0
 26 27  1  0  0  0  0
 26 28  1  0  0  0  0
 27 28  1  0  0  0  0
 30 31  1  0  0  0  0
 30 29  1  0  0  0  0
 32 33  1  0  0  0  0
 33 34  1  1  0  0  0
 35 33  1  0  0  0  0
 36 35  1  0  0  0  0
 37 36  1  0  0  0  0
 38 37  1  1  0  0  0
 38 39  1  0  0  0  0
 38 42  1  0  0  0  0
 39 40  1  0  0  0  0
 41 40  1  0  0  0  0
 42 43  1  6  0  0  0
 42 41  1  0  0  0  0
 43 44  1  0  0  0  0
 44 45  1  1  0  0  0
 44 46  1  0  0  0  0
 46 47  1  0  0  0  0
 47 48  1  0  0  0  0
 48 49  2  0  0  0  0
 48 50  1  0  0  0  0
 50 51  1  0  0  0  0
 52 51  1  0  0  0  0
 52 54  1  0  0  0  0
 54 53  1  1  0  0  0
 54 55  1  0  0  0  0
 55 56  1  0  0  0  0
 56 57  1  0  0  0  0
 57 58  1  0  0  0  0
 58 59  1  0  0  0  0
 59 60  1  1  0  0  0
 59 61  1  0  0  0  0
 62 61  1  0  0  0  0
 62 64  1  0  0  0  0
 63 62  1  0  0  0  0
 65 68  1  0  0  0  0
 68 67  2  0  0  0  0
 68 66  1  0  0  0  0
M  END
>  <MODEL>
2

>  <REMARK>
 VINA RESULT:      -4.0      1.916      3.458
  Name = 
  43 active torsions:
  status: ('A' for Active; 'I' for Inactive)
    1  A    between atoms: C_1  and  C_8
    2  A    between atoms: C_1  and  C_15
    3  A    between atoms: C_2  and  O_6
    4  A    between atoms: C_2  and  C_56
    5  A    between atoms: C_3  and  C_22
    6  A    between atoms: C_3  and  N_55
    7  A    between atoms: C_4  and  C_20
    8  A    between atoms: C_4  and  C_37
    9  A    between atoms: C_5  and  C_12
   10  A    between atoms: C_5  and  C_18
   11  A    between atoms: O_6  and  C_51
   12  A    between atoms: C_7  and  C_54
   13  A    between atoms: C_8  and  O_57
   14  A    between atoms: C_9  and  C_15
   15  A    between atoms: C_9  and  O_49
   16  A    between atoms: C_10  and  C_31
   17  A    between atoms: C_10  and  C_58
   18  A    between atoms: O_11  and  C_30
   19  A    between atoms: O_11  and  C_41
   20  A    between atoms: C_12  and  C_46
   21  A    between atoms: C_13  and  C_52
   22  A    between atoms: C_18  and  S_36
   23  A    between atoms: C_20  and  C_64
   24  A    between atoms: C_22  and  C_23
   25  A    between atoms: C_25  and  C_37
   26  A    between atoms: C_25  and  C_52
   27  A    between atoms: C_29  and  O_59
   28  A    between atoms: C_30  and  O_49
   29  A    between atoms: C_31  and  C_53
   30  A    between atoms: O_32  and  C_56
   31  A    between atoms: O_32  and  C_65
   32  A    between atoms: O_35  and  C_43
   33  A    between atoms: O_35  and  C_63
   34  A    between atoms: S_36  and  O_42
   35  A    between atoms: O_42  and  C_47
   36  A    between atoms: C_43  and  C_48
   37  A    between atoms: C_45  and  C_47
   38  A    between atoms: C_45  and  O_59
   39  A    between atoms: C_46  and  C_48
   40  A    between atoms: C_47  and  C_65
   41  A    between atoms: C_48  and  C_54
   42  A    between atoms: C_53  and  N_55
   43  A    between atoms: O_57  and  C_58
                            x       y       z     vdW  Elec       q    Type
                         _______ _______ _______ _____ _____    ______ ____

>  <TORSDO>
F 43

$$$$
=
 OpenBabel11062414413D

 68 71  0  0  1  0  0  0  0  0999 V2000
  187.1030  178.0340  138.3540 C   0  0  2  0  0  0  0  0  0  0  0  0
  187.2840  176.6020  137.9280 C   0  0  1  0  0  3  0  0  0  0  0  0
  186.6070  177.5530  136.9960 C   0  0  2  0  0  0  0  0  0  0  0  0
  187.4470  176.5210  136.5340 O   0  0  0  0  0  0  0  0  0  0  0  0
  188.2090  179.0600  138.1890 C   0  0  0  0  0  2  0  0  0  0  0  0
  189.2930  178.6890  138.9880 O   0  0  0  0  0  0  0  0  0  0  0  0
  189.0620  177.3450  139.3350 C   0  0  0  0  0  2  0  0  0  0  0  0
  190.3660  176.6050  139.5980 C   0  0  2  0  0  3  0  0  0  0  0  0
  190.9260  176.8570  140.9870 C   0  0  0  0  0  0  0  0  0  0  0  0
  191.8820  177.7620  141.1710 C   0  0  0  0  0  2  0  0  0  0  0  0
  190.5150  176.1270  142.1170 O   0  0  0  0  0  0  0  0  0  0  0  0
  190.6090  175.2250  144.2490 F   0  0  0  0  0  0  0  0  0  0  0  0
  191.1160  176.2070  143.4140 C   0  0  0  0  0  0  0  0  0  0  0  0
  192.4780  176.0190  143.2630 F   0  0  0  0  0  0  0  0  0  0  0  0
  190.9290  177.4580  143.9680 F   0  0  0  0  0  0  0  0  0  0  0  0
  191.2810  176.9190  138.5730 O   0  0  0  0  0  0  0  0  0  0  0  0
  190.4820  176.5710  137.0850 S   0  0  0  0  0  0  0  0  0  0  0  0
  191.6370  175.2310  136.6370 C   0  0  0  0  0  2  0  0  0  0  0  0
  192.9010  175.7980  136.0170 C   0  0  0  0  0  2  0  0  0  0  0  0
  194.0400  175.8840  137.0350 C   0  0  0  0  0  2  0  0  0  0  0  0
  194.1780  174.6200  137.8960 C   0  0  0  0  0  2  0  0  0  0  0  0
  194.9630  173.5380  137.1660 C   0  0  1  0  0  3  0  0  0  0  0  0
  196.7260  174.2860  138.6120 O   0  0  0  0  0  1  0  0  0  0  0  0
  196.2200  173.1540  137.9660 C   0  0  2  0  0  3  0  0  0  0  0  0
  197.2030  172.6140  137.1140 O   0  0  0  0  0  0  0  0  0  0  0  0
  199.1800  173.1830  135.9330 C   0  0  0  0  0  2  0  0  0  0  0  0
  198.0550  174.0320  135.4040 C   0  0  0  0  0  2  0  0  0  0  0  0
  198.0980  173.6630  136.8710 C   0  0  0  0  0  3  0  0  0  0  0  0
  194.0660  172.3350  136.8710 C   0  0  0  0  0  2  0  0  0  0  0  0
  194.1300  171.9890  135.3930 C   0  0  0  0  0  2  0  0  0  0  0  0
  193.8190  173.1160  134.6260 O   0  0  0  0  0  1  0  0  0  0  0  0
  185.1480  177.1110  136.9200 C   0  0  0  0  0  2  0  0  0  0  0  0
  184.1490  177.7840  137.8910 C   0  0  2  0  0  3  0  0  0  0  0  0
  183.5330  176.8430  138.7270 O   0  0  0  0  0  1  0  0  0  0  0  0
  183.0670  178.5560  137.1100 C   0  0  0  0  0  2  0  0  0  0  0  0
  182.4110  177.7220  136.0080 C   0  0  0  0  0  2  0  0  0  0  0  0
  181.0920  178.3500  135.5790 C   0  0  0  0  0  2  0  0  0  0  0  0
  179.9200  177.9950  136.4950 C   0  0  1  0  0  3  0  0  0  0  0  0
  179.9350  176.5600  136.9850 C   0  0  0  0  0  2  0  0  0  0  0  0
  179.4820  176.5310  138.3200 O   0  0  0  0  0  0  0  0  0  0  0  0
  179.3080  177.8750  138.7300 C   0  0  0  0  0  2  0  0  0  0  0  0
  180.0720  178.7510  137.7720 C   0  0  2  0  0  3  0  0  0  0  0  0
  179.5080  180.0320  137.6530 O   0  0  0  0  0  0  0  0  0  0  0  0
  179.9550  180.8900  138.6960 C   0  0  1  0  0  3  0  0  0  0  0  0
  178.9370  181.4020  139.5280 O   0  0  0  0  0  1  0  0  0  0  0  0
  180.9510  180.2640  139.4770 O   0  0  0  0  0  0  0  0  0  0  0  0
  180.4800  180.1510  140.7950 C   0  0  0  0  0  2  0  0  0  0  0  0
  181.4070  179.2940  141.5840 C   0  0  0  0  0  0  0  0  0  0  0  0
  182.3930  178.8130  141.0420 O   0  0  0  0  0  0  0  0  0  0  0  0
  181.1400  178.9920  143.0240 C   0  0  0  0  0  2  0  0  0  0  0  0
  182.3640  178.3180  143.6450 C   0  0  0  0  0  2  0  0  0  0  0  0
  183.5020  179.1010  143.3820 O   0  0  0  0  0  0  0  0  0  0  0  0
  183.5440  179.6420  145.6630 O   0  0  0  0  0  1  0  0  0  0  0  0
  184.2790  179.1800  144.5520 C   0  0  1  0  0  3  0  0  0  0  0  0
  185.1050  177.9230  144.8500 C   0  0  0  0  0  2  0  0  0  0  0  0
  185.5220  177.8080  146.3100 C   0  0  0  0  0  2  0  0  0  0  0  0
  186.8670  178.4840  146.5400 C   0  0  0  0  0  2  0  0  0  0  0  0
  187.1180  178.6810  147.9630 N   0  0  0  0  0  2  0  0  0  0  0  0
  188.5400  178.4630  148.2190 C   0  0  1  0  0  3  0  0  0  0  0  0
  188.6690  177.4050  149.1270 O   0  0  0  0  0  1  0  0  0  0  0  0
  189.2930  178.1410  146.9160 C   0  0  0  0  0  2  0  0  0  0  0  0
  190.2430  176.9620  147.0980 C   0  0  0  0  0  3  0  0  0  0  0  0
  191.2550  177.3040  147.9720 F   0  0  0  0  0  0  0  0  0  0  0  0
  189.5640  175.8530  147.5540 F   0  0  0  0  0  0  0  0  0  0  0  0
  186.0920  178.2690  139.3280 O   0  0  0  0  0  0  0  0  0  0  0  0
  187.3990  178.3950  141.3640 O   0  0  0  0  0  1  0  0  0  0  0  0
  185.6310  179.7940  140.9870 O   0  0  0  0  0  0  0  0  0  0  0  0
  186.3550  178.8540  140.5690 C   0  0  0  0  0  0  0  0  0  0  0  0
  1  5  1  1  0  0  0
  1 65  1  0  0  0  0
  2  4  1  6  0  0  0
  2  1  1  0  0  0  0
  3 32  1  6  0  0  0
  3  2  1  0  0  0  0
  3  1  1  0  0  0  0
  4  3  1  0  0  0  0
  5  6  1  0  0  0  0
  6  7  1  0  0  0  0
  8  7  1  6  0  0  0
  8  9  1  0  0  0  0
  9 10  2  0  0  0  0
  9 11  1  0  0  0  0
 11 13  1  0  0  0  0
 13 15  1  0  0  0  0
 13 12  1  0  0  0  0
 14 13  1  0  0  0  0
 16  8  1  0  0  0  0
 17 16  1  0  0  0  0
 18 17  1  0  0  0  0
 19 18  1  0  0  0  0
 19 20  1  0  0  0  0
 20 21  1  0  0  0  0
 22 29  1  1  0  0  0
 22 21  1  0  0  0  0
 22 24  1  0  0  0  0
 24 23  1  6  0  0  0
 25 24  1  0  0  0  0
 26 28  1  0  0  0  0
 27 26  1  0  0  0  0
 27 28  1  0  0  0  0
 28 25  1  0  0  0  0
 30 29  1  0  0  0  0
 31 30  1  0  0  0  0
 32 33  1  0  0  0  0
 33 34  1  6  0  0  0
 35 33  1  0  0  0  0
 36 35  1  0  0  0  0
 37 36  1  0  0  0  0
 38 37  1  6  0  0  0
 38 39  1  0  0  0  0
 38 42  1  0  0  0  0
 39 40  1  0  0  0  0
 40 41  1  0  0  0  0
 42 43  1  6  0  0  0
 42 41  1  0  0  0  0
 43 44  1  0  0  0  0
 44 46  1  0  0  0  0
 44 45  1  1  0  0  0
 46 47  1  0  0  0  0
 47 48  1  0  0  0  0
 48 50  1  0  0  0  0
 49 48  2  0  0  0  0
 50 51  1  0  0  0  0
 52 51  1  0  0  0  0
 52 54  1  0  0  0  0
 54 55  1  0  0  0  0
 54 53  1  1  0  0  0
 55 56  1  0  0  0  0
 56 57  1  0  0  0  0
 57 58  1  0  0  0  0
 58 59  1  0  0  0  0
 59 60  1  1  0  0  0
 61 62  1  0  0  0  0
 61 59  1  0  0  0  0
 62 64  1  0  0  0  0
 62 63  1  0  0  0  0
 65 68  1  0  0  0  0
 68 67  2  0  0  0  0
 68 66  1  0  0  0  0
M  END
>  <MODEL>
3

>  <REMARK>
 VINA RESULT:      -3.9      1.965      3.106
  Name = 
  43 active torsions:
  status: ('A' for Active; 'I' for Inactive)
    1  A    between atoms: C_1  and  C_8
    2  A    between atoms: C_1  and  C_15
    3  A    between atoms: C_2  and  O_6
    4  A    between atoms: C_2  and  C_56
    5  A    between atoms: C_3  and  C_22
    6  A    between atoms: C_3  and  N_55
    7  A    between atoms: C_4  and  C_20
    8  A    between atoms: C_4  and  C_37
    9  A    between atoms: C_5  and  C_12
   10  A    between atoms: C_5  and  C_18
   11  A    between atoms: O_6  and  C_51
   12  A    between atoms: C_7  and  C_54
   13  A    between atoms: C_8  and  O_57
   14  A    between atoms: C_9  and  C_15
   15  A    between atoms: C_9  and  O_49
   16  A    between atoms: C_10  and  C_31
   17  A    between atoms: C_10  and  C_58
   18  A    between atoms: O_11  and  C_30
   19  A    between atoms: O_11  and  C_41
   20  A    between atoms: C_12  and  C_46
   21  A    between atoms: C_13  and  C_52
   22  A    between atoms: C_18  and  S_36
   23  A    between atoms: C_20  and  C_64
   24  A    between atoms: C_22  and  C_23
   25  A    between atoms: C_25  and  C_37
   26  A    between atoms: C_25  and  C_52
   27  A    between atoms: C_29  and  O_59
   28  A    between atoms: C_30  and  O_49
   29  A    between atoms: C_31  and  C_53
   30  A    between atoms: O_32  and  C_56
   31  A    between atoms: O_32  and  C_65
   32  A    between atoms: O_35  and  C_43
   33  A    between atoms: O_35  and  C_63
   34  A    between atoms: S_36  and  O_42
   35  A    between atoms: O_42  and  C_47
   36  A    between atoms: C_43  and  C_48
   37  A    between atoms: C_45  and  C_47
   38  A    between atoms: C_45  and  O_59
   39  A    between atoms: C_46  and  C_48
   40  A    between atoms: C_47  and  C_65
   41  A    between atoms: C_48  and  C_54
   42  A    between atoms: C_53  and  N_55
   43  A    between atoms: O_57  and  C_58
                            x       y       z     vdW  Elec       q    Type
                         _______ _______ _______ _____ _____    ______ ____

>  <TORSDO>
F 43

$$$$
=
 OpenBabel11062414413D

 68 71  0  0  1  0  0  0  0  0999 V2000
  185.4650  178.4860  145.9080 C   0  0  2  0  0  0  0  0  0  0  0  0
  185.5370  178.2560  147.3940 C   0  0  1  0  0  3  0  0  0  0  0  0
  186.4040  179.3090  146.7840 C   0  0  2  0  0  0  0  0  0  0  0  0
  185.8340  179.4560  148.0630 O   0  0  0  0  0  0  0  0  0  0  0  0
  184.3970  179.3690  145.2910 C   0  0  0  0  0  2  0  0  0  0  0  0
  183.1870  178.6710  145.2730 O   0  0  0  0  0  0  0  0  0  0  0  0
  183.0060  178.2650  143.9380 C   0  0  0  0  0  2  0  0  0  0  0  0
  182.5040  179.4110  143.0700 C   0  0  2  0  0  3  0  0  0  0  0  0
  181.1150  179.1670  142.5060 C   0  0  0  0  0  0  0  0  0  0  0  0
  180.1570  178.6620  143.2780 C   0  0  0  0  0  2  0  0  0  0  0  0
  180.7880  179.4010  141.1590 O   0  0  0  0  0  0  0  0  0  0  0  0
  178.9340  179.3060  139.7720 F   0  0  0  0  0  0  0  0  0  0  0  0
  179.9490  178.5650  140.3550 C   0  0  0  0  0  0  0  0  0  0  0  0
  180.7340  178.0060  139.3630 F   0  0  0  0  0  0  0  0  0  0  0  0
  179.4240  177.5290  141.1020 F   0  0  0  0  0  0  0  0  0  0  0  0
  183.4610  179.6780  142.0710 O   0  0  0  0  0  0  0  0  0  0  0  0
  183.6620  178.2110  141.1870 S   0  0  0  0  0  0  0  0  0  0  0  0
  184.4610  179.0330  139.7670 C   0  0  0  0  0  2  0  0  0  0  0  0
  183.8550  178.5560  138.4600 C   0  0  0  0  0  2  0  0  0  0  0  0
  183.9800  177.0400  138.2990 C   0  0  0  0  0  2  0  0  0  0  0  0
  183.1410  176.4840  137.1380 C   0  0  0  0  0  2  0  0  0  0  0  0
  183.9970  175.6640  136.1820 C   0  0  1  0  0  3  0  0  0  0  0  0
  182.0260  175.0870  134.9390 O   0  0  0  0  0  1  0  0  0  0  0  0
  183.1620  174.5400  135.5440 C   0  0  2  0  0  3  0  0  0  0  0  0
  182.7740  173.5990  136.5170 O   0  0  0  0  0  0  0  0  0  0  0  0
  184.3130  171.9030  135.8950 C   0  0  0  0  0  2  0  0  0  0  0  0
  183.3430  171.3180  136.8860 C   0  0  0  0  0  2  0  0  0  0  0  0
  182.8710  172.3520  135.8870 C   0  0  0  0  0  3  0  0  0  0  0  0
  184.6510  176.5720  135.1390 C   0  0  0  0  0  2  0  0  0  0  0  0
  186.1390  176.6970  135.4200 C   0  0  0  0  0  2  0  0  0  0  0  0
  186.5820  175.5880  136.1460 O   0  0  0  0  0  1  0  0  0  0  0  0
  187.8390  178.8050  146.9060 C   0  0  0  0  0  2  0  0  0  0  0  0
  188.3760  178.5210  148.3290 C   0  0  2  0  0  3  0  0  0  0  0  0
  189.5830  179.1920  148.5640 O   0  0  0  0  0  1  0  0  0  0  0  0
  188.5850  177.0080  148.5390 C   0  0  0  0  0  2  0  0  0  0  0  0
  188.1720  176.1700  147.3280 C   0  0  0  0  0  2  0  0  0  0  0  0
  189.1360  176.3970  146.1710 C   0  0  0  0  0  2  0  0  0  0  0  0
  190.5900  176.5660  146.6120 C   0  0  1  0  0  3  0  0  0  0  0  0
  191.0310  175.5730  147.6690 C   0  0  0  0  0  2  0  0  0  0  0  0
  192.3670  175.1990  147.4130 O   0  0  0  0  0  0  0  0  0  0  0  0
  192.7390  175.8010  146.1870 C   0  0  0  0  0  2  0  0  0  0  0  0
  191.4770  176.2030  145.4690 C   0  0  2  0  0  3  0  0  0  0  0  0
  191.6700  177.3110  144.6270 O   0  0  0  0  0  0  0  0  0  0  0  0
  191.7340  176.9150  143.2620 C   0  0  1  0  0  3  0  0  0  0  0  0
  191.2660  175.6110  142.9930 O   0  0  0  0  0  1  0  0  0  0  0  0
  191.0730  177.8490  142.4330 O   0  0  0  0  0  0  0  0  0  0  0  0
  190.3370  177.1450  141.4670 C   0  0  0  0  0  2  0  0  0  0  0  0
  190.7780  177.5580  140.1060 C   0  0  0  0  0  0  0  0  0  0  0  0
  189.9550  177.9920  139.3110 O   0  0  0  0  0  0  0  0  0  0  0  0
  192.2070  177.4290  139.6870 C   0  0  0  0  0  2  0  0  0  0  0  0
  192.3890  176.1570  138.8580 C   0  0  0  0  0  2  0  0  0  0  0  0
  192.1140  176.4440  137.5100 O   0  0  0  0  0  0  0  0  0  0  0  0
  190.4570  176.0430  135.9000 O   0  0  0  0  0  1  0  0  0  0  0  0
  191.1120  175.5670  137.0540 C   0  0  1  0  0  3  0  0  0  0  0  0
  191.5560  174.1040  136.9410 C   0  0  0  0  0  2  0  0  0  0  0  0
  191.5960  173.5950  135.5060 C   0  0  0  0  0  2  0  0  0  0  0  0
  193.0280  173.2890  135.0850 C   0  0  0  0  0  2  0  0  0  0  0  0
  193.9240  173.2910  136.2360 N   0  0  0  0  0  2  0  0  0  0  0  0
  195.2040  172.7150  135.8300 C   0  0  1  0  0  3  0  0  0  0  0  0
  195.6880  173.4380  134.7320 O   0  0  0  0  0  1  0  0  0  0  0  0
  196.2200  172.7580  136.9850 C   0  0  0  0  0  2  0  0  0  0  0  0
  195.5950  172.2920  138.2950 C   0  0  0  0  0  3  0  0  0  0  0  0
  195.1590  173.3810  139.0230 F   0  0  0  0  0  0  0  0  0  0  0  0
  194.5530  171.4200  138.0580 F   0  0  0  0  0  0  0  0  0  0  0  0
  186.0920  177.5000  145.0960 O   0  0  0  0  0  0  0  0  0  0  0  0
  186.5610  177.0880  142.7550 O   0  0  0  0  0  0  0  0  0  0  0  0
  187.6270  178.7430  143.9170 O   0  0  0  0  0  1  0  0  0  0  0  0
  186.7820  177.8110  143.9210 C   0  0  0  0  0  0  0  0  0  0  0  0
  1  5  1  6  0  0  0
  1  3  1  0  0  0  0
  1  2  1  0  0  0  0
  2  4  1  1  0  0  0
  3 32  1  6  0  0  0
  3  2  1  0  0  0  0
  3  4  1  0  0  0  0
  6  5  1  0  0  0  0
  7  6  1  0  0  0  0
  8  7  1  6  0  0  0
  9  8  1  0  0  0  0
  9 10  2  0  0  0  0
 11  9  1  0  0  0  0
 12 13  1  0  0  0  0
 13 15  1  0  0  0  0
 13 11  1  0  0  0  0
 14 13  1  0  0  0  0
 16  8  1  0  0  0  0
 17 16  1  0  0  0  0
 18 17  1  0  0  0  0
 19 18  1  0  0  0  0
 20 19  1  0  0  0  0
 21 20  1  0  0  0  0
 22 29  1  6  0  0  0
 22 21  1  0  0  0  0
 24 23  1  1  0  0  0
 24 22  1  0  0  0  0
 24 25  1  0  0  0  0
 26 27  1  0  0  0  0
 28 26  1  0  0  0  0
 28 25  1  0  0  0  0
 28 27  1  0  0  0  0
 29 30  1  0  0  0  0
 30 31  1  0  0  0  0
 32 33  1  0  0  0  0
 33 35  1  0  0  0  0
 33 34  1  6  0  0  0
 36 35  1  0  0  0  0
 37 36  1  0  0  0  0
 38 37  1  6  0  0  0
 38 39  1  0  0  0  0
 40 39  1  0  0  0  0
 41 40  1  0  0  0  0
 42 43  1  6  0  0  0
 42 41  1  0  0  0  0
 42 38  1  0  0  0  0
 44 45  1  1  0  0  0
 44 43  1  0  0  0  0
 46 44  1  0  0  0  0
 47 46  1  0  0  0  0
 48 47  1  0  0  0  0
 49 48  2  0  0  0  0
 50 48  1  0  0  0  0
 51 50  1  0  0  0  0
 52 51  1  0  0  0  0
 54 53  1  6  0  0  0
 54 52  1  0  0  0  0
 55 54  1  0  0  0  0
 56 55  1  0  0  0  0
 57 56  1  0  0  0  0
 57 58  1  0  0  0  0
 59 60  1  6  0  0  0
 59 58  1  0  0  0  0
 59 61  1  0  0  0  0
 61 62  1  0  0  0  0
 62 63  1  0  0  0  0
 64 62  1  0  0  0  0
 65  1  1  0  0  0  0
 66 68  2  0  0  0  0
 67 68  1  0  0  0  0
 68 65  1  0  0  0  0
M  END
>  <MODEL>
4

>  <REMARK>
 VINA RESULT:      -3.6      3.625     11.725
  Name = 
  43 active torsions:
  status: ('A' for Active; 'I' for Inactive)
    1  A    between atoms: C_1  and  C_8
    2  A    between atoms: C_1  and  C_15
    3  A    between atoms: C_2  and  O_6
    4  A    between atoms: C_2  and  C_56
    5  A    between atoms: C_3  and  C_22
    6  A    between atoms: C_3  and  N_55
    7  A    between atoms: C_4  and  C_20
    8  A    between atoms: C_4  and  C_37
    9  A    between atoms: C_5  and  C_12
   10  A    between atoms: C_5  and  C_18
   11  A    between atoms: O_6  and  C_51
   12  A    between atoms: C_7  and  C_54
   13  A    between atoms: C_8  and  O_57
   14  A    between atoms: C_9  and  C_15
   15  A    between atoms: C_9  and  O_49
   16  A    between atoms: C_10  and  C_31
   17  A    between atoms: C_10  and  C_58
   18  A    between atoms: O_11  and  C_30
   19  A    between atoms: O_11  and  C_41
   20  A    between atoms: C_12  and  C_46
   21  A    between atoms: C_13  and  C_52
   22  A    between atoms: C_18  and  S_36
   23  A    between atoms: C_20  and  C_64
   24  A    between atoms: C_22  and  C_23
   25  A    between atoms: C_25  and  C_37
   26  A    between atoms: C_25  and  C_52
   27  A    between atoms: C_29  and  O_59
   28  A    between atoms: C_30  and  O_49
   29  A    between atoms: C_31  and  C_53
   30  A    between atoms: O_32  and  C_56
   31  A    between atoms: O_32  and  C_65
   32  A    between atoms: O_35  and  C_43
   33  A    between atoms: O_35  and  C_63
   34  A    between atoms: S_36  and  O_42
   35  A    between atoms: O_42  and  C_47
   36  A    between atoms: C_43  and  C_48
   37  A    between atoms: C_45  and  C_47
   38  A    between atoms: C_45  and  O_59
   39  A    between atoms: C_46  and  C_48
   40  A    between atoms: C_47  and  C_65
   41  A    between atoms: C_48  and  C_54
   42  A    between atoms: C_53  and  N_55
   43  A    between atoms: O_57  and  C_58
                            x       y       z     vdW  Elec       q    Type
                         _______ _______ _______ _____ _____    ______ ____

>  <TORSDO>
F 43

$$$$
=
 OpenBabel11062414413D

 68 71  0  0  1  0  0  0  0  0999 V2000
  182.3220  179.2810  140.8680 C   0  0  2  0  0  0  0  0  0  0  0  0
  182.2580  178.4480  142.1200 C   0  0  1  0  0  3  0  0  0  0  0  0
  183.0160  179.7350  142.1470 C   0  0  2  0  0  0  0  0  0  0  0  0
  182.2870  179.2710  143.2590 O   0  0  0  0  0  0  0  0  0  0  0  0
  181.2090  180.2410  140.4920 C   0  0  0  0  0  2  0  0  0  0  0  0
  180.0790  179.5040  140.1300 O   0  0  0  0  0  0  0  0  0  0  0  0
  179.8820  179.7650  138.7610 C   0  0  0  0  0  2  0  0  0  0  0  0
  180.8790  180.7910  138.2400 C   0  0  2  0  0  3  0  0  0  0  0  0
  180.2640  182.1630  138.0250 C   0  0  0  0  0  0  0  0  0  0  0  0
  179.0040  182.3970  138.3790 C   0  0  0  0  0  2  0  0  0  0  0  0
  180.9560  183.2180  137.4040 O   0  0  0  0  0  0  0  0  0  0  0  0
  181.2430  185.1000  136.0820 F   0  0  0  0  0  0  0  0  0  0  0  0
  180.3530  184.4110  136.8910 C   0  0  0  0  0  0  0  0  0  0  0  0
  179.2510  184.0410  136.1430 F   0  0  0  0  0  0  0  0  0  0  0  0
  179.9060  185.2200  137.9170 F   0  0  0  0  0  0  0  0  0  0  0  0
  181.4940  180.2790  137.0810 O   0  0  0  0  0  0  0  0  0  0  0  0
  180.3630  180.4910  135.7960 S   0  0  0  0  0  0  0  0  0  0  0  0
  180.4130  178.7370  135.2970 C   0  0  0  0  0  2  0  0  0  0  0  0
  181.8350  178.2070  135.3430 C   0  0  0  0  0  2  0  0  0  0  0  0
  182.1450  177.5350  136.6820 C   0  0  0  0  0  2  0  0  0  0  0  0
  180.9190  176.8640  137.3200 C   0  0  0  0  0  2  0  0  0  0  0  0
  181.2330  175.4380  137.7530 C   0  0  1  0  0  3  0  0  0  0  0  0
  181.7330  174.5680  135.5720 O   0  0  0  0  0  1  0  0  0  0  0  0
  182.2950  174.8170  136.8290 C   0  0  2  0  0  3  0  0  0  0  0  0
  182.7850  173.6160  137.3760 O   0  0  0  0  0  0  0  0  0  0  0  0
  184.9990  174.3150  136.8870 C   0  0  0  0  0  2  0  0  0  0  0  0
  185.0660  172.9600  137.5400 C   0  0  0  0  0  2  0  0  0  0  0  0
  183.9170  173.2970  136.6150 C   0  0  0  0  0  3  0  0  0  0  0  0
  181.6470  175.4060  139.2260 C   0  0  0  0  0  2  0  0  0  0  0  0
  180.4390  175.6640  140.1100 C   0  0  0  0  0  2  0  0  0  0  0  0
  179.5760  174.5660  140.0700 O   0  0  0  0  0  1  0  0  0  0  0  0
  184.4880  179.3610  142.2940 C   0  0  0  0  0  2  0  0  0  0  0  0
  184.8420  177.8550  142.3090 C   0  0  2  0  0  3  0  0  0  0  0  0
  183.8500  177.0890  141.6820 O   0  0  0  0  0  1  0  0  0  0  0  0
  185.0320  177.3550  143.7550 C   0  0  0  0  0  2  0  0  0  0  0  0
  185.4580  178.4620  144.7220 C   0  0  0  0  0  2  0  0  0  0  0  0
  186.9530  178.7210  144.6090 C   0  0  0  0  0  2  0  0  0  0  0  0
  187.7210  178.4420  145.9020 C   0  0  1  0  0  3  0  0  0  0  0  0
  186.8920  178.6170  147.1590 C   0  0  0  0  0  2  0  0  0  0  0  0
  187.2620  177.6250  148.0900 O   0  0  0  0  0  0  0  0  0  0  0  0
  188.1800  176.7660  147.4390 C   0  0  0  0  0  2  0  0  0  0  0  0
  188.0460  176.9870  145.9550 C   0  0  2  0  0  3  0  0  0  0  0  0
  189.2400  176.7250  145.2650 O   0  0  0  0  0  0  0  0  0  0  0  0
  190.2330  177.6990  145.5650 C   0  0  1  0  0  3  0  0  0  0  0  0
  191.4810  177.1780  145.9680 O   0  0  0  0  0  1  0  0  0  0  0  0
  190.4060  178.5950  144.4870 O   0  0  0  0  0  0  0  0  0  0  0  0
  191.3840  178.0730  143.6250 C   0  0  0  0  0  2  0  0  0  0  0  0
  190.7450  177.1530  142.6440 C   0  0  0  0  0  0  0  0  0  0  0  0
  191.0580  175.9700  142.6330 O   0  0  0  0  0  0  0  0  0  0  0  0
  189.7430  177.6570  141.6550 C   0  0  0  0  0  2  0  0  0  0  0  0
  189.6840  176.7120  140.4540 C   0  0  0  0  0  2  0  0  0  0  0  0
  190.9940  176.3820  140.0660 O   0  0  0  0  0  0  0  0  0  0  0  0
  189.7150  175.5010  138.3080 O   0  0  0  0  0  1  0  0  0  0  0  0
  190.9790  175.9740  138.7190 C   0  0  1  0  0  3  0  0  0  0  0  0
  191.5960  176.9830  137.7450 C   0  0  0  0  0  2  0  0  0  0  0  0
  192.8880  176.4920  137.1060 C   0  0  0  0  0  2  0  0  0  0  0  0
  192.6110  175.3380  136.1510 C   0  0  0  0  0  2  0  0  0  0  0  0
  193.4040  174.1660  136.5030 N   0  0  0  0  0  2  0  0  0  0  0  0
  192.5000  173.0360  136.7060 C   0  0  1  0  0  3  0  0  0  0  0  0
  191.2360  173.3870  136.2170 O   0  0  0  0  0  1  0  0  0  0  0  0
  193.0180  171.7780  135.9860 C   0  0  0  0  0  2  0  0  0  0  0  0
  194.5420  171.7160  135.9980 C   0  0  0  0  0  3  0  0  0  0  0  0
  195.0560  172.6000  135.0690 F   0  0  0  0  0  0  0  0  0  0  0  0
  195.0330  171.9960  137.2550 F   0  0  0  0  0  0  0  0  0  0  0  0
  183.1830  178.7960  139.8430 O   0  0  0  0  0  0  0  0  0  0  0  0
  185.5350  178.9980  139.2980 O   0  0  0  0  0  1  0  0  0  0  0  0
  184.0680  180.7120  138.9300 O   0  0  0  0  0  0  0  0  0  0  0  0
  184.2540  179.5370  139.3380 C   0  0  0  0  0  0  0  0  0  0  0  0
  1  5  1  6  0  0  0
  1  2  1  0  0  0  0
  1  3  1  0  0  0  0
  2  3  1  0  0  0  0
  2  4  1  1  0  0  0
  3 32  1  1  0  0  0
  3  4  1  0  0  0  0
  6  5  1  0  0  0  0
  7  6  1  0  0  0  0
  8  7  1  6  0  0  0
  9  8  1  0  0  0  0
  9 10  2  0  0  0  0
 11  9  1  0  0  0  0
 12 13  1  0  0  0  0
 13 11  1  0  0  0  0
 13 15  1  0  0  0  0
 14 13  1  0  0  0  0
 16  8  1  0  0  0  0
 17 16  1  0  0  0  0
 18 19  1  0  0  0  0
 18 17  1  0  0  0  0
 19 20  1  0  0  0  0
 20 21  1  0  0  0  0
 22 21  1  6  0  0  0
 22 29  1  0  0  0  0
 24 23  1  6  0  0  0
 24 25  1  0  0  0  0
 24 22  1  0  0  0  0
 26 27  1  0  0  0  0
 28 26  1  0  0  0  0
 28 25  1  0  0  0  0
 28 27  1  0  0  0  0
 29 30  1  0  0  0  0
 31 30  1  0  0  0  0
 32 33  1  0  0  0  0
 33 34  1  1  0  0  0
 33 35  1  0  0  0  0
 35 36  1  0  0  0  0
 37 36  1  0  0  0  0
 38 37  1  6  0  0  0
 38 42  1  0  0  0  0
 38 39  1  0  0  0  0
 39 40  1  0  0  0  0
 41 40  1  0  0  0  0
 42 43  1  6  0  0  0
 42 41  1  0  0  0  0
 43 44  1  0  0  0  0
 44 45  1  6  0  0  0
 46 44  1  0  0  0  0
 47 46  1  0  0  0  0
 48 47  1  0  0  0  0
 49 48  2  0  0  0  0
 50 48  1  0  0  0  0
 51 50  1  0  0  0  0
 52 51  1  0  0  0  0
 54 53  1  6  0  0  0
 54 52  1  0  0  0  0
 55 54  1  0  0  0  0
 56 55  1  0  0  0  0
 57 58  1  0  0  0  0
 57 56  1  0  0  0  0
 58 59  1  0  0  0  0
 59 60  1  6  0  0  0
 61 62  1  0  0  0  0
 61 59  1  0  0  0  0
 62 64  1  0  0  0  0
 63 62  1  0  0  0  0
 65  1  1  0  0  0  0
 66 68  1  0  0  0  0
 67 68  2  0  0  0  0
 68 65  1  0  0  0  0
M  END
>  <MODEL>
5

>  <REMARK>
 VINA RESULT:      -3.0      4.206     11.200
  Name = 
  43 active torsions:
  status: ('A' for Active; 'I' for Inactive)
    1  A    between atoms: C_1  and  C_8
    2  A    between atoms: C_1  and  C_15
    3  A    between atoms: C_2  and  O_6
    4  A    between atoms: C_2  and  C_56
    5  A    between atoms: C_3  and  C_22
    6  A    between atoms: C_3  and  N_55
    7  A    between atoms: C_4  and  C_20
    8  A    between atoms: C_4  and  C_37
    9  A    between atoms: C_5  and  C_12
   10  A    between atoms: C_5  and  C_18
   11  A    between atoms: O_6  and  C_51
   12  A    between atoms: C_7  and  C_54
   13  A    between atoms: C_8  and  O_57
   14  A    between atoms: C_9  and  C_15
   15  A    between atoms: C_9  and  O_49
   16  A    between atoms: C_10  and  C_31
   17  A    between atoms: C_10  and  C_58
   18  A    between atoms: O_11  and  C_30
   19  A    between atoms: O_11  and  C_41
   20  A    between atoms: C_12  and  C_46
   21  A    between atoms: C_13  and  C_52
   22  A    between atoms: C_18  and  S_36
   23  A    between atoms: C_20  and  C_64
   24  A    between atoms: C_22  and  C_23
   25  A    between atoms: C_25  and  C_37
   26  A    between atoms: C_25  and  C_52
   27  A    between atoms: C_29  and  O_59
   28  A    between atoms: C_30  and  O_49
   29  A    between atoms: C_31  and  C_53
   30  A    between atoms: O_32  and  C_56
   31  A    between atoms: O_32  and  C_65
   32  A    between atoms: O_35  and  C_43
   33  A    between atoms: O_35  and  C_63
   34  A    between atoms: S_36  and  O_42
   35  A    between atoms: O_42  and  C_47
   36  A    between atoms: C_43  and  C_48
   37  A    between atoms: C_45  and  C_47
   38  A    between atoms: C_45  and  O_59
   39  A    between atoms: C_46  and  C_48
   40  A    between atoms: C_47  and  C_65
   41  A    between atoms: C_48  and  C_54
   42  A    between atoms: C_53  and  N_55
   43  A    between atoms: O_57  and  C_58
                            x       y       z     vdW  Elec       q    Type
                         _______ _______ _______ _____ _____    ______ ____

>  <TORSDO>
F 43

$$$$
=
 OpenBabel11062414413D

 68 71  0  0  1  0  0  0  0  0999 V2000
  187.3710  176.6370  136.3650 C   0  0  2  0  0  0  0  0  0  0  0  0
  186.8620  177.1520  135.0460 C   0  0  1  0  0  3  0  0  0  0  0  0
  186.1130  177.4950  136.2920 C   0  0  2  0  0  0  0  0  0  0  0  0
  186.2290  178.3960  135.2150 O   0  0  0  0  0  0  0  0  0  0  0  0
  188.4660  177.3550  137.1320 C   0  0  0  0  0  2  0  0  0  0  0  0
  188.1160  177.4010  138.4830 O   0  0  0  0  0  0  0  0  0  0  0  0
  188.5660  176.1850  139.0300 C   0  0  0  0  0  2  0  0  0  0  0  0
  190.0820  176.0700  138.9610 C   0  0  2  0  0  3  0  0  0  0  0  0
  190.7810  176.6690  140.1690 C   0  0  0  0  0  0  0  0  0  0  0  0
  191.6800  177.6370  140.0120 C   0  0  0  0  0  2  0  0  0  0  0  0
  190.5660  176.2080  141.4800 O   0  0  0  0  0  0  0  0  0  0  0  0
  190.6530  176.1430  143.7950 F   0  0  0  0  0  0  0  0  0  0  0  0
  191.0890  176.8170  142.6650 C   0  0  0  0  0  0  0  0  0  0  0  0
  192.4690  176.7530  142.6010 F   0  0  0  0  0  0  0  0  0  0  0  0
  190.7390  178.1510  142.7310 F   0  0  0  0  0  0  0  0  0  0  0  0
  190.5250  176.6210  137.7420 O   0  0  0  0  0  0  0  0  0  0  0  0
  191.3630  175.3600  136.9160 S   0  0  0  0  0  0  0  0  0  0  0  0
  192.0500  176.4800  135.6500 C   0  0  0  0  0  2  0  0  0  0  0  0
  193.3610  175.9380  135.1090 C   0  0  0  0  0  2  0  0  0  0  0  0
  194.4260  175.8390  136.2020 C   0  0  0  0  0  2  0  0  0  0  0  0
  194.2660  174.5960  137.0910 C   0  0  0  0  0  2  0  0  0  0  0  0
  195.3050  173.5360  136.7490 C   0  0  1  0  0  3  0  0  0  0  0  0
  195.8390  173.2650  139.0730 O   0  0  0  0  0  1  0  0  0  0  0  0
  195.4780  172.5560  137.9230 C   0  0  2  0  0  3  0  0  0  0  0  0
  196.4670  171.5980  137.6250 O   0  0  0  0  0  0  0  0  0  0  0  0
  198.7740  171.3840  137.1160 C   0  0  0  0  0  2  0  0  0  0  0  0
  198.0870  172.0090  135.9320 C   0  0  0  0  0  2  0  0  0  0  0  0
  197.6210  172.3360  137.3340 C   0  0  0  0  0  3  0  0  0  0  0  0
  194.9360  172.8280  135.4440 C   0  0  0  0  0  2  0  0  0  0  0  0
  193.5300  172.2630  135.5390 C   0  0  0  0  0  2  0  0  0  0  0  0
  193.3730  171.2180  134.6240 O   0  0  0  0  0  1  0  0  0  0  0  0
  184.7840  176.7510  136.2100 C   0  0  0  0  0  2  0  0  0  0  0  0
  184.8340  175.2040  136.1720 C   0  0  2  0  0  3  0  0  0  0  0  0
  184.2580  174.7020  134.9980 O   0  0  0  0  0  1  0  0  0  0  0  0
  184.1060  174.6060  137.3920 C   0  0  0  0  0  2  0  0  0  0  0  0
  182.6840  175.1440  137.5670 C   0  0  0  0  0  2  0  0  0  0  0  0
  182.5120  175.7500  138.9530 C   0  0  0  0  0  2  0  0  0  0  0  0
  181.2080  176.5320  139.1190 C   0  0  1  0  0  3  0  0  0  0  0  0
  179.9660  175.7400  138.7600 C   0  0  0  0  0  2  0  0  0  0  0  0
  178.9320  176.0850  139.6560 O   0  0  0  0  0  0  0  0  0  0  0  0
  179.4950  176.9480  140.6270 C   0  0  0  0  0  2  0  0  0  0  0  0
  180.9920  176.7910  140.5720 C   0  0  2  0  0  3  0  0  0  0  0  0
  181.6670  177.9560  140.9680 O   0  0  0  0  0  0  0  0  0  0  0  0
  180.7530  179.0000  141.2850 C   0  0  1  0  0  3  0  0  0  0  0  0
  179.6370  179.1000  140.4270 O   0  0  0  0  0  1  0  0  0  0  0  0
  180.3280  178.9100  142.6280 O   0  0  0  0  0  0  0  0  0  0  0  0
  181.1060  179.7840  143.4030 C   0  0  0  0  0  2  0  0  0  0  0  0
  182.4120  179.1420  143.7190 C   0  0  0  0  0  0  0  0  0  0  0  0
  182.7550  179.0160  144.8870 O   0  0  0  0  0  0  0  0  0  0  0  0
  183.3220  178.6680  142.6320 C   0  0  0  0  0  2  0  0  0  0  0  0
  184.7770  178.8060  143.0800 C   0  0  0  0  0  2  0  0  0  0  0  0
  185.4400  177.5860  142.8690 O   0  0  0  0  0  0  0  0  0  0  0  0
  186.7260  178.7680  141.3040 O   0  0  0  0  0  1  0  0  0  0  0  0
  186.7310  177.8500  142.3740 C   0  0  1  0  0  3  0  0  0  0  0  0
  187.7680  178.1800  143.4530 C   0  0  0  0  0  2  0  0  0  0  0  0
  187.1550  178.4060  144.8290 C   0  0  0  0  0  2  0  0  0  0  0  0
  187.2860  177.1540  145.6870 C   0  0  0  0  0  2  0  0  0  0  0  0
  188.6760  176.7210  145.7730 N   0  0  0  0  0  2  0  0  0  0  0  0
  189.2240  177.1660  147.0520 C   0  0  1  0  0  3  0  0  0  0  0  0
  188.1650  177.3400  147.9510 O   0  0  0  0  0  1  0  0  0  0  0  0
  190.2310  176.1430  147.6080 C   0  0  0  0  0  2  0  0  0  0  0  0
  191.6670  176.6240  147.4350 C   0  0  0  0  0  3  0  0  0  0  0  0
  191.8610  177.0750  146.1440 F   0  0  0  0  0  0  0  0  0  0  0  0
  191.9640  177.6180  148.3430 F   0  0  0  0  0  0  0  0  0  0  0  0
  187.1540  175.2520  136.6160 O   0  0  0  0  0  0  0  0  0  0  0  0
  187.9720  174.0370  134.6870 O   0  0  0  0  0  0  0  0  0  0  0  0
  188.6410  173.5080  136.8070 O   0  0  0  0  0  1  0  0  0  0  0  0
  187.9490  174.2470  136.0600 C   0  0  0  0  0  0  0  0  0  0  0  0
  1 65  1  0  0  0  0
  1  5  1  1  0  0  0
  2  4  1  1  0  0  0
  2  3  1  0  0  0  0
  2  1  1  0  0  0  0
  3 32  1  1  0  0  0
  3  1  1  0  0  0  0
  4  3  1  0  0  0  0
  5  6  1  0  0  0  0
  6  7  1  0  0  0  0
  8  7  1  1  0  0  0
  8  9  1  0  0  0  0
  9 11  1  0  0  0  0
 10  9  2  0  0  0  0
 11 13  1  0  0  0  0
 13 15  1  0  0  0  0
 13 12  1  0  0  0  0
 14 13  1  0  0  0  0
 16  8  1  0  0  0  0
 17 16  1  0  0  0  0
 18 17  1  0  0  0  0
 19 18  1  0  0  0  0
 19 20  1  0  0  0  0
 20 21  1  0  0  0  0
 22 29  1  6  0  0  0
 22 21  1  0  0  0  0
 22 24  1  0  0  0  0
 24 23  1  1  0  0  0
 25 24  1  0  0  0  0
 26 28  1  0  0  0  0
 27 26  1  0  0  0  0
 27 28  1  0  0  0  0
 28 25  1  0  0  0  0
 29 30  1  0  0  0  0
 31 30  1  0  0  0  0
 33 34  1  6  0  0  0
 33 32  1  0  0  0  0
 33 35  1  0  0  0  0
 35 36  1  0  0  0  0
 36 37  1  0  0  0  0
 38 37  1  1  0  0  0
 38 42  1  0  0  0  0
 39 38  1  0  0  0  0
 39 40  1  0  0  0  0
 40 41  1  0  0  0  0
 42 41  1  0  0  0  0
 42 43  1  6  0  0  0
 43 44  1  0  0  0  0
 44 45  1  6  0  0  0
 44 46  1  0  0  0  0
 46 47  1  0  0  0  0
 47 48  1  0  0  0  0
 48 49  2  0  0  0  0
 50 51  1  0  0  0  0
 50 48  1  0  0  0  0
 52 51  1  0  0  0  0
 54 53  1  6  0  0  0
 54 52  1  0  0  0  0
 54 55  1  0  0  0  0
 55 56  1  0  0  0  0
 56 57  1  0  0  0  0
 57 58  1  0  0  0  0
 58 59  1  0  0  0  0
 59 61  1  0  0  0  0
 59 60  1  1  0  0  0
 62 61  1  0  0  0  0
 62 64  1  0  0  0  0
 63 62  1  0  0  0  0
 66 68  2  0  0  0  0
 68 65  1  0  0  0  0
 68 67  1  0  0  0  0
M  END
>  <MODEL>
6

>  <REMARK>
 VINA RESULT:      -3.0      2.102      3.030
  Name = 
  43 active torsions:
  status: ('A' for Active; 'I' for Inactive)
    1  A    between atoms: C_1  and  C_8
    2  A    between atoms: C_1  and  C_15
    3  A    between atoms: C_2  and  O_6
    4  A    between atoms: C_2  and  C_56
    5  A    between atoms: C_3  and  C_22
    6  A    between atoms: C_3  and  N_55
    7  A    between atoms: C_4  and  C_20
    8  A    between atoms: C_4  and  C_37
    9  A    between atoms: C_5  and  C_12
   10  A    between atoms: C_5  and  C_18
   11  A    between atoms: O_6  and  C_51
   12  A    between atoms: C_7  and  C_54
   13  A    between atoms: C_8  and  O_57
   14  A    between atoms: C_9  and  C_15
   15  A    between atoms: C_9  and  O_49
   16  A    between atoms: C_10  and  C_31
   17  A    between atoms: C_10  and  C_58
   18  A    between atoms: O_11  and  C_30
   19  A    between atoms: O_11  and  C_41
   20  A    between atoms: C_12  and  C_46
   21  A    between atoms: C_13  and  C_52
   22  A    between atoms: C_18  and  S_36
   23  A    between atoms: C_20  and  C_64
   24  A    between atoms: C_22  and  C_23
   25  A    between atoms: C_25  and  C_37
   26  A    between atoms: C_25  and  C_52
   27  A    between atoms: C_29  and  O_59
   28  A    between atoms: C_30  and  O_49
   29  A    between atoms: C_31  and  C_53
   30  A    between atoms: O_32  and  C_56
   31  A    between atoms: O_32  and  C_65
   32  A    between atoms: O_35  and  C_43
   33  A    between atoms: O_35  and  C_63
   34  A    between atoms: S_36  and  O_42
   35  A    between atoms: O_42  and  C_47
   36  A    between atoms: C_43  and  C_48
   37  A    between atoms: C_45  and  C_47
   38  A    between atoms: C_45  and  O_59
   39  A    between atoms: C_46  and  C_48
   40  A    between atoms: C_47  and  C_65
   41  A    between atoms: C_48  and  C_54
   42  A    between atoms: C_53  and  N_55
   43  A    between atoms: O_57  and  C_58
                            x       y       z     vdW  Elec       q    Type
                         _______ _______ _______ _____ _____    ______ ____

>  <TORSDO>
F 43

$$$$
=
 OpenBabel11062414413D

 68 71  0  0  1  0  0  0  0  0999 V2000
  186.4560  175.9300  136.0840 C   0  0  2  0  0  0  0  0  0  0  0  0
  185.1890  176.0340  135.2780 C   0  0  1  0  0  3  0  0  0  0  0  0
  185.6240  177.2080  136.0950 C   0  0  2  0  0  0  0  0  0  0  0  0
  184.9880  177.3570  134.8470 O   0  0  0  0  0  0  0  0  0  0  0  0
  187.8170  176.1830  135.4630 C   0  0  0  0  0  2  0  0  0  0  0  0
  187.9850  177.5580  135.2830 O   0  0  0  0  0  0  0  0  0  0  0  0
  188.7690  177.9860  136.3700 C   0  0  0  0  0  2  0  0  0  0  0  0
  188.5980  177.0740  137.5760 C   0  0  2  0  0  3  0  0  0  0  0  0
  188.7120  177.8080  138.9000 C   0  0  0  0  0  0  0  0  0  0  0  0
  188.9710  179.1120  138.9240 C   0  0  0  0  0  2  0  0  0  0  0  0
  188.6090  177.1580  140.1430 O   0  0  0  0  0  0  0  0  0  0  0  0
  188.2290  176.8640  142.4090 F   0  0  0  0  0  0  0  0  0  0  0  0
  188.2470  177.7870  141.3770 C   0  0  0  0  0  0  0  0  0  0  0  0
  189.1930  178.7590  141.6500 F   0  0  0  0  0  0  0  0  0  0  0  0
  187.0230  178.4180  141.2690 F   0  0  0  0  0  0  0  0  0  0  0  0
  189.5040  176.0000  137.4650 O   0  0  0  0  0  0  0  0  0  0  0  0
  191.0300  176.5950  138.0050 S   0  0  0  0  0  0  0  0  0  0  0  0
  191.8810  175.0020  137.7440 C   0  0  0  0  0  2  0  0  0  0  0  0
  191.3210  174.2870  136.5270 C   0  0  0  0  0  2  0  0  0  0  0  0
  192.3690  173.3900  135.8660 C   0  0  0  0  0  2  0  0  0  0  0  0
  193.5840  174.1680  135.3390 C   0  0  0  0  0  2  0  0  0  0  0  0
  194.7800  173.2480  135.1310 C   0  0  1  0  0  3  0  0  0  0  0  0
  195.5680  174.4390  137.0600 O   0  0  0  0  0  1  0  0  0  0  0  0
  195.6560  173.2120  136.3950 C   0  0  2  0  0  3  0  0  0  0  0  0
  196.9990  172.9500  136.0590 O   0  0  0  0  0  0  0  0  0  0  0  0
  199.1800  173.8630  136.2480 C   0  0  0  0  0  2  0  0  0  0  0  0
  198.2740  174.9220  135.6800 C   0  0  0  0  0  2  0  0  0  0  0  0
  197.7430  173.9440  136.7060 C   0  0  0  0  0  3  0  0  0  0  0  0
  194.3140  171.8550  134.7010 C   0  0  0  0  0  2  0  0  0  0  0  0
  193.4550  171.2360  135.7900 C   0  0  0  0  0  2  0  0  0  0  0  0
  194.0120  170.0230  136.2030 O   0  0  0  0  0  1  0  0  0  0  0  0
  184.6040  177.3470  137.2200 C   0  0  0  0  0  2  0  0  0  0  0  0
  183.1060  177.2940  136.8350 C   0  0  2  0  0  3  0  0  0  0  0  0
  182.7700  176.0650  136.2520 O   0  0  0  0  0  1  0  0  0  0  0  0
  182.7560  178.4340  135.8580 C   0  0  0  0  0  2  0  0  0  0  0  0
  181.3310  178.3370  135.3080 C   0  0  0  0  0  2  0  0  0  0  0  0
  180.3170  178.4320  136.4390 C   0  0  0  0  0  2  0  0  0  0  0  0
  180.4140  179.7320  137.2380 C   0  0  1  0  0  3  0  0  0  0  0  0
  180.3660  180.9840  136.3840 C   0  0  0  0  0  2  0  0  0  0  0  0
  179.6330  181.9750  137.0700 O   0  0  0  0  0  0  0  0  0  0  0  0
  179.1140  181.3720  138.2420 C   0  0  0  0  0  2  0  0  0  0  0  0
  179.1750  179.8780  138.0570 C   0  0  2  0  0  3  0  0  0  0  0  0
  179.3090  179.1940  139.2750 O   0  0  0  0  0  0  0  0  0  0  0  0
  180.4300  179.6670  140.0120 C   0  0  1  0  0  3  0  0  0  0  0  0
  180.4150  179.3600  141.3900 O   0  0  0  0  0  1  0  0  0  0  0  0
  181.6400  179.2300  139.4300 O   0  0  0  0  0  0  0  0  0  0  0  0
  182.1020  178.1130  140.1440 C   0  0  0  0  0  2  0  0  0  0  0  0
  183.1690  178.5350  141.0940 C   0  0  0  0  0  0  0  0  0  0  0  0
  184.1800  179.0740  140.6640 O   0  0  0  0  0  0  0  0  0  0  0  0
  183.0360  178.2890  142.5620 C   0  0  0  0  0  2  0  0  0  0  0  0
  184.4220  178.1420  143.1890 C   0  0  0  0  0  2  0  0  0  0  0  0
  184.7230  179.3060  143.9170 O   0  0  0  0  0  0  0  0  0  0  0  0
  185.7270  180.0490  145.9020 O   0  0  0  0  0  1  0  0  0  0  0  0
  185.4540  178.9480  145.0650 C   0  0  1  0  0  3  0  0  0  0  0  0
  184.8940  177.7360  145.8190 C   0  0  0  0  0  2  0  0  0  0  0  0
  185.4390  177.6010  147.2340 C   0  0  0  0  0  2  0  0  0  0  0  0
  186.9570  177.4750  147.2150 C   0  0  0  0  0  2  0  0  0  0  0  0
  187.5630  178.2870  148.2640 N   0  0  0  0  0  2  0  0  0  0  0  0
  189.0070  178.3240  148.0480 C   0  0  1  0  0  3  0  0  0  0  0  0
  189.6250  178.7070  149.2450 O   0  0  0  0  0  1  0  0  0  0  0  0
  189.5330  176.9510  147.5940 C   0  0  0  0  0  2  0  0  0  0  0  0
  190.9460  177.0540  147.0290 C   0  0  0  0  0  3  0  0  0  0  0  0
  191.8520  177.2380  148.0550 F   0  0  0  0  0  0  0  0  0  0  0  0
  191.2640  175.9280  146.2990 F   0  0  0  0  0  0  0  0  0  0  0  0
  186.3780  175.1380  137.2640 O   0  0  0  0  0  0  0  0  0  0  0  0
  186.2630  172.7190  137.3030 O   0  0  0  0  0  0  0  0  0  0  0  0
  184.3800  174.0100  137.4190 O   0  0  0  0  0  1  0  0  0  0  0  0
  185.6340  173.9580  137.3380 C   0  0  0  0  0  0  0  0  0  0  0  0
  1  5  1  6  0  0  0
  1  3  1  0  0  0  0
  1 65  1  0  0  0  0
  2  4  1  6  0  0  0
  2  1  1  0  0  0  0
  2  3  1  0  0  0  0
  3 32  1  1  0  0  0
  4  3  1  0  0  0  0
  6  5  1  0  0  0  0
  6  7  1  0  0  0  0
  8  7  1  6  0  0  0
  8  9  1  0  0  0  0
  9 10  2  0  0  0  0
  9 11  1  0  0  0  0
 11 13  1  0  0  0  0
 13 14  1  0  0  0  0
 13 12  1  0  0  0  0
 15 13  1  0  0  0  0
 16  8  1  0  0  0  0
 16 17  1  0  0  0  0
 18 17  1  0  0  0  0
 19 18  1  0  0  0  0
 20 19  1  0  0  0  0
 21 20  1  0  0  0  0
 22 29  1  1  0  0  0
 22 21  1  0  0  0  0
 22 24  1  0  0  0  0
 24 23  1  6  0  0  0
 25 24  1  0  0  0  0
 25 28  1  0  0  0  0
 26 28  1  0  0  0  0
 27 26  1  0  0  0  0
 27 28  1  0  0  0  0
 29 30  1  0  0  0  0
 30 31  1  0  0  0  0
 33 34  1  6  0  0  0
 33 32  1  0  0  0  0
 35 33  1  0  0  0  0
 36 35  1  0  0  0  0
 36 37  1  0  0  0  0
 38 37  1  6  0  0  0
 38 42  1  0  0  0  0
 39 40  1  0  0  0  0
 39 38  1  0  0  0  0
 40 41  1  0  0  0  0
 42 41  1  0  0  0  0
 42 43  1  1  0  0  0
 43 44  1  0  0  0  0
 44 45  1  1  0  0  0
 46 44  1  0  0  0  0
 46 47  1  0  0  0  0
 47 48  1  0  0  0  0
 48 50  1  0  0  0  0
 49 48  2  0  0  0  0
 50 51  1  0  0  0  0
 51 52  1  0  0  0  0
 52 54  1  0  0  0  0
 54 55  1  0  0  0  0
 54 53  1  1  0  0  0
 55 56  1  0  0  0  0
 57 56  1  0  0  0  0
 57 58  1  0  0  0  0
 59 58  1  0  0  0  0
 59 60  1  1  0  0  0
 61 59  1  0  0  0  0
 62 61  1  0  0  0  0
 62 63  1  0  0  0  0
 64 62  1  0  0  0  0
 65 68  1  0  0  0  0
 66 68  2  0  0  0  0
 68 67  1  0  0  0  0
M  END
>  <MODEL>
7

>  <REMARK>
 VINA RESULT:      -2.9      1.474      1.965
  Name = 
  43 active torsions:
  status: ('A' for Active; 'I' for Inactive)
    1  A    between atoms: C_1  and  C_8
    2  A    between atoms: C_1  and  C_15
    3  A    between atoms: C_2  and  O_6
    4  A    between atoms: C_2  and  C_56
    5  A    between atoms: C_3  and  C_22
    6  A    between atoms: C_3  and  N_55
    7  A    between atoms: C_4  and  C_20
    8  A    between atoms: C_4  and  C_37
    9  A    between atoms: C_5  and  C_12
   10  A    between atoms: C_5  and  C_18
   11  A    between atoms: O_6  and  C_51
   12  A    between atoms: C_7  and  C_54
   13  A    between atoms: C_8  and  O_57
   14  A    between atoms: C_9  and  C_15
   15  A    between atoms: C_9  and  O_49
   16  A    between atoms: C_10  and  C_31
   17  A    between atoms: C_10  and  C_58
   18  A    between atoms: O_11  and  C_30
   19  A    between atoms: O_11  and  C_41
   20  A    between atoms: C_12  and  C_46
   21  A    between atoms: C_13  and  C_52
   22  A    between atoms: C_18  and  S_36
   23  A    between atoms: C_20  and  C_64
   24  A    between atoms: C_22  and  C_23
   25  A    between atoms: C_25  and  C_37
   26  A    between atoms: C_25  and  C_52
   27  A    between atoms: C_29  and  O_59
   28  A    between atoms: C_30  and  O_49
   29  A    between atoms: C_31  and  C_53
   30  A    between atoms: O_32  and  C_56
   31  A    between atoms: O_32  and  C_65
   32  A    between atoms: O_35  and  C_43
   33  A    between atoms: O_35  and  C_63
   34  A    between atoms: S_36  and  O_42
   35  A    between atoms: O_42  and  C_47
   36  A    between atoms: C_43  and  C_48
   37  A    between atoms: C_45  and  C_47
   38  A    between atoms: C_45  and  O_59
   39  A    between atoms: C_46  and  C_48
   40  A    between atoms: C_47  and  C_65
   41  A    between atoms: C_48  and  C_54
   42  A    between atoms: C_53  and  N_55
   43  A    between atoms: O_57  and  C_58
                            x       y       z     vdW  Elec       q    Type
                         _______ _______ _______ _____ _____    ______ ____

>  <TORSDO>
F 43

$$$$
=
 OpenBabel11062414413D

 68 71  0  0  1  0  0  0  0  0999 V2000
  184.4020  177.9350  141.6910 C   0  0  2  0  0  0  0  0  0  0  0  0
  183.9030  179.3540  141.6210 C   0  0  1  0  0  3  0  0  0  0  0  0
  182.9140  178.2490  141.8060 C   0  0  2  0  0  0  0  0  0  0  0  0
  182.7530  179.5100  142.4140 O   0  0  0  0  0  0  0  0  0  0  0  0
  184.9250  177.3380  142.9840 C   0  0  0  0  0  2  0  0  0  0  0  0
  185.1490  178.3680  143.9010 O   0  0  0  0  0  0  0  0  0  0  0  0
  186.4580  178.8170  143.6490 C   0  0  0  0  0  2  0  0  0  0  0  0
  187.4090  177.6550  143.3990 C   0  0  2  0  0  3  0  0  0  0  0  0
  187.9050  177.0050  144.6780 C   0  0  0  0  0  0  0  0  0  0  0  0
  187.1120  176.9260  145.7430 C   0  0  0  0  0  2  0  0  0  0  0  0
  189.2150  176.5140  144.8240 O   0  0  0  0  0  0  0  0  0  0  0  0
  191.1850  177.2030  143.8180 F   0  0  0  0  0  0  0  0  0  0  0  0
  190.3900  177.3220  144.9460 C   0  0  0  0  0  0  0  0  0  0  0  0
  189.9880  178.6380  145.0830 F   0  0  0  0  0  0  0  0  0  0  0  0
  191.1040  176.9860  146.0790 F   0  0  0  0  0  0  0  0  0  0  0  0
  188.4560  178.0950  142.5660 O   0  0  0  0  0  0  0  0  0  0  0  0
  187.8790  177.9570  140.9460 S   0  0  0  0  0  0  0  0  0  0  0  0
  189.2530  176.8770  140.4190 C   0  0  0  0  0  2  0  0  0  0  0  0
  190.5470  177.6650  140.3220 C   0  0  0  0  0  2  0  0  0  0  0  0
  191.5640  176.9700  139.4150 C   0  0  0  0  0  2  0  0  0  0  0  0
  190.9530  175.8360  138.5790 C   0  0  0  0  0  2  0  0  0  0  0  0
  191.7070  175.6490  137.2680 C   0  0  1  0  0  3  0  0  0  0  0  0
  190.0340  177.2510  136.6400 O   0  0  0  0  0  1  0  0  0  0  0  0
  190.9620  176.3450  136.1170 C   0  0  2  0  0  3  0  0  0  0  0  0
  190.2980  175.3980  135.3120 O   0  0  0  0  0  0  0  0  0  0  0  0
  188.1980  174.3070  135.1450 C   0  0  0  0  0  2  0  0  0  0  0  0
  189.0880  173.4810  136.0350 C   0  0  0  0  0  2  0  0  0  0  0  0
  189.1860  174.9920  136.0600 C   0  0  0  0  0  3  0  0  0  0  0  0
  193.1510  176.1320  137.4090 C   0  0  0  0  0  2  0  0  0  0  0  0
  194.1000  175.1230  136.7840 C   0  0  0  0  0  2  0  0  0  0  0  0
  195.3920  175.3110  137.2820 O   0  0  0  0  0  1  0  0  0  0  0  0
  182.1020  178.1830  140.5160 C   0  0  0  0  0  2  0  0  0  0  0  0
  180.6470  178.7090  140.5620 C   0  0  2  0  0  3  0  0  0  0  0  0
  180.0330  178.6290  139.3050 O   0  0  0  0  0  1  0  0  0  0  0  0
  180.6130  180.1700  141.0530 C   0  0  0  0  0  2  0  0  0  0  0  0
  180.6700  181.1890  139.9130 C   0  0  0  0  0  2  0  0  0  0  0  0
  179.3620  181.1900  139.1350 C   0  0  0  0  0  2  0  0  0  0  0  0
  178.9370  182.5790  138.6560 C   0  0  1  0  0  3  0  0  0  0  0  0
  179.0890  183.6630  139.7040 C   0  0  0  0  0  2  0  0  0  0  0  0
  179.5200  184.8480  139.0730 O   0  0  0  0  0  0  0  0  0  0  0  0
  179.7680  184.5300  137.7160 C   0  0  0  0  0  2  0  0  0  0  0  0
  179.8980  183.0340  137.6100 C   0  0  2  0  0  3  0  0  0  0  0  0
  179.5140  182.5510  136.3480 O   0  0  0  0  0  0  0  0  0  0  0  0
  180.6150  181.9620  135.6650 C   0  0  1  0  0  3  0  0  0  0  0  0
  181.4610  182.8720  134.9950 O   0  0  0  0  0  1  0  0  0  0  0  0
  181.3710  181.1440  136.5330 O   0  0  0  0  0  0  0  0  0  0  0  0
  181.9480  180.1090  135.7800 C   0  0  0  0  0  2  0  0  0  0  0  0
  181.7620  178.8130  136.4910 C   0  0  0  0  0  0  0  0  0  0  0  0
  182.5810  178.4630  137.3300 O   0  0  0  0  0  0  0  0  0  0  0  0
  180.6030  177.9220  136.1790 C   0  0  0  0  0  2  0  0  0  0  0  0
  180.5930  176.7340  137.1420 C   0  0  0  0  0  2  0  0  0  0  0  0
  181.9090  176.2760  137.3200 O   0  0  0  0  0  0  0  0  0  0  0  0
  182.1770  174.0540  138.0230 O   0  0  0  0  0  1  0  0  0  0  0  0
  181.9760  174.9250  136.9320 C   0  0  1  0  0  3  0  0  0  0  0  0
  180.8450  174.4780  135.9990 C   0  0  0  0  0  2  0  0  0  0  0  0
  180.9370  173.0120  135.5980 C   0  0  0  0  0  2  0  0  0  0  0  0
  179.9440  172.1740  136.3930 C   0  0  0  0  0  2  0  0  0  0  0  0
  180.5680  170.9550  136.8930 N   0  0  0  0  0  2  0  0  0  0  0  0
  180.7770  170.0450  135.7700 C   0  0  1  0  0  3  0  0  0  0  0  0
  180.1780  170.6000  134.6320 O   0  0  0  0  0  1  0  0  0  0  0  0
  182.2780  169.8110  135.5200 C   0  0  0  0  0  2  0  0  0  0  0  0
  183.1340  170.8080  136.2940 C   0  0  0  0  0  3  0  0  0  0  0  0
  183.5830  170.2330  137.4670 F   0  0  0  0  0  0  0  0  0  0  0  0
  184.1970  171.2370  135.5280 F   0  0  0  0  0  0  0  0  0  0  0  0
  184.8130  177.3600  140.4560 O   0  0  0  0  0  0  0  0  0  0  0  0
  185.4660  179.4780  139.4790 O   0  0  0  0  0  1  0  0  0  0  0  0
  185.2180  177.5970  138.2040 O   0  0  0  0  0  0  0  0  0  0  0  0
  185.1730  178.1260  139.3450 C   0  0  0  0  0  0  0  0  0  0  0  0
  1  3  1  0  0  0  0
  1  5  1  1  0  0  0
  2  1  1  0  0  0  0
  2  3  1  0  0  0  0
  2  4  1  1  0  0  0
  3 32  1  6  0  0  0
  3  4  1  0  0  0  0
  5  6  1  0  0  0  0
  7  6  1  0  0  0  0
  8  7  1  1  0  0  0
  8  9  1  0  0  0  0
  9 11  1  0  0  0  0
  9 10  2  0  0  0  0
 11 13  1  0  0  0  0
 12 13  1  0  0  0  0
 13 14  1  0  0  0  0
 13 15  1  0  0  0  0
 16  8  1  0  0  0  0
 17 16  1  0  0  0  0
 18 17  1  0  0  0  0
 19 18  1  0  0  0  0
 20 19  1  0  0  0  0
 21 20  1  0  0  0  0
 22 29  1  1  0  0  0
 22 21  1  0  0  0  0
 24 23  1  1  0  0  0
 24 22  1  0  0  0  0
 25 28  1  0  0  0  0
 25 24  1  0  0  0  0
 26 27  1  0  0  0  0
 26 28  1  0  0  0  0
 27 28  1  0  0  0  0
 30 31  1  0  0  0  0
 30 29  1  0  0  0  0
 32 33  1  0  0  0  0
 33 34  1  6  0  0  0
 33 35  1  0  0  0  0
 36 35  1  0  0  0  0
 37 36  1  0  0  0  0
 38 37  1  1  0  0  0
 38 39  1  0  0  0  0
 40 39  1  0  0  0  0
 41 40  1  0  0  0  0
 42 43  1  6  0  0  0
 42 41  1  0  0  0  0
 42 38  1  0  0  0  0
 44 45  1  1  0  0  0
 44 43  1  0  0  0  0
 44 46  1  0  0  0  0
 47 48  1  0  0  0  0
 47 46  1  0  0  0  0
 48 49  2  0  0  0  0
 50 48  1  0  0  0  0
 50 51  1  0  0  0  0
 51 52  1  0  0  0  0
 54 52  1  0  0  0  0
 54 53  1  1  0  0  0
 55 54  1  0  0  0  0
 56 55  1  0  0  0  0
 56 57  1  0  0  0  0
 57 58  1  0  0  0  0
 59 60  1  6  0  0  0
 59 58  1  0  0  0  0
 61 59  1  0  0  0  0
 61 62  1  0  0  0  0
 62 63  1  0  0  0  0
 64 62  1  0  0  0  0
 65  1  1  0  0  0  0
 67 68  2  0  0  0  0
 68 66  1  0  0  0  0
 68 65  1  0  0  0  0
M  END
>  <MODEL>
8

>  <REMARK>
 VINA RESULT:      -1.7      3.572      8.016
  Name = 
  43 active torsions:
  status: ('A' for Active; 'I' for Inactive)
    1  A    between atoms: C_1  and  C_8
    2  A    between atoms: C_1  and  C_15
    3  A    between atoms: C_2  and  O_6
    4  A    between atoms: C_2  and  C_56
    5  A    between atoms: C_3  and  C_22
    6  A    between atoms: C_3  and  N_55
    7  A    between atoms: C_4  and  C_20
    8  A    between atoms: C_4  and  C_37
    9  A    between atoms: C_5  and  C_12
   10  A    between atoms: C_5  and  C_18
   11  A    between atoms: O_6  and  C_51
   12  A    between atoms: C_7  and  C_54
   13  A    between atoms: C_8  and  O_57
   14  A    between atoms: C_9  and  C_15
   15  A    between atoms: C_9  and  O_49
   16  A    between atoms: C_10  and  C_31
   17  A    between atoms: C_10  and  C_58
   18  A    between atoms: O_11  and  C_30
   19  A    between atoms: O_11  and  C_41
   20  A    between atoms: C_12  and  C_46
   21  A    between atoms: C_13  and  C_52
   22  A    between atoms: C_18  and  S_36
   23  A    between atoms: C_20  and  C_64
   24  A    between atoms: C_22  and  C_23
   25  A    between atoms: C_25  and  C_37
   26  A    between atoms: C_25  and  C_52
   27  A    between atoms: C_29  and  O_59
   28  A    between atoms: C_30  and  O_49
   29  A    between atoms: C_31  and  C_53
   30  A    between atoms: O_32  and  C_56
   31  A    between atoms: O_32  and  C_65
   32  A    between atoms: O_35  and  C_43
   33  A    between atoms: O_35  and  C_63
   34  A    between atoms: S_36  and  O_42
   35  A    between atoms: O_42  and  C_47
   36  A    between atoms: C_43  and  C_48
   37  A    between atoms: C_45  and  C_47
   38  A    between atoms: C_45  and  O_59
   39  A    between atoms: C_46  and  C_48
   40  A    between atoms: C_47  and  C_65
   41  A    between atoms: C_48  and  C_54
   42  A    between atoms: C_53  and  N_55
   43  A    between atoms: O_57  and  C_58
                            x       y       z     vdW  Elec       q    Type
                         _______ _______ _______ _____ _____    ______ ____

>  <TORSDO>
F 43

$$$$
=
 OpenBabel11062414413D

 68 71  0  0  1  0  0  0  0  0999 V2000
  182.3570  179.2940  140.8580 C   0  0  2  0  0  0  0  0  0  0  0  0
  182.3240  178.5040  142.1380 C   0  0  1  0  0  3  0  0  0  0  0  0
  183.0740  179.7950  142.1070 C   0  0  2  0  0  0  0  0  0  0  0  0
  182.3720  179.3650  143.2490 O   0  0  0  0  0  0  0  0  0  0  0  0
  181.2300  180.2350  140.4740 C   0  0  0  0  0  2  0  0  0  0  0  0
  180.0810  179.4830  140.2170 O   0  0  0  0  0  0  0  0  0  0  0  0
  179.9710  179.4310  138.8150 C   0  0  0  0  0  2  0  0  0  0  0  0
  180.9800  180.3520  138.1420 C   0  0  2  0  0  3  0  0  0  0  0  0
  180.3330  181.5360  137.4440 C   0  0  0  0  0  0  0  0  0  0  0  0
  179.0240  181.5470  137.2150 C   0  0  0  0  0  2  0  0  0  0  0  0
  181.0720  182.6320  136.9640 O   0  0  0  0  0  0  0  0  0  0  0  0
  180.6760  184.9070  136.7800 F   0  0  0  0  0  0  0  0  0  0  0  0
  180.5500  183.6830  136.1440 C   0  0  0  0  0  0  0  0  0  0  0  0
  181.2760  183.7030  134.9670 F   0  0  0  0  0  0  0  0  0  0  0  0
  179.2310  183.4430  135.8130 F   0  0  0  0  0  0  0  0  0  0  0  0
  181.7910  179.5850  137.2820 O   0  0  0  0  0  0  0  0  0  0  0  0
  180.9750  179.5340  135.7630 S   0  0  0  0  0  0  0  0  0  0  0  0
  181.8490  178.0320  135.2060 C   0  0  0  0  0  2  0  0  0  0  0  0
  183.0900  177.7900  136.0460 C   0  0  0  0  0  2  0  0  0  0  0  0
  183.1560  176.3500  136.5560 C   0  0  0  0  0  2  0  0  0  0  0  0
  181.9030  175.5290  136.2140 C   0  0  0  0  0  2  0  0  0  0  0  0
  182.2670  174.1020  135.8270 C   0  0  1  0  0  3  0  0  0  0  0  0
  184.3830  173.9170  134.7090 O   0  0  0  0  0  1  0  0  0  0  0  0
  183.7810  173.8760  135.9710 C   0  0  2  0  0  3  0  0  0  0  0  0
  184.0400  172.6320  136.5790 O   0  0  0  0  0  0  0  0  0  0  0  0
  184.8220  170.4490  136.0770 C   0  0  0  0  0  2  0  0  0  0  0  0
  183.8040  170.8360  135.0370 C   0  0  0  0  0  2  0  0  0  0  0  0
  184.7290  171.8850  135.6160 C   0  0  0  0  0  3  0  0  0  0  0  0
  181.4440  173.1020  136.6410 C   0  0  0  0  0  2  0  0  0  0  0  0
  180.3260  173.8240  137.3740 C   0  0  0  0  0  2  0  0  0  0  0  0
  179.1150  173.1560  137.1730 O   0  0  0  0  0  1  0  0  0  0  0  0
  184.5510  179.4350  142.2350 C   0  0  0  0  0  2  0  0  0  0  0  0
  184.9440  177.9530  142.0210 C   0  0  2  0  0  3  0  0  0  0  0  0
  183.9120  177.2340  141.4040 O   0  0  0  0  0  1  0  0  0  0  0  0
  185.2980  177.2850  143.3650 C   0  0  0  0  0  2  0  0  0  0  0  0
  185.7770  178.2800  144.4230 C   0  0  0  0  0  2  0  0  0  0  0  0
  187.2350  178.6470  144.1870 C   0  0  0  0  0  2  0  0  0  0  0  0
  188.1470  178.3180  145.3700 C   0  0  1  0  0  3  0  0  0  0  0  0
  187.4430  178.3350  146.7130 C   0  0  0  0  0  2  0  0  0  0  0  0
  187.9650  177.2990  147.5140 O   0  0  0  0  0  0  0  0  0  0  0  0
  188.8600  176.5580  146.7040 C   0  0  0  0  0  2  0  0  0  0  0  0
  188.5610  176.8880  145.2650 C   0  0  2  0  0  3  0  0  0  0  0  0
  189.6910  176.7640  144.4410 O   0  0  0  0  0  0  0  0  0  0  0  0
  190.5600  177.8810  144.5860 C   0  0  1  0  0  3  0  0  0  0  0  0
  191.8810  177.5670  144.9700 O   0  0  0  0  0  1  0  0  0  0  0  0
  190.5690  178.6700  143.4150 O   0  0  0  0  0  0  0  0  0  0  0  0
  191.2580  177.9710  142.4110 C   0  0  0  0  0  2  0  0  0  0  0  0
  190.2880  177.1950  141.5890 C   0  0  0  0  0  0  0  0  0  0  0  0
  190.5140  176.0180  141.3410 O   0  0  0  0  0  0  0  0  0  0  0  0
  189.0530  177.8370  141.0430 C   0  0  0  0  0  2  0  0  0  0  0  0
  188.6750  177.1810  139.7150 C   0  0  0  0  0  2  0  0  0  0  0  0
  189.4960  177.6970  138.6980 O   0  0  0  0  0  0  0  0  0  0  0  0
  187.6880  178.7450  137.6320 O   0  0  0  0  0  1  0  0  0  0  0  0
  188.7390  177.8110  137.5170 C   0  0  1  0  0  3  0  0  0  0  0  0
  189.5740  177.9900  136.2440 C   0  0  0  0  0  2  0  0  0  0  0  0
  189.9950  176.6720  135.6080 C   0  0  0  0  0  2  0  0  0  0  0  0
  189.0630  175.5460  136.0390 C   0  0  0  0  0  2  0  0  0  0  0  0
  189.7130  174.6710  137.0080 N   0  0  0  0  0  2  0  0  0  0  0  0
  190.8530  174.0250  136.3610 C   0  0  1  0  0  3  0  0  0  0  0  0
  190.4570  173.6000  135.0870 O   0  0  0  0  0  1  0  0  0  0  0  0
  192.0460  174.9910  136.2530 C   0  0  0  0  0  2  0  0  0  0  0  0
  193.0560  174.7570  137.3710 C   0  0  0  0  0  3  0  0  0  0  0  0
  194.1080  175.6440  137.2490 F   0  0  0  0  0  0  0  0  0  0  0  0
  192.4580  174.8860  138.6060 F   0  0  0  0  0  0  0  0  0  0  0  0
  183.1990  178.7800  139.8320 O   0  0  0  0  0  0  0  0  0  0  0  0
  183.8640  180.9830  139.0730 O   0  0  0  0  0  1  0  0  0  0  0  0
  184.5400  179.0870  137.9880 O   0  0  0  0  0  0  0  0  0  0  0  0
  183.8930  179.6000  138.9390 C   0  0  0  0  0  0  0  0  0  0  0  0
  1  5  1  6  0  0  0
  1  3  1  0  0  0  0
  1  2  1  0  0  0  0
  2  4  1  1  0  0  0
  3  2  1  0  0  0  0
  3 32  1  1  0  0  0
  3  4  1  0  0  0  0
  6  5  1  0  0  0  0
  7  6  1  0  0  0  0
  8  7  1  6  0  0  0
  9  8  1  0  0  0  0
 10  9  2  0  0  0  0
 11  9  1  0  0  0  0
 13 12  1  0  0  0  0
 13 11  1  0  0  0  0
 14 13  1  0  0  0  0
 15 13  1  0  0  0  0
 16  8  1  0  0  0  0
 17 16  1  0  0  0  0
 18 17  1  0  0  0  0
 18 19  1  0  0  0  0
 19 20  1  0  0  0  0
 21 20  1  0  0  0  0
 22 24  1  0  0  0  0
 22 21  1  1  0  0  0
 22 29  1  0  0  0  0
 24 23  1  6  0  0  0
 24 25  1  0  0  0  0
 27 28  1  0  0  0  0
 27 26  1  0  0  0  0
 28 26  1  0  0  0  0
 28 25  1  0  0  0  0
 29 30  1  0  0  0  0
 31 30  1  0  0  0  0
 33 34  1  1  0  0  0
 33 32  1  0  0  0  0
 33 35  1  0  0  0  0
 35 36  1  0  0  0  0
 37 36  1  0  0  0  0
 38 37  1  6  0  0  0
 38 39  1  0  0  0  0
 39 40  1  0  0  0  0
 41 40  1  0  0  0  0
 42 43  1  6  0  0  0
 42 38  1  0  0  0  0
 42 41  1  0  0  0  0
 43 44  1  0  0  0  0
 44 45  1  6  0  0  0
 46 44  1  0  0  0  0
 47 46  1  0  0  0  0
 48 47  1  0  0  0  0
 49 48  2  0  0  0  0
 50 48  1  0  0  0  0
 51 50  1  0  0  0  0
 52 51  1  0  0  0  0
 54 53  1  1  0  0  0
 54 52  1  0  0  0  0
 55 54  1  0  0  0  0
 56 57  1  0  0  0  0
 56 55  1  0  0  0  0
 57 58  1  0  0  0  0
 59 60  1  6  0  0  0
 59 58  1  0  0  0  0
 61 59  1  0  0  0  0
 61 62  1  0  0  0  0
 62 64  1  0  0  0  0
 63 62  1  0  0  0  0
 65  1  1  0  0  0  0
 67 68  2  0  0  0  0
 68 66  1  0  0  0  0
 68 65  1  0  0  0  0
M  END
>  <MODEL>
9

>  <REMARK>
 VINA RESULT:      -1.7      4.037     10.702
  Name = 
  43 active torsions:
  status: ('A' for Active; 'I' for Inactive)
    1  A    between atoms: C_1  and  C_8
    2  A    between atoms: C_1  and  C_15
    3  A    between atoms: C_2  and  O_6
    4  A    between atoms: C_2  and  C_56
    5  A    between atoms: C_3  and  C_22
    6  A    between atoms: C_3  and  N_55
    7  A    between atoms: C_4  and  C_20
    8  A    between atoms: C_4  and  C_37
    9  A    between atoms: C_5  and  C_12
   10  A    between atoms: C_5  and  C_18
   11  A    between atoms: O_6  and  C_51
   12  A    between atoms: C_7  and  C_54
   13  A    between atoms: C_8  and  O_57
   14  A    between atoms: C_9  and  C_15
   15  A    between atoms: C_9  and  O_49
   16  A    between atoms: C_10  and  C_31
   17  A    between atoms: C_10  and  C_58
   18  A    between atoms: O_11  and  C_30
   19  A    between atoms: O_11  and  C_41
   20  A    between atoms: C_12  and  C_46
   21  A    between atoms: C_13  and  C_52
   22  A    between atoms: C_18  and  S_36
   23  A    between atoms: C_20  and  C_64
   24  A    between atoms: C_22  and  C_23
   25  A    between atoms: C_25  and  C_37
   26  A    between atoms: C_25  and  C_52
   27  A    between atoms: C_29  and  O_59
   28  A    between atoms: C_30  and  O_49
   29  A    between atoms: C_31  and  C_53
   30  A    between atoms: O_32  and  C_56
   31  A    between atoms: O_32  and  C_65
   32  A    between atoms: O_35  and  C_43
   33  A    between atoms: O_35  and  C_63
   34  A    between atoms: S_36  and  O_42
   35  A    between atoms: O_42  and  C_47
   36  A    between atoms: C_43  and  C_48
   37  A    between atoms: C_45  and  C_47
   38  A    between atoms: C_45  and  O_59
   39  A    between atoms: C_46  and  C_48
   40  A    between atoms: C_47  and  C_65
   41  A    between atoms: C_48  and  C_54
   42  A    between atoms: C_53  and  N_55
   43  A    between atoms: O_57  and  C_58
                            x       y       z     vdW  Elec       q    Type
                         _______ _______ _______ _____ _____    ______ ____

>  <TORSDO>
F 43

$$$$
