=
 OpenBabel11062416553D

 56 59  0  0  1  0  0  0  0  0999 V2000
  187.7450  177.7280  134.9800 C   0  0  0  0  0  3  0  0  0  0  0  0
  189.8100  176.5710  139.0350 C   0  0  1  0  0  3  0  0  0  0  0  0
  188.4540  176.9800  138.9930 O   0  0  0  0  0  0  0  0  0  0  0  0
  186.6610  177.8850  135.8610 C   0  0  0  0  0  3  0  0  0  0  0  0
  188.9860  177.2820  135.4580 C   0  0  0  0  0  3  0  0  0  0  0  0
  188.0710  177.2200  137.6870 C   0  0  0  0  0  0  0  0  0  0  0  0
  190.3290  176.5760  137.5770 C   0  0  2  0  0  3  0  0  0  0  0  0
  186.8090  177.6220  137.2370 C   0  0  0  0  0  0  0  0  0  0  0  0
  189.1080  176.9940  136.8210 C   0  0  0  0  0  0  0  0  0  0  0  0
  190.6250  177.5050  139.9120 C   0  0  0  0  0  2  0  0  0  0  0  0
  188.0900  177.5360  142.8450 C   0  0  0  0  0  3  0  0  0  0  0  0
  191.1470  177.2910  142.4520 C   0  0  0  0  0  2  0  0  0  0  0  0
  188.5160  177.1630  144.0610 C   0  0  0  0  0  3  0  0  0  0  0  0
  189.9090  176.7810  144.4970 C   0  0  0  0  0  2  0  0  0  0  0  0
  188.8410  177.6240  141.5710 C   0  0  0  0  0  3  0  0  0  0  0  0
  190.1510  177.4500  141.3460 C   0  0  0  0  0  0  0  0  0  0  0  0
  190.7520  176.1720  143.3970 C   0  0  0  0  0  2  0  0  0  0  0  0
  185.6160  177.8270  138.1500 C   0  0  1  0  0  3  0  0  0  0  0  0
  185.2680  178.9860  140.0990 C   0  0  0  0  0  1  0  0  0  0  0  0
  185.4910  179.1190  138.7190 O   0  0  0  0  0  0  0  0  0  0  0  0
  184.2990  177.0650  137.8390 C   0  0  2  0  0  3  0  0  0  0  0  0
  183.2930  174.2050  137.8740 O   0  0  0  0  0  0  0  0  0  0  0  0
  184.5960  175.9350  136.9680 N   0  0  0  0  0  2  0  0  0  0  0  0
  184.3560  174.5610  137.3040 C   0  0  0  0  0  0  0  0  0  0  0  0
  185.3870  173.5410  136.9660 C   0  0  0  0  0  2  0  0  0  0  0  0
  187.1150  174.3460  134.8550 O   0  0  0  0  0  1  0  0  0  0  0  0
  185.2470  173.0520  135.5610 C   0  0  0  0  0  0  0  0  0  0  0  0
  186.0660  173.4700  134.5960 C   0  0  0  0  0  3  0  0  0  0  0  0
  184.2080  170.9410  136.0840 N   0  0  0  0  0  1  0  0  0  0  0  0
  184.1490  172.1030  135.2130 C   0  0  0  0  0  2  0  0  0  0  0  0
  183.3360  177.9000  137.2700 O   0  0  0  0  0  0  0  0  0  0  0  0
  182.1300  177.5430  137.8860 C   0  0  0  0  0  2  0  0  0  0  0  0
  181.7260  179.8600  138.5610 C   0  0  0  0  0  2  0  0  0  0  0  0
  181.7690  178.5670  138.9130 C   0  0  0  0  0  0  0  0  0  0  0  0
  181.0200  178.0420  140.4780 S   0  0  0  0  0  0  0  0  0  0  0  0
  180.6010  179.7230  141.0660 C   0  0  0  0  0  2  0  0  0  0  0  0
  180.4970  179.7400  142.5870 C   0  0  0  0  0  2  0  0  0  0  0  0
  181.1440  178.4770  143.1590 C   0  0  0  0  0  2  0  0  0  0  0  0
  182.2300  178.8490  144.1530 C   0  0  0  0  0  2  0  0  0  0  0  0
  183.5120  179.1940  143.4150 C   0  0  0  0  0  2  0  0  0  0  0  0
  185.1160  178.9410  145.2820 C   0  0  0  0  0  1  0  0  0  0  0  0
  184.6700  178.3670  143.9550 C   0  0  0  0  0  2  0  0  0  0  0  0
  190.8640  175.1930  137.1320 C   0  0  1  0  0  3  0  0  0  0  0  0
  195.4900  172.6960  136.0970 C   0  0  1  0  0  3  0  0  0  0  0  0
  194.5550  174.2690  137.9940 C   0  0  0  0  0  2  0  0  0  0  0  0
  196.7640  174.6200  136.9770 C   0  0  0  0  0  2  0  0  0  0  0  0
  194.1210  172.0560  136.2420 C   0  0  0  0  0  2  0  0  0  0  0  0
  193.0240  173.1190  136.2130 C   0  0  0  0  0  2  0  0  0  0  0  0
  192.2600  175.0120  137.6840 C   0  0  0  0  0  3  0  0  0  0  0  0
  195.6760  173.8470  137.0800 C   0  0  0  0  0  0  0  0  0  0  0  0
  193.2370  174.1710  137.2820 C   0  0  0  0  0  0  0  0  0  0  0  0
  196.3960  170.6270  135.1800 O   0  0  0  0  0  1  0  0  0  0  0  0
  196.5280  170.9690  137.4470 O   0  0  0  0  0  1  0  0  0  0  0  0
  196.5590  171.5830  136.1880 C   0  0  0  0  0  3  0  0  0  0  0  0
  189.9470  174.1170  137.5400 N   0  0  0  0  0  2  0  0  0  0  0  0
  189.5220  173.5000  136.4110 O   0  0  0  0  0  1  0  0  0  0  0  0
  1  5  2  0  0  0  0
  1  4  1  0  0  0  0
  2 10  1  1  0  0  0
  3  2  1  0  0  0  0
  4  8  2  0  0  0  0
  5  9  1  0  0  0  0
  6  3  1  0  0  0  0
  7 43  1  6  0  0  0
  7  2  1  0  0  0  0
  8  6  1  0  0  0  0
  8 18  1  0  0  0  0
  9  7  1  0  0  0  0
  9  6  2  0  0  0  0
 10 16  1  0  0  0  0
 11 13  2  0  0  0  0
 12 17  1  0  0  0  0
 13 14  1  0  0  0  0
 15 11  1  0  0  0  0
 16 15  2  0  0  0  0
 16 12  1  0  0  0  0
 17 14  1  0  0  0  0
 18 20  1  6  0  0  0
 20 19  1  0  0  0  0
 21 23  1  6  0  0  0
 21 18  1  0  0  0  0
 23 24  1  0  0  0  0
 24 22  2  0  0  0  0
 25 24  1  0  0  0  0
 27 25  1  0  0  0  0
 28 26  1  0  0  0  0
 28 27  2  0  0  0  0
 30 27  1  0  0  0  0
 30 29  1  0  0  0  0
 31 21  1  0  0  0  0
 31 32  1  0  0  0  0
 32 34  1  0  0  0  0
 33 34  2  0  0  0  0
 34 35  1  0  0  0  0
 35 36  1  0  0  0  0
 36 37  1  0  0  0  0
 37 38  1  0  0  0  0
 38 39  1  0  0  0  0
 40 42  1  0  0  0  0
 40 39  1  0  0  0  0
 42 41  1  0  0  0  0
 43 55  1  0  0  0  0
 43 49  1  1  0  0  0
 44 54  1  1  0  0  0
 44 47  1  0  0  0  0
 44 50  1  0  0  0  0
 46 50  2  0  0  0  0
 48 47  1  0  0  0  0
 48 51  1  0  0  0  0
 50 45  1  0  0  0  0
 51 49  2  0  0  0  0
 51 45  1  0  0  0  0
 52 54  1  0  0  0  0
 54 53  1  0  0  0  0
 56 55  1  0  0  0  0
M  END
>  <MODEL>
1

>  <REMARK>
 VINA RESULT:      -6.5      0.000      0.000
  Name = 
  23 active torsions:
  status: ('A' for Active; 'I' for Inactive)
    1  A    between atoms: N_4  and  C_26
    2  A    between atoms: C_5  and  C_25
    3  A    between atoms: C_5  and  C_51
    4  A    between atoms: C_6  and  C_55
    5  A    between atoms: C_7  and  C_53
    6  A    between atoms: C_14  and  O_23
    7  A    between atoms: C_14  and  C_34
    8  A    between atoms: C_14  and  N_49
    9  A    between atoms: C_21  and  C_35
   10  A    between atoms: O_23  and  C_45
   11  A    between atoms: C_25  and  C_48
   12  A    between atoms: C_26  and  C_31
   13  A    between atoms: C_26  and  C_40
   14  A    between atoms: S_28  and  C_42
   15  A    between atoms: S_28  and  C_48
   16  A    between atoms: C_33  and  C_44
   17  A    between atoms: C_33  and  C_50
   18  A    between atoms: C_34  and  O_46
   19  A    between atoms: C_34  and  C_52
   20  A    between atoms: C_35  and  C_51
   21  A    between atoms: C_36  and  C_53
   22  A    between atoms: C_42  and  C_45
   23  A    between atoms: C_50  and  C_56
                            x       y       z     vdW  Elec       q    Type
                         _______ _______ _______ _____ _____    ______ ____

>  <TORSDO>
F 23

$$$$
=
 OpenBabel11062416553D

 56 59  0  0  1  0  0  0  0  0999 V2000
  189.7710  178.1010  138.3310 C   0  0  0  0  0  3  0  0  0  0  0  0
  185.1410  178.1240  139.1130 C   0  0  1  0  0  3  0  0  0  0  0  0
  185.6960  177.4250  138.0120 O   0  0  0  0  0  0  0  0  0  0  0  0
  189.3400  177.2710  137.2810 C   0  0  0  0  0  3  0  0  0  0  0  0
  188.8450  178.6170  139.2500 C   0  0  0  0  0  3  0  0  0  0  0  0
  187.0740  177.5320  138.0270 C   0  0  0  0  0  0  0  0  0  0  0  0
  186.3230  178.7520  139.8910 C   0  0  2  0  0  3  0  0  0  0  0  0
  187.9750  176.9660  137.1190 C   0  0  0  0  0  0  0  0  0  0  0  0
  187.4970  178.2780  139.0950 C   0  0  0  0  0  0  0  0  0  0  0  0
  184.1680  179.1880  138.6380 C   0  0  0  0  0  2  0  0  0  0  0  0
  181.3780  177.4280  140.6740 C   0  0  0  0  0  3  0  0  0  0  0  0
  181.6050  179.6150  138.5020 C   0  0  0  0  0  2  0  0  0  0  0  0
  180.1440  177.9530  140.6520 C   0  0  0  0  0  3  0  0  0  0  0  0
  179.6350  179.1370  139.8680 C   0  0  0  0  0  2  0  0  0  0  0  0
  182.6080  177.8870  139.9880 C   0  0  0  0  0  3  0  0  0  0  0  0
  182.7630  178.8790  139.1000 C   0  0  0  0  0  0  0  0  0  0  0  0
  180.6930  180.1800  139.5750 C   0  0  0  0  0  2  0  0  0  0  0  0
  187.5590  176.0850  135.9580 C   0  0  1  0  0  3  0  0  0  0  0  0
  186.7730  177.7640  134.6060 C   0  0  0  0  0  1  0  0  0  0  0  0
  187.6560  176.6740  134.6730 O   0  0  0  0  0  0  0  0  0  0  0  0
  187.8130  174.5560  136.0530 C   0  0  2  0  0  3  0  0  0  0  0  0
  190.3270  173.6300  137.4710 O   0  0  0  0  0  0  0  0  0  0  0  0
  189.1460  174.2620  135.5440 N   0  0  0  0  0  2  0  0  0  0  0  0
  190.3320  174.1980  136.3500 C   0  0  0  0  0  0  0  0  0  0  0  0
  191.5880  174.8130  135.8410 C   0  0  0  0  0  2  0  0  0  0  0  0
  193.5320  172.7490  136.0620 O   0  0  0  0  0  1  0  0  0  0  0  0
  192.6680  174.8120  136.8740 C   0  0  0  0  0  0  0  0  0  0  0  0
  193.5470  173.8140  136.9570 C   0  0  0  0  0  3  0  0  0  0  0  0
  194.0330  175.8900  138.5420 N   0  0  0  0  0  1  0  0  0  0  0  0
  192.7500  175.9280  137.8610 C   0  0  0  0  0  2  0  0  0  0  0  0
  186.8400  173.8220  135.3730 O   0  0  0  0  0  0  0  0  0  0  0  0
  185.6240  174.1860  135.9640 C   0  0  0  0  0  2  0  0  0  0  0  0
  184.7730  172.9840  137.9180 C   0  0  0  0  0  2  0  0  0  0  0  0
  184.9950  172.9870  136.5960 C   0  0  0  0  0  0  0  0  0  0  0  0
  184.1900  171.7430  135.5510 S   0  0  0  0  0  0  0  0  0  0  0  0
  182.6230  172.6620  135.3310 C   0  0  0  0  0  2  0  0  0  0  0  0
  181.4520  171.8420  135.8610 C   0  0  0  0  0  2  0  0  0  0  0  0
  180.9200  172.4780  137.1470 C   0  0  0  0  0  2  0  0  0  0  0  0
  181.2490  173.9590  137.1740 C   0  0  0  0  0  2  0  0  0  0  0  0
  180.5750  174.6180  138.3660 C   0  0  0  0  0  2  0  0  0  0  0  0
  180.4120  176.5270  136.8000 C   0  0  0  0  0  1  0  0  0  0  0  0
  179.7000  175.7750  137.9030 C   0  0  0  0  0  2  0  0  0  0  0  0
  186.3750  178.2890  141.3670 C   0  0  1  0  0  3  0  0  0  0  0  0
  189.6080  176.9560  145.4260 C   0  0  1  0  0  3  0  0  0  0  0  0
  189.7480  178.5260  143.3140 C   0  0  0  0  0  2  0  0  0  0  0  0
  191.5670  176.9900  143.9220 C   0  0  0  0  0  2  0  0  0  0  0  0
  188.2220  177.5650  145.5270 C   0  0  0  0  0  2  0  0  0  0  0  0
  187.5050  177.4980  144.1800 C   0  0  0  0  0  2  0  0  0  0  0  0
  187.7640  178.5450  141.9070 C   0  0  0  0  0  3  0  0  0  0  0  0
  190.3870  177.5310  144.2480 C   0  0  0  0  0  0  0  0  0  0  0  0
  188.3060  178.1750  143.0870 C   0  0  0  0  0  0  0  0  0  0  0  0
  191.0510  175.9620  147.1210 O   0  0  0  0  0  1  0  0  0  0  0  0
  189.3650  177.3620  147.8050 O   0  0  0  0  0  1  0  0  0  0  0  0
  190.3040  177.1000  146.7990 C   0  0  0  0  0  3  0  0  0  0  0  0
  185.3250  178.9430  142.1640 N   0  0  0  0  0  2  0  0  0  0  0  0
  184.5460  177.9640  142.6850 O   0  0  0  0  0  1  0  0  0  0  0  0
  1  5  1  0  0  0  0
  2 10  1  6  0  0  0
  2  7  1  0  0  0  0
  3  6  1  0  0  0  0
  3  2  1  0  0  0  0
  4  1  2  0  0  0  0
  6  9  1  0  0  0  0
  7 43  1  1  0  0  0
  8  4  1  0  0  0  0
  8  6  2  0  0  0  0
  9  5  2  0  0  0  0
  9  7  1  0  0  0  0
 10 16  1  0  0  0  0
 12 16  1  0  0  0  0
 12 17  1  0  0  0  0
 13 11  2  0  0  0  0
 14 13  1  0  0  0  0
 15 11  1  0  0  0  0
 16 15  2  0  0  0  0
 17 14  1  0  0  0  0
 18 20  1  6  0  0  0
 18 21  1  0  0  0  0
 18  8  1  0  0  0  0
 19 20  1  0  0  0  0
 21 31  1  6  0  0  0
 23 21  1  0  0  0  0
 23 24  1  0  0  0  0
 24 22  2  0  0  0  0
 25 24  1  0  0  0  0
 25 27  1  0  0  0  0
 26 28  1  0  0  0  0
 27 28  2  0  0  0  0
 27 30  1  0  0  0  0
 30 29  1  0  0  0  0
 31 32  1  0  0  0  0
 32 34  1  0  0  0  0
 34 33  2  0  0  0  0
 35 34  1  0  0  0  0
 36 35  1  0  0  0  0
 36 37  1  0  0  0  0
 37 38  1  0  0  0  0
 38 39  1  0  0  0  0
 39 40  1  0  0  0  0
 41 42  1  0  0  0  0
 42 40  1  0  0  0  0
 43 49  1  1  0  0  0
 43 55  1  0  0  0  0
 44 47  1  0  0  0  0
 44 54  1  1  0  0  0
 45 50  1  0  0  0  0
 46 50  2  0  0  0  0
 48 47  1  0  0  0  0
 49 51  2  0  0  0  0
 50 44  1  0  0  0  0
 51 45  1  0  0  0  0
 51 48  1  0  0  0  0
 54 52  1  0  0  0  0
 54 53  1  0  0  0  0
 55 56  1  0  0  0  0
M  END
>  <MODEL>
2

>  <REMARK>
 VINA RESULT:      -6.2      2.898      8.195
  Name = 
  23 active torsions:
  status: ('A' for Active; 'I' for Inactive)
    1  A    between atoms: N_4  and  C_26
    2  A    between atoms: C_5  and  C_25
    3  A    between atoms: C_5  and  C_51
    4  A    between atoms: C_6  and  C_55
    5  A    between atoms: C_7  and  C_53
    6  A    between atoms: C_14  and  O_23
    7  A    between atoms: C_14  and  C_34
    8  A    between atoms: C_14  and  N_49
    9  A    between atoms: C_21  and  C_35
   10  A    between atoms: O_23  and  C_45
   11  A    between atoms: C_25  and  C_48
   12  A    between atoms: C_26  and  C_31
   13  A    between atoms: C_26  and  C_40
   14  A    between atoms: S_28  and  C_42
   15  A    between atoms: S_28  and  C_48
   16  A    between atoms: C_33  and  C_44
   17  A    between atoms: C_33  and  C_50
   18  A    between atoms: C_34  and  O_46
   19  A    between atoms: C_34  and  C_52
   20  A    between atoms: C_35  and  C_51
   21  A    between atoms: C_36  and  C_53
   22  A    between atoms: C_42  and  C_45
   23  A    between atoms: C_50  and  C_56
                            x       y       z     vdW  Elec       q    Type
                         _______ _______ _______ _____ _____    ______ ____

>  <TORSDO>
F 23

$$$$
=
 OpenBabel11062416553D

 56 59  0  0  1  0  0  0  0  0999 V2000
  186.1770  177.6050  134.9630 C   0  0  0  0  0  3  0  0  0  0  0  0
  189.2550  176.5370  138.3440 C   0  0  1  0  0  3  0  0  0  0  0  0
  187.9480  176.9880  138.6570 O   0  0  0  0  0  0  0  0  0  0  0  0
  185.3810  177.8300  136.0990 C   0  0  0  0  0  3  0  0  0  0  0  0
  187.4920  177.1370  135.1020 C   0  0  0  0  0  3  0  0  0  0  0  0
  187.2250  177.1900  137.4970 C   0  0  0  0  0  0  0  0  0  0  0  0
  189.3520  176.4690  136.8010 C   0  0  2  0  0  3  0  0  0  0  0  0
  185.8970  177.6150  137.3920 C   0  0  0  0  0  0  0  0  0  0  0  0
  187.9790  176.8970  136.3910 C   0  0  0  0  0  0  0  0  0  0  0  0
  190.2990  177.4760  138.9200 C   0  0  0  0  0  2  0  0  0  0  0  0
  191.8980  177.3420  142.4490 C   0  0  0  0  0  3  0  0  0  0  0  0
  189.0730  177.2190  141.2010 C   0  0  0  0  0  2  0  0  0  0  0  0
  191.0970  177.4600  143.5180 C   0  0  0  0  0  3  0  0  0  0  0  0
  189.5930  177.5730  143.5630 C   0  0  0  0  0  2  0  0  0  0  0  0
  191.5530  177.3490  141.0090 C   0  0  0  0  0  3  0  0  0  0  0  0
  190.3450  177.3730  140.4270 C   0  0  0  0  0  0  0  0  0  0  0  0
  188.9890  178.2220  142.3350 C   0  0  0  0  0  2  0  0  0  0  0  0
  185.0060  177.8940  138.5870 C   0  0  1  0  0  3  0  0  0  0  0  0
  185.7030  178.9700  140.4890 C   0  0  0  0  0  1  0  0  0  0  0  0
  185.1780  179.1600  139.2010 O   0  0  0  0  0  0  0  0  0  0  0  0
  183.5760  177.2890  138.6080 C   0  0  2  0  0  3  0  0  0  0  0  0
  181.4860  175.2970  137.6850 O   0  0  0  0  0  0  0  0  0  0  0  0
  183.2480  176.7930  137.2780 N   0  0  0  0  0  2  0  0  0  0  0  0
  182.5070  175.5920  137.0150 C   0  0  0  0  0  0  0  0  0  0  0  0
  182.9600  174.6860  135.9240 C   0  0  0  0  0  2  0  0  0  0  0  0
  182.2030  171.9500  135.7390 O   0  0  0  0  0  1  0  0  0  0  0  0
  183.8020  173.5670  136.4420 C   0  0  0  0  0  0  0  0  0  0  0  0
  183.4010  172.2990  136.3540 C   0  0  0  0  0  3  0  0  0  0  0  0
  185.7970  172.6260  137.4130 N   0  0  0  0  0  1  0  0  0  0  0  0
  185.1040  173.8660  137.1070 C   0  0  0  0  0  2  0  0  0  0  0  0
  182.6260  178.2130  139.0490 O   0  0  0  0  0  0  0  0  0  0  0  0
  182.2470  177.7700  140.3220 C   0  0  0  0  0  2  0  0  0  0  0  0
  180.7940  179.7390  140.2800 C   0  0  0  0  0  2  0  0  0  0  0  0
  181.4680  178.8410  141.0140 C   0  0  0  0  0  0  0  0  0  0  0  0
  181.1170  178.6910  142.7860 S   0  0  0  0  0  0  0  0  0  0  0  0
  182.6080  179.5870  143.3550 C   0  0  0  0  0  2  0  0  0  0  0  0
  183.7290  178.6020  143.6650 C   0  0  0  0  0  2  0  0  0  0  0  0
  184.1650  178.7620  145.1230 C   0  0  0  0  0  2  0  0  0  0  0  0
  185.6760  178.6620  145.2320 C   0  0  0  0  0  2  0  0  0  0  0  0
  186.0540  177.8430  146.4550 C   0  0  0  0  0  2  0  0  0  0  0  0
  187.9130  178.1910  148.0500 C   0  0  0  0  0  1  0  0  0  0  0  0
  187.5670  177.8190  146.6260 C   0  0  0  0  0  2  0  0  0  0  0  0
  189.7150  175.0530  136.2900 C   0  0  1  0  0  3  0  0  0  0  0  0
  194.9200  174.1260  137.1520 C   0  0  1  0  0  3  0  0  0  0  0  0
  193.4470  175.0110  135.1540 C   0  0  0  0  0  2  0  0  0  0  0  0
  195.1940  173.3120  134.8360 C   0  0  0  0  0  2  0  0  0  0  0  0
  194.0130  175.0420  137.9530 C   0  0  0  0  0  2  0  0  0  0  0  0
  192.5480  174.7900  137.6000 C   0  0  0  0  0  2  0  0  0  0  0  0
  191.0580  175.1160  135.5990 C   0  0  0  0  0  3  0  0  0  0  0  0
  194.5940  174.1770  135.6630 C   0  0  0  0  0  0  0  0  0  0  0  0
  192.2950  174.9540  136.1160 C   0  0  0  0  0  0  0  0  0  0  0  0
  196.9180  175.4290  136.6510 O   0  0  0  0  0  1  0  0  0  0  0  0
  197.1790  173.3060  137.4840 O   0  0  0  0  0  1  0  0  0  0  0  0
  196.3860  174.4610  137.5090 C   0  0  0  0  0  3  0  0  0  0  0  0
  189.6840  174.0720  137.3870 N   0  0  0  0  0  2  0  0  0  0  0  0
  188.9270  173.0280  136.9720 O   0  0  0  0  0  1  0  0  0  0  0  0
  1  5  2  0  0  0  0
  1  4  1  0  0  0  0
  2  3  1  0  0  0  0
  2 10  1  6  0  0  0
  4  8  2  0  0  0  0
  5  9  1  0  0  0  0
  6  3  1  0  0  0  0
  7 43  1  1  0  0  0
  7  2  1  0  0  0  0
  8  6  1  0  0  0  0
  8 18  1  0  0  0  0
  9  7  1  0  0  0  0
  9  6  2  0  0  0  0
 10 16  1  0  0  0  0
 11 13  2  0  0  0  0
 12 17  1  0  0  0  0
 13 14  1  0  0  0  0
 15 11  1  0  0  0  0
 16 15  2  0  0  0  0
 16 12  1  0  0  0  0
 17 14  1  0  0  0  0
 18 21  1  0  0  0  0
 18 20  1  6  0  0  0
 20 19  1  0  0  0  0
 21 23  1  6  0  0  0
 21 31  1  0  0  0  0
 24 23  1  0  0  0  0
 24 22  2  0  0  0  0
 25 27  1  0  0  0  0
 25 24  1  0  0  0  0
 26 28  1  0  0  0  0
 27 30  1  0  0  0  0
 28 27  2  0  0  0  0
 30 29  1  0  0  0  0
 31 32  1  0  0  0  0
 32 34  1  0  0  0  0
 33 34  2  0  0  0  0
 34 35  1  0  0  0  0
 35 36  1  0  0  0  0
 36 37  1  0  0  0  0
 37 38  1  0  0  0  0
 38 39  1  0  0  0  0
 39 40  1  0  0  0  0
 40 42  1  0  0  0  0
 42 41  1  0  0  0  0
 43 49  1  1  0  0  0
 43 55  1  0  0  0  0
 44 54  1  6  0  0  0
 44 47  1  0  0  0  0
 45 50  1  0  0  0  0
 45 51  1  0  0  0  0
 46 50  2  0  0  0  0
 48 47  1  0  0  0  0
 49 51  2  0  0  0  0
 50 44  1  0  0  0  0
 51 48  1  0  0  0  0
 52 54  1  0  0  0  0
 53 54  1  0  0  0  0
 56 55  1  0  0  0  0
M  END
>  <MODEL>
3

>  <REMARK>
 VINA RESULT:      -6.1      1.621      2.533
  Name = 
  23 active torsions:
  status: ('A' for Active; 'I' for Inactive)
    1  A    between atoms: N_4  and  C_26
    2  A    between atoms: C_5  and  C_25
    3  A    between atoms: C_5  and  C_51
    4  A    between atoms: C_6  and  C_55
    5  A    between atoms: C_7  and  C_53
    6  A    between atoms: C_14  and  O_23
    7  A    between atoms: C_14  and  C_34
    8  A    between atoms: C_14  and  N_49
    9  A    between atoms: C_21  and  C_35
   10  A    between atoms: O_23  and  C_45
   11  A    between atoms: C_25  and  C_48
   12  A    between atoms: C_26  and  C_31
   13  A    between atoms: C_26  and  C_40
   14  A    between atoms: S_28  and  C_42
   15  A    between atoms: S_28  and  C_48
   16  A    between atoms: C_33  and  C_44
   17  A    between atoms: C_33  and  C_50
   18  A    between atoms: C_34  and  O_46
   19  A    between atoms: C_34  and  C_52
   20  A    between atoms: C_35  and  C_51
   21  A    between atoms: C_36  and  C_53
   22  A    between atoms: C_42  and  C_45
   23  A    between atoms: C_50  and  C_56
                            x       y       z     vdW  Elec       q    Type
                         _______ _______ _______ _____ _____    ______ ____

>  <TORSDO>
F 23

$$$$
=
 OpenBabel11062416553D

 56 59  0  0  1  0  0  0  0  0999 V2000
  186.9370  177.7750  137.1130 C   0  0  0  0  0  3  0  0  0  0  0  0
  190.5200  174.7410  137.1360 C   0  0  1  0  0  3  0  0  0  0  0  0
  190.2900  175.6120  138.2280 O   0  0  0  0  0  0  0  0  0  0  0  0
  187.4750  178.0390  138.3850 C   0  0  0  0  0  3  0  0  0  0  0  0
  187.4980  176.7770  136.3020 C   0  0  0  0  0  3  0  0  0  0  0  0
  189.1560  176.3690  138.0020 C   0  0  0  0  0  0  0  0  0  0  0  0
  189.3990  175.0060  136.1020 C   0  0  2  0  0  3  0  0  0  0  0  0
  188.5960  177.3270  138.8540 C   0  0  0  0  0  0  0  0  0  0  0  0
  188.5900  176.0570  136.7950 C   0  0  0  0  0  0  0  0  0  0  0  0
  191.8910  174.9850  136.5330 C   0  0  0  0  0  2  0  0  0  0  0  0
  193.2510  171.4000  135.9630 C   0  0  0  0  0  3  0  0  0  0  0  0
  193.8940  173.8450  137.7420 C   0  0  0  0  0  2  0  0  0  0  0  0
  194.4400  171.0760  136.4940 C   0  0  0  0  0  3  0  0  0  0  0  0
  195.3380  171.9080  137.3750 C   0  0  0  0  0  2  0  0  0  0  0  0
  192.5060  172.6770  136.0350 C   0  0  0  0  0  3  0  0  0  0  0  0
  192.7900  173.7870  136.7320 C   0  0  0  0  0  0  0  0  0  0  0  0
  195.2150  173.3990  137.1450 C   0  0  0  0  0  2  0  0  0  0  0  0
  189.1520  177.6640  140.2230 C   0  0  1  0  0  3  0  0  0  0  0  0
  191.1870  177.0320  141.0730 C   0  0  0  0  0  1  0  0  0  0  0  0
  190.5330  177.9770  140.2670 O   0  0  0  0  0  0  0  0  0  0  0  0
  188.2330  178.3890  141.2440 C   0  0  2  0  0  3  0  0  0  0  0  0
  188.3130  175.9300  143.0140 O   0  0  0  0  0  0  0  0  0  0  0  0
  188.7630  178.1940  142.5860 N   0  0  0  0  0  2  0  0  0  0  0  0
  188.4110  177.1040  143.4520 C   0  0  0  0  0  0  0  0  0  0  0  0
  188.1630  177.3760  144.8950 C   0  0  0  0  0  2  0  0  0  0  0  0
  188.1140  176.9640  147.7080 O   0  0  0  0  0  1  0  0  0  0  0  0
  189.3960  177.1920  145.7170 C   0  0  0  0  0  0  0  0  0  0  0  0
  189.3310  177.0220  147.0370 C   0  0  0  0  0  3  0  0  0  0  0  0
  191.7750  176.9850  146.0470 N   0  0  0  0  0  1  0  0  0  0  0  0
  190.7370  177.2350  145.0610 C   0  0  0  0  0  2  0  0  0  0  0  0
  186.9100  177.9520  141.1560 O   0  0  0  0  0  0  0  0  0  0  0  0
  186.1400  179.0030  141.6670 C   0  0  0  0  0  2  0  0  0  0  0  0
  183.8000  178.6790  142.3040 C   0  0  0  0  0  2  0  0  0  0  0  0
  184.7020  178.7870  141.3190 C   0  0  0  0  0  0  0  0  0  0  0  0
  184.1410  179.0670  139.6180 S   0  0  0  0  0  0  0  0  0  0  0  0
  182.3620  178.7980  139.9550 C   0  0  0  0  0  2  0  0  0  0  0  0
  181.6300  178.4330  138.6690 C   0  0  0  0  0  2  0  0  0  0  0  0
  181.4980  179.6750  137.7840 C   0  0  0  0  0  2  0  0  0  0  0  0
  180.8800  180.8160  138.5710 C   0  0  0  0  0  2  0  0  0  0  0  0
  181.5930  182.1170  138.2440 C   0  0  0  0  0  2  0  0  0  0  0  0
  181.4080  184.2900  137.0760 C   0  0  0  0  0  1  0  0  0  0  0  0
  180.7900  182.9180  137.2300 C   0  0  0  0  0  2  0  0  0  0  0  0
  188.5750  173.7350  135.7800 C   0  0  1  0  0  3  0  0  0  0  0  0
  183.3700  173.2980  136.9710 C   0  0  1  0  0  3  0  0  0  0  0  0
  184.8010  174.4170  135.0610 C   0  0  0  0  0  2  0  0  0  0  0  0
  182.9600  175.6010  136.1780 C   0  0  0  0  0  2  0  0  0  0  0  0
  184.3540  172.1630  136.7560 C   0  0  0  0  0  2  0  0  0  0  0  0
  185.7890  172.6870  136.7560 C   0  0  0  0  0  2  0  0  0  0  0  0
  187.2100  174.1540  135.2860 C   0  0  0  0  0  3  0  0  0  0  0  0
  183.6360  174.4570  136.0160 C   0  0  0  0  0  0  0  0  0  0  0  0
  185.9880  173.7690  135.7150 C   0  0  0  0  0  0  0  0  0  0  0  0
  181.4510  172.6900  135.5960 O   0  0  0  0  0  1  0  0  0  0  0  0
  181.0710  173.4490  137.7290 O   0  0  0  0  0  1  0  0  0  0  0  0
  181.9380  172.7190  136.9070 C   0  0  0  0  0  3  0  0  0  0  0  0
  189.2870  172.8730  134.8230 N   0  0  0  0  0  2  0  0  0  0  0  0
  189.0560  171.5890  135.1870 O   0  0  0  0  0  1  0  0  0  0  0  0
  1  4  1  0  0  0  0
  2 10  1  6  0  0  0
  2  3  1  0  0  0  0
  4  8  2  0  0  0  0
  5  9  1  0  0  0  0
  5  1  2  0  0  0  0
  6  3  1  0  0  0  0
  6  8  1  0  0  0  0
  7 43  1  1  0  0  0
  7  9  1  0  0  0  0
  7  2  1  0  0  0  0
  8 18  1  0  0  0  0
  9  6  2  0  0  0  0
 10 16  1  0  0  0  0
 11 15  1  0  0  0  0
 11 13  2  0  0  0  0
 13 14  1  0  0  0  0
 15 16  2  0  0  0  0
 16 12  1  0  0  0  0
 17 14  1  0  0  0  0
 17 12  1  0  0  0  0
 18 20  1  6  0  0  0
 18 21  1  0  0  0  0
 20 19  1  0  0  0  0
 21 31  1  1  0  0  0
 21 23  1  0  0  0  0
 22 24  2  0  0  0  0
 23 24  1  0  0  0  0
 24 25  1  0  0  0  0
 25 27  1  0  0  0  0
 27 28  2  0  0  0  0
 28 26  1  0  0  0  0
 30 27  1  0  0  0  0
 30 29  1  0  0  0  0
 31 32  1  0  0  0  0
 34 32  1  0  0  0  0
 34 33  2  0  0  0  0
 35 36  1  0  0  0  0
 35 34  1  0  0  0  0
 37 36  1  0  0  0  0
 38 39  1  0  0  0  0
 38 37  1  0  0  0  0
 40 39  1  0  0  0  0
 41 42  1  0  0  0  0
 42 40  1  0  0  0  0
 43 49  1  6  0  0  0
 44 54  1  6  0  0  0
 45 51  1  0  0  0  0
 45 50  1  0  0  0  0
 47 44  1  0  0  0  0
 48 47  1  0  0  0  0
 49 51  2  0  0  0  0
 50 46  2  0  0  0  0
 50 44  1  0  0  0  0
 51 48  1  0  0  0  0
 52 54  1  0  0  0  0
 54 53  1  0  0  0  0
 55 56  1  0  0  0  0
 55 43  1  0  0  0  0
M  END
>  <MODEL>
4

>  <REMARK>
 VINA RESULT:      -5.9      2.684      8.247
  Name = 
  23 active torsions:
  status: ('A' for Active; 'I' for Inactive)
    1  A    between atoms: N_4  and  C_26
    2  A    between atoms: C_5  and  C_25
    3  A    between atoms: C_5  and  C_51
    4  A    between atoms: C_6  and  C_55
    5  A    between atoms: C_7  and  C_53
    6  A    between atoms: C_14  and  O_23
    7  A    between atoms: C_14  and  C_34
    8  A    between atoms: C_14  and  N_49
    9  A    between atoms: C_21  and  C_35
   10  A    between atoms: O_23  and  C_45
   11  A    between atoms: C_25  and  C_48
   12  A    between atoms: C_26  and  C_31
   13  A    between atoms: C_26  and  C_40
   14  A    between atoms: S_28  and  C_42
   15  A    between atoms: S_28  and  C_48
   16  A    between atoms: C_33  and  C_44
   17  A    between atoms: C_33  and  C_50
   18  A    between atoms: C_34  and  O_46
   19  A    between atoms: C_34  and  C_52
   20  A    between atoms: C_35  and  C_51
   21  A    between atoms: C_36  and  C_53
   22  A    between atoms: C_42  and  C_45
   23  A    between atoms: C_50  and  C_56
                            x       y       z     vdW  Elec       q    Type
                         _______ _______ _______ _____ _____    ______ ____

>  <TORSDO>
F 23

$$$$
=
 OpenBabel11062416553D

 56 59  0  0  1  0  0  0  0  0999 V2000
  190.2310  177.3670  138.9710 C   0  0  0  0  0  3  0  0  0  0  0  0
  187.8660  174.0860  136.5860 C   0  0  1  0  0  3  0  0  0  0  0  0
  187.2640  175.3230  136.9260 O   0  0  0  0  0  0  0  0  0  0  0  0
  189.0130  178.0390  138.7710 C   0  0  0  0  0  3  0  0  0  0  0  0
  190.4250  176.0820  138.4410 C   0  0  0  0  0  3  0  0  0  0  0  0
  188.1740  176.1300  137.5820 C   0  0  0  0  0  0  0  0  0  0  0  0
  189.3210  174.1320  137.1110 C   0  0  2  0  0  3  0  0  0  0  0  0
  187.9620  177.4280  138.0590 C   0  0  0  0  0  0  0  0  0  0  0  0
  189.3850  175.5020  137.7100 C   0  0  0  0  0  0  0  0  0  0  0  0
  187.0970  172.9290  137.1970 C   0  0  0  0  0  2  0  0  0  0  0  0
  184.9310  170.9340  134.6760 C   0  0  0  0  0  3  0  0  0  0  0  0
  184.6680  173.4640  136.4330 C   0  0  0  0  0  2  0  0  0  0  0  0
  183.6210  171.2140  134.5970 C   0  0  0  0  0  3  0  0  0  0  0  0
  182.8390  172.2810  135.3220 C   0  0  0  0  0  2  0  0  0  0  0  0
  185.9740  171.5420  135.5330 C   0  0  0  0  0  3  0  0  0  0  0  0
  185.8810  172.5890  136.3660 C   0  0  0  0  0  0  0  0  0  0  0  0
  183.4110  172.6490  136.6750 C   0  0  0  0  0  2  0  0  0  0  0  0
  186.6600  178.1860  137.8890 C   0  0  1  0  0  3  0  0  0  0  0  0
  187.2490  178.8990  135.7890 C   0  0  0  0  0  1  0  0  0  0  0  0
  186.2100  178.3430  136.5540 O   0  0  0  0  0  0  0  0  0  0  0  0
  185.5720  178.0540  138.9890 C   0  0  2  0  0  3  0  0  0  0  0  0
  183.4650  175.8750  138.9740 O   0  0  0  0  0  0  0  0  0  0  0  0
  184.2610  177.9950  138.3570 N   0  0  0  0  0  2  0  0  0  0  0  0
  183.5270  176.7860  138.1110 C   0  0  0  0  0  0  0  0  0  0  0  0
  182.8250  176.6160  136.8090 C   0  0  0  0  0  2  0  0  0  0  0  0
  181.8750  178.2400  134.6770 O   0  0  0  0  0  1  0  0  0  0  0  0
  181.4810  177.2660  136.8110 C   0  0  0  0  0  0  0  0  0  0  0  0
  181.0810  178.0370  135.8000 C   0  0  0  0  0  3  0  0  0  0  0  0
  179.2200  176.8200  137.5180 N   0  0  0  0  0  1  0  0  0  0  0  0
  180.5720  177.0840  137.9810 C   0  0  0  0  0  2  0  0  0  0  0  0
  185.6390  179.0960  139.9150 O   0  0  0  0  0  0  0  0  0  0  0  0
  185.8010  178.4730  141.1590 C   0  0  0  0  0  2  0  0  0  0  0  0
  183.4150  178.7560  141.6230 C   0  0  0  0  0  2  0  0  0  0  0  0
  184.6770  178.8610  142.0640 C   0  0  0  0  0  0  0  0  0  0  0  0
  184.9900  179.0800  143.8360 S   0  0  0  0  0  0  0  0  0  0  0  0
  185.9990  177.5670  144.0430 C   0  0  0  0  0  2  0  0  0  0  0  0
  186.4710  177.4410  145.4870 C   0  0  0  0  0  2  0  0  0  0  0  0
  187.7780  178.2150  145.6690 C   0  0  0  0  0  2  0  0  0  0  0  0
  188.9320  177.2520  145.8850 C   0  0  0  0  0  2  0  0  0  0  0  0
  189.9700  177.4330  144.7910 C   0  0  0  0  0  2  0  0  0  0  0  0
  190.3700  175.6310  143.1440 C   0  0  0  0  0  1  0  0  0  0  0  0
  189.4820  176.8050  143.4930 C   0  0  0  0  0  2  0  0  0  0  0  0
  190.3650  173.9220  135.9880 C   0  0  1  0  0  3  0  0  0  0  0  0
  195.5970  174.8800  136.6280 C   0  0  1  0  0  3  0  0  0  0  0  0
  193.9220  172.9460  137.2610 C   0  0  0  0  0  2  0  0  0  0  0  0
  195.5470  173.8440  138.8700 C   0  0  0  0  0  2  0  0  0  0  0  0
  194.8330  174.8300  135.3180 C   0  0  0  0  0  2  0  0  0  0  0  0
  193.3270  174.8520  135.5720 C   0  0  0  0  0  2  0  0  0  0  0  0
  191.6130  173.3190  136.5920 C   0  0  0  0  0  3  0  0  0  0  0  0
  195.0900  173.8310  137.6120 C   0  0  0  0  0  0  0  0  0  0  0  0
  192.8980  173.7210  136.4830 C   0  0  0  0  0  0  0  0  0  0  0  0
  197.7440  176.0290  136.5180 O   0  0  0  0  0  1  0  0  0  0  0  0
  197.3180  174.3600  135.0010 O   0  0  0  0  0  1  0  0  0  0  0  0
  197.1080  174.8000  136.3140 C   0  0  0  0  0  3  0  0  0  0  0  0
  189.8090  173.1050  134.8970 N   0  0  0  0  0  2  0  0  0  0  0  0
  190.0260  171.8060  135.2150 O   0  0  0  0  0  1  0  0  0  0  0  0
  2  3  1  0  0  0  0
  2  7  1  0  0  0  0
  2 10  1  1  0  0  0
  3  6  1  0  0  0  0
  4  1  1  0  0  0  0
  5  1  2  0  0  0  0
  6  9  2  0  0  0  0
  6  8  1  0  0  0  0
  7 43  1  6  0  0  0
  7  9  1  0  0  0  0
  8  4  2  0  0  0  0
  9  5  1  0  0  0  0
 11 15  1  0  0  0  0
 12 17  1  0  0  0  0
 13 11  2  0  0  0  0
 13 14  1  0  0  0  0
 14 17  1  0  0  0  0
 15 16  2  0  0  0  0
 16 12  1  0  0  0  0
 16 10  1  0  0  0  0
 18 20  1  6  0  0  0
 18  8  1  0  0  0  0
 18 21  1  0  0  0  0
 19 20  1  0  0  0  0
 21 23  1  6  0  0  0
 21 31  1  0  0  0  0
 24 23  1  0  0  0  0
 24 22  2  0  0  0  0
 25 27  1  0  0  0  0
 25 24  1  0  0  0  0
 26 28  1  0  0  0  0
 27 30  1  0  0  0  0
 28 27  2  0  0  0  0
 29 30  1  0  0  0  0
 31 32  1  0  0  0  0
 32 34  1  0  0  0  0
 33 34  2  0  0  0  0
 34 35  1  0  0  0  0
 35 36  1  0  0  0  0
 36 37  1  0  0  0  0
 37 38  1  0  0  0  0
 38 39  1  0  0  0  0
 40 39  1  0  0  0  0
 41 42  1  0  0  0  0
 42 40  1  0  0  0  0
 43 49  1  1  0  0  0
 44 54  1  6  0  0  0
 44 50  1  0  0  0  0
 45 50  1  0  0  0  0
 47 48  1  0  0  0  0
 47 44  1  0  0  0  0
 48 51  1  0  0  0  0
 50 46  2  0  0  0  0
 51 49  2  0  0  0  0
 51 45  1  0  0  0  0
 53 54  1  0  0  0  0
 54 52  1  0  0  0  0
 55 56  1  0  0  0  0
 55 43  1  0  0  0  0
M  END
>  <MODEL>
5

>  <REMARK>
 VINA RESULT:      -5.7      2.219      5.537
  Name = 
  23 active torsions:
  status: ('A' for Active; 'I' for Inactive)
    1  A    between atoms: N_4  and  C_26
    2  A    between atoms: C_5  and  C_25
    3  A    between atoms: C_5  and  C_51
    4  A    between atoms: C_6  and  C_55
    5  A    between atoms: C_7  and  C_53
    6  A    between atoms: C_14  and  O_23
    7  A    between atoms: C_14  and  C_34
    8  A    between atoms: C_14  and  N_49
    9  A    between atoms: C_21  and  C_35
   10  A    between atoms: O_23  and  C_45
   11  A    between atoms: C_25  and  C_48
   12  A    between atoms: C_26  and  C_31
   13  A    between atoms: C_26  and  C_40
   14  A    between atoms: S_28  and  C_42
   15  A    between atoms: S_28  and  C_48
   16  A    between atoms: C_33  and  C_44
   17  A    between atoms: C_33  and  C_50
   18  A    between atoms: C_34  and  O_46
   19  A    between atoms: C_34  and  C_52
   20  A    between atoms: C_35  and  C_51
   21  A    between atoms: C_36  and  C_53
   22  A    between atoms: C_42  and  C_45
   23  A    between atoms: C_50  and  C_56
                            x       y       z     vdW  Elec       q    Type
                         _______ _______ _______ _____ _____    ______ ____

>  <TORSDO>
F 23

$$$$
=
 OpenBabel11062416553D

 56 59  0  0  1  0  0  0  0  0999 V2000
  187.4670  178.1840  138.4290 C   0  0  0  0  0  3  0  0  0  0  0  0
  190.8820  175.0850  137.5450 C   0  0  1  0  0  3  0  0  0  0  0  0
  190.8050  175.7560  138.7900 O   0  0  0  0  0  0  0  0  0  0  0  0
  188.1410  178.2030  139.6630 C   0  0  0  0  0  3  0  0  0  0  0  0
  187.8950  177.3290  137.4030 C   0  0  0  0  0  3  0  0  0  0  0  0
  189.6920  176.5760  138.8200 C   0  0  0  0  0  0  0  0  0  0  0  0
  189.6770  175.5630  136.6990 C   0  0  2  0  0  3  0  0  0  0  0  0
  189.2670  177.3850  139.8790 C   0  0  0  0  0  0  0  0  0  0  0  0
  188.9940  176.4990  137.6440 C   0  0  0  0  0  0  0  0  0  0  0  0
  192.1960  175.3890  136.8510 C   0  0  0  0  0  2  0  0  0  0  0  0
  193.7460  171.8810  136.2870 C   0  0  0  0  0  3  0  0  0  0  0  0
  194.3240  174.4030  137.9780 C   0  0  0  0  0  2  0  0  0  0  0  0
  194.9780  171.6430  136.7620 C   0  0  0  0  0  3  0  0  0  0  0  0
  195.8660  172.5490  137.5780 C   0  0  0  0  0  2  0  0  0  0  0  0
  192.9270  173.1120  136.3700 C   0  0  0  0  0  3  0  0  0  0  0  0
  193.1770  174.2530  137.0280 C   0  0  0  0  0  0  0  0  0  0  0  0
  195.6390  174.0240  137.3230 C   0  0  0  0  0  2  0  0  0  0  0  0
  189.9730  177.4570  141.2190 C   0  0  1  0  0  3  0  0  0  0  0  0
  191.9980  176.7320  142.0180 C   0  0  0  0  0  1  0  0  0  0  0  0
  191.3740  177.6590  141.1660 O   0  0  0  0  0  0  0  0  0  0  0  0
  189.2170  178.0730  142.4280 C   0  0  2  0  0  3  0  0  0  0  0  0
  189.7400  178.9520  145.2810 O   0  0  0  0  0  0  0  0  0  0  0  0
  189.5220  177.3020  143.6250 N   0  0  0  0  0  2  0  0  0  0  0  0
  190.1120  177.8450  144.8160 C   0  0  0  0  0  0  0  0  0  0  0  0
  191.1800  177.0750  145.5120 C   0  0  0  0  0  2  0  0  0  0  0  0
  192.9350  175.8650  147.3940 O   0  0  0  0  0  1  0  0  0  0  0  0
  190.7340  176.5890  146.8520 C   0  0  0  0  0  0  0  0  0  0  0  0
  191.5850  176.0090  147.6980 C   0  0  0  0  0  3  0  0  0  0  0  0
  189.1600  177.7570  148.2540 N   0  0  0  0  0  1  0  0  0  0  0  0
  189.3010  176.7180  147.2480 C   0  0  0  0  0  2  0  0  0  0  0  0
  187.8400  178.1340  142.2050 O   0  0  0  0  0  0  0  0  0  0  0  0
  187.2750  177.2820  143.1610 C   0  0  0  0  0  2  0  0  0  0  0  0
  186.1450  178.1580  145.1470 C   0  0  0  0  0  2  0  0  0  0  0  0
  186.1200  177.9640  143.8210 C   0  0  0  0  0  0  0  0  0  0  0  0
  184.9120  178.8590  142.8090 S   0  0  0  0  0  0  0  0  0  0  0  0
  183.8140  179.3330  144.1940 C   0  0  0  0  0  2  0  0  0  0  0  0
  182.4670  178.6320  144.0630 C   0  0  0  0  0  2  0  0  0  0  0  0
  181.5320  179.4740  143.1920 C   0  0  0  0  0  2  0  0  0  0  0  0
  180.2890  178.6790  142.8360 C   0  0  0  0  0  2  0  0  0  0  0  0
  179.6120  179.2910  141.6210 C   0  0  0  0  0  2  0  0  0  0  0  0
  179.6670  176.8710  141.1110 C   0  0  0  0  0  1  0  0  0  0  0  0
  179.4590  178.2480  140.5220 C   0  0  0  0  0  2  0  0  0  0  0  0
  188.7640  174.3950  136.2510 C   0  0  1  0  0  3  0  0  0  0  0  0
  183.5890  174.6850  137.6060 C   0  0  1  0  0  3  0  0  0  0  0  0
  185.0860  175.5240  135.6050 C   0  0  0  0  0  2  0  0  0  0  0  0
  183.4490  176.9840  136.7130 C   0  0  0  0  0  2  0  0  0  0  0  0
  184.4130  173.4250  137.4210 C   0  0  0  0  0  2  0  0  0  0  0  0
  185.9020  173.7600  137.3550 C   0  0  0  0  0  2  0  0  0  0  0  0
  187.4470  174.9640  135.7750 C   0  0  0  0  0  3  0  0  0  0  0  0
  183.9680  175.7560  136.5890 C   0  0  0  0  0  0  0  0  0  0  0  0
  186.2020  174.7590  136.2570 C   0  0  0  0  0  0  0  0  0  0  0  0
  181.5470  174.3290  136.3240 O   0  0  0  0  0  1  0  0  0  0  0  0
  181.3660  175.1260  138.4690 O   0  0  0  0  0  1  0  0  0  0  0  0
  182.0940  174.2930  137.6110 C   0  0  0  0  0  3  0  0  0  0  0  0
  189.4280  173.5660  135.2320 N   0  0  0  0  0  2  0  0  0  0  0  0
  189.4350  172.2920  135.6910 O   0  0  0  0  0  1  0  0  0  0  0  0
  1  4  1  0  0  0  0
  2 10  1  6  0  0  0
  2  3  1  0  0  0  0
  3  6  1  0  0  0  0
  4  8  2  0  0  0  0
  5  9  1  0  0  0  0
  5  1  2  0  0  0  0
  6  8  1  0  0  0  0
  7 43  1  1  0  0  0
  7  2  1  0  0  0  0
  7  9  1  0  0  0  0
  8 18  1  0  0  0  0
  9  6  2  0  0  0  0
 10 16  1  0  0  0  0
 11 15  1  0  0  0  0
 11 13  2  0  0  0  0
 13 14  1  0  0  0  0
 15 16  2  0  0  0  0
 16 12  1  0  0  0  0
 17 14  1  0  0  0  0
 17 12  1  0  0  0  0
 18 20  1  6  0  0  0
 18 21  1  0  0  0  0
 20 19  1  0  0  0  0
 21 31  1  6  0  0  0
 21 23  1  0  0  0  0
 23 24  1  0  0  0  0
 24 22  2  0  0  0  0
 24 25  1  0  0  0  0
 25 27  1  0  0  0  0
 26 28  1  0  0  0  0
 27 30  1  0  0  0  0
 27 28  2  0  0  0  0
 30 29  1  0  0  0  0
 31 32  1  0  0  0  0
 32 34  1  0  0  0  0
 34 33  2  0  0  0  0
 35 34  1  0  0  0  0
 35 36  1  0  0  0  0
 37 36  1  0  0  0  0
 38 37  1  0  0  0  0
 39 38  1  0  0  0  0
 40 39  1  0  0  0  0
 42 41  1  0  0  0  0
 42 40  1  0  0  0  0
 43 49  1  6  0  0  0
 44 54  1  6  0  0  0
 45 51  1  0  0  0  0
 45 50  1  0  0  0  0
 47 44  1  0  0  0  0
 48 47  1  0  0  0  0
 49 51  2  0  0  0  0
 50 46  2  0  0  0  0
 50 44  1  0  0  0  0
 51 48  1  0  0  0  0
 52 54  1  0  0  0  0
 54 53  1  0  0  0  0
 55 56  1  0  0  0  0
 55 43  1  0  0  0  0
M  END
>  <MODEL>
6

>  <REMARK>
 VINA RESULT:      -5.7      2.949      8.528
  Name = 
  23 active torsions:
  status: ('A' for Active; 'I' for Inactive)
    1  A    between atoms: N_4  and  C_26
    2  A    between atoms: C_5  and  C_25
    3  A    between atoms: C_5  and  C_51
    4  A    between atoms: C_6  and  C_55
    5  A    between atoms: C_7  and  C_53
    6  A    between atoms: C_14  and  O_23
    7  A    between atoms: C_14  and  C_34
    8  A    between atoms: C_14  and  N_49
    9  A    between atoms: C_21  and  C_35
   10  A    between atoms: O_23  and  C_45
   11  A    between atoms: C_25  and  C_48
   12  A    between atoms: C_26  and  C_31
   13  A    between atoms: C_26  and  C_40
   14  A    between atoms: S_28  and  C_42
   15  A    between atoms: S_28  and  C_48
   16  A    between atoms: C_33  and  C_44
   17  A    between atoms: C_33  and  C_50
   18  A    between atoms: C_34  and  O_46
   19  A    between atoms: C_34  and  C_52
   20  A    between atoms: C_35  and  C_51
   21  A    between atoms: C_36  and  C_53
   22  A    between atoms: C_42  and  C_45
   23  A    between atoms: C_50  and  C_56
                            x       y       z     vdW  Elec       q    Type
                         _______ _______ _______ _____ _____    ______ ____

>  <TORSDO>
F 23

$$$$
=
 OpenBabel11062416553D

 56 59  0  0  1  0  0  0  0  0999 V2000
  188.3440  178.2480  141.2550 C   0  0  0  0  0  3  0  0  0  0  0  0
  184.0630  179.0280  139.4900 C   0  0  1  0  0  3  0  0  0  0  0  0
  185.1570  178.7100  138.6480 O   0  0  0  0  0  0  0  0  0  0  0  0
  188.5950  178.0220  139.8900 C   0  0  0  0  0  3  0  0  0  0  0  0
  187.0480  178.5590  141.6920 C   0  0  0  0  0  3  0  0  0  0  0  0
  186.2900  178.4830  139.4060 C   0  0  0  0  0  0  0  0  0  0  0  0
  184.5920  179.0090  140.9450 C   0  0  2  0  0  3  0  0  0  0  0  0
  187.5610  178.1280  138.9410 C   0  0  0  0  0  0  0  0  0  0  0  0
  186.0250  178.6300  140.7420 C   0  0  0  0  0  0  0  0  0  0  0  0
  183.4860  180.3850  139.1330 C   0  0  0  0  0  2  0  0  0  0  0  0
  180.2390  181.5170  137.3440 C   0  0  0  0  0  3  0  0  0  0  0  0
  181.7190  178.8750  137.9630 C   0  0  0  0  0  2  0  0  0  0  0  0
  179.5840  180.6260  136.5840 C   0  0  0  0  0  3  0  0  0  0  0  0
  179.8930  179.1660  136.3650 C   0  0  0  0  0  2  0  0  0  0  0  0
  181.4800  181.3490  138.1340 C   0  0  0  0  0  3  0  0  0  0  0  0
  182.1940  180.2370  138.3630 C   0  0  0  0  0  0  0  0  0  0  0  0
  181.3620  178.8230  136.4900 C   0  0  0  0  0  2  0  0  0  0  0  0
  187.8880  177.8960  137.4790 C   0  0  1  0  0  3  0  0  0  0  0  0
  189.1260  178.4700  135.6340 C   0  0  0  0  0  1  0  0  0  0  0  0
  188.5570  178.9590  136.8220 O   0  0  0  0  0  0  0  0  0  0  0  0
  188.2240  176.4550  137.0100 C   0  0  2  0  0  3  0  0  0  0  0  0
  185.8180  175.9600  135.2340 O   0  0  0  0  0  0  0  0  0  0  0  0
  187.0550  175.6060  137.1980 N   0  0  0  0  0  2  0  0  0  0  0  0
  185.8240  175.7420  136.4720 C   0  0  0  0  0  0  0  0  0  0  0  0
  184.5340  175.6170  137.2040 C   0  0  0  0  0  2  0  0  0  0  0  0
  185.2930  173.0150  138.0680 O   0  0  0  0  0  1  0  0  0  0  0  0
  183.7930  174.3780  136.8210 C   0  0  0  0  0  0  0  0  0  0  0  0
  184.1940  173.1750  137.2300 C   0  0  0  0  0  3  0  0  0  0  0  0
  182.5660  175.7790  135.2910 N   0  0  0  0  0  1  0  0  0  0  0  0
  182.5980  174.4750  135.9310 C   0  0  0  0  0  2  0  0  0  0  0  0
  189.3360  175.9360  137.6770 O   0  0  0  0  0  0  0  0  0  0  0  0
  189.7730  174.8660  136.8870 C   0  0  0  0  0  2  0  0  0  0  0  0
  191.4700  175.6780  135.3210 C   0  0  0  0  0  2  0  0  0  0  0  0
  191.1980  175.0840  136.4920 C   0  0  0  0  0  0  0  0  0  0  0  0
  192.5070  174.9160  137.7350 S   0  0  0  0  0  0  0  0  0  0  0  0
  191.9610  176.3150  138.7800 C   0  0  0  0  0  2  0  0  0  0  0  0
  193.1640  177.1230  139.2510 C   0  0  0  0  0  2  0  0  0  0  0  0
  192.8510  177.7740  140.6000 C   0  0  0  0  0  2  0  0  0  0  0  0
  191.6190  177.1350  141.2160 C   0  0  0  0  0  2  0  0  0  0  0  0
  191.7880  177.0300  142.7220 C   0  0  0  0  0  2  0  0  0  0  0  0
  190.0410  177.2230  144.4630 C   0  0  0  0  0  1  0  0  0  0  0  0
  190.5730  176.3560  143.3430 C   0  0  0  0  0  2  0  0  0  0  0  0
  183.8290  178.0040  141.8410 C   0  0  1  0  0  3  0  0  0  0  0  0
  186.9150  178.2230  146.2150 C   0  0  1  0  0  3  0  0  0  0  0  0
  184.4920  179.0170  145.5510 C   0  0  0  0  0  2  0  0  0  0  0  0
  186.0640  180.4800  146.7450 C   0  0  0  0  0  2  0  0  0  0  0  0
  186.4870  176.9760  145.4640 C   0  0  0  0  0  2  0  0  0  0  0  0
  185.8900  177.3440  144.1060 C   0  0  0  0  0  2  0  0  0  0  0  0
  183.8330  178.5210  143.2620 C   0  0  0  0  0  3  0  0  0  0  0  0
  185.8000  179.2610  146.2580 C   0  0  0  0  0  0  0  0  0  0  0  0
  184.7290  178.3060  144.2500 C   0  0  0  0  0  0  0  0  0  0  0  0
  188.4470  178.6710  148.0580 O   0  0  0  0  0  1  0  0  0  0  0  0
  187.9570  176.4870  147.5500 O   0  0  0  0  0  1  0  0  0  0  0  0
  187.4590  177.7940  147.5970 C   0  0  0  0  0  3  0  0  0  0  0  0
  182.4720  177.7620  141.3270 N   0  0  0  0  0  2  0  0  0  0  0  0
  181.6440  178.6370  141.9470 O   0  0  0  0  0  1  0  0  0  0  0  0
  1  5  1  0  0  0  0
  2 10  1  6  0  0  0
  2  7  1  0  0  0  0
  3  6  1  0  0  0  0
  3  2  1  0  0  0  0
  4  1  2  0  0  0  0
  6  9  1  0  0  0  0
  7 43  1  1  0  0  0
  8  6  2  0  0  0  0
  8  4  1  0  0  0  0
  9  7  1  0  0  0  0
  9  5  2  0  0  0  0
 11 15  1  0  0  0  0
 12 16  1  0  0  0  0
 13 11  2  0  0  0  0
 14 17  1  0  0  0  0
 14 13  1  0  0  0  0
 15 16  2  0  0  0  0
 16 10  1  0  0  0  0
 17 12  1  0  0  0  0
 18 20  1  1  0  0  0
 18  8  1  0  0  0  0
 19 20  1  0  0  0  0
 21 23  1  1  0  0  0
 21 18  1  0  0  0  0
 21 31  1  0  0  0  0
 22 24  2  0  0  0  0
 24 23  1  0  0  0  0
 24 25  1  0  0  0  0
 27 25  1  0  0  0  0
 27 28  2  0  0  0  0
 28 26  1  0  0  0  0
 29 30  1  0  0  0  0
 30 27  1  0  0  0  0
 32 31  1  0  0  0  0
 33 34  2  0  0  0  0
 34 32  1  0  0  0  0
 34 35  1  0  0  0  0
 35 36  1  0  0  0  0
 36 37  1  0  0  0  0
 37 38  1  0  0  0  0
 38 39  1  0  0  0  0
 39 40  1  0  0  0  0
 40 42  1  0  0  0  0
 42 41  1  0  0  0  0
 43 49  1  1  0  0  0
 44 50  1  0  0  0  0
 44 54  1  1  0  0  0
 45 50  1  0  0  0  0
 47 44  1  0  0  0  0
 48 51  1  0  0  0  0
 48 47  1  0  0  0  0
 49 51  2  0  0  0  0
 50 46  2  0  0  0  0
 51 45  1  0  0  0  0
 53 54  1  0  0  0  0
 54 52  1  0  0  0  0
 55 43  1  0  0  0  0
 55 56  1  0  0  0  0
M  END
>  <MODEL>
7

>  <REMARK>
 VINA RESULT:      -5.5      3.364      9.391
  Name = 
  23 active torsions:
  status: ('A' for Active; 'I' for Inactive)
    1  A    between atoms: N_4  and  C_26
    2  A    between atoms: C_5  and  C_25
    3  A    between atoms: C_5  and  C_51
    4  A    between atoms: C_6  and  C_55
    5  A    between atoms: C_7  and  C_53
    6  A    between atoms: C_14  and  O_23
    7  A    between atoms: C_14  and  C_34
    8  A    between atoms: C_14  and  N_49
    9  A    between atoms: C_21  and  C_35
   10  A    between atoms: O_23  and  C_45
   11  A    between atoms: C_25  and  C_48
   12  A    between atoms: C_26  and  C_31
   13  A    between atoms: C_26  and  C_40
   14  A    between atoms: S_28  and  C_42
   15  A    between atoms: S_28  and  C_48
   16  A    between atoms: C_33  and  C_44
   17  A    between atoms: C_33  and  C_50
   18  A    between atoms: C_34  and  O_46
   19  A    between atoms: C_34  and  C_52
   20  A    between atoms: C_35  and  C_51
   21  A    between atoms: C_36  and  C_53
   22  A    between atoms: C_42  and  C_45
   23  A    between atoms: C_50  and  C_56
                            x       y       z     vdW  Elec       q    Type
                         _______ _______ _______ _____ _____    ______ ____

>  <TORSDO>
F 23

$$$$
=
 OpenBabel11062416553D

 56 59  0  0  1  0  0  0  0  0999 V2000
  184.0740  179.3860  139.0020 C   0  0  0  0  0  3  0  0  0  0  0  0
  185.5890  178.2320  143.2930 C   0  0  1  0  0  3  0  0  0  0  0  0
  184.2210  178.1220  142.9440 O   0  0  0  0  0  0  0  0  0  0  0  0
  182.8690  178.9520  139.5790 C   0  0  0  0  0  3  0  0  0  0  0  0
  185.2700  179.3290  139.7330 C   0  0  0  0  0  3  0  0  0  0  0  0
  184.0380  178.4750  141.6210 C   0  0  0  0  0  0  0  0  0  0  0  0
  186.3380  178.7300  142.0340 C   0  0  2  0  0  3  0  0  0  0  0  0
  182.8360  178.4780  140.9050 C   0  0  0  0  0  0  0  0  0  0  0  0
  185.2270  178.8260  141.0370 C   0  0  0  0  0  0  0  0  0  0  0  0
  185.7720  179.1910  144.4560 C   0  0  0  0  0  2  0  0  0  0  0  0
  188.5590  177.1830  146.2530 C   0  0  0  0  0  3  0  0  0  0  0  0
  185.8720  178.5340  146.9710 C   0  0  0  0  0  2  0  0  0  0  0  0
  188.5640  177.1590  147.5950 C   0  0  0  0  0  3  0  0  0  0  0  0
  187.5680  177.7630  148.5540 C   0  0  0  0  0  2  0  0  0  0  0  0
  187.6170  177.8550  145.3280 C   0  0  0  0  0  3  0  0  0  0  0  0
  186.4840  178.5160  145.6050 C   0  0  0  0  0  0  0  0  0  0  0  0
  186.8690  178.9950  148.0190 C   0  0  0  0  0  2  0  0  0  0  0  0
  181.5070  178.0410  141.4900 C   0  0  1  0  0  3  0  0  0  0  0  0
  180.4990  179.7550  142.6350 C   0  0  0  0  0  1  0  0  0  0  0  0
  181.2050  178.5490  142.7780 O   0  0  0  0  0  0  0  0  0  0  0  0
  180.3110  177.8040  140.5280 C   0  0  2  0  0  3  0  0  0  0  0  0
  181.8060  175.7300  138.9000 O   0  0  0  0  0  0  0  0  0  0  0  0
  180.0980  176.3710  140.3770 N   0  0  0  0  0  2  0  0  0  0  0  0
  180.6260  175.5760  139.3050 C   0  0  0  0  0  0  0  0  0  0  0  0
  179.7570  174.5500  138.6660 C   0  0  0  0  0  2  0  0  0  0  0  0
  179.3540  176.1800  136.3700 O   0  0  0  0  0  1  0  0  0  0  0  0
  180.2410  174.1780  137.3030 C   0  0  0  0  0  0  0  0  0  0  0  0
  180.0140  174.9610  136.2490 C   0  0  0  0  0  3  0  0  0  0  0  0
  180.7700  172.0280  138.2550 N   0  0  0  0  0  1  0  0  0  0  0  0
  180.9640  172.8890  137.1000 C   0  0  0  0  0  2  0  0  0  0  0  0
  180.5090  178.4170  139.2900 O   0  0  0  0  0  0  0  0  0  0  0  0
  179.3480  179.1670  139.0620 C   0  0  0  0  0  2  0  0  0  0  0  0
  180.5890  181.2020  138.5080 C   0  0  0  0  0  2  0  0  0  0  0  0
  179.6590  180.3060  138.1460 C   0  0  0  0  0  0  0  0  0  0  0  0
  179.0900  180.2530  136.4260 S   0  0  0  0  0  0  0  0  0  0  0  0
  180.7320  180.5360  135.6700 C   0  0  0  0  0  2  0  0  0  0  0  0
  180.6490  181.6450  134.6270 C   0  0  0  0  0  2  0  0  0  0  0  0
  179.4970  182.5910  134.9750 C   0  0  0  0  0  2  0  0  0  0  0  0
  179.9440  184.0350  134.8350 C   0  0  0  0  0  2  0  0  0  0  0  0
  179.3400  184.8750  135.9480 C   0  0  0  0  0  2  0  0  0  0  0  0
  181.5070  184.6990  137.1280 C   0  0  0  0  0  1  0  0  0  0  0  0
  180.0100  184.5480  137.2760 C   0  0  0  0  0  2  0  0  0  0  0  0
  187.4590  177.7600  141.5870 C   0  0  1  0  0  3  0  0  0  0  0  0
  190.4800  176.1660  137.4590 C   0  0  1  0  0  3  0  0  0  0  0  0
  189.2790  178.3940  138.1940 C   0  0  0  0  0  2  0  0  0  0  0  0
  189.1280  177.5250  135.9010 C   0  0  0  0  0  2  0  0  0  0  0  0
  190.8530  176.1280  138.9290 C   0  0  0  0  0  2  0  0  0  0  0  0
  189.6220  176.3610  139.8030 C   0  0  0  0  0  2  0  0  0  0  0  0
  188.0440  178.2610  140.2860 C   0  0  0  0  0  3  0  0  0  0  0  0
  189.6710  177.4130  137.1190 C   0  0  0  0  0  0  0  0  0  0  0  0
  188.9340  177.6670  139.4610 C   0  0  0  0  0  0  0  0  0  0  0  0
  192.2350  174.6620  136.6840 O   0  0  0  0  0  1  0  0  0  0  0  0
  192.7670  176.8650  137.0520 O   0  0  0  0  0  1  0  0  0  0  0  0
  191.7680  175.9800  136.6250 C   0  0  0  0  0  3  0  0  0  0  0  0
  188.4720  177.6010  142.6420 N   0  0  0  0  0  2  0  0  0  0  0  0
  189.3810  178.5930  142.4810 O   0  0  0  0  0  1  0  0  0  0  0  0
  1  4  2  0  0  0  0
  1  5  1  0  0  0  0
  2 10  1  1  0  0  0
  3  2  1  0  0  0  0
  4  8  1  0  0  0  0
  5  9  2  0  0  0  0
  6  3  1  0  0  0  0
  7 43  1  6  0  0  0
  7  2  1  0  0  0  0
  8 18  1  0  0  0  0
  8  6  2  0  0  0  0
  9  6  1  0  0  0  0
  9  7  1  0  0  0  0
 10 16  1  0  0  0  0
 11 13  2  0  0  0  0
 12 17  1  0  0  0  0
 13 14  1  0  0  0  0
 15 16  2  0  0  0  0
 15 11  1  0  0  0  0
 16 12  1  0  0  0  0
 17 14  1  0  0  0  0
 18 20  1  1  0  0  0
 19 20  1  0  0  0  0
 21 31  1  6  0  0  0
 21 18  1  0  0  0  0
 22 24  2  0  0  0  0
 23 21  1  0  0  0  0
 24 23  1  0  0  0  0
 25 24  1  0  0  0  0
 27 25  1  0  0  0  0
 28 26  1  0  0  0  0
 28 27  2  0  0  0  0
 30 27  1  0  0  0  0
 30 29  1  0  0  0  0
 32 31  1  0  0  0  0
 34 33  2  0  0  0  0
 34 32  1  0  0  0  0
 35 34  1  0  0  0  0
 36 35  1  0  0  0  0
 37 38  1  0  0  0  0
 37 36  1  0  0  0  0
 39 38  1  0  0  0  0
 39 40  1  0  0  0  0
 40 42  1  0  0  0  0
 41 42  1  0  0  0  0
 43 49  1  6  0  0  0
 43 55  1  0  0  0  0
 44 54  1  6  0  0  0
 44 47  1  0  0  0  0
 45 51  1  0  0  0  0
 46 50  2  0  0  0  0
 47 48  1  0  0  0  0
 50 44  1  0  0  0  0
 50 45  1  0  0  0  0
 51 48  1  0  0  0  0
 51 49  2  0  0  0  0
 54 52  1  0  0  0  0
 54 53  1  0  0  0  0
 56 55  1  0  0  0  0
M  END
>  <MODEL>
8

>  <REMARK>
 VINA RESULT:      -5.5      3.380      6.297
  Name = 
  23 active torsions:
  status: ('A' for Active; 'I' for Inactive)
    1  A    between atoms: N_4  and  C_26
    2  A    between atoms: C_5  and  C_25
    3  A    between atoms: C_5  and  C_51
    4  A    between atoms: C_6  and  C_55
    5  A    between atoms: C_7  and  C_53
    6  A    between atoms: C_14  and  O_23
    7  A    between atoms: C_14  and  C_34
    8  A    between atoms: C_14  and  N_49
    9  A    between atoms: C_21  and  C_35
   10  A    between atoms: O_23  and  C_45
   11  A    between atoms: C_25  and  C_48
   12  A    between atoms: C_26  and  C_31
   13  A    between atoms: C_26  and  C_40
   14  A    between atoms: S_28  and  C_42
   15  A    between atoms: S_28  and  C_48
   16  A    between atoms: C_33  and  C_44
   17  A    between atoms: C_33  and  C_50
   18  A    between atoms: C_34  and  O_46
   19  A    between atoms: C_34  and  C_52
   20  A    between atoms: C_35  and  C_51
   21  A    between atoms: C_36  and  C_53
   22  A    between atoms: C_42  and  C_45
   23  A    between atoms: C_50  and  C_56
                            x       y       z     vdW  Elec       q    Type
                         _______ _______ _______ _____ _____    ______ ____

>  <TORSDO>
F 23

$$$$
=
 OpenBabel11062416553D

 56 59  0  0  1  0  0  0  0  0999 V2000
  188.8150  178.2560  142.0250 C   0  0  0  0  0  3  0  0  0  0  0  0
  184.7290  178.7920  139.7750 C   0  0  1  0  0  3  0  0  0  0  0  0
  185.9120  178.4450  139.0760 O   0  0  0  0  0  0  0  0  0  0  0  0
  189.2130  177.9400  140.7150 C   0  0  0  0  0  3  0  0  0  0  0  0
  187.4740  178.5630  142.3030 C   0  0  0  0  0  3  0  0  0  0  0  0
  186.9630  178.3030  139.9620 C   0  0  0  0  0  0  0  0  0  0  0  0
  185.1030  178.8910  141.2740 C   0  0  2  0  0  3  0  0  0  0  0  0
  188.2820  177.9500  139.6580 C   0  0  0  0  0  0  0  0  0  0  0  0
  186.5560  178.5370  141.2490 C   0  0  0  0  0  0  0  0  0  0  0  0
  184.1670  180.1040  139.2610 C   0  0  0  0  0  2  0  0  0  0  0  0
  180.5490  181.0880  138.2730 C   0  0  0  0  0  3  0  0  0  0  0  0
  182.3530  178.5790  138.1870 C   0  0  0  0  0  2  0  0  0  0  0  0
  179.8450  180.2430  137.5050 C   0  0  0  0  0  3  0  0  0  0  0  0
  180.2370  178.8770  137.0000 C   0  0  0  0  0  2  0  0  0  0  0  0
  181.9280  180.9560  138.7970 C   0  0  0  0  0  3  0  0  0  0  0  0
  182.7710  179.9160  138.7140 C   0  0  0  0  0  0  0  0  0  0  0  0
  181.7280  178.6970  136.8100 C   0  0  0  0  0  2  0  0  0  0  0  0
  188.7650  177.6240  138.2590 C   0  0  1  0  0  3  0  0  0  0  0  0
  189.0570  179.2500  136.6670 C   0  0  0  0  0  1  0  0  0  0  0  0
  189.6910  178.5380  137.6980 O   0  0  0  0  0  0  0  0  0  0  0  0
  188.9120  176.1330  137.8500 C   0  0  2  0  0  3  0  0  0  0  0  0
  190.7680  173.9020  136.9750 O   0  0  0  0  0  0  0  0  0  0  0  0
  189.8250  176.0360  136.7190 N   0  0  0  0  0  2  0  0  0  0  0  0
  190.9090  175.1000  136.6230 C   0  0  0  0  0  0  0  0  0  0  0  0
  192.2220  175.5630  136.0940 C   0  0  0  0  0  2  0  0  0  0  0  0
  193.4650  173.1740  135.1790 O   0  0  0  0  0  1  0  0  0  0  0  0
  193.3680  174.9140  136.7990 C   0  0  0  0  0  0  0  0  0  0  0  0
  193.9090  173.7830  136.3480 C   0  0  0  0  0  3  0  0  0  0  0  0
  193.2720  176.8070  138.2880 N   0  0  0  0  0  1  0  0  0  0  0  0
  193.9010  175.5180  138.0550 C   0  0  0  0  0  2  0  0  0  0  0  0
  187.6790  175.5500  137.5530 O   0  0  0  0  0  0  0  0  0  0  0  0
  187.2030  176.2440  136.4340 C   0  0  0  0  0  2  0  0  0  0  0  0
  185.2490  176.1550  134.9650 C   0  0  0  0  0  2  0  0  0  0  0  0
  185.8000  175.8220  136.1400 C   0  0  0  0  0  0  0  0  0  0  0  0
  185.0120  174.5570  137.1720 S   0  0  0  0  0  0  0  0  0  0  0  0
  183.5960  174.2510  136.0530 C   0  0  0  0  0  2  0  0  0  0  0  0
  182.3790  175.0440  136.5130 C   0  0  0  0  0  2  0  0  0  0  0  0
  181.1390  174.1480  136.4800 C   0  0  0  0  0  2  0  0  0  0  0  0
  180.4470  174.1590  137.8320 C   0  0  0  0  0  2  0  0  0  0  0  0
  179.3000  175.1540  137.8180 C   0  0  0  0  0  2  0  0  0  0  0  0
  180.5690  175.6860  139.8740 C   0  0  0  0  0  1  0  0  0  0  0  0
  179.3090  175.9860  139.0930 C   0  0  0  0  0  2  0  0  0  0  0  0
  184.2700  177.9320  142.1590 C   0  0  1  0  0  3  0  0  0  0  0  0
  187.1260  178.1770  146.6850 C   0  0  1  0  0  3  0  0  0  0  0  0
  184.7700  179.0320  145.8690 C   0  0  0  0  0  2  0  0  0  0  0  0
  186.3260  180.4760  147.1050 C   0  0  0  0  0  2  0  0  0  0  0  0
  186.6940  176.9240  145.9460 C   0  0  0  0  0  2  0  0  0  0  0  0
  186.1840  177.2710  144.5490 C   0  0  0  0  0  2  0  0  0  0  0  0
  184.2160  178.4910  143.5620 C   0  0  0  0  0  3  0  0  0  0  0  0
  186.0460  179.2530  146.6380 C   0  0  0  0  0  0  0  0  0  0  0  0
  185.0510  178.2750  144.6030 C   0  0  0  0  0  0  0  0  0  0  0  0
  188.6150  178.5900  148.5700 O   0  0  0  0  0  1  0  0  0  0  0  0
  187.9760  176.4290  148.1350 O   0  0  0  0  0  1  0  0  0  0  0  0
  187.5800  177.7720  148.1050 C   0  0  0  0  0  3  0  0  0  0  0  0
  182.9330  177.7100  141.5830 N   0  0  0  0  0  2  0  0  0  0  0  0
  182.1110  178.6570  142.0950 O   0  0  0  0  0  1  0  0  0  0  0  0
  1  5  1  0  0  0  0
  2 10  1  6  0  0  0
  2  7  1  0  0  0  0
  3  2  1  0  0  0  0
  3  6  1  0  0  0  0
  4  1  2  0  0  0  0
  6  9  1  0  0  0  0
  7 43  1  1  0  0  0
  8  6  2  0  0  0  0
  8  4  1  0  0  0  0
  9  7  1  0  0  0  0
  9  5  2  0  0  0  0
 11 15  1  0  0  0  0
 12 16  1  0  0  0  0
 13 11  2  0  0  0  0
 14 13  1  0  0  0  0
 16 15  2  0  0  0  0
 16 10  1  0  0  0  0
 17 14  1  0  0  0  0
 17 12  1  0  0  0  0
 18 20  1  1  0  0  0
 18  8  1  0  0  0  0
 19 20  1  0  0  0  0
 21 23  1  6  0  0  0
 21 18  1  0  0  0  0
 24 23  1  0  0  0  0
 24 22  2  0  0  0  0
 25 24  1  0  0  0  0
 25 27  1  0  0  0  0
 26 28  1  0  0  0  0
 27 30  1  0  0  0  0
 28 27  2  0  0  0  0
 30 29  1  0  0  0  0
 31 21  1  0  0  0  0
 32 31  1  0  0  0  0
 33 34  2  0  0  0  0
 34 32  1  0  0  0  0
 34 35  1  0  0  0  0
 36 37  1  0  0  0  0
 36 35  1  0  0  0  0
 38 37  1  0  0  0  0
 38 39  1  0  0  0  0
 40 39  1  0  0  0  0
 40 42  1  0  0  0  0
 42 41  1  0  0  0  0
 43 49  1  1  0  0  0
 44 54  1  1  0  0  0
 45 50  1  0  0  0  0
 47 44  1  0  0  0  0
 48 51  1  0  0  0  0
 48 47  1  0  0  0  0
 49 51  2  0  0  0  0
 50 44  1  0  0  0  0
 50 46  2  0  0  0  0
 51 45  1  0  0  0  0
 54 53  1  0  0  0  0
 54 52  1  0  0  0  0
 55 56  1  0  0  0  0
 55 43  1  0  0  0  0
M  END
>  <MODEL>
9

>  <REMARK>
 VINA RESULT:      -5.4      2.993      9.235
  Name = 
  23 active torsions:
  status: ('A' for Active; 'I' for Inactive)
    1  A    between atoms: N_4  and  C_26
    2  A    between atoms: C_5  and  C_25
    3  A    between atoms: C_5  and  C_51
    4  A    between atoms: C_6  and  C_55
    5  A    between atoms: C_7  and  C_53
    6  A    between atoms: C_14  and  O_23
    7  A    between atoms: C_14  and  C_34
    8  A    between atoms: C_14  and  N_49
    9  A    between atoms: C_21  and  C_35
   10  A    between atoms: O_23  and  C_45
   11  A    between atoms: C_25  and  C_48
   12  A    between atoms: C_26  and  C_31
   13  A    between atoms: C_26  and  C_40
   14  A    between atoms: S_28  and  C_42
   15  A    between atoms: S_28  and  C_48
   16  A    between atoms: C_33  and  C_44
   17  A    between atoms: C_33  and  C_50
   18  A    between atoms: C_34  and  O_46
   19  A    between atoms: C_34  and  C_52
   20  A    between atoms: C_35  and  C_51
   21  A    between atoms: C_36  and  C_53
   22  A    between atoms: C_42  and  C_45
   23  A    between atoms: C_50  and  C_56
                            x       y       z     vdW  Elec       q    Type
                         _______ _______ _______ _____ _____    ______ ____

>  <TORSDO>
F 23

$$$$
