=
 OpenBabel11062415363D

 35 38  0  0  1  0  0  0  0  0999 V2000
  186.1360  178.6870  142.0310 C   0  0  0  0  0  2  0  0  0  0  0  0
  184.7720  178.0350  141.9130 C   0  0  1  0  0  3  0  0  0  0  0  0
  185.0550  179.0110  143.0430 C   0  0  1  0  0  3  0  0  0  0  0  0
  185.3090  178.2470  144.3330 C   0  0  2  0  0  3  0  0  0  0  0  0
  184.3890  178.7640  145.4270 C   0  0  0  0  0  2  0  0  0  0  0  0
  183.0040  179.0250  144.8700 C   0  0  0  0  0  1  0  0  0  0  0  0
  186.7610  178.4470  144.7610 C   0  0  0  0  0  2  0  0  0  0  0  0
  191.6430  177.1750  147.6180 N   0  0  0  0  0  1  0  0  0  0  0  0
  188.4890  176.4530  142.5670 Cl  0  0  0  0  0  0  0  0  0  0  0  0
  187.3390  177.2560  145.5360 C   0  0  2  0  0  3  0  0  0  0  0  0
  189.4080  176.6810  144.0440 C   0  0  0  0  0  0  0  0  0  0  0  0
  189.5120  177.1760  146.4020 C   0  0  0  0  0  0  0  0  0  0  0  0
  188.6980  177.4820  147.5160 N   0  0  0  0  0  0  0  0  0  0  0  0
  190.8030  176.5170  144.0340 C   0  0  0  0  0  3  0  0  0  0  0  0
  190.8990  177.0170  146.4150 C   0  0  0  0  0  0  0  0  0  0  0  0
  187.3090  177.5170  147.0590 C   0  0  0  0  0  3  0  0  0  0  0  0
  191.5470  176.6860  145.2160 C   0  0  0  0  0  3  0  0  0  0  0  0
  188.7860  177.0250  145.2520 C   0  0  0  0  0  0  0  0  0  0  0  0
  183.9380  178.7420  140.8420 C   0  0  1  0  0  3  0  0  0  0  0  0
  184.5040  180.3210  139.1040 O   0  0  0  0  0  1  0  0  0  0  0  0
  184.7360  179.0240  139.5670 C   0  0  0  0  0  2  0  0  0  0  0  0
  182.5900  178.0600  140.5490 C   0  0  1  0  0  3  0  0  0  0  0  0
  181.3980  178.9480  140.7610 C   0  0  0  0  0  0  0  0  0  0  0  0
  180.7800  178.9480  141.8590 O   0  0  0  0  0  0  0  0  0  0  0  0
  180.9650  179.8030  139.7090 N   0  0  0  0  0  1  0  0  0  0  0  0
  182.5800  177.4360  139.1600 C   0  0  0  0  0  2  0  0  0  0  0  0
  183.0050  176.0460  139.2320 N   0  0  0  0  0  2  0  0  0  0  0  0
  182.2010  175.3030  138.2740 C   0  0  0  0  0  2  0  0  0  0  0  0
  181.2510  173.1530  136.6070 C   0  0  0  0  0  1  0  0  0  0  0  0
  183.5510  172.6070  137.2970 N   0  0  0  0  0  0  0  0  0  0  0  0
  184.0260  171.5910  136.3730 C   0  0  0  0  0  1  0  0  0  0  0  0
  182.7270  173.5340  136.5360 C   0  0  2  0  0  3  0  0  0  0  0  0
  184.4690  174.7420  137.4850 C   0  0  0  0  0  2  0  0  0  0  0  0
  184.6870  173.3190  137.7380 N   0  0  0  0  0  2  0  0  0  0  0  0
  183.0400  174.9180  137.0520 C   0  0  2  0  0  3  0  0  0  0  0  0
  1  3  1  0  0  0  0
  2 19  1  6  0  0  0
  2  1  1  0  0  0  0
  2  3  1  0  0  0  0
  3  4  1  1  0  0  0
  4  7  1  1  0  0  0
  4  5  1  0  0  0  0
  6  5  1  0  0  0  0
  9 11  1  0  0  0  0
 10  7  1  6  0  0  0
 10 16  1  0  0  0  0
 11 18  1  0  0  0  0
 12 15  1  0  0  0  0
 12 13  1  0  0  0  0
 14 11  2  0  0  0  0
 14 17  1  0  0  0  0
 15  8  1  0  0  0  0
 16 13  2  0  0  0  0
 17 15  2  0  0  0  0
 18 10  1  0  0  0  0
 18 12  2  0  0  0  0
 19 21  1  6  0  0  0
 20 21  1  0  0  0  0
 22 26  1  6  0  0  0
 22 23  1  0  0  0  0
 22 19  1  0  0  0  0
 23 24  2  0  0  0  0
 25 23  1  0  0  0  0
 26 27  1  0  0  0  0
 28 27  1  0  0  0  0
 30 34  1  0  0  0  0
 31 30  1  0  0  0  0
 32 29  1  1  0  0  0
 32 35  1  0  0  0  0
 32 30  1  0  0  0  0
 33 34  1  0  0  0  0
 35 33  1  0  0  0  0
 35 28  1  1  0  0  0
M  END
>  <MODEL>
1

>  <REMARK>
 VINA RESULT:      -7.8      0.000      0.000
  Name = 
  12 active torsions:
  status: ('A' for Active; 'I' for Inactive)
    1  A    between atoms: C_2  and  C_6
    2  A    between atoms: C_2  and  C_12
    3  A    between atoms: C_2  and  C_33
    4  A    between atoms: C_3  and  N_8
    5  A    between atoms: C_3  and  C_35
    6  A    between atoms: C_6  and  C_7
    7  A    between atoms: N_8  and  C_30
    8  A    between atoms: C_13  and  C_15
    9  A    between atoms: C_15  and  C_24
   10  A    between atoms: C_15  and  C_30
   11  A    between atoms: C_24  and  C_27
   12  A    between atoms: C_24  and  C_28
                            x       y       z     vdW  Elec       q    Type
                         _______ _______ _______ _____ _____    ______ ____

>  <TORSDO>
F 12

$$$$
=
 OpenBabel11062415363D

 35 38  0  0  1  0  0  0  0  0999 V2000
  188.6110  178.6210  140.8670 C   0  0  0  0  0  2  0  0  0  0  0  0
  189.6720  177.9740  139.9990 C   0  0  1  0  0  3  0  0  0  0  0  0
  189.0550  177.2000  141.1520 C   0  0  1  0  0  3  0  0  0  0  0  0
  190.0130  177.1840  142.3330 C   0  0  2  0  0  3  0  0  0  0  0  0
  190.3030  175.7490  142.7420 C   0  0  0  0  0  2  0  0  0  0  0  0
  191.6010  175.6760  143.5200 C   0  0  0  0  0  1  0  0  0  0  0  0
  189.3780  177.9220  143.5090 C   0  0  0  0  0  2  0  0  0  0  0  0
  185.1270  178.8080  147.3510 N   0  0  0  0  0  1  0  0  0  0  0  0
  190.7810  176.9960  146.5010 Cl  0  0  0  0  0  0  0  0  0  0  0  0
  188.3610  177.0750  144.2840 C   0  0  2  0  0  3  0  0  0  0  0  0
  189.1310  177.5390  146.7390 C   0  0  0  0  0  0  0  0  0  0  0  0
  186.9010  177.9230  145.9050 C   0  0  0  0  0  0  0  0  0  0  0  0
  186.1030  177.7880  144.7460 N   0  0  0  0  0  0  0  0  0  0  0  0
  188.7220  178.0090  147.9990 C   0  0  0  0  0  3  0  0  0  0  0  0
  186.4730  178.3920  147.1480 C   0  0  0  0  0  0  0  0  0  0  0  0
  186.9420  177.2270  143.6880 C   0  0  0  0  0  3  0  0  0  0  0  0
  187.3980  178.4350  148.2020 C   0  0  0  0  0  3  0  0  0  0  0  0
  188.1920  177.5190  145.6990 C   0  0  0  0  0  0  0  0  0  0  0  0
  189.0560  177.4850  138.6860 C   0  0  1  0  0  3  0  0  0  0  0  0
  187.5970  178.9190  137.4000 O   0  0  0  0  0  1  0  0  0  0  0  0
  188.9350  178.6000  137.6430 C   0  0  0  0  0  2  0  0  0  0  0  0
  189.7210  176.2220  138.1140 C   0  0  1  0  0  3  0  0  0  0  0  0
  188.8920  175.5060  137.0870 C   0  0  0  0  0  0  0  0  0  0  0  0
  187.6620  175.3100  137.2720 O   0  0  0  0  0  0  0  0  0  0  0  0
  189.5060  175.0490  135.8870 N   0  0  0  0  0  1  0  0  0  0  0  0
  191.1190  176.5240  137.5910 C   0  0  0  0  0  2  0  0  0  0  0  0
  192.0820  175.6010  138.1690 N   0  0  0  0  0  2  0  0  0  0  0  0
  193.4060  176.0700  137.7920 C   0  0  0  0  0  2  0  0  0  0  0  0
  195.3450  174.0970  138.5980 C   0  0  0  0  0  1  0  0  0  0  0  0
  196.3650  175.4700  136.8270 N   0  0  0  0  0  0  0  0  0  0  0  0
  197.4910  174.7080  136.3140 C   0  0  0  0  0  1  0  0  0  0  0  0
  195.3030  174.5230  137.1340 C   0  0  2  0  0  3  0  0  0  0  0  0
  194.4810  176.0340  135.5730 C   0  0  0  0  0  2  0  0  0  0  0  0
  195.9090  176.2840  135.7690 N   0  0  0  0  0  2  0  0  0  0  0  0
  194.0070  175.1710  136.7090 C   0  0  2  0  0  3  0  0  0  0  0  0
  1  3  1  0  0  0  0
  2 19  1  6  0  0  0
  2  1  1  0  0  0  0
  2  3  1  0  0  0  0
  3  4  1  1  0  0  0
  4  5  1  1  0  0  0
  4  7  1  0  0  0  0
  5  6  1  0  0  0  0
  9 11  1  0  0  0  0
 10  7  1  6  0  0  0
 10 18  1  0  0  0  0
 11 14  1  0  0  0  0
 12 15  2  0  0  0  0
 13 12  1  0  0  0  0
 14 17  2  0  0  0  0
 15  8  1  0  0  0  0
 15 17  1  0  0  0  0
 16 10  1  0  0  0  0
 16 13  2  0  0  0  0
 18 12  1  0  0  0  0
 18 11  2  0  0  0  0
 19 21  1  6  0  0  0
 20 21  1  0  0  0  0
 22 26  1  6  0  0  0
 22 19  1  0  0  0  0
 23 24  2  0  0  0  0
 23 22  1  0  0  0  0
 25 23  1  0  0  0  0
 26 27  1  0  0  0  0
 28 27  1  0  0  0  0
 30 32  1  0  0  0  0
 31 30  1  0  0  0  0
 32 29  1  1  0  0  0
 33 34  1  0  0  0  0
 33 35  1  0  0  0  0
 34 30  1  0  0  0  0
 35 32  1  0  0  0  0
 35 28  1  1  0  0  0
M  END
>  <MODEL>
2

>  <REMARK>
 VINA RESULT:      -7.8      5.595      7.922
  Name = 
  12 active torsions:
  status: ('A' for Active; 'I' for Inactive)
    1  A    between atoms: C_2  and  C_6
    2  A    between atoms: C_2  and  C_12
    3  A    between atoms: C_2  and  C_33
    4  A    between atoms: C_3  and  N_8
    5  A    between atoms: C_3  and  C_35
    6  A    between atoms: C_6  and  C_7
    7  A    between atoms: N_8  and  C_30
    8  A    between atoms: C_13  and  C_15
    9  A    between atoms: C_15  and  C_24
   10  A    between atoms: C_15  and  C_30
   11  A    between atoms: C_24  and  C_27
   12  A    between atoms: C_24  and  C_28
                            x       y       z     vdW  Elec       q    Type
                         _______ _______ _______ _____ _____    ______ ____

>  <TORSDO>
F 12

$$$$
=
 OpenBabel11062415363D

 35 38  0  0  1  0  0  0  0  0999 V2000
  185.4220  178.8880  141.7590 C   0  0  0  0  0  2  0  0  0  0  0  0
  184.2300  178.0290  141.3850 C   0  0  1  0  0  3  0  0  0  0  0  0
  184.0990  179.0810  142.4730 C   0  0  1  0  0  3  0  0  0  0  0  0
  184.1470  178.4160  143.8400 C   0  0  2  0  0  3  0  0  0  0  0  0
  182.9910  178.9110  144.6950 C   0  0  0  0  0  2  0  0  0  0  0  0
  181.6940  178.8410  143.9140 C   0  0  0  0  0  1  0  0  0  0  0  0
  185.4650  178.7690  144.5270 C   0  0  0  0  0  2  0  0  0  0  0  0
  189.5980  178.3010  148.5660 N   0  0  0  0  0  1  0  0  0  0  0  0
  187.6830  176.5340  143.1630 Cl  0  0  0  0  0  0  0  0  0  0  0  0
  185.8760  177.7650  145.6120 C   0  0  2  0  0  3  0  0  0  0  0  0
  188.2390  177.0660  144.7390 C   0  0  0  0  0  0  0  0  0  0  0  0
  187.7980  177.9650  146.9330 C   0  0  0  0  0  0  0  0  0  0  0  0
  186.7470  178.4090  147.7670 N   0  0  0  0  0  0  0  0  0  0  0  0
  189.6030  176.9870  145.0650 C   0  0  0  0  0  3  0  0  0  0  0  0
  189.1480  177.8940  147.2780 C   0  0  0  0  0  0  0  0  0  0  0  0
  185.4970  178.2820  147.0190 C   0  0  0  0  0  3  0  0  0  0  0  0
  190.0570  177.4010  146.3300 C   0  0  0  0  0  3  0  0  0  0  0  0
  187.3540  177.5760  145.6990 C   0  0  0  0  0  0  0  0  0  0  0  0
  183.5800  178.5560  140.1030 C   0  0  1  0  0  3  0  0  0  0  0  0
  184.5280  180.4020  138.8670 O   0  0  0  0  0  1  0  0  0  0  0  0
  184.6090  179.0230  139.0710 C   0  0  0  0  0  2  0  0  0  0  0  0
  182.5340  177.6050  139.4950 C   0  0  1  0  0  3  0  0  0  0  0  0
  181.1490  177.7870  140.0460 C   0  0  0  0  0  0  0  0  0  0  0  0
  180.5040  176.8100  140.5090 O   0  0  0  0  0  0  0  0  0  0  0  0
  180.5620  179.0830  140.0480 N   0  0  0  0  0  1  0  0  0  0  0  0
  182.5440  177.6760  137.9740 C   0  0  0  0  0  2  0  0  0  0  0  0
  182.4860  176.3380  137.4090 N   0  0  0  0  0  2  0  0  0  0  0  0
  183.7210  175.6630  137.7770 C   0  0  0  0  0  2  0  0  0  0  0  0
  184.9200  173.0440  137.7120 C   0  0  0  0  0  1  0  0  0  0  0  0
  186.6960  174.6920  137.2720 N   0  0  0  0  0  0  0  0  0  0  0  0
  187.7930  173.9600  136.6630 C   0  0  0  0  0  1  0  0  0  0  0  0
  185.4580  174.1160  136.7690 C   0  0  2  0  0  3  0  0  0  0  0  0
  185.4800  176.3670  136.1980 C   0  0  0  0  0  2  0  0  0  0  0  0
  186.7710  176.0150  136.7870 N   0  0  0  0  0  2  0  0  0  0  0  0
  184.5100  175.2660  136.5260 C   0  0  2  0  0  3  0  0  0  0  0  0
  1  3  1  0  0  0  0
  2 19  1  6  0  0  0
  2  1  1  0  0  0  0
  2  3  1  0  0  0  0
  3  4  1  1  0  0  0
  4  7  1  1  0  0  0
  4  5  1  0  0  0  0
  6  5  1  0  0  0  0
  9 11  1  0  0  0  0
 10  7  1  6  0  0  0
 10 18  1  0  0  0  0
 10 16  1  0  0  0  0
 11 14  2  0  0  0  0
 11 18  1  0  0  0  0
 12 15  1  0  0  0  0
 12 13  1  0  0  0  0
 14 17  1  0  0  0  0
 15  8  1  0  0  0  0
 16 13  2  0  0  0  0
 17 15  2  0  0  0  0
 18 12  2  0  0  0  0
 19 21  1  6  0  0  0
 20 21  1  0  0  0  0
 22 26  1  6  0  0  0
 22 23  1  0  0  0  0
 22 19  1  0  0  0  0
 23 25  1  0  0  0  0
 23 24  2  0  0  0  0
 27 28  1  0  0  0  0
 27 26  1  0  0  0  0
 31 30  1  0  0  0  0
 32 30  1  0  0  0  0
 32 29  1  1  0  0  0
 33 35  1  0  0  0  0
 33 34  1  0  0  0  0
 34 30  1  0  0  0  0
 35 32  1  0  0  0  0
 35 28  1  1  0  0  0
M  END
>  <MODEL>
3

>  <REMARK>
 VINA RESULT:      -7.7      1.626      2.039
  Name = 
  12 active torsions:
  status: ('A' for Active; 'I' for Inactive)
    1  A    between atoms: C_2  and  C_6
    2  A    between atoms: C_2  and  C_12
    3  A    between atoms: C_2  and  C_33
    4  A    between atoms: C_3  and  N_8
    5  A    between atoms: C_3  and  C_35
    6  A    between atoms: C_6  and  C_7
    7  A    between atoms: N_8  and  C_30
    8  A    between atoms: C_13  and  C_15
    9  A    between atoms: C_15  and  C_24
   10  A    between atoms: C_15  and  C_30
   11  A    between atoms: C_24  and  C_27
   12  A    between atoms: C_24  and  C_28
                            x       y       z     vdW  Elec       q    Type
                         _______ _______ _______ _____ _____    ______ ____

>  <TORSDO>
F 12

$$$$
=
 OpenBabel11062415363D

 35 38  0  0  1  0  0  0  0  0999 V2000
  187.2450  176.4720  143.5990 C   0  0  0  0  0  2  0  0  0  0  0  0
  188.2950  177.5590  143.4840 C   0  0  1  0  0  3  0  0  0  0  0  0
  187.5910  177.3160  144.8090 C   0  0  1  0  0  3  0  0  0  0  0  0
  186.5200  178.3750  145.0250 C   0  0  2  0  0  3  0  0  0  0  0  0
  186.3090  178.5990  146.5130 C   0  0  0  0  0  2  0  0  0  0  0  0
  187.3990  177.9080  147.3080 C   0  0  0  0  0  1  0  0  0  0  0  0
  185.2100  177.9020  144.3980 C   0  0  0  0  0  2  0  0  0  0  0  0
  180.1850  178.5210  141.5730 N   0  0  0  0  0  1  0  0  0  0  0  0
  186.1580  178.9760  141.2800 Cl  0  0  0  0  0  0  0  0  0  0  0  0
  184.2860  179.0510  143.9760 C   0  0  2  0  0  3  0  0  0  0  0  0
  184.4130  178.8280  141.3730 C   0  0  0  0  0  0  0  0  0  0  0  0
  182.3710  178.7850  142.6550 C   0  0  0  0  0  0  0  0  0  0  0  0
  181.8790  178.8980  143.9750 N   0  0  0  0  0  0  0  0  0  0  0  0
  183.6600  178.6560  140.2000 C   0  0  0  0  0  3  0  0  0  0  0  0
  181.6030  178.6140  141.5020 C   0  0  0  0  0  0  0  0  0  0  0  0
  183.0210  179.1020  144.8640 C   0  0  0  0  0  3  0  0  0  0  0  0
  182.2590  178.5480  140.2640 C   0  0  0  0  0  3  0  0  0  0  0  0
  183.7350  178.8780  142.5990 C   0  0  0  0  0  0  0  0  0  0  0  0
  189.6980  176.9490  143.5480 C   0  0  1  0  0  3  0  0  0  0  0  0
  190.7330  174.7750  143.3590 O   0  0  0  0  0  1  0  0  0  0  0  0
  189.8020  175.6340  142.7710 C   0  0  0  0  0  2  0  0  0  0  0  0
  190.8240  177.9320  143.1860 C   0  0  1  0  0  3  0  0  0  0  0  0
  191.6530  178.3710  144.3580 C   0  0  0  0  0  0  0  0  0  0  0  0
  192.2190  179.4960  144.3640 O   0  0  0  0  0  0  0  0  0  0  0  0
  191.7940  177.5050  145.4780 N   0  0  0  0  0  1  0  0  0  0  0  0
  191.6930  177.3830  142.0620 C   0  0  0  0  0  2  0  0  0  0  0  0
  191.3780  178.0530  140.8100 N   0  0  0  0  0  2  0  0  0  0  0  0
  191.3300  177.0300  139.7770 C   0  0  0  0  0  2  0  0  0  0  0  0
  190.9020  176.2470  137.0380 C   0  0  0  0  0  1  0  0  0  0  0  0
  189.5470  178.2580  137.4630 N   0  0  0  0  0  0  0  0  0  0  0  0
  188.5460  178.3100  136.4110 C   0  0  0  0  0  1  0  0  0  0  0  0
  189.7390  176.8590  137.8120 C   0  0  2  0  0  3  0  0  0  0  0  0
  189.0570  177.9830  139.7270 C   0  0  0  0  0  2  0  0  0  0  0  0
  188.9860  178.8990  138.5890 N   0  0  0  0  0  2  0  0  0  0  0  0
  189.8890  176.8020  139.3140 C   0  0  2  0  0  3  0  0  0  0  0  0
  1  3  1  0  0  0  0
  2 19  1  1  0  0  0
  2  1  1  0  0  0  0
  2  3  1  0  0  0  0
  3  4  1  6  0  0  0
  4  7  1  1  0  0  0
  4  5  1  0  0  0  0
  5  6  1  0  0  0  0
  9 11  1  0  0  0  0
 10  7  1  1  0  0  0
 10 16  1  0  0  0  0
 11 18  1  0  0  0  0
 12 13  1  0  0  0  0
 13 16  2  0  0  0  0
 14 17  1  0  0  0  0
 14 11  2  0  0  0  0
 15  8  1  0  0  0  0
 15 12  1  0  0  0  0
 17 15  2  0  0  0  0
 18 12  2  0  0  0  0
 18 10  1  0  0  0  0
 19 21  1  6  0  0  0
 21 20  1  0  0  0  0
 22 26  1  6  0  0  0
 22 19  1  0  0  0  0
 22 23  1  0  0  0  0
 23 24  2  0  0  0  0
 23 25  1  0  0  0  0
 27 26  1  0  0  0  0
 28 27  1  0  0  0  0
 30 32  1  0  0  0  0
 30 34  1  0  0  0  0
 31 30  1  0  0  0  0
 32 29  1  6  0  0  0
 32 35  1  0  0  0  0
 34 33  1  0  0  0  0
 35 33  1  0  0  0  0
 35 28  1  6  0  0  0
M  END
>  <MODEL>
4

>  <REMARK>
 VINA RESULT:      -7.7      4.203      7.852
  Name = 
  12 active torsions:
  status: ('A' for Active; 'I' for Inactive)
    1  A    between atoms: C_2  and  C_6
    2  A    between atoms: C_2  and  C_12
    3  A    between atoms: C_2  and  C_33
    4  A    between atoms: C_3  and  N_8
    5  A    between atoms: C_3  and  C_35
    6  A    between atoms: C_6  and  C_7
    7  A    between atoms: N_8  and  C_30
    8  A    between atoms: C_13  and  C_15
    9  A    between atoms: C_15  and  C_24
   10  A    between atoms: C_15  and  C_30
   11  A    between atoms: C_24  and  C_27
   12  A    between atoms: C_24  and  C_28
                            x       y       z     vdW  Elec       q    Type
                         _______ _______ _______ _____ _____    ______ ____

>  <TORSDO>
F 12

$$$$
=
 OpenBabel11062415363D

 35 38  0  0  1  0  0  0  0  0999 V2000
  187.9990  176.3570  143.2630 C   0  0  0  0  0  2  0  0  0  0  0  0
  188.7220  177.6410  142.9040 C   0  0  1  0  0  3  0  0  0  0  0  0
  188.6860  177.1640  144.3470 C   0  0  1  0  0  3  0  0  0  0  0  0
  187.6540  177.9640  145.1280 C   0  0  2  0  0  3  0  0  0  0  0  0
  187.6910  177.5600  146.5930 C   0  0  0  0  0  2  0  0  0  0  0  0
  189.0990  177.1670  146.9940 C   0  0  0  0  0  1  0  0  0  0  0  0
  186.2640  177.6810  144.5640 C   0  0  0  0  0  2  0  0  0  0  0  0
  180.5940  178.7700  144.0310 N   0  0  0  0  0  1  0  0  0  0  0  0
  185.9520  178.7990  141.3350 Cl  0  0  0  0  0  0  0  0  0  0  0  0
  185.3450  178.9090  144.5600 C   0  0  2  0  0  3  0  0  0  0  0  0
  184.3890  178.7750  142.1300 C   0  0  0  0  0  0  0  0  0  0  0  0
  183.0450  178.8330  144.1310 C   0  0  0  0  0  0  0  0  0  0  0  0
  183.1400  178.9330  145.5380 N   0  0  0  0  0  0  0  0  0  0  0  0
  183.2140  178.7020  141.3630 C   0  0  0  0  0  3  0  0  0  0  0  0
  181.8640  178.7630  143.3900 C   0  0  0  0  0  0  0  0  0  0  0  0
  184.5580  179.0190  145.8850 C   0  0  0  0  0  3  0  0  0  0  0  0
  181.9550  178.6950  141.9910 C   0  0  0  0  0  3  0  0  0  0  0  0
  184.2720  178.8280  143.5250 C   0  0  0  0  0  0  0  0  0  0  0  0
  190.0980  177.3260  142.3110 C   0  0  1  0  0  3  0  0  0  0  0  0
  191.5760  175.7700  143.4200 O   0  0  0  0  0  1  0  0  0  0  0  0
  190.5090  175.8670  142.5240 C   0  0  0  0  0  2  0  0  0  0  0  0
  190.2650  177.7720  140.8490 C   0  0  1  0  0  3  0  0  0  0  0  0
  191.4070  177.1090  140.1340 C   0  0  0  0  0  0  0  0  0  0  0  0
  192.5970  177.4580  140.3540 O   0  0  0  0  0  0  0  0  0  0  0  0
  191.1390  176.0680  139.2010 N   0  0  0  0  0  1  0  0  0  0  0  0
  188.9620  177.6240  140.0750 C   0  0  0  0  0  2  0  0  0  0  0  0
  188.7520  178.7810  139.2180 N   0  0  0  0  0  2  0  0  0  0  0  0
  188.5310  178.2810  137.8700 C   0  0  0  0  0  2  0  0  0  0  0  0
  189.1490  175.9800  136.2510 C   0  0  0  0  0  1  0  0  0  0  0  0
  186.8970  176.7540  135.6250 N   0  0  0  0  0  0  0  0  0  0  0  0
  186.2580  175.6460  134.9360 C   0  0  0  0  0  1  0  0  0  0  0  0
  187.7060  176.1920  136.6960 C   0  0  2  0  0  3  0  0  0  0  0  0
  186.1610  177.6390  137.6530 C   0  0  0  0  0  2  0  0  0  0  0  0
  185.8670  177.5070  136.2270 N   0  0  0  0  0  2  0  0  0  0  0  0
  187.5480  177.1080  137.8870 C   0  0  2  0  0  3  0  0  0  0  0  0
  1  3  1  0  0  0  0
  2 19  1  6  0  0  0
  2  1  1  0  0  0  0
  2  3  1  0  0  0  0
  3  4  1  1  0  0  0
  4  7  1  6  0  0  0
  4  5  1  0  0  0  0
  5  6  1  0  0  0  0
  9 11  1  0  0  0  0
 10  7  1  1  0  0  0
 10 16  1  0  0  0  0
 11 18  1  0  0  0  0
 12 13  1  0  0  0  0
 13 16  2  0  0  0  0
 14 17  1  0  0  0  0
 14 11  2  0  0  0  0
 15  8  1  0  0  0  0
 15 12  1  0  0  0  0
 17 15  2  0  0  0  0
 18 12  2  0  0  0  0
 18 10  1  0  0  0  0
 19 21  1  6  0  0  0
 21 20  1  0  0  0  0
 22 26  1  6  0  0  0
 22 19  1  0  0  0  0
 23 24  2  0  0  0  0
 23 22  1  0  0  0  0
 25 23  1  0  0  0  0
 27 26  1  0  0  0  0
 28 27  1  0  0  0  0
 30 34  1  0  0  0  0
 30 32  1  0  0  0  0
 31 30  1  0  0  0  0
 32 29  1  6  0  0  0
 32 35  1  0  0  0  0
 33 35  1  0  0  0  0
 34 33  1  0  0  0  0
 35 28  1  6  0  0  0
M  END
>  <MODEL>
5

>  <REMARK>
 VINA RESULT:      -7.7      4.087      6.871
  Name = 
  12 active torsions:
  status: ('A' for Active; 'I' for Inactive)
    1  A    between atoms: C_2  and  C_6
    2  A    between atoms: C_2  and  C_12
    3  A    between atoms: C_2  and  C_33
    4  A    between atoms: C_3  and  N_8
    5  A    between atoms: C_3  and  C_35
    6  A    between atoms: C_6  and  C_7
    7  A    between atoms: N_8  and  C_30
    8  A    between atoms: C_13  and  C_15
    9  A    between atoms: C_15  and  C_24
   10  A    between atoms: C_15  and  C_30
   11  A    between atoms: C_24  and  C_27
   12  A    between atoms: C_24  and  C_28
                            x       y       z     vdW  Elec       q    Type
                         _______ _______ _______ _____ _____    ______ ____

>  <TORSDO>
F 12

$$$$
=
 OpenBabel11062415363D

 35 38  0  0  1  0  0  0  0  0999 V2000
  185.6390  178.7690  141.5760 C   0  0  0  0  0  2  0  0  0  0  0  0
  184.2490  178.1730  141.4790 C   0  0  1  0  0  3  0  0  0  0  0  0
  184.5940  179.1200  142.6160 C   0  0  1  0  0  3  0  0  0  0  0  0
  184.8450  178.3260  143.8890 C   0  0  2  0  0  3  0  0  0  0  0  0
  183.9660  178.8580  145.0100 C   0  0  0  0  0  2  0  0  0  0  0  0
  182.5220  178.9290  144.5560 C   0  0  0  0  0  1  0  0  0  0  0  0
  186.3110  178.4680  144.2920 C   0  0  0  0  0  2  0  0  0  0  0  0
  190.8200  177.2810  147.7390 N   0  0  0  0  0  1  0  0  0  0  0  0
  188.4490  176.7150  142.2590 Cl  0  0  0  0  0  0  0  0  0  0  0  0
  186.8490  177.2620  145.0730 C   0  0  2  0  0  3  0  0  0  0  0  0
  189.1380  176.8970  143.8620 C   0  0  0  0  0  0  0  0  0  0  0  0
  188.8820  177.2450  146.2340 C   0  0  0  0  0  0  0  0  0  0  0  0
  187.9030  177.4340  147.2360 N   0  0  0  0  0  0  0  0  0  0  0  0
  190.5280  176.8100  144.0410 C   0  0  0  0  0  3  0  0  0  0  0  0
  190.2610  177.1610  146.4360 C   0  0  0  0  0  0  0  0  0  0  0  0
  186.5930  177.4230  146.5890 C   0  0  0  0  0  3  0  0  0  0  0  0
  191.0880  176.9430  145.3240 C   0  0  0  0  0  3  0  0  0  0  0  0
  188.3340  177.1290  144.9860 C   0  0  0  0  0  0  0  0  0  0  0  0
  183.4200  178.9280  140.4380 C   0  0  1  0  0  3  0  0  0  0  0  0
  184.4040  180.5570  138.9490 O   0  0  0  0  0  1  0  0  0  0  0  0
  184.1970  179.1890  139.1450 C   0  0  0  0  0  2  0  0  0  0  0  0
  182.0360  178.3110  140.1720 C   0  0  1  0  0  3  0  0  0  0  0  0
  180.9800  178.7330  141.1520 C   0  0  0  0  0  0  0  0  0  0  0  0
  181.0340  179.8590  141.7150 O   0  0  0  0  0  0  0  0  0  0  0  0
  179.9020  177.8510  141.4430 N   0  0  0  0  0  1  0  0  0  0  0  0
  181.5930  178.5530  138.7350 C   0  0  0  0  0  2  0  0  0  0  0  0
  180.8240  179.7850  138.6480 N   0  0  0  0  0  2  0  0  0  0  0  0
  181.0190  180.3180  137.3090 C   0  0  0  0  0  2  0  0  0  0  0  0
  180.8650  181.2690  134.5940 C   0  0  0  0  0  1  0  0  0  0  0  0
  180.9970  183.2350  136.0700 N   0  0  0  0  0  0  0  0  0  0  0  0
  180.5310  184.3680  135.2880 C   0  0  0  0  0  1  0  0  0  0  0  0
  180.1900  182.0850  135.6920 C   0  0  2  0  0  3  0  0  0  0  0  0
  179.9230  182.4230  137.9740 C   0  0  0  0  0  2  0  0  0  0  0  0
  180.7070  183.5260  137.4200 N   0  0  0  0  0  2  0  0  0  0  0  0
  179.9100  181.3140  136.9600 C   0  0  2  0  0  3  0  0  0  0  0  0
  1  3  1  0  0  0  0
  2 19  1  6  0  0  0
  2  1  1  0  0  0  0
  2  3  1  0  0  0  0
  3  4  1  1  0  0  0
  4  7  1  1  0  0  0
  4  5  1  0  0  0  0
  6  5  1  0  0  0  0
  9 11  1  0  0  0  0
 10  7  1  6  0  0  0
 10 16  1  0  0  0  0
 11 14  2  0  0  0  0
 11 18  1  0  0  0  0
 12 15  1  0  0  0  0
 12 13  1  0  0  0  0
 14 17  1  0  0  0  0
 15  8  1  0  0  0  0
 16 13  2  0  0  0  0
 17 15  2  0  0  0  0
 18 10  1  0  0  0  0
 18 12  2  0  0  0  0
 19 21  1  6  0  0  0
 20 21  1  0  0  0  0
 22 26  1  6  0  0  0
 22 19  1  0  0  0  0
 22 23  1  0  0  0  0
 23 25  1  0  0  0  0
 23 24  2  0  0  0  0
 27 26  1  0  0  0  0
 28 27  1  0  0  0  0
 30 34  1  0  0  0  0
 31 30  1  0  0  0  0
 32 29  1  6  0  0  0
 32 30  1  0  0  0  0
 32 35  1  0  0  0  0
 34 33  1  0  0  0  0
 35 28  1  1  0  0  0
 35 33  1  0  0  0  0
M  END
>  <MODEL>
6

>  <REMARK>
 VINA RESULT:      -7.6      3.040      4.678
  Name = 
  12 active torsions:
  status: ('A' for Active; 'I' for Inactive)
    1  A    between atoms: C_2  and  C_6
    2  A    between atoms: C_2  and  C_12
    3  A    between atoms: C_2  and  C_33
    4  A    between atoms: C_3  and  N_8
    5  A    between atoms: C_3  and  C_35
    6  A    between atoms: C_6  and  C_7
    7  A    between atoms: N_8  and  C_30
    8  A    between atoms: C_13  and  C_15
    9  A    between atoms: C_15  and  C_24
   10  A    between atoms: C_15  and  C_30
   11  A    between atoms: C_24  and  C_27
   12  A    between atoms: C_24  and  C_28
                            x       y       z     vdW  Elec       q    Type
                         _______ _______ _______ _____ _____    ______ ____

>  <TORSDO>
F 12

$$$$
=
 OpenBabel11062415363D

 35 38  0  0  1  0  0  0  0  0999 V2000
  185.5420  178.8080  141.5790 C   0  0  0  0  0  2  0  0  0  0  0  0
  184.4020  177.8840  141.1970 C   0  0  1  0  0  3  0  0  0  0  0  0
  184.1810  178.9850  142.2220 C   0  0  1  0  0  3  0  0  0  0  0  0
  184.1900  178.3920  143.6230 C   0  0  2  0  0  3  0  0  0  0  0  0
  183.0580  178.9910  144.4430 C   0  0  0  0  0  2  0  0  0  0  0  0
  181.7750  179.0040  143.6350 C   0  0  0  0  0  1  0  0  0  0  0  0
  185.5210  178.7130  144.2990 C   0  0  0  0  0  2  0  0  0  0  0  0
  189.4930  178.2480  148.4970 N   0  0  0  0  0  1  0  0  0  0  0  0
  187.9190  176.6780  142.9260 Cl  0  0  0  0  0  0  0  0  0  0  0  0
  185.9400  177.6750  145.3480 C   0  0  2  0  0  3  0  0  0  0  0  0
  188.3750  177.1530  144.5520 C   0  0  0  0  0  0  0  0  0  0  0  0
  187.7880  177.9060  146.7660 C   0  0  0  0  0  0  0  0  0  0  0  0
  186.6770  178.2460  147.5720 N   0  0  0  0  0  0  0  0  0  0  0  0
  189.7260  177.1290  144.9360 C   0  0  0  0  0  3  0  0  0  0  0  0
  189.1240  177.8890  147.1710 C   0  0  0  0  0  0  0  0  0  0  0  0
  185.4710  178.0940  146.7600 C   0  0  0  0  0  3  0  0  0  0  0  0
  190.0990  177.4970  146.2420 C   0  0  0  0  0  3  0  0  0  0  0  0
  187.4210  177.5610  145.4940 C   0  0  0  0  0  0  0  0  0  0  0  0
  183.7930  178.3190  139.8620 C   0  0  1  0  0  3  0  0  0  0  0  0
  183.9230  180.5630  138.9770 O   0  0  0  0  0  1  0  0  0  0  0  0
  184.6390  179.3760  139.1470 C   0  0  0  0  0  2  0  0  0  0  0  0
  183.4150  177.1500  138.9370 C   0  0  1  0  0  3  0  0  0  0  0  0
  181.9640  176.7670  138.9960 C   0  0  0  0  0  0  0  0  0  0  0  0
  181.6070  175.6660  139.4920 O   0  0  0  0  0  0  0  0  0  0  0  0
  180.9820  177.6650  138.4920 N   0  0  0  0  0  1  0  0  0  0  0  0
  183.8640  177.4140  137.5050 C   0  0  0  0  0  2  0  0  0  0  0  0
  184.8050  176.3910  137.0780 N   0  0  0  0  0  2  0  0  0  0  0  0
  186.1190  177.0120  137.0260 C   0  0  0  0  0  2  0  0  0  0  0  0
  188.1340  177.8780  138.8950 C   0  0  0  0  0  1  0  0  0  0  0  0
  189.2850  177.0300  136.8910 N   0  0  0  0  0  0  0  0  0  0  0  0
  190.6570  176.7600  137.2890 C   0  0  0  0  0  1  0  0  0  0  0  0
  188.4290  176.6700  138.0120 C   0  0  2  0  0  3  0  0  0  0  0  0
  187.7790  175.3980  136.1800 C   0  0  0  0  0  2  0  0  0  0  0  0
  188.9870  176.1450  135.8330 N   0  0  0  0  0  2  0  0  0  0  0  0
  187.2040  176.0090  137.4270 C   0  0  2  0  0  3  0  0  0  0  0  0
  1  3  1  0  0  0  0
  2 19  1  6  0  0  0
  2  1  1  0  0  0  0
  2  3  1  0  0  0  0
  3  4  1  1  0  0  0
  4  7  1  1  0  0  0
  4  5  1  0  0  0  0
  6  5  1  0  0  0  0
  9 11  1  0  0  0  0
 10  7  1  6  0  0  0
 10 18  1  0  0  0  0
 10 16  1  0  0  0  0
 11 14  2  0  0  0  0
 11 18  1  0  0  0  0
 12 15  1  0  0  0  0
 12 13  1  0  0  0  0
 14 17  1  0  0  0  0
 15  8  1  0  0  0  0
 16 13  2  0  0  0  0
 17 15  2  0  0  0  0
 18 12  2  0  0  0  0
 19 21  1  6  0  0  0
 20 21  1  0  0  0  0
 22 26  1  6  0  0  0
 22 23  1  0  0  0  0
 22 19  1  0  0  0  0
 23 24  2  0  0  0  0
 25 23  1  0  0  0  0
 27 26  1  0  0  0  0
 28 27  1  0  0  0  0
 30 31  1  0  0  0  0
 30 32  1  0  0  0  0
 32 29  1  6  0  0  0
 33 35  1  0  0  0  0
 34 33  1  0  0  0  0
 34 30  1  0  0  0  0
 35 28  1  6  0  0  0
 35 32  1  0  0  0  0
M  END
>  <MODEL>
7

>  <REMARK>
 VINA RESULT:      -7.6      2.588      3.476
  Name = 
  12 active torsions:
  status: ('A' for Active; 'I' for Inactive)
    1  A    between atoms: C_2  and  C_6
    2  A    between atoms: C_2  and  C_12
    3  A    between atoms: C_2  and  C_33
    4  A    between atoms: C_3  and  N_8
    5  A    between atoms: C_3  and  C_35
    6  A    between atoms: C_6  and  C_7
    7  A    between atoms: N_8  and  C_30
    8  A    between atoms: C_13  and  C_15
    9  A    between atoms: C_15  and  C_24
   10  A    between atoms: C_15  and  C_30
   11  A    between atoms: C_24  and  C_27
   12  A    between atoms: C_24  and  C_28
                            x       y       z     vdW  Elec       q    Type
                         _______ _______ _______ _____ _____    ______ ____

>  <TORSDO>
F 12

$$$$
=
 OpenBabel11062415363D

 35 38  0  0  1  0  0  0  0  0999 V2000
  190.5120  176.3790  141.4010 C   0  0  0  0  0  2  0  0  0  0  0  0
  189.4540  177.2480  140.7500 C   0  0  1  0  0  3  0  0  0  0  0  0
  190.5040  177.8730  141.6540 C   0  0  1  0  0  3  0  0  0  0  0  0
  189.9010  178.1630  143.0200 C   0  0  2  0  0  3  0  0  0  0  0  0
  190.5380  179.4100  143.6100 C   0  0  0  0  0  2  0  0  0  0  0  0
  191.8140  179.0500  144.3450 C   0  0  0  0  0  1  0  0  0  0  0  0
  190.1620  176.9790  143.9480 C   0  0  0  0  0  2  0  0  0  0  0  0
  185.6730  179.2240  146.8530 N   0  0  0  0  0  1  0  0  0  0  0  0
  190.9220  176.3450  147.2340 Cl  0  0  0  0  0  0  0  0  0  0  0  0
  188.8990  176.4640  144.6510 C   0  0  2  0  0  3  0  0  0  0  0  0
  189.3940  177.1980  147.1110 C   0  0  0  0  0  0  0  0  0  0  0  0
  187.4230  177.8140  145.8660 C   0  0  0  0  0  0  0  0  0  0  0  0
  186.7850  177.6230  144.6200 N   0  0  0  0  0  0  0  0  0  0  0  0
  188.9140  177.9370  148.2050 C   0  0  0  0  0  3  0  0  0  0  0  0
  186.9250  178.5530  146.9410 C   0  0  0  0  0  0  0  0  0  0  0  0
  187.6360  176.7550  143.8080 C   0  0  0  0  0  3  0  0  0  0  0  0
  187.6840  178.6140  148.1200 C   0  0  0  0  0  3  0  0  0  0  0  0
  188.6250  177.1640  145.9400 C   0  0  0  0  0  0  0  0  0  0  0  0
  189.8220  177.5290  139.2920 C   0  0  1  0  0  3  0  0  0  0  0  0
  191.9300  176.8320  138.3380 O   0  0  0  0  0  1  0  0  0  0  0  0
  190.6430  176.3990  138.6650 C   0  0  0  0  0  2  0  0  0  0  0  0
  188.6290  177.9400  138.4130 C   0  0  1  0  0  3  0  0  0  0  0  0
  188.3450  176.9910  137.2850 C   0  0  0  0  0  0  0  0  0  0  0  0
  187.8590  175.8500  137.5070 O   0  0  0  0  0  0  0  0  0  0  0  0
  188.6230  177.3890  135.9470 N   0  0  0  0  0  1  0  0  0  0  0  0
  187.3860  178.1930  139.2560 C   0  0  0  0  0  2  0  0  0  0  0  0
  186.3450  178.8030  138.4440 N   0  0  0  0  0  2  0  0  0  0  0  0
  185.0750  178.2510  138.8890 C   0  0  0  0  0  2  0  0  0  0  0  0
  184.6990  178.2490  141.7460 C   0  0  0  0  0  1  0  0  0  0  0  0
  182.4720  178.2260  140.6970 N   0  0  0  0  0  0  0  0  0  0  0  0
  181.5330  178.6550  141.7190 C   0  0  0  0  0  1  0  0  0  0  0  0
  183.6930  178.9980  140.8780 C   0  0  2  0  0  3  0  0  0  0  0  0
  182.9030  179.4070  138.7320 C   0  0  0  0  0  2  0  0  0  0  0  0
  181.9190  178.6010  139.4540 N   0  0  0  0  0  2  0  0  0  0  0  0
  184.1960  179.3460  139.4970 C   0  0  2  0  0  3  0  0  0  0  0  0
  1  3  1  0  0  0  0
  2 19  1  6  0  0  0
  2  1  1  0  0  0  0
  2  3  1  0  0  0  0
  3  4  1  1  0  0  0
  4  5  1  1  0  0  0
  4  7  1  0  0  0  0
  5  6  1  0  0  0  0
  8 15  1  0  0  0  0
 10  7  1  6  0  0  0
 10 18  1  0  0  0  0
 11  9  1  0  0  0  0
 11 14  1  0  0  0  0
 12 18  1  0  0  0  0
 12 15  2  0  0  0  0
 13 12  1  0  0  0  0
 15 17  1  0  0  0  0
 16 13  2  0  0  0  0
 16 10  1  0  0  0  0
 17 14  2  0  0  0  0
 18 11  2  0  0  0  0
 19 21  1  6  0  0  0
 20 21  1  0  0  0  0
 22 26  1  1  0  0  0
 22 19  1  0  0  0  0
 23 24  2  0  0  0  0
 23 22  1  0  0  0  0
 25 23  1  0  0  0  0
 27 28  1  0  0  0  0
 27 26  1  0  0  0  0
 30 32  1  0  0  0  0
 30 31  1  0  0  0  0
 32 29  1  6  0  0  0
 33 34  1  0  0  0  0
 33 35  1  0  0  0  0
 34 30  1  0  0  0  0
 35 28  1  6  0  0  0
 35 32  1  0  0  0  0
M  END
>  <MODEL>
8

>  <REMARK>
 VINA RESULT:      -7.5      3.790      5.912
  Name = 
  12 active torsions:
  status: ('A' for Active; 'I' for Inactive)
    1  A    between atoms: C_2  and  C_6
    2  A    between atoms: C_2  and  C_12
    3  A    between atoms: C_2  and  C_33
    4  A    between atoms: C_3  and  N_8
    5  A    between atoms: C_3  and  C_35
    6  A    between atoms: C_6  and  C_7
    7  A    between atoms: N_8  and  C_30
    8  A    between atoms: C_13  and  C_15
    9  A    between atoms: C_15  and  C_24
   10  A    between atoms: C_15  and  C_30
   11  A    between atoms: C_24  and  C_27
   12  A    between atoms: C_24  and  C_28
                            x       y       z     vdW  Elec       q    Type
                         _______ _______ _______ _____ _____    ______ ____

>  <TORSDO>
F 12

$$$$
=
 OpenBabel11062415363D

 35 38  0  0  1  0  0  0  0  0999 V2000
  190.6430  177.3860  140.7410 C   0  0  0  0  0  2  0  0  0  0  0  0
  189.6440  176.9130  139.7040 C   0  0  1  0  0  3  0  0  0  0  0  0
  189.4020  178.2090  140.4590 C   0  0  1  0  0  3  0  0  0  0  0  0
  188.3710  177.9820  141.5540 C   0  0  2  0  0  3  0  0  0  0  0  0
  187.2590  179.0120  141.4360 C   0  0  0  0  0  2  0  0  0  0  0  0
  186.2570  178.5840  140.3820 C   0  0  0  0  0  1  0  0  0  0  0  0
  189.0430  178.1250  142.9180 C   0  0  0  0  0  2  0  0  0  0  0  0
  188.4040  177.8920  148.6760 N   0  0  0  0  0  1  0  0  0  0  0  0
  191.6810  176.1890  143.9500 Cl  0  0  0  0  0  0  0  0  0  0  0  0
  188.5330  177.1190  143.9580 C   0  0  2  0  0  3  0  0  0  0  0  0
  190.7220  176.7020  145.3260 C   0  0  0  0  0  0  0  0  0  0  0  0
  188.6350  177.4520  146.2730 C   0  0  0  0  0  0  0  0  0  0  0  0
  187.2960  177.7490  145.9310 N   0  0  0  0  0  0  0  0  0  0  0  0
  191.2990  176.7460  146.6060 C   0  0  0  0  0  3  0  0  0  0  0  0
  189.1870  177.5010  147.5540 C   0  0  0  0  0  0  0  0  0  0  0  0
  187.1420  177.5310  144.4940 C   0  0  0  0  0  3  0  0  0  0  0  0
  190.5350  177.1450  147.7170 C   0  0  0  0  0  3  0  0  0  0  0  0
  189.3780  177.0760  145.1880 C   0  0  0  0  0  0  0  0  0  0  0  0
  190.1450  177.2450  138.2960 C   0  0  1  0  0  3  0  0  0  0  0  0
  191.0920  175.0220  138.3180 O   0  0  0  0  0  1  0  0  0  0  0  0
  191.2810  176.3230  137.8450 C   0  0  0  0  0  2  0  0  0  0  0  0
  189.0290  177.3540  137.2430 C   0  0  1  0  0  3  0  0  0  0  0  0
  188.3830  178.7070  137.1760 C   0  0  0  0  0  0  0  0  0  0  0  0
  189.0650  179.7570  137.3240 O   0  0  0  0  0  0  0  0  0  0  0  0
  186.9840  178.8040  136.9350 N   0  0  0  0  0  1  0  0  0  0  0  0
  189.5170  176.8990  135.8740 C   0  0  0  0  0  2  0  0  0  0  0  0
  188.5010  176.0870  135.2230 N   0  0  0  0  0  2  0  0  0  0  0  0
  188.0400  175.1140  136.2010 C   0  0  0  0  0  2  0  0  0  0  0  0
  185.2840  175.6420  136.8540 C   0  0  0  0  0  1  0  0  0  0  0  0
  185.7500  173.2910  137.4170 N   0  0  0  0  0  0  0  0  0  0  0  0
  184.4600  172.6290  137.5190 C   0  0  0  0  0  1  0  0  0  0  0  0
  185.6580  174.2580  136.3330 C   0  0  2  0  0  3  0  0  0  0  0  0
  187.3680  172.7720  135.8190 C   0  0  0  0  0  2  0  0  0  0  0  0
  186.6820  172.3060  137.0230 N   0  0  0  0  0  2  0  0  0  0  0  0
  186.9710  174.2040  135.5890 C   0  0  2  0  0  3  0  0  0  0  0  0
  2 19  1  6  0  0  0
  2  3  1  0  0  0  0
  2  1  1  0  0  0  0
  3  1  1  0  0  0  0
  3  4  1  1  0  0  0
  4  5  1  1  0  0  0
  4  7  1  0  0  0  0
  6  5  1  0  0  0  0
  9 11  1  0  0  0  0
 10  7  1  6  0  0  0
 10 16  1  0  0  0  0
 10 18  1  0  0  0  0
 11 14  1  0  0  0  0
 12 15  2  0  0  0  0
 13 12  1  0  0  0  0
 14 17  2  0  0  0  0
 15 17  1  0  0  0  0
 15  8  1  0  0  0  0
 16 13  2  0  0  0  0
 18 11  2  0  0  0  0
 18 12  1  0  0  0  0
 19 21  1  6  0  0  0
 21 20  1  0  0  0  0
 22 26  1  6  0  0  0
 22 19  1  0  0  0  0
 23 22  1  0  0  0  0
 23 24  2  0  0  0  0
 25 23  1  0  0  0  0
 27 26  1  0  0  0  0
 27 28  1  0  0  0  0
 30 31  1  0  0  0  0
 32 29  1  1  0  0  0
 32 30  1  0  0  0  0
 33 34  1  0  0  0  0
 34 30  1  0  0  0  0
 35 33  1  0  0  0  0
 35 28  1  1  0  0  0
 35 32  1  0  0  0  0
M  END
>  <MODEL>
9

>  <REMARK>
 VINA RESULT:      -7.3      3.538      4.979
  Name = 
  12 active torsions:
  status: ('A' for Active; 'I' for Inactive)
    1  A    between atoms: C_2  and  C_6
    2  A    between atoms: C_2  and  C_12
    3  A    between atoms: C_2  and  C_33
    4  A    between atoms: C_3  and  N_8
    5  A    between atoms: C_3  and  C_35
    6  A    between atoms: C_6  and  C_7
    7  A    between atoms: N_8  and  C_30
    8  A    between atoms: C_13  and  C_15
    9  A    between atoms: C_15  and  C_24
   10  A    between atoms: C_15  and  C_30
   11  A    between atoms: C_24  and  C_27
   12  A    between atoms: C_24  and  C_28
                            x       y       z     vdW  Elec       q    Type
                         _______ _______ _______ _____ _____    ______ ____

>  <TORSDO>
F 12

$$$$
