=
 OpenBabel11062413283D

 30 33  0  0  1  0  0  0  0  0999 V2000
  191.1770  177.9640  142.1520 O   0  0  0  0  0  0  0  0  0  0  0  0
  191.9510  178.5500  143.2010 C   0  0  0  0  0  2  0  0  0  0  0  0
  190.6480  176.7880  142.7200 C   0  0  2  0  0  3  0  0  0  0  0  0
  188.3920  176.4040  143.6720 C   0  0  2  0  0  3  0  0  0  0  0  0
  191.4340  178.0870  144.4430 O   0  0  0  0  0  0  0  0  0  0  0  0
  189.3890  176.8340  144.7230 C   0  0  1  0  0  3  0  0  0  0  0  0
  189.2150  176.5290  142.4170 C   0  0  0  0  0  0  0  0  0  0  0  0
  188.7820  176.3460  141.2900 O   0  0  0  0  0  0  0  0  0  0  0  0
  190.5360  177.1220  144.1180 C   0  0  1  0  0  3  0  0  0  0  0  0
  190.1780  177.4690  147.1260 C   0  0  2  0  0  3  0  0  0  0  0  0
  190.4700  178.6760  149.1740 O   0  0  0  0  0  0  0  0  0  0  0  0
  190.9580  176.2020  147.4430 C   0  0  0  0  0  1  0  0  0  0  0  0
  187.7900  177.0920  146.5500 C   0  0  0  0  0  3  0  0  0  0  0  0
  189.6740  178.0730  148.4080 C   0  0  0  0  0  0  0  0  0  0  0  0
  189.0660  177.1560  146.1390 C   0  0  0  0  0  0  0  0  0  0  0  0
  188.2680  177.9160  148.7970 C   0  0  0  0  0  3  0  0  0  0  0  0
  187.3860  177.4380  147.9230 C   0  0  0  0  0  3  0  0  0  0  0  0
  183.8700  179.8570  143.3370 O   0  0  0  0  0  1  0  0  0  0  0  0
  185.2190  178.3140  144.6140 C   0  0  0  0  0  0  0  0  0  0  0  0
  186.3300  177.4670  144.7020 C   0  0  0  0  0  3  0  0  0  0  0  0
  185.8350  178.8720  142.3260 C   0  0  0  0  0  0  0  0  0  0  0  0
  184.9740  179.0160  143.4250 C   0  0  0  0  0  0  0  0  0  0  0  0
  186.9430  178.0190  142.4300 C   0  0  0  0  0  3  0  0  0  0  0  0
  187.1960  177.3150  143.6090 C   0  0  0  0  0  0  0  0  0  0  0  0
  183.9020  178.0560  140.1630 O   0  0  0  0  0  1  0  0  0  0  0  0
  184.6480  179.2250  140.0810 C   0  0  0  0  0  0  0  0  0  0  0  0
  184.5190  179.9690  139.0750 O   0  0  0  0  0  0  0  0  0  0  0  0
  185.5610  179.6010  141.1200 N   0  0  0  0  0  2  0  0  0  0  0  0
  184.3540  178.4670  145.6980 O   0  0  0  0  0  0  0  0  0  0  0  0
  184.7740  179.0080  146.8500 O   0  0  0  0  0  1  0  0  0  0  0  0
  1  2  1  0  0  0  0
  2  5  1  0  0  0  0
  3  1  1  6  0  0  0
  3  9  1  0  0  0  0
  4 24  1  6  0  0  0
  4  6  1  0  0  0  0
  6 15  1  6  0  0  0
  7  3  1  0  0  0  0
  7  4  1  0  0  0  0
  8  7  2  0  0  0  0
  9  5  1  6  0  0  0
  9  6  1  0  0  0  0
 10 12  1  1  0  0  0
 10 14  1  0  0  0  0
 13 17  1  0  0  0  0
 14 16  1  0  0  0  0
 14 11  2  0  0  0  0
 15 13  2  0  0  0  0
 15 10  1  0  0  0  0
 17 16  2  0  0  0  0
 18 22  1  0  0  0  0
 19 20  1  0  0  0  0
 19 29  1  0  0  0  0
 21 23  2  0  0  0  0
 21 22  1  0  0  0  0
 22 19  2  0  0  0  0
 23 24  1  0  0  0  0
 24 20  2  0  0  0  0
 26 25  1  0  0  0  0
 26 28  1  0  0  0  0
 27 26  2  0  0  0  0
 28 21  1  0  0  0  0
 29 30  1  0  0  0  0
M  END
>  <MODEL>
1

>  <REMARK>
 VINA RESULT:      -9.3      0.000      0.000
  Name = 
  4 active torsions:
  status: ('A' for Active; 'I' for Inactive)
    1  A    between atoms: O_6  and  C_14
    2  A    between atoms: C_12  and  C_29
    3  A    between atoms: C_16  and  C_18
    4  A    between atoms: C_19  and  N_30
                            x       y       z     vdW  Elec       q    Type
                         _______ _______ _______ _____ _____    ______ ____

>  <TORSDO>
F 4

$$$$
=
 OpenBabel11062413283D

 30 33  0  0  1  0  0  0  0  0999 V2000
  193.1590  174.8960  138.0120 O   0  0  0  0  0  0  0  0  0  0  0  0
  192.4940  174.0180  137.1010 C   0  0  0  0  0  2  0  0  0  0  0  0
  192.7420  176.1860  137.6250 C   0  0  2  0  0  3  0  0  0  0  0  0
  190.9690  177.6060  138.6170 C   0  0  2  0  0  3  0  0  0  0  0  0
  191.3290  174.6790  136.6200 O   0  0  0  0  0  0  0  0  0  0  0  0
  190.4500  176.7570  137.4780 C   0  0  1  0  0  3  0  0  0  0  0  0
  192.3810  177.0950  138.7450 C   0  0  0  0  0  0  0  0  0  0  0  0
  193.1660  177.4560  139.6070 O   0  0  0  0  0  0  0  0  0  0  0  0
  191.4290  175.9540  137.0770 C   0  0  1  0  0  3  0  0  0  0  0  0
  188.3990  177.6780  136.1580 C   0  0  2  0  0  3  0  0  0  0  0  0
  186.5920  177.8350  134.5940 O   0  0  0  0  0  0  0  0  0  0  0  0
  188.2200  178.9850  136.9130 C   0  0  0  0  0  1  0  0  0  0  0  0
  188.2810  175.6420  137.5800 C   0  0  0  0  0  3  0  0  0  0  0  0
  187.0720  177.2450  135.5960 C   0  0  0  0  0  0  0  0  0  0  0  0
  189.0250  176.6370  137.0710 C   0  0  0  0  0  0  0  0  0  0  0  0
  186.3080  176.1740  136.2460 C   0  0  0  0  0  3  0  0  0  0  0  0
  186.8760  175.4310  137.1920 C   0  0  0  0  0  3  0  0  0  0  0  0
  188.0160  176.7840  143.4220 O   0  0  0  0  0  1  0  0  0  0  0  0
  189.8850  176.2090  142.0050 C   0  0  0  0  0  0  0  0  0  0  0  0
  190.6150  176.4090  140.8280 C   0  0  0  0  0  3  0  0  0  0  0  0
  188.3290  177.9540  141.3270 C   0  0  0  0  0  0  0  0  0  0  0  0
  188.7420  176.9830  142.2530 C   0  0  0  0  0  0  0  0  0  0  0  0
  189.0710  178.1420  140.1530 C   0  0  0  0  0  3  0  0  0  0  0  0
  190.2100  177.3760  139.8960 C   0  0  0  0  0  0  0  0  0  0  0  0
  185.9940  178.3640  139.4670 O   0  0  0  0  0  0  0  0  0  0  0  0
  186.0380  178.9390  140.7310 C   0  0  0  0  0  0  0  0  0  0  0  0
  185.0790  179.6560  141.1150 O   0  0  0  0  0  1  0  0  0  0  0  0
  187.1550  178.7320  141.6050 N   0  0  0  0  0  2  0  0  0  0  0  0
  190.2850  175.2480  142.9340 O   0  0  0  0  0  0  0  0  0  0  0  0
  191.3340  175.4550  143.7410 O   0  0  0  0  0  1  0  0  0  0  0  0
  2  1  1  0  0  0  0
  3  1  1  1  0  0  0
  3  7  1  0  0  0  0
  4  7  1  0  0  0  0
  4 24  1  1  0  0  0
  5  2  1  0  0  0  0
  6 15  1  1  0  0  0
  6  4  1  0  0  0  0
  7  8  2  0  0  0  0
  9  5  1  1  0  0  0
  9  6  1  0  0  0  0
  9  3  1  0  0  0  0
 10 12  1  1  0  0  0
 10 15  1  0  0  0  0
 11 14  2  0  0  0  0
 14 10  1  0  0  0  0
 14 16  1  0  0  0  0
 15 13  2  0  0  0  0
 16 17  2  0  0  0  0
 17 13  1  0  0  0  0
 19 22  1  0  0  0  0
 19 29  1  0  0  0  0
 20 19  2  0  0  0  0
 21 28  1  0  0  0  0
 21 22  2  0  0  0  0
 22 18  1  0  0  0  0
 23 21  1  0  0  0  0
 24 23  2  0  0  0  0
 24 20  1  0  0  0  0
 25 26  2  0  0  0  0
 26 27  1  0  0  0  0
 26 28  1  0  0  0  0
 29 30  1  0  0  0  0
M  END
>  <MODEL>
2

>  <REMARK>
 VINA RESULT:      -9.2      4.168      7.671
  Name = 
  4 active torsions:
  status: ('A' for Active; 'I' for Inactive)
    1  A    between atoms: O_6  and  C_14
    2  A    between atoms: C_12  and  C_29
    3  A    between atoms: C_16  and  C_18
    4  A    between atoms: C_19  and  N_30
                            x       y       z     vdW  Elec       q    Type
                         _______ _______ _______ _____ _____    ______ ____

>  <TORSDO>
F 4

$$$$
=
 OpenBabel11062413283D

 30 33  0  0  1  0  0  0  0  0999 V2000
  192.5790  174.5860  137.9260 O   0  0  0  0  0  0  0  0  0  0  0  0
  191.8110  173.6670  137.1460 C   0  0  0  0  0  2  0  0  0  0  0  0
  192.2350  175.8540  137.4160 C   0  0  2  0  0  3  0  0  0  0  0  0
  190.6170  177.5010  138.3160 C   0  0  2  0  0  3  0  0  0  0  0  0
  190.6730  174.3570  136.6430 O   0  0  0  0  0  0  0  0  0  0  0  0
  189.9850  176.5770  137.3000 C   0  0  1  0  0  3  0  0  0  0  0  0
  191.9930  176.9030  138.4420 C   0  0  0  0  0  0  0  0  0  0  0  0
  192.8440  177.2940  139.2260 O   0  0  0  0  0  0  0  0  0  0  0  0
  190.8840  175.6630  136.9510 C   0  0  1  0  0  3  0  0  0  0  0  0
  187.9160  177.5770  136.0680 C   0  0  2  0  0  3  0  0  0  0  0  0
  186.0420  177.7990  134.5940 O   0  0  0  0  0  0  0  0  0  0  0  0
  187.8400  178.9030  136.8080 C   0  0  0  0  0  1  0  0  0  0  0  0
  187.7720  175.5710  137.5310 C   0  0  0  0  0  3  0  0  0  0  0  0
  186.5420  177.2020  135.5820 C   0  0  0  0  0  0  0  0  0  0  0  0
  188.5370  176.5210  136.9670 C   0  0  0  0  0  0  0  0  0  0  0  0
  185.7610  176.1800  136.2880 C   0  0  0  0  0  3  0  0  0  0  0  0
  186.3410  175.4240  137.2170 C   0  0  0  0  0  3  0  0  0  0  0  0
  188.0060  177.3420  143.3800 O   0  0  0  0  0  1  0  0  0  0  0  0
  188.0620  178.1120  141.0920 C   0  0  0  0  0  0  0  0  0  0  0  0
  188.6980  178.1530  139.8450 C   0  0  0  0  0  3  0  0  0  0  0  0
  189.8450  176.6920  141.9470 C   0  0  0  0  0  0  0  0  0  0  0  0
  188.6370  177.3810  142.1410 C   0  0  0  0  0  0  0  0  0  0  0  0
  190.4690  176.7420  140.6930 C   0  0  0  0  0  3  0  0  0  0  0  0
  189.9060  177.4680  139.6420 C   0  0  0  0  0  0  0  0  0  0  0  0
  191.6840  177.7900  144.0660 O   0  0  0  0  0  0  0  0  0  0  0  0
  191.2910  176.4580  144.0520 C   0  0  0  0  0  0  0  0  0  0  0  0
  191.7130  175.6810  144.9460 O   0  0  0  0  0  1  0  0  0  0  0  0
  190.4120  175.9520  143.0390 N   0  0  0  0  0  2  0  0  0  0  0  0
  186.8610  178.7930  141.2980 O   0  0  0  0  0  0  0  0  0  0  0  0
  185.9540  178.9130  140.3200 O   0  0  0  0  0  1  0  0  0  0  0  0
  2  1  1  0  0  0  0
  3  1  1  1  0  0  0
  3  7  1  0  0  0  0
  4  7  1  0  0  0  0
  4 24  1  1  0  0  0
  5  2  1  0  0  0  0
  6 15  1  1  0  0  0
  6  4  1  0  0  0  0
  7  8  2  0  0  0  0
  9  5  1  1  0  0  0
  9  6  1  0  0  0  0
  9  3  1  0  0  0  0
 10 12  1  1  0  0  0
 10 15  1  0  0  0  0
 11 14  2  0  0  0  0
 14 10  1  0  0  0  0
 14 16  1  0  0  0  0
 15 13  2  0  0  0  0
 16 17  2  0  0  0  0
 17 13  1  0  0  0  0
 19 29  1  0  0  0  0
 19 22  1  0  0  0  0
 20 19  2  0  0  0  0
 21 22  2  0  0  0  0
 21 28  1  0  0  0  0
 22 18  1  0  0  0  0
 23 21  1  0  0  0  0
 24 20  1  0  0  0  0
 24 23  2  0  0  0  0
 26 25  2  0  0  0  0
 26 27  1  0  0  0  0
 28 26  1  0  0  0  0
 30 29  1  0  0  0  0
M  END
>  <MODEL>
3

>  <REMARK>
 VINA RESULT:      -9.1      4.291      8.202
  Name = 
  4 active torsions:
  status: ('A' for Active; 'I' for Inactive)
    1  A    between atoms: O_6  and  C_14
    2  A    between atoms: C_12  and  C_29
    3  A    between atoms: C_16  and  C_18
    4  A    between atoms: C_19  and  N_30
                            x       y       z     vdW  Elec       q    Type
                         _______ _______ _______ _____ _____    ______ ____

>  <TORSDO>
F 4

$$$$
=
 OpenBabel11062413283D

 30 33  0  0  1  0  0  0  0  0999 V2000
  192.0620  177.8520  143.1520 O   0  0  0  0  0  0  0  0  0  0  0  0
  192.1740  178.6150  144.3540 C   0  0  0  0  0  2  0  0  0  0  0  0
  191.3000  176.7250  143.5200 C   0  0  2  0  0  3  0  0  0  0  0  0
  188.8770  176.3170  143.1960 C   0  0  2  0  0  3  0  0  0  0  0  0
  191.0760  178.2800  145.1950 O   0  0  0  0  0  0  0  0  0  0  0  0
  189.1760  176.9410  144.5400 C   0  0  1  0  0  3  0  0  0  0  0  0
  190.2390  176.3360  142.5530 C   0  0  0  0  0  0  0  0  0  0  0  0
  190.4610  175.9850  141.4050 O   0  0  0  0  0  0  0  0  0  0  0  0
  190.4730  177.2250  144.5890 C   0  0  1  0  0  3  0  0  0  0  0  0
  188.5670  177.7570  146.9400 C   0  0  2  0  0  3  0  0  0  0  0  0
  187.8020  179.1370  148.7420 O   0  0  0  0  0  0  0  0  0  0  0  0
  188.9050  176.4820  147.6980 C   0  0  0  0  0  1  0  0  0  0  0  0
  186.8710  177.4710  145.1450 C   0  0  0  0  0  3  0  0  0  0  0  0
  187.5040  178.5120  147.6920 C   0  0  0  0  0  0  0  0  0  0  0  0
  188.1610  177.4180  145.5170 C   0  0  0  0  0  0  0  0  0  0  0  0
  186.1100  178.4790  147.2340 C   0  0  0  0  0  3  0  0  0  0  0  0
  185.8140  177.9720  146.0400 C   0  0  0  0  0  3  0  0  0  0  0  0
  185.1300  179.4110  140.2180 O   0  0  0  0  0  1  0  0  0  0  0  0
  187.3520  178.4950  140.4510 C   0  0  0  0  0  0  0  0  0  0  0  0
  188.2750  177.7340  141.1780 C   0  0  0  0  0  3  0  0  0  0  0  0
  185.6640  178.0550  142.1500 C   0  0  0  0  0  0  0  0  0  0  0  0
  186.0470  178.6540  140.9390 C   0  0  0  0  0  0  0  0  0  0  0  0
  186.6010  177.2960  142.8650 C   0  0  0  0  0  3  0  0  0  0  0  0
  187.9030  177.1320  142.3890 C   0  0  0  0  0  0  0  0  0  0  0  0
  184.7050  180.2760  143.9460 O   0  0  0  0  0  1  0  0  0  0  0  0
  183.8510  179.2830  143.4840 C   0  0  0  0  0  0  0  0  0  0  0  0
  182.6410  179.3040  143.8230 O   0  0  0  0  0  0  0  0  0  0  0  0
  184.3220  178.2350  142.6270 N   0  0  0  0  0  2  0  0  0  0  0  0
  187.7180  179.0960  139.2460 O   0  0  0  0  0  0  0  0  0  0  0  0
  188.9900  179.0880  138.8240 O   0  0  0  0  0  1  0  0  0  0  0  0
  1  3  1  0  0  0  0
  1  2  1  0  0  0  0
  2  5  1  0  0  0  0
  3  7  1  6  0  0  0
  3  9  1  0  0  0  0
  4 24  1  6  0  0  0
  4  6  1  0  0  0  0
  6  9  1  0  0  0  0
  6 15  1  6  0  0  0
  7  4  1  0  0  0  0
  8  7  2  0  0  0  0
  9  5  1  6  0  0  0
 10 14  1  0  0  0  0
 10 12  1  1  0  0  0
 13 15  2  0  0  0  0
 13 17  1  0  0  0  0
 14 11  2  0  0  0  0
 15 10  1  0  0  0  0
 16 14  1  0  0  0  0
 17 16  2  0  0  0  0
 18 22  1  0  0  0  0
 19 22  2  0  0  0  0
 19 20  1  0  0  0  0
 20 24  2  0  0  0  0
 21 28  1  0  0  0  0
 21 23  2  0  0  0  0
 22 21  1  0  0  0  0
 24 23  1  0  0  0  0
 26 27  2  0  0  0  0
 26 25  1  0  0  0  0
 28 26  1  0  0  0  0
 29 19  1  0  0  0  0
 30 29  1  0  0  0  0
M  END
>  <MODEL>
4

>  <REMARK>
 VINA RESULT:      -9.0      1.625      3.206
  Name = 
  4 active torsions:
  status: ('A' for Active; 'I' for Inactive)
    1  A    between atoms: O_6  and  C_14
    2  A    between atoms: C_12  and  C_29
    3  A    between atoms: C_16  and  C_18
    4  A    between atoms: C_19  and  N_30
                            x       y       z     vdW  Elec       q    Type
                         _______ _______ _______ _____ _____    ______ ____

>  <TORSDO>
F 4

$$$$
=
 OpenBabel11062413283D

 30 33  0  0  1  0  0  0  0  0999 V2000
  192.0620  177.7770  143.1620 O   0  0  0  0  0  0  0  0  0  0  0  0
  192.1800  178.5160  144.3790 C   0  0  0  0  0  2  0  0  0  0  0  0
  191.2770  176.6580  143.5050 C   0  0  2  0  0  3  0  0  0  0  0  0
  188.8490  176.3000  143.1580 C   0  0  2  0  0  3  0  0  0  0  0  0
  191.0700  178.1870  145.2060 O   0  0  0  0  0  0  0  0  0  0  0  0
  189.1510  176.8950  144.5160 C   0  0  1  0  0  3  0  0  0  0  0  0
  190.2160  176.3060  142.5250 C   0  0  0  0  0  0  0  0  0  0  0  0
  190.4400  175.9710  141.3720 O   0  0  0  0  0  0  0  0  0  0  0  0
  190.4520  177.1540  144.5780 C   0  0  1  0  0  3  0  0  0  0  0  0
  188.5540  177.7480  146.9060 C   0  0  2  0  0  3  0  0  0  0  0  0
  187.7830  179.1500  148.6880 O   0  0  0  0  0  0  0  0  0  0  0  0
  188.9220  176.4950  147.6850 C   0  0  0  0  0  1  0  0  0  0  0  0
  186.8440  177.3940  145.1360 C   0  0  0  0  0  3  0  0  0  0  0  0
  187.4850  178.4980  147.6540 C   0  0  0  0  0  0  0  0  0  0  0  0
  188.1380  177.3720  145.4940 C   0  0  0  0  0  0  0  0  0  0  0  0
  186.0870  178.4300  147.2130 C   0  0  0  0  0  3  0  0  0  0  0  0
  185.7870  177.8950  146.0330 C   0  0  0  0  0  3  0  0  0  0  0  0
  185.2890  179.4890  140.0540 O   0  0  0  0  0  1  0  0  0  0  0  0
  185.7810  178.3230  142.1110 C   0  0  0  0  0  0  0  0  0  0  0  0
  186.6540  177.5420  142.8780 C   0  0  0  0  0  3  0  0  0  0  0  0
  187.3970  178.3250  140.2900 C   0  0  0  0  0  0  0  0  0  0  0  0
  186.1550  178.7130  140.8170 C   0  0  0  0  0  0  0  0  0  0  0  0
  188.2590  177.5430  141.0720 C   0  0  0  0  0  3  0  0  0  0  0  0
  187.8960  177.1470  142.3600 C   0  0  0  0  0  0  0  0  0  0  0  0
  187.3120  176.6040  137.8170 O   0  0  0  0  0  1  0  0  0  0  0  0
  187.7230  177.9310  137.7770 C   0  0  0  0  0  0  0  0  0  0  0  0
  188.0740  178.4340  136.6800 O   0  0  0  0  0  0  0  0  0  0  0  0
  187.7540  178.7370  138.9620 N   0  0  0  0  0  2  0  0  0  0  0  0
  184.5440  178.7180  142.6220 O   0  0  0  0  0  0  0  0  0  0  0  0
  184.4320  179.7850  143.4250 O   0  0  0  0  0  1  0  0  0  0  0  0
  1  3  1  0  0  0  0
  1  2  1  0  0  0  0
  2  5  1  0  0  0  0
  3  7  1  6  0  0  0
  3  9  1  0  0  0  0
  4 24  1  6  0  0  0
  4  6  1  0  0  0  0
  6  9  1  0  0  0  0
  6 15  1  6  0  0  0
  7  4  1  0  0  0  0
  8  7  2  0  0  0  0
  9  5  1  6  0  0  0
 10 14  1  0  0  0  0
 10 12  1  1  0  0  0
 13 15  2  0  0  0  0
 13 17  1  0  0  0  0
 14 11  2  0  0  0  0
 15 10  1  0  0  0  0
 16 14  1  0  0  0  0
 17 16  2  0  0  0  0
 18 22  1  0  0  0  0
 19 29  1  0  0  0  0
 19 20  1  0  0  0  0
 21 22  1  0  0  0  0
 21 23  2  0  0  0  0
 22 19  2  0  0  0  0
 23 24  1  0  0  0  0
 24 20  2  0  0  0  0
 26 25  1  0  0  0  0
 26 28  1  0  0  0  0
 27 26  2  0  0  0  0
 28 21  1  0  0  0  0
 29 30  1  0  0  0  0
M  END
>  <MODEL>
5

>  <REMARK>
 VINA RESULT:      -8.9      1.905      2.456
  Name = 
  4 active torsions:
  status: ('A' for Active; 'I' for Inactive)
    1  A    between atoms: O_6  and  C_14
    2  A    between atoms: C_12  and  C_29
    3  A    between atoms: C_16  and  C_18
    4  A    between atoms: C_19  and  N_30
                            x       y       z     vdW  Elec       q    Type
                         _______ _______ _______ _____ _____    ______ ____

>  <TORSDO>
F 4

$$$$
=
 OpenBabel11062413283D

 30 33  0  0  1  0  0  0  0  0999 V2000
  179.2750  181.1310  140.4170 O   0  0  0  0  0  0  0  0  0  0  0  0
  178.9310  180.6720  139.1080 C   0  0  0  0  0  2  0  0  0  0  0  0
  179.1350  179.9930  141.2360 C   0  0  2  0  0  3  0  0  0  0  0  0
  180.8900  178.4480  142.0590 C   0  0  2  0  0  3  0  0  0  0  0  0
  179.1590  179.2690  139.0560 O   0  0  0  0  0  0  0  0  0  0  0  0
  180.2740  177.9740  140.7620 C   0  0  1  0  0  3  0  0  0  0  0  0
  180.2250  179.7890  142.2270 C   0  0  0  0  0  0  0  0  0  0  0  0
  180.4820  180.5760  143.1250 O   0  0  0  0  0  0  0  0  0  0  0  0
  179.4280  178.9050  140.3370 C   0  0  1  0  0  3  0  0  0  0  0  0
  179.8160  175.6370  139.7010 C   0  0  2  0  0  3  0  0  0  0  0  0
  179.5380  173.8950  138.0800 O   0  0  0  0  0  0  0  0  0  0  0  0
  179.6170  174.8480  140.9860 C   0  0  0  0  0  1  0  0  0  0  0  0
  182.0140  176.7860  139.5280 C   0  0  0  0  0  3  0  0  0  0  0  0
  180.3230  174.7130  138.6270 C   0  0  0  0  0  0  0  0  0  0  0  0
  180.7420  176.8140  139.9580 C   0  0  0  0  0  0  0  0  0  0  0  0
  181.7410  174.7240  138.2510 C   0  0  0  0  0  3  0  0  0  0  0  0
  182.5390  175.6940  138.6900 C   0  0  0  0  0  3  0  0  0  0  0  0
  186.5540  179.0030  141.7620 O   0  0  0  0  0  1  0  0  0  0  0  0
  184.3830  179.2520  140.7350 C   0  0  0  0  0  0  0  0  0  0  0  0
  182.9910  179.1200  140.8040 C   0  0  0  0  0  3  0  0  0  0  0  0
  184.5720  178.3630  142.9930 C   0  0  0  0  0  0  0  0  0  0  0  0
  185.1710  178.8730  141.8310 C   0  0  0  0  0  0  0  0  0  0  0  0
  183.1760  178.2370  143.0460 C   0  0  0  0  0  3  0  0  0  0  0  0
  182.3820  178.6100  141.9600 C   0  0  0  0  0  0  0  0  0  0  0  0
  184.0630  179.0040  145.8930 O   0  0  0  0  0  0  0  0  0  0  0  0
  185.1760  178.2820  145.4840 C   0  0  0  0  0  0  0  0  0  0  0  0
  186.0020  177.8820  146.3440 O   0  0  0  0  0  1  0  0  0  0  0  0
  185.4020  177.9810  144.1000 N   0  0  0  0  0  2  0  0  0  0  0  0
  184.9920  179.7580  139.5860 O   0  0  0  0  0  0  0  0  0  0  0  0
  184.3070  180.4990  138.7050 O   0  0  0  0  0  1  0  0  0  0  0  0
  2  1  1  0  0  0  0
  3  1  1  6  0  0  0
  3  7  1  0  0  0  0
  4 24  1  6  0  0  0
  4  7  1  0  0  0  0
  5  2  1  0  0  0  0
  6 15  1  6  0  0  0
  6  4  1  0  0  0  0
  7  8  2  0  0  0  0
  9  5  1  6  0  0  0
  9  6  1  0  0  0  0
  9  3  1  0  0  0  0
 10 15  1  0  0  0  0
 10 12  1  1  0  0  0
 11 14  2  0  0  0  0
 13 15  2  0  0  0  0
 14 10  1  0  0  0  0
 16 14  1  0  0  0  0
 16 17  2  0  0  0  0
 17 13  1  0  0  0  0
 18 22  1  0  0  0  0
 19 20  2  0  0  0  0
 19 22  1  0  0  0  0
 20 24  1  0  0  0  0
 21 23  1  0  0  0  0
 21 28  1  0  0  0  0
 22 21  2  0  0  0  0
 24 23  2  0  0  0  0
 26 25  2  0  0  0  0
 26 27  1  0  0  0  0
 28 26  1  0  0  0  0
 29 19  1  0  0  0  0
 30 29  1  0  0  0  0
M  END
>  <MODEL>
6

>  <REMARK>
 VINA RESULT:      -8.7      4.170      9.605
  Name = 
  4 active torsions:
  status: ('A' for Active; 'I' for Inactive)
    1  A    between atoms: O_6  and  C_14
    2  A    between atoms: C_12  and  C_29
    3  A    between atoms: C_16  and  C_18
    4  A    between atoms: C_19  and  N_30
                            x       y       z     vdW  Elec       q    Type
                         _______ _______ _______ _____ _____    ______ ____

>  <TORSDO>
F 4

$$$$
=
 OpenBabel11062413283D

 30 33  0  0  1  0  0  0  0  0999 V2000
  186.9910  179.0030  147.5290 O   0  0  0  0  0  0  0  0  0  0  0  0
  186.0390  179.9980  147.1460 C   0  0  0  0  0  2  0  0  0  0  0  0
  186.5370  177.8240  146.9060 C   0  0  2  0  0  3  0  0  0  0  0  0
  187.3200  176.7820  144.7980 C   0  0  2  0  0  3  0  0  0  0  0  0
  185.4330  179.5840  145.9280 O   0  0  0  0  0  0  0  0  0  0  0  0
  186.1550  177.7200  144.5740 C   0  0  1  0  0  3  0  0  0  0  0  0
  187.5960  177.0020  146.2620 C   0  0  0  0  0  0  0  0  0  0  0  0
  188.5220  176.4900  146.8710 O   0  0  0  0  0  0  0  0  0  0  0  0
  185.8690  178.3140  145.7270 C   0  0  1  0  0  3  0  0  0  0  0  0
  186.5550  178.5430  142.1320 C   0  0  2  0  0  3  0  0  0  0  0  0
  186.5750  178.6210  139.7380 O   0  0  0  0  0  0  0  0  0  0  0  0
  187.1640  179.8980  142.4540 C   0  0  0  0  0  1  0  0  0  0  0  0
  184.2830  178.1830  143.0760 C   0  0  0  0  0  3  0  0  0  0  0  0
  185.8810  178.6090  140.7880 C   0  0  0  0  0  0  0  0  0  0  0  0
  185.6140  178.1230  143.2480 C   0  0  0  0  0  0  0  0  0  0  0  0
  184.4200  178.7160  140.6980 C   0  0  0  0  0  3  0  0  0  0  0  0
  183.6720  178.5300  141.7820 C   0  0  0  0  0  3  0  0  0  0  0  0
  191.8410  178.1460  141.6070 O   0  0  0  0  0  1  0  0  0  0  0  0
  190.4760  178.5450  143.5580 C   0  0  0  0  0  0  0  0  0  0  0  0
  189.3680  178.2130  144.3470 C   0  0  0  0  0  3  0  0  0  0  0  0
  189.9020  176.7550  142.0110 C   0  0  0  0  0  0  0  0  0  0  0  0
  190.7410  177.8150  142.3910 C   0  0  0  0  0  0  0  0  0  0  0  0
  188.7980  176.4350  142.8120 C   0  0  0  0  0  3  0  0  0  0  0  0
  188.5230  177.1560  143.9750 C   0  0  0  0  0  0  0  0  0  0  0  0
  189.6500  177.7980  139.1950 O   0  0  0  0  0  1  0  0  0  0  0  0
  190.0780  176.5050  139.4650 C   0  0  0  0  0  0  0  0  0  0  0  0
  190.3690  175.7400  138.5100 O   0  0  0  0  0  0  0  0  0  0  0  0
  190.1970  176.0240  140.8110 N   0  0  0  0  0  2  0  0  0  0  0  0
  191.3180  179.5960  143.9240 O   0  0  0  0  0  0  0  0  0  0  0  0
  192.4440  179.3750  144.6150 O   0  0  0  0  0  1  0  0  0  0  0  0
  2  1  1  0  0  0  0
  3  7  1  6  0  0  0
  3  1  1  0  0  0  0
  4 24  1  6  0  0  0
  4  7  1  0  0  0  0
  5  2  1  0  0  0  0
  6 15  1  6  0  0  0
  6  4  1  0  0  0  0
  6  9  1  0  0  0  0
  7  8  2  0  0  0  0
  9  5  1  6  0  0  0
  9  3  1  0  0  0  0
 10 12  1  1  0  0  0
 10 15  1  0  0  0  0
 11 14  2  0  0  0  0
 13 15  2  0  0  0  0
 14 10  1  0  0  0  0
 16 14  1  0  0  0  0
 16 17  2  0  0  0  0
 17 13  1  0  0  0  0
 18 22  1  0  0  0  0
 19 29  1  0  0  0  0
 19 20  1  0  0  0  0
 21 22  1  0  0  0  0
 21 23  2  0  0  0  0
 22 19  2  0  0  0  0
 23 24  1  0  0  0  0
 24 20  2  0  0  0  0
 25 26  1  0  0  0  0
 26 28  1  0  0  0  0
 27 26  2  0  0  0  0
 28 21  1  0  0  0  0
 29 30  1  0  0  0  0
M  END
>  <MODEL>
7

>  <REMARK>
 VINA RESULT:      -8.5      2.179      6.224
  Name = 
  4 active torsions:
  status: ('A' for Active; 'I' for Inactive)
    1  A    between atoms: O_6  and  C_14
    2  A    between atoms: C_12  and  C_29
    3  A    between atoms: C_16  and  C_18
    4  A    between atoms: C_19  and  N_30
                            x       y       z     vdW  Elec       q    Type
                         _______ _______ _______ _____ _____    ______ ____

>  <TORSDO>
F 4

$$$$
=
 OpenBabel11062413283D

 30 33  0  0  1  0  0  0  0  0999 V2000
  186.0680  177.7010  136.5540 O   0  0  0  0  0  0  0  0  0  0  0  0
  185.4490  177.6010  137.8380 C   0  0  0  0  0  2  0  0  0  0  0  0
  187.1920  178.5230  136.7680 C   0  0  2  0  0  3  0  0  0  0  0  0
  189.5570  177.8620  137.0990 C   0  0  2  0  0  3  0  0  0  0  0  0
  186.4430  177.8360  138.8280 O   0  0  0  0  0  0  0  0  0  0  0  0
  188.8150  178.0040  138.4090 C   0  0  1  0  0  3  0  0  0  0  0  0
  188.4430  178.0670  136.1070 C   0  0  0  0  0  0  0  0  0  0  0  0
  188.5740  177.9650  134.8970 O   0  0  0  0  0  0  0  0  0  0  0  0
  187.5380  178.2520  138.1410 C   0  0  1  0  0  3  0  0  0  0  0  0
  188.4160  177.5080  140.9370 C   0  0  2  0  0  3  0  0  0  0  0  0
  188.3490  176.3700  143.0440 O   0  0  0  0  0  0  0  0  0  0  0  0
  187.9030  178.8780  141.3520 C   0  0  0  0  0  1  0  0  0  0  0  0
  190.6800  177.5220  139.9100 C   0  0  0  0  0  3  0  0  0  0  0  0
  189.0630  176.8430  142.1220 C   0  0  0  0  0  0  0  0  0  0  0  0
  189.3520  177.6460  139.7490 C   0  0  0  0  0  0  0  0  0  0  0  0
  190.5250  176.7910  142.2340 C   0  0  0  0  0  3  0  0  0  0  0  0
  191.2840  177.1270  141.1940 C   0  0  0  0  0  3  0  0  0  0  0  0
  191.9540  172.7290  136.4680 O   0  0  0  0  0  1  0  0  0  0  0  0
  189.9990  174.0690  136.9310 C   0  0  0  0  0  0  0  0  0  0  0  0
  189.4050  175.3280  137.0840 C   0  0  0  0  0  3  0  0  0  0  0  0
  192.1330  175.1420  136.4630 C   0  0  0  0  0  0  0  0  0  0  0  0
  191.3630  173.9790  136.6200 C   0  0  0  0  0  0  0  0  0  0  0  0
  191.5240  176.3950  136.6200 C   0  0  0  0  0  3  0  0  0  0  0  0
  190.1670  176.4960  136.9310 C   0  0  0  0  0  0  0  0  0  0  0  0
  194.4290  175.6280  138.3540 O   0  0  0  0  0  1  0  0  0  0  0  0
  194.6310  175.2520  137.0320 C   0  0  0  0  0  0  0  0  0  0  0  0
  195.8050  175.1110  136.6040 O   0  0  0  0  0  0  0  0  0  0  0  0
  193.5280  175.0210  136.1460 N   0  0  0  0  0  2  0  0  0  0  0  0
  189.2450  172.9050  137.0840 O   0  0  0  0  0  0  0  0  0  0  0  0
  187.9270  172.8940  136.8440 O   0  0  0  0  0  1  0  0  0  0  0  0
  1  3  1  0  0  0  0
  1  2  1  0  0  0  0
  2  5  1  0  0  0  0
  3  7  1  6  0  0  0
  3  9  1  0  0  0  0
  4 24  1  1  0  0  0
  4  6  1  0  0  0  0
  6 15  1  6  0  0  0
  7  4  1  0  0  0  0
  8  7  2  0  0  0  0
  9  6  1  0  0  0  0
  9  5  1  6  0  0  0
 10 12  1  1  0  0  0
 10 14  1  0  0  0  0
 13 17  1  0  0  0  0
 14 16  1  0  0  0  0
 14 11  2  0  0  0  0
 15 13  2  0  0  0  0
 15 10  1  0  0  0  0
 17 16  2  0  0  0  0
 18 22  1  0  0  0  0
 19 29  1  0  0  0  0
 19 20  1  0  0  0  0
 21 23  2  0  0  0  0
 21 22  1  0  0  0  0
 22 19  2  0  0  0  0
 23 24  1  0  0  0  0
 24 20  2  0  0  0  0
 26 25  1  0  0  0  0
 27 26  2  0  0  0  0
 28 21  1  0  0  0  0
 28 26  1  0  0  0  0
 30 29  1  0  0  0  0
M  END
>  <MODEL>
8

>  <REMARK>
 VINA RESULT:      -8.4      5.142      8.716
  Name = 
  4 active torsions:
  status: ('A' for Active; 'I' for Inactive)
    1  A    between atoms: O_6  and  C_14
    2  A    between atoms: C_12  and  C_29
    3  A    between atoms: C_16  and  C_18
    4  A    between atoms: C_19  and  N_30
                            x       y       z     vdW  Elec       q    Type
                         _______ _______ _______ _____ _____    ______ ____

>  <TORSDO>
F 4

$$$$
=
 OpenBabel11062413283D

 30 33  0  0  1  0  0  0  0  0999 V2000
  187.4480  175.9870  137.1760 O   0  0  0  0  0  0  0  0  0  0  0  0
  186.5710  174.8960  136.8870 C   0  0  0  0  0  2  0  0  0  0  0  0
  186.6850  177.1370  136.8930 C   0  0  2  0  0  3  0  0  0  0  0  0
  185.4510  178.6060  138.4610 C   0  0  2  0  0  3  0  0  0  0  0  0
  185.2320  175.3620  137.0070 O   0  0  0  0  0  0  0  0  0  0  0  0
  184.5770  177.5080  137.9000 C   0  0  1  0  0  3  0  0  0  0  0  0
  186.7950  178.2300  137.8940 C   0  0  0  0  0  0  0  0  0  0  0  0
  187.8370  178.8140  138.1510 O   0  0  0  0  0  0  0  0  0  0  0  0
  185.3350  176.7080  137.1590 C   0  0  1  0  0  3  0  0  0  0  0  0
  182.0180  177.9780  137.7310 C   0  0  2  0  0  3  0  0  0  0  0  0
  179.6740  177.6670  137.3490 O   0  0  0  0  0  0  0  0  0  0  0  0
  182.0220  179.4070  138.2510 C   0  0  0  0  0  1  0  0  0  0  0  0
  182.9790  176.3070  139.3010 C   0  0  0  0  0  3  0  0  0  0  0  0
  180.6840  177.3470  138.0270 C   0  0  0  0  0  0  0  0  0  0  0  0
  183.1840  177.2090  138.3280 C   0  0  0  0  0  0  0  0  0  0  0  0
  180.5450  176.4010  139.1400 C   0  0  0  0  0  3  0  0  0  0  0  0
  181.6280  175.9250  139.7480 C   0  0  0  0  0  3  0  0  0  0  0  0
  185.7060  178.5680  144.1550 O   0  0  0  0  0  1  0  0  0  0  0  0
  184.4010  178.7580  142.1320 C   0  0  0  0  0  0  0  0  0  0  0  0
  184.3320  178.7660  140.7340 C   0  0  0  0  0  3  0  0  0  0  0  0
  186.8050  178.3990  142.0050 C   0  0  0  0  0  0  0  0  0  0  0  0
  185.6380  178.5750  142.7660 C   0  0  0  0  0  0  0  0  0  0  0  0
  186.7190  178.4090  140.6060 C   0  0  0  0  0  3  0  0  0  0  0  0
  185.4930  178.5930  139.9650 C   0  0  0  0  0  0  0  0  0  0  0  0
  187.8050  175.8250  143.2120 O   0  0  0  0  0  0  0  0  0  0  0  0
  188.5470  176.9980  143.2620 C   0  0  0  0  0  0  0  0  0  0  0  0
  189.6700  176.9940  143.8280 O   0  0  0  0  0  1  0  0  0  0  0  0
  188.0590  178.2140  142.6800 N   0  0  0  0  0  2  0  0  0  0  0  0
  183.2490  178.9310  142.9010 O   0  0  0  0  0  0  0  0  0  0  0  0
  182.0290  178.7570  142.3730 O   0  0  0  0  0  1  0  0  0  0  0  0
  2  5  1  0  0  0  0
  2  1  1  0  0  0  0
  3  9  1  0  0  0  0
  3  1  1  1  0  0  0
  3  7  1  0  0  0  0
  4 24  1  1  0  0  0
  6 15  1  1  0  0  0
  6  4  1  0  0  0  0
  7  8  2  0  0  0  0
  7  4  1  0  0  0  0
  9  5  1  1  0  0  0
  9  6  1  0  0  0  0
 10 14  1  0  0  0  0
 10 12  1  1  0  0  0
 10 15  1  0  0  0  0
 11 14  2  0  0  0  0
 13 17  1  0  0  0  0
 14 16  1  0  0  0  0
 15 13  2  0  0  0  0
 16 17  2  0  0  0  0
 19 22  1  0  0  0  0
 19 29  1  0  0  0  0
 20 19  2  0  0  0  0
 21 28  1  0  0  0  0
 21 22  2  0  0  0  0
 22 18  1  0  0  0  0
 23 21  1  0  0  0  0
 24 23  2  0  0  0  0
 24 20  1  0  0  0  0
 25 26  2  0  0  0  0
 26 27  1  0  0  0  0
 28 26  1  0  0  0  0
 30 29  1  0  0  0  0
M  END
>  <MODEL>
9

>  <REMARK>
 VINA RESULT:      -8.3      3.267      8.035
  Name = 
  4 active torsions:
  status: ('A' for Active; 'I' for Inactive)
    1  A    between atoms: O_6  and  C_14
    2  A    between atoms: C_12  and  C_29
    3  A    between atoms: C_16  and  C_18
    4  A    between atoms: C_19  and  N_30
                            x       y       z     vdW  Elec       q    Type
                         _______ _______ _______ _____ _____    ______ ____

>  <TORSDO>
F 4

$$$$
