=
 OpenBabel11062413193D

 30 37  0  0  1  0  0  0  0  0999 V2000
  184.2780  179.0070  142.9600 C   0  0  1  0  0  3  0  0  0  0  0  0
  188.1320  178.2200  143.4680 C   0  0  0  0  0  2  0  0  0  0  0  0
  182.8570  179.3950  139.2590 C   0  0  1  0  0  3  0  0  0  0  0  0
  183.2090  178.7710  144.0010 C   0  0  0  0  0  2  0  0  0  0  0  0
  185.2890  178.3500  140.7560 C   0  0  0  0  0  0  0  0  0  0  0  0
  185.2550  178.3970  139.3230 C   0  0  0  0  0  0  0  0  0  0  0  0
  186.7120  178.1750  142.8760 C   0  0  2  0  0  0  0  0  0  0  0  0
  186.4610  178.1930  138.5850 C   0  0  0  0  0  0  0  0  0  0  0  0
  185.5400  178.5810  143.6780 C   0  0  2  0  0  0  0  0  0  0  0  0
  185.5610  177.4460  136.3450 C   0  0  0  0  0  3  0  0  0  0  0  0
  187.6450  178.1360  140.6380 N   0  0  0  0  0  0  0  0  0  0  0  0
  188.8940  177.8490  138.8140 N   0  0  0  0  0  0  0  0  0  0  0  0
  187.6570  178.0980  139.3080 C   0  0  0  0  0  0  0  0  0  0  0  0
  184.0470  178.2860  141.6230 C   0  0  0  0  0  2  0  0  0  0  0  0
  185.8680  177.2170  143.4600 O   0  0  0  0  0  0  0  0  0  0  0  0
  183.9910  178.6530  138.5320 C   0  0  1  0  0  3  0  0  0  0  0  0
  183.5370  177.4240  137.8030 C   0  0  0  0  0  0  0  0  0  0  0  0
  182.1620  176.8800  138.0670 C   0  0  0  0  0  2  0  0  0  0  0  0
  189.2040  177.6350  142.5120 C   0  0  0  0  0  2  0  0  0  0  0  0
  186.5420  178.2310  141.3910 C   0  0  0  0  0  0  0  0  0  0  0  0
  188.8860  177.9180  141.0660 C   0  0  0  0  0  0  0  0  0  0  0  0
  183.9020  179.0000  145.3530 C   0  0  0  0  0  2  0  0  0  0  0  0
  189.6620  177.7360  139.9330 C   0  0  0  0  0  0  0  0  0  0  0  0
  184.2370  176.9470  136.7750 C   0  0  0  0  0  3  0  0  0  0  0  0
  182.9060  180.8690  138.9170 C   0  0  0  0  0  1  0  0  0  0  0  0
  191.1060  177.3760  139.9120 C   0  0  0  0  0  1  0  0  0  0  0  0
  186.5090  177.9950  137.1180 C   0  0  0  0  0  3  0  0  0  0  0  0
  185.4070  178.7850  145.1600 C   0  0  0  0  0  2  0  0  0  0  0  0
  181.5520  178.8450  138.8920 N   0  0  0  0  0  2  0  0  0  0  0  0
  181.5760  177.5140  139.1810 O   0  0  0  0  0  0  0  0  0  0  0  0
  1 14  1  6  0  0  0
  1  9  1  0  0  0  0
  1  4  1  0  0  0  0
  3 25  1  6  0  0  0
  4 22  1  0  0  0  0
  5 20  2  0  0  0  0
  5 14  1  0  0  0  0
  6  5  1  0  0  0  0
  7 15  1  0  0  0  0
  7  2  1  1  0  0  0
  7  9  1  0  0  0  0
  8 13  1  0  0  0  0
  8  6  2  0  0  0  0
  9 28  1  1  0  0  0
 10 24  1  0  0  0  0
 10 27  2  0  0  0  0
 11 21  1  0  0  0  0
 11 20  1  0  0  0  0
 12 13  2  0  0  0  0
 12 23  1  0  0  0  0
 13 11  1  0  0  0  0
 15  9  1  0  0  0  0
 16 17  1  1  0  0  0
 16  3  1  0  0  0  0
 16  6  1  0  0  0  0
 17 18  1  0  0  0  0
 18 30  1  0  0  0  0
 19  2  1  0  0  0  0
 20  7  1  0  0  0  0
 21 19  1  0  0  0  0
 23 21  2  0  0  0  0
 24 17  2  0  0  0  0
 26 23  1  0  0  0  0
 27  8  1  0  0  0  0
 28 22  1  0  0  0  0
 29 30  1  0  0  0  0
 29  3  1  0  0  0  0
M  END
>  <MODEL>
1

>  <REMARK>
 VINA RESULT:      -8.5      0.000      0.000
  Name = 
  0 active torsions:
  status: ('A' for Active; 'I' for Inactive)
                            x       y       z     vdW  Elec       q    Type
                         _______ _______ _______ _____ _____    ______ ____

>  <TORSDO>
F 0

$$$$
=
 OpenBabel11062413193D

 30 37  0  0  1  0  0  0  0  0999 V2000
  190.5760  177.5040  139.5730 C   0  0  1  0  0  3  0  0  0  0  0  0
  187.2470  178.0110  137.4780 C   0  0  0  0  0  2  0  0  0  0  0  0
  190.5510  178.3220  143.4710 C   0  0  1  0  0  3  0  0  0  0  0  0
  191.7410  176.6460  139.1380 C   0  0  0  0  0  2  0  0  0  0  0  0
  188.6480  177.8420  141.1470 C   0  0  0  0  0  0  0  0  0  0  0  0
  188.1680  178.2470  142.4360 C   0  0  0  0  0  0  0  0  0  0  0  0
  188.1810  177.6280  138.6400 C   0  0  2  0  0  0  0  0  0  0  0  0
  186.8130  178.6780  142.5780 C   0  0  0  0  0  0  0  0  0  0  0  0
  189.6180  177.3740  138.4090 C   0  0  2  0  0  0  0  0  0  0  0  0
  186.4110  178.2760  145.0400 C   0  0  0  0  0  3  0  0  0  0  0  0
  186.5690  178.5050  140.2260 N   0  0  0  0  0  0  0  0  0  0  0  0
  184.7430  179.1600  141.3230 N   0  0  0  0  0  0  0  0  0  0  0  0
  186.0520  178.8220  141.4100 C   0  0  0  0  0  0  0  0  0  0  0  0
  189.9650  177.1230  140.9290 C   0  0  0  0  0  2  0  0  0  0  0  0
  188.6830  176.3190  138.5760 O   0  0  0  0  0  0  0  0  0  0  0  0
  189.0290  178.2410  143.6810 C   0  0  1  0  0  3  0  0  0  0  0  0
  188.6090  177.1670  144.6380 C   0  0  0  0  0  0  0  0  0  0  0  0
  189.6080  176.1280  145.0600 C   0  0  0  0  0  2  0  0  0  0  0  0
  185.7590  178.1100  137.9060 C   0  0  0  0  0  2  0  0  0  0  0  0
  187.7980  178.0070  140.0350 C   0  0  0  0  0  0  0  0  0  0  0  0
  185.6090  178.6310  139.3130 C   0  0  0  0  0  0  0  0  0  0  0  0
  191.7660  176.7410  137.6060 C   0  0  0  0  0  2  0  0  0  0  0  0
  184.4740  179.0350  139.9950 C   0  0  0  0  0  0  0  0  0  0  0  0
  187.4480  177.2520  145.2860 C   0  0  0  0  0  3  0  0  0  0  0  0
  191.0150  179.7550  143.6270 C   0  0  0  0  0  1  0  0  0  0  0  0
  183.1200  179.2210  139.4040 C   0  0  0  0  0  1  0  0  0  0  0  0
  186.1480  178.9000  143.8820 C   0  0  0  0  0  3  0  0  0  0  0  0
  190.3610  177.1240  137.1290 C   0  0  0  0  0  2  0  0  0  0  0  0
  191.2570  177.4670  144.4250 N   0  0  0  0  0  2  0  0  0  0  0  0
  190.7730  176.2030  144.2710 O   0  0  0  0  0  0  0  0  0  0  0  0
  1  4  1  6  0  0  0
  1 14  1  0  0  0  0
  2 19  1  0  0  0  0
  3 25  1  1  0  0  0
  3 16  1  0  0  0  0
  3 29  1  0  0  0  0
  5  6  1  0  0  0  0
  6  8  2  0  0  0  0
  7  2  1  6  0  0  0
  7 20  1  0  0  0  0
  8 27  1  0  0  0  0
  9 28  1  6  0  0  0
  9 15  1  0  0  0  0
  9  7  1  0  0  0  0
  9  1  1  0  0  0  0
 10 24  1  0  0  0  0
 11 13  1  0  0  0  0
 12 13  2  0  0  0  0
 13  8  1  0  0  0  0
 14  5  1  0  0  0  0
 15  7  1  0  0  0  0
 16  6  1  6  0  0  0
 16 17  1  0  0  0  0
 17 18  1  0  0  0  0
 17 24  2  0  0  0  0
 19 21  1  0  0  0  0
 20 11  1  0  0  0  0
 20  5  2  0  0  0  0
 21 23  2  0  0  0  0
 21 11  1  0  0  0  0
 22  4  1  0  0  0  0
 23 12  1  0  0  0  0
 26 23  1  0  0  0  0
 27 10  2  0  0  0  0
 28 22  1  0  0  0  0
 30 29  1  0  0  0  0
 30 18  1  0  0  0  0
M  END
>  <MODEL>
2

>  <REMARK>
 VINA RESULT:      -8.4      2.334      7.338
  Name = 
  0 active torsions:
  status: ('A' for Active; 'I' for Inactive)
                            x       y       z     vdW  Elec       q    Type
                         _______ _______ _______ _____ _____    ______ ____

>  <TORSDO>
F 0

$$$$
=
 OpenBabel11062413193D

 30 37  0  0  1  0  0  0  0  0999 V2000
  191.9310  177.3650  140.2050 C   0  0  1  0  0  3  0  0  0  0  0  0
  189.0920  177.3290  137.4360 C   0  0  0  0  0  2  0  0  0  0  0  0
  191.0080  178.5130  143.9060 C   0  0  1  0  0  3  0  0  0  0  0  0
  193.2310  176.6020  140.1110 C   0  0  0  0  0  2  0  0  0  0  0  0
  189.6910  177.6310  141.3100 C   0  0  0  0  0  0  0  0  0  0  0  0
  188.9150  178.0930  142.4240 C   0  0  0  0  0  0  0  0  0  0  0  0
  189.7880  177.1510  138.7980 C   0  0  2  0  0  0  0  0  0  0  0  0
  187.5290  178.3880  142.2400 C   0  0  0  0  0  0  0  0  0  0  0  0
  191.2570  177.0330  138.8920 C   0  0  2  0  0  0  0  0  0  0  0  0
  186.6490  178.1620  144.5980 C   0  0  0  0  0  3  0  0  0  0  0  0
  187.8060  177.9850  139.9200 N   0  0  0  0  0  0  0  0  0  0  0  0
  185.7390  178.5340  140.5470 N   0  0  0  0  0  0  0  0  0  0  0  0
  187.0240  178.3480  140.9340 C   0  0  0  0  0  0  0  0  0  0  0  0
  191.0810  177.0410  141.4430 C   0  0  0  0  0  2  0  0  0  0  0  0
  190.4020  175.9020  138.9780 O   0  0  0  0  0  0  0  0  0  0  0  0
  189.4890  178.2880  143.8100 C   0  0  1  0  0  3  0  0  0  0  0  0
  188.9690  177.2640  144.7720 C   0  0  0  0  0  0  0  0  0  0  0  0
  189.9420  176.3780  145.4970 C   0  0  0  0  0  2  0  0  0  0  0  0
  187.5450  177.3060  137.5400 C   0  0  0  0  0  2  0  0  0  0  0  0
  189.0850  177.6070  140.0370 C   0  0  0  0  0  0  0  0  0  0  0  0
  187.0540  177.9280  138.8230 C   0  0  0  0  0  0  0  0  0  0  0  0
  193.5730  176.5650  138.6140 C   0  0  0  0  0  2  0  0  0  0  0  0
  185.7700  178.2660  139.2130 C   0  0  0  0  0  0  0  0  0  0  0  0
  187.6940  177.2800  145.1580 C   0  0  0  0  0  3  0  0  0  0  0  0
  191.3030  179.9950  143.9980 C   0  0  0  0  0  1  0  0  0  0  0  0
  184.5620  178.2550  138.3440 C   0  0  0  0  0  1  0  0  0  0  0  0
  186.5850  178.6510  143.3510 C   0  0  0  0  0  3  0  0  0  0  0  0
  192.2740  176.7530  137.8240 C   0  0  0  0  0  2  0  0  0  0  0  0
  191.5660  177.8250  145.0700 N   0  0  0  0  0  2  0  0  0  0  0  0
  191.2370  176.5070  144.9580 O   0  0  0  0  0  0  0  0  0  0  0  0
  1  4  1  1  0  0  0
  1 14  1  0  0  0  0
  2 19  1  0  0  0  0
  3 25  1  1  0  0  0
  3 29  1  0  0  0  0
  5 14  1  0  0  0  0
  5  6  1  0  0  0  0
  7  2  1  6  0  0  0
  7  9  1  0  0  0  0
  7 15  1  0  0  0  0
  7 20  1  0  0  0  0
  8  6  2  0  0  0  0
  8 27  1  0  0  0  0
  9 28  1  6  0  0  0
  9 15  1  0  0  0  0
  9  1  1  0  0  0  0
 10 24  1  0  0  0  0
 11 20  1  0  0  0  0
 11 13  1  0  0  0  0
 12 13  2  0  0  0  0
 13  8  1  0  0  0  0
 16  6  1  6  0  0  0
 16  3  1  0  0  0  0
 16 17  1  0  0  0  0
 17 24  2  0  0  0  0
 17 18  1  0  0  0  0
 19 21  1  0  0  0  0
 20  5  2  0  0  0  0
 21 23  2  0  0  0  0
 21 11  1  0  0  0  0
 22  4  1  0  0  0  0
 23 12  1  0  0  0  0
 26 23  1  0  0  0  0
 27 10  2  0  0  0  0
 28 22  1  0  0  0  0
 30 29  1  0  0  0  0
 30 18  1  0  0  0  0
M  END
>  <MODEL>
3

>  <REMARK>
 VINA RESULT:      -8.1      2.705      7.603
  Name = 
  0 active torsions:
  status: ('A' for Active; 'I' for Inactive)
                            x       y       z     vdW  Elec       q    Type
                         _______ _______ _______ _____ _____    ______ ____

>  <TORSDO>
F 0

$$$$
=
 OpenBabel11062413193D

 30 37  0  0  1  0  0  0  0  0999 V2000
  189.2160  178.4220  140.1030 C   0  0  1  0  0  3  0  0  0  0  0  0
  185.2660  178.6410  139.8280 C   0  0  0  0  0  2  0  0  0  0  0  0
  190.9150  178.5710  143.7030 C   0  0  1  0  0  3  0  0  0  0  0  0
  190.1230  177.8780  139.0250 C   0  0  0  0  0  2  0  0  0  0  0  0
  188.2090  178.1350  142.3860 C   0  0  0  0  0  0  0  0  0  0  0  0
  188.3420  178.2270  143.8110 C   0  0  0  0  0  0  0  0  0  0  0  0
  186.6610  178.2530  140.3510 C   0  0  2  0  0  0  0  0  0  0  0  0
  187.1720  178.3700  144.6180 C   0  0  0  0  0  0  0  0  0  0  0  0
  187.8460  178.3100  139.4720 C   0  0  2  0  0  0  0  0  0  0  0  0
  187.9860  177.5030  146.8470 C   0  0  0  0  0  3  0  0  0  0  0  0
  185.8890  178.5430  142.6320 N   0  0  0  0  0  0  0  0  0  0  0  0
  184.7220  178.6600  144.5280 N   0  0  0  0  0  0  0  0  0  0  0  0
  185.9490  178.5610  143.9610 C   0  0  0  0  0  0  0  0  0  0  0  0
  189.3360  177.7180  141.4630 C   0  0  0  0  0  2  0  0  0  0  0  0
  187.1930  177.0870  139.7780 O   0  0  0  0  0  0  0  0  0  0  0  0
  189.6750  178.1760  144.5240 C   0  0  1  0  0  3  0  0  0  0  0  0
  189.8430  176.9010  145.2930 C   0  0  0  0  0  0  0  0  0  0  0  0
  191.0140  176.0100  144.9910 C   0  0  0  0  0  2  0  0  0  0  0  0
  184.1410  178.3920  140.8660 C   0  0  0  0  0  2  0  0  0  0  0  0
  186.9310  178.3200  141.8210 C   0  0  0  0  0  0  0  0  0  0  0  0
  184.6090  178.6380  142.2780 C   0  0  0  0  0  0  0  0  0  0  0  0
  189.4300  178.2260  137.6980 C   0  0  0  0  0  2  0  0  0  0  0  0
  183.8840  178.7070  143.4560 C   0  0  0  0  0  0  0  0  0  0  0  0
  189.1090  176.6620  146.3790 C   0  0  0  0  0  3  0  0  0  0  0  0
  191.2670  180.0200  143.9680 C   0  0  0  0  0  1  0  0  0  0  0  0
  182.4000  178.7340  143.5680 C   0  0  0  0  0  1  0  0  0  0  0  0
  187.1650  178.2480  146.0940 C   0  0  0  0  0  3  0  0  0  0  0  0
  187.9360  178.4160  137.9760 C   0  0  0  0  0  2  0  0  0  0  0  0
  192.0550  177.7170  144.0340 N   0  0  0  0  0  2  0  0  0  0  0  0
  191.6730  176.4270  143.8180 O   0  0  0  0  0  0  0  0  0  0  0  0
  1  4  1  6  0  0  0
  1 14  1  0  0  0  0
  2 19  1  0  0  0  0
  3 25  1  1  0  0  0
  3 29  1  0  0  0  0
  3 16  1  0  0  0  0
  5  6  1  0  0  0  0
  6  8  2  0  0  0  0
  7  2  1  6  0  0  0
  7 20  1  0  0  0  0
  8 27  1  0  0  0  0
  9 28  1  6  0  0  0
  9 15  1  0  0  0  0
  9  1  1  0  0  0  0
  9  7  1  0  0  0  0
 11 13  1  0  0  0  0
 13 12  2  0  0  0  0
 13  8  1  0  0  0  0
 14  5  1  0  0  0  0
 15  7  1  0  0  0  0
 16  6  1  6  0  0  0
 16 17  1  0  0  0  0
 17 24  2  0  0  0  0
 18 17  1  0  0  0  0
 19 21  1  0  0  0  0
 20  5  2  0  0  0  0
 20 11  1  0  0  0  0
 21 11  1  0  0  0  0
 21 23  2  0  0  0  0
 22 28  1  0  0  0  0
 22  4  1  0  0  0  0
 23 26  1  0  0  0  0
 23 12  1  0  0  0  0
 24 10  1  0  0  0  0
 27 10  2  0  0  0  0
 30 29  1  0  0  0  0
 30 18  1  0  0  0  0
M  END
>  <MODEL>
4

>  <REMARK>
 VINA RESULT:      -8.0      2.569      7.629
  Name = 
  0 active torsions:
  status: ('A' for Active; 'I' for Inactive)
                            x       y       z     vdW  Elec       q    Type
                         _______ _______ _______ _____ _____    ______ ____

>  <TORSDO>
F 0

$$$$
=
 OpenBabel11062413193D

 30 37  0  0  1  0  0  0  0  0999 V2000
  184.7090  178.2330  139.3250 C   0  0  1  0  0  3  0  0  0  0  0  0
  186.9870  178.2520  142.5720 C   0  0  0  0  0  2  0  0  0  0  0  0
  180.7480  178.2670  139.7420 C   0  0  1  0  0  3  0  0  0  0  0  0
  185.1790  178.6280  137.9450 C   0  0  0  0  0  2  0  0  0  0  0  0
  183.2930  178.7710  141.3290 C   0  0  0  0  0  0  0  0  0  0  0  0
  182.0040  178.7870  141.9560 C   0  0  0  0  0  0  0  0  0  0  0  0
  185.8300  178.5900  141.6130 C   0  0  2  0  0  0  0  0  0  0  0  0
  181.9170  178.7870  143.3830 C   0  0  0  0  0  0  0  0  0  0  0  0
  185.9630  178.3830  140.1570 C   0  0  2  0  0  0  0  0  0  0  0  0
  179.6210  179.7780  143.7480 C   0  0  0  0  0  3  0  0  0  0  0  0
  184.2730  178.5370  143.4720 N   0  0  0  0  0  0  0  0  0  0  0  0
  183.2550  178.6520  145.4520 N   0  0  0  0  0  0  0  0  0  0  0  0
  183.1060  178.6240  144.1060 C   0  0  0  0  0  0  0  0  0  0  0  0
  183.5110  179.0370  139.8520 C   0  0  0  0  0  2  0  0  0  0  0  0
  186.0850  179.6670  140.7510 O   0  0  0  0  0  0  0  0  0  0  0  0
  180.7050  178.8080  141.1820 C   0  0  1  0  0  3  0  0  0  0  0  0
  180.0060  180.1280  141.3090 C   0  0  0  0  0  0  0  0  0  0  0  0
  179.6880  180.9130  140.0680 C   0  0  0  0  0  2  0  0  0  0  0  0
  186.6930  178.6590  144.0400 C   0  0  0  0  0  2  0  0  0  0  0  0
  184.4330  178.6250  142.1450 C   0  0  0  0  0  0  0  0  0  0  0  0
  185.2360  178.4980  144.3910 C   0  0  0  0  0  0  0  0  0  0  0  0
  186.6590  178.2180  137.8870 C   0  0  0  0  0  2  0  0  0  0  0  0
  184.6040  178.5730  145.6210 C   0  0  0  0  0  0  0  0  0  0  0  0
  179.4690  180.5020  142.4680 C   0  0  0  0  0  3  0  0  0  0  0  0
  180.2870  176.8250  139.7210 C   0  0  0  0  0  1  0  0  0  0  0  0
  185.2780  178.6530  146.9450 C   0  0  0  0  0  1  0  0  0  0  0  0
  180.6640  179.0290  144.1350 C   0  0  0  0  0  3  0  0  0  0  0  0
  187.1900  178.1500  139.3230 C   0  0  0  0  0  2  0  0  0  0  0  0
  179.9040  179.0690  138.8560 N   0  0  0  0  0  2  0  0  0  0  0  0
  180.3330  180.3590  138.9440 O   0  0  0  0  0  0  0  0  0  0  0  0
  1  4  1  6  0  0  0
  1 14  1  0  0  0  0
  1  9  1  0  0  0  0
  2 19  1  0  0  0  0
  3 25  1  1  0  0  0
  3 16  1  0  0  0  0
  5  6  1  0  0  0  0
  5 20  2  0  0  0  0
  6  8  2  0  0  0  0
  7 20  1  0  0  0  0
  7  2  1  1  0  0  0
  8 13  1  0  0  0  0
  8 27  1  0  0  0  0
  9 28  1  6  0  0  0
  9 15  1  0  0  0  0
  9  7  1  0  0  0  0
 10 27  2  0  0  0  0
 11 13  1  0  0  0  0
 11 21  1  0  0  0  0
 12 23  1  0  0  0  0
 13 12  2  0  0  0  0
 14  5  1  0  0  0  0
 15  7  1  0  0  0  0
 16 17  1  6  0  0  0
 16  6  1  0  0  0  0
 17 24  2  0  0  0  0
 18 17  1  0  0  0  0
 19 21  1  0  0  0  0
 20 11  1  0  0  0  0
 21 23  2  0  0  0  0
 22  4  1  0  0  0  0
 22 28  1  0  0  0  0
 23 26  1  0  0  0  0
 24 10  1  0  0  0  0
 29 30  1  0  0  0  0
 29  3  1  0  0  0  0
 30 18  1  0  0  0  0
M  END
>  <MODEL>
5

>  <REMARK>
 VINA RESULT:      -8.0      2.536      5.617
  Name = 
  0 active torsions:
  status: ('A' for Active; 'I' for Inactive)
                            x       y       z     vdW  Elec       q    Type
                         _______ _______ _______ _____ _____    ______ ____

>  <TORSDO>
F 0

$$$$
=
 OpenBabel11062413193D

 30 37  0  0  1  0  0  0  0  0999 V2000
  186.1340  177.9460  143.3030 C   0  0  1  0  0  3  0  0  0  0  0  0
  184.6100  178.7400  139.7290 C   0  0  0  0  0  2  0  0  0  0  0  0
  189.8040  176.4160  143.5440 C   0  0  1  0  0  3  0  0  0  0  0  0
  185.6360  178.5400  144.5990 C   0  0  0  0  0  2  0  0  0  0  0  0
  187.9550  177.8180  141.5780 C   0  0  0  0  0  0  0  0  0  0  0  0
  189.2320  177.3080  141.1720 C   0  0  0  0  0  0  0  0  0  0  0  0
  185.6330  178.6320  140.8740 C   0  0  2  0  0  0  0  0  0  0  0  0
  189.5450  177.2240  139.7800 C   0  0  0  0  0  0  0  0  0  0  0  0
  185.1930  178.5450  142.2810 C   0  0  2  0  0  0  0  0  0  0  0  0
  192.0710  177.2270  139.8280 C   0  0  0  0  0  3  0  0  0  0  0  0
  187.3270  177.9110  139.2960 N   0  0  0  0  0  0  0  0  0  0  0  0
  188.6190  177.5510  137.5150 N   0  0  0  0  0  0  0  0  0  0  0  0
  188.5220  177.5130  138.8660 C   0  0  0  0  0  0  0  0  0  0  0  0
  187.6200  178.1990  143.0060 C   0  0  0  0  0  2  0  0  0  0  0  0
  185.6820  179.7530  141.7180 O   0  0  0  0  0  0  0  0  0  0  0  0
  190.2900  176.8460  142.1490 C   0  0  1  0  0  3  0  0  0  0  0  0
  191.4590  177.7830  142.1820 C   0  0  0  0  0  0  0  0  0  0  0  0
  191.8500  178.4240  143.4830 C   0  0  0  0  0  2  0  0  0  0  0  0
  185.2750  178.9490  138.3430 C   0  0  0  0  0  2  0  0  0  0  0  0
  187.0000  178.1010  140.5810 C   0  0  0  0  0  0  0  0  0  0  0  0
  186.5910  178.2200  138.2310 C   0  0  0  0  0  0  0  0  0  0  0  0
  184.1270  178.7430  144.3990 C   0  0  0  0  0  2  0  0  0  0  0  0
  187.3940  177.9990  137.1250 C   0  0  0  0  0  0  0  0  0  0  0  0
  192.2820  177.8780  141.1390 C   0  0  0  0  0  3  0  0  0  0  0  0
  189.6540  174.9100  143.5930 C   0  0  0  0  0  1  0  0  0  0  0  0
  187.0320  178.2890  135.7110 C   0  0  0  0  0  1  0  0  0  0  0  0
  190.8970  176.9310  139.2510 C   0  0  0  0  0  3  0  0  0  0  0  0
  183.8540  178.8390  142.8950 C   0  0  0  0  0  2  0  0  0  0  0  0
  190.7360  176.8550  144.5820 N   0  0  0  0  0  2  0  0  0  0  0  0
  190.8660  178.2060  144.4660 O   0  0  0  0  0  0  0  0  0  0  0  0
  1 14  1  6  0  0  0
  1  4  1  0  0  0  0
  3 25  1  6  0  0  0
  3 29  1  0  0  0  0
  5 14  1  0  0  0  0
  6  5  1  0  0  0  0
  7  2  1  6  0  0  0
  7 15  1  0  0  0  0
  7  9  1  0  0  0  0
  8  6  2  0  0  0  0
  9 28  1  1  0  0  0
  9  1  1  0  0  0  0
 10 24  1  0  0  0  0
 11 20  1  0  0  0  0
 12 13  2  0  0  0  0
 13 11  1  0  0  0  0
 13  8  1  0  0  0  0
 15  9  1  0  0  0  0
 16  6  1  1  0  0  0
 16 17  1  0  0  0  0
 16  3  1  0  0  0  0
 17 18  1  0  0  0  0
 18 30  1  0  0  0  0
 19  2  1  0  0  0  0
 20  7  1  0  0  0  0
 20  5  2  0  0  0  0
 21 19  1  0  0  0  0
 21 11  1  0  0  0  0
 22  4  1  0  0  0  0
 23 12  1  0  0  0  0
 23 21  2  0  0  0  0
 24 17  2  0  0  0  0
 26 23  1  0  0  0  0
 27  8  1  0  0  0  0
 27 10  2  0  0  0  0
 28 22  1  0  0  0  0
 30 29  1  0  0  0  0
M  END
>  <MODEL>
6

>  <REMARK>
 VINA RESULT:      -8.0      2.098      5.950
  Name = 
  0 active torsions:
  status: ('A' for Active; 'I' for Inactive)
                            x       y       z     vdW  Elec       q    Type
                         _______ _______ _______ _____ _____    ______ ____

>  <TORSDO>
F 0

$$$$
=
 OpenBabel11062413193D

 30 37  0  0  1  0  0  0  0  0999 V2000
  183.6870  179.0590  143.6370 C   0  0  1  0  0  3  0  0  0  0  0  0
  187.2170  178.7530  141.8560 C   0  0  0  0  0  2  0  0  0  0  0  0
  180.3900  179.1020  141.4020 C   0  0  1  0  0  3  0  0  0  0  0  0
  183.4310  178.7490  145.0940 C   0  0  0  0  0  2  0  0  0  0  0  0
  183.3490  178.4200  141.2310 C   0  0  0  0  0  0  0  0  0  0  0  0
  182.5070  178.3950  140.0710 C   0  0  0  0  0  0  0  0  0  0  0  0
  185.7290  178.5140  142.1700 C   0  0  2  0  0  0  0  0  0  0  0  0
  183.1000  178.2980  138.7750 C   0  0  0  0  0  0  0  0  0  0  0  0
  185.1740  178.8180  143.5040 C   0  0  2  0  0  0  0  0  0  0  0  0
  181.1930  177.3470  137.4180 C   0  0  0  0  0  3  0  0  0  0  0  0
  185.2320  178.4790  139.7960 N   0  0  0  0  0  0  0  0  0  0  0  0
  185.2580  178.2530  137.5780 N   0  0  0  0  0  0  0  0  0  0  0  0
  184.4970  178.3790  138.6920 C   0  0  0  0  0  0  0  0  0  0  0  0
  182.8330  178.2530  142.6470 C   0  0  0  0  0  2  0  0  0  0  0  0
  185.4870  177.4930  143.1020 O   0  0  0  0  0  0  0  0  0  0  0  0
  180.9970  178.4640  140.1410 C   0  0  1  0  0  3  0  0  0  0  0  0
  180.3670  177.1570  139.7630 C   0  0  0  0  0  0  0  0  0  0  0  0
  179.4600  176.4700  140.7440 C   0  0  0  0  0  2  0  0  0  0  0  0
  187.6250  178.2530  140.4450 C   0  0  0  0  0  2  0  0  0  0  0  0
  184.7450  178.4790  141.0440 C   0  0  0  0  0  0  0  0  0  0  0  0
  186.5140  178.4270  139.4400 C   0  0  0  0  0  0  0  0  0  0  0  0
  184.7310  179.1220  145.8220 C   0  0  0  0  0  2  0  0  0  0  0  0
  186.5300  178.2840  138.0630 C   0  0  0  0  0  0  0  0  0  0  0  0
  180.4170  176.7170  138.5070 C   0  0  0  0  0  3  0  0  0  0  0  0
  180.0550  180.5540  141.1320 C   0  0  0  0  0  1  0  0  0  0  0  0
  187.7410  178.0940  137.2190 C   0  0  0  0  0  1  0  0  0  0  0  0
  182.3360  178.0380  137.5330 C   0  0  0  0  0  3  0  0  0  0  0  0
  185.8770  179.0750  144.8070 C   0  0  0  0  0  2  0  0  0  0  0  0
  179.1850  178.3870  141.8230 N   0  0  0  0  0  2  0  0  0  0  0  0
  179.5320  177.0830  142.0100 O   0  0  0  0  0  0  0  0  0  0  0  0
  1 14  1  6  0  0  0
  1  4  1  0  0  0  0
  3 25  1  6  0  0  0
  3 29  1  0  0  0  0
  4 22  1  0  0  0  0
  5 14  1  0  0  0  0
  6 16  1  0  0  0  0
  6  5  1  0  0  0  0
  7  2  1  6  0  0  0
  7 15  1  0  0  0  0
  7  9  1  0  0  0  0
  8  6  2  0  0  0  0
  9  1  1  0  0  0  0
  9 28  1  1  0  0  0
 10 27  2  0  0  0  0
 10 24  1  0  0  0  0
 11 20  1  0  0  0  0
 12 23  1  0  0  0  0
 12 13  2  0  0  0  0
 13  8  1  0  0  0  0
 13 11  1  0  0  0  0
 15  9  1  0  0  0  0
 16 17  1  1  0  0  0
 16  3  1  0  0  0  0
 17 18  1  0  0  0  0
 18 30  1  0  0  0  0
 19  2  1  0  0  0  0
 20  5  2  0  0  0  0
 20  7  1  0  0  0  0
 21 11  1  0  0  0  0
 21 19  1  0  0  0  0
 23 21  2  0  0  0  0
 24 17  2  0  0  0  0
 26 23  1  0  0  0  0
 27  8  1  0  0  0  0
 28 22  1  0  0  0  0
 29 30  1  0  0  0  0
M  END
>  <MODEL>
7

>  <REMARK>
 VINA RESULT:      -7.7      1.996      2.974
  Name = 
  0 active torsions:
  status: ('A' for Active; 'I' for Inactive)
                            x       y       z     vdW  Elec       q    Type
                         _______ _______ _______ _____ _____    ______ ____

>  <TORSDO>
F 0

$$$$
=
 OpenBabel11062413193D

 30 37  0  0  1  0  0  0  0  0999 V2000
  188.0730  177.9000  145.1070 C   0  0  1  0  0  3  0  0  0  0  0  0
  190.5010  176.8690  142.1460 C   0  0  0  0  0  2  0  0  0  0  0  0
  184.6630  179.7710  144.2500 C   0  0  1  0  0  3  0  0  0  0  0  0
  188.1060  177.2980  146.4930 C   0  0  0  0  0  2  0  0  0  0  0  0
  186.8640  178.1480  142.9200 C   0  0  0  0  0  0  0  0  0  0  0  0
  185.8210  178.7640  142.1530 C   0  0  0  0  0  0  0  0  0  0  0  0
  189.2010  177.1030  142.9360 C   0  0  2  0  0  0  0  0  0  0  0  0
  185.9430  178.8380  140.7310 C   0  0  0  0  0  0  0  0  0  0  0  0
  189.2120  177.1880  144.4110 C   0  0  2  0  0  0  0  0  0  0  0  0
  183.5280  179.0710  140.0280 C   0  0  0  0  0  3  0  0  0  0  0  0
  188.1270  177.9350  140.9270 N   0  0  0  0  0  0  0  0  0  0  0  0
  187.4600  178.3640  138.8430 N   0  0  0  0  0  0  0  0  0  0  0  0
  187.1570  178.4300  140.1620 C   0  0  0  0  0  0  0  0  0  0  0  0
  186.7240  177.7780  144.3830 C   0  0  0  0  0  2  0  0  0  0  0  0
  188.7960  176.0160  143.7260 O   0  0  0  0  0  0  0  0  0  0  0  0
  184.5710  179.3490  142.7740 C   0  0  1  0  0  3  0  0  0  0  0  0
  183.3590  178.5260  142.4560 C   0  0  0  0  0  0  0  0  0  0  0  0
  182.5410  177.9600  143.5820 C   0  0  0  0  0  2  0  0  0  0  0  0
  190.2580  176.6850  140.6240 C   0  0  0  0  0  2  0  0  0  0  0  0
  188.0400  177.7510  142.2510 C   0  0  0  0  0  0  0  0  0  0  0  0
  189.1120  177.5300  140.1280 C   0  0  0  0  0  0  0  0  0  0  0  0
  189.5800  176.9500  146.7490 C   0  0  0  0  0  2  0  0  0  0  0  0
  188.6970  177.7930  138.8340 C   0  0  0  0  0  0  0  0  0  0  0  0
  182.8760  178.4790  141.2160 C   0  0  0  0  0  3  0  0  0  0  0  0
  184.9360  181.2570  144.3430 C   0  0  0  0  0  1  0  0  0  0  0  0
  189.4310  177.4310  137.5910 C   0  0  0  0  0  1  0  0  0  0  0  0
  184.8420  179.2400  139.8260 C   0  0  0  0  0  3  0  0  0  0  0  0
  190.2740  176.7880  145.3940 C   0  0  0  0  0  2  0  0  0  0  0  0
  183.4270  179.4490  144.9640 N   0  0  0  0  0  2  0  0  0  0  0  0
  183.2070  178.1130  144.8140 O   0  0  0  0  0  0  0  0  0  0  0  0
  1 14  1  6  0  0  0
  1  4  1  0  0  0  0
  3 25  1  6  0  0  0
  3 29  1  0  0  0  0
  4 22  1  0  0  0  0
  5 14  1  0  0  0  0
  6  5  1  0  0  0  0
  7  2  1  6  0  0  0
  7 15  1  0  0  0  0
  7  9  1  0  0  0  0
  8  6  2  0  0  0  0
  9  1  1  0  0  0  0
  9 28  1  1  0  0  0
 10 24  1  0  0  0  0
 11 20  1  0  0  0  0
 12 13  2  0  0  0  0
 13  8  1  0  0  0  0
 13 11  1  0  0  0  0
 15  9  1  0  0  0  0
 16  6  1  1  0  0  0
 16  3  1  0  0  0  0
 17 16  1  0  0  0  0
 17 18  1  0  0  0  0
 18 30  1  0  0  0  0
 19  2  1  0  0  0  0
 20  5  2  0  0  0  0
 20  7  1  0  0  0  0
 21 19  1  0  0  0  0
 21 11  1  0  0  0  0
 23 12  1  0  0  0  0
 23 21  2  0  0  0  0
 24 17  2  0  0  0  0
 26 23  1  0  0  0  0
 27 10  2  0  0  0  0
 27  8  1  0  0  0  0
 28 22  1  0  0  0  0
 30 29  1  0  0  0  0
M  END
>  <MODEL>
8

>  <REMARK>
 VINA RESULT:      -7.6      2.380      4.034
  Name = 
  0 active torsions:
  status: ('A' for Active; 'I' for Inactive)
                            x       y       z     vdW  Elec       q    Type
                         _______ _______ _______ _____ _____    ______ ____

>  <TORSDO>
F 0

$$$$
=
 OpenBabel11062413193D

 30 37  0  0  1  0  0  0  0  0999 V2000
  185.9670  178.7710  140.8390 C   0  0  1  0  0  3  0  0  0  0  0  0
  187.2430  178.2220  144.5530 C   0  0  0  0  0  2  0  0  0  0  0  0
  188.5950  178.6250  137.8500 C   0  0  1  0  0  3  0  0  0  0  0  0
  184.5300  178.6230  140.3940 C   0  0  0  0  0  2  0  0  0  0  0  0
  188.3160  177.8840  140.7860 C   0  0  0  0  0  0  0  0  0  0  0  0
  189.5650  177.7470  140.0950 C   0  0  0  0  0  0  0  0  0  0  0  0
  187.0970  178.0410  143.0320 C   0  0  2  0  0  0  0  0  0  0  0  0
  190.7580  177.5030  140.8420 C   0  0  0  0  0  0  0  0  0  0  0  0
  185.8830  178.4940  142.3240 C   0  0  2  0  0  0  0  0  0  0  0  0
  192.2400  176.4400  139.0940 C   0  0  0  0  0  3  0  0  0  0  0  0
  189.4980  177.7590  142.8350 N   0  0  0  0  0  0  0  0  0  0  0  0
  191.6590  177.2960  143.1310 N   0  0  0  0  0  0  0  0  0  0  0  0
  190.6710  177.5520  142.2400 C   0  0  0  0  0  0  0  0  0  0  0  0
  186.9680  177.8770  140.0930 C   0  0  0  0  0  2  0  0  0  0  0  0
  186.1020  177.1290  142.6460 O   0  0  0  0  0  0  0  0  0  0  0  0
  189.6950  177.8460  138.5910 C   0  0  1  0  0  3  0  0  0  0  0  0
  190.0110  176.5160  137.9760 C   0  0  0  0  0  0  0  0  0  0  0  0
  189.0880  175.9520  136.9340 C   0  0  0  0  0  2  0  0  0  0  0  0
  188.5300  177.5670  145.1200 C   0  0  0  0  0  2  0  0  0  0  0  0
  188.3300  177.9000  142.1960 C   0  0  0  0  0  0  0  0  0  0  0  0
  189.6810  177.6500  144.1490 C   0  0  0  0  0  0  0  0  0  0  0  0
  183.6850  179.0520  141.6030 C   0  0  0  0  0  2  0  0  0  0  0  0
  191.0220  177.3590  144.3330 C   0  0  0  0  0  0  0  0  0  0  0  0
  191.1980  175.9430  138.1690 C   0  0  0  0  0  3  0  0  0  0  0  0
  189.0550  180.0450  137.5930 C   0  0  0  0  0  1  0  0  0  0  0  0
  191.6800  177.0620  145.6340 C   0  0  0  0  0  1  0  0  0  0  0  0
  192.0530  177.1230  140.2320 C   0  0  0  0  0  3  0  0  0  0  0  0
  184.5360  178.8790  142.8650 C   0  0  0  0  0  2  0  0  0  0  0  0
  188.2590  177.9770  136.5820 N   0  0  0  0  0  2  0  0  0  0  0  0
  187.8940  176.6960  136.8650 O   0  0  0  0  0  0  0  0  0  0  0  0
  1 14  1  6  0  0  0
  1  9  1  0  0  0  0
  2 19  1  0  0  0  0
  3 25  1  6  0  0  0
  3 16  1  0  0  0  0
  4  1  1  0  0  0  0
  4 22  1  0  0  0  0
  5 20  2  0  0  0  0
  6  5  1  0  0  0  0
  6  8  2  0  0  0  0
  7  2  1  1  0  0  0
  8 13  1  0  0  0  0
  9 15  1  0  0  0  0
  9 28  1  1  0  0  0
  9  7  1  0  0  0  0
 10 27  2  0  0  0  0
 11 21  1  0  0  0  0
 12 23  1  0  0  0  0
 13 11  1  0  0  0  0
 13 12  2  0  0  0  0
 14  5  1  0  0  0  0
 15  7  1  0  0  0  0
 16 17  1  6  0  0  0
 16  6  1  0  0  0  0
 17 24  2  0  0  0  0
 18 17  1  0  0  0  0
 20 11  1  0  0  0  0
 20  7  1  0  0  0  0
 21 23  2  0  0  0  0
 21 19  1  0  0  0  0
 22 28  1  0  0  0  0
 23 26  1  0  0  0  0
 24 10  1  0  0  0  0
 27  8  1  0  0  0  0
 29 30  1  0  0  0  0
 29  3  1  0  0  0  0
 30 18  1  0  0  0  0
M  END
>  <MODEL>
9

>  <REMARK>
 VINA RESULT:      -7.6      2.589      4.778
  Name = 
  0 active torsions:
  status: ('A' for Active; 'I' for Inactive)
                            x       y       z     vdW  Elec       q    Type
                         _______ _______ _______ _____ _____    ______ ____

>  <TORSDO>
F 0

$$$$
