=
 OpenBabel11062412323D

 33 35  0  0  1  0  0  0  0  0999 V2000
  189.1420  177.3290  146.3460 N   0  0  0  0  0  2  0  0  0  0  0  0
  188.0600  177.1150  143.6760 C   0  0  2  0  0  3  0  0  0  0  0  0
  189.5410  177.3020  143.8700 C   0  0  0  0  0  0  0  0  0  0  0  0
  185.1280  178.5170  145.6810 C   0  0  0  0  0  0  0  0  0  0  0  0
  186.9640  178.0900  147.2020 C   0  0  0  0  0  0  0  0  0  0  0  0
  191.2440  176.8370  145.4950 O   0  0  0  0  0  0  0  0  0  0  0  0
  187.4890  178.0970  148.5960 C   0  0  0  0  0  1  0  0  0  0  0  0
  183.3030  179.1780  144.1370 C   0  0  0  0  0  0  0  0  0  0  0  0
  187.7710  177.6900  146.1230 C   0  0  0  0  0  0  0  0  0  0  0  0
  187.2430  177.6770  144.8140 C   0  0  0  0  0  0  0  0  0  0  0  0
  187.7730  175.7570  143.5060 O   0  0  0  0  0  1  0  0  0  0  0  0
  185.6490  178.5000  146.9750 C   0  0  0  0  0  3  0  0  0  0  0  0
  184.2540  179.1060  142.9840 C   0  0  0  0  0  2  0  0  0  0  0  0
  182.0980  179.4850  143.9450 O   0  0  0  0  0  0  0  0  0  0  0  0
  185.9210  178.1050  144.5920 C   0  0  0  0  0  0  0  0  0  0  0  0
  185.2950  178.0110  143.2210 C   0  0  0  0  0  2  0  0  0  0  0  0
  190.3300  177.5890  142.8110 C   0  0  0  0  0  0  0  0  0  0  0  0
  190.0460  177.1440  145.2570 C   0  0  0  0  0  0  0  0  0  0  0  0
  183.7860  178.9620  145.4650 N   0  0  0  0  0  2  0  0  0  0  0  0
  192.0410  179.1520  143.6730 C   0  0  0  0  0  1  0  0  0  0  0  0
  191.7990  177.8400  142.9520 C   0  0  0  0  0  2  0  0  0  0  0  0
  189.7430  177.7220  141.4320 C   0  0  0  0  0  2  0  0  0  0  0  0
  190.8700  177.0410  139.3400 C   0  0  0  0  0  3  0  0  0  0  0  0
  190.2850  176.6890  140.4900 C   0  0  0  0  0  3  0  0  0  0  0  0
  191.3840  176.0290  138.3600 C   0  0  1  0  0  3  0  0  0  0  0  0
  190.8390  176.2410  137.0910 O   0  0  0  0  0  1  0  0  0  0  0  0
  193.5310  176.9730  138.8380 O   0  0  0  0  0  0  0  0  0  0  0  0
  192.8770  176.0380  138.3000 C   0  0  0  0  0  0  0  0  0  0  0  0
  193.5540  174.9720  137.6290 N   0  0  0  0  0  2  0  0  0  0  0  0
  195.0010  174.8200  137.6620 C   0  0  0  0  0  2  0  0  0  0  0  0
  195.4350  174.1870  138.9740 C   0  0  0  0  0  3  0  0  0  0  0  0
  196.4970  174.9030  139.5300 O   0  0  0  0  0  1  0  0  0  0  0  0
  195.8310  172.8700  138.7450 O   0  0  0  0  0  1  0  0  0  0  0  0
  2 11  1  1  0  0  0
  2  3  1  0  0  0  0
  2 10  1  0  0  0  0
  3 18  1  0  0  0  0
  4 12  1  0  0  0  0
  5  7  1  0  0  0  0
  8 19  1  0  0  0  0
  9  1  1  0  0  0  0
  9  5  1  0  0  0  0
 10  9  2  0  0  0  0
 12  5  2  0  0  0  0
 13 16  1  0  0  0  0
 13  8  1  0  0  0  0
 14  8  2  0  0  0  0
 15 10  1  0  0  0  0
 15  4  2  0  0  0  0
 16 15  1  0  0  0  0
 17 21  1  0  0  0  0
 17  3  2  0  0  0  0
 18  6  2  0  0  0  0
 18  1  1  0  0  0  0
 19  4  1  0  0  0  0
 21 20  1  0  0  0  0
 22 17  1  0  0  0  0
 23 24  2  0  0  0  0
 24 22  1  0  0  0  0
 25 26  1  6  0  0  0
 25 23  1  0  0  0  0
 28 25  1  0  0  0  0
 28 27  2  0  0  0  0
 29 30  1  0  0  0  0
 29 28  1  0  0  0  0
 30 31  1  0  0  0  0
 31 32  1  0  0  0  0
 33 31  1  0  0  0  0
M  END
>  <MODEL>
1

>  <REMARK>
 VINA RESULT:      -9.8      0.000      0.000
  Name = 
  7 active torsions:
  status: ('A' for Active; 'I' for Inactive)
    1  A    between atoms: C_10  and  C_31
    2  A    between atoms: C_11  and  C_26
    3  A    between atoms: C_11  and  C_28
    4  A    between atoms: C_13  and  C_23
    5  A    between atoms: C_13  and  C_24
    6  A    between atoms: C_26  and  C_27
    7  A    between atoms: N_29  and  C_31
                            x       y       z     vdW  Elec       q    Type
                         _______ _______ _______ _____ _____    ______ ____

>  <TORSDO>
F 7

$$$$
=
 OpenBabel11062412323D

 33 35  0  0  1  0  0  0  0  0999 V2000
  189.0760  177.2730  146.3500 N   0  0  0  0  0  2  0  0  0  0  0  0
  188.0240  177.0650  143.6670 C   0  0  2  0  0  3  0  0  0  0  0  0
  189.5060  177.2230  143.8790 C   0  0  0  0  0  0  0  0  0  0  0  0
  185.0960  178.5390  145.6270 C   0  0  0  0  0  0  0  0  0  0  0  0
  186.9030  178.0830  147.1730 C   0  0  0  0  0  0  0  0  0  0  0  0
  191.1780  176.7340  145.5280 O   0  0  0  0  0  0  0  0  0  0  0  0
  187.4110  178.0880  148.5740 C   0  0  0  0  0  1  0  0  0  0  0  0
  183.3050  179.2270  144.0560 C   0  0  0  0  0  0  0  0  0  0  0  0
  187.7160  177.6610  146.1070 C   0  0  0  0  0  0  0  0  0  0  0  0
  187.2040  177.6500  144.7920 C   0  0  0  0  0  0  0  0  0  0  0  0
  187.7120  175.7120  143.5010 O   0  0  0  0  0  1  0  0  0  0  0  0
  185.6010  178.5190  146.9280 C   0  0  0  0  0  3  0  0  0  0  0  0
  184.2690  179.1290  142.9160 C   0  0  0  0  0  2  0  0  0  0  0  0
  182.1090  179.5570  143.8460 O   0  0  0  0  0  0  0  0  0  0  0  0
  185.8940  178.1040  144.5500 C   0  0  0  0  0  0  0  0  0  0  0  0
  185.2840  178.0140  143.1720 C   0  0  0  0  0  2  0  0  0  0  0  0
  190.3140  177.4880  142.8290 C   0  0  0  0  0  0  0  0  0  0  0  0
  189.9900  177.0630  145.2730 C   0  0  0  0  0  0  0  0  0  0  0  0
  183.7660  179.0090  145.3910 N   0  0  0  0  0  2  0  0  0  0  0  0
  192.0470  179.0440  143.6600 C   0  0  0  0  0  1  0  0  0  0  0  0
  191.7860  177.7090  142.9870 C   0  0  0  0  0  2  0  0  0  0  0  0
  189.7480  177.6240  141.4420 C   0  0  0  0  0  2  0  0  0  0  0  0
  190.2350  176.8570  139.1430 C   0  0  0  0  0  3  0  0  0  0  0  0
  190.6410  177.0080  140.4080 C   0  0  0  0  0  3  0  0  0  0  0  0
  191.0910  176.2060  138.0980 C   0  0  1  0  0  3  0  0  0  0  0  0
  191.1890  174.8300  138.3180 O   0  0  0  0  0  1  0  0  0  0  0  0
  191.0950  175.9160  135.7220 O   0  0  0  0  0  0  0  0  0  0  0  0
  190.5770  176.4840  136.7230 C   0  0  0  0  0  0  0  0  0  0  0  0
  189.4890  177.3960  136.5570 N   0  0  0  0  0  2  0  0  0  0  0  0
  188.8260  177.5990  135.2770 C   0  0  0  0  0  2  0  0  0  0  0  0
  187.3700  177.9830  135.4920 C   0  0  0  0  0  3  0  0  0  0  0  0
  187.2370  178.7480  136.6520 O   0  0  0  0  0  1  0  0  0  0  0  0
  186.5980  176.8280  135.6050 O   0  0  0  0  0  1  0  0  0  0  0  0
  2 11  1  1  0  0  0
  2  3  1  0  0  0  0
  2 10  1  0  0  0  0
  3 18  1  0  0  0  0
  4 12  1  0  0  0  0
  5  7  1  0  0  0  0
  8 19  1  0  0  0  0
  9  1  1  0  0  0  0
  9  5  1  0  0  0  0
 10  9  2  0  0  0  0
 12  5  2  0  0  0  0
 13 16  1  0  0  0  0
 13  8  1  0  0  0  0
 14  8  2  0  0  0  0
 15 10  1  0  0  0  0
 15  4  2  0  0  0  0
 16 15  1  0  0  0  0
 17 21  1  0  0  0  0
 17  3  2  0  0  0  0
 18  6  2  0  0  0  0
 18  1  1  0  0  0  0
 19  4  1  0  0  0  0
 21 20  1  0  0  0  0
 22 17  1  0  0  0  0
 23 24  2  0  0  0  0
 24 22  1  0  0  0  0
 25 26  1  1  0  0  0
 25 23  1  0  0  0  0
 27 28  2  0  0  0  0
 28 25  1  0  0  0  0
 29 28  1  0  0  0  0
 30 31  1  0  0  0  0
 30 29  1  0  0  0  0
 31 33  1  0  0  0  0
 31 32  1  0  0  0  0
M  END
>  <MODEL>
2

>  <REMARK>
 VINA RESULT:      -9.3      2.034      3.549
  Name = 
  7 active torsions:
  status: ('A' for Active; 'I' for Inactive)
    1  A    between atoms: C_10  and  C_31
    2  A    between atoms: C_11  and  C_26
    3  A    between atoms: C_11  and  C_28
    4  A    between atoms: C_13  and  C_23
    5  A    between atoms: C_13  and  C_24
    6  A    between atoms: C_26  and  C_27
    7  A    between atoms: N_29  and  C_31
                            x       y       z     vdW  Elec       q    Type
                         _______ _______ _______ _____ _____    ______ ____

>  <TORSDO>
F 7

$$$$
=
 OpenBabel11062412323D

 33 35  0  0  1  0  0  0  0  0999 V2000
  186.9690  178.2850  143.1900 N   0  0  0  0  0  2  0  0  0  0  0  0
  189.8270  178.1190  142.8010 C   0  0  2  0  0  3  0  0  0  0  0  0
  188.9010  177.9630  141.6230 C   0  0  0  0  0  0  0  0  0  0  0  0
  189.3870  177.0120  146.4290 C   0  0  0  0  0  0  0  0  0  0  0  0
  187.2210  177.6520  145.5540 C   0  0  0  0  0  0  0  0  0  0  0  0
  186.7170  178.6530  140.9120 O   0  0  0  0  0  0  0  0  0  0  0  0
  185.7610  177.8420  145.7830 C   0  0  0  0  0  1  0  0  0  0  0  0
  191.5390  176.1380  147.3000 C   0  0  0  0  0  0  0  0  0  0  0  0
  187.7970  177.8950  144.2950 C   0  0  0  0  0  0  0  0  0  0  0  0
  189.1850  177.7230  144.1080 C   0  0  0  0  0  0  0  0  0  0  0  0
  190.2820  179.4390  142.8710 O   0  0  0  0  0  1  0  0  0  0  0  0
  188.0180  177.2130  146.6120 C   0  0  0  0  0  3  0  0  0  0  0  0
  192.0660  176.0470  145.9020 C   0  0  0  0  0  2  0  0  0  0  0  0
  192.2640  175.8070  148.2720 O   0  0  0  0  0  0  0  0  0  0  0  0
  189.9800  177.2670  145.1770 C   0  0  0  0  0  0  0  0  0  0  0  0
  191.4800  177.1660  145.0390 C   0  0  0  0  0  2  0  0  0  0  0  0
  189.3840  177.5280  140.4380 C   0  0  0  0  0  0  0  0  0  0  0  0
  187.4790  178.3150  141.8560 C   0  0  0  0  0  0  0  0  0  0  0  0
  190.1840  176.5400  147.5180 N   0  0  0  0  0  2  0  0  0  0  0  0
  188.6670  178.4320  138.2510 C   0  0  0  0  0  1  0  0  0  0  0  0
  188.5020  177.3010  139.2490 C   0  0  0  0  0  2  0  0  0  0  0  0
  190.8440  177.2020  140.2780 C   0  0  0  0  0  2  0  0  0  0  0  0
  192.2400  176.4550  138.3800 C   0  0  0  0  0  3  0  0  0  0  0  0
  191.1000  176.3510  139.0710 C   0  0  0  0  0  3  0  0  0  0  0  0
  192.5050  175.6480  137.1440 C   0  0  1  0  0  3  0  0  0  0  0  0
  191.7810  176.1450  136.0580 O   0  0  0  0  0  1  0  0  0  0  0  0
  194.5420  176.6100  136.3350 O   0  0  0  0  0  0  0  0  0  0  0  0
  193.9640  175.6020  136.8270 C   0  0  0  0  0  0  0  0  0  0  0  0
  194.6980  174.4040  137.0920 N   0  0  0  0  0  2  0  0  0  0  0  0
  196.1460  174.3270  136.9640 C   0  0  0  0  0  2  0  0  0  0  0  0
  196.7790  174.0180  138.3120 C   0  0  0  0  0  3  0  0  0  0  0  0
  195.7940  173.6930  139.2470 O   0  0  0  0  0  1  0  0  0  0  0  0
  197.4920  175.1300  138.7550 O   0  0  0  0  0  1  0  0  0  0  0  0
  1  9  1  0  0  0  0
  2 11  1  1  0  0  0
  2 10  1  0  0  0  0
  3 18  1  0  0  0  0
  3  2  1  0  0  0  0
  4 12  1  0  0  0  0
  4 19  1  0  0  0  0
  5  7  1  0  0  0  0
  5 12  2  0  0  0  0
  6 18  2  0  0  0  0
  8 19  1  0  0  0  0
  8 14  2  0  0  0  0
  9  5  1  0  0  0  0
 10  9  2  0  0  0  0
 10 15  1  0  0  0  0
 13  8  1  0  0  0  0
 15  4  2  0  0  0  0
 16 15  1  0  0  0  0
 16 13  1  0  0  0  0
 17  3  2  0  0  0  0
 18  1  1  0  0  0  0
 20 21  1  0  0  0  0
 21 17  1  0  0  0  0
 22 17  1  0  0  0  0
 23 24  2  0  0  0  0
 24 22  1  0  0  0  0
 25 26  1  6  0  0  0
 25 23  1  0  0  0  0
 27 28  2  0  0  0  0
 28 29  1  0  0  0  0
 28 25  1  0  0  0  0
 30 29  1  0  0  0  0
 30 31  1  0  0  0  0
 31 33  1  0  0  0  0
 31 32  1  0  0  0  0
M  END
>  <MODEL>
3

>  <REMARK>
 VINA RESULT:      -9.0      2.141      4.562
  Name = 
  7 active torsions:
  status: ('A' for Active; 'I' for Inactive)
    1  A    between atoms: C_10  and  C_31
    2  A    between atoms: C_11  and  C_26
    3  A    between atoms: C_11  and  C_28
    4  A    between atoms: C_13  and  C_23
    5  A    between atoms: C_13  and  C_24
    6  A    between atoms: C_26  and  C_27
    7  A    between atoms: N_29  and  C_31
                            x       y       z     vdW  Elec       q    Type
                         _______ _______ _______ _____ _____    ______ ____

>  <TORSDO>
F 7

$$$$
=
 OpenBabel11062412323D

 33 35  0  0  1  0  0  0  0  0999 V2000
  189.7300  177.2550  145.7920 N   0  0  0  0  0  2  0  0  0  0  0  0
  188.2270  177.1380  143.3270 C   0  0  2  0  0  3  0  0  0  0  0  0
  189.7160  177.3610  143.2860 C   0  0  0  0  0  0  0  0  0  0  0  0
  185.6360  178.3510  145.8580 C   0  0  0  0  0  0  0  0  0  0  0  0
  187.7070  177.9060  147.0320 C   0  0  0  0  0  0  0  0  0  0  0  0
  191.6730  176.8700  144.5830 O   0  0  0  0  0  0  0  0  0  0  0  0
  188.4560  177.8610  148.3200 C   0  0  0  0  0  1  0  0  0  0  0  0
  183.5670  179.0300  144.6710 C   0  0  0  0  0  0  0  0  0  0  0  0
  188.3340  177.5850  145.8160 C   0  0  0  0  0  0  0  0  0  0  0  0
  187.5970  177.6190  144.6120 C   0  0  0  0  0  0  0  0  0  0  0  0
  187.9460  175.7820  143.1350 O   0  0  0  0  0  1  0  0  0  0  0  0
  186.3650  178.2870  147.0460 C   0  0  0  0  0  3  0  0  0  0  0  0
  184.3160  179.0440  143.3760 C   0  0  0  0  0  2  0  0  0  0  0  0
  182.3410  179.3090  144.6950 O   0  0  0  0  0  0  0  0  0  0  0  0
  186.2470  178.0170  144.6330 C   0  0  0  0  0  0  0  0  0  0  0  0
  185.4060  177.9710  143.3800 C   0  0  0  0  0  2  0  0  0  0  0  0
  190.3120  177.7240  142.1280 C   0  0  0  0  0  0  0  0  0  0  0  0
  190.4460  177.1510  144.5600 C   0  0  0  0  0  0  0  0  0  0  0  0
  184.2680  178.7650  145.8880 N   0  0  0  0  0  2  0  0  0  0  0  0
  192.3870  177.2770  140.8610 C   0  0  0  0  0  1  0  0  0  0  0  0
  191.7790  178.0120  142.0400 C   0  0  0  0  0  2  0  0  0  0  0  0
  189.5030  177.9060  140.8730 C   0  0  0  0  0  2  0  0  0  0  0  0
  189.2520  176.8540  138.6500 C   0  0  0  0  0  3  0  0  0  0  0  0
  189.7100  176.7810  139.9050 C   0  0  0  0  0  3  0  0  0  0  0  0
  189.4070  175.7270  137.6730 C   0  0  1  0  0  3  0  0  0  0  0  0
  188.1780  175.3830  137.1080 O   0  0  0  0  0  1  0  0  0  0  0  0
  190.1230  176.9270  135.7290 O   0  0  0  0  0  0  0  0  0  0  0  0
  190.4000  176.0640  136.6080 C   0  0  0  0  0  0  0  0  0  0  0  0
  191.6660  175.4010  136.6000 N   0  0  0  0  0  2  0  0  0  0  0  0
  192.7450  175.7830  135.7000 C   0  0  0  0  0  2  0  0  0  0  0  0
  194.0240  176.0280  136.4850 C   0  0  0  0  0  3  0  0  0  0  0  0
  193.7270  176.3300  137.8150 O   0  0  0  0  0  1  0  0  0  0  0  0
  194.7240  177.0880  135.9120 O   0  0  0  0  0  1  0  0  0  0  0  0
  1  9  1  0  0  0  0
  2 11  1  1  0  0  0
  2 10  1  0  0  0  0
  3  2  1  0  0  0  0
  3 18  1  0  0  0  0
  4 19  1  0  0  0  0
  4 12  1  0  0  0  0
  5 12  2  0  0  0  0
  5  7  1  0  0  0  0
  8 14  2  0  0  0  0
  8 19  1  0  0  0  0
  9  5  1  0  0  0  0
 10 15  1  0  0  0  0
 10  9  2  0  0  0  0
 13 16  1  0  0  0  0
 13  8  1  0  0  0  0
 15  4  2  0  0  0  0
 16 15  1  0  0  0  0
 17  3  2  0  0  0  0
 18  6  2  0  0  0  0
 18  1  1  0  0  0  0
 20 21  1  0  0  0  0
 21 17  1  0  0  0  0
 22 17  1  0  0  0  0
 23 24  2  0  0  0  0
 24 22  1  0  0  0  0
 25 26  1  6  0  0  0
 25 23  1  0  0  0  0
 27 28  2  0  0  0  0
 28 25  1  0  0  0  0
 29 28  1  0  0  0  0
 30 31  1  0  0  0  0
 30 29  1  0  0  0  0
 31 32  1  0  0  0  0
 33 31  1  0  0  0  0
M  END
>  <MODEL>
4

>  <REMARK>
 VINA RESULT:      -9.0      1.548      2.012
  Name = 
  7 active torsions:
  status: ('A' for Active; 'I' for Inactive)
    1  A    between atoms: C_10  and  C_31
    2  A    between atoms: C_11  and  C_26
    3  A    between atoms: C_11  and  C_28
    4  A    between atoms: C_13  and  C_23
    5  A    between atoms: C_13  and  C_24
    6  A    between atoms: C_26  and  C_27
    7  A    between atoms: N_29  and  C_31
                            x       y       z     vdW  Elec       q    Type
                         _______ _______ _______ _____ _____    ______ ____

>  <TORSDO>
F 7

$$$$
=
 OpenBabel11062412323D

 33 35  0  0  1  0  0  0  0  0999 V2000
  189.9640  177.1250  145.8970 N   0  0  0  0  0  2  0  0  0  0  0  0
  188.2820  176.8430  143.5650 C   0  0  2  0  0  3  0  0  0  0  0  0
  189.7670  177.0310  143.3990 C   0  0  0  0  0  0  0  0  0  0  0  0
  185.9030  178.3080  146.1690 C   0  0  0  0  0  0  0  0  0  0  0  0
  188.0480  177.9150  147.2230 C   0  0  0  0  0  0  0  0  0  0  0  0
  191.8070  176.6040  144.5860 O   0  0  0  0  0  0  0  0  0  0  0  0
  188.8890  177.9580  148.4530 C   0  0  0  0  0  1  0  0  0  0  0  0
  183.7630  178.9330  145.0830 C   0  0  0  0  0  0  0  0  0  0  0  0
  188.5790  177.4840  145.9950 C   0  0  0  0  0  0  0  0  0  0  0  0
  187.7560  177.4380  144.8490 C   0  0  0  0  0  0  0  0  0  0  0  0
  187.9680  175.4820  143.5040 O   0  0  0  0  0  1  0  0  0  0  0  0
  186.7160  178.3230  147.3030 C   0  0  0  0  0  3  0  0  0  0  0  0
  184.4150  178.8270  143.7400 C   0  0  0  0  0  2  0  0  0  0  0  0
  182.5460  179.2380  145.1730 O   0  0  0  0  0  0  0  0  0  0  0  0
  186.4170  177.8640  144.9340 C   0  0  0  0  0  0  0  0  0  0  0  0
  185.4860  177.7350  143.7530 C   0  0  0  0  0  2  0  0  0  0  0  0
  190.2820  177.2880  142.1760 C   0  0  0  0  0  0  0  0  0  0  0  0
  190.5860  176.9080  144.6300 C   0  0  0  0  0  0  0  0  0  0  0  0
  184.5470  178.7500  146.2640 N   0  0  0  0  0  2  0  0  0  0  0  0
  192.0700  177.4800  140.4780 C   0  0  0  0  0  1  0  0  0  0  0  0
  191.7420  177.5370  141.9580 C   0  0  0  0  0  2  0  0  0  0  0  0
  189.3860  177.3850  140.9720 C   0  0  0  0  0  2  0  0  0  0  0  0
  187.0720  178.0580  140.4210 C   0  0  0  0  0  3  0  0  0  0  0  0
  188.0860  178.0600  141.2920 C   0  0  0  0  0  3  0  0  0  0  0  0
  185.7760  178.7610  140.6970 C   0  0  1  0  0  3  0  0  0  0  0  0
  186.0010  180.0150  141.2700 O   0  0  0  0  0  1  0  0  0  0  0  0
  184.5240  180.0180  139.0900 O   0  0  0  0  0  0  0  0  0  0  0  0
  184.9510  178.8890  139.4580 C   0  0  0  0  0  0  0  0  0  0  0  0
  184.6560  177.7170  138.6930 N   0  0  0  0  0  2  0  0  0  0  0  0
  184.0000  177.7740  137.3950 C   0  0  0  0  0  2  0  0  0  0  0  0
  184.8770  177.1330  136.3320 C   0  0  0  0  0  3  0  0  0  0  0  0
  184.1890  176.0990  135.6940 O   0  0  0  0  0  1  0  0  0  0  0  0
  186.0310  176.6260  136.9260 O   0  0  0  0  0  1  0  0  0  0  0  0
  1  9  1  0  0  0  0
  2 11  1  1  0  0  0
  2 10  1  0  0  0  0
  3  2  1  0  0  0  0
  3 18  1  0  0  0  0
  4 19  1  0  0  0  0
  4 12  1  0  0  0  0
  5 12  2  0  0  0  0
  5  7  1  0  0  0  0
  6 18  2  0  0  0  0
  8 14  2  0  0  0  0
  8 19  1  0  0  0  0
  9  5  1  0  0  0  0
 10 15  1  0  0  0  0
 10  9  2  0  0  0  0
 13 16  1  0  0  0  0
 13  8  1  0  0  0  0
 15  4  2  0  0  0  0
 16 15  1  0  0  0  0
 17  3  2  0  0  0  0
 18  1  1  0  0  0  0
 20 21  1  0  0  0  0
 21 17  1  0  0  0  0
 22 24  1  0  0  0  0
 22 17  1  0  0  0  0
 23 25  1  0  0  0  0
 23 24  2  0  0  0  0
 25 26  1  6  0  0  0
 27 28  2  0  0  0  0
 28 25  1  0  0  0  0
 29 28  1  0  0  0  0
 30 29  1  0  0  0  0
 31 33  1  0  0  0  0
 31 30  1  0  0  0  0
 32 31  1  0  0  0  0
M  END
>  <MODEL>
5

>  <REMARK>
 VINA RESULT:      -8.6      3.251      5.345
  Name = 
  7 active torsions:
  status: ('A' for Active; 'I' for Inactive)
    1  A    between atoms: C_10  and  C_31
    2  A    between atoms: C_11  and  C_26
    3  A    between atoms: C_11  and  C_28
    4  A    between atoms: C_13  and  C_23
    5  A    between atoms: C_13  and  C_24
    6  A    between atoms: C_26  and  C_27
    7  A    between atoms: N_29  and  C_31
                            x       y       z     vdW  Elec       q    Type
                         _______ _______ _______ _____ _____    ______ ____

>  <TORSDO>
F 7

$$$$
=
 OpenBabel11062412323D

 33 35  0  0  1  0  0  0  0  0999 V2000
  191.4720  176.8390  138.7290 N   0  0  0  0  0  2  0  0  0  0  0  0
  188.7560  177.5930  139.3630 C   0  0  2  0  0  3  0  0  0  0  0  0
  189.7410  177.3420  140.4740 C   0  0  0  0  0  0  0  0  0  0  0  0
  188.4030  175.8860  135.9650 C   0  0  0  0  0  0  0  0  0  0  0  0
  190.7540  175.9710  136.5420 C   0  0  0  0  0  0  0  0  0  0  0  0
  192.1030  177.4450  140.8790 O   0  0  0  0  0  0  0  0  0  0  0  0
  192.1670  175.6800  136.1690 C   0  0  0  0  0  1  0  0  0  0  0  0
  186.0000  175.5760  135.4340 C   0  0  0  0  0  0  0  0  0  0  0  0
  190.4350  176.5570  137.7790 C   0  0  0  0  0  0  0  0  0  0  0  0
  189.0890  176.8360  138.1010 C   0  0  0  0  0  0  0  0  0  0  0  0
  188.6850  178.9640  139.0950 O   0  0  0  0  0  1  0  0  0  0  0  0
  189.7390  175.6390  135.6440 C   0  0  0  0  0  3  0  0  0  0  0  0
  185.6500  175.8530  136.8620 C   0  0  0  0  0  2  0  0  0  0  0  0
  185.0940  175.3380  134.5960 O   0  0  0  0  0  0  0  0  0  0  0  0
  188.0690  176.4870  137.1950 C   0  0  0  0  0  0  0  0  0  0  0  0
  186.6320  176.8590  137.4650 C   0  0  0  0  0  2  0  0  0  0  0  0
  189.3090  177.2500  141.7510 C   0  0  0  0  0  0  0  0  0  0  0  0
  191.1640  177.2160  140.0720 C   0  0  0  0  0  0  0  0  0  0  0  0
  187.3740  175.5190  135.0430 N   0  0  0  0  0  2  0  0  0  0  0  0
  190.3310  175.4490  143.1020 C   0  0  0  0  0  1  0  0  0  0  0  0
  190.2340  176.9480  142.8890 C   0  0  0  0  0  2  0  0  0  0  0  0
  187.8490  177.4020  142.0800 C   0  0  0  0  0  2  0  0  0  0  0  0
  187.2530  177.4180  144.4790 C   0  0  0  0  0  3  0  0  0  0  0  0
  187.6380  178.0950  143.3920 C   0  0  0  0  0  3  0  0  0  0  0  0
  186.9940  178.0920  145.7930 C   0  0  1  0  0  3  0  0  0  0  0  0
  185.6870  177.8570  146.2250 O   0  0  0  0  0  1  0  0  0  0  0  0
  187.6650  177.6770  148.0530 O   0  0  0  0  0  0  0  0  0  0  0  0
  187.9770  177.6570  146.8310 C   0  0  0  0  0  0  0  0  0  0  0  0
  189.2730  177.2140  146.4210 N   0  0  0  0  0  2  0  0  0  0  0  0
  190.2290  176.6250  147.3470 C   0  0  0  0  0  2  0  0  0  0  0  0
  191.5500  176.3590  146.6430 C   0  0  0  0  0  3  0  0  0  0  0  0
  192.5660  176.1580  147.5790 O   0  0  0  0  0  1  0  0  0  0  0  0
  191.8720  177.4460  145.8330 O   0  0  0  0  0  1  0  0  0  0  0  0
  1 18  1  0  0  0  0
  2 11  1  6  0  0  0
  2  3  1  0  0  0  0
  3 17  2  0  0  0  0
  4 15  1  0  0  0  0
  5  9  2  0  0  0  0
  7  5  1  0  0  0  0
  8 13  1  0  0  0  0
  9 10  1  0  0  0  0
  9  1  1  0  0  0  0
 10  2  1  0  0  0  0
 12  4  2  0  0  0  0
 12  5  1  0  0  0  0
 13 16  1  0  0  0  0
 14  8  2  0  0  0  0
 15 16  1  0  0  0  0
 15 10  2  0  0  0  0
 17 22  1  0  0  0  0
 17 21  1  0  0  0  0
 18  3  1  0  0  0  0
 18  6  2  0  0  0  0
 19  8  1  0  0  0  0
 19  4  1  0  0  0  0
 21 20  1  0  0  0  0
 22 24  1  0  0  0  0
 23 25  1  0  0  0  0
 24 23  2  0  0  0  0
 25 26  1  1  0  0  0
 25 28  1  0  0  0  0
 28 27  2  0  0  0  0
 29 28  1  0  0  0  0
 29 30  1  0  0  0  0
 31 30  1  0  0  0  0
 31 32  1  0  0  0  0
 33 31  1  0  0  0  0
M  END
>  <MODEL>
6

>  <REMARK>
 VINA RESULT:      -8.5      3.179      8.414
  Name = 
  7 active torsions:
  status: ('A' for Active; 'I' for Inactive)
    1  A    between atoms: C_10  and  C_31
    2  A    between atoms: C_11  and  C_26
    3  A    between atoms: C_11  and  C_28
    4  A    between atoms: C_13  and  C_23
    5  A    between atoms: C_13  and  C_24
    6  A    between atoms: C_26  and  C_27
    7  A    between atoms: N_29  and  C_31
                            x       y       z     vdW  Elec       q    Type
                         _______ _______ _______ _____ _____    ______ ____

>  <TORSDO>
F 7

$$$$
=
 OpenBabel11062412323D

 33 35  0  0  1  0  0  0  0  0999 V2000
  183.8960  178.9800  144.7040 N   0  0  0  0  0  2  0  0  0  0  0  0
  185.2000  178.6410  142.1490 C   0  0  2  0  0  3  0  0  0  0  0  0
  183.6980  178.5630  142.2390 C   0  0  0  0  0  0  0  0  0  0  0  0
  187.8670  177.5010  144.6330 C   0  0  0  0  0  0  0  0  0  0  0  0
  185.9460  178.2910  145.8780 C   0  0  0  0  0  0  0  0  0  0  0  0
  181.9040  179.4030  143.5910 O   0  0  0  0  0  0  0  0  0  0  0  0
  185.3100  178.5690  147.1970 C   0  0  0  0  0  1  0  0  0  0  0  0
  189.7650  176.4790  143.4060 C   0  0  0  0  0  0  0  0  0  0  0  0
  185.2540  178.5200  144.6760 C   0  0  0  0  0  0  0  0  0  0  0  0
  185.8860  178.2630  143.4390 C   0  0  0  0  0  0  0  0  0  0  0  0
  185.5840  179.9280  141.7610 O   0  0  0  0  0  1  0  0  0  0  0  0
  187.2460  177.7840  145.8500 C   0  0  0  0  0  3  0  0  0  0  0  0
  188.9150  176.3790  142.1780 C   0  0  0  0  0  2  0  0  0  0  0  0
  190.9590  176.0850  143.3820 O   0  0  0  0  0  0  0  0  0  0  0  0
  187.1920  177.7400  143.4190 C   0  0  0  0  0  0  0  0  0  0  0  0
  187.9300  177.5470  142.1170 C   0  0  0  0  0  2  0  0  0  0  0  0
  182.9810  178.1200  141.1830 C   0  0  0  0  0  0  0  0  0  0  0  0
  183.0950  179.0010  143.5220 C   0  0  0  0  0  0  0  0  0  0  0  0
  189.1910  176.9610  144.6230 N   0  0  0  0  0  2  0  0  0  0  0  0
  181.0690  176.6970  140.5260 C   0  0  0  0  0  1  0  0  0  0  0  0
  181.4920  177.9700  141.2340 C   0  0  0  0  0  2  0  0  0  0  0  0
  183.6660  177.7050  139.9100 C   0  0  0  0  0  2  0  0  0  0  0  0
  182.5920  179.6040  138.7470 C   0  0  0  0  0  3  0  0  0  0  0  0
  183.0490  178.3480  138.7050 C   0  0  0  0  0  3  0  0  0  0  0  0
  181.9320  180.2570  137.5700 C   0  0  1  0  0  3  0  0  0  0  0  0
  181.1370  179.3440  136.8730 O   0  0  0  0  0  1  0  0  0  0  0  0
  180.7650  181.5790  139.1880 O   0  0  0  0  0  0  0  0  0  0  0  0
  181.1270  181.4450  137.9870 C   0  0  0  0  0  0  0  0  0  0  0  0
  180.7760  182.4270  137.0100 N   0  0  0  0  0  2  0  0  0  0  0  0
  180.1350  183.6860  137.3600 C   0  0  0  0  0  2  0  0  0  0  0  0
  181.0520  184.8540  137.0320 C   0  0  0  0  0  3  0  0  0  0  0  0
  181.1790  184.9970  135.6490 O   0  0  0  0  0  1  0  0  0  0  0  0
  182.3080  184.6290  137.5930 O   0  0  0  0  0  1  0  0  0  0  0  0
  2 11  1  1  0  0  0
  2  3  1  0  0  0  0
  2 10  1  0  0  0  0
  3 18  1  0  0  0  0
  4 12  1  0  0  0  0
  5  7  1  0  0  0  0
  8 19  1  0  0  0  0
  9  1  1  0  0  0  0
  9  5  1  0  0  0  0
 10  9  2  0  0  0  0
 12  5  2  0  0  0  0
 13  8  1  0  0  0  0
 14  8  2  0  0  0  0
 15 10  1  0  0  0  0
 15  4  2  0  0  0  0
 16 13  1  0  0  0  0
 16 15  1  0  0  0  0
 17 21  1  0  0  0  0
 17  3  2  0  0  0  0
 18  6  2  0  0  0  0
 18  1  1  0  0  0  0
 19  4  1  0  0  0  0
 20 21  1  0  0  0  0
 22 17  1  0  0  0  0
 24 23  2  0  0  0  0
 24 22  1  0  0  0  0
 25 26  1  1  0  0  0
 25 28  1  0  0  0  0
 25 23  1  0  0  0  0
 28 27  2  0  0  0  0
 29 30  1  0  0  0  0
 29 28  1  0  0  0  0
 31 30  1  0  0  0  0
 31 33  1  0  0  0  0
 32 31  1  0  0  0  0
M  END
>  <MODEL>
7

>  <REMARK>
 VINA RESULT:      -8.4      4.594      9.645
  Name = 
  7 active torsions:
  status: ('A' for Active; 'I' for Inactive)
    1  A    between atoms: C_10  and  C_31
    2  A    between atoms: C_11  and  C_26
    3  A    between atoms: C_11  and  C_28
    4  A    between atoms: C_13  and  C_23
    5  A    between atoms: C_13  and  C_24
    6  A    between atoms: C_26  and  C_27
    7  A    between atoms: N_29  and  C_31
                            x       y       z     vdW  Elec       q    Type
                         _______ _______ _______ _____ _____    ______ ____

>  <TORSDO>
F 7

$$$$
=
 OpenBabel11062412323D

 33 35  0  0  1  0  0  0  0  0999 V2000
  185.6680  178.3990  145.6340 N   0  0  0  0  0  2  0  0  0  0  0  0
  185.5330  179.0650  142.8260 C   0  0  2  0  0  3  0  0  0  0  0  0
  184.2630  178.8310  143.6010 C   0  0  0  0  0  0  0  0  0  0  0  0
  188.9470  177.3850  143.1470 C   0  0  0  0  0  0  0  0  0  0  0  0
  187.9540  177.5330  145.3510 C   0  0  0  0  0  0  0  0  0  0  0  0
  183.4370  179.0000  145.8470 O   0  0  0  0  0  0  0  0  0  0  0  0
  188.0660  177.2890  146.8170 C   0  0  0  0  0  1  0  0  0  0  0  0
  189.9070  177.0110  140.8910 C   0  0  0  0  0  0  0  0  0  0  0  0
  186.7920  178.0960  144.7950 C   0  0  0  0  0  0  0  0  0  0  0  0
  186.7180  178.3320  143.4050 C   0  0  0  0  0  0  0  0  0  0  0  0
  185.8020  180.4360  142.7620 O   0  0  0  0  0  1  0  0  0  0  0  0
  189.0230  177.1810  144.5260 C   0  0  0  0  0  3  0  0  0  0  0  0
  188.5640  177.2610  140.2800 C   0  0  0  0  0  2  0  0  0  0  0  0
  190.8970  176.7540  140.1590 O   0  0  0  0  0  0  0  0  0  0  0  0
  187.7950  177.9630  142.5770 C   0  0  0  0  0  0  0  0  0  0  0  0
  187.7880  178.2900  141.1040 C   0  0  0  0  0  2  0  0  0  0  0  0
  183.0860  178.7130  142.9480 C   0  0  0  0  0  0  0  0  0  0  0  0
  184.4010  178.7520  145.0770 C   0  0  0  0  0  0  0  0  0  0  0  0
  190.0430  176.9980  142.3140 N   0  0  0  0  0  2  0  0  0  0  0  0
  180.6900  179.3010  143.1140 C   0  0  0  0  0  1  0  0  0  0  0  0
  181.8010  178.4260  143.6620 C   0  0  0  0  0  2  0  0  0  0  0  0
  183.0270  178.8180  141.4490 C   0  0  0  0  0  2  0  0  0  0  0  0
  182.5160  177.1620  139.6870 C   0  0  0  0  0  3  0  0  0  0  0  0
  183.2050  177.4860  140.7860 C   0  0  0  0  0  3  0  0  0  0  0  0
  182.6430  175.8210  139.0270 C   0  0  1  0  0  3  0  0  0  0  0  0
  181.4230  175.4170  138.4790 O   0  0  0  0  0  1  0  0  0  0  0  0
  184.2300  174.7450  137.5940 O   0  0  0  0  0  0  0  0  0  0  0  0
  183.7120  175.8280  137.9830 C   0  0  0  0  0  0  0  0  0  0  0  0
  184.1370  177.0750  137.4290 N   0  0  0  0  0  2  0  0  0  0  0  0
  185.0520  177.1600  136.3000 C   0  0  0  0  0  2  0  0  0  0  0  0
  186.4120  177.6610  136.7600 C   0  0  0  0  0  3  0  0  0  0  0  0
  187.1940  176.5950  137.2100 O   0  0  0  0  0  1  0  0  0  0  0  0
  186.2420  178.5820  137.7920 O   0  0  0  0  0  1  0  0  0  0  0  0
  2 11  1  1  0  0  0
  2 10  1  0  0  0  0
  2  3  1  0  0  0  0
  3 18  1  0  0  0  0
  4 12  1  0  0  0  0
  5  7  1  0  0  0  0
  8 19  1  0  0  0  0
  9  5  1  0  0  0  0
  9  1  1  0  0  0  0
 10  9  2  0  0  0  0
 12  5  2  0  0  0  0
 13  8  1  0  0  0  0
 13 16  1  0  0  0  0
 14  8  2  0  0  0  0
 15  4  2  0  0  0  0
 15 10  1  0  0  0  0
 16 15  1  0  0  0  0
 17  3  2  0  0  0  0
 17 21  1  0  0  0  0
 18  1  1  0  0  0  0
 18  6  2  0  0  0  0
 19  4  1  0  0  0  0
 20 21  1  0  0  0  0
 22 17  1  0  0  0  0
 23 24  2  0  0  0  0
 24 22  1  0  0  0  0
 25 26  1  6  0  0  0
 25 23  1  0  0  0  0
 27 28  2  0  0  0  0
 28 25  1  0  0  0  0
 29 28  1  0  0  0  0
 30 31  1  0  0  0  0
 30 29  1  0  0  0  0
 31 32  1  0  0  0  0
 31 33  1  0  0  0  0
M  END
>  <MODEL>
8

>  <REMARK>
 VINA RESULT:      -8.3      3.683      7.406
  Name = 
  7 active torsions:
  status: ('A' for Active; 'I' for Inactive)
    1  A    between atoms: C_10  and  C_31
    2  A    between atoms: C_11  and  C_26
    3  A    between atoms: C_11  and  C_28
    4  A    between atoms: C_13  and  C_23
    5  A    between atoms: C_13  and  C_24
    6  A    between atoms: C_26  and  C_27
    7  A    between atoms: N_29  and  C_31
                            x       y       z     vdW  Elec       q    Type
                         _______ _______ _______ _____ _____    ______ ____

>  <TORSDO>
F 7

$$$$
=
 OpenBabel11062412323D

 33 35  0  0  1  0  0  0  0  0999 V2000
  183.8970  178.9950  144.7160 N   0  0  0  0  0  2  0  0  0  0  0  0
  185.2040  178.6070  142.1690 C   0  0  2  0  0  3  0  0  0  0  0  0
  183.7020  178.5350  142.2580 C   0  0  0  0  0  0  0  0  0  0  0  0
  187.8640  177.5040  144.6770 C   0  0  0  0  0  0  0  0  0  0  0  0
  185.9430  178.3210  145.9050 C   0  0  0  0  0  0  0  0  0  0  0  0
  181.9080  179.4040  143.5920 O   0  0  0  0  0  0  0  0  0  0  0  0
  185.3060  178.6240  147.2170 C   0  0  0  0  0  1  0  0  0  0  0  0
  189.7600  176.4540  143.4720 C   0  0  0  0  0  0  0  0  0  0  0  0
  185.2540  178.5300  144.6970 C   0  0  0  0  0  0  0  0  0  0  0  0
  185.8870  178.2500  143.4670 C   0  0  0  0  0  0  0  0  0  0  0  0
  185.5920  179.8860  141.7590 O   0  0  0  0  0  1  0  0  0  0  0  0
  187.2410  177.8100  145.8880 C   0  0  0  0  0  3  0  0  0  0  0  0
  188.9130  176.3350  142.2450 C   0  0  0  0  0  2  0  0  0  0  0  0
  190.9540  176.0560  143.4570 O   0  0  0  0  0  0  0  0  0  0  0  0
  187.1910  177.7220  143.4580 C   0  0  0  0  0  0  0  0  0  0  0  0
  187.9310  177.5040  142.1610 C   0  0  0  0  0  2  0  0  0  0  0  0
  182.9850  178.0750  141.2080 C   0  0  0  0  0  0  0  0  0  0  0  0
  183.0980  178.9980  143.5320 C   0  0  0  0  0  0  0  0  0  0  0  0
  189.1860  176.9600  144.6790 N   0  0  0  0  0  2  0  0  0  0  0  0
  180.8370  178.9740  140.3770 C   0  0  0  0  0  1  0  0  0  0  0  0
  181.4960  177.9310  141.2590 C   0  0  0  0  0  2  0  0  0  0  0  0
  183.6720  177.6360  139.9440 C   0  0  0  0  0  2  0  0  0  0  0  0
  183.3870  175.9530  138.1560 C   0  0  0  0  0  3  0  0  0  0  0  0
  183.0580  176.3920  139.3760 C   0  0  0  0  0  3  0  0  0  0  0  0
  182.7580  174.7360  137.5450 C   0  0  1  0  0  3  0  0  0  0  0  0
  181.8370  175.0920  136.5580 O   0  0  0  0  0  1  0  0  0  0  0  0
  183.6040  173.2350  135.8840 O   0  0  0  0  0  0  0  0  0  0  0  0
  183.7920  173.8100  136.9910 C   0  0  0  0  0  0  0  0  0  0  0  0
  184.9960  173.5880  137.7290 N   0  0  0  0  0  2  0  0  0  0  0  0
  186.1170  172.8320  137.1900 C   0  0  0  0  0  2  0  0  0  0  0  0
  187.1640  173.7760  136.6200 C   0  0  0  0  0  3  0  0  0  0  0  0
  188.4460  173.2690  136.8430 O   0  0  0  0  0  1  0  0  0  0  0  0
  187.0440  175.0240  137.2280 O   0  0  0  0  0  1  0  0  0  0  0  0
  2 11  1  1  0  0  0
  2  3  1  0  0  0  0
  2 10  1  0  0  0  0
  3 18  1  0  0  0  0
  4 19  1  0  0  0  0
  4 12  1  0  0  0  0
  5  7  1  0  0  0  0
  8 19  1  0  0  0  0
  9  1  1  0  0  0  0
  9  5  1  0  0  0  0
 10  9  2  0  0  0  0
 12  5  2  0  0  0  0
 13  8  1  0  0  0  0
 14  8  2  0  0  0  0
 15 10  1  0  0  0  0
 15  4  2  0  0  0  0
 16 13  1  0  0  0  0
 16 15  1  0  0  0  0
 17 21  1  0  0  0  0
 17  3  2  0  0  0  0
 18  6  2  0  0  0  0
 18  1  1  0  0  0  0
 20 21  1  0  0  0  0
 22 17  1  0  0  0  0
 23 24  2  0  0  0  0
 24 22  1  0  0  0  0
 25 26  1  6  0  0  0
 25 23  1  0  0  0  0
 27 28  2  0  0  0  0
 28 25  1  0  0  0  0
 28 29  1  0  0  0  0
 30 29  1  0  0  0  0
 31 32  1  0  0  0  0
 31 30  1  0  0  0  0
 31 33  1  0  0  0  0
M  END
>  <MODEL>
9

>  <REMARK>
 VINA RESULT:      -8.3      4.114      7.234
  Name = 
  7 active torsions:
  status: ('A' for Active; 'I' for Inactive)
    1  A    between atoms: C_10  and  C_31
    2  A    between atoms: C_11  and  C_26
    3  A    between atoms: C_11  and  C_28
    4  A    between atoms: C_13  and  C_23
    5  A    between atoms: C_13  and  C_24
    6  A    between atoms: C_26  and  C_27
    7  A    between atoms: N_29  and  C_31
                            x       y       z     vdW  Elec       q    Type
                         _______ _______ _______ _____ _____    ______ ____

>  <TORSDO>
F 7

$$$$
