=
 OpenBabel11062415093D

 55 61  0  0  1  0  0  0  0  0999 V2000
  182.2860  177.6650  140.0910 C   0  0  2  0  0  3  0  0  0  0  0  0
  180.8830  177.5420  140.7090 C   0  0  0  0  0  2  0  0  0  0  0  0
  181.5470  179.1120  142.5150 C   0  0  0  0  0  0  0  0  0  0  0  0
  181.2450  179.9830  143.3730 O   0  0  0  0  0  0  0  0  0  0  0  0
  182.9290  178.5210  142.4310 C   0  0  1  0  0  3  0  0  0  0  0  0
  180.5710  178.6710  141.5760 N   0  0  0  0  0  2  0  0  0  0  0  0
  183.2970  178.4560  140.9460 C   0  0  0  0  0  2  0  0  0  0  0  0
  184.1670  178.7050  144.6110 C   0  0  0  0  0  2  0  0  0  0  0  0
  185.3400  179.2610  142.5810 C   0  0  0  0  0  2  0  0  0  0  0  0
  183.9730  179.3190  143.2320 C   0  0  1  0  0  3  0  0  0  0  0  0
  185.4200  177.8490  144.5620 C   0  0  0  0  0  2  0  0  0  0  0  0
  186.0470  178.0760  143.1990 C   0  0  2  0  0  3  0  0  0  0  0  0
  187.4850  178.3160  143.2930 N   0  0  0  0  0  2  0  0  0  0  0  0
  188.1700  176.0800  143.2010 O   0  0  0  0  0  0  0  0  0  0  0  0
  188.4850  177.2890  143.3790 C   0  0  0  0  0  0  0  0  0  0  0  0
  189.9200  177.6340  143.6640 C   0  0  2  0  0  3  0  0  0  0  0  0
  190.7320  177.5520  142.3810 C   0  0  0  0  0  2  0  0  0  0  0  0
  190.2340  176.5370  141.5630 O   0  0  0  0  0  0  0  0  0  0  0  0
  192.0360  177.5920  139.9890 O   0  0  0  0  0  1  0  0  0  0  0  0
  190.6450  175.6240  138.9790 O   0  0  0  0  0  0  0  0  0  0  0  0
  189.5500  178.1260  139.3950 O   0  0  0  0  0  1  0  0  0  0  0  0
  190.6520  176.9850  139.9850 P   0  0  0  0  0  0  0  0  0  0  0  0
  190.5380  176.7180  144.7150 C   0  0  0  0  0  2  0  0  0  0  0  0
  189.6100  176.9170  147.0050 C   0  0  2  0  0  3  0  0  0  0  0  0
  191.0420  176.4480  147.1140 C   0  0  0  0  0  2  0  0  0  0  0  0
  190.6550  177.4420  146.0400 C   0  0  1  0  0  3  0  0  0  0  0  0
  189.3450  177.9630  148.0650 C   0  0  0  0  0  2  0  0  0  0  0  0
  187.0190  178.0100  147.5980 O   0  0  0  0  0  1  0  0  0  0  0  0
  187.9460  177.7880  148.6130 C   0  0  0  0  0  2  0  0  0  0  0  0
  182.1850  178.2890  138.7110 C   0  0  0  0  0  2  0  0  0  0  0  0
  181.9970  177.7870  136.2610 C   0  0  2  0  0  3  0  0  0  0  0  0
  182.8150  177.1660  135.2970 O   0  0  0  0  0  0  0  0  0  0  0  0
  183.6640  176.6160  137.4680 C   0  0  1  0  0  0  0  0  0  0  0  0
  184.6940  177.4700  137.9110 O   0  0  0  0  0  0  0  0  0  0  0  0
  185.1490  176.9770  135.6520 C   0  0  1  0  0  3  0  0  0  0  0  0
  182.2910  177.2170  137.6310 C   0  0  1  0  0  3  0  0  0  0  0  0
  183.7970  176.4170  135.9820 C   0  0  2  0  0  3  0  0  0  0  0  0
  183.7290  175.3900  138.1310 O   0  0  0  0  0  1  0  0  0  0  0  0
  185.7460  177.3030  136.9970 C   0  0  0  0  0  2  0  0  0  0  0  0
  180.1450  178.8810  135.2760 F   0  0  0  0  0  0  0  0  0  0  0  0
  179.7240  177.4690  136.9850 O   0  0  0  0  0  1  0  0  0  0  0  0
  180.5180  177.6830  135.8550 C   0  0  2  0  0  0  0  0  0  0  0  0
  180.3320  175.3090  135.4290 O   0  0  0  0  0  1  0  0  0  0  0  0
  180.2720  176.5700  134.8330 C   0  0  0  0  0  2  0  0  0  0  0  0
  185.9420  176.0220  134.9910 O   0  0  0  0  0  0  0  0  0  0  0  0
  187.3390  172.8880  136.2700 C   0  0  2  0  0  0  0  0  0  0  0  0
  188.4880  173.7360  136.0530 N   0  0  0  0  0  0  0  0  0  0  0  0
  188.9350  171.8980  134.8120 C   0  0  0  0  0  3  0  0  0  0  0  0
  186.6180  175.1730  135.9130 C   0  0  1  0  0  3  0  0  0  0  0  0
  186.1160  173.7240  135.8820 C   0  0  1  0  0  3  0  0  0  0  0  0
  188.1520  175.1300  135.8760 C   0  0  0  0  0  2  0  0  0  0  0  0
  187.2650  172.5300  137.6180 O   0  0  0  0  0  1  0  0  0  0  0  0
  187.5920  171.6450  135.4140 C   0  0  0  0  0  2  0  0  0  0  0  0
  185.6480  173.3870  134.6080 O   0  0  0  0  0  1  0  0  0  0  0  0
  189.3880  173.0840  135.1760 C   0  0  0  0  0  3  0  0  0  0  0  0
  1 30  1  6  0  0  0
  1  2  1  0  0  0  0
  1  7  1  0  0  0  0
  2  6  1  0  0  0  0
  3  4  2  0  0  0  0
  5  7  1  6  0  0  0
  5  3  1  0  0  0  0
  5 10  1  0  0  0  0
  6  3  1  0  0  0  0
  9 12  1  0  0  0  0
 10  9  1  6  0  0  0
 10  8  1  0  0  0  0
 11  8  1  0  0  0  0
 12 13  1  1  0  0  0
 12 11  1  0  0  0  0
 13 15  1  0  0  0  0
 14 15  2  0  0  0  0
 15 16  1  0  0  0  0
 16 17  1  6  0  0  0
 16 23  1  0  0  0  0
 18 17  1  0  0  0  0
 20 22  2  0  0  0  0
 21 22  1  0  0  0  0
 22 19  1  0  0  0  0
 22 18  1  0  0  0  0
 24 25  1  0  0  0  0
 24 27  1  1  0  0  0
 26 23  1  6  0  0  0
 26 24  1  0  0  0  0
 26 25  1  0  0  0  0
 27 29  1  0  0  0  0
 28 29  1  0  0  0  0
 31 42  1  6  0  0  0
 31 36  1  0  0  0  0
 32 31  1  0  0  0  0
 33 36  1  0  0  0  0
 33 34  1  0  0  0  0
 33 38  1  1  0  0  0
 35 45  1  1  0  0  0
 35 37  1  0  0  0  0
 35 39  1  0  0  0  0
 36 30  1  1  0  0  0
 37 32  1  6  0  0  0
 37 33  1  0  0  0  0
 39 34  1  0  0  0  0
 42 40  1  6  0  0  0
 42 41  1  0  0  0  0
 44 43  1  0  0  0  0
 44 42  1  0  0  0  0
 46 52  1  1  0  0  0
 47 46  1  0  0  0  0
 48 55  2  0  0  0  0
 48 53  1  0  0  0  0
 49 45  1  6  0  0  0
 50 54  1  6  0  0  0
 50 49  1  0  0  0  0
 50 46  1  0  0  0  0
 51 49  1  0  0  0  0
 51 47  1  0  0  0  0
 53 46  1  0  0  0  0
 55 47  1  0  0  0  0
M  END
>  <MODEL>
1

>  <REMARK>
 VINA RESULT:      -7.7      0.000      0.000
  Name = 
  16 active torsions:
  status: ('A' for Active; 'I' for Inactive)
    1  A    between atoms: N_2  and  C_46
    2  A    between atoms: C_5  and  C_15
    3  A    between atoms: C_5  and  C_18
    4  A    between atoms: C_5  and  C_25
    5  A    between atoms: C_7  and  C_40
    6  A    between atoms: C_11  and  C_17
    7  A    between atoms: C_14  and  C_19
    8  A    between atoms: C_14  and  C_37
    9  A    between atoms: C_15  and  C_52
   10  A    between atoms: C_17  and  C_44
   11  A    between atoms: C_18  and  O_33
   12  A    between atoms: C_22  and  O_51
   13  A    between atoms: C_29  and  O_51
   14  A    between atoms: O_33  and  P_48
   15  A    between atoms: C_35  and  C_41
   16  A    between atoms: C_40  and  C_55
                            x       y       z     vdW  Elec       q    Type
                         _______ _______ _______ _____ _____    ______ ____

>  <TORSDO>
F 16

$$$$
=
 OpenBabel11062415093D

 55 61  0  0  1  0  0  0  0  0999 V2000
  182.1520  177.7670  140.1330 C   0  0  2  0  0  3  0  0  0  0  0  0
  180.7060  177.6670  140.6470 C   0  0  0  0  0  2  0  0  0  0  0  0
  181.2530  179.2550  142.4770 C   0  0  0  0  0  0  0  0  0  0  0  0
  180.8980  180.1400  143.2980 O   0  0  0  0  0  0  0  0  0  0  0  0
  182.6300  178.6490  142.5030 C   0  0  1  0  0  3  0  0  0  0  0  0
  180.3440  178.8110  141.4740 N   0  0  0  0  0  2  0  0  0  0  0  0
  183.1060  178.5590  141.0500 C   0  0  0  0  0  2  0  0  0  0  0  0
  183.5490  178.9900  144.8170 C   0  0  0  0  0  2  0  0  0  0  0  0
  185.0560  179.1970  142.9480 C   0  0  0  0  0  2  0  0  0  0  0  0
  183.6210  179.4480  143.3670 C   0  0  1  0  0  3  0  0  0  0  0  0
  184.7030  178.0320  145.0570 C   0  0  0  0  0  2  0  0  0  0  0  0
  185.5420  178.0400  143.7920 C   0  0  2  0  0  3  0  0  0  0  0  0
  186.9670  178.1690  144.0840 N   0  0  0  0  0  2  0  0  0  0  0  0
  187.5970  176.0010  143.4680 O   0  0  0  0  0  0  0  0  0  0  0  0
  187.9250  177.1020  143.9900 C   0  0  0  0  0  0  0  0  0  0  0  0
  189.3290  177.2830  144.4930 C   0  0  2  0  0  3  0  0  0  0  0  0
  189.2990  177.8250  145.9150 C   0  0  0  0  0  2  0  0  0  0  0  0
  188.6300  176.9320  146.7530 O   0  0  0  0  0  0  0  0  0  0  0  0
  189.3240  178.5890  148.6520 O   0  0  0  0  0  1  0  0  0  0  0  0
  186.9600  178.9710  147.6070 O   0  0  0  0  0  0  0  0  0  0  0  0
  187.4930  176.8380  149.2800 O   0  0  0  0  0  1  0  0  0  0  0  0
  188.1340  177.8500  148.0840 P   0  0  0  0  0  0  0  0  0  0  0  0
  190.1440  178.2220  143.6100 C   0  0  0  0  0  2  0  0  0  0  0  0
  191.7320  177.5110  141.8450 C   0  0  2  0  0  3  0  0  0  0  0  0
  190.9430  176.3000  142.2860 C   0  0  0  0  0  2  0  0  0  0  0  0
  190.2680  177.6540  142.2120 C   0  0  1  0  0  3  0  0  0  0  0  0
  191.8670  177.4980  140.3390 C   0  0  0  0  0  2  0  0  0  0  0  0
  193.4810  176.4470  138.9540 O   0  0  0  0  0  1  0  0  0  0  0  0
  193.3270  177.3980  139.9590 C   0  0  0  0  0  2  0  0  0  0  0  0
  182.1590  178.3720  138.7410 C   0  0  0  0  0  2  0  0  0  0  0  0
  182.3430  177.8570  136.2930 C   0  0  2  0  0  3  0  0  0  0  0  0
  183.3200  177.2810  135.4590 O   0  0  0  0  0  0  0  0  0  0  0  0
  183.8860  176.7820  137.7320 C   0  0  1  0  0  0  0  0  0  0  0  0
  184.7970  177.6930  138.3050 O   0  0  0  0  0  0  0  0  0  0  0  0
  185.5880  177.2220  136.1360 C   0  0  1  0  0  3  0  0  0  0  0  0
  182.4740  177.3060  137.6960 C   0  0  1  0  0  3  0  0  0  0  0  0
  184.2360  176.5880  136.2800 C   0  0  2  0  0  3  0  0  0  0  0  0
  183.9250  175.5620  138.4090 O   0  0  0  0  0  1  0  0  0  0  0  0
  185.9740  177.5830  137.5480 C   0  0  0  0  0  2  0  0  0  0  0  0
  180.7970  178.5750  134.6520 F   0  0  0  0  0  0  0  0  0  0  0  0
  179.9640  177.9340  136.6480 O   0  0  0  0  0  1  0  0  0  0  0  0
  180.9420  177.6700  135.6870 C   0  0  2  0  0  0  0  0  0  0  0  0
  179.7880  175.5500  135.8470 O   0  0  0  0  0  1  0  0  0  0  0  0
  180.7390  176.2650  135.1150 C   0  0  0  0  0  2  0  0  0  0  0  0
  186.5170  176.3110  135.6010 O   0  0  0  0  0  0  0  0  0  0  0  0
  189.6920  174.9980  136.8640 C   0  0  2  0  0  0  0  0  0  0  0  0
  190.0710  176.0810  135.9870 N   0  0  0  0  0  0  0  0  0  0  0  0
  191.1780  174.2970  135.1450 C   0  0  0  0  0  3  0  0  0  0  0  0
  187.7450  176.3320  136.3200 C   0  0  1  0  0  3  0  0  0  0  0  0
  188.1620  174.9540  136.8480 C   0  0  1  0  0  3  0  0  0  0  0  0
  188.9750  176.9580  135.6460 C   0  0  0  0  0  2  0  0  0  0  0  0
  190.1490  175.2580  138.1580 O   0  0  0  0  0  1  0  0  0  0  0  0
  190.3990  173.7620  136.3010 C   0  0  0  0  0  2  0  0  0  0  0  0
  187.6870  173.9370  136.0120 O   0  0  0  0  0  1  0  0  0  0  0  0
  190.9490  175.5870  134.9910 C   0  0  0  0  0  3  0  0  0  0  0  0
  1 30  1  6  0  0  0
  1  2  1  0  0  0  0
  1  7  1  0  0  0  0
  2  6  1  0  0  0  0
  3  5  1  0  0  0  0
  3  4  2  0  0  0  0
  5  7  1  6  0  0  0
  5 10  1  0  0  0  0
  6  3  1  0  0  0  0
  8 11  1  0  0  0  0
  9 12  1  0  0  0  0
 10  9  1  6  0  0  0
 10  8  1  0  0  0  0
 12 13  1  1  0  0  0
 12 11  1  0  0  0  0
 14 15  2  0  0  0  0
 15 13  1  0  0  0  0
 15 16  1  0  0  0  0
 16 23  1  6  0  0  0
 16 17  1  0  0  0  0
 17 18  1  0  0  0  0
 18 22  1  0  0  0  0
 20 22  2  0  0  0  0
 22 19  1  0  0  0  0
 22 21  1  0  0  0  0
 24 27  1  6  0  0  0
 24 26  1  0  0  0  0
 24 25  1  0  0  0  0
 26 25  1  0  0  0  0
 26 23  1  1  0  0  0
 28 29  1  0  0  0  0
 29 27  1  0  0  0  0
 31 42  1  6  0  0  0
 31 36  1  0  0  0  0
 32 31  1  0  0  0  0
 33 34  1  0  0  0  0
 33 38  1  1  0  0  0
 35 45  1  1  0  0  0
 35 37  1  0  0  0  0
 35 39  1  0  0  0  0
 36 33  1  0  0  0  0
 36 30  1  1  0  0  0
 37 32  1  6  0  0  0
 37 33  1  0  0  0  0
 39 34  1  0  0  0  0
 42 40  1  6  0  0  0
 42 41  1  0  0  0  0
 44 42  1  0  0  0  0
 44 43  1  0  0  0  0
 46 52  1  1  0  0  0
 47 46  1  0  0  0  0
 48 53  1  0  0  0  0
 49 45  1  6  0  0  0
 49 50  1  0  0  0  0
 50 54  1  6  0  0  0
 50 46  1  0  0  0  0
 51 47  1  0  0  0  0
 51 49  1  0  0  0  0
 53 46  1  0  0  0  0
 55 48  2  0  0  0  0
 55 47  1  0  0  0  0
M  END
>  <MODEL>
2

>  <REMARK>
 VINA RESULT:      -7.3      1.886      3.964
  Name = 
  16 active torsions:
  status: ('A' for Active; 'I' for Inactive)
    1  A    between atoms: N_2  and  C_46
    2  A    between atoms: C_5  and  C_15
    3  A    between atoms: C_5  and  C_18
    4  A    between atoms: C_5  and  C_25
    5  A    between atoms: C_7  and  C_40
    6  A    between atoms: C_11  and  C_17
    7  A    between atoms: C_14  and  C_19
    8  A    between atoms: C_14  and  C_37
    9  A    between atoms: C_15  and  C_52
   10  A    between atoms: C_17  and  C_44
   11  A    between atoms: C_18  and  O_33
   12  A    between atoms: C_22  and  O_51
   13  A    between atoms: C_29  and  O_51
   14  A    between atoms: O_33  and  P_48
   15  A    between atoms: C_35  and  C_41
   16  A    between atoms: C_40  and  C_55
                            x       y       z     vdW  Elec       q    Type
                         _______ _______ _______ _____ _____    ______ ____

>  <TORSDO>
F 16

$$$$
=
 OpenBabel11062415093D

 55 61  0  0  1  0  0  0  0  0999 V2000
  183.6940  178.2640  143.5260 C   0  0  2  0  0  3  0  0  0  0  0  0
  183.1890  178.3530  144.9760 C   0  0  0  0  0  2  0  0  0  0  0  0
  185.4880  178.9050  145.7360 C   0  0  0  0  0  0  0  0  0  0  0  0
  186.2650  179.4620  146.5570 O   0  0  0  0  0  0  0  0  0  0  0  0
  185.9950  178.0010  144.6460 C   0  0  1  0  0  3  0  0  0  0  0  0
  184.0850  179.1380  145.8160 N   0  0  0  0  0  2  0  0  0  0  0  0
  185.2250  178.3610  143.3720 C   0  0  0  0  0  2  0  0  0  0  0  0
  188.1860  176.7690  144.6720 C   0  0  0  0  0  2  0  0  0  0  0  0
  187.8510  178.4670  142.9960 C   0  0  0  0  0  2  0  0  0  0  0  0
  187.5150  178.1130  144.4310 C   0  0  1  0  0  3  0  0  0  0  0  0
  188.4280  176.1240  143.3190 C   0  0  0  0  0  2  0  0  0  0  0  0
  188.0360  177.1520  142.2730 C   0  0  2  0  0  3  0  0  0  0  0  0
  189.0410  177.2710  141.2210 N   0  0  0  0  0  2  0  0  0  0  0  0
  187.8110  178.6490  139.7840 O   0  0  0  0  0  0  0  0  0  0  0  0
  188.8450  177.9500  139.9700 C   0  0  0  0  0  0  0  0  0  0  0  0
  189.8690  177.8560  138.8750 C   0  0  2  0  0  3  0  0  0  0  0  0
  189.1710  177.7580  137.5260 C   0  0  0  0  0  2  0  0  0  0  0  0
  188.2910  176.6750  137.5210 O   0  0  0  0  0  0  0  0  0  0  0  0
  188.4810  177.4940  135.0450 O   0  0  0  0  0  0  0  0  0  0  0  0
  187.6430  175.0420  135.3780 O   0  0  0  0  0  1  0  0  0  0  0  0
  186.0560  177.2230  135.9730 O   0  0  0  0  0  1  0  0  0  0  0  0
  187.6410  176.6310  135.9590 P   0  0  0  0  0  0  0  0  0  0  0  0
  190.7980  176.6590  139.0520 C   0  0  0  0  0  2  0  0  0  0  0  0
  192.8040  175.5390  138.1220 C   0  0  2  0  0  3  0  0  0  0  0  0
  191.5870  174.9990  137.4080 C   0  0  0  0  0  2  0  0  0  0  0  0
  191.6390  176.4580  137.8090 C   0  0  1  0  0  3  0  0  0  0  0  0
  193.9080  175.7780  137.1160 C   0  0  0  0  0  2  0  0  0  0  0  0
  196.2190  175.2970  136.8830 O   0  0  0  0  0  1  0  0  0  0  0  0
  195.0090  174.7620  137.3190 C   0  0  0  0  0  2  0  0  0  0  0  0
  183.0260  179.3380  142.6860 C   0  0  0  0  0  2  0  0  0  0  0  0
  181.1720  179.7490  141.0470 C   0  0  2  0  0  3  0  0  0  0  0  0
  180.9380  179.4320  139.6960 O   0  0  0  0  0  0  0  0  0  0  0  0
  182.7500  178.0760  140.4810 C   0  0  1  0  0  0  0  0  0  0  0  0
  184.0240  178.6190  140.2170 O   0  0  0  0  0  0  0  0  0  0  0  0
  182.7470  178.9100  138.2580 C   0  0  1  0  0  3  0  0  0  0  0  0
  182.0760  178.7090  141.6720 C   0  0  1  0  0  3  0  0  0  0  0  0
  181.8320  178.4000  139.3320 C   0  0  2  0  0  3  0  0  0  0  0  0
  182.8360  176.6950  140.6600 O   0  0  0  0  0  1  0  0  0  0  0  0
  184.1270  178.6850  138.8190 C   0  0  0  0  0  2  0  0  0  0  0  0
  179.0560  180.8080  141.0620 F   0  0  0  0  0  0  0  0  0  0  0  0
  180.0690  180.4910  143.0530 O   0  0  0  0  0  1  0  0  0  0  0  0
  179.8400  179.9350  141.7920 C   0  0  2  0  0  0  0  0  0  0  0  0
  179.1670  178.1160  143.2390 O   0  0  0  0  0  1  0  0  0  0  0  0
  179.0680  178.6210  141.9400 C   0  0  0  0  0  2  0  0  0  0  0  0
  182.5840  178.1770  137.0690 O   0  0  0  0  0  0  0  0  0  0  0  0
  180.8920  175.0390  136.2340 C   0  0  2  0  0  0  0  0  0  0  0  0
  182.2100  174.6370  136.6700 N   0  0  0  0  0  0  0  0  0  0  0  0
  182.0380  173.7540  134.5950 C   0  0  0  0  0  3  0  0  0  0  0  0
  182.0040  176.9010  137.3140 C   0  0  1  0  0  3  0  0  0  0  0  0
  180.8520  176.5650  136.3600 C   0  0  1  0  0  3  0  0  0  0  0  0
  182.9300  175.6770  137.3680 C   0  0  0  0  0  2  0  0  0  0  0  0
  179.9260  174.4660  137.0630 O   0  0  0  0  0  1  0  0  0  0  0  0
  180.7550  174.4860  134.8140 C   0  0  0  0  0  2  0  0  0  0  0  0
  181.0360  177.1860  135.1200 O   0  0  0  0  0  1  0  0  0  0  0  0
  182.8280  173.8820  135.6440 C   0  0  0  0  0  3  0  0  0  0  0  0
  1 30  1  6  0  0  0
  1  2  1  0  0  0  0
  2  6  1  0  0  0  0
  3  6  1  0  0  0  0
  3  4  2  0  0  0  0
  5  7  1  6  0  0  0
  5  3  1  0  0  0  0
  7  1  1  0  0  0  0
 10  9  1  6  0  0  0
 10  5  1  0  0  0  0
 10  8  1  0  0  0  0
 11  8  1  0  0  0  0
 12 13  1  6  0  0  0
 12  9  1  0  0  0  0
 12 11  1  0  0  0  0
 14 15  2  0  0  0  0
 15 13  1  0  0  0  0
 16 17  1  6  0  0  0
 16 23  1  0  0  0  0
 16 15  1  0  0  0  0
 18 17  1  0  0  0  0
 19 22  2  0  0  0  0
 20 22  1  0  0  0  0
 22 21  1  0  0  0  0
 22 18  1  0  0  0  0
 24 27  1  6  0  0  0
 25 26  1  0  0  0  0
 25 24  1  0  0  0  0
 26 24  1  0  0  0  0
 26 23  1  1  0  0  0
 27 29  1  0  0  0  0
 28 29  1  0  0  0  0
 31 36  1  0  0  0  0
 31 42  1  1  0  0  0
 32 31  1  0  0  0  0
 33 38  1  1  0  0  0
 33 36  1  0  0  0  0
 34 33  1  0  0  0  0
 35 45  1  6  0  0  0
 35 39  1  0  0  0  0
 35 37  1  0  0  0  0
 36 30  1  1  0  0  0
 37 32  1  1  0  0  0
 37 33  1  0  0  0  0
 39 34  1  0  0  0  0
 42 40  1  6  0  0  0
 42 44  1  0  0  0  0
 42 41  1  0  0  0  0
 44 43  1  0  0  0  0
 46 50  1  0  0  0  0
 46 47  1  0  0  0  0
 46 52  1  1  0  0  0
 47 51  1  0  0  0  0
 48 53  1  0  0  0  0
 48 55  2  0  0  0  0
 49 45  1  6  0  0  0
 49 51  1  0  0  0  0
 50 54  1  6  0  0  0
 50 49  1  0  0  0  0
 53 46  1  0  0  0  0
 55 47  1  0  0  0  0
M  END
>  <MODEL>
3

>  <REMARK>
 VINA RESULT:      -7.1      3.019      6.208
  Name = 
  16 active torsions:
  status: ('A' for Active; 'I' for Inactive)
    1  A    between atoms: N_2  and  C_46
    2  A    between atoms: C_5  and  C_15
    3  A    between atoms: C_5  and  C_18
    4  A    between atoms: C_5  and  C_25
    5  A    between atoms: C_7  and  C_40
    6  A    between atoms: C_11  and  C_17
    7  A    between atoms: C_14  and  C_19
    8  A    between atoms: C_14  and  C_37
    9  A    between atoms: C_15  and  C_52
   10  A    between atoms: C_17  and  C_44
   11  A    between atoms: C_18  and  O_33
   12  A    between atoms: C_22  and  O_51
   13  A    between atoms: C_29  and  O_51
   14  A    between atoms: O_33  and  P_48
   15  A    between atoms: C_35  and  C_41
   16  A    between atoms: C_40  and  C_55
                            x       y       z     vdW  Elec       q    Type
                         _______ _______ _______ _____ _____    ______ ____

>  <TORSDO>
F 16

$$$$
=
 OpenBabel11062415093D

 55 61  0  0  1  0  0  0  0  0999 V2000
  181.8720  177.8450  140.2950 C   0  0  2  0  0  3  0  0  0  0  0  0
  180.4520  177.8350  140.8870 C   0  0  0  0  0  2  0  0  0  0  0  0
  181.1880  179.4070  142.6630 C   0  0  0  0  0  0  0  0  0  0  0  0
  180.9290  180.3200  143.4910 O   0  0  0  0  0  0  0  0  0  0  0  0
  182.5270  178.7220  142.6230 C   0  0  1  0  0  3  0  0  0  0  0  0
  180.2010  179.0060  141.7170 N   0  0  0  0  0  2  0  0  0  0  0  0
  182.9180  178.5910  141.1480 C   0  0  0  0  0  2  0  0  0  0  0  0
  183.7260  178.8940  144.8260 C   0  0  0  0  0  2  0  0  0  0  0  0
  184.9820  179.2920  142.8080 C   0  0  0  0  0  2  0  0  0  0  0  0
  183.6080  179.4710  143.4230 C   0  0  1  0  0  3  0  0  0  0  0  0
  184.9140  177.9490  144.8370 C   0  0  0  0  0  2  0  0  0  0  0  0
  185.5870  178.0820  143.4840 C   0  0  2  0  0  3  0  0  0  0  0  0
  187.0360  178.2220  143.6060 N   0  0  0  0  0  2  0  0  0  0  0  0
  187.5750  175.9550  143.3860 O   0  0  0  0  0  0  0  0  0  0  0  0
  187.9660  177.1280  143.6390 C   0  0  0  0  0  0  0  0  0  0  0  0
  189.4160  177.3610  143.9590 C   0  0  2  0  0  3  0  0  0  0  0  0
  189.5410  178.0160  145.3270 C   0  0  0  0  0  2  0  0  0  0  0  0
  190.8220  177.8120  145.8400 O   0  0  0  0  0  0  0  0  0  0  0  0
  190.0350  175.7240  147.2010 O   0  0  0  0  0  0  0  0  0  0  0  0
  192.0650  177.0370  148.1920 O   0  0  0  0  0  1  0  0  0  0  0  0
  189.4950  178.0470  148.2630 O   0  0  0  0  0  1  0  0  0  0  0  0
  190.5910  177.1200  147.3660 P   0  0  0  0  0  0  0  0  0  0  0  0
  190.1060  178.2320  142.9150 C   0  0  0  0  0  2  0  0  0  0  0  0
  191.3380  177.4120  140.9260 C   0  0  2  0  0  3  0  0  0  0  0  0
  190.6070  176.2430  141.5450 C   0  0  0  0  0  2  0  0  0  0  0  0
  189.9660  177.6150  141.5390 C   0  0  1  0  0  3  0  0  0  0  0  0
  191.2030  177.3450  139.4220 C   0  0  0  0  0  2  0  0  0  0  0  0
  193.5690  177.1640  139.4000 O   0  0  0  0  0  1  0  0  0  0  0  0
  192.4080  176.6430  138.8340 C   0  0  0  0  0  2  0  0  0  0  0  0
  181.8370  178.4350  138.8970 C   0  0  0  0  0  2  0  0  0  0  0  0
  181.6580  177.8570  136.4620 C   0  0  2  0  0  3  0  0  0  0  0  0
  182.4870  177.2230  135.5170 O   0  0  0  0  0  0  0  0  0  0  0  0
  183.3470  176.7530  137.7030 C   0  0  1  0  0  0  0  0  0  0  0  0
  184.3610  177.6390  138.1190 O   0  0  0  0  0  0  0  0  0  0  0  0
  184.8250  177.0870  135.8760 C   0  0  1  0  0  3  0  0  0  0  0  0
  181.9640  177.3340  137.8490 C   0  0  1  0  0  3  0  0  0  0  0  0
  183.4830  176.5120  136.2230 C   0  0  2  0  0  3  0  0  0  0  0  0
  183.4350  175.5490  138.4020 O   0  0  0  0  0  1  0  0  0  0  0  0
  185.4160  177.4650  137.2090 C   0  0  0  0  0  2  0  0  0  0  0  0
  179.5170  177.0680  137.0880 F   0  0  0  0  0  0  0  0  0  0  0  0
  180.0710  176.9370  134.9040 O   0  0  0  0  0  1  0  0  0  0  0  0
  180.1810  177.7130  136.0610 C   0  0  2  0  0  0  0  0  0  0  0  0
  180.4360  180.1080  135.8300 O   0  0  0  0  0  1  0  0  0  0  0  0
  179.5040  179.0680  135.8400 C   0  0  0  0  0  2  0  0  0  0  0  0
  185.6350  176.1280  135.2430 O   0  0  0  0  0  0  0  0  0  0  0  0
  186.8660  172.9600  136.6060 C   0  0  2  0  0  0  0  0  0  0  0  0
  188.0580  173.7410  136.3670 N   0  0  0  0  0  0  0  0  0  0  0  0
  188.4060  171.8490  135.1760 C   0  0  0  0  0  3  0  0  0  0  0  0
  186.2660  175.2700  136.1870 C   0  0  1  0  0  3  0  0  0  0  0  0
  185.6890  173.8490  136.1960 C   0  0  1  0  0  3  0  0  0  0  0  0
  187.7960  175.1450  136.1510 C   0  0  0  0  0  2  0  0  0  0  0  0
  186.7760  172.6440  137.9630 O   0  0  0  0  0  1  0  0  0  0  0  0
  187.0530  171.6830  135.7840 C   0  0  0  0  0  2  0  0  0  0  0  0
  185.2020  173.5030  134.9310 O   0  0  0  0  0  1  0  0  0  0  0  0
  188.9220  173.0180  135.5070 C   0  0  0  0  0  3  0  0  0  0  0  0
  1 30  1  6  0  0  0
  1  2  1  0  0  0  0
  1  7  1  0  0  0  0
  2  6  1  0  0  0  0
  3  4  2  0  0  0  0
  5  7  1  6  0  0  0
  5  3  1  0  0  0  0
  5 10  1  0  0  0  0
  6  3  1  0  0  0  0
  8 11  1  0  0  0  0
  9 12  1  0  0  0  0
 10  9  1  6  0  0  0
 10  8  1  0  0  0  0
 12 13  1  1  0  0  0
 12 11  1  0  0  0  0
 13 15  1  0  0  0  0
 14 15  2  0  0  0  0
 15 16  1  0  0  0  0
 16 23  1  6  0  0  0
 16 17  1  0  0  0  0
 17 18  1  0  0  0  0
 18 22  1  0  0  0  0
 19 22  2  0  0  0  0
 22 20  1  0  0  0  0
 22 21  1  0  0  0  0
 24 27  1  6  0  0  0
 24 26  1  0  0  0  0
 24 25  1  0  0  0  0
 26 25  1  0  0  0  0
 26 23  1  1  0  0  0
 29 28  1  0  0  0  0
 29 27  1  0  0  0  0
 31 42  1  6  0  0  0
 31 36  1  0  0  0  0
 32 31  1  0  0  0  0
 33 36  1  0  0  0  0
 33 34  1  0  0  0  0
 33 38  1  1  0  0  0
 35 45  1  1  0  0  0
 35 37  1  0  0  0  0
 35 39  1  0  0  0  0
 36 30  1  1  0  0  0
 37 32  1  6  0  0  0
 37 33  1  0  0  0  0
 39 34  1  0  0  0  0
 42 41  1  6  0  0  0
 42 40  1  0  0  0  0
 43 44  1  0  0  0  0
 44 42  1  0  0  0  0
 46 52  1  1  0  0  0
 47 46  1  0  0  0  0
 48 55  2  0  0  0  0
 48 53  1  0  0  0  0
 49 45  1  6  0  0  0
 49 50  1  0  0  0  0
 50 54  1  6  0  0  0
 50 46  1  0  0  0  0
 51 49  1  0  0  0  0
 51 47  1  0  0  0  0
 53 46  1  0  0  0  0
 55 47  1  0  0  0  0
M  END
>  <MODEL>
4

>  <REMARK>
 VINA RESULT:      -7.0      1.849      3.738
  Name = 
  16 active torsions:
  status: ('A' for Active; 'I' for Inactive)
    1  A    between atoms: N_2  and  C_46
    2  A    between atoms: C_5  and  C_15
    3  A    between atoms: C_5  and  C_18
    4  A    between atoms: C_5  and  C_25
    5  A    between atoms: C_7  and  C_40
    6  A    between atoms: C_11  and  C_17
    7  A    between atoms: C_14  and  C_19
    8  A    between atoms: C_14  and  C_37
    9  A    between atoms: C_15  and  C_52
   10  A    between atoms: C_17  and  C_44
   11  A    between atoms: C_18  and  O_33
   12  A    between atoms: C_22  and  O_51
   13  A    between atoms: C_29  and  O_51
   14  A    between atoms: O_33  and  P_48
   15  A    between atoms: C_35  and  C_41
   16  A    between atoms: C_40  and  C_55
                            x       y       z     vdW  Elec       q    Type
                         _______ _______ _______ _____ _____    ______ ____

>  <TORSDO>
F 16

$$$$
=
 OpenBabel11062415093D

 55 61  0  0  1  0  0  0  0  0999 V2000
  182.8290  177.8590  140.4720 C   0  0  2  0  0  3  0  0  0  0  0  0
  181.4480  177.8770  141.1490 C   0  0  0  0  0  2  0  0  0  0  0  0
  182.3730  179.2700  142.9860 C   0  0  0  0  0  0  0  0  0  0  0  0
  182.2150  180.1300  143.8920 O   0  0  0  0  0  0  0  0  0  0  0  0
  183.6680  178.5220  142.8120 C   0  0  1  0  0  3  0  0  0  0  0  0
  181.3120  178.9930  142.0760 N   0  0  0  0  0  2  0  0  0  0  0  0
  183.9640  178.4830  141.3100 C   0  0  0  0  0  2  0  0  0  0  0  0
  185.0670  178.3990  144.8970 C   0  0  0  0  0  2  0  0  0  0  0  0
  186.1410  179.0390  142.8370 C   0  0  0  0  0  2  0  0  0  0  0  0
  184.8340  179.1520  143.5950 C   0  0  1  0  0  3  0  0  0  0  0  0
  186.2300  177.4480  144.6780 C   0  0  0  0  0  2  0  0  0  0  0  0
  186.7790  177.7460  143.2950 C   0  0  2  0  0  3  0  0  0  0  0  0
  188.2350  177.8540  143.2970 N   0  0  0  0  0  2  0  0  0  0  0  0
  188.5400  177.8540  140.9760 O   0  0  0  0  0  0  0  0  0  0  0  0
  189.0630  177.8140  142.1240 C   0  0  0  0  0  0  0  0  0  0  0  0
  190.5600  177.7410  142.2410 C   0  0  2  0  0  3  0  0  0  0  0  0
  191.1650  177.3990  140.8880 C   0  0  0  0  0  2  0  0  0  0  0  0
  190.5480  176.2630  140.3610 O   0  0  0  0  0  0  0  0  0  0  0  0
  190.6600  174.8940  138.1370 O   0  0  0  0  0  1  0  0  0  0  0  0
  189.9930  177.4090  137.9000 O   0  0  0  0  0  0  0  0  0  0  0  0
  192.5740  176.6310  138.5040 O   0  0  0  0  0  1  0  0  0  0  0  0
  190.9350  176.2640  138.7140 P   0  0  0  0  0  0  0  0  0  0  0  0
  191.0100  176.7110  143.2720 C   0  0  0  0  0  2  0  0  0  0  0  0
  190.2610  176.7780  145.6340 C   0  0  2  0  0  3  0  0  0  0  0  0
  191.7060  176.3350  145.6090 C   0  0  0  0  0  2  0  0  0  0  0  0
  191.2180  177.3720  144.6190 C   0  0  1  0  0  3  0  0  0  0  0  0
  190.0620  177.7650  146.7630 C   0  0  0  0  0  2  0  0  0  0  0  0
  188.5560  177.4290  148.5650 O   0  0  0  0  0  1  0  0  0  0  0  0
  188.6170  177.7410  147.2090 C   0  0  0  0  0  2  0  0  0  0  0  0
  182.7470  178.5540  139.1250 C   0  0  0  0  0  2  0  0  0  0  0  0
  181.6320  178.5370  136.8780 C   0  0  2  0  0  3  0  0  0  0  0  0
  181.4520  177.5890  135.8540 O   0  0  0  0  0  0  0  0  0  0  0  0
  182.1480  176.4330  137.8330 C   0  0  1  0  0  0  0  0  0  0  0  0
  183.5380  176.2110  137.9040 O   0  0  0  0  0  0  0  0  0  0  0  0
  182.8870  175.7110  135.6950 C   0  0  1  0  0  3  0  0  0  0  0  0
  181.7560  177.8370  138.2140 C   0  0  1  0  0  3  0  0  0  0  0  0
  181.7050  176.3100  136.3990 C   0  0  2  0  0  3  0  0  0  0  0  0
  181.4670  175.5140  138.6320 O   0  0  0  0  0  1  0  0  0  0  0  0
  183.8500  175.3890  136.8090 C   0  0  0  0  0  2  0  0  0  0  0  0
  179.9010  179.5200  135.5980 F   0  0  0  0  0  0  0  0  0  0  0  0
  181.0500  180.8700  136.9940 O   0  0  0  0  0  1  0  0  0  0  0  0
  180.5120  179.5900  136.8360 C   0  0  2  0  0  0  0  0  0  0  0  0
  179.4610  180.3420  138.8810 O   0  0  0  0  0  1  0  0  0  0  0  0
  179.4430  179.3450  137.9040 C   0  0  0  0  0  2  0  0  0  0  0  0
  182.5250  174.5340  135.0160 O   0  0  0  0  0  0  0  0  0  0  0  0
  180.6710  171.6660  136.3370 C   0  0  2  0  0  0  0  0  0  0  0  0
  181.9640  171.1300  135.9790 N   0  0  0  0  0  0  0  0  0  0  0  0
  180.5100  169.8560  134.8040 C   0  0  0  0  0  3  0  0  0  0  0  0
  182.2260  173.4770  135.9210 C   0  0  1  0  0  3  0  0  0  0  0  0
  180.7280  173.1610  136.0100 C   0  0  1  0  0  3  0  0  0  0  0  0
  182.9690  172.1440  135.7570 C   0  0  0  0  0  2  0  0  0  0  0  0
  180.4480  171.4840  137.7030 O   0  0  0  0  0  1  0  0  0  0  0  0
  179.6610  170.8470  135.5300 C   0  0  0  0  0  2  0  0  0  0  0  0
  180.0870  173.4450  134.8000 O   0  0  0  0  0  1  0  0  0  0  0  0
  181.7870  170.0630  135.0650 C   0  0  0  0  0  3  0  0  0  0  0  0
  1 30  1  6  0  0  0
  1  2  1  0  0  0  0
  1  7  1  0  0  0  0
  2  6  1  0  0  0  0
  3  4  2  0  0  0  0
  5  7  1  6  0  0  0
  5  3  1  0  0  0  0
  5 10  1  0  0  0  0
  6  3  1  0  0  0  0
  9 12  1  0  0  0  0
 10  9  1  6  0  0  0
 10  8  1  0  0  0  0
 11  8  1  0  0  0  0
 12 13  1  1  0  0  0
 12 11  1  0  0  0  0
 14 15  2  0  0  0  0
 15 16  1  0  0  0  0
 15 13  1  0  0  0  0
 16 17  1  6  0  0  0
 16 23  1  0  0  0  0
 18 17  1  0  0  0  0
 19 22  1  0  0  0  0
 20 22  2  0  0  0  0
 21 22  1  0  0  0  0
 22 18  1  0  0  0  0
 24 27  1  1  0  0  0
 25 24  1  0  0  0  0
 26 23  1  6  0  0  0
 26 25  1  0  0  0  0
 26 24  1  0  0  0  0
 27 29  1  0  0  0  0
 29 28  1  0  0  0  0
 31 42  1  1  0  0  0
 31 36  1  0  0  0  0
 32 31  1  0  0  0  0
 33 34  1  0  0  0  0
 33 36  1  0  0  0  0
 33 38  1  1  0  0  0
 35 45  1  1  0  0  0
 35 37  1  0  0  0  0
 35 39  1  0  0  0  0
 36 30  1  1  0  0  0
 37 32  1  6  0  0  0
 37 33  1  0  0  0  0
 39 34  1  0  0  0  0
 42 40  1  6  0  0  0
 42 41  1  0  0  0  0
 42 44  1  0  0  0  0
 44 43  1  0  0  0  0
 46 52  1  1  0  0  0
 47 46  1  0  0  0  0
 48 55  2  0  0  0  0
 48 53  1  0  0  0  0
 49 45  1  6  0  0  0
 49 50  1  0  0  0  0
 50 54  1  6  0  0  0
 50 46  1  0  0  0  0
 51 49  1  0  0  0  0
 51 47  1  0  0  0  0
 53 46  1  0  0  0  0
 55 47  1  0  0  0  0
M  END
>  <MODEL>
5

>  <REMARK>
 VINA RESULT:      -6.9      2.523      3.481
  Name = 
  16 active torsions:
  status: ('A' for Active; 'I' for Inactive)
    1  A    between atoms: N_2  and  C_46
    2  A    between atoms: C_5  and  C_15
    3  A    between atoms: C_5  and  C_18
    4  A    between atoms: C_5  and  C_25
    5  A    between atoms: C_7  and  C_40
    6  A    between atoms: C_11  and  C_17
    7  A    between atoms: C_14  and  C_19
    8  A    between atoms: C_14  and  C_37
    9  A    between atoms: C_15  and  C_52
   10  A    between atoms: C_17  and  C_44
   11  A    between atoms: C_18  and  O_33
   12  A    between atoms: C_22  and  O_51
   13  A    between atoms: C_29  and  O_51
   14  A    between atoms: O_33  and  P_48
   15  A    between atoms: C_35  and  C_41
   16  A    between atoms: C_40  and  C_55
                            x       y       z     vdW  Elec       q    Type
                         _______ _______ _______ _____ _____    ______ ____

>  <TORSDO>
F 16

$$$$
=
 OpenBabel11062415093D

 55 61  0  0  1  0  0  0  0  0999 V2000
  182.1780  178.0230  140.1030 C   0  0  2  0  0  3  0  0  0  0  0  0
  180.9850  177.7320  141.0300 C   0  0  0  0  0  2  0  0  0  0  0  0
  182.1000  178.9970  142.8530 C   0  0  0  0  0  0  0  0  0  0  0  0
  182.0330  179.6920  143.9000 O   0  0  0  0  0  0  0  0  0  0  0  0
  183.4110  178.4930  142.3120 C   0  0  1  0  0  3  0  0  0  0  0  0
  180.9120  178.6790  142.1350 N   0  0  0  0  0  2  0  0  0  0  0  0
  183.3780  178.7010  140.7950 C   0  0  0  0  0  2  0  0  0  0  0  0
  185.1540  178.3760  144.1200 C   0  0  0  0  0  2  0  0  0  0  0  0
  185.7910  179.2730  141.9760 C   0  0  0  0  0  2  0  0  0  0  0  0
  184.6290  179.1890  142.9450 C   0  0  1  0  0  3  0  0  0  0  0  0
  186.3470  177.5750  143.6300 C   0  0  0  0  0  2  0  0  0  0  0  0
  186.6180  178.0280  142.2070 C   0  0  2  0  0  3  0  0  0  0  0  0
  188.0360  178.2940  141.9800 N   0  0  0  0  0  2  0  0  0  0  0  0
  188.2680  177.0320  140.0220 O   0  0  0  0  0  0  0  0  0  0  0  0
  188.8250  177.7050  140.9340 C   0  0  0  0  0  0  0  0  0  0  0  0
  190.3160  177.8910  140.8970 C   0  0  2  0  0  3  0  0  0  0  0  0
  190.8530  177.4580  139.5410 C   0  0  0  0  0  2  0  0  0  0  0  0
  190.9900  176.0700  139.5020 O   0  0  0  0  0  0  0  0  0  0  0  0
  189.8920  176.4470  137.1600 O   0  0  0  0  0  0  0  0  0  0  0  0
  192.4720  176.0360  137.1610 O   0  0  0  0  0  1  0  0  0  0  0  0
  190.6680  174.0080  137.6750 O   0  0  0  0  0  1  0  0  0  0  0  0
  190.9770  175.6620  137.8600 P   0  0  0  0  0  0  0  0  0  0  0  0
  191.0250  177.1080  141.9970 C   0  0  0  0  0  2  0  0  0  0  0  0
  190.6660  176.4980  144.3720 C   0  0  2  0  0  3  0  0  0  0  0  0
  191.7860  177.5110  144.3080 C   0  0  0  0  0  2  0  0  0  0  0  0
  190.6120  177.6250  143.3590 C   0  0  1  0  0  3  0  0  0  0  0  0
  189.7570  176.8310  145.5340 C   0  0  0  0  0  2  0  0  0  0  0  0
  189.8290  177.4920  147.8110 O   0  0  0  0  0  1  0  0  0  0  0  0
  190.5560  176.8410  146.8180 C   0  0  0  0  0  2  0  0  0  0  0  0
  181.7190  178.8690  138.9300 C   0  0  0  0  0  2  0  0  0  0  0  0
  182.6560  176.8690  137.7400 C   0  0  2  0  0  3  0  0  0  0  0  0
  182.1160  175.7590  137.0630 O   0  0  0  0  0  0  0  0  0  0  0  0
  180.3840  177.3930  137.3270 C   0  0  1  0  0  0  0  0  0  0  0  0
  179.5790  177.1910  138.4670 O   0  0  0  0  0  0  0  0  0  0  0  0
  179.8850  175.0760  137.4730 C   0  0  1  0  0  3  0  0  0  0  0  0
  181.7050  178.0420  137.6480 C   0  0  1  0  0  3  0  0  0  0  0  0
  180.7690  176.0540  136.7560 C   0  0  2  0  0  3  0  0  0  0  0  0
  179.6990  178.1490  136.3750 O   0  0  0  0  0  1  0  0  0  0  0  0
  178.9550  175.9480  138.2780 C   0  0  0  0  0  2  0  0  0  0  0  0
  184.4150  178.4480  137.6430 F   0  0  0  0  0  0  0  0  0  0  0  0
  184.0810  177.1570  135.8230 O   0  0  0  0  0  1  0  0  0  0  0  0
  184.0690  177.1780  137.2200 C   0  0  2  0  0  0  0  0  0  0  0  0
  185.8480  175.6160  136.7250 O   0  0  0  0  0  1  0  0  0  0  0  0
  185.1160  176.2010  137.7610 C   0  0  0  0  0  2  0  0  0  0  0  0
  179.1490  174.2990  136.5610 O   0  0  0  0  0  0  0  0  0  0  0  0
  181.0170  171.2380  135.8240 C   0  0  2  0  0  0  0  0  0  0  0  0
  181.2940  171.5060  137.2160 N   0  0  0  0  0  0  0  0  0  0  0  0
  183.3460  171.4200  136.2670 C   0  0  0  0  0  3  0  0  0  0  0  0
  179.4850  172.9200  136.6570 C   0  0  1  0  0  3  0  0  0  0  0  0
  180.0680  172.3460  135.3590 C   0  0  1  0  0  3  0  0  0  0  0  0
  180.3940  172.4690  137.8090 C   0  0  0  0  0  2  0  0  0  0  0  0
  180.3960  169.9930  135.6990 O   0  0  0  0  0  1  0  0  0  0  0  0
  182.3870  171.2070  135.1420 C   0  0  0  0  0  2  0  0  0  0  0  0
  180.7470  173.3340  134.6400 O   0  0  0  0  0  1  0  0  0  0  0  0
  182.6950  171.6050  137.4000 C   0  0  0  0  0  3  0  0  0  0  0  0
  1 30  1  6  0  0  0
  1  7  1  0  0  0  0
  1  2  1  0  0  0  0
  2  6  1  0  0  0  0
  3  4  2  0  0  0  0
  5  7  1  6  0  0  0
  5  3  1  0  0  0  0
  5 10  1  0  0  0  0
  6  3  1  0  0  0  0
  9 12  1  0  0  0  0
 10  9  1  6  0  0  0
 10  8  1  0  0  0  0
 11  8  1  0  0  0  0
 12 13  1  1  0  0  0
 12 11  1  0  0  0  0
 14 15  2  0  0  0  0
 15 13  1  0  0  0  0
 16 17  1  6  0  0  0
 16 15  1  0  0  0  0
 16 23  1  0  0  0  0
 18 17  1  0  0  0  0
 19 22  2  0  0  0  0
 20 22  1  0  0  0  0
 21 22  1  0  0  0  0
 22 18  1  0  0  0  0
 24 27  1  1  0  0  0
 25 24  1  0  0  0  0
 26 23  1  6  0  0  0
 26 25  1  0  0  0  0
 26 24  1  0  0  0  0
 27 29  1  0  0  0  0
 29 28  1  0  0  0  0
 31 42  1  6  0  0  0
 32 31  1  0  0  0  0
 33 38  1  6  0  0  0
 33 36  1  0  0  0  0
 33 34  1  0  0  0  0
 35 45  1  6  0  0  0
 35 39  1  0  0  0  0
 36 31  1  0  0  0  0
 36 30  1  1  0  0  0
 37 32  1  1  0  0  0
 37 33  1  0  0  0  0
 37 35  1  0  0  0  0
 39 34  1  0  0  0  0
 42 41  1  6  0  0  0
 42 40  1  0  0  0  0
 42 44  1  0  0  0  0
 43 44  1  0  0  0  0
 46 52  1  6  0  0  0
 46 47  1  0  0  0  0
 47 55  1  0  0  0  0
 47 51  1  0  0  0  0
 48 55  2  0  0  0  0
 49 45  1  6  0  0  0
 49 51  1  0  0  0  0
 50 54  1  1  0  0  0
 50 46  1  0  0  0  0
 50 49  1  0  0  0  0
 53 46  1  0  0  0  0
 53 48  1  0  0  0  0
M  END
>  <MODEL>
6

>  <REMARK>
 VINA RESULT:      -6.7      2.591      4.184
  Name = 
  16 active torsions:
  status: ('A' for Active; 'I' for Inactive)
    1  A    between atoms: N_2  and  C_46
    2  A    between atoms: C_5  and  C_15
    3  A    between atoms: C_5  and  C_18
    4  A    between atoms: C_5  and  C_25
    5  A    between atoms: C_7  and  C_40
    6  A    between atoms: C_11  and  C_17
    7  A    between atoms: C_14  and  C_19
    8  A    between atoms: C_14  and  C_37
    9  A    between atoms: C_15  and  C_52
   10  A    between atoms: C_17  and  C_44
   11  A    between atoms: C_18  and  O_33
   12  A    between atoms: C_22  and  O_51
   13  A    between atoms: C_29  and  O_51
   14  A    between atoms: O_33  and  P_48
   15  A    between atoms: C_35  and  C_41
   16  A    between atoms: C_40  and  C_55
                            x       y       z     vdW  Elec       q    Type
                         _______ _______ _______ _____ _____    ______ ____

>  <TORSDO>
F 16

$$$$
=
 OpenBabel11062415093D

 55 61  0  0  1  0  0  0  0  0999 V2000
  182.4720  178.2100  138.9430 C   0  0  2  0  0  3  0  0  0  0  0  0
  181.1390  178.2610  138.1770 C   0  0  0  0  0  2  0  0  0  0  0  0
  181.9950  176.5540  136.5880 C   0  0  0  0  0  0  0  0  0  0  0  0
  181.7870  175.6110  135.7810 O   0  0  0  0  0  0  0  0  0  0  0  0
  183.3570  177.1690  136.7630 C   0  0  1  0  0  3  0  0  0  0  0  0
  180.9240  177.0600  137.3810 N   0  0  0  0  0  2  0  0  0  0  0  0
  183.5700  177.3640  138.2670 C   0  0  0  0  0  2  0  0  0  0  0  0
  185.1800  177.0930  135.0340 C   0  0  0  0  0  2  0  0  0  0  0  0
  185.5710  176.0170  137.1540 C   0  0  0  0  0  2  0  0  0  0  0  0
  184.4820  176.3210  136.1450 C   0  0  1  0  0  3  0  0  0  0  0  0
  186.4580  177.6770  135.6100 C   0  0  0  0  0  2  0  0  0  0  0  0
  186.5890  177.1270  137.0180 C   0  0  2  0  0  3  0  0  0  0  0  0
  187.9380  176.6350  137.2880 N   0  0  0  0  0  2  0  0  0  0  0  0
  188.1710  177.5560  139.4270 O   0  0  0  0  0  0  0  0  0  0  0  0
  188.7080  176.9510  138.4580 C   0  0  0  0  0  0  0  0  0  0  0  0
  190.1540  176.5540  138.5570 C   0  0  2  0  0  3  0  0  0  0  0  0
  190.7490  177.0990  139.8470 C   0  0  0  0  0  2  0  0  0  0  0  0
  190.8970  176.0710  140.7780 O   0  0  0  0  0  0  0  0  0  0  0  0
  191.7970  177.1160  142.9990 O   0  0  0  0  0  1  0  0  0  0  0  0
  189.6010  178.1650  142.0490 O   0  0  0  0  0  0  0  0  0  0  0  0
  189.6400  175.6610  143.2160 O   0  0  0  0  0  1  0  0  0  0  0  0
  190.5180  176.7610  142.2760 P   0  0  0  0  0  0  0  0  0  0  0  0
  190.9740  177.0520  137.3710 C   0  0  0  0  0  2  0  0  0  0  0  0
  192.9770  175.6150  137.1130 C   0  0  2  0  0  3  0  0  0  0  0  0
  191.8330  174.7500  137.5860 C   0  0  0  0  0  2  0  0  0  0  0  0
  191.5700  175.8820  136.6160 C   0  0  1  0  0  3  0  0  0  0  0  0
  193.7500  174.8800  136.0420 C   0  0  0  0  0  2  0  0  0  0  0  0
  195.3950  175.2490  137.7100 O   0  0  0  0  0  1  0  0  0  0  0  0
  195.1160  174.5020  136.5690 C   0  0  0  0  0  2  0  0  0  0  0  0
  182.2310  177.7030  140.3530 C   0  0  0  0  0  2  0  0  0  0  0  0
  181.7050  178.6080  142.6330 C   0  0  2  0  0  3  0  0  0  0  0  0
  182.4580  179.0010  143.7560 O   0  0  0  0  0  0  0  0  0  0  0  0
  183.9380  178.8360  141.8800 C   0  0  1  0  0  0  0  0  0  0  0  0
  184.5910  177.5910  141.7760 O   0  0  0  0  0  0  0  0  0  0  0  0
  184.6710  178.2090  144.0490 C   0  0  1  0  0  3  0  0  0  0  0  0
  182.5200  178.8010  141.3730 C   0  0  1  0  0  3  0  0  0  0  0  0
  183.7930  179.1940  143.3350 C   0  0  2  0  0  3  0  0  0  0  0  0
  184.6600  179.8230  141.2070 O   0  0  0  0  0  1  0  0  0  0  0  0
  185.3730  177.4730  142.9360 C   0  0  0  0  0  2  0  0  0  0  0  0
  180.3640  180.2940  143.6140 F   0  0  0  0  0  0  0  0  0  0  0  0
  179.3150  178.4420  142.8640 O   0  0  0  0  0  1  0  0  0  0  0  0
  180.3540  179.3420  142.6110 C   0  0  2  0  0  0  0  0  0  0  0  0
  179.4660  181.2880  141.4810 O   0  0  0  0  0  1  0  0  0  0  0  0
  180.1040  180.0610  141.2830 C   0  0  0  0  0  2  0  0  0  0  0  0
  185.6130  178.8680  144.8600 O   0  0  0  0  0  0  0  0  0  0  0  0
  187.9530  177.1750  147.1090 C   0  0  2  0  0  0  0  0  0  0  0  0
  187.3020  178.1630  147.9380 N   0  0  0  0  0  0  0  0  0  0  0  0
  189.5010  178.6490  148.1480 C   0  0  0  0  0  3  0  0  0  0  0  0
  186.0120  178.0610  145.9610 C   0  0  1  0  0  3  0  0  0  0  0  0
  187.3270  177.3110  145.7180 C   0  0  1  0  0  3  0  0  0  0  0  0
  186.1040  178.7140  147.3480 C   0  0  0  0  0  2  0  0  0  0  0  0
  187.7100  175.8980  147.6190 O   0  0  0  0  0  1  0  0  0  0  0  0
  189.4460  177.4970  147.2000 C   0  0  0  0  0  2  0  0  0  0  0  0
  188.1560  178.0300  144.8510 O   0  0  0  0  0  1  0  0  0  0  0  0
  188.2840  179.0030  148.5170 C   0  0  0  0  0  3  0  0  0  0  0  0
  1 30  1  1  0  0  0
  2  1  1  0  0  0  0
  3  5  1  0  0  0  0
  3  6  1  0  0  0  0
  4  3  2  0  0  0  0
  5  7  1  1  0  0  0
  6  2  1  0  0  0  0
  7  1  1  0  0  0  0
  8 11  1  0  0  0  0
 10  8  1  6  0  0  0
 10  5  1  0  0  0  0
 10  9  1  0  0  0  0
 11 12  1  0  0  0  0
 12  9  1  0  0  0  0
 12 13  1  6  0  0  0
 13 15  1  0  0  0  0
 15 16  1  0  0  0  0
 15 14  2  0  0  0  0
 16 23  1  6  0  0  0
 16 17  1  0  0  0  0
 17 18  1  0  0  0  0
 18 22  1  0  0  0  0
 20 22  2  0  0  0  0
 22 19  1  0  0  0  0
 22 21  1  0  0  0  0
 24 27  1  6  0  0  0
 24 25  1  0  0  0  0
 26 24  1  0  0  0  0
 26 23  1  1  0  0  0
 26 25  1  0  0  0  0
 27 29  1  0  0  0  0
 29 28  1  0  0  0  0
 31 42  1  6  0  0  0
 31 32  1  0  0  0  0
 33 38  1  6  0  0  0
 33 37  1  0  0  0  0
 34 33  1  0  0  0  0
 34 39  1  0  0  0  0
 35 45  1  1  0  0  0
 36 30  1  6  0  0  0
 36 33  1  0  0  0  0
 36 31  1  0  0  0  0
 37 32  1  1  0  0  0
 37 35  1  0  0  0  0
 39 35  1  0  0  0  0
 42 41  1  1  0  0  0
 42 40  1  0  0  0  0
 44 43  1  0  0  0  0
 44 42  1  0  0  0  0
 46 53  1  0  0  0  0
 46 52  1  1  0  0  0
 46 47  1  0  0  0  0
 47 55  1  0  0  0  0
 48 55  2  0  0  0  0
 49 45  1  6  0  0  0
 49 51  1  0  0  0  0
 50 54  1  6  0  0  0
 50 49  1  0  0  0  0
 50 46  1  0  0  0  0
 51 47  1  0  0  0  0
 53 48  1  0  0  0  0
M  END
>  <MODEL>
7

>  <REMARK>
 VINA RESULT:      -6.4      2.802      8.389
  Name = 
  16 active torsions:
  status: ('A' for Active; 'I' for Inactive)
    1  A    between atoms: N_2  and  C_46
    2  A    between atoms: C_5  and  C_15
    3  A    between atoms: C_5  and  C_18
    4  A    between atoms: C_5  and  C_25
    5  A    between atoms: C_7  and  C_40
    6  A    between atoms: C_11  and  C_17
    7  A    between atoms: C_14  and  C_19
    8  A    between atoms: C_14  and  C_37
    9  A    between atoms: C_15  and  C_52
   10  A    between atoms: C_17  and  C_44
   11  A    between atoms: C_18  and  O_33
   12  A    between atoms: C_22  and  O_51
   13  A    between atoms: C_29  and  O_51
   14  A    between atoms: O_33  and  P_48
   15  A    between atoms: C_35  and  C_41
   16  A    between atoms: C_40  and  C_55
                            x       y       z     vdW  Elec       q    Type
                         _______ _______ _______ _____ _____    ______ ____

>  <TORSDO>
F 16

$$$$
=
 OpenBabel11062415093D

 55 61  0  0  1  0  0  0  0  0999 V2000
  182.3810  175.9160  138.0900 C   0  0  2  0  0  3  0  0  0  0  0  0
  181.1380  175.4040  137.3420 C   0  0  0  0  0  2  0  0  0  0  0  0
  182.3290  173.2860  136.8260 C   0  0  0  0  0  0  0  0  0  0  0  0
  182.3060  172.0530  136.5740 O   0  0  0  0  0  0  0  0  0  0  0  0
  183.5940  174.0960  136.7350 C   0  0  1  0  0  3  0  0  0  0  0  0
  181.1340  173.9510  137.2260 N   0  0  0  0  0  2  0  0  0  0  0  0
  183.6260  175.0150  137.9600 C   0  0  0  0  0  2  0  0  0  0  0  0
  185.4310  173.2440  135.2450 C   0  0  0  0  0  2  0  0  0  0  0  0
  185.9680  173.7700  137.5350 C   0  0  0  0  0  2  0  0  0  0  0  0
  184.8600  173.2250  136.6560 C   0  0  1  0  0  3  0  0  0  0  0  0
  186.5770  174.2390  135.2250 C   0  0  0  0  0  2  0  0  0  0  0  0
  186.7790  174.6970  136.6580 C   0  0  2  0  0  3  0  0  0  0  0  0
  188.1880  174.6810  137.0420 N   0  0  0  0  0  2  0  0  0  0  0  0
  188.6700  176.9090  136.5110 O   0  0  0  0  0  0  0  0  0  0  0  0
  189.1000  175.7770  136.8660 C   0  0  0  0  0  0  0  0  0  0  0  0
  190.5710  175.6000  137.1160 C   0  0  2  0  0  3  0  0  0  0  0  0
  191.0060  176.4890  138.2720 C   0  0  0  0  0  2  0  0  0  0  0  0
  190.6040  175.9260  139.4840 O   0  0  0  0  0  0  0  0  0  0  0  0
  188.9450  176.8010  141.3050 O   0  0  0  0  0  1  0  0  0  0  0  0
  191.3830  177.7310  141.4380 O   0  0  0  0  0  1  0  0  0  0  0  0
  189.6230  178.5200  139.4610 O   0  0  0  0  0  0  0  0  0  0  0  0
  190.1100  177.2300  140.4430 P   0  0  0  0  0  0  0  0  0  0  0  0
  191.4110  175.9240  135.8840 C   0  0  0  0  0  2  0  0  0  0  0  0
  193.5220  174.6340  135.7320 C   0  0  2  0  0  3  0  0  0  0  0  0
  192.5180  173.8080  136.5020 C   0  0  0  0  0  2  0  0  0  0  0  0
  192.0570  174.6660  135.3430 C   0  0  1  0  0  3  0  0  0  0  0  0
  194.2710  173.7400  134.7700 C   0  0  0  0  0  2  0  0  0  0  0  0
  196.2450  173.2490  135.9900 O   0  0  0  0  0  1  0  0  0  0  0  0
  195.0470  172.6980  135.5440 C   0  0  0  0  0  2  0  0  0  0  0  0
  182.0470  176.1170  139.5570 C   0  0  0  0  0  2  0  0  0  0  0  0
  182.7810  178.4170  138.8740 C   0  0  2  0  0  3  0  0  0  0  0  0
  182.1450  179.6580  138.6820 O   0  0  0  0  0  0  0  0  0  0  0  0
  180.6550  178.2330  139.9010 C   0  0  1  0  0  0  0  0  0  0  0  0
  179.7330  177.5430  139.0870 O   0  0  0  0  0  0  0  0  0  0  0  0
  179.8110  179.7590  138.2910 C   0  0  1  0  0  3  0  0  0  0  0  0
  182.0240  177.6030  139.9010 C   0  0  1  0  0  3  0  0  0  0  0  0
  180.8880  179.6040  139.3240 C   0  0  2  0  0  3  0  0  0  0  0  0
  180.1750  178.3300  141.2070 O   0  0  0  0  0  1  0  0  0  0  0  0
  178.9520  178.5340  138.4720 C   0  0  0  0  0  2  0  0  0  0  0  0
  184.5220  177.9660  140.4110 F   0  0  0  0  0  0  0  0  0  0  0  0
  184.5310  179.9830  139.3990 O   0  0  0  0  0  1  0  0  0  0  0  0
  184.2640  178.6230  139.2220 C   0  0  2  0  0  0  0  0  0  0  0  0
  186.5390  178.2530  138.4870 O   0  0  0  0  0  1  0  0  0  0  0  0
  185.1980  178.0470  138.1550 C   0  0  0  0  0  2  0  0  0  0  0  0
  179.0520  180.9200  138.5260 O   0  0  0  0  0  0  0  0  0  0  0  0
  180.8350  183.6890  136.9260 C   0  0  2  0  0  0  0  0  0  0  0  0
  179.7860  184.3250  137.6890 N   0  0  0  0  0  0  0  0  0  0  0  0
  179.4380  185.0620  135.5790 C   0  0  0  0  0  3  0  0  0  0  0  0
  179.8540  182.0930  138.4630 C   0  0  1  0  0  3  0  0  0  0  0  0
  180.6940  182.1860  137.1830 C   0  0  1  0  0  3  0  0  0  0  0  0
  179.1740  183.4550  138.6670 C   0  0  0  0  0  2  0  0  0  0  0  0
  182.0800  184.1360  137.3740 O   0  0  0  0  0  1  0  0  0  0  0  0
  180.6080  184.1400  135.4810 C   0  0  0  0  0  2  0  0  0  0  0  0
  180.0530  181.5420  136.1200 O   0  0  0  0  0  1  0  0  0  0  0  0
  178.9970  185.1190  136.8220 C   0  0  0  0  0  3  0  0  0  0  0  0
  1 30  1  1  0  0  0
  2  1  1  0  0  0  0
  3  6  1  0  0  0  0
  4  3  2  0  0  0  0
  5  3  1  0  0  0  0
  5  7  1  1  0  0  0
  6  2  1  0  0  0  0
  7  1  1  0  0  0  0
 10  8  1  6  0  0  0
 10  5  1  0  0  0  0
 10  9  1  0  0  0  0
 11  8  1  0  0  0  0
 11 12  1  0  0  0  0
 12 13  1  1  0  0  0
 12  9  1  0  0  0  0
 14 15  2  0  0  0  0
 15 13  1  0  0  0  0
 15 16  1  0  0  0  0
 16 23  1  6  0  0  0
 16 17  1  0  0  0  0
 17 18  1  0  0  0  0
 18 22  1  0  0  0  0
 21 22  2  0  0  0  0
 22 19  1  0  0  0  0
 22 20  1  0  0  0  0
 24 27  1  6  0  0  0
 24 25  1  0  0  0  0
 26 24  1  0  0  0  0
 26 23  1  1  0  0  0
 26 25  1  0  0  0  0
 27 29  1  0  0  0  0
 29 28  1  0  0  0  0
 31 42  1  1  0  0  0
 31 36  1  0  0  0  0
 32 31  1  0  0  0  0
 33 38  1  1  0  0  0
 34 33  1  0  0  0  0
 35 39  1  0  0  0  0
 35 45  1  1  0  0  0
 35 37  1  0  0  0  0
 36 30  1  6  0  0  0
 36 33  1  0  0  0  0
 37 32  1  6  0  0  0
 37 33  1  0  0  0  0
 39 34  1  0  0  0  0
 42 41  1  1  0  0  0
 42 40  1  0  0  0  0
 44 43  1  0  0  0  0
 44 42  1  0  0  0  0
 46 50  1  0  0  0  0
 46 52  1  1  0  0  0
 46 47  1  0  0  0  0
 47 51  1  0  0  0  0
 48 55  2  0  0  0  0
 49 45  1  6  0  0  0
 49 51  1  0  0  0  0
 50 54  1  6  0  0  0
 50 49  1  0  0  0  0
 53 48  1  0  0  0  0
 53 46  1  0  0  0  0
 55 47  1  0  0  0  0
M  END
>  <MODEL>
8

>  <REMARK>
 VINA RESULT:      -6.2      4.405      8.907
  Name = 
  16 active torsions:
  status: ('A' for Active; 'I' for Inactive)
    1  A    between atoms: N_2  and  C_46
    2  A    between atoms: C_5  and  C_15
    3  A    between atoms: C_5  and  C_18
    4  A    between atoms: C_5  and  C_25
    5  A    between atoms: C_7  and  C_40
    6  A    between atoms: C_11  and  C_17
    7  A    between atoms: C_14  and  C_19
    8  A    between atoms: C_14  and  C_37
    9  A    between atoms: C_15  and  C_52
   10  A    between atoms: C_17  and  C_44
   11  A    between atoms: C_18  and  O_33
   12  A    between atoms: C_22  and  O_51
   13  A    between atoms: C_29  and  O_51
   14  A    between atoms: O_33  and  P_48
   15  A    between atoms: C_35  and  C_41
   16  A    between atoms: C_40  and  C_55
                            x       y       z     vdW  Elec       q    Type
                         _______ _______ _______ _____ _____    ______ ____

>  <TORSDO>
F 16

$$$$
=
 OpenBabel11062415093D

 55 61  0  0  1  0  0  0  0  0999 V2000
  182.6060  178.3700  138.5360 C   0  0  2  0  0  3  0  0  0  0  0  0
  181.4070  178.1430  137.6000 C   0  0  0  0  0  2  0  0  0  0  0  0
  182.7600  176.5430  136.2660 C   0  0  0  0  0  0  0  0  0  0  0  0
  182.8350  175.5400  135.5100 O   0  0  0  0  0  0  0  0  0  0  0  0
  183.9580  177.4020  136.5730 C   0  0  1  0  0  3  0  0  0  0  0  0
  181.5170  176.8850  136.8730 N   0  0  0  0  0  2  0  0  0  0  0  0
  183.9180  177.7040  138.0740 C   0  0  0  0  0  2  0  0  0  0  0  0
  185.9820  177.5600  135.0910 C   0  0  0  0  0  2  0  0  0  0  0  0
  186.2670  176.7080  137.3270 C   0  0  0  0  0  2  0  0  0  0  0  0
  185.2880  176.7410  136.1710 C   0  0  1  0  0  3  0  0  0  0  0  0
  187.0470  178.4060  135.7670 C   0  0  0  0  0  2  0  0  0  0  0  0
  187.0820  177.9780  137.2220 C   0  0  2  0  0  3  0  0  0  0  0  0
  188.4470  177.7630  137.6950 N   0  0  0  0  0  2  0  0  0  0  0  0
  187.9920  177.8820  139.9880 O   0  0  0  0  0  0  0  0  0  0  0  0
  188.8560  177.8140  139.0710 C   0  0  0  0  0  0  0  0  0  0  0  0
  190.3120  177.7700  139.4420 C   0  0  2  0  0  3  0  0  0  0  0  0
  190.9320  176.4770  138.9340 C   0  0  0  0  0  2  0  0  0  0  0  0
  190.1280  175.9190  137.9400 O   0  0  0  0  0  0  0  0  0  0  0  0
  191.3480  175.2150  135.7370 O   0  0  0  0  0  0  0  0  0  0  0  0
  192.5840  174.6370  137.9660 O   0  0  0  0  0  1  0  0  0  0  0  0
  190.3280  173.2690  137.1470 O   0  0  0  0  0  1  0  0  0  0  0  0
  191.1010  174.7740  137.1620 P   0  0  0  0  0  0  0  0  0  0  0  0
  190.5300  177.8790  140.9480 C   0  0  0  0  0  2  0  0  0  0  0  0
  190.6730  176.6260  143.0810 C   0  0  2  0  0  3  0  0  0  0  0  0
  189.3420  176.3150  142.4390 C   0  0  0  0  0  2  0  0  0  0  0  0
  190.5700  176.5010  141.5740 C   0  0  1  0  0  3  0  0  0  0  0  0
  191.2660  175.3540  143.6450 C   0  0  0  0  0  2  0  0  0  0  0  0
  191.6350  176.8930  145.4120 O   0  0  0  0  0  1  0  0  0  0  0  0
  192.0570  175.6710  144.8940 C   0  0  0  0  0  2  0  0  0  0  0  0
  182.2580  177.8970  139.9360 C   0  0  0  0  0  2  0  0  0  0  0  0
  181.7130  178.8400  142.1960 C   0  0  2  0  0  3  0  0  0  0  0  0
  182.4520  179.1940  143.3410 O   0  0  0  0  0  0  0  0  0  0  0  0
  183.9780  178.9390  141.5130 C   0  0  1  0  0  0  0  0  0  0  0  0
  184.5630  177.6590  141.4330 O   0  0  0  0  0  0  0  0  0  0  0  0
  184.6060  178.2810  143.7050 C   0  0  1  0  0  3  0  0  0  0  0  0
  182.5760  178.9810  140.9610 C   0  0  1  0  0  3  0  0  0  0  0  0
  183.8080  179.3100  142.9620 C   0  0  2  0  0  3  0  0  0  0  0  0
  184.7750  179.8800  140.8600 O   0  0  0  0  0  1  0  0  0  0  0  0
  185.3000  177.5020  142.6170 C   0  0  0  0  0  2  0  0  0  0  0  0
  180.3410  180.2590  140.8910 F   0  0  0  0  0  0  0  0  0  0  0  0
  180.4050  180.6390  143.1150 O   0  0  0  0  0  1  0  0  0  0  0  0
  180.4070  179.6480  142.1300 C   0  0  2  0  0  0  0  0  0  0  0  0
  179.4980  177.4080  142.2200 O   0  0  0  0  0  1  0  0  0  0  0  0
  179.1670  178.7640  142.2840 C   0  0  0  0  0  2  0  0  0  0  0  0
  185.5580  178.8900  144.5440 O   0  0  0  0  0  0  0  0  0  0  0  0
  187.7760  177.2430  146.9460 C   0  0  2  0  0  0  0  0  0  0  0  0
  186.9680  178.1330  147.7480 N   0  0  0  0  0  0  0  0  0  0  0  0
  189.0900  178.7630  148.2170 C   0  0  0  0  0  3  0  0  0  0  0  0
  185.9020  178.0520  145.6410 C   0  0  1  0  0  3  0  0  0  0  0  0
  187.2900  177.4130  145.5040 C   0  0  1  0  0  3  0  0  0  0  0  0
  185.7990  178.6290  147.0600 C   0  0  0  0  0  2  0  0  0  0  0  0
  187.5810  175.9250  147.3640 O   0  0  0  0  0  1  0  0  0  0  0  0
  189.2220  177.6660  147.2130 C   0  0  0  0  0  2  0  0  0  0  0  0
  188.1460  178.2380  144.7680 O   0  0  0  0  0  1  0  0  0  0  0  0
  187.8170  179.0070  148.4700 C   0  0  0  0  0  3  0  0  0  0  0  0
  1 30  1  1  0  0  0
  2  1  1  0  0  0  0
  3  5  1  0  0  0  0
  3  6  1  0  0  0  0
  4  3  2  0  0  0  0
  5  7  1  1  0  0  0
  6  2  1  0  0  0  0
  7  1  1  0  0  0  0
  8 11  1  0  0  0  0
 10  8  1  6  0  0  0
 10  5  1  0  0  0  0
 10  9  1  0  0  0  0
 11 12  1  0  0  0  0
 12  9  1  0  0  0  0
 12 13  1  6  0  0  0
 13 15  1  0  0  0  0
 15 16  1  0  0  0  0
 15 14  2  0  0  0  0
 16 17  1  1  0  0  0
 16 23  1  0  0  0  0
 18 17  1  0  0  0  0
 19 22  2  0  0  0  0
 21 22  1  0  0  0  0
 22 18  1  0  0  0  0
 22 20  1  0  0  0  0
 24 27  1  1  0  0  0
 25 24  1  0  0  0  0
 26 23  1  6  0  0  0
 26 25  1  0  0  0  0
 26 24  1  0  0  0  0
 27 29  1  0  0  0  0
 29 28  1  0  0  0  0
 31 42  1  6  0  0  0
 31 32  1  0  0  0  0
 33 38  1  6  0  0  0
 33 37  1  0  0  0  0
 34 33  1  0  0  0  0
 34 39  1  0  0  0  0
 35 45  1  1  0  0  0
 36 30  1  6  0  0  0
 36 33  1  0  0  0  0
 36 31  1  0  0  0  0
 37 32  1  1  0  0  0
 37 35  1  0  0  0  0
 39 35  1  0  0  0  0
 42 40  1  6  0  0  0
 42 44  1  0  0  0  0
 42 41  1  0  0  0  0
 43 44  1  0  0  0  0
 46 53  1  0  0  0  0
 46 52  1  1  0  0  0
 46 47  1  0  0  0  0
 47 55  1  0  0  0  0
 48 55  2  0  0  0  0
 49 45  1  6  0  0  0
 49 51  1  0  0  0  0
 50 54  1  6  0  0  0
 50 49  1  0  0  0  0
 50 46  1  0  0  0  0
 51 47  1  0  0  0  0
 53 48  1  0  0  0  0
M  END
>  <MODEL>
9

>  <REMARK>
 VINA RESULT:      -6.2      2.742      7.454
  Name = 
  16 active torsions:
  status: ('A' for Active; 'I' for Inactive)
    1  A    between atoms: N_2  and  C_46
    2  A    between atoms: C_5  and  C_15
    3  A    between atoms: C_5  and  C_18
    4  A    between atoms: C_5  and  C_25
    5  A    between atoms: C_7  and  C_40
    6  A    between atoms: C_11  and  C_17
    7  A    between atoms: C_14  and  C_19
    8  A    between atoms: C_14  and  C_37
    9  A    between atoms: C_15  and  C_52
   10  A    between atoms: C_17  and  C_44
   11  A    between atoms: C_18  and  O_33
   12  A    between atoms: C_22  and  O_51
   13  A    between atoms: C_29  and  O_51
   14  A    between atoms: O_33  and  P_48
   15  A    between atoms: C_35  and  C_41
   16  A    between atoms: C_40  and  C_55
                            x       y       z     vdW  Elec       q    Type
                         _______ _______ _______ _____ _____    ______ ____

>  <TORSDO>
F 16

$$$$
