=
 OpenBabel11062417013D

 26 28  0  0  1  0  0  0  0  0999 V2000
  184.5450  178.4030  147.0480 O   0  0  0  0  0  1  0  0  0  0  0  0
  185.3580  178.2390  145.9260 C   0  0  2  0  0  3  0  0  0  0  0  0
  188.0880  178.3290  148.5110 C   0  0  0  0  0  3  0  0  0  0  0  0
  189.3830  177.7880  148.0500 C   0  0  0  0  0  3  0  0  0  0  0  0
  187.3940  176.8500  146.0440 N   0  0  0  0  0  2  0  0  0  0  0  0
  188.8060  177.0080  145.6750 C   0  0  2  0  0  3  0  0  0  0  0  0
  189.6920  177.2220  146.8780 C   0  0  0  0  0  3  0  0  0  0  0  0
  186.8230  178.1570  146.3550 C   0  0  2  0  0  3  0  0  0  0  0  0
  186.9650  178.4740  147.8060 C   0  0  0  0  0  3  0  0  0  0  0  0
  189.9710  177.9480  142.5030 C   0  0  0  0  0  2  0  0  0  0  0  0
  190.7290  178.8100  143.3840 N   0  0  0  0  0  2  0  0  0  0  0  0
  188.8570  177.4050  143.3400 C   0  0  0  0  0  2  0  0  0  0  0  0
  189.0050  178.0360  144.6400 N   0  0  2  0  0  0  0  0  0  0  0  0
  190.3480  178.4600  144.6930 N   0  0  0  0  0  2  0  0  0  0  0  0
  185.1140  179.3700  144.9330 C   0  0  0  0  0  2  0  0  0  0  0  0
  185.5500  179.0950  140.7590 C   0  0  0  0  0  2  0  0  0  0  0  0
  184.3950  178.6510  139.9790 N   0  0  0  0  0  0  0  0  0  0  0  0
  184.1500  178.6450  142.7570 C   0  0  0  0  0  0  0  0  0  0  0  0
  184.5200  178.2790  138.5930 C   0  0  0  0  0  0  0  0  0  0  0  0
  183.0670  178.8950  140.5440 C   0  0  0  0  0  2  0  0  0  0  0  0
  182.9590  178.2670  141.9310 C   0  0  0  0  0  2  0  0  0  0  0  0
  183.5130  178.3470  137.8380 O   0  0  0  0  0  0  0  0  0  0  0  0
  183.9740  179.0260  144.0250 C   0  0  0  0  0  3  0  0  0  0  0  0
  185.5180  178.4740  142.1530 C   0  0  0  0  0  2  0  0  0  0  0  0
  185.7810  177.7930  138.0080 C   0  0  0  0  0  3  0  0  0  0  0  0
  186.6530  178.5910  137.4860 N   0  0  0  0  0  2  0  0  0  0  0  0
  2  1  1  1  0  0  0
  4  3  1  0  0  0  0
  5  8  1  0  0  0  0
  6  5  1  0  0  0  0
  6  7  1  1  0  0  0
  7  4  2  0  0  0  0
  8  2  1  1  0  0  0
  8  9  1  0  0  0  0
  9  3  2  0  0  0  0
 10 12  1  0  0  0  0
 10 11  1  0  0  0  0
 11 14  1  0  0  0  0
 13 12  1  6  0  0  0
 13 14  1  0  0  0  0
 13  6  1  0  0  0  0
 15  2  1  0  0  0  0
 16 24  1  0  0  0  0
 17 20  1  0  0  0  0
 17 16  1  0  0  0  0
 18 23  2  0  0  0  0
 19 17  1  0  0  0  0
 20 21  1  0  0  0  0
 21 18  1  0  0  0  0
 22 19  2  0  0  0  0
 23 15  1  0  0  0  0
 24 18  1  0  0  0  0
 25 19  1  0  0  0  0
 26 25  2  0  0  0  0
M  END
>  <MODEL>
1

>  <REMARK>
 VINA RESULT:      -8.3      0.000      0.000
  Name = 
  5 active torsions:
  status: ('A' for Active; 'I' for Inactive)
    1  A    between atoms: C_2  and  C_15
    2  A    between atoms: C_6  and  C_14
    3  A    between atoms: C_6  and  C_25
    4  A    between atoms: C_10  and  N_22
    5  A    between atoms: C_14  and  C_17
                            x       y       z     vdW  Elec       q    Type
                         _______ _______ _______ _____ _____    ______ ____

>  <TORSDO>
F 5

$$$$
=
 OpenBabel11062417013D

 26 28  0  0  1  0  0  0  0  0999 V2000
  185.6330  179.7600  147.4850 O   0  0  0  0  0  1  0  0  0  0  0  0
  185.9040  178.6900  146.6310 C   0  0  2  0  0  3  0  0  0  0  0  0
  189.0720  178.0470  148.5530 C   0  0  0  0  0  3  0  0  0  0  0  0
  190.1210  177.3470  147.7830 C   0  0  0  0  0  3  0  0  0  0  0  0
  187.6250  176.9740  146.2050 N   0  0  0  0  0  2  0  0  0  0  0  0
  188.9360  176.9300  145.5460 C   0  0  2  0  0  3  0  0  0  0  0  0
  190.0740  176.8640  146.5360 C   0  0  0  0  0  3  0  0  0  0  0  0
  187.3850  178.3180  146.7220 C   0  0  2  0  0  3  0  0  0  0  0  0
  187.8770  178.4520  148.1230 C   0  0  0  0  0  3  0  0  0  0  0  0
  189.5220  177.9890  142.2540 C   0  0  0  0  0  2  0  0  0  0  0  0
  190.6250  178.5850  142.9770 N   0  0  0  0  0  2  0  0  0  0  0  0
  188.5380  177.5750  143.3020 C   0  0  0  0  0  2  0  0  0  0  0  0
  189.1080  178.0130  144.5640 N   0  0  2  0  0  0  0  0  0  0  0  0
  190.4860  178.1660  144.3130 N   0  0  0  0  0  2  0  0  0  0  0  0
  185.4870  179.0390  145.2060 C   0  0  0  0  0  2  0  0  0  0  0  0
  183.5140  178.8660  141.4960 C   0  0  0  0  0  2  0  0  0  0  0  0
  182.0550  178.7600  141.5020 N   0  0  0  0  0  0  0  0  0  0  0  0
  183.3610  178.6810  143.9650 C   0  0  0  0  0  0  0  0  0  0  0  0
  181.3180  178.4360  140.3070 C   0  0  0  0  0  0  0  0  0  0  0  0
  181.3460  179.2980  142.6640 C   0  0  0  0  0  2  0  0  0  0  0  0
  181.8630  178.6500  143.9460 C   0  0  0  0  0  2  0  0  0  0  0  0
  180.1120  178.7880  140.2070 O   0  0  0  0  0  0  0  0  0  0  0  0
  183.9940  179.0320  145.0880 C   0  0  0  0  0  3  0  0  0  0  0  0
  184.0980  178.2060  142.7430 C   0  0  0  0  0  2  0  0  0  0  0  0
  181.9060  177.6820  139.1870 C   0  0  0  0  0  3  0  0  0  0  0  0
  182.3050  178.2570  138.1010 N   0  0  0  0  0  2  0  0  0  0  0  0
  2  1  1  1  0  0  0
  4  3  1  0  0  0  0
  5  8  1  0  0  0  0
  6  5  1  0  0  0  0
  6  7  1  1  0  0  0
  7  4  2  0  0  0  0
  8  2  1  1  0  0  0
  8  9  1  0  0  0  0
  9  3  2  0  0  0  0
 10 11  1  0  0  0  0
 10 12  1  0  0  0  0
 11 14  1  0  0  0  0
 13 12  1  6  0  0  0
 13  6  1  0  0  0  0
 14 13  1  0  0  0  0
 15  2  1  0  0  0  0
 16 17  1  0  0  0  0
 16 24  1  0  0  0  0
 17 20  1  0  0  0  0
 18 23  2  0  0  0  0
 19 17  1  0  0  0  0
 20 21  1  0  0  0  0
 21 18  1  0  0  0  0
 22 19  2  0  0  0  0
 23 15  1  0  0  0  0
 24 18  1  0  0  0  0
 25 19  1  0  0  0  0
 26 25  2  0  0  0  0
M  END
>  <MODEL>
2

>  <REMARK>
 VINA RESULT:      -8.0      1.822      2.027
  Name = 
  5 active torsions:
  status: ('A' for Active; 'I' for Inactive)
    1  A    between atoms: C_2  and  C_15
    2  A    between atoms: C_6  and  C_14
    3  A    between atoms: C_6  and  C_25
    4  A    between atoms: C_10  and  N_22
    5  A    between atoms: C_14  and  C_17
                            x       y       z     vdW  Elec       q    Type
                         _______ _______ _______ _____ _____    ______ ____

>  <TORSDO>
F 5

$$$$
=
 OpenBabel11062417013D

 26 28  0  0  1  0  0  0  0  0999 V2000
  187.4840  177.5480  147.2240 O   0  0  0  0  0  1  0  0  0  0  0  0
  187.1970  177.4730  145.8600 C   0  0  2  0  0  3  0  0  0  0  0  0
  188.9780  176.3810  142.7330 C   0  0  0  0  0  3  0  0  0  0  0  0
  190.4520  176.4480  142.8150 C   0  0  0  0  0  3  0  0  0  0  0  0
  189.4750  178.0630  145.1170 N   0  0  0  0  0  2  0  0  0  0  0  0
  190.7980  177.4310  145.1590 C   0  0  2  0  0  3  0  0  0  0  0  0
  191.2220  176.8950  143.8130 C   0  0  0  0  0  3  0  0  0  0  0  0
  188.4430  177.0300  145.0920 C   0  0  2  0  0  3  0  0  0  0  0  0
  188.0930  176.6520  143.6930 C   0  0  0  0  0  3  0  0  0  0  0  0
  192.2530  176.2950  148.1420 C   0  0  0  0  0  2  0  0  0  0  0  0
  192.5610  175.2270  147.2160 N   0  0  0  0  0  2  0  0  0  0  0  0
  191.1890  177.1070  147.4730 C   0  0  0  0  0  2  0  0  0  0  0  0
  190.9050  176.4210  146.2250 N   0  0  2  0  0  0  0  0  0  0  0  0
  192.0440  175.6310  145.9710 N   0  0  0  0  0  2  0  0  0  0  0  0
  186.6640  178.8140  145.3640 C   0  0  0  0  0  2  0  0  0  0  0  0
  184.2410  178.8520  141.9270 C   0  0  0  0  0  2  0  0  0  0  0  0
  182.7920  178.7680  142.1120 N   0  0  0  0  0  0  0  0  0  0  0  0
  184.3930  178.5490  144.3850 C   0  0  0  0  0  0  0  0  0  0  0  0
  181.9050  178.5140  141.0060 C   0  0  0  0  0  0  0  0  0  0  0  0
  182.2450  179.2590  143.3770 C   0  0  0  0  0  2  0  0  0  0  0  0
  182.9050  178.5420  144.5530 C   0  0  0  0  0  2  0  0  0  0  0  0
  180.7040  178.8880  141.0740 O   0  0  0  0  0  0  0  0  0  0  0  0
  185.1690  178.8350  145.4340 C   0  0  0  0  0  3  0  0  0  0  0  0
  184.9620  178.1230  143.0580 C   0  0  0  0  0  2  0  0  0  0  0  0
  182.3320  177.8060  139.7870 C   0  0  0  0  0  3  0  0  0  0  0  0
  182.5280  176.5300  139.7610 N   0  0  0  0  0  2  0  0  0  0  0  0
  2  1  1  1  0  0  0
  3  4  1  0  0  0  0
  3  9  2  0  0  0  0
  4  7  2  0  0  0  0
  5  6  1  0  0  0  0
  6  7  1  6  0  0  0
  6 13  1  0  0  0  0
  8  5  1  0  0  0  0
  8  2  1  6  0  0  0
  9  8  1  0  0  0  0
 11 10  1  0  0  0  0
 12 10  1  0  0  0  0
 13 12  1  1  0  0  0
 14 13  1  0  0  0  0
 14 11  1  0  0  0  0
 15 23  1  0  0  0  0
 15  2  1  0  0  0  0
 16 17  1  0  0  0  0
 16 24  1  0  0  0  0
 17 20  1  0  0  0  0
 18 21  1  0  0  0  0
 18 23  2  0  0  0  0
 19 22  2  0  0  0  0
 19 17  1  0  0  0  0
 20 21  1  0  0  0  0
 24 18  1  0  0  0  0
 25 19  1  0  0  0  0
 26 25  2  0  0  0  0
M  END
>  <MODEL>
3

>  <REMARK>
 VINA RESULT:      -7.9      2.255      3.697
  Name = 
  5 active torsions:
  status: ('A' for Active; 'I' for Inactive)
    1  A    between atoms: C_2  and  C_15
    2  A    between atoms: C_6  and  C_14
    3  A    between atoms: C_6  and  C_25
    4  A    between atoms: C_10  and  N_22
    5  A    between atoms: C_14  and  C_17
                            x       y       z     vdW  Elec       q    Type
                         _______ _______ _______ _____ _____    ______ ____

>  <TORSDO>
F 5

$$$$
=
 OpenBabel11062417013D

 26 28  0  0  1  0  0  0  0  0999 V2000
  190.8630  178.1250  142.5500 O   0  0  0  0  0  1  0  0  0  0  0  0
  190.8950  176.8680  141.9440 C   0  0  2  0  0  3  0  0  0  0  0  0
  188.4040  178.1920  139.4580 C   0  0  0  0  0  3  0  0  0  0  0  0
  188.7620  177.9480  138.0450 C   0  0  0  0  0  3  0  0  0  0  0  0
  191.2660  177.4530  139.5760 N   0  0  0  0  0  2  0  0  0  0  0  0
  191.0470  176.8040  138.2790 C   0  0  2  0  0  3  0  0  0  0  0  0
  189.8650  177.3840  137.5400 C   0  0  0  0  0  3  0  0  0  0  0  0
  190.2920  176.9530  140.5420 C   0  0  2  0  0  3  0  0  0  0  0  0
  189.0610  177.7950  140.5480 C   0  0  0  0  0  3  0  0  0  0  0  0
  191.5480  173.6200  136.8940 C   0  0  0  0  0  2  0  0  0  0  0  0
  190.1270  173.6230  137.1670 N   0  0  0  0  0  2  0  0  0  0  0  0
  192.1040  174.7740  137.6680 C   0  0  0  0  0  2  0  0  0  0  0  0
  190.9760  175.3370  138.3880 N   0  0  2  0  0  0  0  0  0  0  0  0
  189.8350  174.8970  137.6890 N   0  0  0  0  0  2  0  0  0  0  0  0
  190.1720  175.8480  142.8180 C   0  0  0  0  0  2  0  0  0  0  0  0
  186.8170  177.9450  144.2450 C   0  0  0  0  0  2  0  0  0  0  0  0
  186.7840  178.2970  145.6650 N   0  0  0  0  0  0  0  0  0  0  0  0
  188.9220  176.7430  144.7740 C   0  0  0  0  0  0  0  0  0  0  0  0
  185.5810  178.7770  146.2950 C   0  0  0  0  0  0  0  0  0  0  0  0
  188.0690  178.4530  146.3490 C   0  0  0  0  0  2  0  0  0  0  0  0
  188.9020  177.1820  146.2060 C   0  0  0  0  0  2  0  0  0  0  0  0
  185.6640  179.4850  147.3340 O   0  0  0  0  0  0  0  0  0  0  0  0
  190.0750  176.3490  144.2250 C   0  0  0  0  0  3  0  0  0  0  0  0
  187.6130  176.6580  144.0380 C   0  0  0  0  0  2  0  0  0  0  0  0
  184.2350  178.4570  145.7900 C   0  0  0  0  0  3  0  0  0  0  0  0
  183.5490  179.2870  145.0770 N   0  0  0  0  0  2  0  0  0  0  0  0
  2  1  1  1  0  0  0
  2 15  1  0  0  0  0
  3  9  2  0  0  0  0
  4  3  1  0  0  0  0
  5  8  1  0  0  0  0
  6  7  1  1  0  0  0
  6 13  1  0  0  0  0
  6  5  1  0  0  0  0
  7  4  2  0  0  0  0
  8  9  1  0  0  0  0
  8  2  1  1  0  0  0
 10 11  1  0  0  0  0
 10 12  1  0  0  0  0
 11 14  1  0  0  0  0
 13 12  1  6  0  0  0
 14 13  1  0  0  0  0
 15 23  1  0  0  0  0
 16 17  1  0  0  0  0
 17 19  1  0  0  0  0
 17 20  1  0  0  0  0
 18 21  1  0  0  0  0
 19 22  2  0  0  0  0
 21 20  1  0  0  0  0
 23 18  2  0  0  0  0
 24 16  1  0  0  0  0
 24 18  1  0  0  0  0
 25 19  1  0  0  0  0
 26 25  2  0  0  0  0
M  END
>  <MODEL>
4

>  <REMARK>
 VINA RESULT:      -7.9      3.779      7.504
  Name = 
  5 active torsions:
  status: ('A' for Active; 'I' for Inactive)
    1  A    between atoms: C_2  and  C_15
    2  A    between atoms: C_6  and  C_14
    3  A    between atoms: C_6  and  C_25
    4  A    between atoms: C_10  and  N_22
    5  A    between atoms: C_14  and  C_17
                            x       y       z     vdW  Elec       q    Type
                         _______ _______ _______ _____ _____    ______ ____

>  <TORSDO>
F 5

$$$$
=
 OpenBabel11062417013D

 26 28  0  0  1  0  0  0  0  0999 V2000
  184.1800  178.2760  143.2240 O   0  0  0  0  0  1  0  0  0  0  0  0
  185.5020  178.1850  142.7860 C   0  0  2  0  0  3  0  0  0  0  0  0
  186.2250  178.4200  146.4680 C   0  0  0  0  0  3  0  0  0  0  0  0
  187.5400  177.8760  146.8680 C   0  0  0  0  0  3  0  0  0  0  0  0
  187.0730  176.8300  144.1210 N   0  0  0  0  0  2  0  0  0  0  0  0
  188.4380  176.9910  144.6330 C   0  0  2  0  0  3  0  0  0  0  0  0
  188.4650  177.2670  146.1170 C   0  0  0  0  0  3  0  0  0  0  0  0
  186.4440  178.1410  143.9890 C   0  0  2  0  0  3  0  0  0  0  0  0
  185.7220  178.5200  145.2380 C   0  0  0  0  0  3  0  0  0  0  0  0
  191.3510  177.8880  142.8960 C   0  0  0  0  0  2  0  0  0  0  0  0
  191.2950  178.8790  143.9490 N   0  0  0  0  0  2  0  0  0  0  0  0
  189.9910  177.2640  142.8650 C   0  0  0  0  0  2  0  0  0  0  0  0
  189.2140  177.9780  143.8640 N   0  0  2  0  0  0  0  0  0  0  0  0
  190.1670  178.5580  144.7260 N   0  0  0  0  0  2  0  0  0  0  0  0
  185.8220  179.3440  141.8470 C   0  0  0  0  0  2  0  0  0  0  0  0
  189.0710  178.3240  139.3780 C   0  0  0  0  0  2  0  0  0  0  0  0
  188.7780  177.8260  138.0350 N   0  0  0  0  0  0  0  0  0  0  0  0
  186.6140  178.3150  139.7250 C   0  0  0  0  0  0  0  0  0  0  0  0
  189.7950  177.2120  137.2200 C   0  0  0  0  0  0  0  0  0  0  0  0
  187.5170  178.2470  137.4200 C   0  0  0  0  0  2  0  0  0  0  0  0
  186.3410  177.8760  138.3200 C   0  0  0  0  0  2  0  0  0  0  0  0
  189.6700  177.2120  135.9660 O   0  0  0  0  0  0  0  0  0  0  0  0
  185.6480  178.9200  140.4220 C   0  0  0  0  0  3  0  0  0  0  0  0
  187.9410  177.9570  140.3370 C   0  0  0  0  0  2  0  0  0  0  0  0
  190.9830  176.5540  137.7890 C   0  0  0  0  0  3  0  0  0  0  0  0
  190.9320  175.3810  138.3270 N   0  0  0  0  0  2  0  0  0  0  0  0
  2  1  1  1  0  0  0
  3  4  1  0  0  0  0
  5  6  1  0  0  0  0
  6  7  1  1  0  0  0
  7  4  2  0  0  0  0
  8  2  1  6  0  0  0
  8  5  1  0  0  0  0
  8  9  1  0  0  0  0
  9  3  2  0  0  0  0
 10 11  1  0  0  0  0
 11 14  1  0  0  0  0
 12 10  1  0  0  0  0
 13 12  1  6  0  0  0
 13  6  1  0  0  0  0
 13 14  1  0  0  0  0
 15  2  1  0  0  0  0
 16 24  1  0  0  0  0
 17 16  1  0  0  0  0
 18 24  1  0  0  0  0
 18 23  2  0  0  0  0
 19 25  1  0  0  0  0
 19 17  1  0  0  0  0
 20 17  1  0  0  0  0
 20 21  1  0  0  0  0
 21 18  1  0  0  0  0
 22 19  2  0  0  0  0
 23 15  1  0  0  0  0
 25 26  2  0  0  0  0
M  END
>  <MODEL>
5

>  <REMARK>
 VINA RESULT:      -7.6      2.604      3.607
  Name = 
  5 active torsions:
  status: ('A' for Active; 'I' for Inactive)
    1  A    between atoms: C_2  and  C_15
    2  A    between atoms: C_6  and  C_14
    3  A    between atoms: C_6  and  C_25
    4  A    between atoms: C_10  and  N_22
    5  A    between atoms: C_14  and  C_17
                            x       y       z     vdW  Elec       q    Type
                         _______ _______ _______ _____ _____    ______ ____

>  <TORSDO>
F 5

$$$$
=
 OpenBabel11062417013D

 26 28  0  0  1  0  0  0  0  0999 V2000
  184.2500  180.0250  139.4690 O   0  0  0  0  0  1  0  0  0  0  0  0
  185.0590  179.0030  139.9680 C   0  0  2  0  0  3  0  0  0  0  0  0
  184.7250  177.0100  136.7970 C   0  0  0  0  0  3  0  0  0  0  0  0
  185.9950  176.8030  136.0700 C   0  0  0  0  0  3  0  0  0  0  0  0
  186.5630  178.9860  138.0120 N   0  0  0  0  0  2  0  0  0  0  0  0
  187.6460  178.1280  137.5190 C   0  0  2  0  0  3  0  0  0  0  0  0
  187.2150  177.2730  136.3510 C   0  0  0  0  0  3  0  0  0  0  0  0
  185.6370  178.1880  138.8110 C   0  0  2  0  0  3  0  0  0  0  0  0
  184.5440  177.6250  137.9660 C   0  0  0  0  0  3  0  0  0  0  0  0
  190.4170  177.4010  139.5440 C   0  0  0  0  0  2  0  0  0  0  0  0
  190.1800  176.1420  138.8720 N   0  0  0  0  0  2  0  0  0  0  0  0
  189.1750  178.2070  139.3270 C   0  0  0  0  0  2  0  0  0  0  0  0
  188.2720  177.3380  138.5920 N   0  0  2  0  0  0  0  0  0  0  0  0
  189.1000  176.3650  137.9980 N   0  0  0  0  0  2  0  0  0  0  0  0
  184.2650  178.1370  140.9410 C   0  0  0  0  0  2  0  0  0  0  0  0
  186.7280  177.1600  144.2080 C   0  0  0  0  0  2  0  0  0  0  0  0
  186.5980  177.9620  145.4250 N   0  0  0  0  0  0  0  0  0  0  0  0
  185.0990  178.7410  143.2060 C   0  0  0  0  0  0  0  0  0  0  0  0
  187.5640  177.8760  146.4900 C   0  0  0  0  0  0  0  0  0  0  0  0
  185.3090  178.6100  145.6700 C   0  0  0  0  0  2  0  0  0  0  0  0
  184.9290  179.4980  144.4870 C   0  0  0  0  0  2  0  0  0  0  0  0
  187.2250  178.1890  147.6620 O   0  0  0  0  0  0  0  0  0  0  0  0
  184.1500  178.8200  142.2680 C   0  0  0  0  0  3  0  0  0  0  0  0
  186.3900  178.0030  142.9800 C   0  0  0  0  0  2  0  0  0  0  0  0
  188.9580  177.4550  146.2700 C   0  0  0  0  0  3  0  0  0  0  0  0
  189.6310  176.8030  147.1600 N   0  0  0  0  0  2  0  0  0  0  0  0
  2  1  1  6  0  0  0
  2 15  1  0  0  0  0
  3  9  2  0  0  0  0
  4  7  2  0  0  0  0
  4  3  1  0  0  0  0
  5  8  1  0  0  0  0
  6  7  1  6  0  0  0
  6  5  1  0  0  0  0
  6 13  1  0  0  0  0
  8  2  1  1  0  0  0
  9  8  1  0  0  0  0
 11 10  1  0  0  0  0
 12 10  1  0  0  0  0
 13 12  1  1  0  0  0
 14 13  1  0  0  0  0
 14 11  1  0  0  0  0
 15 23  1  0  0  0  0
 16 17  1  0  0  0  0
 17 20  1  0  0  0  0
 17 19  1  0  0  0  0
 18 21  1  0  0  0  0
 19 22  2  0  0  0  0
 21 20  1  0  0  0  0
 23 18  2  0  0  0  0
 24 18  1  0  0  0  0
 24 16  1  0  0  0  0
 25 19  1  0  0  0  0
 25 26  2  0  0  0  0
M  END
>  <MODEL>
6

>  <REMARK>
 VINA RESULT:      -7.4      2.068      7.463
  Name = 
  5 active torsions:
  status: ('A' for Active; 'I' for Inactive)
    1  A    between atoms: C_2  and  C_15
    2  A    between atoms: C_6  and  C_14
    3  A    between atoms: C_6  and  C_25
    4  A    between atoms: C_10  and  N_22
    5  A    between atoms: C_14  and  C_17
                            x       y       z     vdW  Elec       q    Type
                         _______ _______ _______ _____ _____    ______ ____

>  <TORSDO>
F 5

$$$$
=
 OpenBabel11062417013D

 26 28  0  0  1  0  0  0  0  0999 V2000
  185.6330  179.7270  141.0530 O   0  0  0  0  0  1  0  0  0  0  0  0
  186.3050  178.6090  141.5510 C   0  0  2  0  0  3  0  0  0  0  0  0
  184.5620  179.3510  144.7990 C   0  0  0  0  0  3  0  0  0  0  0  0
  185.1080  178.6260  145.9650 C   0  0  0  0  0  3  0  0  0  0  0  0
  186.2180  177.2200  143.5880 N   0  0  0  0  0  2  0  0  0  0  0  0
  186.9260  177.1810  144.8730 C   0  0  2  0  0  3  0  0  0  0  0  0
  186.0830  177.7100  146.0080 C   0  0  0  0  0  3  0  0  0  0  0  0
  186.2120  178.5880  143.0770 C   0  0  2  0  0  3  0  0  0  0  0  0
  185.0050  179.3300  143.5420 C   0  0  0  0  0  3  0  0  0  0  0  0
  190.4260  176.9530  144.8390 C   0  0  0  0  0  2  0  0  0  0  0  0
  190.1760  177.7770  146.0020 N   0  0  0  0  0  2  0  0  0  0  0  0
  189.1420  176.9510  144.0700 C   0  0  0  0  0  2  0  0  0  0  0  0
  188.2470  177.8260  144.8070 N   0  0  2  0  0  0  0  0  0  0  0  0
  188.7770  177.8800  146.1120 N   0  0  0  0  0  2  0  0  0  0  0  0
  187.7500  178.6080  141.0640 C   0  0  0  0  0  2  0  0  0  0  0  0
  191.2390  177.1310  139.2370 C   0  0  0  0  0  2  0  0  0  0  0  0
  191.1530  176.7130  137.8380 N   0  0  0  0  0  0  0  0  0  0  0  0
  188.7910  177.5090  139.0900 C   0  0  0  0  0  0  0  0  0  0  0  0
  192.2080  175.9610  137.2100 C   0  0  0  0  0  0  0  0  0  0  0  0
  190.1230  177.3420  137.0090 C   0  0  0  0  0  2  0  0  0  0  0  0
  188.7460  177.1470  137.6370 C   0  0  0  0  0  2  0  0  0  0  0  0
  192.3430  176.0050  135.9580 O   0  0  0  0  0  0  0  0  0  0  0  0
  187.8070  178.2470  139.6120 C   0  0  0  0  0  3  0  0  0  0  0  0
  189.8940  176.9310  139.9330 C   0  0  0  0  0  2  0  0  0  0  0  0
  193.1410  175.1100  137.9680 C   0  0  0  0  0  3  0  0  0  0  0  0
  194.3310  175.5010  138.2850 N   0  0  0  0  0  2  0  0  0  0  0  0
  2  1  1  1  0  0  0
  3  4  1  0  0  0  0
  4  7  2  0  0  0  0
  5  6  1  0  0  0  0
  6  7  1  1  0  0  0
  8  2  1  6  0  0  0
  8  9  1  0  0  0  0
  8  5  1  0  0  0  0
  9  3  2  0  0  0  0
 10 11  1  0  0  0  0
 11 14  1  0  0  0  0
 12 10  1  0  0  0  0
 13 12  1  6  0  0  0
 13  6  1  0  0  0  0
 13 14  1  0  0  0  0
 15  2  1  0  0  0  0
 16 24  1  0  0  0  0
 17 16  1  0  0  0  0
 18 23  2  0  0  0  0
 18 24  1  0  0  0  0
 19 17  1  0  0  0  0
 19 25  1  0  0  0  0
 20 21  1  0  0  0  0
 20 17  1  0  0  0  0
 21 18  1  0  0  0  0
 22 19  2  0  0  0  0
 23 15  1  0  0  0  0
 25 26  2  0  0  0  0
M  END
>  <MODEL>
7

>  <REMARK>
 VINA RESULT:      -7.3      3.672      5.564
  Name = 
  5 active torsions:
  status: ('A' for Active; 'I' for Inactive)
    1  A    between atoms: C_2  and  C_15
    2  A    between atoms: C_6  and  C_14
    3  A    between atoms: C_6  and  C_25
    4  A    between atoms: C_10  and  N_22
    5  A    between atoms: C_14  and  C_17
                            x       y       z     vdW  Elec       q    Type
                         _______ _______ _______ _____ _____    ______ ____

>  <TORSDO>
F 5

$$$$
=
 OpenBabel11062417013D

 26 28  0  0  1  0  0  0  0  0999 V2000
  186.9570  177.5040  143.0140 O   0  0  0  0  0  1  0  0  0  0  0  0
  188.1670  177.1050  142.4460 C   0  0  2  0  0  3  0  0  0  0  0  0
  191.3990  175.6440  143.6960 C   0  0  0  0  0  3  0  0  0  0  0  0
  191.8040  176.1150  145.0370 C   0  0  0  0  0  3  0  0  0  0  0  0
  189.6980  178.0230  144.1490 N   0  0  0  0  0  2  0  0  0  0  0  0
  189.9470  177.8010  145.5780 C   0  0  2  0  0  3  0  0  0  0  0  0
  191.2160  177.0220  145.8260 C   0  0  0  0  0  3  0  0  0  0  0  0
  189.1800  176.7960  143.5490 C   0  0  2  0  0  3  0  0  0  0  0  0
  190.2870  175.9450  143.0260 C   0  0  0  0  0  3  0  0  0  0  0  0
  187.1910  178.1350  147.7240 C   0  0  0  0  0  2  0  0  0  0  0  0
  187.9870  177.1260  148.3890 N   0  0  0  0  0  2  0  0  0  0  0  0
  187.7420  178.2230  146.3350 C   0  0  0  0  0  2  0  0  0  0  0  0
  188.7850  177.2140  146.2670 N   0  0  2  0  0  0  0  0  0  0  0  0
  189.1450  176.9650  147.6060 N   0  0  0  0  0  2  0  0  0  0  0  0
  188.6730  178.1760  141.4860 C   0  0  0  0  0  2  0  0  0  0  0  0
  191.7890  177.0560  138.8930 C   0  0  0  0  0  2  0  0  0  0  0  0
  191.4280  176.5680  137.5620 N   0  0  0  0  0  0  0  0  0  0  0  0
  189.3490  177.1240  139.3350 C   0  0  0  0  0  0  0  0  0  0  0  0
  192.3930  175.9230  136.7080 C   0  0  0  0  0  0  0  0  0  0  0  0
  190.1590  177.0280  136.9970 C   0  0  0  0  0  2  0  0  0  0  0  0
  189.0070  176.6950  137.9420 C   0  0  0  0  0  2  0  0  0  0  0  0
  192.2190  175.9270  135.4600 O   0  0  0  0  0  0  0  0  0  0  0  0
  188.4300  177.7590  140.0690 C   0  0  0  0  0  3  0  0  0  0  0  0
  190.6860  176.7240  139.8950 C   0  0  0  0  0  2  0  0  0  0  0  0
  193.5810  175.2270  137.2310 C   0  0  0  0  0  3  0  0  0  0  0  0
  194.7830  175.5920  136.9300 N   0  0  0  0  0  2  0  0  0  0  0  0
  2  1  1  1  0  0  0
  3  4  1  0  0  0  0
  4  7  2  0  0  0  0
  5  6  1  0  0  0  0
  6  7  1  6  0  0  0
  6 13  1  0  0  0  0
  8  2  1  6  0  0  0
  8  5  1  0  0  0  0
  9  8  1  0  0  0  0
  9  3  2  0  0  0  0
 10 11  1  0  0  0  0
 12 10  1  0  0  0  0
 13 12  1  1  0  0  0
 13 14  1  0  0  0  0
 14 11  1  0  0  0  0
 15  2  1  0  0  0  0
 16 24  1  0  0  0  0
 17 16  1  0  0  0  0
 18 24  1  0  0  0  0
 18 23  2  0  0  0  0
 19 25  1  0  0  0  0
 19 17  1  0  0  0  0
 20 17  1  0  0  0  0
 20 21  1  0  0  0  0
 21 18  1  0  0  0  0
 22 19  2  0  0  0  0
 23 15  1  0  0  0  0
 26 25  2  0  0  0  0
M  END
>  <MODEL>
8

>  <REMARK>
 VINA RESULT:      -7.3      4.032      6.012
  Name = 
  5 active torsions:
  status: ('A' for Active; 'I' for Inactive)
    1  A    between atoms: C_2  and  C_15
    2  A    between atoms: C_6  and  C_14
    3  A    between atoms: C_6  and  C_25
    4  A    between atoms: C_10  and  N_22
    5  A    between atoms: C_14  and  C_17
                            x       y       z     vdW  Elec       q    Type
                         _______ _______ _______ _____ _____    ______ ____

>  <TORSDO>
F 5

$$$$
=
 OpenBabel11062417013D

 26 28  0  0  1  0  0  0  0  0999 V2000
  188.9390  178.1760  141.1890 O   0  0  0  0  0  1  0  0  0  0  0  0
  190.1740  177.5810  141.4500 C   0  0  2  0  0  3  0  0  0  0  0  0
  193.2960  177.1300  139.4020 C   0  0  0  0  0  3  0  0  0  0  0  0
  193.0730  176.5190  138.0750 C   0  0  0  0  0  3  0  0  0  0  0  0
  190.5680  175.9990  139.5980 N   0  0  0  0  0  2  0  0  0  0  0  0
  190.5490  176.0600  138.1320 C   0  0  2  0  0  3  0  0  0  0  0  0
  191.9370  176.0570  137.5390 C   0  0  0  0  0  3  0  0  0  0  0  0
  190.9080  177.3140  140.1350 C   0  0  2  0  0  3  0  0  0  0  0  0
  192.3820  177.4570  140.3150 C   0  0  0  0  0  3  0  0  0  0  0  0
  187.6030  177.2230  136.6240 C   0  0  0  0  0  2  0  0  0  0  0  0
  188.6250  177.6770  135.7070 N   0  0  0  0  0  2  0  0  0  0  0  0
  188.3300  176.8510  137.8780 C   0  0  0  0  0  2  0  0  0  0  0  0
  189.7250  177.1700  137.6260 N   0  0  2  0  0  0  0  0  0  0  0  0
  189.8470  177.2060  136.2230 N   0  0  0  0  0  2  0  0  0  0  0  0
  189.9790  176.3090  142.2670 C   0  0  0  0  0  2  0  0  0  0  0  0
  186.7560  178.0510  144.3330 C   0  0  0  0  0  2  0  0  0  0  0  0
  186.8820  178.2160  145.7810 N   0  0  0  0  0  0  0  0  0  0  0  0
  188.9440  176.8870  144.4540 C   0  0  0  0  0  0  0  0  0  0  0  0
  185.7490  178.5550  146.6020 C   0  0  0  0  0  0  0  0  0  0  0  0
  188.2340  178.3400  146.3300 C   0  0  0  0  0  2  0  0  0  0  0  0
  189.0820  177.1370  145.9250 C   0  0  0  0  0  2  0  0  0  0  0  0
  185.9330  179.1270  147.7100 O   0  0  0  0  0  0  0  0  0  0  0  0
  190.0350  176.6190  143.7300 C   0  0  0  0  0  3  0  0  0  0  0  0
  187.5600  176.8390  143.8670 C   0  0  0  0  0  2  0  0  0  0  0  0
  184.3620  178.2430  146.2170 C   0  0  0  0  0  3  0  0  0  0  0  0
  183.6560  179.0330  145.4770 N   0  0  0  0  0  2  0  0  0  0  0  0
  2  1  1  6  0  0  0
  2 15  1  0  0  0  0
  3  9  2  0  0  0  0
  4  3  1  0  0  0  0
  5  8  1  0  0  0  0
  6  7  1  1  0  0  0
  6  5  1  0  0  0  0
  7  4  2  0  0  0  0
  8  9  1  0  0  0  0
  8  2  1  1  0  0  0
 10 12  1  0  0  0  0
 11 14  1  0  0  0  0
 11 10  1  0  0  0  0
 13 12  1  6  0  0  0
 13  6  1  0  0  0  0
 14 13  1  0  0  0  0
 15 23  1  0  0  0  0
 16 17  1  0  0  0  0
 17 20  1  0  0  0  0
 17 19  1  0  0  0  0
 18 21  1  0  0  0  0
 19 22  2  0  0  0  0
 21 20  1  0  0  0  0
 23 18  2  0  0  0  0
 24 16  1  0  0  0  0
 24 18  1  0  0  0  0
 25 19  1  0  0  0  0
 26 25  2  0  0  0  0
M  END
>  <MODEL>
9

>  <REMARK>
 VINA RESULT:      -7.2      3.262      7.689
  Name = 
  5 active torsions:
  status: ('A' for Active; 'I' for Inactive)
    1  A    between atoms: C_2  and  C_15
    2  A    between atoms: C_6  and  C_14
    3  A    between atoms: C_6  and  C_25
    4  A    between atoms: C_10  and  N_22
    5  A    between atoms: C_14  and  C_17
                            x       y       z     vdW  Elec       q    Type
                         _______ _______ _______ _____ _____    ______ ____

>  <TORSDO>
F 5

$$$$
