=
 OpenBabel11062416013D

 36 37  0  0  1  0  0  0  0  0999 V2000
  190.3690  177.2950  142.4810 C   0  0  1  0  0  0  0  0  0  0  0  0
  189.6530  178.4990  142.4440 O   0  0  0  0  0  1  0  0  0  0  0  0
  191.3670  177.3450  143.6470 C   0  0  1  0  0  3  0  0  0  0  0  0
  191.6850  178.7790  144.0530 C   0  0  0  0  0  1  0  0  0  0  0  0
  190.8640  176.6230  144.7630 O   0  0  0  0  0  0  0  0  0  0  0  0
  192.5170  175.9350  148.0330 C   0  0  0  0  0  1  0  0  0  0  0  0
  191.5520  176.4610  147.0240 C   0  0  0  0  0  0  0  0  0  0  0  0
  191.7280  176.1420  145.7460 C   0  0  0  0  0  3  0  0  0  0  0  0
  190.7020  177.9130  148.6940 O   0  0  0  0  0  1  0  0  0  0  0  0
  190.4280  177.3540  147.4460 C   0  0  2  0  0  3  0  0  0  0  0  0
  189.1170  176.5910  147.4960 C   0  0  0  0  0  1  0  0  0  0  0  0
  189.4520  176.1620  142.6690 N   0  0  0  0  0  2  0  0  0  0  0  0
  188.0690  176.6170  142.7820 C   0  0  0  0  0  2  0  0  0  0  0  0
  187.6260  176.4790  144.1280 O   0  0  0  0  0  0  0  0  0  0  0  0
  186.5010  177.1330  144.5930 N   0  0  0  0  0  0  0  0  0  0  0  0
  186.5110  178.3820  144.8330 N   0  0  0  0  0  0  0  0  0  0  0  0
  185.6700  179.9430  146.3240 F   0  0  0  0  0  0  0  0  0  0  0  0
  185.3190  179.0590  145.3200 C   0  0  0  0  0  0  0  0  0  0  0  0
  184.4210  178.1330  145.8260 F   0  0  0  0  0  0  0  0  0  0  0  0
  184.7150  179.7940  144.2590 O   0  0  0  0  0  0  0  0  0  0  0  0
  184.5270  179.2850  142.9700 C   0  0  0  0  0  0  0  0  0  0  0  0
  183.6190  178.2170  141.1140 N   0  0  0  0  0  0  0  0  0  0  0  0
  183.4090  178.4210  142.5460 C   0  0  0  0  0  3  0  0  0  0  0  0
  185.3370  179.5510  142.0170 N   0  0  0  0  0  0  0  0  0  0  0  0
  184.6870  179.8650  139.7560 N   0  0  0  0  0  1  0  0  0  0  0  0
  184.8890  178.8850  140.8070 C   0  0  2  0  0  3  0  0  0  0  0  0
  191.1420  177.1300  141.1680 C   0  0  0  0  0  2  0  0  0  0  0  0
  190.3050  176.6520  140.1560 O   0  0  0  0  0  0  0  0  0  0  0  0
  190.9940  177.0940  138.0200 O   0  0  0  0  0  0  0  0  0  0  0  0
  189.5970  177.2210  137.9560 C   0  0  1  0  0  0  0  0  0  0  0  0
  190.3610  177.6280  139.1630 C   0  0  1  0  0  3  0  0  0  0  0  0
  188.9680  179.5900  137.4740 O   0  0  0  0  0  1  0  0  0  0  0  0
  189.1870  178.3000  137.0090 C   0  0  0  0  0  0  0  0  0  0  0  0
  189.0800  178.0520  135.7800 O   0  0  0  0  0  0  0  0  0  0  0  0
  189.7840  174.9140  137.3570 O   0  0  0  0  0  1  0  0  0  0  0  0
  188.9090  175.8620  137.8910 C   0  0  0  0  0  2  0  0  0  0  0  0
  1  2  1  6  0  0  0
  1 12  1  0  0  0  0
  1  3  1  0  0  0  0
  3  4  1  1  0  0  0
  3  5  1  0  0  0  0
  5  8  1  0  0  0  0
  7 10  1  0  0  0  0
  7  6  1  0  0  0  0
  8  7  2  0  0  0  0
 10 11  1  1  0  0  0
 10  9  1  0  0  0  0
 12 13  1  0  0  0  0
 13 14  1  0  0  0  0
 14 15  1  0  0  0  0
 15 16  2  0  0  0  0
 16 18  1  0  0  0  0
 18 19  1  0  0  0  0
 18 17  1  0  0  0  0
 20 18  1  0  0  0  0
 21 20  1  0  0  0  0
 22 23  2  0  0  0  0
 23 21  1  0  0  0  0
 24 21  2  0  0  0  0
 26 25  1  6  0  0  0
 26 22  1  0  0  0  0
 26 24  1  0  0  0  0
 27  1  1  0  0  0  0
 28 27  1  0  0  0  0
 29 31  1  0  0  0  0
 30 36  1  1  0  0  0
 30 29  1  0  0  0  0
 30 31  1  0  0  0  0
 31 28  1  1  0  0  0
 33 32  1  0  0  0  0
 33 30  1  0  0  0  0
 34 33  2  0  0  0  0
 35 36  1  0  0  0  0
M  END
>  <MODEL>
1

>  <REMARK>
 VINA RESULT:      -7.1      0.000      0.000
  Name = 
  16 active torsions:
  status: ('A' for Active; 'I' for Inactive)
    1  A    between atoms: C_5  and  C_25
    2  A    between atoms: C_6  and  C_22
    3  A    between atoms: C_7  and  O_9
    4  A    between atoms: O_9  and  C_20
    5  A    between atoms: O_10  and  C_23
    6  A    between atoms: O_10  and  C_33
    7  A    between atoms: C_11  and  N_15
    8  A    between atoms: C_11  and  O_17
    9  A    between atoms: O_13  and  C_14
   10  A    between atoms: O_13  and  C_36
   11  A    between atoms: C_14  and  C_27
   12  A    between atoms: N_15  and  C_27
   13  A    between atoms: O_17  and  N_21
   14  A    between atoms: C_20  and  N_35
   15  A    between atoms: C_23  and  C_27
   16  A    between atoms: C_24  and  C_25
                            x       y       z     vdW  Elec       q    Type
                         _______ _______ _______ _____ _____    ______ ____

>  <TORSDO>
F 16

$$$$
=
 OpenBabel11062416013D

 36 37  0  0  1  0  0  0  0  0999 V2000
  189.8510  176.9720  141.9540 C   0  0  1  0  0  0  0  0  0  0  0  0
  189.8830  175.6070  142.2650 O   0  0  0  0  0  1  0  0  0  0  0  0
  190.7590  177.2270  140.7420 C   0  0  1  0  0  3  0  0  0  0  0  0
  192.1710  177.6070  141.1680 C   0  0  0  0  0  1  0  0  0  0  0  0
  190.7950  176.0850  139.8980 O   0  0  0  0  0  0  0  0  0  0  0  0
  190.8700  176.1480  136.1710 C   0  0  0  0  0  1  0  0  0  0  0  0
  191.3180  176.0170  137.5890 C   0  0  0  0  0  0  0  0  0  0  0  0
  190.4230  176.1790  138.5570 C   0  0  0  0  0  3  0  0  0  0  0  0
  193.5470  176.8220  137.5240 O   0  0  0  0  0  1  0  0  0  0  0  0
  192.7540  175.7400  137.9060 C   0  0  2  0  0  3  0  0  0  0  0  0
  193.2300  174.4780  137.2110 C   0  0  0  0  0  1  0  0  0  0  0  0
  188.4790  177.3900  141.6340 N   0  0  0  0  0  2  0  0  0  0  0  0
  188.4620  178.7090  141.0090 C   0  0  0  0  0  2  0  0  0  0  0  0
  187.2460  178.8860  140.2920 O   0  0  0  0  0  0  0  0  0  0  0  0
  186.0360  178.4460  140.7920 N   0  0  0  0  0  0  0  0  0  0  0  0
  185.2220  179.2420  141.3590 N   0  0  0  0  0  0  0  0  0  0  0  0
  183.9400  177.3830  141.8770 F   0  0  0  0  0  0  0  0  0  0  0  0
  183.9500  178.7650  141.8790 C   0  0  0  0  0  0  0  0  0  0  0  0
  182.9110  179.2260  141.0860 F   0  0  0  0  0  0  0  0  0  0  0  0
  183.7770  179.2190  143.2190 O   0  0  0  0  0  0  0  0  0  0  0  0
  184.5450  178.7690  144.2980 C   0  0  0  0  0  0  0  0  0  0  0  0
  186.2510  177.8350  145.5730 N   0  0  0  0  0  0  0  0  0  0  0  0
  185.8030  178.0060  144.1930 C   0  0  0  0  0  3  0  0  0  0  0  0
  184.2080  179.0050  145.5090 N   0  0  0  0  0  0  0  0  0  0  0  0
  185.7440  179.4410  147.2650 N   0  0  0  0  0  1  0  0  0  0  0  0
  185.1880  178.4140  146.4020 C   0  0  2  0  0  3  0  0  0  0  0  0
  190.3760  177.7740  143.1490 C   0  0  0  0  0  2  0  0  0  0  0  0
  189.9840  177.1840  144.3540 O   0  0  0  0  0  0  0  0  0  0  0  0
  191.3590  178.0100  145.9850 O   0  0  0  0  0  0  0  0  0  0  0  0
  190.9330  176.7740  146.4980 C   0  0  1  0  0  0  0  0  0  0  0  0
  191.1750  176.9720  145.0460 C   0  0  1  0  0  3  0  0  0  0  0  0
  192.5460  174.9020  146.8560 O   0  0  0  0  0  0  0  0  0  0  0  0
  192.0090  176.1070  147.2880 C   0  0  0  0  0  0  0  0  0  0  0  0
  192.4620  176.6570  148.3250 O   0  0  0  0  0  1  0  0  0  0  0  0
  189.3260  178.1070  147.6650 O   0  0  0  0  0  1  0  0  0  0  0  0
  189.5220  176.8590  147.0710 C   0  0  0  0  0  2  0  0  0  0  0  0
  1  2  1  1  0  0  0
  1 27  1  0  0  0  0
  3  4  1  1  0  0  0
  3  1  1  0  0  0  0
  5  3  1  0  0  0  0
  6  7  1  0  0  0  0
  7 10  1  0  0  0  0
  7  8  2  0  0  0  0
  8  5  1  0  0  0  0
  9 10  1  0  0  0  0
 10 11  1  6  0  0  0
 12  1  1  0  0  0  0
 13 12  1  0  0  0  0
 14 15  1  0  0  0  0
 14 13  1  0  0  0  0
 15 16  2  0  0  0  0
 16 18  1  0  0  0  0
 17 18  1  0  0  0  0
 18 20  1  0  0  0  0
 19 18  1  0  0  0  0
 20 21  1  0  0  0  0
 21 24  2  0  0  0  0
 22 26  1  0  0  0  0
 23 21  1  0  0  0  0
 23 22  2  0  0  0  0
 24 26  1  0  0  0  0
 26 25  1  1  0  0  0
 27 28  1  0  0  0  0
 29 30  1  0  0  0  0
 30 36  1  1  0  0  0
 30 33  1  0  0  0  0
 31 28  1  6  0  0  0
 31 29  1  0  0  0  0
 31 30  1  0  0  0  0
 32 33  2  0  0  0  0
 33 34  1  0  0  0  0
 36 35  1  0  0  0  0
M  END
>  <MODEL>
2

>  <REMARK>
 VINA RESULT:      -7.0      2.225      7.042
  Name = 
  16 active torsions:
  status: ('A' for Active; 'I' for Inactive)
    1  A    between atoms: C_5  and  C_25
    2  A    between atoms: C_6  and  C_22
    3  A    between atoms: C_7  and  O_9
    4  A    between atoms: O_9  and  C_20
    5  A    between atoms: O_10  and  C_23
    6  A    between atoms: O_10  and  C_33
    7  A    between atoms: C_11  and  N_15
    8  A    between atoms: C_11  and  O_17
    9  A    between atoms: O_13  and  C_14
   10  A    between atoms: O_13  and  C_36
   11  A    between atoms: C_14  and  C_27
   12  A    between atoms: N_15  and  C_27
   13  A    between atoms: O_17  and  N_21
   14  A    between atoms: C_20  and  N_35
   15  A    between atoms: C_23  and  C_27
   16  A    between atoms: C_24  and  C_25
                            x       y       z     vdW  Elec       q    Type
                         _______ _______ _______ _____ _____    ______ ____

>  <TORSDO>
F 16

$$$$
=
 OpenBabel11062416013D

 36 37  0  0  1  0  0  0  0  0999 V2000
  190.6250  177.0190  142.5030 C   0  0  1  0  0  0  0  0  0  0  0  0
  190.2440  175.6720  142.4650 O   0  0  0  0  0  1  0  0  0  0  0  0
  190.6980  177.4740  143.9680 C   0  0  1  0  0  3  0  0  0  0  0  0
  190.8390  178.9870  144.0800 C   0  0  0  0  0  1  0  0  0  0  0  0
  189.5490  177.0380  144.6820 O   0  0  0  0  0  0  0  0  0  0  0  0
  187.9970  178.0290  147.9240 C   0  0  0  0  0  1  0  0  0  0  0  0
  188.1420  177.6250  146.4940 C   0  0  0  0  0  0  0  0  0  0  0  0
  189.3610  177.4000  146.0160 C   0  0  0  0  0  3  0  0  0  0  0  0
  187.1460  178.1960  144.4200 O   0  0  0  0  0  1  0  0  0  0  0  0
  186.9360  177.5090  145.6160 C   0  0  2  0  0  3  0  0  0  0  0  0
  185.7010  178.0490  146.3130 C   0  0  0  0  0  1  0  0  0  0  0  0
  191.9400  177.1950  141.8700 N   0  0  0  0  0  2  0  0  0  0  0  0
  191.8020  177.5680  140.4650 C   0  0  0  0  0  2  0  0  0  0  0  0
  192.9720  177.1900  139.7490 O   0  0  0  0  0  0  0  0  0  0  0  0
  192.9020  176.5870  138.5090 N   0  0  0  0  0  0  0  0  0  0  0  0
  193.8750  176.6360  137.6910 N   0  0  0  0  0  0  0  0  0  0  0  0
  194.2060  176.8800  135.4100 F   0  0  0  0  0  0  0  0  0  0  0  0
  193.7890  175.9950  136.3870 C   0  0  0  0  0  0  0  0  0  0  0  0
  192.4800  175.6190  136.1300 F   0  0  0  0  0  0  0  0  0  0  0  0
  194.6390  174.8510  136.3570 O   0  0  0  0  0  0  0  0  0  0  0  0
  195.9990  174.8830  136.6810 C   0  0  0  0  0  0  0  0  0  0  0  0
  198.2960  175.2330  136.5900 N   0  0  0  0  0  0  0  0  0  0  0  0
  197.0830  175.3110  135.7780 C   0  0  0  0  0  3  0  0  0  0  0  0
  196.4230  174.5420  137.8390 N   0  0  0  0  0  0  0  0  0  0  0  0
  198.2480  175.5720  138.9520 N   0  0  0  0  0  1  0  0  0  0  0  0
  197.8680  174.6740  137.8770 C   0  0  2  0  0  3  0  0  0  0  0  0
  189.5750  177.8600  141.7700 C   0  0  0  0  0  2  0  0  0  0  0  0
  188.8590  177.0770  140.8610 O   0  0  0  0  0  0  0  0  0  0  0  0
  188.8850  178.7480  139.2970 O   0  0  0  0  0  0  0  0  0  0  0  0
  188.1160  177.7370  138.6980 C   0  0  1  0  0  0  0  0  0  0  0  0
  188.0670  177.9870  140.1610 C   0  0  1  0  0  3  0  0  0  0  0  0
  187.2620  179.3690  137.0110 O   0  0  0  0  0  0  0  0  0  0  0  0
  187.0130  178.3050  137.8680 C   0  0  0  0  0  0  0  0  0  0  0  0
  185.8640  177.7950  137.9120 O   0  0  0  0  0  1  0  0  0  0  0  0
  189.7790  177.1320  137.0900 O   0  0  0  0  0  1  0  0  0  0  0  0
  188.9910  176.6270  138.1250 C   0  0  0  0  0  2  0  0  0  0  0  0
  1  2  1  6  0  0  0
  1  3  1  0  0  0  0
  3  4  1  6  0  0  0
  3  5  1  0  0  0  0
  5  8  1  0  0  0  0
  7  6  1  0  0  0  0
  8  7  2  0  0  0  0
  9 10  1  0  0  0  0
 10 11  1  1  0  0  0
 10  7  1  0  0  0  0
 12  1  1  0  0  0  0
 13 12  1  0  0  0  0
 14 13  1  0  0  0  0
 15 14  1  0  0  0  0
 16 15  2  0  0  0  0
 17 18  1  0  0  0  0
 18 16  1  0  0  0  0
 19 18  1  0  0  0  0
 20 18  1  0  0  0  0
 20 21  1  0  0  0  0
 21 24  2  0  0  0  0
 22 26  1  0  0  0  0
 23 22  2  0  0  0  0
 23 21  1  0  0  0  0
 24 26  1  0  0  0  0
 26 25  1  1  0  0  0
 27  1  1  0  0  0  0
 28 27  1  0  0  0  0
 29 31  1  0  0  0  0
 30 36  1  6  0  0  0
 30 29  1  0  0  0  0
 30 31  1  0  0  0  0
 31 28  1  1  0  0  0
 32 33  2  0  0  0  0
 33 34  1  0  0  0  0
 33 30  1  0  0  0  0
 35 36  1  0  0  0  0
M  END
>  <MODEL>
3

>  <REMARK>
 VINA RESULT:      -6.9      5.330      8.147
  Name = 
  16 active torsions:
  status: ('A' for Active; 'I' for Inactive)
    1  A    between atoms: C_5  and  C_25
    2  A    between atoms: C_6  and  C_22
    3  A    between atoms: C_7  and  O_9
    4  A    between atoms: O_9  and  C_20
    5  A    between atoms: O_10  and  C_23
    6  A    between atoms: O_10  and  C_33
    7  A    between atoms: C_11  and  N_15
    8  A    between atoms: C_11  and  O_17
    9  A    between atoms: O_13  and  C_14
   10  A    between atoms: O_13  and  C_36
   11  A    between atoms: C_14  and  C_27
   12  A    between atoms: N_15  and  C_27
   13  A    between atoms: O_17  and  N_21
   14  A    between atoms: C_20  and  N_35
   15  A    between atoms: C_23  and  C_27
   16  A    between atoms: C_24  and  C_25
                            x       y       z     vdW  Elec       q    Type
                         _______ _______ _______ _____ _____    ______ ____

>  <TORSDO>
F 16

$$$$
=
 OpenBabel11062416013D

 36 37  0  0  1  0  0  0  0  0999 V2000
  189.6520  177.4770  142.1150 C   0  0  1  0  0  0  0  0  0  0  0  0
  189.7170  178.7780  142.6290 O   0  0  0  0  0  1  0  0  0  0  0  0
  189.6650  176.4790  143.2830 C   0  0  1  0  0  3  0  0  0  0  0  0
  191.0010  175.7550  143.3880 C   0  0  0  0  0  1  0  0  0  0  0  0
  189.3720  177.1410  144.5060 O   0  0  0  0  0  0  0  0  0  0  0  0
  186.3180  177.8290  146.5300 C   0  0  0  0  0  1  0  0  0  0  0  0
  187.7490  177.6170  146.1640 C   0  0  0  0  0  0  0  0  0  0  0  0
  188.0510  177.3630  144.8950 C   0  0  0  0  0  3  0  0  0  0  0  0
  189.2740  176.3720  147.4850 O   0  0  0  0  0  1  0  0  0  0  0  0
  188.8130  177.6610  147.2150 C   0  0  2  0  0  3  0  0  0  0  0  0
  188.2930  178.3020  148.4880 C   0  0  0  0  0  1  0  0  0  0  0  0
  188.4210  177.2990  141.3320 N   0  0  0  0  0  2  0  0  0  0  0  0
  187.6330  178.5280  141.3040 C   0  0  0  0  0  2  0  0  0  0  0  0
  187.2400  178.8170  139.9670 O   0  0  0  0  0  0  0  0  0  0  0  0
  185.9520  178.5900  139.5240 N   0  0  0  0  0  0  0  0  0  0  0  0
  185.0390  179.4660  139.6580 N   0  0  0  0  0  0  0  0  0  0  0  0
  183.7360  178.7000  137.9030 F   0  0  0  0  0  0  0  0  0  0  0  0
  183.6860  179.2160  139.1850 C   0  0  0  0  0  0  0  0  0  0  0  0
  182.9640  180.3980  139.1690 F   0  0  0  0  0  0  0  0  0  0  0  0
  183.0470  178.2660  140.0330 O   0  0  0  0  0  0  0  0  0  0  0  0
  182.4550  178.5910  141.2580 C   0  0  0  0  0  0  0  0  0  0  0  0
  182.1380  179.1540  143.4920 N   0  0  0  0  0  0  0  0  0  0  0  0
  183.1690  178.7520  142.5370 C   0  0  0  0  0  3  0  0  0  0  0  0
  181.1960  178.7960  141.3630 N   0  0  0  0  0  0  0  0  0  0  0  0
  180.2180  180.4000  142.8130 N   0  0  0  0  0  1  0  0  0  0  0  0
  180.8760  179.1080  142.7440 C   0  0  2  0  0  3  0  0  0  0  0  0
  190.8760  177.2240  141.2290 C   0  0  0  0  0  2  0  0  0  0  0  0
  190.4980  177.0620  139.8940 O   0  0  0  0  0  0  0  0  0  0  0  0
  190.8580  175.1870  138.6330 O   0  0  0  0  0  0  0  0  0  0  0  0
  191.4160  176.2220  137.8640 C   0  0  1  0  0  0  0  0  0  0  0  0
  191.4780  176.2340  139.3480 C   0  0  1  0  0  3  0  0  0  0  0  0
  192.8720  174.4100  136.9520 O   0  0  0  0  0  1  0  0  0  0  0  0
  192.6330  175.7660  137.1310 C   0  0  0  0  0  0  0  0  0  0  0  0
  193.4240  176.6100  136.6360 O   0  0  0  0  0  0  0  0  0  0  0  0
  189.4210  176.1380  136.5490 O   0  0  0  0  0  1  0  0  0  0  0  0
  190.3440  177.0130  137.1230 C   0  0  0  0  0  2  0  0  0  0  0  0
  1  2  1  1  0  0  0
  1  3  1  0  0  0  0
  3  4  1  1  0  0  0
  3  5  1  0  0  0  0
  5  8  1  0  0  0  0
  7  6  1  0  0  0  0
  7 10  1  0  0  0  0
  8  7  2  0  0  0  0
 10  9  1  0  0  0  0
 10 11  1  1  0  0  0
 12  1  1  0  0  0  0
 13 12  1  0  0  0  0
 14 13  1  0  0  0  0
 15 16  2  0  0  0  0
 15 14  1  0  0  0  0
 17 18  1  0  0  0  0
 18 16  1  0  0  0  0
 18 20  1  0  0  0  0
 19 18  1  0  0  0  0
 20 21  1  0  0  0  0
 21 24  2  0  0  0  0
 21 23  1  0  0  0  0
 23 22  2  0  0  0  0
 24 26  1  0  0  0  0
 26 25  1  6  0  0  0
 26 22  1  0  0  0  0
 27  1  1  0  0  0  0
 28 27  1  0  0  0  0
 29 31  1  0  0  0  0
 30 36  1  6  0  0  0
 30 29  1  0  0  0  0
 30 31  1  0  0  0  0
 31 28  1  1  0  0  0
 32 33  1  0  0  0  0
 33 30  1  0  0  0  0
 34 33  2  0  0  0  0
 35 36  1  0  0  0  0
M  END
>  <MODEL>
4

>  <REMARK>
 VINA RESULT:      -6.7      2.828      3.994
  Name = 
  16 active torsions:
  status: ('A' for Active; 'I' for Inactive)
    1  A    between atoms: C_5  and  C_25
    2  A    between atoms: C_6  and  C_22
    3  A    between atoms: C_7  and  O_9
    4  A    between atoms: O_9  and  C_20
    5  A    between atoms: O_10  and  C_23
    6  A    between atoms: O_10  and  C_33
    7  A    between atoms: C_11  and  N_15
    8  A    between atoms: C_11  and  O_17
    9  A    between atoms: O_13  and  C_14
   10  A    between atoms: O_13  and  C_36
   11  A    between atoms: C_14  and  C_27
   12  A    between atoms: N_15  and  C_27
   13  A    between atoms: O_17  and  N_21
   14  A    between atoms: C_20  and  N_35
   15  A    between atoms: C_23  and  C_27
   16  A    between atoms: C_24  and  C_25
                            x       y       z     vdW  Elec       q    Type
                         _______ _______ _______ _____ _____    ______ ____

>  <TORSDO>
F 16

$$$$
=
 OpenBabel11062416013D

 36 37  0  0  1  0  0  0  0  0999 V2000
  183.7670  178.5900  139.5510 C   0  0  1  0  0  0  0  0  0  0  0  0
  183.4590  177.3240  140.0640 O   0  0  0  0  0  1  0  0  0  0  0  0
  182.4630  179.2940  139.1460 C   0  0  1  0  0  3  0  0  0  0  0  0
  182.0840  178.9880  137.7030 C   0  0  0  0  0  1  0  0  0  0  0  0
  181.4040  178.9190  140.0180 O   0  0  0  0  0  0  0  0  0  0  0  0
  179.1570  180.6790  142.4150 C   0  0  0  0  0  1  0  0  0  0  0  0
  179.9860  179.6110  141.7840 C   0  0  0  0  0  0  0  0  0  0  0  0
  180.6310  179.8880  140.6550 C   0  0  0  0  0  3  0  0  0  0  0  0
  179.0260  177.4480  141.9140 O   0  0  0  0  0  1  0  0  0  0  0  0
  180.0600  178.2490  142.3980 C   0  0  2  0  0  3  0  0  0  0  0  0
  179.9870  178.3300  143.9110 C   0  0  0  0  0  1  0  0  0  0  0  0
  184.4640  179.3950  140.5640 N   0  0  0  0  0  2  0  0  0  0  0  0
  184.9150  178.5650  141.6770 C   0  0  0  0  0  2  0  0  0  0  0  0
  184.6960  179.2470  142.9060 O   0  0  0  0  0  0  0  0  0  0  0  0
  184.8660  178.6200  144.1250 N   0  0  0  0  0  0  0  0  0  0  0  0
  185.3270  179.2430  145.1340 N   0  0  0  0  0  0  0  0  0  0  0  0
  184.2660  178.1560  146.8840 F   0  0  0  0  0  0  0  0  0  0  0  0
  185.4980  178.5710  146.4130 C   0  0  0  0  0  0  0  0  0  0  0  0
  186.0640  179.4410  147.3330 F   0  0  0  0  0  0  0  0  0  0  0  0
  186.3320  177.4270  146.2490 O   0  0  0  0  0  0  0  0  0  0  0  0
  187.7280  177.4650  146.3250 C   0  0  0  0  0  0  0  0  0  0  0  0
  189.9180  177.2500  147.0770 N   0  0  0  0  0  0  0  0  0  0  0  0
  188.5290  177.1220  147.5150 C   0  0  0  0  0  3  0  0  0  0  0  0
  188.4470  177.8010  145.3220 N   0  0  0  0  0  0  0  0  0  0  0  0
  190.5610  176.8500  144.8130 N   0  0  0  0  0  1  0  0  0  0  0  0
  189.8480  177.7510  145.7000 C   0  0  2  0  0  3  0  0  0  0  0  0
  184.6530  178.4290  138.3110 C   0  0  0  0  0  2  0  0  0  0  0  0
  185.9980  178.6270  138.6330 O   0  0  0  0  0  0  0  0  0  0  0  0
  187.7270  179.0740  137.2030 O   0  0  0  0  0  0  0  0  0  0  0  0
  188.1210  177.8900  137.8490 C   0  0  1  0  0  0  0  0  0  0  0  0
  186.6980  178.1620  137.5210 C   0  0  1  0  0  3  0  0  0  0  0  0
  188.8550  175.6150  137.1270 O   0  0  0  0  0  1  0  0  0  0  0  0
  188.8760  176.9890  136.9300 C   0  0  0  0  0  0  0  0  0  0  0  0
  189.4990  177.4690  135.9470 O   0  0  0  0  0  0  0  0  0  0  0  0
  190.0530  178.0200  139.2510 O   0  0  0  0  0  1  0  0  0  0  0  0
  188.6650  178.1650  139.2470 C   0  0  0  0  0  2  0  0  0  0  0  0
  1  2  1  1  0  0  0
  1 12  1  0  0  0  0
  3  4  1  6  0  0  0
  3  1  1  0  0  0  0
  3  5  1  0  0  0  0
  5  8  1  0  0  0  0
  7 10  1  0  0  0  0
  7  6  1  0  0  0  0
  8  7  2  0  0  0  0
  9 10  1  0  0  0  0
 10 11  1  1  0  0  0
 12 13  1  0  0  0  0
 13 14  1  0  0  0  0
 14 15  1  0  0  0  0
 15 16  2  0  0  0  0
 16 18  1  0  0  0  0
 18 17  1  0  0  0  0
 18 19  1  0  0  0  0
 20 21  1  0  0  0  0
 20 18  1  0  0  0  0
 21 23  1  0  0  0  0
 22 23  2  0  0  0  0
 24 26  1  0  0  0  0
 24 21  2  0  0  0  0
 26 25  1  6  0  0  0
 26 22  1  0  0  0  0
 27 28  1  0  0  0  0
 27  1  1  0  0  0  0
 29 31  1  0  0  0  0
 29 30  1  0  0  0  0
 30 36  1  1  0  0  0
 31 30  1  0  0  0  0
 31 28  1  1  0  0  0
 33 32  1  0  0  0  0
 33 30  1  0  0  0  0
 34 33  2  0  0  0  0
 36 35  1  0  0  0  0
M  END
>  <MODEL>
5

>  <REMARK>
 VINA RESULT:      -6.7      2.875      7.428
  Name = 
  16 active torsions:
  status: ('A' for Active; 'I' for Inactive)
    1  A    between atoms: C_5  and  C_25
    2  A    between atoms: C_6  and  C_22
    3  A    between atoms: C_7  and  O_9
    4  A    between atoms: O_9  and  C_20
    5  A    between atoms: O_10  and  C_23
    6  A    between atoms: O_10  and  C_33
    7  A    between atoms: C_11  and  N_15
    8  A    between atoms: C_11  and  O_17
    9  A    between atoms: O_13  and  C_14
   10  A    between atoms: O_13  and  C_36
   11  A    between atoms: C_14  and  C_27
   12  A    between atoms: N_15  and  C_27
   13  A    between atoms: O_17  and  N_21
   14  A    between atoms: C_20  and  N_35
   15  A    between atoms: C_23  and  C_27
   16  A    between atoms: C_24  and  C_25
                            x       y       z     vdW  Elec       q    Type
                         _______ _______ _______ _____ _____    ______ ____

>  <TORSDO>
F 16

$$$$
=
 OpenBabel11062416013D

 36 37  0  0  1  0  0  0  0  0999 V2000
  190.0140  177.2320  142.2010 C   0  0  1  0  0  0  0  0  0  0  0  0
  190.2260  175.9460  142.7140 O   0  0  0  0  0  1  0  0  0  0  0  0
  190.8430  177.3990  140.9190 C   0  0  1  0  0  3  0  0  0  0  0  0
  192.3380  177.3360  141.2050 C   0  0  0  0  0  1  0  0  0  0  0  0
  190.4880  176.4090  139.9640 O   0  0  0  0  0  0  0  0  0  0  0  0
  191.6680  176.0640  136.4440 C   0  0  0  0  0  1  0  0  0  0  0  0
  190.7810  176.3290  137.6150 C   0  0  0  0  0  0  0  0  0  0  0  0
  191.2810  176.1900  138.8380 C   0  0  0  0  0  3  0  0  0  0  0  0
  188.7820  175.9290  136.4050 O   0  0  0  0  0  1  0  0  0  0  0  0
  189.3500  176.7140  137.4080 C   0  0  2  0  0  3  0  0  0  0  0  0
  189.2290  178.1830  137.0460 C   0  0  0  0  0  1  0  0  0  0  0  0
  188.5910  177.4300  141.8930 N   0  0  0  0  0  2  0  0  0  0  0  0
  188.3320  178.7980  141.4550 C   0  0  0  0  0  2  0  0  0  0  0  0
  187.7060  178.7850  140.1770 O   0  0  0  0  0  0  0  0  0  0  0  0
  186.3830  178.4220  140.0200 N   0  0  0  0  0  0  0  0  0  0  0  0
  185.4400  179.1200  140.5130 N   0  0  0  0  0  0  0  0  0  0  0  0
  183.9540  177.8240  139.2970 F   0  0  0  0  0  0  0  0  0  0  0  0
  184.0500  178.7290  140.3380 C   0  0  0  0  0  0  0  0  0  0  0  0
  183.2780  179.8420  140.0430 F   0  0  0  0  0  0  0  0  0  0  0  0
  183.5710  178.1060  141.5270 O   0  0  0  0  0  0  0  0  0  0  0  0
  183.8950  178.5410  142.8170 C   0  0  0  0  0  0  0  0  0  0  0  0
  183.7430  179.3510  144.9910 N   0  0  0  0  0  0  0  0  0  0  0  0
  182.9490  179.1280  143.7840 C   0  0  0  0  0  3  0  0  0  0  0  0
  185.0840  178.4460  143.2800 N   0  0  0  0  0  0  0  0  0  0  0  0
  185.6030  177.9610  145.5440 N   0  0  0  0  0  1  0  0  0  0  0  0
  185.1150  178.9780  144.6300 C   0  0  2  0  0  3  0  0  0  0  0  0
  190.4750  178.2670  143.2320 C   0  0  0  0  0  2  0  0  0  0  0  0
  190.8020  177.6510  144.4430 O   0  0  0  0  0  0  0  0  0  0  0  0
  189.0230  176.7030  145.5260 O   0  0  0  0  0  0  0  0  0  0  0  0
  189.8320  177.1870  146.5670 C   0  0  1  0  0  0  0  0  0  0  0  0
  189.7130  177.9080  145.2750 C   0  0  1  0  0  3  0  0  0  0  0  0
  189.4410  178.7870  148.4440 O   0  0  0  0  0  1  0  0  0  0  0  0
  189.0140  177.6880  147.7100 C   0  0  0  0  0  0  0  0  0  0  0  0
  187.9140  177.1430  147.9850 O   0  0  0  0  0  0  0  0  0  0  0  0
  191.9000  176.8750  147.7260 O   0  0  0  0  0  1  0  0  0  0  0  0
  191.0150  176.2630  146.8370 C   0  0  0  0  0  2  0  0  0  0  0  0
  1  2  1  1  0  0  0
  1 27  1  0  0  0  0
  3  4  1  1  0  0  0
  3  1  1  0  0  0  0
  5  3  1  0  0  0  0
  6  7  1  0  0  0  0
  7  8  2  0  0  0  0
  8  5  1  0  0  0  0
  9 10  1  0  0  0  0
 10 11  1  6  0  0  0
 10  7  1  0  0  0  0
 12  1  1  0  0  0  0
 13 12  1  0  0  0  0
 14 13  1  0  0  0  0
 15 14  1  0  0  0  0
 15 16  2  0  0  0  0
 17 18  1  0  0  0  0
 18 16  1  0  0  0  0
 18 20  1  0  0  0  0
 19 18  1  0  0  0  0
 20 21  1  0  0  0  0
 21 24  2  0  0  0  0
 21 23  1  0  0  0  0
 23 22  2  0  0  0  0
 24 26  1  0  0  0  0
 26 22  1  0  0  0  0
 26 25  1  1  0  0  0
 27 28  1  0  0  0  0
 29 30  1  0  0  0  0
 30 36  1  1  0  0  0
 30 33  1  0  0  0  0
 31 28  1  6  0  0  0
 31 29  1  0  0  0  0
 31 30  1  0  0  0  0
 33 34  2  0  0  0  0
 33 32  1  0  0  0  0
 36 35  1  0  0  0  0
M  END
>  <MODEL>
6

>  <REMARK>
 VINA RESULT:      -6.7      2.286      6.993
  Name = 
  16 active torsions:
  status: ('A' for Active; 'I' for Inactive)
    1  A    between atoms: C_5  and  C_25
    2  A    between atoms: C_6  and  C_22
    3  A    between atoms: C_7  and  O_9
    4  A    between atoms: O_9  and  C_20
    5  A    between atoms: O_10  and  C_23
    6  A    between atoms: O_10  and  C_33
    7  A    between atoms: C_11  and  N_15
    8  A    between atoms: C_11  and  O_17
    9  A    between atoms: O_13  and  C_14
   10  A    between atoms: O_13  and  C_36
   11  A    between atoms: C_14  and  C_27
   12  A    between atoms: N_15  and  C_27
   13  A    between atoms: O_17  and  N_21
   14  A    between atoms: C_20  and  N_35
   15  A    between atoms: C_23  and  C_27
   16  A    between atoms: C_24  and  C_25
                            x       y       z     vdW  Elec       q    Type
                         _______ _______ _______ _____ _____    ______ ____

>  <TORSDO>
F 16

$$$$
=
 OpenBabel11062416013D

 36 37  0  0  1  0  0  0  0  0999 V2000
  184.9190  178.9340  143.6660 C   0  0  1  0  0  0  0  0  0  0  0  0
  184.7120  177.6640  143.1130 O   0  0  0  0  0  1  0  0  0  0  0  0
  185.8750  178.8060  144.8610 C   0  0  1  0  0  3  0  0  0  0  0  0
  185.1200  178.5500  146.1590 C   0  0  0  0  0  1  0  0  0  0  0  0
  186.8200  177.7700  144.6340 O   0  0  0  0  0  0  0  0  0  0  0  0
  190.1190  177.2020  146.2740 C   0  0  0  0  0  1  0  0  0  0  0  0
  189.0980  177.5230  145.2340 C   0  0  0  0  0  0  0  0  0  0  0  0
  187.8130  177.4950  145.5740 C   0  0  0  0  0  3  0  0  0  0  0  0
  189.7080  176.6580  143.1130 O   0  0  0  0  0  1  0  0  0  0  0  0
  189.5170  177.8370  143.8330 C   0  0  2  0  0  3  0  0  0  0  0  0
  190.7900  178.6630  143.8200 C   0  0  0  0  0  1  0  0  0  0  0  0
  185.5040  179.8360  142.6640 N   0  0  0  0  0  2  0  0  0  0  0  0
  185.8810  179.1090  141.4560 C   0  0  0  0  0  2  0  0  0  0  0  0
  187.2770  178.8340  141.4770 O   0  0  0  0  0  0  0  0  0  0  0  0
  187.9830  178.5690  140.3180 N   0  0  0  0  0  0  0  0  0  0  0  0
  187.3880  178.3100  139.2240 N   0  0  0  0  0  0  0  0  0  0  0  0
  189.3740  178.6600  138.0830 F   0  0  0  0  0  0  0  0  0  0  0  0
  188.1430  178.0350  138.0100 C   0  0  0  0  0  0  0  0  0  0  0  0
  187.4560  178.5160  136.9070 F   0  0  0  0  0  0  0  0  0  0  0  0
  188.3520  176.6320  137.8800 O   0  0  0  0  0  0  0  0  0  0  0  0
  189.5680  176.0600  137.4920 C   0  0  0  0  0  0  0  0  0  0  0  0
  191.3610  175.3050  136.2190 N   0  0  0  0  0  0  0  0  0  0  0  0
  190.0190  175.8710  136.1010 C   0  0  0  0  0  3  0  0  0  0  0  0
  190.4230  175.6500  138.3510 N   0  0  0  0  0  0  0  0  0  0  0  0
  192.7750  175.8060  138.0760 N   0  0  0  0  0  1  0  0  0  0  0  0
  191.5750  175.1050  137.6570 C   0  0  2  0  0  3  0  0  0  0  0  0
  183.5790  179.4930  144.1550 C   0  0  0  0  0  2  0  0  0  0  0  0
  182.5190  178.6910  143.7250 O   0  0  0  0  0  0  0  0  0  0  0  0
  181.5810  178.4040  141.6580 O   0  0  0  0  0  0  0  0  0  0  0  0
  180.5690  179.0300  142.4030 C   0  0  1  0  0  0  0  0  0  0  0  0
  182.0030  179.3540  142.6130 C   0  0  1  0  0  3  0  0  0  0  0  0
  179.5150  181.2600  142.0080 O   0  0  0  0  0  1  0  0  0  0  0  0
  179.7700  179.9690  141.5630 C   0  0  0  0  0  0  0  0  0  0  0  0
  179.3610  179.6080  140.4280 O   0  0  0  0  0  0  0  0  0  0  0  0
  178.9860  178.7320  144.1700 O   0  0  0  0  0  1  0  0  0  0  0  0
  179.8510  178.0440  143.3180 C   0  0  0  0  0  2  0  0  0  0  0  0
  1  2  1  6  0  0  0
  1 27  1  0  0  0  0
  1  3  1  0  0  0  0
  3  4  1  1  0  0  0
  5  3  1  0  0  0  0
  5  8  1  0  0  0  0
  7  8  2  0  0  0  0
  7  6  1  0  0  0  0
  9 10  1  0  0  0  0
 10 11  1  1  0  0  0
 10  7  1  0  0  0  0
 12  1  1  0  0  0  0
 13 14  1  0  0  0  0
 13 12  1  0  0  0  0
 15 14  1  0  0  0  0
 16 15  2  0  0  0  0
 18 17  1  0  0  0  0
 18 16  1  0  0  0  0
 19 18  1  0  0  0  0
 20 18  1  0  0  0  0
 21 20  1  0  0  0  0
 21 24  2  0  0  0  0
 22 26  1  0  0  0  0
 23 22  2  0  0  0  0
 23 21  1  0  0  0  0
 26 25  1  1  0  0  0
 26 24  1  0  0  0  0
 28 27  1  0  0  0  0
 29 30  1  0  0  0  0
 29 31  1  0  0  0  0
 30 31  1  0  0  0  0
 30 36  1  1  0  0  0
 31 28  1  1  0  0  0
 33 32  1  0  0  0  0
 33 30  1  0  0  0  0
 34 33  2  0  0  0  0
 36 35  1  0  0  0  0
M  END
>  <MODEL>
7

>  <REMARK>
 VINA RESULT:      -6.5      3.845      7.835
  Name = 
  16 active torsions:
  status: ('A' for Active; 'I' for Inactive)
    1  A    between atoms: C_5  and  C_25
    2  A    between atoms: C_6  and  C_22
    3  A    between atoms: C_7  and  O_9
    4  A    between atoms: O_9  and  C_20
    5  A    between atoms: O_10  and  C_23
    6  A    between atoms: O_10  and  C_33
    7  A    between atoms: C_11  and  N_15
    8  A    between atoms: C_11  and  O_17
    9  A    between atoms: O_13  and  C_14
   10  A    between atoms: O_13  and  C_36
   11  A    between atoms: C_14  and  C_27
   12  A    between atoms: N_15  and  C_27
   13  A    between atoms: O_17  and  N_21
   14  A    between atoms: C_20  and  N_35
   15  A    between atoms: C_23  and  C_27
   16  A    between atoms: C_24  and  C_25
                            x       y       z     vdW  Elec       q    Type
                         _______ _______ _______ _____ _____    ______ ____

>  <TORSDO>
F 16

$$$$
=
 OpenBabel11062416013D

 36 37  0  0  1  0  0  0  0  0999 V2000
  187.3550  177.9620  137.2880 C   0  0  1  0  0  0  0  0  0  0  0  0
  187.7070  179.2940  137.0320 O   0  0  0  0  0  1  0  0  0  0  0  0
  187.6270  177.1250  136.0290 C   0  0  1  0  0  3  0  0  0  0  0  0
  189.1190  176.9170  135.8040 C   0  0  0  0  0  1  0  0  0  0  0  0
  186.9670  175.8700  136.1150 O   0  0  0  0  0  0  0  0  0  0  0  0
  187.9260  172.3800  137.0080 C   0  0  0  0  0  1  0  0  0  0  0  0
  187.0980  173.6010  136.7820 C   0  0  0  0  0  0  0  0  0  0  0  0
  187.6930  174.6980  136.3250 C   0  0  0  0  0  3  0  0  0  0  0  0
  185.4150  173.0000  138.3390 O   0  0  0  0  0  1  0  0  0  0  0  0
  185.6360  173.5930  137.0960 C   0  0  2  0  0  3  0  0  0  0  0  0
  184.8540  172.8550  136.0250 C   0  0  0  0  0  1  0  0  0  0  0  0
  188.1460  177.4330  138.4080 N   0  0  0  0  0  2  0  0  0  0  0  0
  188.9430  178.4850  139.0330 C   0  0  0  0  0  2  0  0  0  0  0  0
  188.2970  178.9380  140.2170 O   0  0  0  0  0  0  0  0  0  0  0  0
  188.5690  178.3810  141.4520 N   0  0  0  0  0  0  0  0  0  0  0  0
  188.7810  177.1340  141.5850 N   0  0  0  0  0  0  0  0  0  0  0  0
  190.2610  175.8630  142.8350 F   0  0  0  0  0  0  0  0  0  0  0  0
  189.0680  176.5590  142.8910 C   0  0  0  0  0  0  0  0  0  0  0  0
  188.0540  175.6900  143.2590 F   0  0  0  0  0  0  0  0  0  0  0  0
  189.1930  177.5990  143.8570 O   0  0  0  0  0  0  0  0  0  0  0  0
  189.3750  177.3710  145.2260 C   0  0  0  0  0  0  0  0  0  0  0  0
  190.3450  176.9900  147.3040 N   0  0  0  0  0  0  0  0  0  0  0  0
  190.6640  177.0810  145.8800 C   0  0  0  0  0  3  0  0  0  0  0  0
  188.3970  177.4110  146.0500 N   0  0  0  0  0  0  0  0  0  0  0  0
  188.5520  178.2350  148.2700 N   0  0  0  0  0  1  0  0  0  0  0  0
  188.8870  177.1320  147.3870 C   0  0  2  0  0  3  0  0  0  0  0  0
  185.8620  177.8910  137.6230 C   0  0  0  0  0  2  0  0  0  0  0  0
  185.4400  179.0610  138.2610 O   0  0  0  0  0  0  0  0  0  0  0  0
  184.6260  179.7550  140.2830 O   0  0  0  0  0  0  0  0  0  0  0  0
  183.5410  179.0840  139.6950 C   0  0  1  0  0  0  0  0  0  0  0  0
  184.9400  178.6310  139.4890 C   0  0  1  0  0  3  0  0  0  0  0  0
  181.8620  177.3440  140.3230 O   0  0  0  0  0  0  0  0  0  0  0  0
  182.7280  178.3560  140.7140 C   0  0  0  0  0  0  0  0  0  0  0  0
  182.8580  178.6300  141.9360 O   0  0  0  0  0  1  0  0  0  0  0  0
  181.7320  180.5750  139.2260 O   0  0  0  0  0  1  0  0  0  0  0  0
  182.8400  179.9490  138.6530 C   0  0  0  0  0  2  0  0  0  0  0  0
  1  2  1  6  0  0  0
  1 27  1  0  0  0  0
  1 12  1  0  0  0  0
  3  4  1  1  0  0  0
  3  5  1  0  0  0  0
  3  1  1  0  0  0  0
  5  8  1  0  0  0  0
  7  6  1  0  0  0  0
  7 10  1  0  0  0  0
  8  7  2  0  0  0  0
 10 11  1  6  0  0  0
 10  9  1  0  0  0  0
 12 13  1  0  0  0  0
 13 14  1  0  0  0  0
 14 15  1  0  0  0  0
 15 16  2  0  0  0  0
 16 18  1  0  0  0  0
 17 18  1  0  0  0  0
 18 19  1  0  0  0  0
 18 20  1  0  0  0  0
 20 21  1  0  0  0  0
 21 23  1  0  0  0  0
 21 24  2  0  0  0  0
 22 26  1  0  0  0  0
 23 22  2  0  0  0  0
 24 26  1  0  0  0  0
 26 25  1  1  0  0  0
 27 28  1  0  0  0  0
 30 36  1  6  0  0  0
 30 29  1  0  0  0  0
 30 33  1  0  0  0  0
 31 28  1  6  0  0  0
 31 30  1  0  0  0  0
 31 29  1  0  0  0  0
 32 33  2  0  0  0  0
 33 34  1  0  0  0  0
 36 35  1  0  0  0  0
M  END
>  <MODEL>
8

>  <REMARK>
 VINA RESULT:      -6.5      3.433      8.013
  Name = 
  16 active torsions:
  status: ('A' for Active; 'I' for Inactive)
    1  A    between atoms: C_5  and  C_25
    2  A    between atoms: C_6  and  C_22
    3  A    between atoms: C_7  and  O_9
    4  A    between atoms: O_9  and  C_20
    5  A    between atoms: O_10  and  C_23
    6  A    between atoms: O_10  and  C_33
    7  A    between atoms: C_11  and  N_15
    8  A    between atoms: C_11  and  O_17
    9  A    between atoms: O_13  and  C_14
   10  A    between atoms: O_13  and  C_36
   11  A    between atoms: C_14  and  C_27
   12  A    between atoms: N_15  and  C_27
   13  A    between atoms: O_17  and  N_21
   14  A    between atoms: C_20  and  N_35
   15  A    between atoms: C_23  and  C_27
   16  A    between atoms: C_24  and  C_25
                            x       y       z     vdW  Elec       q    Type
                         _______ _______ _______ _____ _____    ______ ____

>  <TORSDO>
F 16

$$$$
=
 OpenBabel11062416013D

 36 37  0  0  1  0  0  0  0  0999 V2000
  188.5970  178.0730  138.5700 C   0  0  1  0  0  0  0  0  0  0  0  0
  189.1440  179.3060  138.1930 O   0  0  0  0  0  1  0  0  0  0  0  0
  187.6760  177.5740  137.4470 C   0  0  1  0  0  3  0  0  0  0  0  0
  187.5070  178.6200  136.3530 C   0  0  0  0  0  1  0  0  0  0  0  0
  188.1770  176.3650  136.8920 O   0  0  0  0  0  0  0  0  0  0  0  0
  186.8250  173.7020  134.6610 C   0  0  0  0  0  1  0  0  0  0  0  0
  187.5960  174.3750  135.7470 C   0  0  0  0  0  0  0  0  0  0  0  0
  187.4640  175.6880  135.9040 C   0  0  0  0  0  3  0  0  0  0  0  0
  189.7410  173.3900  135.9700 O   0  0  0  0  0  1  0  0  0  0  0  0
  188.5220  173.5860  136.6180 C   0  0  2  0  0  3  0  0  0  0  0  0
  187.9110  172.2460  136.9880 C   0  0  0  0  0  1  0  0  0  0  0  0
  189.6660  177.0900  138.8000 N   0  0  0  0  0  2  0  0  0  0  0  0
  190.5420  177.5100  139.8890 C   0  0  0  0  0  2  0  0  0  0  0  0
  190.4600  176.5770  140.9600 O   0  0  0  0  0  0  0  0  0  0  0  0
  190.1520  176.9740  142.2470 N   0  0  0  0  0  0  0  0  0  0  0  0
  191.0620  177.2310  143.0980 N   0  0  0  0  0  0  0  0  0  0  0  0
  190.1850  178.9230  144.4160 F   0  0  0  0  0  0  0  0  0  0  0  0
  190.7250  177.6500  144.4500 C   0  0  0  0  0  0  0  0  0  0  0  0
  191.8630  177.6630  145.2400 F   0  0  0  0  0  0  0  0  0  0  0  0
  189.7580  176.7620  145.0030 O   0  0  0  0  0  0  0  0  0  0  0  0
  188.6630  177.1800  145.7660 C   0  0  0  0  0  0  0  0  0  0  0  0
  187.3420  177.9660  147.5110 N   0  0  0  0  0  0  0  0  0  0  0  0
  188.7030  177.5330  147.1970 C   0  0  0  0  0  3  0  0  0  0  0  0
  187.4970  177.3070  145.2550 N   0  0  0  0  0  0  0  0  0  0  0  0
  185.9430  178.9920  145.8720 N   0  0  0  0  0  1  0  0  0  0  0  0
  186.5710  177.7490  146.2820 C   0  0  2  0  0  3  0  0  0  0  0  0
  187.7730  178.2570  139.8480 C   0  0  0  0  0  2  0  0  0  0  0  0
  186.4080  178.3110  139.5550 O   0  0  0  0  0  0  0  0  0  0  0  0
  185.3760  179.7760  140.9780 O   0  0  0  0  0  0  0  0  0  0  0  0
  184.3670  178.8530  140.6540 C   0  0  1  0  0  0  0  0  0  0  0  0
  185.7860  178.4380  140.7960 C   0  0  1  0  0  3  0  0  0  0  0  0
  183.9900  178.3820  143.0780 O   0  0  0  0  0  1  0  0  0  0  0  0
  183.4610  178.6030  141.8130 C   0  0  0  0  0  0  0  0  0  0  0  0
  182.2130  178.6340  141.6560 O   0  0  0  0  0  0  0  0  0  0  0  0
  183.6490  180.5070  139.0830 O   0  0  0  0  0  1  0  0  0  0  0  0
  183.7700  179.1300  139.2790 C   0  0  0  0  0  2  0  0  0  0  0  0
  1  2  1  6  0  0  0
  1 12  1  0  0  0  0
  1 27  1  0  0  0  0
  3  4  1  6  0  0  0
  3  1  1  0  0  0  0
  5  3  1  0  0  0  0
  6  7  1  0  0  0  0
  7  8  2  0  0  0  0
  7 10  1  0  0  0  0
  8  5  1  0  0  0  0
  9 10  1  0  0  0  0
 10 11  1  6  0  0  0
 12 13  1  0  0  0  0
 13 14  1  0  0  0  0
 14 15  1  0  0  0  0
 15 16  2  0  0  0  0
 16 18  1  0  0  0  0
 17 18  1  0  0  0  0
 18 20  1  0  0  0  0
 18 19  1  0  0  0  0
 20 21  1  0  0  0  0
 21 23  1  0  0  0  0
 23 22  2  0  0  0  0
 24 21  2  0  0  0  0
 24 26  1  0  0  0  0
 26 25  1  6  0  0  0
 26 22  1  0  0  0  0
 28 27  1  0  0  0  0
 30 36  1  6  0  0  0
 30 31  1  0  0  0  0
 30 29  1  0  0  0  0
 30 33  1  0  0  0  0
 31 28  1  6  0  0  0
 31 29  1  0  0  0  0
 33 32  1  0  0  0  0
 34 33  2  0  0  0  0
 35 36  1  0  0  0  0
M  END
>  <MODEL>
9

>  <REMARK>
 VINA RESULT:      -6.4      2.751      7.605
  Name = 
  16 active torsions:
  status: ('A' for Active; 'I' for Inactive)
    1  A    between atoms: C_5  and  C_25
    2  A    between atoms: C_6  and  C_22
    3  A    between atoms: C_7  and  O_9
    4  A    between atoms: O_9  and  C_20
    5  A    between atoms: O_10  and  C_23
    6  A    between atoms: O_10  and  C_33
    7  A    between atoms: C_11  and  N_15
    8  A    between atoms: C_11  and  O_17
    9  A    between atoms: O_13  and  C_14
   10  A    between atoms: O_13  and  C_36
   11  A    between atoms: C_14  and  C_27
   12  A    between atoms: N_15  and  C_27
   13  A    between atoms: O_17  and  N_21
   14  A    between atoms: C_20  and  N_35
   15  A    between atoms: C_23  and  C_27
   16  A    between atoms: C_24  and  C_25
                            x       y       z     vdW  Elec       q    Type
                         _______ _______ _______ _____ _____    ______ ____

>  <TORSDO>
F 16

$$$$
