=
 OpenBabel11062418083D

 25 29  0  0  1  0  0  0  0  0999 V2000
  188.8050  177.4900  140.2060 C   0  0  0  0  0  0  0  0  0  0  0  0
  188.0410  177.3300  142.5100 N   0  0  0  0  0  0  0  0  0  0  0  0
  191.3280  180.1690  144.4660 C   0  0  0  0  0  1  0  0  0  0  0  0
  189.9490  176.8280  139.8800 C   0  0  0  0  0  0  0  0  0  0  0  0
  192.0640  176.9680  140.1560 C   0  0  0  0  0  3  0  0  0  0  0  0
  190.8760  176.8850  140.8000 N   0  0  0  0  0  0  0  0  0  0  0  0
  191.3070  178.4150  142.7270 C   0  0  1  0  0  3  0  0  0  0  0  0
  188.5580  176.1240  143.1850 C   0  0  0  0  0  2  0  0  0  0  0  0
  190.4590  176.8410  138.6280 C   0  0  0  0  0  0  0  0  0  0  0  0
  188.9980  178.0010  141.6130 C   0  0  1  0  0  3  0  0  0  0  0  0
  190.8530  176.3970  144.3510 C   0  0  2  0  0  3  0  0  0  0  0  0
  191.8410  176.9010  138.7650 C   0  0  0  0  0  3  0  0  0  0  0  0
  189.3200  176.4000  144.4930 C   0  0  0  0  0  2  0  0  0  0  0  0
  189.7280  177.3370  137.5930 N   0  0  0  0  0  0  0  0  0  0  0  0
  188.4910  177.8830  137.8430 C   0  0  0  0  0  3  0  0  0  0  0  0
  190.4060  177.6240  141.8920 N   0  0  1  0  0  0  0  0  0  0  0  0
  188.0270  178.0370  139.1760 C   0  0  0  0  0  3  0  0  0  0  0  0
  190.6220  178.9200  143.9850 C   0  0  1  0  0  3  0  0  0  0  0  0
  191.5750  177.7410  144.0770 C   0  0  2  0  0  3  0  0  0  0  0  0
  191.4060  175.2180  143.5580 C   0  0  0  0  0  2  0  0  0  0  0  0
  192.3310  174.5130  144.3290 O   0  0  0  0  0  1  0  0  0  0  0  0
  187.4780  178.2970  143.4500 C   0  0  0  0  0  2  0  0  0  0  0  0
  185.9700  178.1180  143.5560 C   0  0  0  0  0  2  0  0  0  0  0  0
  185.2990  178.3340  142.2100 C   0  0  0  0  0  2  0  0  0  0  0  0
  185.5900  179.6110  141.7310 O   0  0  0  0  0  1  0  0  0  0  0  0
  1 10  1  0  0  0  0
  2  8  1  0  0  0  0
  2 22  1  0  0  0  0
  4  1  1  0  0  0  0
  4  6  1  0  0  0  0
  5  6  1  0  0  0  0
  6 16  1  0  0  0  0
  7 18  1  0  0  0  0
  7 19  1  0  0  0  0
  8 13  1  0  0  0  0
  9 12  1  0  0  0  0
  9  4  2  0  0  0  0
 10 16  1  0  0  0  0
 10  2  1  0  0  0  0
 11 13  1  0  0  0  0
 12  5  2  0  0  0  0
 14 15  2  0  0  0  0
 14  9  1  0  0  0  0
 15 17  1  0  0  0  0
 16  7  1  0  0  0  0
 17  1  2  0  0  0  0
 18 19  1  0  0  0  0
 18  3  1  0  0  0  0
 19 11  1  0  0  0  0
 20 21  1  0  0  0  0
 20 11  1  0  0  0  0
 22 23  1  0  0  0  0
 24 23  1  0  0  0  0
 25 24  1  0  0  0  0
M  END
>  <MODEL>
1

>  <REMARK>
 VINA RESULT:      -6.1      0.000      0.000
  Name = 
  4 active torsions:
  status: ('A' for Active; 'I' for Inactive)
    1  A    between atoms: N_2  and  C_9
    2  A    between atoms: C_3  and  C_14
    3  A    between atoms: C_5  and  C_9
    4  A    between atoms: C_5  and  C_17
                            x       y       z     vdW  Elec       q    Type
                         _______ _______ _______ _____ _____    ______ ____

>  <TORSDO>
F 4

$$$$
=
 OpenBabel11062418083D

 25 29  0  0  1  0  0  0  0  0999 V2000
  188.2550  177.9530  139.4590 C   0  0  0  0  0  0  0  0  0  0  0  0
  186.6630  178.3750  137.6680 N   0  0  0  0  0  0  0  0  0  0  0  0
  186.2320  173.8870  136.1330 C   0  0  0  0  0  1  0  0  0  0  0  0
  189.5380  177.6750  139.1010 C   0  0  0  0  0  0  0  0  0  0  0  0
  190.7020  176.0950  138.2550 C   0  0  0  0  0  3  0  0  0  0  0  0
  189.6420  176.9110  138.0470 N   0  0  0  0  0  0  0  0  0  0  0  0
  188.0860  175.3290  136.8980 C   0  0  1  0  0  3  0  0  0  0  0  0
  187.3280  178.8250  136.4280 C   0  0  0  0  0  2  0  0  0  0  0  0
  190.5060  177.4340  140.0140 C   0  0  0  0  0  0  0  0  0  0  0  0
  187.3760  177.3190  138.4080 C   0  0  1  0  0  3  0  0  0  0  0  0
  188.0790  176.9420  134.8200 C   0  0  2  0  0  3  0  0  0  0  0  0
  191.3070  176.4280  139.4850 C   0  0  0  0  0  3  0  0  0  0  0  0
  187.0020  177.9790  135.1850 C   0  0  0  0  0  2  0  0  0  0  0  0
  190.2810  177.6770  141.3340 N   0  0  0  0  0  0  0  0  0  0  0  0
  189.0400  178.1090  141.7380 C   0  0  0  0  0  3  0  0  0  0  0  0
  188.3630  176.5970  137.5680 N   0  0  1  0  0  0  0  0  0  0  0  0
  187.9680  178.1910  140.8100 C   0  0  0  0  0  3  0  0  0  0  0  0
  186.7120  175.3170  136.2500 C   0  0  1  0  0  3  0  0  0  0  0  0
  187.9450  175.5030  135.3820 C   0  0  2  0  0  3  0  0  0  0  0  0
  189.5040  177.4860  134.8340 C   0  0  0  0  0  2  0  0  0  0  0  0
  190.4130  176.4560  134.5940 O   0  0  0  0  0  1  0  0  0  0  0  0
  185.2760  177.9770  137.4440 C   0  0  0  0  0  2  0  0  0  0  0  0
  184.5010  177.9890  138.7540 C   0  0  0  0  0  2  0  0  0  0  0  0
  184.2070  179.4100  139.2010 C   0  0  0  0  0  2  0  0  0  0  0  0
  184.9330  179.7090  140.3540 O   0  0  0  0  0  1  0  0  0  0  0  0
  1 17  1  0  0  0  0
  2 10  1  0  0  0  0
  3 18  1  0  0  0  0
  4  1  2  0  0  0  0
  4  9  1  0  0  0  0
  5 12  2  0  0  0  0
  6  5  1  0  0  0  0
  6  4  1  0  0  0  0
  7 16  1  0  0  0  0
  8  2  1  0  0  0  0
  9 14  2  0  0  0  0
 10  1  1  0  0  0  0
 11 20  1  0  0  0  0
 11 13  1  0  0  0  0
 11 19  1  0  0  0  0
 12  9  1  0  0  0  0
 13  8  1  0  0  0  0
 14 15  1  0  0  0  0
 16  6  1  0  0  0  0
 16 10  1  0  0  0  0
 17 15  2  0  0  0  0
 18  7  1  0  0  0  0
 19 18  1  0  0  0  0
 19  7  1  0  0  0  0
 21 20  1  0  0  0  0
 22  2  1  0  0  0  0
 22 23  1  0  0  0  0
 23 24  1  0  0  0  0
 24 25  1  0  0  0  0
M  END
>  <MODEL>
2

>  <REMARK>
 VINA RESULT:      -5.7      3.046      6.334
  Name = 
  4 active torsions:
  status: ('A' for Active; 'I' for Inactive)
    1  A    between atoms: N_2  and  C_9
    2  A    between atoms: C_3  and  C_14
    3  A    between atoms: C_5  and  C_9
    4  A    between atoms: C_5  and  C_17
                            x       y       z     vdW  Elec       q    Type
                         _______ _______ _______ _____ _____    ______ ____

>  <TORSDO>
F 4

$$$$
=
 OpenBabel11062418083D

 25 29  0  0  1  0  0  0  0  0999 V2000
  186.9950  177.5720  144.3090 C   0  0  0  0  0  0  0  0  0  0  0  0
  189.0240  176.4970  145.1130 N   0  0  0  0  0  0  0  0  0  0  0  0
  192.0120  180.1250  144.3440 C   0  0  0  0  0  1  0  0  0  0  0  0
  186.8660  177.7360  142.9640 C   0  0  0  0  0  0  0  0  0  0  0  0
  187.6390  178.9370  141.3730 C   0  0  0  0  0  3  0  0  0  0  0  0
  187.9750  178.0750  142.3610 N   0  0  0  0  0  0  0  0  0  0  0  0
  190.1190  179.1000  143.1340 C   0  0  1  0  0  3  0  0  0  0  0  0
  189.6510  175.6500  144.0790 C   0  0  0  0  0  2  0  0  0  0  0  0
  185.7770  178.3130  142.4080 C   0  0  0  0  0  0  0  0  0  0  0  0
  188.4590  177.7650  144.6200 C   0  0  1  0  0  3  0  0  0  0  0  0
  191.3410  176.8510  142.5290 C   0  0  2  0  0  3  0  0  0  0  0  0
  186.2360  179.0820  141.3440 C   0  0  0  0  0  3  0  0  0  0  0  0
  191.1240  175.9860  143.7840 C   0  0  0  0  0  2  0  0  0  0  0  0
  184.6680  178.5530  143.1590 N   0  0  0  0  0  0  0  0  0  0  0  0
  184.6890  178.2620  144.5020 C   0  0  0  0  0  3  0  0  0  0  0  0
  189.0100  178.1640  143.3010 N   0  0  1  0  0  0  0  0  0  0  0  0
  185.8870  177.8270  145.1280 C   0  0  0  0  0  3  0  0  0  0  0  0
  191.2350  178.8450  144.1310 C   0  0  1  0  0  3  0  0  0  0  0  0
  191.4040  178.3910  142.6910 C   0  0  2  0  0  3  0  0  0  0  0  0
  190.5620  176.3840  141.3040 C   0  0  0  0  0  2  0  0  0  0  0  0
  190.7490  177.2760  140.2480 O   0  0  0  0  0  1  0  0  0  0  0  0
  189.9160  176.7530  146.2410 C   0  0  0  0  0  2  0  0  0  0  0  0
  189.3030  177.7820  147.1800 C   0  0  0  0  0  2  0  0  0  0  0  0
  188.2830  177.1380  148.1040 C   0  0  0  0  0  2  0  0  0  0  0  0
  187.9700  178.0060  149.1490 O   0  0  0  0  0  1  0  0  0  0  0  0
  1 10  1  0  0  0  0
  1 17  1  0  0  0  0
  2 22  1  0  0  0  0
  4  1  2  0  0  0  0
  5  6  1  0  0  0  0
  6  4  1  0  0  0  0
  6 16  1  0  0  0  0
  7 16  1  0  0  0  0
  7 18  1  0  0  0  0
  8  2  1  0  0  0  0
  9  4  1  0  0  0  0
  9 14  2  0  0  0  0
 10  2  1  0  0  0  0
 11 19  1  0  0  0  0
 11 13  1  0  0  0  0
 12  5  2  0  0  0  0
 12  9  1  0  0  0  0
 13  8  1  0  0  0  0
 14 15  1  0  0  0  0
 15 17  2  0  0  0  0
 16 10  1  0  0  0  0
 18  3  1  0  0  0  0
 19  7  1  0  0  0  0
 19 18  1  0  0  0  0
 20 11  1  0  0  0  0
 21 20  1  0  0  0  0
 22 23  1  0  0  0  0
 23 24  1  0  0  0  0
 24 25  1  0  0  0  0
M  END
>  <MODEL>
3

>  <REMARK>
 VINA RESULT:      -5.2      2.550      4.628
  Name = 
  4 active torsions:
  status: ('A' for Active; 'I' for Inactive)
    1  A    between atoms: N_2  and  C_9
    2  A    between atoms: C_3  and  C_14
    3  A    between atoms: C_5  and  C_9
    4  A    between atoms: C_5  and  C_17
                            x       y       z     vdW  Elec       q    Type
                         _______ _______ _______ _____ _____    ______ ____

>  <TORSDO>
F 4

$$$$
=
 OpenBabel11062418083D

 25 29  0  0  1  0  0  0  0  0999 V2000
  184.2590  178.4020  141.0880 C   0  0  0  0  0  0  0  0  0  0  0  0
  183.5740  177.4050  138.9770 N   0  0  0  0  0  0  0  0  0  0  0  0
  180.2220  180.5900  137.8300 C   0  0  0  0  0  1  0  0  0  0  0  0
  183.4090  178.2780  142.1430 C   0  0  0  0  0  0  0  0  0  0  0  0
  181.5490  179.0550  142.8550 C   0  0  0  0  0  3  0  0  0  0  0  0
  182.1470  178.4090  141.8270 N   0  0  0  0  0  0  0  0  0  0  0  0
  180.9480  179.4440  139.8950 C   0  0  1  0  0  3  0  0  0  0  0  0
  182.5940  176.3170  139.1690 C   0  0  0  0  0  2  0  0  0  0  0  0
  183.6930  178.7850  143.3640 C   0  0  0  0  0  0  0  0  0  0  0  0
  183.3920  178.5680  139.8630 C   0  0  1  0  0  3  0  0  0  0  0  0
  180.1110  177.0470  139.2090 C   0  0  2  0  0  3  0  0  0  0  0  0
  182.4970  179.2760  143.8760 C   0  0  0  0  0  3  0  0  0  0  0  0
  181.2830  176.4900  138.3820 C   0  0  0  0  0  2  0  0  0  0  0  0
  184.9410  179.2510  143.6410 N   0  0  0  0  0  0  0  0  0  0  0  0
  185.8930  179.2580  142.6480 C   0  0  0  0  0  3  0  0  0  0  0  0
  182.0310  178.6360  140.4500 N   0  0  1  0  0  0  0  0  0  0  0  0
  185.5510  178.8960  141.3180 C   0  0  0  0  0  3  0  0  0  0  0  0
  180.8800  179.3440  138.3810 C   0  0  1  0  0  3  0  0  0  0  0  0
  179.8750  178.5790  139.2250 C   0  0  2  0  0  3  0  0  0  0  0  0
  179.9260  176.3730  140.5650 C   0  0  0  0  0  2  0  0  0  0  0  0
  178.9310  177.0260  141.2930 O   0  0  0  0  0  1  0  0  0  0  0  0
  183.6530  177.8450  137.5870 C   0  0  0  0  0  2  0  0  0  0  0  0
  184.8300  177.1820  136.8860 C   0  0  0  0  0  2  0  0  0  0  0  0
  186.1240  177.4260  137.6420 C   0  0  0  0  0  2  0  0  0  0  0  0
  186.4330  178.7860  137.6330 O   0  0  0  0  0  1  0  0  0  0  0  0
  1 17  2  0  0  0  0
  1  4  1  0  0  0  0
  2  8  1  0  0  0  0
  2 10  1  0  0  0  0
  3 18  1  0  0  0  0
  4  9  2  0  0  0  0
  5 12  2  0  0  0  0
  6  4  1  0  0  0  0
  6  5  1  0  0  0  0
  7 16  1  0  0  0  0
  9 14  1  0  0  0  0
  9 12  1  0  0  0  0
 10 16  1  0  0  0  0
 10  1  1  0  0  0  0
 11 19  1  0  0  0  0
 11 20  1  0  0  0  0
 13  8  1  0  0  0  0
 13 11  1  0  0  0  0
 15 14  2  0  0  0  0
 16  6  1  0  0  0  0
 17 15  1  0  0  0  0
 18 19  1  0  0  0  0
 18  7  1  0  0  0  0
 19  7  1  0  0  0  0
 20 21  1  0  0  0  0
 22  2  1  0  0  0  0
 23 22  1  0  0  0  0
 23 24  1  0  0  0  0
 25 24  1  0  0  0  0
M  END
>  <MODEL>
4

>  <REMARK>
 VINA RESULT:      -5.2      5.158      9.062
  Name = 
  4 active torsions:
  status: ('A' for Active; 'I' for Inactive)
    1  A    between atoms: N_2  and  C_9
    2  A    between atoms: C_3  and  C_14
    3  A    between atoms: C_5  and  C_9
    4  A    between atoms: C_5  and  C_17
                            x       y       z     vdW  Elec       q    Type
                         _______ _______ _______ _____ _____    ______ ____

>  <TORSDO>
F 4

$$$$
=
 OpenBabel11062418083D

 25 29  0  0  1  0  0  0  0  0999 V2000
  184.0350  178.7620  140.4750 C   0  0  0  0  0  0  0  0  0  0  0  0
  181.6600  179.1270  140.8610 N   0  0  0  0  0  0  0  0  0  0  0  0
  180.1360  174.8030  139.5680 C   0  0  0  0  0  1  0  0  0  0  0  0
  184.4570  178.7120  139.1830 C   0  0  0  0  0  0  0  0  0  0  0  0
  184.4050  177.4120  137.4860 C   0  0  0  0  0  3  0  0  0  0  0  0
  183.6400  178.0810  138.3810 N   0  0  0  0  0  0  0  0  0  0  0  0
  181.8130  176.4140  138.7350 C   0  0  1  0  0  3  0  0  0  0  0  0
  181.0070  179.7920  139.7160 C   0  0  0  0  0  2  0  0  0  0  0  0
  185.7550  178.5220  138.8530 C   0  0  0  0  0  0  0  0  0  0  0  0
  182.6700  178.1160  140.5000 C   0  0  1  0  0  3  0  0  0  0  0  0
  180.0920  178.2120  137.8810 C   0  0  2  0  0  3  0  0  0  0  0  0
  185.7630  177.7030  137.7300 C   0  0  0  0  0  3  0  0  0  0  0  0
  179.7930  179.0380  139.1450 C   0  0  0  0  0  2  0  0  0  0  0  0
  186.7230  178.5940  139.8080 N   0  0  0  0  0  0  0  0  0  0  0  0
  186.3630  178.7980  141.1180 C   0  0  0  0  0  3  0  0  0  0  0  0
  182.5270  177.6350  139.1030 N   0  0  1  0  0  0  0  0  0  0  0  0
  184.9940  178.8170  141.4960 C   0  0  0  0  0  3  0  0  0  0  0  0
  180.5060  176.2680  139.4950 C   0  0  1  0  0  3  0  0  0  0  0  0
  180.4780  176.7190  138.0450 C   0  0  2  0  0  3  0  0  0  0  0  0
  180.9040  178.9540  136.8250 C   0  0  0  0  0  2  0  0  0  0  0  0
  180.9740  178.1970  135.6560 O   0  0  0  0  0  1  0  0  0  0  0  0
  180.6960  178.5550  141.7970 C   0  0  0  0  0  2  0  0  0  0  0  0
  181.0670  178.9170  143.2280 C   0  0  0  0  0  2  0  0  0  0  0  0
  179.8720  178.7710  144.1550 C   0  0  0  0  0  2  0  0  0  0  0  0
  179.6230  177.4220  144.4040 O   0  0  0  0  0  1  0  0  0  0  0  0
  1 10  1  0  0  0  0
  1 17  1  0  0  0  0
  2 22  1  0  0  0  0
  4  1  2  0  0  0  0
  5 12  2  0  0  0  0
  5  6  1  0  0  0  0
  6 16  1  0  0  0  0
  6  4  1  0  0  0  0
  7 16  1  0  0  0  0
  7 18  1  0  0  0  0
  8  2  1  0  0  0  0
  9  4  1  0  0  0  0
  9 14  2  0  0  0  0
 10  2  1  0  0  0  0
 11 19  1  0  0  0  0
 11 13  1  0  0  0  0
 12  9  1  0  0  0  0
 13  8  1  0  0  0  0
 14 15  1  0  0  0  0
 15 17  2  0  0  0  0
 16 10  1  0  0  0  0
 18  3  1  0  0  0  0
 19  7  1  0  0  0  0
 19 18  1  0  0  0  0
 20 11  1  0  0  0  0
 21 20  1  0  0  0  0
 22 23  1  0  0  0  0
 23 24  1  0  0  0  0
 24 25  1  0  0  0  0
M  END
>  <MODEL>
5

>  <REMARK>
 VINA RESULT:      -4.9      5.272      8.815
  Name = 
  4 active torsions:
  status: ('A' for Active; 'I' for Inactive)
    1  A    between atoms: N_2  and  C_9
    2  A    between atoms: C_3  and  C_14
    3  A    between atoms: C_5  and  C_9
    4  A    between atoms: C_5  and  C_17
                            x       y       z     vdW  Elec       q    Type
                         _______ _______ _______ _____ _____    ______ ____

>  <TORSDO>
F 4

$$$$
=
 OpenBabel11062418083D

 25 29  0  0  1  0  0  0  0  0999 V2000
  183.8290  178.5950  140.7060 C   0  0  0  0  0  0  0  0  0  0  0  0
  182.4140  177.9640  138.8300 N   0  0  0  0  0  0  0  0  0  0  0  0
  179.2450  181.4990  139.2070 C   0  0  0  0  0  1  0  0  0  0  0  0
  183.3410  178.3760  141.9570 C   0  0  0  0  0  0  0  0  0  0  0  0
  181.8940  179.1660  143.3180 C   0  0  0  0  0  3  0  0  0  0  0  0
  182.0670  178.6370  142.0840 N   0  0  0  0  0  0  0  0  0  0  0  0
  180.4470  180.0200  140.7780 C   0  0  1  0  0  3  0  0  0  0  0  0
  181.4300  176.9280  139.2000 C   0  0  0  0  0  2  0  0  0  0  0  0
  184.0460  178.6810  143.0700 C   0  0  0  0  0  0  0  0  0  0  0  0
  182.6480  178.9960  139.8550 C   0  0  1  0  0  3  0  0  0  0  0  0
  179.1790  177.8090  140.1270 C   0  0  2  0  0  3  0  0  0  0  0  0
  183.1310  179.1710  143.9960 C   0  0  0  0  0  3  0  0  0  0  0  0
  179.9660  177.3010  138.9050 C   0  0  0  0  0  2  0  0  0  0  0  0
  185.3620  179.0170  142.9800 N   0  0  0  0  0  0  0  0  0  0  0  0
  185.9510  179.1040  141.7410 C   0  0  0  0  0  3  0  0  0  0  0  0
  181.5530  179.0690  140.8540 N   0  0  1  0  0  0  0  0  0  0  0  0
  185.1740  178.9630  140.5610 C   0  0  0  0  0  3  0  0  0  0  0  0
  179.9000  180.1450  139.3660 C   0  0  1  0  0  3  0  0  0  0  0  0
  179.1300  179.3350  140.3950 C   0  0  2  0  0  3  0  0  0  0  0  0
  179.3530  176.9600  141.3820 C   0  0  0  0  0  2  0  0  0  0  0  0
  178.9320  175.6530  141.1380 O   0  0  0  0  0  1  0  0  0  0  0  0
  182.1040  178.5950  137.5490 C   0  0  0  0  0  2  0  0  0  0  0  0
  182.6050  177.7340  136.3980 C   0  0  0  0  0  2  0  0  0  0  0  0
  181.7930  177.9830  135.1380 C   0  0  0  0  0  2  0  0  0  0  0  0
  180.4330  177.8290  135.4080 O   0  0  0  0  0  1  0  0  0  0  0  0
  1  4  1  0  0  0  0
  2  8  1  0  0  0  0
  2 10  1  0  0  0  0
  3 18  1  0  0  0  0
  4  6  1  0  0  0  0
  4  9  2  0  0  0  0
  5 12  2  0  0  0  0
  6  5  1  0  0  0  0
  7 16  1  0  0  0  0
  9 12  1  0  0  0  0
 10  1  1  0  0  0  0
 10 16  1  0  0  0  0
 11 19  1  0  0  0  0
 11 20  1  0  0  0  0
 13  8  1  0  0  0  0
 13 11  1  0  0  0  0
 14  9  1  0  0  0  0
 15 14  2  0  0  0  0
 16  6  1  0  0  0  0
 17  1  2  0  0  0  0
 17 15  1  0  0  0  0
 18 19  1  0  0  0  0
 18  7  1  0  0  0  0
 19  7  1  0  0  0  0
 21 20  1  0  0  0  0
 22  2  1  0  0  0  0
 23 22  1  0  0  0  0
 24 25  1  0  0  0  0
 24 23  1  0  0  0  0
M  END
>  <MODEL>
6

>  <REMARK>
 VINA RESULT:      -4.8      5.874      9.509
  Name = 
  4 active torsions:
  status: ('A' for Active; 'I' for Inactive)
    1  A    between atoms: N_2  and  C_9
    2  A    between atoms: C_3  and  C_14
    3  A    between atoms: C_5  and  C_9
    4  A    between atoms: C_5  and  C_17
                            x       y       z     vdW  Elec       q    Type
                         _______ _______ _______ _____ _____    ______ ____

>  <TORSDO>
F 4

$$$$
=
 OpenBabel11062418083D

 25 29  0  0  1  0  0  0  0  0999 V2000
  187.5460  177.9190  138.9780 C   0  0  0  0  0  0  0  0  0  0  0  0
  186.3490  177.9060  136.8590 N   0  0  0  0  0  0  0  0  0  0  0  0
  186.5940  173.2240  136.0210 C   0  0  0  0  0  1  0  0  0  0  0  0
  188.8920  177.7310  138.9350 C   0  0  0  0  0  0  0  0  0  0  0  0
  190.3260  176.1790  138.6090 C   0  0  0  0  0  3  0  0  0  0  0  0
  189.2770  176.8380  138.0620 N   0  0  0  0  0  0  0  0  0  0  0  0
  188.1270  174.9510  136.8970 C   0  0  1  0  0  3  0  0  0  0  0  0
  187.2290  178.2420  135.7220 C   0  0  0  0  0  2  0  0  0  0  0  0
  189.6570  177.7280  140.0510 C   0  0  0  0  0  0  0  0  0  0  0  0
  186.9630  177.0500  137.8890 C   0  0  1  0  0  3  0  0  0  0  0  0
  188.4470  176.2380  134.6260 C   0  0  2  0  0  3  0  0  0  0  0  0
  190.6260  176.7490  139.8640 C   0  0  0  0  0  3  0  0  0  0  0  0
  187.2430  177.1960  134.5940 C   0  0  0  0  0  2  0  0  0  0  0  0
  189.1360  178.1330  141.2410 N   0  0  0  0  0  0  0  0  0  0  0  0
  187.8090  178.4830  141.3110 C   0  0  0  0  0  3  0  0  0  0  0  0
  188.1590  176.3240  137.3940 N   0  0  1  0  0  0  0  0  0  0  0  0
  186.9580  178.3160  140.1870 C   0  0  0  0  0  3  0  0  0  0  0  0
  186.9300  174.6990  135.9970 C   0  0  1  0  0  3  0  0  0  0  0  0
  188.3030  174.8900  135.3760 C   0  0  2  0  0  3  0  0  0  0  0  0
  189.7910  176.9290  134.8370 C   0  0  0  0  0  2  0  0  0  0  0  0
  190.8110  175.9810  134.9040 O   0  0  0  0  0  1  0  0  0  0  0  0
  185.0760  177.3330  136.4290 C   0  0  0  0  0  2  0  0  0  0  0  0
  184.3080  176.7870  137.6250 C   0  0  0  0  0  2  0  0  0  0  0  0
  183.3800  177.8410  138.2040 C   0  0  0  0  0  2  0  0  0  0  0  0
  183.4460  177.8220  139.5970 O   0  0  0  0  0  1  0  0  0  0  0  0
  1 17  1  0  0  0  0
  2 10  1  0  0  0  0
  4  1  2  0  0  0  0
  4  9  1  0  0  0  0
  5 12  2  0  0  0  0
  6  5  1  0  0  0  0
  6  4  1  0  0  0  0
  7 16  1  0  0  0  0
  8  2  1  0  0  0  0
  9 14  2  0  0  0  0
 10  1  1  0  0  0  0
 11 20  1  0  0  0  0
 11 19  1  0  0  0  0
 12  9  1  0  0  0  0
 13 11  1  0  0  0  0
 13  8  1  0  0  0  0
 14 15  1  0  0  0  0
 16 10  1  0  0  0  0
 16  6  1  0  0  0  0
 17 15  2  0  0  0  0
 18  3  1  0  0  0  0
 18  7  1  0  0  0  0
 19 18  1  0  0  0  0
 19  7  1  0  0  0  0
 20 21  1  0  0  0  0
 22  2  1  0  0  0  0
 22 23  1  0  0  0  0
 23 24  1  0  0  0  0
 24 25  1  0  0  0  0
M  END
>  <MODEL>
7

>  <REMARK>
 VINA RESULT:      -4.7      3.422      6.618
  Name = 
  4 active torsions:
  status: ('A' for Active; 'I' for Inactive)
    1  A    between atoms: N_2  and  C_9
    2  A    between atoms: C_3  and  C_14
    3  A    between atoms: C_5  and  C_9
    4  A    between atoms: C_5  and  C_17
                            x       y       z     vdW  Elec       q    Type
                         _______ _______ _______ _____ _____    ______ ____

>  <TORSDO>
F 4

$$$$
=
 OpenBabel11062418083D

 25 29  0  0  1  0  0  0  0  0999 V2000
  181.6970  180.2390  138.3690 C   0  0  0  0  0  0  0  0  0  0  0  0
  182.4920  178.5130  139.8890 N   0  0  0  0  0  0  0  0  0  0  0  0
  185.8510  176.6730  137.0570 C   0  0  0  0  0  1  0  0  0  0  0  0
  180.9500  179.8380  137.3050 C   0  0  0  0  0  0  0  0  0  0  0  0
  181.1710  178.8590  135.4170 C   0  0  0  0  0  3  0  0  0  0  0  0
  181.3660  178.7300  136.7510 N   0  0  0  0  0  0  0  0  0  0  0  0
  183.5420  177.5030  136.7630 C   0  0  1  0  0  3  0  0  0  0  0  0
  181.6580  177.2960  139.8330 C   0  0  0  0  0  2  0  0  0  0  0  0
  180.4490  180.7120  136.4030 C   0  0  0  0  0  0  0  0  0  0  0  0
  182.7330  179.1630  138.5880 C   0  0  1  0  0  3  0  0  0  0  0  0
  182.3600  175.5440  138.0610 C   0  0  2  0  0  3  0  0  0  0  0  0
  180.5470  180.0980  135.1600 C   0  0  0  0  0  3  0  0  0  0  0  0
  182.4340  176.0030  139.5290 C   0  0  0  0  0  2  0  0  0  0  0  0
  180.4900  182.0510  136.6480 N   0  0  0  0  0  0  0  0  0  0  0  0
  181.1020  182.5070  137.7920 C   0  0  0  0  0  3  0  0  0  0  0  0
  182.4890  178.2550  137.4400 N   0  0  1  0  0  0  0  0  0  0  0  0
  181.7870  181.6090  138.6520 C   0  0  0  0  0  3  0  0  0  0  0  0
  184.5200  176.8820  137.7460 C   0  0  1  0  0  3  0  0  0  0  0  0
  183.4710  176.0060  137.0830 C   0  0  2  0  0  3  0  0  0  0  0  0
  180.9560  175.5700  137.4670 C   0  0  0  0  0  2  0  0  0  0  0  0
  180.9900  175.1470  136.1390 O   0  0  0  0  0  1  0  0  0  0  0  0
  183.7610  178.2880  140.5760 C   0  0  0  0  0  2  0  0  0  0  0  0
  183.6220  178.5900  142.0610 C   0  0  0  0  0  2  0  0  0  0  0  0
  184.9520  179.0180  142.6580 C   0  0  0  0  0  2  0  0  0  0  0  0
  185.6800  179.7530  141.7240 O   0  0  0  0  0  1  0  0  0  0  0  0
  1 10  1  0  0  0  0
  1 17  1  0  0  0  0
  2 22  1  0  0  0  0
  3 18  1  0  0  0  0
  4  1  2  0  0  0  0
  5  6  1  0  0  0  0
  6  4  1  0  0  0  0
  6 16  1  0  0  0  0
  7 19  1  0  0  0  0
  7 16  1  0  0  0  0
  7 18  1  0  0  0  0
  8  2  1  0  0  0  0
  9 14  2  0  0  0  0
  9  4  1  0  0  0  0
 10  2  1  0  0  0  0
 11 13  1  0  0  0  0
 12  5  2  0  0  0  0
 12  9  1  0  0  0  0
 13  8  1  0  0  0  0
 14 15  1  0  0  0  0
 15 17  2  0  0  0  0
 16 10  1  0  0  0  0
 19 18  1  0  0  0  0
 19 11  1  0  0  0  0
 20 11  1  0  0  0  0
 21 20  1  0  0  0  0
 22 23  1  0  0  0  0
 23 24  1  0  0  0  0
 25 24  1  0  0  0  0
M  END
>  <MODEL>
8

>  <REMARK>
 VINA RESULT:      -4.6      6.143      9.170
  Name = 
  4 active torsions:
  status: ('A' for Active; 'I' for Inactive)
    1  A    between atoms: N_2  and  C_9
    2  A    between atoms: C_3  and  C_14
    3  A    between atoms: C_5  and  C_9
    4  A    between atoms: C_5  and  C_17
                            x       y       z     vdW  Elec       q    Type
                         _______ _______ _______ _____ _____    ______ ____

>  <TORSDO>
F 4

$$$$
=
 OpenBabel11062418083D

 25 29  0  0  1  0  0  0  0  0999 V2000
  184.7970  178.7520  140.0040 C   0  0  0  0  0  0  0  0  0  0  0  0
  182.4800  179.3840  140.3940 N   0  0  0  0  0  0  0  0  0  0  0  0
  180.5430  175.0700  139.8270 C   0  0  0  0  0  1  0  0  0  0  0  0
  185.1600  178.4700  138.7230 C   0  0  0  0  0  0  0  0  0  0  0  0
  184.9280  176.9390  137.2490 C   0  0  0  0  0  3  0  0  0  0  0  0
  184.2600  177.8020  138.0510 N   0  0  0  0  0  0  0  0  0  0  0  0
  182.3140  176.3790  138.7090 C   0  0  1  0  0  3  0  0  0  0  0  0
  181.8390  179.9250  139.1790 C   0  0  0  0  0  2  0  0  0  0  0  0
  186.4220  178.1170  138.3910 C   0  0  0  0  0  0  0  0  0  0  0  0
  183.3850  178.2440  140.1650 C   0  0  1  0  0  3  0  0  0  0  0  0
  180.7180  178.1740  137.6360 C   0  0  2  0  0  3  0  0  0  0  0  0
  186.3150  177.1400  137.4080 C   0  0  0  0  0  3  0  0  0  0  0  0
  180.5430  179.2060  138.7650 C   0  0  0  0  0  2  0  0  0  0  0  0
  187.4320  178.2450  139.2960 N   0  0  0  0  0  0  0  0  0  0  0  0
  187.1440  178.6760  140.5690 C   0  0  0  0  0  3  0  0  0  0  0  0
  183.1430  177.5720  138.8650 N   0  0  1  0  0  0  0  0  0  0  0  0
  185.7980  178.8740  140.9770 C   0  0  0  0  0  3  0  0  0  0  0  0
  181.0320  176.4680  139.5190 C   0  0  1  0  0  3  0  0  0  0  0  0
  180.9830  176.6950  138.0170 C   0  0  2  0  0  3  0  0  0  0  0  0
  181.5460  178.6720  136.4560 C   0  0  0  0  0  2  0  0  0  0  0  0
  180.8480  179.6620  135.7650 O   0  0  0  0  0  1  0  0  0  0  0  0
  181.5100  179.0500  141.4340 C   0  0  0  0  0  2  0  0  0  0  0  0
  182.1940  178.3260  142.5850 C   0  0  0  0  0  2  0  0  0  0  0  0
  182.7860  179.3140  143.5760 C   0  0  0  0  0  2  0  0  0  0  0  0
  182.8670  178.7330  144.8400 O   0  0  0  0  0  1  0  0  0  0  0  0
  1 10  1  0  0  0  0
  1 17  1  0  0  0  0
  2 22  1  0  0  0  0
  4  1  2  0  0  0  0
  5 12  2  0  0  0  0
  5  6  1  0  0  0  0
  6  4  1  0  0  0  0
  6 16  1  0  0  0  0
  7 16  1  0  0  0  0
  7 18  1  0  0  0  0
  8  2  1  0  0  0  0
  9  4  1  0  0  0  0
  9 14  2  0  0  0  0
 10  2  1  0  0  0  0
 11 19  1  0  0  0  0
 11 13  1  0  0  0  0
 12  9  1  0  0  0  0
 13  8  1  0  0  0  0
 14 15  1  0  0  0  0
 15 17  2  0  0  0  0
 16 10  1  0  0  0  0
 18  3  1  0  0  0  0
 19  7  1  0  0  0  0
 19 18  1  0  0  0  0
 20 11  1  0  0  0  0
 21 20  1  0  0  0  0
 22 23  1  0  0  0  0
 23 24  1  0  0  0  0
 24 25  1  0  0  0  0
M  END
>  <MODEL>
9

>  <REMARK>
 VINA RESULT:      -4.5      4.716      8.296
  Name = 
  4 active torsions:
  status: ('A' for Active; 'I' for Inactive)
    1  A    between atoms: N_2  and  C_9
    2  A    between atoms: C_3  and  C_14
    3  A    between atoms: C_5  and  C_9
    4  A    between atoms: C_5  and  C_17
                            x       y       z     vdW  Elec       q    Type
                         _______ _______ _______ _____ _____    ______ ____

>  <TORSDO>
F 4

$$$$
