=
 OpenBabel11062412533D

 50 55  0  0  1  0  0  0  0  0999 V2000
  185.1680  178.2560  142.7920 C   0  0  2  0  0  0  0  0  0  0  0  0
  182.0140  172.2890  136.1560 C   0  0  0  0  0  3  0  0  0  0  0  0
  183.2540  175.0780  137.8600 C   0  0  2  0  0  3  0  0  0  0  0  0
  184.6200  176.8370  137.3210 C   0  0  0  0  0  2  0  0  0  0  0  0
  180.8210  172.8610  135.9410 C   0  0  0  0  0  3  0  0  0  0  0  0
  184.3960  172.7350  137.1700 C   0  0  0  0  0  0  0  0  0  0  0  0
  180.2250  177.0870  138.8210 C   0  0  0  0  0  3  0  0  0  0  0  0
  185.5790  177.8730  137.8860 C   0  0  0  0  0  2  0  0  0  0  0  0
  180.4850  178.3810  140.9110 C   0  0  1  0  0  3  0  0  0  0  0  0
  184.0100  178.0990  143.7750 C   0  0  2  0  0  3  0  0  0  0  0  0
  181.0850  175.3150  136.5330 N   0  0  0  0  0  0  0  0  0  0  0  0
  184.9340  178.7120  138.9810 C   0  0  0  0  0  2  0  0  0  0  0  0
  183.0300  180.3070  144.0540 C   0  0  0  0  0  2  0  0  0  0  0  0
  182.7880  178.9450  143.4440 C   0  0  2  0  0  3  0  0  0  0  0  0
  185.4440  172.1220  137.2750 O   0  0  0  0  0  0  0  0  0  0  0  0
  180.0100  178.5130  142.2210 O   0  0  0  0  0  0  0  0  0  0  0  0
  182.8720  172.8290  137.2520 C   0  0  1  0  0  3  0  0  0  0  0  0
  184.9790  177.9770  140.3070 C   0  0  0  0  0  2  0  0  0  0  0  0
  183.7370  174.3840  135.3610 C   0  0  0  0  0  1  0  0  0  0  0  0
  181.5410  178.3280  144.0460 C   0  0  0  0  0  2  0  0  0  0  0  0
  179.3370  174.0170  137.3850 O   0  0  0  0  0  0  0  0  0  0  0  0
  184.5290  180.4970  144.0330 C   0  0  0  0  0  2  0  0  0  0  0  0
  180.7500  177.5970  142.9760 C   0  0  0  0  0  2  0  0  0  0  0  0
  180.3790  174.0680  136.6800 C   0  0  0  0  0  0  0  0  0  0  0  0
  185.9480  178.6830  145.2660 C   0  0  0  0  0  1  0  0  0  0  0  0
  186.1070  177.2220  142.8360 O   0  0  0  0  0  1  0  0  0  0  0  0
  179.5580  177.4790  140.0980 C   0  0  0  0  0  2  0  0  0  0  0  0
  184.3640  175.8430  138.2780 O   0  0  0  0  0  0  0  0  0  0  0  0
  185.1310  179.1010  144.0560 C   0  0  2  0  0  0  0  0  0  0  0  0
  181.2350  176.2190  138.8270 C   0  0  0  0  0  3  0  0  0  0  0  0
  183.5930  174.0000  136.8360 C   0  0  1  0  0  0  0  0  0  0  0  0
  181.9640  175.8920  137.5660 C   0  0  1  0  0  3  0  0  0  0  0  0
  184.9650  178.9730  141.4540 C   0  0  0  0  0  2  0  0  0  0  0  0
  178.9310  183.1480  138.2340 O   0  0  0  0  0  0  0  0  0  0  0  0
  181.0470  179.6060  138.9060 O   0  0  0  0  0  0  0  0  0  0  0  0
  180.6180  179.7490  140.2410 C   0  0  1  0  0  3  0  0  0  0  0  0
  179.3100  180.5160  140.3260 C   0  0  0  0  0  2  0  0  0  0  0  0
  181.7370  180.7700  138.4830 C   0  0  1  0  0  3  0  0  0  0  0  0
  179.5760  182.0010  140.1660 C   0  0  0  0  0  2  0  0  0  0  0  0
  180.8220  181.8180  137.8430 C   0  0  0  0  0  2  0  0  0  0  0  0
  179.7290  182.3660  138.7210 C   0  0  0  0  0  0  0  0  0  0  0  0
  182.7680  181.3430  139.4580 C   0  0  0  0  0  1  0  0  0  0  0  0
  180.9460  176.0510  135.2840 C   0  0  0  0  0  2  0  0  0  0  0  0
  181.6000  177.4190  135.3890 C   0  0  0  0  0  2  0  0  0  0  0  0
  180.8100  178.4450  134.5940 C   0  0  0  0  0  2  0  0  0  0  0  0
  180.3040  179.5560  135.5020 C   0  0  2  0  0  3  0  0  0  0  0  0
  179.1810  179.1130  136.1750 F   0  0  0  0  0  0  0  0  0  0  0  0
  178.9310  181.5100  135.3450 F   0  0  0  0  0  0  0  0  0  0  0  0
  181.0630  181.6450  134.5950 F   0  0  0  0  0  0  0  0  0  0  0  0
  179.9560  180.8220  134.7250 C   0  0  0  0  0  3  0  0  0  0  0  0
  1 26  1  6  0  0  0
  1 10  1  0  0  0  0
  1 29  1  0  0  0  0
  2 17  1  0  0  0  0
  3 28  1  6  0  0  0
  4  8  1  0  0  0  0
  4 28  1  0  0  0  0
  5  2  2  0  0  0  0
  5 24  1  0  0  0  0
  6 17  1  0  0  0  0
  6 15  2  0  0  0  0
  7 30  2  0  0  0  0
  7 27  1  0  0  0  0
  8 12  1  0  0  0  0
  9 27  1  6  0  0  0
  9 16  1  0  0  0  0
 10 29  1  0  0  0  0
 11 24  1  0  0  0  0
 11 32  1  0  0  0  0
 12 18  1  0  0  0  0
 14 10  1  0  0  0  0
 14 20  1  0  0  0  0
 14 13  1  0  0  0  0
 16 23  1  0  0  0  0
 18 33  1  0  0  0  0
 19 31  1  0  0  0  0
 22 13  1  0  0  0  0
 22 29  1  0  0  0  0
 23 20  1  0  0  0  0
 24 21  2  0  0  0  0
 29 25  1  0  0  0  0
 31  6  1  0  0  0  0
 31 17  1  0  0  0  0
 31  3  1  0  0  0  0
 32  3  1  0  0  0  0
 32 30  1  0  0  0  0
 33  1  1  0  0  0  0
 34 41  2  0  0  0  0
 35 36  1  0  0  0  0
 36 37  1  0  0  0  0
 36  9  1  0  0  0  0
 38 35  1  0  0  0  0
 38 42  1  0  0  0  0
 39 37  1  0  0  0  0
 40 38  1  0  0  0  0
 40 41  1  0  0  0  0
 41 39  1  0  0  0  0
 43 44  1  0  0  0  0
 43 11  1  0  0  0  0
 45 44  1  0  0  0  0
 45 46  1  0  0  0  0
 46 47  1  0  0  0  0
 49 50  1  0  0  0  0
 50 48  1  0  0  0  0
 50 46  1  0  0  0  0
M  END
>  <MODEL>
1

>  <REMARK>
 VINA RESULT:      -3.0      0.000      0.000
  Name = 
  6 active torsions:
  status: ('A' for Active; 'I' for Inactive)
    1  A    between atoms: C_10  and  C_13
    2  A    between atoms: C_10  and  N_16
    3  A    between atoms: C_13  and  C_18
    4  A    between atoms: C_14  and  C_21
    5  A    between atoms: C_17  and  C_18
    6  A    between atoms: C_17  and  C_37
                            x       y       z     vdW  Elec       q    Type
                         _______ _______ _______ _____ _____    ______ ____

>  <TORSDO>
F 6

$$$$
=
 OpenBabel11062412533D

 50 55  0  0  1  0  0  0  0  0999 V2000
  182.1680  172.6370  135.7700 C   0  0  2  0  0  0  0  0  0  0  0  0
  191.3220  174.9190  135.0120 C   0  0  0  0  0  3  0  0  0  0  0  0
  188.1480  174.0960  136.2210 C   0  0  2  0  0  3  0  0  0  0  0  0
  187.3450  173.0130  138.0740 C   0  0  0  0  0  2  0  0  0  0  0  0
  191.2350  176.1850  135.4410 C   0  0  0  0  0  3  0  0  0  0  0  0
  190.0470  172.6220  135.0020 C   0  0  0  0  0  0  0  0  0  0  0  0
  186.4120  177.3830  136.7860 C   0  0  0  0  0  3  0  0  0  0  0  0
  186.1740  172.2140  138.6270 C   0  0  0  0  0  2  0  0  0  0  0  0
  183.9600  177.3020  136.4870 C   0  0  1  0  0  3  0  0  0  0  0  0
  181.6060  173.7500  134.8890 C   0  0  2  0  0  3  0  0  0  0  0  0
  189.2180  176.2870  136.9780 N   0  0  0  0  0  0  0  0  0  0  0  0
  184.8570  172.9690  138.5000 C   0  0  0  0  0  2  0  0  0  0  0  0
  180.0950  175.0470  136.2850 C   0  0  0  0  0  2  0  0  0  0  0  0
  181.4410  175.0880  135.5980 C   0  0  2  0  0  3  0  0  0  0  0  0
  190.2570  171.4930  134.5940 O   0  0  0  0  0  0  0  0  0  0  0  0
  182.9040  177.7800  135.7030 O   0  0  0  0  0  0  0  0  0  0  0  0
  190.0590  174.1420  134.8370 C   0  0  1  0  0  3  0  0  0  0  0  0
  184.2850  172.8030  137.1050 C   0  0  0  0  0  2  0  0  0  0  0  0
  190.4760  173.5350  137.3280 C   0  0  0  0  0  1  0  0  0  0  0  0
  181.4700  176.2240  134.5940 C   0  0  0  0  0  2  0  0  0  0  0  0
  189.5240  177.8140  135.2350 O   0  0  0  0  0  0  0  0  0  0  0  0
  179.8600  173.5940  136.6250 C   0  0  0  0  0  2  0  0  0  0  0  0
  182.8260  176.9050  134.6150 C   0  0  0  0  0  2  0  0  0  0  0  0
  189.9470  176.7970  135.8450 C   0  0  0  0  0  0  0  0  0  0  0  0
  179.9140  171.9090  134.6290 C   0  0  0  0  0  1  0  0  0  0  0  0
  182.6980  171.5530  135.0650 O   0  0  0  0  0  1  0  0  0  0  0  0
  185.2360  178.0900  136.1980 C   0  0  0  0  0  2  0  0  0  0  0  0
  187.2470  173.1100  136.6770 O   0  0  0  0  0  0  0  0  0  0  0  0
  180.6620  172.7900  135.6140 C   0  0  2  0  0  0  0  0  0  0  0  0
  186.8620  176.2550  136.2390 C   0  0  0  0  0  3  0  0  0  0  0  0
  189.5850  173.6080  136.0840 C   0  0  1  0  0  0  0  0  0  0  0  0
  187.9800  175.4950  136.8740 C   0  0  1  0  0  3  0  0  0  0  0  0
  182.7750  172.9560  137.1400 C   0  0  0  0  0  2  0  0  0  0  0  0
  180.8230  177.0250  141.2190 O   0  0  0  0  0  0  0  0  0  0  0  0
  183.3530  178.7140  138.3520 O   0  0  0  0  0  0  0  0  0  0  0  0
  183.6110  177.3800  137.9740 C   0  0  1  0  0  3  0  0  0  0  0  0
  182.4360  176.4730  138.2960 C   0  0  0  0  0  2  0  0  0  0  0  0
  183.6280  178.8980  139.7300 C   0  0  1  0  0  3  0  0  0  0  0  0
  182.4370  176.1410  139.7760 C   0  0  0  0  0  2  0  0  0  0  0  0
  182.4150  178.6420  140.6290 C   0  0  0  0  0  2  0  0  0  0  0  0
  181.8330  177.2540  140.5770 C   0  0  0  0  0  0  0  0  0  0  0  0
  184.9370  178.2980  140.2490 C   0  0  0  0  0  1  0  0  0  0  0  0
  189.7390  176.5450  138.3140 C   0  0  0  0  0  2  0  0  0  0  0  0
  188.7290  177.3190  139.1450 C   0  0  0  0  0  2  0  0  0  0  0  0
  189.4340  178.1050  140.2370 C   0  0  0  0  0  2  0  0  0  0  0  0
  188.6550  178.0310  141.5430 C   0  0  2  0  0  3  0  0  0  0  0  0
  189.1320  178.9970  142.4080 F   0  0  0  0  0  0  0  0  0  0  0  0
  189.9340  176.5760  142.9480 F   0  0  0  0  0  0  0  0  0  0  0  0
  187.6770  176.4080  143.0160 F   0  0  0  0  0  0  0  0  0  0  0  0
  188.7710  176.6620  142.2060 C   0  0  0  0  0  3  0  0  0  0  0  0
  1 26  1  6  0  0  0
  1 33  1  0  0  0  0
  2  5  2  0  0  0  0
  3 28  1  1  0  0  0
  3 32  1  0  0  0  0
  4  8  1  0  0  0  0
  5 24  1  0  0  0  0
  6 31  1  0  0  0  0
  9 27  1  1  0  0  0
  9 36  1  0  0  0  0
 10 14  1  0  0  0  0
 10 29  1  0  0  0  0
 10  1  1  0  0  0  0
 11 43  1  0  0  0  0
 12  8  1  0  0  0  0
 13 22  1  0  0  0  0
 14 13  1  0  0  0  0
 15  6  2  0  0  0  0
 16  9  1  0  0  0  0
 17  6  1  0  0  0  0
 17  2  1  0  0  0  0
 17 31  1  0  0  0  0
 18 33  1  0  0  0  0
 18 12  1  0  0  0  0
 20 23  1  0  0  0  0
 20 14  1  0  0  0  0
 21 24  2  0  0  0  0
 23 16  1  0  0  0  0
 24 11  1  0  0  0  0
 25 29  1  0  0  0  0
 27  7  1  0  0  0  0
 28  4  1  0  0  0  0
 29  1  1  0  0  0  0
 29 22  1  0  0  0  0
 30  7  2  0  0  0  0
 30 32  1  0  0  0  0
 31  3  1  0  0  0  0
 31 19  1  0  0  0  0
 32 11  1  0  0  0  0
 35 38  1  0  0  0  0
 36 37  1  0  0  0  0
 36 35  1  0  0  0  0
 37 39  1  0  0  0  0
 38 42  1  0  0  0  0
 38 40  1  0  0  0  0
 39 41  1  0  0  0  0
 41 40  1  0  0  0  0
 41 34  2  0  0  0  0
 43 44  1  0  0  0  0
 44 45  1  0  0  0  0
 45 46  1  0  0  0  0
 46 50  1  0  0  0  0
 46 47  1  0  0  0  0
 50 48  1  0  0  0  0
 50 49  1  0  0  0  0
M  END
>  <MODEL>
2

>  <REMARK>
 VINA RESULT:      -2.0      4.540      8.389
  Name = 
  6 active torsions:
  status: ('A' for Active; 'I' for Inactive)
    1  A    between atoms: C_10  and  C_13
    2  A    between atoms: C_10  and  N_16
    3  A    between atoms: C_13  and  C_18
    4  A    between atoms: C_14  and  C_21
    5  A    between atoms: C_17  and  C_18
    6  A    between atoms: C_17  and  C_37
                            x       y       z     vdW  Elec       q    Type
                         _______ _______ _______ _____ _____    ______ ____

>  <TORSDO>
F 6

$$$$
=
 OpenBabel11062412533D

 50 55  0  0  1  0  0  0  0  0999 V2000
  187.0540  178.6290  141.2560 C   0  0  2  0  0  0  0  0  0  0  0  0
  179.1310  181.4720  136.9270 C   0  0  0  0  0  3  0  0  0  0  0  0
  181.5520  179.6240  138.6420 C   0  0  2  0  0  3  0  0  0  0  0  0
  181.5120  177.9560  140.2130 C   0  0  0  0  0  2  0  0  0  0  0  0
  179.2470  180.7290  135.8180 C   0  0  0  0  0  3  0  0  0  0  0  0
  179.9900  181.6870  139.4000 C   0  0  0  0  0  0  0  0  0  0  0  0
  183.4430  177.7510  135.9880 C   0  0  0  0  0  3  0  0  0  0  0  0
  182.2980  177.3020  141.3400 C   0  0  0  0  0  2  0  0  0  0  0  0
  185.8120  177.3160  136.5420 C   0  0  1  0  0  3  0  0  0  0  0  0
  188.0350  178.9900  140.1430 C   0  0  2  0  0  3  0  0  0  0  0  0
  180.6130  178.6880  136.4590 N   0  0  0  0  0  0  0  0  0  0  0  0
  183.6730  176.8350  140.8810 C   0  0  0  0  0  2  0  0  0  0  0  0
  189.1500  176.9250  139.5040 C   0  0  0  0  0  2  0  0  0  0  0  0
  188.1390  177.9480  139.0380 C   0  0  2  0  0  3  0  0  0  0  0  0
  179.7720  182.4130  140.3550 O   0  0  0  0  0  0  0  0  0  0  0  0
  187.1290  177.6010  136.1640 O   0  0  0  0  0  0  0  0  0  0  0  0
  180.2530  181.4550  137.9120 C   0  0  1  0  0  3  0  0  0  0  0  0
  184.6550  177.9900  140.8940 C   0  0  0  0  0  2  0  0  0  0  0  0
  178.9310  179.4420  138.8840 C   0  0  0  0  0  1  0  0  0  0  0  0
  188.6160  178.5910  137.7500 C   0  0  0  0  0  2  0  0  0  0  0  0
  181.1410  179.9940  134.5940 O   0  0  0  0  0  0  0  0  0  0  0  0
  189.0440  176.9130  141.0110 C   0  0  0  0  0  2  0  0  0  0  0  0
  187.4460  178.8020  136.8070 C   0  0  0  0  0  2  0  0  0  0  0  0
  180.3950  179.8180  135.5920 C   0  0  0  0  0  0  0  0  0  0  0  0
  189.4320  179.1940  142.2230 C   0  0  0  0  0  1  0  0  0  0  0  0
  186.6460  179.7130  142.0400 O   0  0  0  0  0  1  0  0  0  0  0  0
  184.8380  177.7610  135.4540 C   0  0  0  0  0  2  0  0  0  0  0  0
  182.0920  179.1870  139.8710 O   0  0  0  0  0  0  0  0  0  0  0  0
  188.5270  178.2860  141.4090 C   0  0  2  0  0  0  0  0  0  0  0  0
  183.0500  178.6750  136.8620 C   0  0  0  0  0  3  0  0  0  0  0  0
  180.1930  180.3020  138.7680 C   0  0  1  0  0  0  0  0  0  0  0  0
  181.6860  178.6170  137.4670 C   0  0  1  0  0  3  0  0  0  0  0  0
  186.0690  177.4680  141.0850 C   0  0  0  0  0  2  0  0  0  0  0  0
  186.9400  171.7450  136.5090 O   0  0  0  0  0  0  0  0  0  0  0  0
  184.7300  175.2450  135.9250 O   0  0  0  0  0  0  0  0  0  0  0  0
  185.6410  175.8240  136.8320 C   0  0  1  0  0  3  0  0  0  0  0  0
  186.9850  175.1160  136.7990 C   0  0  0  0  0  2  0  0  0  0  0  0
  184.1110  174.1100  136.5050 C   0  0  1  0  0  3  0  0  0  0  0  0
  186.8990  173.8200  137.5840 C   0  0  0  0  0  2  0  0  0  0  0  0
  184.8660  172.8050  136.2360 C   0  0  0  0  0  2  0  0  0  0  0  0
  186.2750  172.7340  136.7620 C   0  0  0  0  0  0  0  0  0  0  0  0
  183.6130  174.2660  137.9440 C   0  0  0  0  0  1  0  0  0  0  0  0
  179.7120  177.5490  136.3590 C   0  0  0  0  0  2  0  0  0  0  0  0
  180.1830  176.4090  137.2460 C   0  0  0  0  0  2  0  0  0  0  0  0
  179.1020  175.3490  137.3670 C   0  0  0  0  0  2  0  0  0  0  0  0
  179.5860  174.1780  138.2090 C   0  0  2  0  0  3  0  0  0  0  0  0
  180.5260  174.6310  139.1140 F   0  0  0  0  0  0  0  0  0  0  0  0
  180.5960  172.0090  138.1470 F   0  0  0  0  0  0  0  0  0  0  0  0
  179.3110  172.6350  136.3910 F   0  0  0  0  0  0  0  0  0  0  0  0
  180.2020  173.0720  137.3570 C   0  0  0  0  0  3  0  0  0  0  0  0
  1 29  1  0  0  0  0
  1 26  1  1  0  0  0
  2 17  1  0  0  0  0
  3 31  1  0  0  0  0
  3 28  1  1  0  0  0
  4  8  1  0  0  0  0
  5  2  2  0  0  0  0
  6 15  2  0  0  0  0
  7 30  2  0  0  0  0
  9 27  1  6  0  0  0
  9 36  1  0  0  0  0
 10  1  1  0  0  0  0
 10 29  1  0  0  0  0
 11 32  1  0  0  0  0
 12 18  1  0  0  0  0
 12  8  1  0  0  0  0
 13 22  1  0  0  0  0
 14 13  1  0  0  0  0
 14 10  1  0  0  0  0
 16  9  1  0  0  0  0
 16 23  1  0  0  0  0
 17 31  1  0  0  0  0
 17  6  1  0  0  0  0
 18 33  1  0  0  0  0
 20 14  1  0  0  0  0
 21 24  2  0  0  0  0
 22 29  1  0  0  0  0
 23 20  1  0  0  0  0
 24  5  1  0  0  0  0
 24 11  1  0  0  0  0
 27  7  1  0  0  0  0
 28  4  1  0  0  0  0
 29 25  1  0  0  0  0
 30 32  1  0  0  0  0
 31 19  1  0  0  0  0
 31  6  1  0  0  0  0
 32  3  1  0  0  0  0
 33  1  1  0  0  0  0
 34 41  2  0  0  0  0
 35 38  1  0  0  0  0
 35 36  1  0  0  0  0
 37 36  1  0  0  0  0
 37 39  1  0  0  0  0
 38 42  1  0  0  0  0
 40 38  1  0  0  0  0
 40 41  1  0  0  0  0
 41 39  1  0  0  0  0
 43 11  1  0  0  0  0
 43 44  1  0  0  0  0
 44 45  1  0  0  0  0
 45 46  1  0  0  0  0
 46 47  1  0  0  0  0
 49 50  1  0  0  0  0
 50 48  1  0  0  0  0
 50 46  1  0  0  0  0
M  END
>  <MODEL>
3

>  <REMARK>
 VINA RESULT:      -0.8      2.861      7.298
  Name = 
  6 active torsions:
  status: ('A' for Active; 'I' for Inactive)
    1  A    between atoms: C_10  and  C_13
    2  A    between atoms: C_10  and  N_16
    3  A    between atoms: C_13  and  C_18
    4  A    between atoms: C_14  and  C_21
    5  A    between atoms: C_17  and  C_18
    6  A    between atoms: C_17  and  C_37
                            x       y       z     vdW  Elec       q    Type
                         _______ _______ _______ _____ _____    ______ ____

>  <TORSDO>
F 6

$$$$
