=
 OpenBabel11062412443D

 32 35  0  0  1  0  0  0  0  0999 V2000
  193.2910  176.3410  138.2020 C   0  0  0  0  0  2  0  0  0  0  0  0
  190.9500  176.5230  139.1980 C   0  0  2  0  0  3  0  0  0  0  0  0
  188.7560  177.4330  139.4100 N   0  0  0  0  0  2  0  0  0  0  0  0
  192.9290  174.8850  137.9280 C   0  0  0  0  0  2  0  0  0  0  0  0
  188.9670  177.1420  137.9920 C   0  0  2  0  0  3  0  0  0  0  0  0
  192.4160  176.9440  139.3060 C   0  0  0  0  0  2  0  0  0  0  0  0
  190.6060  175.4860  136.9690 C   0  0  0  0  0  0  0  0  0  0  0  0
  190.4240  176.7280  137.8060 C   0  0  2  0  0  3  0  0  0  0  0  0
  189.6840  175.1090  136.1980 O   0  0  0  0  0  0  0  0  0  0  0  0
  191.8570  174.7770  136.9390 N   0  0  0  0  0  2  0  0  0  0  0  0
  190.0600  177.3780  140.0600 C   0  0  1  0  0  3  0  0  0  0  0  0
  188.6580  178.3840  137.1560 C   0  0  2  0  0  3  0  0  0  0  0  0
  188.8860  179.5400  137.9050 O   0  0  0  0  0  1  0  0  0  0  0  0
  187.2130  178.3720  136.6890 C   0  0  0  0  0  2  0  0  0  0  0  0
  186.3640  178.9710  137.7040 N   0  0  0  0  0  2  0  0  0  0  0  0
  185.2590  178.0550  137.9340 C   0  0  0  0  0  2  0  0  0  0  0  0
  184.2750  178.6550  138.9270 C   0  0  0  0  0  2  0  0  0  0  0  0
  184.3780  179.1000  141.0880 C   0  0  0  0  0  1  0  0  0  0  0  0
  184.9550  179.4340  139.8640 O   0  0  0  0  0  0  0  0  0  0  0  0
  189.9370  176.7640  141.4460 C   0  0  0  0  0  2  0  0  0  0  0  0
  191.5360  177.5700  144.1070 C   0  0  0  0  0  3  0  0  0  0  0  0
  189.5510  177.8210  142.4710 C   0  0  2  0  0  3  0  0  0  0  0  0
  189.4070  177.2350  144.8000 C   0  0  0  0  0  0  0  0  0  0  0  0
  187.3070  178.2550  145.0780 O   0  0  0  0  0  1  0  0  0  0  0  0
  191.5680  177.2000  145.5750 C   0  0  0  0  0  2  0  0  0  0  0  0
  190.2670  177.5650  143.7400 C   0  0  0  0  0  0  0  0  0  0  0  0
  187.1610  177.7430  142.2090 O   0  0  0  0  0  0  0  0  0  0  0  0
  187.9810  177.2350  144.4060 C   0  0  1  0  0  3  0  0  0  0  0  0
  190.1100  176.9990  145.8930 C   0  0  0  0  0  0  0  0  0  0  0  0
  188.1260  177.6050  142.9440 C   0  0  0  0  0  0  0  0  0  0  0  0
  189.6240  176.6210  147.1480 O   0  0  0  0  0  0  0  0  0  0  0  0
  188.9590  177.5180  148.0250 C   0  0  0  0  0  1  0  0  0  0  0  0
  1  6  1  0  0  0  0
  2  6  1  6  0  0  0
  2 11  1  0  0  0  0
  3 11  1  0  0  0  0
  4  1  1  0  0  0  0
  5 12  1  6  0  0  0
  5  3  1  0  0  0  0
  8  7  1  6  0  0  0
  8  5  1  0  0  0  0
  8  2  1  0  0  0  0
  9  7  2  0  0  0  0
 10  7  1  0  0  0  0
 10  4  1  0  0  0  0
 11 20  1  1  0  0  0
 12 13  1  1  0  0  0
 14 12  1  0  0  0  0
 14 15  1  0  0  0  0
 15 16  1  0  0  0  0
 16 17  1  0  0  0  0
 17 19  1  0  0  0  0
 19 18  1  0  0  0  0
 21 25  1  0  0  0  0
 22 20  1  6  0  0  0
 22 30  1  0  0  0  0
 22 26  1  0  0  0  0
 23 29  2  0  0  0  0
 25 29  1  0  0  0  0
 26 21  2  0  0  0  0
 26 23  1  0  0  0  0
 27 30  2  0  0  0  0
 28 23  1  0  0  0  0
 28 24  1  1  0  0  0
 29 31  1  0  0  0  0
 30 28  1  0  0  0  0
 31 32  1  0  0  0  0
M  END
>  <MODEL>
1

>  <REMARK>
 VINA RESULT:      -7.6      0.000      0.000
  Name = 
  9 active torsions:
  status: ('A' for Active; 'I' for Inactive)
    1  A    between atoms: O_2  and  C_30
    2  A    between atoms: C_7  and  N_24
    3  A    between atoms: C_7  and  C_29
    4  A    between atoms: O_8  and  C_20
    5  A    between atoms: C_11  and  C_19
    6  A    between atoms: C_13  and  C_29
    7  A    between atoms: C_16  and  C_20
    8  A    between atoms: C_16  and  N_24
    9  A    between atoms: C_19  and  C_28
                            x       y       z     vdW  Elec       q    Type
                         _______ _______ _______ _____ _____    ______ ____

>  <TORSDO>
F 9

$$$$
=
 OpenBabel11062412443D

 32 35  0  0  1  0  0  0  0  0999 V2000
  184.6560  178.4760  138.3100 C   0  0  0  0  0  2  0  0  0  0  0  0
  183.6100  178.1860  140.6180 C   0  0  2  0  0  3  0  0  0  0  0  0
  182.1300  178.7370  142.4060 N   0  0  0  0  0  2  0  0  0  0  0  0
  184.2240  177.0340  138.0670 C   0  0  0  0  0  2  0  0  0  0  0  0
  181.3270  178.6750  141.1840 C   0  0  2  0  0  3  0  0  0  0  0  0
  184.7550  178.7930  139.8060 C   0  0  0  0  0  2  0  0  0  0  0  0
  181.8590  177.4220  139.0330 C   0  0  0  0  0  0  0  0  0  0  0  0
  182.2770  178.5010  140.0020 C   0  0  2  0  0  3  0  0  0  0  0  0
  180.6630  177.0260  139.0140 O   0  0  0  0  0  0  0  0  0  0  0  0
  182.7670  176.9100  138.0430 N   0  0  0  0  0  2  0  0  0  0  0  0
  183.5300  178.7810  141.9990 C   0  0  1  0  0  3  0  0  0  0  0  0
  180.5180  179.9620  141.0290 C   0  0  2  0  0  3  0  0  0  0  0  0
  180.1900  180.4800  142.2830 O   0  0  0  0  0  1  0  0  0  0  0  0
  179.2410  179.7030  140.2490 C   0  0  0  0  0  2  0  0  0  0  0  0
  179.3470  180.2880  138.9240 N   0  0  0  0  0  2  0  0  0  0  0  0
  179.9740  181.5900  139.0780 C   0  0  0  0  0  2  0  0  0  0  0  0
  180.3420  182.1620  137.7170 C   0  0  0  0  0  2  0  0  0  0  0  0
  181.1770  184.0630  136.9640 C   0  0  0  0  0  1  0  0  0  0  0  0
  181.4450  183.0090  137.8360 O   0  0  0  0  0  0  0  0  0  0  0  0
  184.3870  177.9730  142.9610 C   0  0  0  0  0  2  0  0  0  0  0  0
  187.5300  177.9380  143.6030 C   0  0  0  0  0  3  0  0  0  0  0  0
  185.1480  178.8920  143.9070 C   0  0  2  0  0  3  0  0  0  0  0  0
  186.5330  177.9530  145.6350 C   0  0  0  0  0  0  0  0  0  0  0  0
  185.6340  179.3370  147.3110 O   0  0  0  0  0  1  0  0  0  0  0  0
  188.4840  177.3190  144.6040 C   0  0  0  0  0  2  0  0  0  0  0  0
  186.4390  178.2710  144.2710 C   0  0  0  0  0  0  0  0  0  0  0  0
  183.3770  179.3780  145.4620 O   0  0  0  0  0  0  0  0  0  0  0  0
  185.3220  178.3300  146.3980 C   0  0  1  0  0  3  0  0  0  0  0  0
  187.6970  177.3840  145.8860 C   0  0  0  0  0  0  0  0  0  0  0  0
  184.4890  178.9090  145.2730 C   0  0  0  0  0  0  0  0  0  0  0  0
  188.1590  176.9060  147.1160 O   0  0  0  0  0  0  0  0  0  0  0  0
  188.6670  177.7530  148.1370 C   0  0  0  0  0  1  0  0  0  0  0  0
  1  6  1  0  0  0  0
  2  6  1  6  0  0  0
  2 11  1  0  0  0  0
  4  1  1  0  0  0  0
  5 12  1  6  0  0  0
  5  3  1  0  0  0  0
  8  7  1  6  0  0  0
  8  2  1  0  0  0  0
  8  5  1  0  0  0  0
  9  7  2  0  0  0  0
 10  4  1  0  0  0  0
 10  7  1  0  0  0  0
 11  3  1  0  0  0  0
 11 20  1  1  0  0  0
 12 13  1  1  0  0  0
 14 12  1  0  0  0  0
 15 16  1  0  0  0  0
 15 14  1  0  0  0  0
 17 19  1  0  0  0  0
 17 16  1  0  0  0  0
 18 19  1  0  0  0  0
 21 26  2  0  0  0  0
 21 25  1  0  0  0  0
 22 20  1  6  0  0  0
 22 26  1  0  0  0  0
 22 30  1  0  0  0  0
 23 29  2  0  0  0  0
 23 28  1  0  0  0  0
 25 29  1  0  0  0  0
 26 23  1  0  0  0  0
 28 24  1  1  0  0  0
 29 31  1  0  0  0  0
 30 27  2  0  0  0  0
 30 28  1  0  0  0  0
 31 32  1  0  0  0  0
M  END
>  <MODEL>
2

>  <REMARK>
 VINA RESULT:      -7.4      4.916      6.715
  Name = 
  9 active torsions:
  status: ('A' for Active; 'I' for Inactive)
    1  A    between atoms: O_2  and  C_30
    2  A    between atoms: C_7  and  N_24
    3  A    between atoms: C_7  and  C_29
    4  A    between atoms: O_8  and  C_20
    5  A    between atoms: C_11  and  C_19
    6  A    between atoms: C_13  and  C_29
    7  A    between atoms: C_16  and  C_20
    8  A    between atoms: C_16  and  N_24
    9  A    between atoms: C_19  and  C_28
                            x       y       z     vdW  Elec       q    Type
                         _______ _______ _______ _____ _____    ______ ____

>  <TORSDO>
F 9

$$$$
=
 OpenBabel11062412443D

 32 35  0  0  1  0  0  0  0  0999 V2000
  180.8440  178.0850  141.0820 C   0  0  0  0  0  2  0  0  0  0  0  0
  183.2510  178.9270  141.0510 C   0  0  2  0  0  3  0  0  0  0  0  0
  185.4570  179.1350  140.1700 N   0  0  0  0  0  2  0  0  0  0  0  0
  180.4560  179.5590  141.1290 C   0  0  0  0  0  2  0  0  0  0  0  0
  184.5270  179.4240  139.0770 C   0  0  2  0  0  3  0  0  0  0  0  0
  182.2810  177.8610  141.5620 C   0  0  0  0  0  2  0  0  0  0  0  0
  182.1130  180.2080  139.2550 C   0  0  0  0  0  0  0  0  0  0  0  0
  183.1130  179.1240  139.5680 C   0  0  2  0  0  3  0  0  0  0  0  0
  182.3580  181.0440  138.3440 O   0  0  0  0  0  0  0  0  0  0  0  0
  180.8250  180.2480  139.8920 N   0  0  0  0  0  2  0  0  0  0  0  0
  184.6860  178.5110  141.2390 C   0  0  1  0  0  3  0  0  0  0  0  0
  184.8640  178.5560  137.8650 C   0  0  2  0  0  3  0  0  0  0  0  0
  183.9790  177.4800  137.7810 O   0  0  0  0  0  1  0  0  0  0  0  0
  186.2840  178.0250  137.9630 C   0  0  0  0  0  2  0  0  0  0  0  0
  187.1890  178.9090  137.2480 N   0  0  0  0  0  2  0  0  0  0  0  0
  188.5290  178.3680  137.4040 C   0  0  0  0  0  2  0  0  0  0  0  0
  188.9440  178.4000  138.8670 C   0  0  0  0  0  2  0  0  0  0  0  0
  190.6360  177.3940  139.8680 C   0  0  0  0  0  1  0  0  0  0  0  0
  189.4070  177.1430  139.2600 O   0  0  0  0  0  0  0  0  0  0  0  0
  185.1860  178.9790  142.5960 C   0  0  0  0  0  2  0  0  0  0  0  0
  184.5150  178.3190  145.6630 C   0  0  0  0  0  3  0  0  0  0  0  0
  185.6890  177.8010  143.4200 C   0  0  2  0  0  3  0  0  0  0  0  0
  186.7710  178.1910  145.5330 C   0  0  0  0  0  0  0  0  0  0  0  0
  188.5780  176.7700  145.0360 O   0  0  0  0  0  1  0  0  0  0  0  0
  185.0850  178.5890  147.0390 C   0  0  0  0  0  2  0  0  0  0  0  0
  185.5420  178.1040  144.8590 C   0  0  0  0  0  0  0  0  0  0  0  0
  187.7910  177.4350  142.3060 O   0  0  0  0  0  0  0  0  0  0  0  0
  187.9310  177.9430  144.6470 C   0  0  1  0  0  3  0  0  0  0  0  0
  186.5690  178.4840  146.8040 C   0  0  0  0  0  0  0  0  0  0  0  0
  187.2020  177.7070  143.3410 C   0  0  0  0  0  0  0  0  0  0  0  0
  187.5370  178.6770  147.7940 O   0  0  0  0  0  0  0  0  0  0  0  0
  188.0530  177.6210  148.5920 C   0  0  0  0  0  1  0  0  0  0  0  0
  1  4  1  0  0  0  0
  1  6  1  0  0  0  0
  2 11  1  0  0  0  0
  2  6  1  6  0  0  0
  3 11  1  0  0  0  0
  5 12  1  6  0  0  0
  5  8  1  0  0  0  0
  5  3  1  0  0  0  0
  7 10  1  0  0  0  0
  8  7  1  1  0  0  0
  8  2  1  0  0  0  0
  9  7  2  0  0  0  0
 10  4  1  0  0  0  0
 11 20  1  1  0  0  0
 12 13  1  1  0  0  0
 12 14  1  0  0  0  0
 15 16  1  0  0  0  0
 15 14  1  0  0  0  0
 16 17  1  0  0  0  0
 17 19  1  0  0  0  0
 19 18  1  0  0  0  0
 21 25  1  0  0  0  0
 22 20  1  6  0  0  0
 22 26  1  0  0  0  0
 23 29  2  0  0  0  0
 26 23  1  0  0  0  0
 26 21  2  0  0  0  0
 27 30  2  0  0  0  0
 28 24  1  1  0  0  0
 28 23  1  0  0  0  0
 29 25  1  0  0  0  0
 29 31  1  0  0  0  0
 30 22  1  0  0  0  0
 30 28  1  0  0  0  0
 31 32  1  0  0  0  0
M  END
>  <MODEL>
3

>  <REMARK>
 VINA RESULT:      -7.3      2.504      6.554
  Name = 
  9 active torsions:
  status: ('A' for Active; 'I' for Inactive)
    1  A    between atoms: O_2  and  C_30
    2  A    between atoms: C_7  and  N_24
    3  A    between atoms: C_7  and  C_29
    4  A    between atoms: O_8  and  C_20
    5  A    between atoms: C_11  and  C_19
    6  A    between atoms: C_13  and  C_29
    7  A    between atoms: C_16  and  C_20
    8  A    between atoms: C_16  and  N_24
    9  A    between atoms: C_19  and  C_28
                            x       y       z     vdW  Elec       q    Type
                         _______ _______ _______ _____ _____    ______ ____

>  <TORSDO>
F 9

$$$$
=
 OpenBabel11062412443D

 32 35  0  0  1  0  0  0  0  0999 V2000
  190.9910  178.5040  145.4640 C   0  0  0  0  0  2  0  0  0  0  0  0
  189.4960  177.4720  143.6730 C   0  0  2  0  0  3  0  0  0  0  0  0
  188.9020  176.8490  141.4490 N   0  0  0  0  0  2  0  0  0  0  0  0
  190.9370  177.1320  146.1280 C   0  0  0  0  0  2  0  0  0  0  0  0
  190.2660  176.3720  141.6810 C   0  0  2  0  0  3  0  0  0  0  0  0
  189.8150  178.7150  144.5040 C   0  0  0  0  0  2  0  0  0  0  0  0
  191.3840  175.8780  143.9130 C   0  0  0  0  0  0  0  0  0  0  0  0
  190.7330  176.9130  143.0300 C   0  0  2  0  0  3  0  0  0  0  0  0
  191.8400  174.8180  143.4060 O   0  0  0  0  0  0  0  0  0  0  0  0
  191.6070  176.1180  145.3130 N   0  0  0  0  0  2  0  0  0  0  0  0
  188.5880  177.7930  142.5160 C   0  0  1  0  0  3  0  0  0  0  0  0
  191.1850  176.8670  140.5640 C   0  0  2  0  0  3  0  0  0  0  0  0
  192.1450  177.7390  141.0790 O   0  0  0  0  0  1  0  0  0  0  0  0
  190.3870  177.5840  139.4900 C   0  0  0  0  0  2  0  0  0  0  0  0
  190.5030  176.8680  138.2310 N   0  0  0  0  0  2  0  0  0  0  0  0
  189.6670  177.5610  137.2640 C   0  0  0  0  0  2  0  0  0  0  0  0
  189.1370  178.8580  137.8580 C   0  0  0  0  0  2  0  0  0  0  0  0
  187.4400  178.1810  136.6180 C   0  0  0  0  0  1  0  0  0  0  0  0
  188.0670  179.3300  137.0970 O   0  0  0  0  0  0  0  0  0  0  0  0
  187.1360  177.6470  142.9420 C   0  0  0  0  0  2  0  0  0  0  0  0
  184.7890  179.0660  144.6070 C   0  0  0  0  0  3  0  0  0  0  0  0
  186.3310  178.8760  142.5420 C   0  0  2  0  0  3  0  0  0  0  0  0
  183.9280  178.7840  142.5320 C   0  0  0  0  0  0  0  0  0  0  0  0
  183.7530  179.7410  140.3910 O   0  0  0  0  0  1  0  0  0  0  0  0
  183.2800  179.0130  144.7230 C   0  0  0  0  0  2  0  0  0  0  0  0
  185.0780  178.9250  143.3250 C   0  0  0  0  0  0  0  0  0  0  0  0
  186.4420  178.6350  140.1510 O   0  0  0  0  0  0  0  0  0  0  0  0
  184.2360  178.6360  141.0920 C   0  0  1  0  0  3  0  0  0  0  0  0
  182.8500  178.8150  143.2940 C   0  0  0  0  0  0  0  0  0  0  0  0
  185.7480  178.6980  141.1530 C   0  0  0  0  0  0  0  0  0  0  0  0
  181.5190  178.6850  142.8850 O   0  0  0  0  0  0  0  0  0  0  0  0
  180.4250  178.6770  143.7920 C   0  0  0  0  0  1  0  0  0  0  0  0
  1  4  1  0  0  0  0
  2  6  1  6  0  0  0
  3  5  1  0  0  0  0
  3 11  1  0  0  0  0
  5 12  1  6  0  0  0
  5  8  1  0  0  0  0
  6  1  1  0  0  0  0
  7 10  1  0  0  0  0
  8  2  1  0  0  0  0
  8  7  1  1  0  0  0
  9  7  2  0  0  0  0
 10  4  1  0  0  0  0
 11 20  1  1  0  0  0
 11  2  1  0  0  0  0
 12 13  1  1  0  0  0
 14 12  1  0  0  0  0
 15 14  1  0  0  0  0
 16 17  1  0  0  0  0
 16 15  1  0  0  0  0
 18 19  1  0  0  0  0
 19 17  1  0  0  0  0
 21 25  1  0  0  0  0
 22 20  1  1  0  0  0
 22 26  1  0  0  0  0
 23 29  2  0  0  0  0
 23 26  1  0  0  0  0
 26 21  2  0  0  0  0
 27 30  2  0  0  0  0
 28 24  1  6  0  0  0
 28 30  1  0  0  0  0
 28 23  1  0  0  0  0
 29 25  1  0  0  0  0
 30 22  1  0  0  0  0
 31 29  1  0  0  0  0
 31 32  1  0  0  0  0
M  END
>  <MODEL>
4

>  <REMARK>
 VINA RESULT:      -7.2      2.598      5.973
  Name = 
  9 active torsions:
  status: ('A' for Active; 'I' for Inactive)
    1  A    between atoms: O_2  and  C_30
    2  A    between atoms: C_7  and  N_24
    3  A    between atoms: C_7  and  C_29
    4  A    between atoms: O_8  and  C_20
    5  A    between atoms: C_11  and  C_19
    6  A    between atoms: C_13  and  C_29
    7  A    between atoms: C_16  and  C_20
    8  A    between atoms: C_16  and  N_24
    9  A    between atoms: C_19  and  C_28
                            x       y       z     vdW  Elec       q    Type
                         _______ _______ _______ _____ _____    ______ ____

>  <TORSDO>
F 9

$$$$
=
 OpenBabel11062412443D

 32 35  0  0  1  0  0  0  0  0999 V2000
  187.7360  178.9190  148.1000 C   0  0  0  0  0  2  0  0  0  0  0  0
  187.7670  177.8450  145.7860 C   0  0  2  0  0  3  0  0  0  0  0  0
  188.6950  177.3470  143.6460 N   0  0  0  0  0  2  0  0  0  0  0  0
  187.5460  177.5000  148.6230 C   0  0  0  0  0  2  0  0  0  0  0  0
  189.7280  177.0590  144.6420 C   0  0  2  0  0  3  0  0  0  0  0  0
  187.3230  179.0410  146.6290 C   0  0  0  0  0  2  0  0  0  0  0  0
  189.4060  176.5330  147.1120 C   0  0  0  0  0  0  0  0  0  0  0  0
  189.2220  177.5370  146.0010 C   0  0  2  0  0  3  0  0  0  0  0  0
  190.2460  175.6030  146.9830 O   0  0  0  0  0  0  0  0  0  0  0  0
  188.7280  176.6740  148.3710 N   0  0  0  0  0  2  0  0  0  0  0  0
  187.6620  178.1330  144.3120 C   0  0  1  0  0  3  0  0  0  0  0  0
  191.0220  177.7830  144.2730 C   0  0  2  0  0  3  0  0  0  0  0  0
  190.7590  179.1210  143.9740 O   0  0  0  0  0  1  0  0  0  0  0  0
  191.6820  177.1270  143.0730 C   0  0  0  0  0  2  0  0  0  0  0  0
  191.6010  178.0100  141.9230 N   0  0  0  0  0  2  0  0  0  0  0  0
  191.2880  177.1850  140.7680 C   0  0  0  0  0  2  0  0  0  0  0  0
  189.8860  177.4930  140.2640 C   0  0  0  0  0  2  0  0  0  0  0  0
  189.0850  178.5800  138.5160 C   0  0  0  0  0  1  0  0  0  0  0  0
  189.8660  177.4800  138.8680 O   0  0  0  0  0  0  0  0  0  0  0  0
  186.2850  177.7360  143.8050 C   0  0  0  0  0  2  0  0  0  0  0  0
  183.3940  178.9770  144.4300 C   0  0  0  0  0  3  0  0  0  0  0  0
  185.6110  178.9070  143.1040 C   0  0  2  0  0  3  0  0  0  0  0  0
  183.4010  178.6470  142.1900 C   0  0  0  0  0  0  0  0  0  0  0  0
  183.9840  179.6000  140.1210 O   0  0  0  0  0  1  0  0  0  0  0  0
  181.9600  178.8180  143.9690 C   0  0  0  0  0  2  0  0  0  0  0  0
  184.1540  178.8640  143.3550 C   0  0  0  0  0  0  0  0  0  0  0  0
  186.6330  178.6860  140.9370 O   0  0  0  0  0  0  0  0  0  0  0  0
  184.2390  178.5280  140.9760 C   0  0  1  0  0  3  0  0  0  0  0  0
  182.1150  178.5980  142.4880 C   0  0  0  0  0  0  0  0  0  0  0  0
  185.6090  178.6960  141.6010 C   0  0  0  0  0  0  0  0  0  0  0  0
  181.0500  178.3770  141.6100 O   0  0  0  0  0  0  0  0  0  0  0  0
  179.7050  178.2260  142.0440 C   0  0  0  0  0  1  0  0  0  0  0  0
  1  4  1  0  0  0  0
  2  8  1  0  0  0  0
  2  6  1  1  0  0  0
  3 11  1  0  0  0  0
  3  5  1  0  0  0  0
  5 12  1  6  0  0  0
  5  8  1  0  0  0  0
  6  1  1  0  0  0  0
  7 10  1  0  0  0  0
  8  7  1  1  0  0  0
  9  7  2  0  0  0  0
 10  4  1  0  0  0  0
 11 20  1  6  0  0  0
 11  2  1  0  0  0  0
 12 13  1  6  0  0  0
 14 12  1  0  0  0  0
 15 14  1  0  0  0  0
 16 15  1  0  0  0  0
 17 16  1  0  0  0  0
 18 19  1  0  0  0  0
 19 17  1  0  0  0  0
 22 26  1  0  0  0  0
 22 20  1  1  0  0  0
 23 29  2  0  0  0  0
 23 26  1  0  0  0  0
 25 21  1  0  0  0  0
 26 21  2  0  0  0  0
 27 30  2  0  0  0  0
 28 24  1  6  0  0  0
 28 30  1  0  0  0  0
 28 23  1  0  0  0  0
 29 25  1  0  0  0  0
 30 22  1  0  0  0  0
 31 32  1  0  0  0  0
 31 29  1  0  0  0  0
M  END
>  <MODEL>
5

>  <REMARK>
 VINA RESULT:      -6.9      2.848      7.830
  Name = 
  9 active torsions:
  status: ('A' for Active; 'I' for Inactive)
    1  A    between atoms: O_2  and  C_30
    2  A    between atoms: C_7  and  N_24
    3  A    between atoms: C_7  and  C_29
    4  A    between atoms: O_8  and  C_20
    5  A    between atoms: C_11  and  C_19
    6  A    between atoms: C_13  and  C_29
    7  A    between atoms: C_16  and  C_20
    8  A    between atoms: C_16  and  N_24
    9  A    between atoms: C_19  and  C_28
                            x       y       z     vdW  Elec       q    Type
                         _______ _______ _______ _____ _____    ______ ____

>  <TORSDO>
F 9

$$$$
=
 OpenBabel11062412443D

 32 35  0  0  1  0  0  0  0  0999 V2000
  190.9830  178.5500  145.5630 C   0  0  0  0  0  2  0  0  0  0  0  0
  189.5500  177.4580  143.7570 C   0  0  2  0  0  3  0  0  0  0  0  0
  189.0270  176.7690  141.5350 N   0  0  0  0  0  2  0  0  0  0  0  0
  190.9190  177.1960  146.2620 C   0  0  0  0  0  2  0  0  0  0  0  0
  190.3870  176.3090  141.8210 C   0  0  2  0  0  3  0  0  0  0  0  0
  189.8360  178.7260  144.5630 C   0  0  0  0  0  2  0  0  0  0  0  0
  191.4400  175.8850  144.0980 C   0  0  0  0  0  0  0  0  0  0  0  0
  190.8100  176.8900  143.1670 C   0  0  2  0  0  3  0  0  0  0  0  0
  191.9170  174.8140  143.6350 O   0  0  0  0  0  0  0  0  0  0  0  0
  191.6180  176.1650  145.4970 N   0  0  0  0  0  2  0  0  0  0  0  0
  188.6760  177.7400  142.5650 C   0  0  1  0  0  3  0  0  0  0  0  0
  191.3360  176.7780  140.7180 C   0  0  2  0  0  3  0  0  0  0  0  0
  192.0850  177.8700  141.1580 O   0  0  0  0  0  1  0  0  0  0  0  0
  190.5600  177.1770  139.4750 C   0  0  0  0  0  2  0  0  0  0  0  0
  190.6780  176.1370  138.4680 N   0  0  0  0  0  2  0  0  0  0  0  0
  191.5640  176.6390  137.4320 C   0  0  0  0  0  2  0  0  0  0  0  0
  192.8400  175.8130  137.3820 C   0  0  0  0  0  2  0  0  0  0  0  0
  194.3230  176.1510  135.7810 C   0  0  0  0  0  1  0  0  0  0  0  0
  193.9210  176.6230  137.0290 O   0  0  0  0  0  0  0  0  0  0  0  0
  187.2120  177.5970  142.9510 C   0  0  0  0  0  2  0  0  0  0  0  0
  184.8390  179.0080  144.5850 C   0  0  0  0  0  3  0  0  0  0  0  0
  186.4250  178.8370  142.5510 C   0  0  2  0  0  3  0  0  0  0  0  0
  184.0210  178.7620  142.4880 C   0  0  0  0  0  0  0  0  0  0  0  0
  183.9000  179.7510  140.3580 O   0  0  0  0  0  1  0  0  0  0  0  0
  183.3280  178.9640  144.6680 C   0  0  0  0  0  2  0  0  0  0  0  0
  185.1550  178.8840  143.3070 C   0  0  0  0  0  0  0  0  0  0  0  0
  186.5860  178.6290  140.1600 O   0  0  0  0  0  0  0  0  0  0  0  0
  184.3600  178.6330  141.0530 C   0  0  1  0  0  3  0  0  0  0  0  0
  182.9270  178.7900  143.2270 C   0  0  0  0  0  0  0  0  0  0  0  0
  185.8700  178.6830  141.1470 C   0  0  0  0  0  0  0  0  0  0  0  0
  181.6050  178.6760  142.7870 O   0  0  0  0  0  0  0  0  0  0  0  0
  180.4990  178.5720  143.6730 C   0  0  0  0  0  1  0  0  0  0  0  0
  1  4  1  0  0  0  0
  2  6  1  6  0  0  0
  3  5  1  0  0  0  0
  3 11  1  0  0  0  0
  5 12  1  6  0  0  0
  5  8  1  0  0  0  0
  6  1  1  0  0  0  0
  7 10  1  0  0  0  0
  8  2  1  0  0  0  0
  8  7  1  1  0  0  0
  9  7  2  0  0  0  0
 10  4  1  0  0  0  0
 11 20  1  1  0  0  0
 11  2  1  0  0  0  0
 12 13  1  1  0  0  0
 14 12  1  0  0  0  0
 15 14  1  0  0  0  0
 16 15  1  0  0  0  0
 17 16  1  0  0  0  0
 18 19  1  0  0  0  0
 19 17  1  0  0  0  0
 21 25  1  0  0  0  0
 22 20  1  1  0  0  0
 22 26  1  0  0  0  0
 23 29  2  0  0  0  0
 23 26  1  0  0  0  0
 26 21  2  0  0  0  0
 27 30  2  0  0  0  0
 28 24  1  6  0  0  0
 28 30  1  0  0  0  0
 28 23  1  0  0  0  0
 29 25  1  0  0  0  0
 30 22  1  0  0  0  0
 31 29  1  0  0  0  0
 31 32  1  0  0  0  0
M  END
>  <MODEL>
6

>  <REMARK>
 VINA RESULT:      -6.8      2.752      6.676
  Name = 
  9 active torsions:
  status: ('A' for Active; 'I' for Inactive)
    1  A    between atoms: O_2  and  C_30
    2  A    between atoms: C_7  and  N_24
    3  A    between atoms: C_7  and  C_29
    4  A    between atoms: O_8  and  C_20
    5  A    between atoms: C_11  and  C_19
    6  A    between atoms: C_13  and  C_29
    7  A    between atoms: C_16  and  C_20
    8  A    between atoms: C_16  and  N_24
    9  A    between atoms: C_19  and  C_28
                            x       y       z     vdW  Elec       q    Type
                         _______ _______ _______ _____ _____    ______ ____

>  <TORSDO>
F 9

$$$$
=
 OpenBabel11062412443D

 32 35  0  0  1  0  0  0  0  0999 V2000
  189.5950  177.5690  136.3240 C   0  0  0  0  0  2  0  0  0  0  0  0
  188.3360  177.8420  138.5260 C   0  0  2  0  0  3  0  0  0  0  0  0
  186.5320  178.5610  139.9100 N   0  0  0  0  0  2  0  0  0  0  0  0
  189.5600  176.0760  136.6290 C   0  0  0  0  0  2  0  0  0  0  0  0
  185.9470  177.8510  138.7720 C   0  0  2  0  0  3  0  0  0  0  0  0
  189.4040  178.4110  137.5910 C   0  0  0  0  0  2  0  0  0  0  0  0
  187.0600  176.1150  137.2810 C   0  0  0  0  0  0  0  0  0  0  0  0
  187.0660  177.5370  137.7830 C   0  0  2  0  0  3  0  0  0  0  0  0
  186.0090  175.4250  137.3660 O   0  0  0  0  0  0  0  0  0  0  0  0
  188.1930  175.5550  136.5960 N   0  0  0  0  0  2  0  0  0  0  0  0
  187.9230  178.8410  139.5730 C   0  0  1  0  0  3  0  0  0  0  0  0
  184.8810  178.7230  138.1080 C   0  0  2  0  0  3  0  0  0  0  0  0
  184.5800  179.8180  138.9190 O   0  0  0  0  0  1  0  0  0  0  0  0
  183.6130  177.9250  137.8580 C   0  0  0  0  0  2  0  0  0  0  0  0
  182.4930  178.5610  138.5300 N   0  0  0  0  0  2  0  0  0  0  0  0
  181.9930  177.6190  139.5170 C   0  0  0  0  0  2  0  0  0  0  0  0
  182.1960  178.1680  140.9210 C   0  0  0  0  0  2  0  0  0  0  0  0
  183.7420  178.7540  142.3860 C   0  0  0  0  0  1  0  0  0  0  0  0
  183.4610  177.8150  141.3940 O   0  0  0  0  0  0  0  0  0  0  0  0
  188.8060  178.6970  140.8020 C   0  0  0  0  0  2  0  0  0  0  0  0
  187.2060  177.8620  143.4540 C   0  0  0  0  0  3  0  0  0  0  0  0
  188.6720  177.3040  141.4010 C   0  0  2  0  0  3  0  0  0  0  0  0
  189.2530  176.9280  143.7050 C   0  0  0  0  0  0  0  0  0  0  0  0
  190.5600  175.0350  143.2200 O   0  0  0  0  0  1  0  0  0  0  0  0
  187.4660  177.6820  144.9350 C   0  0  0  0  0  2  0  0  0  0  0  0
  188.2740  177.4100  142.8210 C   0  0  0  0  0  0  0  0  0  0  0  0
  190.7480  176.3630  140.6290 O   0  0  0  0  0  0  0  0  0  0  0  0
  190.4520  176.4100  143.0100 C   0  0  1  0  0  3  0  0  0  0  0  0
  188.8430  177.0720  144.9520 C   0  0  0  0  0  0  0  0  0  0  0  0
  190.0390  176.6680  141.5750 C   0  0  0  0  0  0  0  0  0  0  0  0
  189.5390  176.7350  146.1170 O   0  0  0  0  0  0  0  0  0  0  0  0
  188.9490  176.7660  147.4100 C   0  0  0  0  0  1  0  0  0  0  0  0
  1  4  1  0  0  0  0
  1  6  1  0  0  0  0
  2  6  1  6  0  0  0
  2 11  1  0  0  0  0
  5 12  1  6  0  0  0
  5  3  1  0  0  0  0
  7  9  2  0  0  0  0
  8  7  1  1  0  0  0
  8  2  1  0  0  0  0
  8  5  1  0  0  0  0
 10  4  1  0  0  0  0
 10  7  1  0  0  0  0
 11  3  1  0  0  0  0
 11 20  1  1  0  0  0
 12 13  1  1  0  0  0
 14 12  1  0  0  0  0
 14 15  1  0  0  0  0
 15 16  1  0  0  0  0
 16 17  1  0  0  0  0
 17 19  1  0  0  0  0
 19 18  1  0  0  0  0
 21 25  1  0  0  0  0
 22 20  1  1  0  0  0
 22 30  1  0  0  0  0
 22 26  1  0  0  0  0
 23 29  2  0  0  0  0
 25 29  1  0  0  0  0
 26 21  2  0  0  0  0
 26 23  1  0  0  0  0
 27 30  2  0  0  0  0
 28 24  1  6  0  0  0
 28 23  1  0  0  0  0
 29 31  1  0  0  0  0
 30 28  1  0  0  0  0
 31 32  1  0  0  0  0
M  END
>  <MODEL>
7

>  <REMARK>
 VINA RESULT:      -6.7      2.290      3.272
  Name = 
  9 active torsions:
  status: ('A' for Active; 'I' for Inactive)
    1  A    between atoms: O_2  and  C_30
    2  A    between atoms: C_7  and  N_24
    3  A    between atoms: C_7  and  C_29
    4  A    between atoms: O_8  and  C_20
    5  A    between atoms: C_11  and  C_19
    6  A    between atoms: C_13  and  C_29
    7  A    between atoms: C_16  and  C_20
    8  A    between atoms: C_16  and  N_24
    9  A    between atoms: C_19  and  C_28
                            x       y       z     vdW  Elec       q    Type
                         _______ _______ _______ _____ _____    ______ ____

>  <TORSDO>
F 9

$$$$
=
 OpenBabel11062412443D

 32 35  0  0  1  0  0  0  0  0999 V2000
  189.2680  176.4450  141.8860 C   0  0  0  0  0  2  0  0  0  0  0  0
  188.1710  177.8550  143.7070 C   0  0  2  0  0  3  0  0  0  0  0  0
  187.5520  178.3920  145.9470 N   0  0  0  0  0  2  0  0  0  0  0  0
  190.0300  177.7170  141.5290 C   0  0  0  0  0  2  0  0  0  0  0  0
  188.9880  178.1100  145.9520 C   0  0  2  0  0  3  0  0  0  0  0  0
  187.9830  176.7530  142.6640 C   0  0  0  0  0  2  0  0  0  0  0  0
  190.6070  178.2410  143.9930 C   0  0  0  0  0  0  0  0  0  0  0  0
  189.3730  177.5910  144.5690 C   0  0  2  0  0  3  0  0  0  0  0  0
  191.4210  178.8270  144.7550 O   0  0  0  0  0  0  0  0  0  0  0  0
  190.9440  178.1110  142.6010 N   0  0  0  0  0  2  0  0  0  0  0  0
  187.0220  177.9050  144.6780 C   0  0  1  0  0  3  0  0  0  0  0  0
  189.3080  177.0640  147.0190 C   0  0  2  0  0  3  0  0  0  0  0  0
  188.1550  176.7350  147.7340 O   0  0  0  0  0  1  0  0  0  0  0  0
  190.3600  177.5830  147.9830 C   0  0  0  0  0  2  0  0  0  0  0  0
  191.6750  177.1320  147.5650 N   0  0  0  0  0  2  0  0  0  0  0  0
  191.7000  175.6860  147.7090 C   0  0  0  0  0  2  0  0  0  0  0  0
  192.4050  175.0490  146.5210 C   0  0  0  0  0  2  0  0  0  0  0  0
  192.0550  174.8740  144.3480 C   0  0  0  0  0  1  0  0  0  0  0  0
  192.1870  175.8100  145.3720 O   0  0  0  0  0  0  0  0  0  0  0  0
  185.9460  178.8440  144.1580 C   0  0  0  0  0  2  0  0  0  0  0  0
  184.6720  177.8790  141.3760 C   0  0  0  0  0  3  0  0  0  0  0  0
  184.6340  178.0980  143.9510 C   0  0  2  0  0  3  0  0  0  0  0  0
  182.9890  178.9680  142.4270 C   0  0  0  0  0  0  0  0  0  0  0  0
  181.2250  178.7280  143.9630 O   0  0  0  0  0  1  0  0  0  0  0  0
  183.7080  178.3880  140.3250 C   0  0  0  0  0  3  0  0  0  0  0  0
  184.1910  178.2540  142.5490 C   0  0  1  0  0  3  0  0  0  0  0  0
  183.4300  178.9190  145.8650 O   0  0  0  0  0  0  0  0  0  0  0  0
  182.4330  179.3860  143.7330 C   0  0  1  0  0  3  0  0  0  0  0  0
  182.6640  179.0890  141.1530 C   0  0  0  0  0  0  0  0  0  0  0  0
  183.4970  178.8210  144.6500 C   0  0  0  0  0  0  0  0  0  0  0  0
  181.5520  179.7500  140.6200 O   0  0  0  0  0  0  0  0  0  0  0  0
  180.2480  179.1870  140.6080 C   0  0  0  0  0  1  0  0  0  0  0  0
  1  6  1  0  0  0  0
  2  6  1  6  0  0  0
  2  8  1  0  0  0  0
  2 11  1  0  0  0  0
  3  5  1  0  0  0  0
  4  1  1  0  0  0  0
  4 10  1  0  0  0  0
  5 12  1  1  0  0  0
  7  9  2  0  0  0  0
  8  7  1  6  0  0  0
  8  5  1  0  0  0  0
 10  7  1  0  0  0  0
 11 20  1  6  0  0  0
 11  3  1  0  0  0  0
 12 13  1  1  0  0  0
 12 14  1  0  0  0  0
 15 16  1  0  0  0  0
 15 14  1  0  0  0  0
 17 16  1  0  0  0  0
 18 19  1  0  0  0  0
 19 17  1  0  0  0  0
 22 20  1  6  0  0  0
 22 30  1  0  0  0  0
 23 26  1  0  0  0  0
 23 28  1  0  0  0  0
 25 29  1  0  0  0  0
 25 21  2  0  0  0  0
 26 21  1  6  0  0  0
 26 22  1  0  0  0  0
 28 24  1  1  0  0  0
 28 30  1  0  0  0  0
 29 23  2  0  0  0  0
 30 27  2  0  0  0  0
 31 29  1  0  0  0  0
 32 31  1  0  0  0  0
M  END
>  <MODEL>
8

>  <REMARK>
 VINA RESULT:      -6.7      3.958      8.260
  Name = 
  9 active torsions:
  status: ('A' for Active; 'I' for Inactive)
    1  A    between atoms: O_2  and  C_30
    2  A    between atoms: C_7  and  N_24
    3  A    between atoms: C_7  and  C_29
    4  A    between atoms: O_8  and  C_20
    5  A    between atoms: C_11  and  C_19
    6  A    between atoms: C_13  and  C_29
    7  A    between atoms: C_16  and  C_20
    8  A    between atoms: C_16  and  N_24
    9  A    between atoms: C_19  and  C_28
                            x       y       z     vdW  Elec       q    Type
                         _______ _______ _______ _____ _____    ______ ____

>  <TORSDO>
F 9

$$$$
=
 OpenBabel11062412443D

 32 35  0  0  1  0  0  0  0  0999 V2000
  185.7300  179.6080  146.6600 C   0  0  0  0  0  2  0  0  0  0  0  0
  186.0640  178.2810  144.5080 C   0  0  2  0  0  3  0  0  0  0  0  0
  187.2050  177.6550  142.5090 N   0  0  0  0  0  2  0  0  0  0  0  0
  185.6700  178.2480  147.3470 C   0  0  0  0  0  2  0  0  0  0  0  0
  188.1850  177.6200  143.5950 C   0  0  2  0  0  3  0  0  0  0  0  0
  185.4180  179.5020  145.1640 C   0  0  0  0  0  2  0  0  0  0  0  0
  187.7410  177.3530  146.0860 C   0  0  0  0  0  0  0  0  0  0  0  0
  187.5240  178.1880  144.8480 C   0  0  2  0  0  3  0  0  0  0  0  0
  188.6930  176.5290  146.1280 O   0  0  0  0  0  0  0  0  0  0  0  0
  186.9570  177.5550  147.2740 N   0  0  0  0  0  2  0  0  0  0  0  0
  186.0380  178.3760  143.0060 C   0  0  1  0  0  3  0  0  0  0  0  0
  189.4090  178.4540  143.2160 C   0  0  2  0  0  3  0  0  0  0  0  0
  189.4610  178.6350  141.8330 O   0  0  0  0  0  1  0  0  0  0  0  0
  190.6860  177.7750  143.6770 C   0  0  0  0  0  2  0  0  0  0  0  0
  190.6220  176.3550  143.3800 N   0  0  0  0  0  2  0  0  0  0  0  0
  191.6650  175.7060  144.1580 C   0  0  0  0  0  2  0  0  0  0  0  0
  191.7450  176.3190  145.5480 C   0  0  0  0  0  2  0  0  0  0  0  0
  192.0510  175.9990  147.7110 C   0  0  0  0  0  1  0  0  0  0  0  0
  192.0830  175.3400  146.4830 O   0  0  0  0  0  0  0  0  0  0  0  0
  184.7600  177.7500  142.4700 C   0  0  0  0  0  2  0  0  0  0  0  0
  182.0370  178.9080  143.7070 C   0  0  0  0  0  3  0  0  0  0  0  0
  183.8500  178.8130  141.8690 C   0  0  2  0  0  3  0  0  0  0  0  0
  181.5060  178.3580  141.5770 C   0  0  0  0  0  0  0  0  0  0  0  0
  181.4840  179.1280  139.3550 O   0  0  0  0  0  1  0  0  0  0  0  0
  180.5480  178.6360  143.6440 C   0  0  0  0  0  2  0  0  0  0  0  0
  182.5100  178.7260  142.4870 C   0  0  0  0  0  0  0  0  0  0  0  0
  184.3110  178.4270  139.5390 O   0  0  0  0  0  0  0  0  0  0  0  0
  182.0200  178.1600  140.2030 C   0  0  1  0  0  3  0  0  0  0  0  0
  180.3430  178.2780  142.1960 C   0  0  0  0  0  0  0  0  0  0  0  0
  183.4870  178.4540  140.4400 C   0  0  0  0  0  0  0  0  0  0  0  0
  179.1110  177.9200  141.6420 O   0  0  0  0  0  0  0  0  0  0  0  0
  178.9310  176.7740  140.8230 C   0  0  0  0  0  1  0  0  0  0  0  0
  1  4  1  0  0  0  0
  2  8  1  0  0  0  0
  2  6  1  1  0  0  0
  3 11  1  0  0  0  0
  3  5  1  0  0  0  0
  5 12  1  6  0  0  0
  5  8  1  0  0  0  0
  6  1  1  0  0  0  0
  7  9  2  0  0  0  0
  7 10  1  0  0  0  0
  8  7  1  1  0  0  0
 10  4  1  0  0  0  0
 11 20  1  6  0  0  0
 11  2  1  0  0  0  0
 12 13  1  6  0  0  0
 12 14  1  0  0  0  0
 15 14  1  0  0  0  0
 15 16  1  0  0  0  0
 16 17  1  0  0  0  0
 17 19  1  0  0  0  0
 19 18  1  0  0  0  0
 22 20  1  1  0  0  0
 22 26  1  0  0  0  0
 23 29  2  0  0  0  0
 23 26  1  0  0  0  0
 25 21  1  0  0  0  0
 26 21  2  0  0  0  0
 27 30  2  0  0  0  0
 28 24  1  6  0  0  0
 28 30  1  0  0  0  0
 28 23  1  0  0  0  0
 29 25  1  0  0  0  0
 30 22  1  0  0  0  0
 31 29  1  0  0  0  0
 32 31  1  0  0  0  0
M  END
>  <MODEL>
9

>  <REMARK>
 VINA RESULT:      -6.6      3.984      8.803
  Name = 
  9 active torsions:
  status: ('A' for Active; 'I' for Inactive)
    1  A    between atoms: O_2  and  C_30
    2  A    between atoms: C_7  and  N_24
    3  A    between atoms: C_7  and  C_29
    4  A    between atoms: O_8  and  C_20
    5  A    between atoms: C_11  and  C_19
    6  A    between atoms: C_13  and  C_29
    7  A    between atoms: C_16  and  C_20
    8  A    between atoms: C_16  and  N_24
    9  A    between atoms: C_19  and  C_28
                            x       y       z     vdW  Elec       q    Type
                         _______ _______ _______ _____ _____    ______ ____

>  <TORSDO>
F 9

$$$$
