=
 OpenBabel11062411013D

 49 52  0  0  1  0  0  0  0  0999 V2000
  184.7120  176.8580  137.0900 C   0  0  0  0  0  2  0  0  0  0  0  0
  182.8850  171.3340  136.1440 C   0  0  0  0  0  3  0  0  0  0  0  0
  180.8390  170.3130  135.6360 O   0  0  0  0  0  1  0  0  0  0  0  0
  181.5660  171.2610  136.3440 C   0  0  0  0  0  0  0  0  0  0  0  0
  183.8520  175.7630  137.7120 C   0  0  1  0  0  3  0  0  0  0  0  0
  182.3730  175.6660  137.2280 C   0  0  2  0  0  0  0  0  0  0  0  0
  183.4820  173.5480  137.1510 C   0  0  0  0  0  0  0  0  0  0  0  0
  182.1710  174.1780  137.1430 C   0  0  0  0  0  0  0  0  0  0  0  0
  180.9900  173.5550  137.1760 C   0  0  0  0  0  3  0  0  0  0  0  0
  183.8090  172.3230  136.7270 C   0  0  0  0  0  3  0  0  0  0  0  0
  184.4340  174.4810  137.5030 O   0  0  0  0  0  0  0  0  0  0  0  0
  180.8520  172.0830  137.3690 C   0  0  0  0  0  2  0  0  0  0  0  0
  182.1100  176.3980  135.5670 S   0  0  0  0  0  1  0  0  0  0  0  0
  181.4890  176.3420  138.2850 C   0  0  0  0  0  2  0  0  0  0  0  0
  182.1130  176.3500  139.6740 C   0  0  0  0  0  2  0  0  0  0  0  0
  181.9220  177.6970  140.3560 C   0  0  0  0  0  2  0  0  0  0  0  0
  182.9070  178.7460  139.8410 C   0  0  0  0  0  2  0  0  0  0  0  0
  184.2690  178.4430  140.2680 N   0  0  0  0  0  2  0  0  0  0  0  0
  184.9830  179.5940  140.2060 O   0  0  0  0  0  0  0  0  0  0  0  0
  185.6680  179.6340  141.3750 N   0  0  0  0  0  2  0  0  0  0  0  0
  185.6500  178.2890  141.9260 C   0  0  0  0  0  2  0  0  0  0  0  0
  184.5490  178.6680  144.1770 C   0  0  0  0  0  0  0  0  0  0  0  0
  183.4230  178.8550  143.6410 O   0  0  0  0  0  0  0  0  0  0  0  0
  185.6910  178.3470  143.3810 N   0  0  0  0  0  2  0  0  0  0  0  0
  184.6930  178.7750  145.6530 C   0  0  0  0  0  1  0  0  0  0  0  0
  186.0460  176.2930  136.6390 C   0  0  0  0  0  2  0  0  0  0  0  0
  186.9640  177.4260  136.2400 C   0  0  0  0  0  2  0  0  0  0  0  0
  187.1410  178.3680  137.4140 C   0  0  0  0  0  2  0  0  0  0  0  0
  188.9750  177.4350  138.6600 N   0  0  0  0  0  0  0  0  0  0  0  0
  188.5620  178.3580  137.8690 C   0  0  0  0  0  3  0  0  0  0  0  0
  190.3450  177.4060  139.1150 C   0  0  2  0  0  3  0  0  0  0  0  0
  192.5020  176.4320  138.3200 C   0  0  0  0  0  3  0  0  0  0  0  0
  190.4570  175.2240  137.8430 C   0  0  0  0  0  3  0  0  0  0  0  0
  193.2400  175.4360  137.6750 C   0  0  0  0  0  0  0  0  0  0  0  0
  191.1930  174.2260  137.2010 C   0  0  0  0  0  3  0  0  0  0  0  0
  192.5850  174.3330  137.1160 C   0  0  0  0  0  3  0  0  0  0  0  0
  191.1110  176.3340  138.4020 C   0  0  0  0  0  0  0  0  0  0  0  0
  194.6530  175.5380  137.6030 N   0  0  0  0  0  1  0  0  0  0  0  0
  189.2130  176.8570  141.3850 C   0  0  0  0  0  2  0  0  0  0  0  0
  190.3380  177.7270  143.4100 C   0  0  0  0  0  0  0  0  0  0  0  0
  191.6590  177.3630  142.7680 C   0  0  0  0  0  2  0  0  0  0  0  0
  191.5910  177.5100  141.2700 C   0  0  0  0  0  3  0  0  0  0  0  0
  189.2000  177.5040  142.7470 C   0  0  0  0  0  3  0  0  0  0  0  0
  190.4470  177.2450  140.6110 C   0  0  0  0  0  0  0  0  0  0  0  0
  190.2790  178.3230  144.6730 O   0  0  0  0  0  0  0  0  0  0  0  0
  189.5580  177.8070  145.7570 C   0  0  0  0  0  0  0  0  0  0  0  0
  188.3110  177.9710  145.7910 O   0  0  0  0  0  0  0  0  0  0  0  0
  190.1860  177.0450  146.7940 N   0  0  0  0  0  2  0  0  0  0  0  0
  191.5390  176.5230  146.6820 C   0  0  0  0  0  1  0  0  0  0  0  0
  2  4  2  0  0  0  0
  2 10  1  0  0  0  0
  3  4  1  0  0  0  0
  4 12  1  0  0  0  0
  5  1  1  6  0  0  0
  6 13  1  6  0  0  0
  6  5  1  0  0  0  0
  6 14  1  0  0  0  0
  7 11  1  0  0  0  0
  8  7  1  0  0  0  0
  8  9  2  0  0  0  0
  8  6  1  0  0  0  0
  9 12  1  0  0  0  0
 10  7  2  0  0  0  0
 11  5  1  0  0  0  0
 14 15  1  0  0  0  0
 15 16  1  0  0  0  0
 17 18  1  0  0  0  0
 17 16  1  0  0  0  0
 19 18  1  0  0  0  0
 19 20  1  0  0  0  0
 20 21  1  0  0  0  0
 21 24  1  0  0  0  0
 22 25  1  0  0  0  0
 23 22  2  0  0  0  0
 24 22  1  0  0  0  0
 26  1  1  0  0  0  0
 27 26  1  0  0  0  0
 27 28  1  0  0  0  0
 28 30  1  0  0  0  0
 30 29  2  0  0  0  0
 31 29  1  6  0  0  0
 31 44  1  0  0  0  0
 32 37  1  0  0  0  0
 33 37  2  0  0  0  0
 34 32  2  0  0  0  0
 35 33  1  0  0  0  0
 36 35  2  0  0  0  0
 36 34  1  0  0  0  0
 37 31  1  0  0  0  0
 38 34  1  0  0  0  0
 39 43  1  0  0  0  0
 40 45  1  0  0  0  0
 41 40  1  0  0  0  0
 42 41  1  0  0  0  0
 43 40  2  0  0  0  0
 44 42  2  0  0  0  0
 44 39  1  0  0  0  0
 45 46  1  0  0  0  0
 46 47  2  0  0  0  0
 46 48  1  0  0  0  0
 49 48  1  0  0  0  0
M  END
>  <MODEL>
1

>  <REMARK>
 VINA RESULT:      -7.3      0.000      0.000
  Name = 
  19 active torsions:
  status: ('A' for Active; 'I' for Inactive)
    1  A    between atoms: C_1  and  N_25
    2  A    between atoms: C_1  and  N_38
    3  A    between atoms: C_2  and  C_17
    4  A    between atoms: C_2  and  C_39
    5  A    between atoms: C_3  and  N_10
    6  A    between atoms: C_3  and  C_40
    7  A    between atoms: C_3  and  C_47
    8  A    between atoms: O_4  and  N_23
    9  A    between atoms: O_4  and  N_38
   10  A    between atoms: C_7  and  C_8
   11  A    between atoms: C_7  and  C_21
   12  A    between atoms: C_8  and  C_22
   13  A    between atoms: C_11  and  C_21
   14  A    between atoms: C_11  and  N_23
   15  A    between atoms: C_12  and  O_35
   16  A    between atoms: C_15  and  C_42
   17  A    between atoms: C_20  and  O_35
   18  A    between atoms: C_39  and  C_41
   19  A    between atoms: C_41  and  C_42
                            x       y       z     vdW  Elec       q    Type
                         _______ _______ _______ _____ _____    ______ ____

>  <TORSDO>
F 19

$$$$
=
 OpenBabel11062411013D

 49 52  0  0  1  0  0  0  0  0999 V2000
  182.2700  178.5830  141.0710 C   0  0  0  0  0  2  0  0  0  0  0  0
  186.4460  178.1180  136.9370 C   0  0  0  0  0  3  0  0  0  0  0  0
  186.4850  178.0860  134.5950 O   0  0  0  0  0  1  0  0  0  0  0  0
  185.8950  177.7030  135.7930 C   0  0  0  0  0  0  0  0  0  0  0  0
  182.7870  177.6290  139.9990 C   0  0  1  0  0  3  0  0  0  0  0  0
  182.2590  177.8450  138.5480 C   0  0  2  0  0  0  0  0  0  0  0  0
  184.6440  177.6750  138.6180 C   0  0  0  0  0  0  0  0  0  0  0  0
  183.4960  177.6010  137.7280 C   0  0  0  0  0  0  0  0  0  0  0  0
  183.5130  177.2590  136.4370 C   0  0  0  0  0  3  0  0  0  0  0  0
  185.9220  177.8950  138.2970 C   0  0  0  0  0  3  0  0  0  0  0  0
  184.2070  177.6700  139.9260 O   0  0  0  0  0  0  0  0  0  0  0  0
  184.7350  176.7610  135.7430 C   0  0  0  0  0  2  0  0  0  0  0  0
  181.6700  179.5550  138.2430 S   0  0  0  0  0  1  0  0  0  0  0  0
  181.1480  176.8160  138.2950 C   0  0  0  0  0  2  0  0  0  0  0  0
  181.4600  175.4410  138.8710 C   0  0  0  0  0  2  0  0  0  0  0  0
  180.8290  174.3380  138.0350 C   0  0  0  0  0  2  0  0  0  0  0  0
  181.1190  174.5100  136.5440 C   0  0  0  0  0  2  0  0  0  0  0  0
  181.3080  173.2180  135.8930 N   0  0  0  0  0  2  0  0  0  0  0  0
  181.5220  172.2970  136.8650 O   0  0  0  0  0  0  0  0  0  0  0  0
  181.9970  171.2110  136.2070 N   0  0  0  0  0  2  0  0  0  0  0  0
  183.2930  170.8950  136.7850 C   0  0  0  0  0  2  0  0  0  0  0  0
  185.1420  172.6230  136.6720 C   0  0  0  0  0  0  0  0  0  0  0  0
  185.0060  172.9080  137.8940 O   0  0  0  0  0  0  0  0  0  0  0  0
  184.3430  171.6050  136.0680 N   0  0  0  0  0  2  0  0  0  0  0  0
  186.1470  173.3490  135.8510 C   0  0  0  0  0  1  0  0  0  0  0  0
  183.2300  178.6310  142.2450 C   0  0  0  0  0  2  0  0  0  0  0  0
  182.5310  179.2370  143.4420 C   0  0  0  0  0  2  0  0  0  0  0  0
  183.5280  179.4190  144.5690 C   0  0  0  0  0  2  0  0  0  0  0  0
  185.7100  178.4790  144.9430 N   0  0  0  0  0  0  0  0  0  0  0  0
  184.4930  178.2820  144.5860 C   0  0  0  0  0  3  0  0  0  0  0  0
  186.6630  177.3950  144.9660 C   0  0  2  0  0  3  0  0  0  0  0  0
  188.9410  177.1650  145.9610 C   0  0  0  0  0  3  0  0  0  0  0  0
  187.1820  178.1070  147.3350 C   0  0  0  0  0  3  0  0  0  0  0  0
  189.8460  177.3190  147.0140 C   0  0  0  0  0  0  0  0  0  0  0  0
  188.0860  178.2640  148.3880 C   0  0  0  0  0  3  0  0  0  0  0  0
  189.4180  177.8690  148.2280 C   0  0  0  0  0  3  0  0  0  0  0  0
  187.6080  177.5520  146.1170 C   0  0  0  0  0  0  0  0  0  0  0  0
  191.2000  176.9310  146.8450 N   0  0  0  0  0  1  0  0  0  0  0  0
  188.0870  175.9550  143.3440 C   0  0  0  0  0  2  0  0  0  0  0  0
  189.4670  177.1920  141.7040 C   0  0  0  0  0  0  0  0  0  0  0  0
  188.3100  178.1510  141.5320 C   0  0  0  0  0  2  0  0  0  0  0  0
  187.5400  178.3040  142.8190 C   0  0  0  0  0  3  0  0  0  0  0  0
  189.3610  176.1790  142.5680 C   0  0  0  0  0  3  0  0  0  0  0  0
  187.4090  177.2620  143.6620 C   0  0  0  0  0  0  0  0  0  0  0  0
  190.6640  177.3590  141.0000 O   0  0  0  0  0  0  0  0  0  0  0  0
  190.8810  176.9030  139.6930 C   0  0  0  0  0  0  0  0  0  0  0  0
  189.8880  176.6530  138.9630 O   0  0  0  0  0  0  0  0  0  0  0  0
  192.1970  176.7720  139.1440 N   0  0  0  0  0  2  0  0  0  0  0  0
  193.3780  177.3390  139.7760 C   0  0  0  0  0  1  0  0  0  0  0  0
  1 26  1  0  0  0  0
  2 10  1  0  0  0  0
  3  4  1  0  0  0  0
  4  2  2  0  0  0  0
  5  1  1  1  0  0  0
  6 13  1  6  0  0  0
  6  5  1  0  0  0  0
  7 11  1  0  0  0  0
  8  6  1  0  0  0  0
  8  7  1  0  0  0  0
  9  8  2  0  0  0  0
 10  7  2  0  0  0  0
 11  5  1  0  0  0  0
 12  4  1  0  0  0  0
 12  9  1  0  0  0  0
 14  6  1  0  0  0  0
 14 15  1  0  0  0  0
 16 15  1  0  0  0  0
 17 16  1  0  0  0  0
 18 17  1  0  0  0  0
 18 19  1  0  0  0  0
 20 21  1  0  0  0  0
 20 19  1  0  0  0  0
 22 23  2  0  0  0  0
 24 22  1  0  0  0  0
 24 21  1  0  0  0  0
 25 22  1  0  0  0  0
 26 27  1  0  0  0  0
 27 28  1  0  0  0  0
 28 30  1  0  0  0  0
 30 29  2  0  0  0  0
 31 29  1  6  0  0  0
 31 37  1  0  0  0  0
 32 37  2  0  0  0  0
 32 34  1  0  0  0  0
 33 35  2  0  0  0  0
 34 36  2  0  0  0  0
 36 35  1  0  0  0  0
 37 33  1  0  0  0  0
 38 34  1  0  0  0  0
 39 44  1  0  0  0  0
 40 43  2  0  0  0  0
 41 40  1  0  0  0  0
 41 42  1  0  0  0  0
 42 44  2  0  0  0  0
 43 39  1  0  0  0  0
 44 31  1  0  0  0  0
 45 40  1  0  0  0  0
 46 45  1  0  0  0  0
 47 46  2  0  0  0  0
 48 46  1  0  0  0  0
 48 49  1  0  0  0  0
M  END
>  <MODEL>
2

>  <REMARK>
 VINA RESULT:      -7.2      2.903      7.249
  Name = 
  19 active torsions:
  status: ('A' for Active; 'I' for Inactive)
    1  A    between atoms: C_1  and  N_25
    2  A    between atoms: C_1  and  N_38
    3  A    between atoms: C_2  and  C_17
    4  A    between atoms: C_2  and  C_39
    5  A    between atoms: C_3  and  N_10
    6  A    between atoms: C_3  and  C_40
    7  A    between atoms: C_3  and  C_47
    8  A    between atoms: O_4  and  N_23
    9  A    between atoms: O_4  and  N_38
   10  A    between atoms: C_7  and  C_8
   11  A    between atoms: C_7  and  C_21
   12  A    between atoms: C_8  and  C_22
   13  A    between atoms: C_11  and  C_21
   14  A    between atoms: C_11  and  N_23
   15  A    between atoms: C_12  and  O_35
   16  A    between atoms: C_15  and  C_42
   17  A    between atoms: C_20  and  O_35
   18  A    between atoms: C_39  and  C_41
   19  A    between atoms: C_41  and  C_42
                            x       y       z     vdW  Elec       q    Type
                         _______ _______ _______ _____ _____    ______ ____

>  <TORSDO>
F 19

$$$$
=
 OpenBabel11062411013D

 49 52  0  0  1  0  0  0  0  0999 V2000
  184.1270  177.7070  137.5490 C   0  0  0  0  0  2  0  0  0  0  0  0
  183.0500  172.1220  136.0050 C   0  0  0  0  0  3  0  0  0  0  0  0
  181.1330  170.8440  135.5790 O   0  0  0  0  0  1  0  0  0  0  0  0
  181.7960  171.8030  136.3350 C   0  0  0  0  0  0  0  0  0  0  0  0
  183.5330  176.4120  138.0930 C   0  0  1  0  0  3  0  0  0  0  0  0
  182.0350  176.1300  137.7670 C   0  0  2  0  0  0  0  0  0  0  0  0
  183.4320  174.2570  137.2560 C   0  0  0  0  0  0  0  0  0  0  0  0
  182.0520  174.6530  137.4850 C   0  0  0  0  0  0  0  0  0  0  0  0
  180.9940  173.8400  137.5570 C   0  0  0  0  0  3  0  0  0  0  0  0
  183.8820  173.1700  136.6220 C   0  0  0  0  0  3  0  0  0  0  0  0
  184.2700  175.2850  137.6340 O   0  0  0  0  0  0  0  0  0  0  0  0
  181.1070  172.3530  137.5430 C   0  0  0  0  0  2  0  0  0  0  0  0
  181.4450  177.0140  136.2720 S   0  0  0  0  0  1  0  0  0  0  0  0
  181.2070  176.5060  139.0030 C   0  0  0  0  0  2  0  0  0  0  0  0
  180.6470  177.9210  138.9440 C   0  0  0  0  0  2  0  0  0  0  0  0
  179.6230  178.1550  140.0440 C   0  0  0  0  0  2  0  0  0  0  0  0
  180.1100  179.1750  141.0730 C   0  0  0  0  0  2  0  0  0  0  0  0
  180.7980  178.5190  142.1800 N   0  0  0  0  0  2  0  0  0  0  0  0
  181.1030  179.4720  143.0950 O   0  0  0  0  0  0  0  0  0  0  0  0
  181.7060  178.7950  144.1030 N   0  0  0  0  0  2  0  0  0  0  0  0
  183.1110  179.1660  144.0860 C   0  0  0  0  0  2  0  0  0  0  0  0
  185.0730  178.7560  145.6360 C   0  0  0  0  0  0  0  0  0  0  0  0
  185.8840  178.7320  144.6700 O   0  0  0  0  0  0  0  0  0  0  0  0
  183.6830  179.0030  145.4160 N   0  0  0  0  0  2  0  0  0  0  0  0
  185.5660  178.5320  147.0220 C   0  0  0  0  0  1  0  0  0  0  0  0
  184.3090  178.7180  138.6660 C   0  0  0  0  0  2  0  0  0  0  0  0
  184.2700  178.0070  140.0000 C   0  0  0  0  0  2  0  0  0  0  0  0
  184.5500  179.0010  141.1090 C   0  0  0  0  0  2  0  0  0  0  0  0
  186.8310  178.2410  141.1040 N   0  0  0  0  0  0  0  0  0  0  0  0
  186.0190  179.2250  141.2360 C   0  0  0  0  0  3  0  0  0  0  0  0
  188.2570  178.4330  141.2250 C   0  0  2  0  0  3  0  0  0  0  0  0
  190.3220  177.6190  140.0810 C   0  0  0  0  0  3  0  0  0  0  0  0
  188.2670  177.7160  138.8010 C   0  0  0  0  0  3  0  0  0  0  0  0
  190.9960  177.1240  138.9620 C   0  0  0  0  0  0  0  0  0  0  0  0
  188.9380  177.2190  137.6820 C   0  0  0  0  0  3  0  0  0  0  0  0
  190.3030  176.9240  137.7620 C   0  0  0  0  0  3  0  0  0  0  0  0
  188.9610  177.9220  140.0050 C   0  0  0  0  0  0  0  0  0  0  0  0
  192.3770  176.8120  139.0490 N   0  0  0  0  0  1  0  0  0  0  0  0
  188.3010  176.4530  142.9020 C   0  0  0  0  0  2  0  0  0  0  0  0
  189.1620  176.9540  145.1670 C   0  0  0  0  0  0  0  0  0  0  0  0
  190.2220  177.8160  144.5170 C   0  0  0  0  0  2  0  0  0  0  0  0
  189.6980  178.4570  143.2570 C   0  0  0  0  0  3  0  0  0  0  0  0
  188.2560  176.3360  144.4050 C   0  0  0  0  0  3  0  0  0  0  0  0
  188.8140  177.8050  142.4780 C   0  0  0  0  0  0  0  0  0  0  0  0
  189.0880  176.8130  146.5570 O   0  0  0  0  0  0  0  0  0  0  0  0
  189.8620  177.5440  147.4670 C   0  0  0  0  0  0  0  0  0  0  0  0
  189.3220  178.4820  148.1080 O   0  0  0  0  0  0  0  0  0  0  0  0
  191.2290  177.2170  147.7340 N   0  0  0  0  0  2  0  0  0  0  0  0
  191.8440  175.9700  147.3040 C   0  0  0  0  0  1  0  0  0  0  0  0
  1 26  1  0  0  0  0
  2  4  2  0  0  0  0
  2 10  1  0  0  0  0
  3  4  1  0  0  0  0
  4 12  1  0  0  0  0
  5  1  1  6  0  0  0
  6 13  1  6  0  0  0
  6  5  1  0  0  0  0
  6 14  1  0  0  0  0
  7  8  1  0  0  0  0
  7 11  1  0  0  0  0
  8  9  2  0  0  0  0
  8  6  1  0  0  0  0
 10  7  2  0  0  0  0
 11  5  1  0  0  0  0
 12  9  1  0  0  0  0
 15 14  1  0  0  0  0
 15 16  1  0  0  0  0
 16 17  1  0  0  0  0
 17 18  1  0  0  0  0
 18 19  1  0  0  0  0
 19 20  1  0  0  0  0
 21 20  1  0  0  0  0
 21 24  1  0  0  0  0
 22 25  1  0  0  0  0
 23 22  2  0  0  0  0
 24 22  1  0  0  0  0
 26 27  1  0  0  0  0
 27 28  1  0  0  0  0
 28 30  1  0  0  0  0
 29 30  2  0  0  0  0
 31 29  1  6  0  0  0
 31 44  1  0  0  0  0
 33 37  2  0  0  0  0
 34 38  1  0  0  0  0
 34 32  2  0  0  0  0
 35 36  2  0  0  0  0
 35 33  1  0  0  0  0
 36 34  1  0  0  0  0
 37 32  1  0  0  0  0
 37 31  1  0  0  0  0
 39 43  1  0  0  0  0
 40 45  1  0  0  0  0
 41 40  1  0  0  0  0
 42 41  1  0  0  0  0
 43 40  2  0  0  0  0
 44 39  1  0  0  0  0
 44 42  2  0  0  0  0
 45 46  1  0  0  0  0
 46 48  1  0  0  0  0
 46 47  2  0  0  0  0
 49 48  1  0  0  0  0
M  END
>  <MODEL>
3

>  <REMARK>
 VINA RESULT:      -7.0      1.841      2.669
  Name = 
  19 active torsions:
  status: ('A' for Active; 'I' for Inactive)
    1  A    between atoms: C_1  and  N_25
    2  A    between atoms: C_1  and  N_38
    3  A    between atoms: C_2  and  C_17
    4  A    between atoms: C_2  and  C_39
    5  A    between atoms: C_3  and  N_10
    6  A    between atoms: C_3  and  C_40
    7  A    between atoms: C_3  and  C_47
    8  A    between atoms: O_4  and  N_23
    9  A    between atoms: O_4  and  N_38
   10  A    between atoms: C_7  and  C_8
   11  A    between atoms: C_7  and  C_21
   12  A    between atoms: C_8  and  C_22
   13  A    between atoms: C_11  and  C_21
   14  A    between atoms: C_11  and  N_23
   15  A    between atoms: C_12  and  O_35
   16  A    between atoms: C_15  and  C_42
   17  A    between atoms: C_20  and  O_35
   18  A    between atoms: C_39  and  C_41
   19  A    between atoms: C_41  and  C_42
                            x       y       z     vdW  Elec       q    Type
                         _______ _______ _______ _____ _____    ______ ____

>  <TORSDO>
F 19

$$$$
=
 OpenBabel11062411013D

 49 52  0  0  1  0  0  0  0  0999 V2000
  190.0710  177.8270  140.4600 C   0  0  0  0  0  2  0  0  0  0  0  0
  185.3330  179.0630  143.7430 C   0  0  0  0  0  3  0  0  0  0  0  0
  184.8710  179.1780  146.0360 O   0  0  0  0  0  1  0  0  0  0  0  0
  185.4920  178.5480  144.9650 C   0  0  0  0  0  0  0  0  0  0  0  0
  189.0720  177.1720  141.4090 C   0  0  1  0  0  3  0  0  0  0  0  0
  189.3760  177.2730  142.9350 C   0  0  2  0  0  0  0  0  0  0  0  0
  187.1340  177.9320  142.4210 C   0  0  0  0  0  0  0  0  0  0  0  0
  188.0080  177.5180  143.5080 C   0  0  0  0  0  0  0  0  0  0  0  0
  187.6440  177.2760  144.7700 C   0  0  0  0  0  3  0  0  0  0  0  0
  185.9780  178.5970  142.5020 C   0  0  0  0  0  3  0  0  0  0  0  0
  187.7670  177.7040  141.2170 O   0  0  0  0  0  0  0  0  0  0  0  0
  186.2220  177.2690  145.2200 C   0  0  0  0  0  2  0  0  0  0  0  0
  190.4610  178.6900  143.3600 S   0  0  0  0  0  1  0  0  0  0  0  0
  189.9950  175.9410  143.3790 C   0  0  0  0  0  2  0  0  0  0  0  0
  191.4690  176.0560  143.7440 C   0  0  0  0  0  2  0  0  0  0  0  0
  192.0030  174.7440  144.2990 C   0  0  0  0  0  2  0  0  0  0  0  0
  192.3870  174.8590  145.7750 C   0  0  0  0  0  2  0  0  0  0  0  0
  192.1840  176.2170  146.2660 N   0  0  0  0  0  2  0  0  0  0  0  0
  192.4870  176.2230  147.5880 O   0  0  0  0  0  0  0  0  0  0  0  0
  191.6160  177.1070  148.1330 N   0  0  0  0  0  2  0  0  0  0  0  0
  190.5540  177.3140  147.1630 C   0  0  0  0  0  2  0  0  0  0  0  0
  188.2890  177.5810  148.2660 C   0  0  0  0  0  0  0  0  0  0  0  0
  188.1100  176.3330  148.2960 O   0  0  0  0  0  0  0  0  0  0  0  0
  189.5000  178.1320  147.7470 N   0  0  0  0  0  2  0  0  0  0  0  0
  187.2320  178.4920  148.7830 C   0  0  0  0  0  1  0  0  0  0  0  0
  190.6730  176.7940  139.5270 C   0  0  0  0  0  2  0  0  0  0  0  0
  189.9580  176.8410  138.1950 C   0  0  0  0  0  2  0  0  0  0  0  0
  189.3370  178.2100  138.0040 C   0  0  0  0  0  2  0  0  0  0  0  0
  186.9550  177.8780  137.9720 N   0  0  0  0  0  0  0  0  0  0  0  0
  188.0290  178.0840  137.2990 C   0  0  0  0  0  3  0  0  0  0  0  0
  185.6780  177.7510  137.3120 C   0  0  2  0  0  3  0  0  0  0  0  0
  183.6800  176.7890  138.4590 C   0  0  0  0  0  3  0  0  0  0  0  0
  184.4080  179.0090  139.0990 C   0  0  0  0  0  3  0  0  0  0  0  0
  182.6420  176.8610  139.3910 C   0  0  0  0  0  0  0  0  0  0  0  0
  183.3720  179.0820  140.0330 C   0  0  0  0  0  3  0  0  0  0  0  0
  182.4890  178.0080  140.1780 C   0  0  0  0  0  3  0  0  0  0  0  0
  184.5620  177.8610  138.3040 C   0  0  0  0  0  0  0  0  0  0  0  0
  181.7550  175.7650  139.5480 N   0  0  0  0  0  1  0  0  0  0  0  0
  184.7410  176.4770  135.2540 C   0  0  0  0  0  2  0  0  0  0  0  0
  184.6560  174.0110  135.4370 C   0  0  0  0  0  0  0  0  0  0  0  0
  186.0010  174.0680  136.1270 C   0  0  0  0  0  2  0  0  0  0  0  0
  186.1410  175.3330  136.9340 C   0  0  0  0  0  3  0  0  0  0  0  0
  184.0650  175.1440  135.0500 C   0  0  0  0  0  3  0  0  0  0  0  0
  185.5720  176.4770  136.5110 C   0  0  0  0  0  0  0  0  0  0  0  0
  183.9960  172.7970  135.2220 O   0  0  0  0  0  0  0  0  0  0  0  0
  183.1200  172.2010  136.1390 C   0  0  0  0  0  0  0  0  0  0  0  0
  183.5720  171.8100  137.2460 O   0  0  0  0  0  0  0  0  0  0  0  0
  181.7180  172.0810  135.8800 N   0  0  0  0  0  2  0  0  0  0  0  0
  181.0500  172.7860  134.7960 C   0  0  0  0  0  1  0  0  0  0  0  0
  2  4  2  0  0  0  0
  4 12  1  0  0  0  0
  4  3  1  0  0  0  0
  5  1  1  6  0  0  0
  5  6  1  0  0  0  0
  6 13  1  1  0  0  0
  6 14  1  0  0  0  0
  6  8  1  0  0  0  0
  7 10  2  0  0  0  0
  7  8  1  0  0  0  0
  8  9  2  0  0  0  0
  9 12  1  0  0  0  0
 10  2  1  0  0  0  0
 11  5  1  0  0  0  0
 11  7  1  0  0  0  0
 14 15  1  0  0  0  0
 15 16  1  0  0  0  0
 16 17  1  0  0  0  0
 17 18  1  0  0  0  0
 18 19  1  0  0  0  0
 19 20  1  0  0  0  0
 21 24  1  0  0  0  0
 21 20  1  0  0  0  0
 22 23  2  0  0  0  0
 22 25  1  0  0  0  0
 24 22  1  0  0  0  0
 26  1  1  0  0  0  0
 27 26  1  0  0  0  0
 28 27  1  0  0  0  0
 30 29  2  0  0  0  0
 30 28  1  0  0  0  0
 31 29  1  1  0  0  0
 31 37  1  0  0  0  0
 32 34  1  0  0  0  0
 33 35  2  0  0  0  0
 34 38  1  0  0  0  0
 34 36  2  0  0  0  0
 35 36  1  0  0  0  0
 37 32  2  0  0  0  0
 37 33  1  0  0  0  0
 39 44  1  0  0  0  0
 40 41  1  0  0  0  0
 41 42  1  0  0  0  0
 43 39  1  0  0  0  0
 43 40  2  0  0  0  0
 44 42  2  0  0  0  0
 44 31  1  0  0  0  0
 45 40  1  0  0  0  0
 45 46  1  0  0  0  0
 46 47  2  0  0  0  0
 48 46  1  0  0  0  0
 49 48  1  0  0  0  0
M  END
>  <MODEL>
4

>  <REMARK>
 VINA RESULT:      -6.8      2.995      9.443
  Name = 
  19 active torsions:
  status: ('A' for Active; 'I' for Inactive)
    1  A    between atoms: C_1  and  N_25
    2  A    between atoms: C_1  and  N_38
    3  A    between atoms: C_2  and  C_17
    4  A    between atoms: C_2  and  C_39
    5  A    between atoms: C_3  and  N_10
    6  A    between atoms: C_3  and  C_40
    7  A    between atoms: C_3  and  C_47
    8  A    between atoms: O_4  and  N_23
    9  A    between atoms: O_4  and  N_38
   10  A    between atoms: C_7  and  C_8
   11  A    between atoms: C_7  and  C_21
   12  A    between atoms: C_8  and  C_22
   13  A    between atoms: C_11  and  C_21
   14  A    between atoms: C_11  and  N_23
   15  A    between atoms: C_12  and  O_35
   16  A    between atoms: C_15  and  C_42
   17  A    between atoms: C_20  and  O_35
   18  A    between atoms: C_39  and  C_41
   19  A    between atoms: C_41  and  C_42
                            x       y       z     vdW  Elec       q    Type
                         _______ _______ _______ _____ _____    ______ ____

>  <TORSDO>
F 19

$$$$
=
 OpenBabel11062411013D

 49 52  0  0  1  0  0  0  0  0999 V2000
  189.4180  177.7530  137.2920 C   0  0  0  0  0  2  0  0  0  0  0  0
  194.6050  174.9620  137.0820 C   0  0  0  0  0  3  0  0  0  0  0  0
  195.5570  173.2990  135.7350 O   0  0  0  0  0  1  0  0  0  0  0  0
  194.4640  173.8080  136.4250 C   0  0  0  0  0  0  0  0  0  0  0  0
  190.0460  176.3820  137.5250 C   0  0  1  0  0  3  0  0  0  0  0  0
  190.2110  175.4590  136.2800 C   0  0  2  0  0  0  0  0  0  0  0  0
  192.2390  175.6410  137.5370 C   0  0  0  0  0  0  0  0  0  0  0  0
  191.5600  174.8430  136.5270 C   0  0  0  0  0  0  0  0  0  0  0  0
  191.9960  173.6970  135.9960 C   0  0  0  0  0  3  0  0  0  0  0  0
  193.5490  175.7050  137.7920 C   0  0  0  0  0  3  0  0  0  0  0  0
  191.3360  176.5100  138.1120 O   0  0  0  0  0  0  0  0  0  0  0  0
  193.2150  172.9880  136.4800 C   0  0  0  0  0  2  0  0  0  0  0  0
  190.2620  176.3870  134.6980 S   0  0  0  0  0  1  0  0  0  0  0  0
  189.0630  174.4410  136.2960 C   0  0  0  0  0  2  0  0  0  0  0  0
  187.9640  174.7600  135.2910 C   0  0  0  0  0  2  0  0  0  0  0  0
  186.7380  175.3410  135.9820 C   0  0  0  0  0  2  0  0  0  0  0  0
  186.1370  174.3680  136.9970 C   0  0  0  0  0  2  0  0  0  0  0  0
  184.6980  174.2270  136.8000 N   0  0  0  0  0  2  0  0  0  0  0  0
  184.0830  174.7450  137.8920 O   0  0  0  0  0  0  0  0  0  0  0  0
  182.8280  175.0360  137.4700 N   0  0  0  0  0  2  0  0  0  0  0  0
  182.8520  176.4000  136.9660 C   0  0  0  0  0  2  0  0  0  0  0  0
  183.6380  178.1740  138.5950 C   0  0  0  0  0  0  0  0  0  0  0  0
  182.4560  178.4180  138.9630 O   0  0  0  0  0  0  0  0  0  0  0  0
  183.9050  177.1560  137.6300 N   0  0  0  0  0  2  0  0  0  0  0  0
  184.7680  178.9480  139.1750 C   0  0  0  0  0  1  0  0  0  0  0  0
  189.2750  178.5020  138.6030 C   0  0  0  0  0  2  0  0  0  0  0  0
  188.3360  177.7450  139.5160 C   0  0  0  0  0  2  0  0  0  0  0  0
  189.0670  177.3660  140.7880 C   0  0  0  0  0  2  0  0  0  0  0  0
  187.8080  177.6260  142.8210 N   0  0  0  0  0  0  0  0  0  0  0  0
  188.5540  178.1750  141.9320 C   0  0  0  0  0  3  0  0  0  0  0  0
  187.2980  178.3890  143.9360 C   0  0  2  0  0  3  0  0  0  0  0  0
  189.2440  177.5430  145.2520 C   0  0  0  0  0  3  0  0  0  0  0  0
  187.1270  177.8290  146.3950 C   0  0  0  0  0  3  0  0  0  0  0  0
  189.8270  177.1020  146.4430 C   0  0  0  0  0  0  0  0  0  0  0  0
  187.7090  177.3910  147.5870 C   0  0  0  0  0  3  0  0  0  0  0  0
  189.0590  177.0270  147.6100 C   0  0  0  0  0  3  0  0  0  0  0  0
  187.8940  177.9020  145.2210 C   0  0  0  0  0  0  0  0  0  0  0  0
  191.2000  176.7470  146.4680 N   0  0  0  0  0  1  0  0  0  0  0  0
  185.0250  177.7720  142.8470 C   0  0  0  0  0  2  0  0  0  0  0  0
  183.0510  179.0400  143.6350 C   0  0  0  0  0  0  0  0  0  0  0  0
  183.6160  178.9470  145.0360 C   0  0  0  0  0  2  0  0  0  0  0  0
  185.1230  178.9540  145.0120 C   0  0  0  0  0  3  0  0  0  0  0  0
  183.7270  178.5040  142.6150 C   0  0  0  0  0  3  0  0  0  0  0  0
  185.7910  178.3760  143.9960 C   0  0  0  0  0  0  0  0  0  0  0  0
  181.8490  179.7050  143.3750 O   0  0  0  0  0  0  0  0  0  0  0  0
  180.6030  179.0720  143.2780 C   0  0  0  0  0  0  0  0  0  0  0  0
  180.1500  178.4610  144.2800 O   0  0  0  0  0  0  0  0  0  0  0  0
  179.8020  179.1520  142.0940 N   0  0  0  0  0  2  0  0  0  0  0  0
  180.0740  180.0910  141.0160 C   0  0  0  0  0  1  0  0  0  0  0  0
  1 26  1  0  0  0  0
  2 10  1  0  0  0  0
  3  4  1  0  0  0  0
  4 12  1  0  0  0  0
  4  2  2  0  0  0  0
  5  1  1  6  0  0  0
  5 11  1  0  0  0  0
  6 13  1  6  0  0  0
  6 14  1  0  0  0  0
  6  8  1  0  0  0  0
  6  5  1  0  0  0  0
  7 10  2  0  0  0  0
  7 11  1  0  0  0  0
  8  7  1  0  0  0  0
  9 12  1  0  0  0  0
  9  8  2  0  0  0  0
 15 16  1  0  0  0  0
 15 14  1  0  0  0  0
 16 17  1  0  0  0  0
 18 17  1  0  0  0  0
 18 19  1  0  0  0  0
 20 19  1  0  0  0  0
 21 20  1  0  0  0  0
 21 24  1  0  0  0  0
 22 23  2  0  0  0  0
 22 25  1  0  0  0  0
 24 22  1  0  0  0  0
 26 27  1  0  0  0  0
 27 28  1  0  0  0  0
 28 30  1  0  0  0  0
 30 29  2  0  0  0  0
 31 29  1  6  0  0  0
 31 44  1  0  0  0  0
 31 37  1  0  0  0  0
 32 34  1  0  0  0  0
 33 35  2  0  0  0  0
 34 38  1  0  0  0  0
 34 36  2  0  0  0  0
 35 36  1  0  0  0  0
 37 32  2  0  0  0  0
 37 33  1  0  0  0  0
 39 44  1  0  0  0  0
 40 41  1  0  0  0  0
 42 41  1  0  0  0  0
 43 39  1  0  0  0  0
 43 40  2  0  0  0  0
 44 42  2  0  0  0  0
 45 40  1  0  0  0  0
 46 45  1  0  0  0  0
 46 47  2  0  0  0  0
 48 46  1  0  0  0  0
 49 48  1  0  0  0  0
M  END
>  <MODEL>
5

>  <REMARK>
 VINA RESULT:      -6.7      3.272      8.346
  Name = 
  19 active torsions:
  status: ('A' for Active; 'I' for Inactive)
    1  A    between atoms: C_1  and  N_25
    2  A    between atoms: C_1  and  N_38
    3  A    between atoms: C_2  and  C_17
    4  A    between atoms: C_2  and  C_39
    5  A    between atoms: C_3  and  N_10
    6  A    between atoms: C_3  and  C_40
    7  A    between atoms: C_3  and  C_47
    8  A    between atoms: O_4  and  N_23
    9  A    between atoms: O_4  and  N_38
   10  A    between atoms: C_7  and  C_8
   11  A    between atoms: C_7  and  C_21
   12  A    between atoms: C_8  and  C_22
   13  A    between atoms: C_11  and  C_21
   14  A    between atoms: C_11  and  N_23
   15  A    between atoms: C_12  and  O_35
   16  A    between atoms: C_15  and  C_42
   17  A    between atoms: C_20  and  O_35
   18  A    between atoms: C_39  and  C_41
   19  A    between atoms: C_41  and  C_42
                            x       y       z     vdW  Elec       q    Type
                         _______ _______ _______ _____ _____    ______ ____

>  <TORSDO>
F 19

$$$$
=
 OpenBabel11062411013D

 49 52  0  0  1  0  0  0  0  0999 V2000
  186.8210  177.9770  143.2340 C   0  0  0  0  0  2  0  0  0  0  0  0
  190.1120  177.4170  148.0930 C   0  0  0  0  0  3  0  0  0  0  0  0
  192.4050  177.4170  148.5690 O   0  0  0  0  0  1  0  0  0  0  0  0
  191.3470  177.0390  147.7530 C   0  0  0  0  0  0  0  0  0  0  0  0
  187.7980  177.0200  143.9100 C   0  0  1  0  0  3  0  0  0  0  0  0
  189.3170  177.2770  143.6710 C   0  0  2  0  0  0  0  0  0  0  0  0
  188.8060  177.0170  145.9940 C   0  0  0  0  0  0  0  0  0  0  0  0
  189.8960  176.9990  145.0310 C   0  0  0  0  0  0  0  0  0  0  0  0
  191.1690  176.6760  145.2780 C   0  0  0  0  0  3  0  0  0  0  0  0
  188.8790  177.1940  147.3160 C   0  0  0  0  0  3  0  0  0  0  0  0
  187.6030  177.0090  145.3190 O   0  0  0  0  0  0  0  0  0  0  0  0
  191.6320  176.1420  146.5910 C   0  0  0  0  0  2  0  0  0  0  0  0
  189.6910  179.0120  143.2080 S   0  0  0  0  0  1  0  0  0  0  0  0
  189.7950  176.2940  142.5930 C   0  0  0  0  0  2  0  0  0  0  0  0
  189.3980  176.7110  141.1830 C   0  0  0  0  0  2  0  0  0  0  0  0
  190.6170  176.8290  140.2800 C   0  0  0  0  0  2  0  0  0  0  0  0
  190.2780  177.4850  138.9410 C   0  0  0  0  0  2  0  0  0  0  0  0
  189.4030  178.6370  139.1260 N   0  0  0  0  0  2  0  0  0  0  0  0
  188.1950  178.3230  138.5960 O   0  0  0  0  0  0  0  0  0  0  0  0
  188.4880  177.5990  137.4880 N   0  0  0  0  0  2  0  0  0  0  0  0
  187.8670  178.2740  136.3600 C   0  0  0  0  0  2  0  0  0  0  0  0
  185.6720  177.0080  136.3830 C   0  0  0  0  0  0  0  0  0  0  0  0
  186.2610  175.9020  136.2360 O   0  0  0  0  0  0  0  0  0  0  0  0
  186.4170  178.2220  136.4880 N   0  0  0  0  0  2  0  0  0  0  0  0
  184.1870  177.0510  136.4560 C   0  0  0  0  0  1  0  0  0  0  0  0
  185.8770  178.5800  144.2570 C   0  0  0  0  0  2  0  0  0  0  0  0
  184.7240  179.2510  143.5430 C   0  0  0  0  0  2  0  0  0  0  0  0
  184.5310  178.6090  142.1840 C   0  0  0  0  0  2  0  0  0  0  0  0
  182.7460  178.5510  140.5740 N   0  0  0  0  0  0  0  0  0  0  0  0
  183.0880  178.6330  141.8080 C   0  0  0  0  0  3  0  0  0  0  0  0
  181.3550  178.5740  140.1850 C   0  0  2  0  0  3  0  0  0  0  0  0
  181.5780  176.4430  138.9030 C   0  0  0  0  0  3  0  0  0  0  0  0
  179.7670  176.6330  140.5020 C   0  0  0  0  0  3  0  0  0  0  0  0
  181.1650  175.1460  138.5900 C   0  0  0  0  0  0  0  0  0  0  0  0
  179.3540  175.3360  140.1920 C   0  0  0  0  0  3  0  0  0  0  0  0
  180.0530  174.5920  139.2350 C   0  0  0  0  0  3  0  0  0  0  0  0
  180.8810  177.1930  139.8530 C   0  0  0  0  0  0  0  0  0  0  0  0
  181.8830  174.3870  137.6310 N   0  0  0  0  0  1  0  0  0  0  0  0
  182.1230  180.5870  138.7380 C   0  0  0  0  0  2  0  0  0  0  0  0
  180.3440  181.8110  137.5300 C   0  0  0  0  0  0  0  0  0  0  0  0
  179.7000  180.4750  137.2310 C   0  0  0  0  0  2  0  0  0  0  0  0
  179.9430  179.4960  138.3510 C   0  0  0  0  0  3  0  0  0  0  0  0
  181.4670  181.8550  138.2520 C   0  0  0  0  0  3  0  0  0  0  0  0
  181.0970  179.5280  139.0450 C   0  0  0  0  0  0  0  0  0  0  0  0
  179.7730  183.0110  137.0940 O   0  0  0  0  0  0  0  0  0  0  0  0
  180.4530  183.9850  136.3520 C   0  0  0  0  0  0  0  0  0  0  0  0
  181.1530  183.6230  135.3710 O   0  0  0  0  0  0  0  0  0  0  0  0
  180.3270  185.3820  136.6370 N   0  0  0  0  0  2  0  0  0  0  0  0
  179.3030  185.9200  137.5200 C   0  0  0  0  0  1  0  0  0  0  0  0
  1 26  1  0  0  0  0
  4  2  2  0  0  0  0
  4  3  1  0  0  0  0
  5  1  1  6  0  0  0
  5 11  1  0  0  0  0
  6 13  1  6  0  0  0
  6  5  1  0  0  0  0
  6  8  1  0  0  0  0
  7 10  2  0  0  0  0
  8  9  2  0  0  0  0
  8  7  1  0  0  0  0
  9 12  1  0  0  0  0
 10  2  1  0  0  0  0
 11  7  1  0  0  0  0
 12  4  1  0  0  0  0
 14  6  1  0  0  0  0
 15 14  1  0  0  0  0
 16 15  1  0  0  0  0
 17 18  1  0  0  0  0
 17 16  1  0  0  0  0
 19 18  1  0  0  0  0
 20 19  1  0  0  0  0
 21 24  1  0  0  0  0
 21 20  1  0  0  0  0
 22 25  1  0  0  0  0
 22 24  1  0  0  0  0
 23 22  2  0  0  0  0
 27 26  1  0  0  0  0
 28 27  1  0  0  0  0
 29 30  2  0  0  0  0
 30 28  1  0  0  0  0
 31 29  1  6  0  0  0
 32 37  1  0  0  0  0
 34 32  2  0  0  0  0
 34 36  1  0  0  0  0
 35 33  1  0  0  0  0
 36 35  2  0  0  0  0
 37 31  1  0  0  0  0
 37 33  2  0  0  0  0
 38 34  1  0  0  0  0
 39 44  1  0  0  0  0
 40 43  2  0  0  0  0
 41 40  1  0  0  0  0
 41 42  1  0  0  0  0
 42 44  2  0  0  0  0
 43 39  1  0  0  0  0
 44 31  1  0  0  0  0
 45 40  1  0  0  0  0
 46 48  1  0  0  0  0
 46 45  1  0  0  0  0
 47 46  2  0  0  0  0
 48 49  1  0  0  0  0
M  END
>  <MODEL>
6

>  <REMARK>
 VINA RESULT:      -6.5      3.630     10.998
  Name = 
  19 active torsions:
  status: ('A' for Active; 'I' for Inactive)
    1  A    between atoms: C_1  and  N_25
    2  A    between atoms: C_1  and  N_38
    3  A    between atoms: C_2  and  C_17
    4  A    between atoms: C_2  and  C_39
    5  A    between atoms: C_3  and  N_10
    6  A    between atoms: C_3  and  C_40
    7  A    between atoms: C_3  and  C_47
    8  A    between atoms: O_4  and  N_23
    9  A    between atoms: O_4  and  N_38
   10  A    between atoms: C_7  and  C_8
   11  A    between atoms: C_7  and  C_21
   12  A    between atoms: C_8  and  C_22
   13  A    between atoms: C_11  and  C_21
   14  A    between atoms: C_11  and  N_23
   15  A    between atoms: C_12  and  O_35
   16  A    between atoms: C_15  and  C_42
   17  A    between atoms: C_20  and  O_35
   18  A    between atoms: C_39  and  C_41
   19  A    between atoms: C_41  and  C_42
                            x       y       z     vdW  Elec       q    Type
                         _______ _______ _______ _____ _____    ______ ____

>  <TORSDO>
F 19

$$$$
=
 OpenBabel11062411013D

 49 52  0  0  1  0  0  0  0  0999 V2000
  184.2210  177.9290  141.0420 C   0  0  0  0  0  2  0  0  0  0  0  0
  180.6040  181.3600  137.8980 C   0  0  0  0  0  3  0  0  0  0  0  0
  179.0250  181.0160  136.2020 O   0  0  0  0  0  1  0  0  0  0  0  0
  180.2590  180.7300  136.7720 C   0  0  0  0  0  0  0  0  0  0  0  0
  184.0050  178.4530  139.6260 C   0  0  1  0  0  3  0  0  0  0  0  0
  183.0150  177.6580  138.7210 C   0  0  2  0  0  0  0  0  0  0  0  0
  182.5340  180.0010  138.7320 C   0  0  0  0  0  0  0  0  0  0  0  0
  182.2910  178.7650  138.0060 C   0  0  0  0  0  0  0  0  0  0  0  0
  181.6430  178.6400  136.8450 C   0  0  0  0  0  3  0  0  0  0  0  0
  181.8200  181.1310  138.6980 C   0  0  0  0  0  3  0  0  0  0  0  0
  183.5440  179.7990  139.6490 O   0  0  0  0  0  0  0  0  0  0  0  0
  181.1820  179.8090  136.0410 C   0  0  0  0  0  2  0  0  0  0  0  0
  181.8000  176.6720  139.6780 S   0  0  0  0  0  1  0  0  0  0  0  0
  183.8460  176.7690  137.7860 C   0  0  0  0  0  2  0  0  0  0  0  0
  185.0250  177.4970  137.1560 C   0  0  0  0  0  2  0  0  0  0  0  0
  186.3110  176.6980  137.3070 C   0  0  0  0  0  2  0  0  0  0  0  0
  186.3200  175.4520  136.4220 C   0  0  0  0  0  2  0  0  0  0  0  0
  186.4180  174.2370  137.2240 N   0  0  0  0  0  2  0  0  0  0  0  0
  185.8220  173.2380  136.5280 O   0  0  0  0  0  0  0  0  0  0  0  0
  184.9460  172.6870  137.4050 N   0  0  0  0  0  2  0  0  0  0  0  0
  183.8850  172.0760  136.6220 C   0  0  0  0  0  2  0  0  0  0  0  0
  182.0820  173.8410  136.3990 C   0  0  0  0  0  0  0  0  0  0  0  0
  181.7210  173.6820  137.5970 O   0  0  0  0  0  0  0  0  0  0  0  0
  183.1770  173.0970  135.8620 N   0  0  0  0  0  2  0  0  0  0  0  0
  181.3670  174.8180  135.5340 C   0  0  0  0  0  1  0  0  0  0  0  0
  183.7560  178.9500  142.0630 C   0  0  0  0  0  2  0  0  0  0  0  0
  184.9300  179.3800  142.9150 C   0  0  0  0  0  2  0  0  0  0  0  0
  185.3030  178.2570  143.8620 C   0  0  0  0  0  2  0  0  0  0  0  0
  187.1310  176.7170  143.5950 N   0  0  0  0  0  0  0  0  0  0  0  0
  186.7530  177.9370  143.7290 C   0  0  0  0  0  3  0  0  0  0  0  0
  188.5290  176.3820  143.4660 C   0  0  2  0  0  3  0  0  0  0  0  0
  188.5590  177.1270  145.8490 C   0  0  0  0  0  3  0  0  0  0  0  0
  190.6800  176.7370  144.7450 C   0  0  0  0  0  3  0  0  0  0  0  0
  189.2330  177.4710  147.0230 C   0  0  0  0  0  0  0  0  0  0  0  0
  191.3560  177.0790  145.9190 C   0  0  0  0  0  3  0  0  0  0  0  0
  190.6320  177.4460  147.0570 C   0  0  0  0  0  3  0  0  0  0  0  0
  189.2760  176.7650  144.7060 C   0  0  0  0  0  0  0  0  0  0  0  0
  188.4980  177.8300  148.1810 N   0  0  0  0  0  1  0  0  0  0  0  0
  188.3730  178.0290  141.4670 C   0  0  0  0  0  2  0  0  0  0  0  0
  189.8700  177.5730  139.5510 C   0  0  0  0  0  0  0  0  0  0  0  0
  190.9500  177.2150  140.5470 C   0  0  0  0  0  2  0  0  0  0  0  0
  190.3580  176.5970  141.7880 C   0  0  0  0  0  3  0  0  0  0  0  0
  188.6610  177.9340  139.9900 C   0  0  0  0  0  3  0  0  0  0  0  0
  189.1550  176.9990  142.2400 C   0  0  0  0  0  0  0  0  0  0  0  0
  190.0960  177.5040  138.1720 O   0  0  0  0  0  0  0  0  0  0  0  0
  190.0560  176.3210  137.4240 C   0  0  0  0  0  0  0  0  0  0  0  0
  190.1750  175.2200  138.0200 O   0  0  0  0  0  0  0  0  0  0  0  0
  189.8230  176.3240  136.0120 N   0  0  0  0  0  2  0  0  0  0  0  0
  189.3520  177.4960  135.2900 C   0  0  0  0  0  1  0  0  0  0  0  0
  1 26  1  0  0  0  0
  2 10  1  0  0  0  0
  3  4  1  0  0  0  0
  4  2  2  0  0  0  0
  5 11  1  0  0  0  0
  5  1  1  1  0  0  0
  6  5  1  0  0  0  0
  6 13  1  1  0  0  0
  7 11  1  0  0  0  0
  8  6  1  0  0  0  0
  8  7  1  0  0  0  0
  9  8  2  0  0  0  0
 10  7  2  0  0  0  0
 12  4  1  0  0  0  0
 12  9  1  0  0  0  0
 14  6  1  0  0  0  0
 15 16  1  0  0  0  0
 15 14  1  0  0  0  0
 17 18  1  0  0  0  0
 17 16  1  0  0  0  0
 19 18  1  0  0  0  0
 19 20  1  0  0  0  0
 21 20  1  0  0  0  0
 22 23  2  0  0  0  0
 24 22  1  0  0  0  0
 24 21  1  0  0  0  0
 25 22  1  0  0  0  0
 26 27  1  0  0  0  0
 27 28  1  0  0  0  0
 29 30  2  0  0  0  0
 30 28  1  0  0  0  0
 31 29  1  1  0  0  0
 31 37  1  0  0  0  0
 32 34  1  0  0  0  0
 33 35  2  0  0  0  0
 34 36  2  0  0  0  0
 34 38  1  0  0  0  0
 35 36  1  0  0  0  0
 37 33  1  0  0  0  0
 37 32  2  0  0  0  0
 39 44  1  0  0  0  0
 40 43  2  0  0  0  0
 40 41  1  0  0  0  0
 41 42  1  0  0  0  0
 42 44  2  0  0  0  0
 43 39  1  0  0  0  0
 44 31  1  0  0  0  0
 45 40  1  0  0  0  0
 46 47  2  0  0  0  0
 46 45  1  0  0  0  0
 48 46  1  0  0  0  0
 49 48  1  0  0  0  0
M  END
>  <MODEL>
7

>  <REMARK>
 VINA RESULT:      -6.4      2.902      7.363
  Name = 
  19 active torsions:
  status: ('A' for Active; 'I' for Inactive)
    1  A    between atoms: C_1  and  N_25
    2  A    between atoms: C_1  and  N_38
    3  A    between atoms: C_2  and  C_17
    4  A    between atoms: C_2  and  C_39
    5  A    between atoms: C_3  and  N_10
    6  A    between atoms: C_3  and  C_40
    7  A    between atoms: C_3  and  C_47
    8  A    between atoms: O_4  and  N_23
    9  A    between atoms: O_4  and  N_38
   10  A    between atoms: C_7  and  C_8
   11  A    between atoms: C_7  and  C_21
   12  A    between atoms: C_8  and  C_22
   13  A    between atoms: C_11  and  C_21
   14  A    between atoms: C_11  and  N_23
   15  A    between atoms: C_12  and  O_35
   16  A    between atoms: C_15  and  C_42
   17  A    between atoms: C_20  and  O_35
   18  A    between atoms: C_39  and  C_41
   19  A    between atoms: C_41  and  C_42
                            x       y       z     vdW  Elec       q    Type
                         _______ _______ _______ _____ _____    ______ ____

>  <TORSDO>
F 19

$$$$
=
 OpenBabel11062411013D

 49 52  0  0  1  0  0  0  0  0999 V2000
  185.0470  177.0780  137.1160 C   0  0  0  0  0  2  0  0  0  0  0  0
  183.6090  171.4090  136.3810 C   0  0  0  0  0  3  0  0  0  0  0  0
  181.7490  170.2480  135.5560 O   0  0  0  0  0  1  0  0  0  0  0  0
  182.2810  171.2930  136.3000 C   0  0  0  0  0  0  0  0  0  0  0  0
  184.1000  176.0080  137.6500 C   0  0  1  0  0  3  0  0  0  0  0  0
  182.7640  175.7950  136.8750 C   0  0  2  0  0  0  0  0  0  0  0  0
  183.9170  173.7340  137.2570 C   0  0  0  0  0  0  0  0  0  0  0  0
  182.6240  174.2980  136.9030 C   0  0  0  0  0  0  0  0  0  0  0  0
  181.4800  173.6260  136.7480 C   0  0  0  0  0  3  0  0  0  0  0  0
  184.3600  172.4920  137.0420 C   0  0  0  0  0  3  0  0  0  0  0  0
  184.7460  174.7410  137.7040 O   0  0  0  0  0  0  0  0  0  0  0  0
  181.3410  172.1740  137.0580 C   0  0  0  0  0  2  0  0  0  0  0  0
  182.8490  176.3520  135.1290 S   0  0  0  0  0  1  0  0  0  0  0  0
  181.6550  176.5270  137.6430 C   0  0  0  0  0  2  0  0  0  0  0  0
  182.1720  177.6830  138.4880 C   0  0  0  0  0  2  0  0  0  0  0  0
  181.8640  179.0230  137.8370 C   0  0  0  0  0  2  0  0  0  0  0  0
  181.3820  180.0580  138.8540 C   0  0  0  0  0  2  0  0  0  0  0  0
  181.2890  179.4790  140.1890 N   0  0  0  0  0  2  0  0  0  0  0  0
  180.1390  179.9270  140.7500 O   0  0  0  0  0  0  0  0  0  0  0  0
  180.4520  180.1280  142.0540 N   0  0  0  0  0  2  0  0  0  0  0  0
  180.6900  178.8200  142.6430 C   0  0  0  0  0  2  0  0  0  0  0  0
  182.9840  178.9370  143.7110 C   0  0  0  0  0  0  0  0  0  0  0  0
  183.5560  178.8740  142.5890 O   0  0  0  0  0  0  0  0  0  0  0  0
  181.5590  178.9500  143.8040 N   0  0  0  0  0  2  0  0  0  0  0  0
  183.8000  179.0040  144.9540 C   0  0  0  0  0  1  0  0  0  0  0  0
  186.4240  176.4920  136.8680 C   0  0  0  0  0  2  0  0  0  0  0  0
  187.3630  177.5870  136.4130 C   0  0  0  0  0  2  0  0  0  0  0  0
  187.5250  178.6050  137.5240 C   0  0  0  0  0  2  0  0  0  0  0  0
  189.2440  177.6300  138.8950 N   0  0  0  0  0  0  0  0  0  0  0  0
  188.9130  178.5530  138.0670 C   0  0  0  0  0  3  0  0  0  0  0  0
  190.5810  177.5600  139.4360 C   0  0  2  0  0  3  0  0  0  0  0  0
  190.7400  175.4690  138.0830 C   0  0  0  0  0  3  0  0  0  0  0  0
  192.7880  176.6600  138.5950 C   0  0  0  0  0  3  0  0  0  0  0  0
  191.4740  174.5130  137.3750 C   0  0  0  0  0  0  0  0  0  0  0  0
  193.5220  175.7070  137.8850 C   0  0  0  0  0  3  0  0  0  0  0  0
  192.8650  174.6330  137.2760 C   0  0  0  0  0  3  0  0  0  0  0  0
  191.3920  176.5400  138.6990 C   0  0  0  0  0  0  0  0  0  0  0  0
  190.8050  173.4330  136.7450 N   0  0  0  0  0  1  0  0  0  0  0  0
  189.3020  176.8550  141.5810 C   0  0  0  0  0  2  0  0  0  0  0  0
  190.2920  177.5700  143.7330 C   0  0  0  0  0  0  0  0  0  0  0  0
  191.6520  177.2460  143.1550 C   0  0  0  0  0  2  0  0  0  0  0  0
  191.6820  177.5020  141.6700 C   0  0  0  0  0  3  0  0  0  0  0  0
  189.1990  177.4020  142.9830 C   0  0  0  0  0  3  0  0  0  0  0  0
  190.5840  177.2910  140.9200 C   0  0  0  0  0  0  0  0  0  0  0  0
  190.1510  178.0740  145.0300 O   0  0  0  0  0  0  0  0  0  0  0  0
  189.7960  177.3010  146.1430 C   0  0  0  0  0  0  0  0  0  0  0  0
  190.7060  176.7910  146.8450 O   0  0  0  0  0  0  0  0  0  0  0  0
  188.4320  177.1240  146.5400 N   0  0  0  0  0  2  0  0  0  0  0  0
  187.3420  177.9260  146.0050 C   0  0  0  0  0  1  0  0  0  0  0  0
  2 10  1  0  0  0  0
  3  4  1  0  0  0  0
  4  2  2  0  0  0  0
  4 12  1  0  0  0  0
  5  1  1  6  0  0  0
  5 11  1  0  0  0  0
  6 13  1  6  0  0  0
  6  8  1  0  0  0  0
  6 14  1  0  0  0  0
  6  5  1  0  0  0  0
  7 11  1  0  0  0  0
  8  7  1  0  0  0  0
  9  8  2  0  0  0  0
  9 12  1  0  0  0  0
 10  7  2  0  0  0  0
 14 15  1  0  0  0  0
 16 15  1  0  0  0  0
 16 17  1  0  0  0  0
 17 18  1  0  0  0  0
 18 19  1  0  0  0  0
 19 20  1  0  0  0  0
 20 21  1  0  0  0  0
 21 24  1  0  0  0  0
 22 24  1  0  0  0  0
 22 25  1  0  0  0  0
 23 22  2  0  0  0  0
 26  1  1  0  0  0  0
 27 26  1  0  0  0  0
 27 28  1  0  0  0  0
 28 30  1  0  0  0  0
 30 29  2  0  0  0  0
 31 29  1  6  0  0  0
 31 44  1  0  0  0  0
 32 37  1  0  0  0  0
 33 37  2  0  0  0  0
 34 32  2  0  0  0  0
 35 33  1  0  0  0  0
 36 34  1  0  0  0  0
 36 35  2  0  0  0  0
 37 31  1  0  0  0  0
 38 34  1  0  0  0  0
 39 43  1  0  0  0  0
 40 45  1  0  0  0  0
 41 40  1  0  0  0  0
 42 41  1  0  0  0  0
 43 40  2  0  0  0  0
 44 39  1  0  0  0  0
 44 42  2  0  0  0  0
 45 46  1  0  0  0  0
 46 48  1  0  0  0  0
 46 47  2  0  0  0  0
 49 48  1  0  0  0  0
M  END
>  <MODEL>
8

>  <REMARK>
 VINA RESULT:      -6.4      1.683      2.073
  Name = 
  19 active torsions:
  status: ('A' for Active; 'I' for Inactive)
    1  A    between atoms: C_1  and  N_25
    2  A    between atoms: C_1  and  N_38
    3  A    between atoms: C_2  and  C_17
    4  A    between atoms: C_2  and  C_39
    5  A    between atoms: C_3  and  N_10
    6  A    between atoms: C_3  and  C_40
    7  A    between atoms: C_3  and  C_47
    8  A    between atoms: O_4  and  N_23
    9  A    between atoms: O_4  and  N_38
   10  A    between atoms: C_7  and  C_8
   11  A    between atoms: C_7  and  C_21
   12  A    between atoms: C_8  and  C_22
   13  A    between atoms: C_11  and  C_21
   14  A    between atoms: C_11  and  N_23
   15  A    between atoms: C_12  and  O_35
   16  A    between atoms: C_15  and  C_42
   17  A    between atoms: C_20  and  O_35
   18  A    between atoms: C_39  and  C_41
   19  A    between atoms: C_41  and  C_42
                            x       y       z     vdW  Elec       q    Type
                         _______ _______ _______ _____ _____    ______ ____

>  <TORSDO>
F 19

$$$$
=
 OpenBabel11062411013D

 49 52  0  0  1  0  0  0  0  0999 V2000
  190.2280  176.7330  137.6680 C   0  0  0  0  0  2  0  0  0  0  0  0
  195.5480  174.2630  137.0870 C   0  0  0  0  0  3  0  0  0  0  0  0
  196.5730  172.8450  135.5290 O   0  0  0  0  0  1  0  0  0  0  0  0
  195.4610  173.2020  136.2810 C   0  0  0  0  0  0  0  0  0  0  0  0
  190.9260  175.3780  137.7160 C   0  0  1  0  0  3  0  0  0  0  0  0
  191.1290  174.6390  136.3590 C   0  0  2  0  0  0  0  0  0  0  0  0
  193.1540  174.7540  137.6280 C   0  0  0  0  0  0  0  0  0  0  0  0
  192.5090  174.0650  136.5210 C   0  0  0  0  0  0  0  0  0  0  0  0
  192.9990  173.0240  135.8420 C   0  0  0  0  0  3  0  0  0  0  0  0
  194.4610  174.8500  137.8900 C   0  0  0  0  0  3  0  0  0  0  0  0
  192.2120  175.4910  138.3150 O   0  0  0  0  0  0  0  0  0  0  0  0
  194.2560  172.3190  136.2260 C   0  0  0  0  0  2  0  0  0  0  0  0
  191.1220  175.7710  134.9150 S   0  0  0  0  0  1  0  0  0  0  0  0
  190.0340  173.5700  136.2380 C   0  0  0  0  0  2  0  0  0  0  0  0
  188.8780  173.7840  137.2060 C   0  0  0  0  0  2  0  0  0  0  0  0
  187.5650  173.9760  136.4610 C   0  0  0  0  0  2  0  0  0  0  0  0
  186.4460  173.1080  137.0380 C   0  0  0  0  0  2  0  0  0  0  0  0
  185.1570  173.7860  136.9520 N   0  0  0  0  0  2  0  0  0  0  0  0
  185.2710  174.7640  136.0200 O   0  0  0  0  0  0  0  0  0  0  0  0
  184.1180  175.4690  136.1240 N   0  0  0  0  0  2  0  0  0  0  0  0
  184.4060  176.6430  136.9320 C   0  0  0  0  0  2  0  0  0  0  0  0
  186.3330  178.2630  137.2160 C   0  0  0  0  0  0  0  0  0  0  0  0
  185.9660  178.5580  138.3860 O   0  0  0  0  0  0  0  0  0  0  0  0
  185.6200  177.2900  136.4520 N   0  0  0  0  0  2  0  0  0  0  0  0
  187.5250  178.9280  136.6250 C   0  0  0  0  0  1  0  0  0  0  0  0
  190.3540  177.4430  139.0030 C   0  0  0  0  0  2  0  0  0  0  0  0
  189.1330  177.1520  139.8450 C   0  0  0  0  0  2  0  0  0  0  0  0
  188.5160  178.4570  140.3060 C   0  0  0  0  0  2  0  0  0  0  0  0
  187.9600  177.1650  142.2560 N   0  0  0  0  0  0  0  0  0  0  0  0
  188.0190  178.3220  141.7060 C   0  0  0  0  0  3  0  0  0  0  0  0
  187.4810  177.0090  143.6100 C   0  0  2  0  0  3  0  0  0  0  0  0
  185.3090  177.8730  142.7330 C   0  0  0  0  0  3  0  0  0  0  0  0
  185.8720  178.3270  145.0460 C   0  0  0  0  0  3  0  0  0  0  0  0
  184.1010  178.5540  142.8940 C   0  0  0  0  0  0  0  0  0  0  0  0
  184.6630  179.0060  145.2090 C   0  0  0  0  0  3  0  0  0  0  0  0
  183.7780  179.1200  144.1320 C   0  0  0  0  0  3  0  0  0  0  0  0
  186.2010  177.7600  143.8020 C   0  0  0  0  0  0  0  0  0  0  0  0
  183.1970  178.6570  141.8050 N   0  0  0  0  0  1  0  0  0  0  0  0
  189.7910  178.0570  144.1560 C   0  0  0  0  0  2  0  0  0  0  0  0
  190.7850  177.4450  146.3380 C   0  0  0  0  0  0  0  0  0  0  0  0
  189.4010  177.5550  146.9400 C   0  0  0  0  0  2  0  0  0  0  0  0
  188.3450  177.1560  145.9420 C   0  0  0  0  0  3  0  0  0  0  0  0
  190.9550  177.6630  145.0310 C   0  0  0  0  0  3  0  0  0  0  0  0
  188.5130  177.4170  144.6320 C   0  0  0  0  0  0  0  0  0  0  0  0
  191.8920  177.0870  147.1140 O   0  0  0  0  0  0  0  0  0  0  0  0
  192.4250  175.7940  147.1800 C   0  0  0  0  0  0  0  0  0  0  0  0
  192.4020  175.0730  146.1490 O   0  0  0  0  0  0  0  0  0  0  0  0
  193.0490  175.2900  148.3650 N   0  0  0  0  0  2  0  0  0  0  0  0
  193.4200  176.1390  149.4870 C   0  0  0  0  0  1  0  0  0  0  0  0
  1 26  1  0  0  0  0
  2 10  1  0  0  0  0
  3  4  1  0  0  0  0
  4  2  2  0  0  0  0
  5  1  1  6  0  0  0
  5 11  1  0  0  0  0
  6 13  1  6  0  0  0
  6  8  1  0  0  0  0
  6  5  1  0  0  0  0
  7 10  2  0  0  0  0
  7 11  1  0  0  0  0
  8  7  1  0  0  0  0
  9 12  1  0  0  0  0
  9  8  2  0  0  0  0
 12  4  1  0  0  0  0
 14  6  1  0  0  0  0
 14 15  1  0  0  0  0
 16 17  1  0  0  0  0
 16 15  1  0  0  0  0
 18 17  1  0  0  0  0
 19 20  1  0  0  0  0
 19 18  1  0  0  0  0
 20 21  1  0  0  0  0
 22 23  2  0  0  0  0
 24 21  1  0  0  0  0
 24 22  1  0  0  0  0
 25 22  1  0  0  0  0
 26 27  1  0  0  0  0
 27 28  1  0  0  0  0
 28 30  1  0  0  0  0
 30 29  2  0  0  0  0
 31 29  1  6  0  0  0
 31 37  1  0  0  0  0
 31 44  1  0  0  0  0
 32 34  2  0  0  0  0
 32 37  1  0  0  0  0
 33 35  1  0  0  0  0
 34 36  1  0  0  0  0
 36 35  2  0  0  0  0
 37 33  2  0  0  0  0
 38 34  1  0  0  0  0
 39 44  1  0  0  0  0
 39 43  1  0  0  0  0
 40 41  1  0  0  0  0
 40 45  1  0  0  0  0
 42 41  1  0  0  0  0
 43 40  2  0  0  0  0
 44 42  2  0  0  0  0
 45 46  1  0  0  0  0
 46 48  1  0  0  0  0
 47 46  2  0  0  0  0
 48 49  1  0  0  0  0
M  END
>  <MODEL>
9

>  <REMARK>
 VINA RESULT:      -6.4      3.280      8.162
  Name = 
  19 active torsions:
  status: ('A' for Active; 'I' for Inactive)
    1  A    between atoms: C_1  and  N_25
    2  A    between atoms: C_1  and  N_38
    3  A    between atoms: C_2  and  C_17
    4  A    between atoms: C_2  and  C_39
    5  A    between atoms: C_3  and  N_10
    6  A    between atoms: C_3  and  C_40
    7  A    between atoms: C_3  and  C_47
    8  A    between atoms: O_4  and  N_23
    9  A    between atoms: O_4  and  N_38
   10  A    between atoms: C_7  and  C_8
   11  A    between atoms: C_7  and  C_21
   12  A    between atoms: C_8  and  C_22
   13  A    between atoms: C_11  and  C_21
   14  A    between atoms: C_11  and  N_23
   15  A    between atoms: C_12  and  O_35
   16  A    between atoms: C_15  and  C_42
   17  A    between atoms: C_20  and  O_35
   18  A    between atoms: C_39  and  C_41
   19  A    between atoms: C_41  and  C_42
                            x       y       z     vdW  Elec       q    Type
                         _______ _______ _______ _____ _____    ______ ____

>  <TORSDO>
F 19

$$$$
