=
 OpenBabel11062417093D

 36 39  0  0  1  0  0  0  0  0999 V2000
  189.7520  178.1630  145.1550 C   0  0  0  0  0  3  0  0  0  0  0  0
  190.3500  177.9900  143.9690 C   0  0  0  0  0  0  0  0  0  0  0  0
  189.0720  177.0320  147.2180 C   0  0  0  0  0  0  0  0  0  0  0  0
  186.5780  178.1410  146.4990 C   0  0  0  0  0  0  0  0  0  0  0  0
  187.0820  178.1890  147.8760 C   0  0  0  0  0  3  0  0  0  0  0  0
  185.2860  178.5920  146.2170 C   0  0  0  0  0  3  0  0  0  0  0  0
  184.7750  178.4990  144.9180 C   0  0  0  0  0  0  0  0  0  0  0  0
  188.2290  177.6660  148.1890 N   0  0  0  0  0  0  0  0  0  0  0  0
  186.8590  177.5060  144.1750 C   0  0  0  0  0  3  0  0  0  0  0  0
  185.5630  177.9540  143.8970 C   0  0  0  0  0  3  0  0  0  0  0  0
  190.0740  176.3760  147.6010 O   0  0  0  0  0  0  0  0  0  0  0  0
  188.7940  177.1710  145.7430 C   0  0  1  0  0  3  0  0  0  0  0  0
  187.3760  177.6010  145.4740 C   0  0  0  0  0  0  0  0  0  0  0  0
  183.4080  179.0110  144.6110 C   0  0  0  0  0  2  0  0  0  0  0  0
  184.2120  179.3270  142.3980 O   0  0  0  0  0  0  0  0  0  0  0  0
  179.4110  178.7620  142.4470 C   0  0  0  0  0  1  0  0  0  0  0  0
  180.6890  178.7010  143.1990 C   0  0  0  0  0  0  0  0  0  0  0  0
  181.9100  179.0390  142.5300 N   0  0  0  0  0  2  0  0  0  0  0  0
  183.2090  179.1190  143.1320 C   0  0  0  0  0  0  0  0  0  0  0  0
  180.6830  178.3320  144.4030 O   0  0  0  0  0  0  0  0  0  0  0  0
  191.2910  180.1380  144.3240 O   0  0  0  0  0  1  0  0  0  0  0  0
  191.3090  179.0270  143.4780 C   0  0  0  0  0  2  0  0  0  0  0  0
  190.0720  176.7890  143.1090 C   0  0  0  0  0  2  0  0  0  0  0  0
  191.6610  177.0510  141.3950 O   0  0  0  0  0  0  0  0  0  0  0  0
  190.4780  177.0510  141.6960 C   0  0  0  0  0  0  0  0  0  0  0  0
  189.4250  177.3100  140.6610 C   0  0  1  0  0  3  0  0  0  0  0  0
  188.3740  178.2920  141.1670 C   0  0  0  0  0  1  0  0  0  0  0  0
  189.5000  174.6700  137.1400 N   0  0  0  0  0  2  0  0  0  0  0  0
  190.0200  177.6600  139.3610 N   0  0  0  0  0  0  0  0  0  0  0  0
  189.1800  175.8580  137.9030 C   0  0  2  0  0  3  0  0  0  0  0  0
  189.2500  178.6520  138.5720 C   0  0  0  0  0  2  0  0  0  0  0  0
  188.6620  176.8700  136.9400 C   0  0  1  0  0  3  0  0  0  0  0  0
  188.3430  174.4330  136.2760 C   0  0  0  0  0  2  0  0  0  0  0  0
  187.4120  175.9870  136.0020 S   0  0  0  0  0  0  0  0  0  0  0  0
  188.1130  178.0380  137.7340 C   0  0  0  0  0  2  0  0  0  0  0  0
  190.3910  176.4500  138.6070 C   0  0  0  0  0  2  0  0  0  0  0  0
  2  1  2  0  0  0  0
  3 11  2  0  0  0  0
  3  8  1  0  0  0  0
  4  5  1  0  0  0  0
  5  8  2  0  0  0  0
  6  4  1  0  0  0  0
  7  6  2  0  0  0  0
  9 13  1  0  0  0  0
 10  9  2  0  0  0  0
 10  7  1  0  0  0  0
 12  1  1  1  0  0  0
 12  3  1  0  0  0  0
 13 12  1  0  0  0  0
 13  4  2  0  0  0  0
 14  7  1  0  0  0  0
 15 19  2  0  0  0  0
 16 17  1  0  0  0  0
 17 20  2  0  0  0  0
 18 19  1  0  0  0  0
 18 17  1  0  0  0  0
 19 14  1  0  0  0  0
 22  2  1  0  0  0  0
 22 21  1  0  0  0  0
 23  2  1  0  0  0  0
 24 25  2  0  0  0  0
 25 23  1  0  0  0  0
 26 27  1  1  0  0  0
 26 25  1  0  0  0  0
 28 30  1  0  0  0  0
 29 26  1  0  0  0  0
 30 36  1  6  0  0  0
 31 29  1  0  0  0  0
 32 35  1  1  0  0  0
 32 30  1  0  0  0  0
 33 28  1  0  0  0  0
 34 33  1  0  0  0  0
 34 32  1  0  0  0  0
 35 31  1  0  0  0  0
 36 29  1  0  0  0  0
M  END
>  <MODEL>
1

>  <REMARK>
 VINA RESULT:      -9.8      0.000      0.000
  Name = 
  8 active torsions:
  status: ('A' for Active; 'I' for Inactive)
    1  A    between atoms: N_8  and  C_12
    2  A    between atoms: C_9  and  C_15
    3  A    between atoms: C_9  and  C_28
    4  A    between atoms: C_12  and  C_36
    5  A    between atoms: C_16  and  C_32
    6  A    between atoms: C_18  and  C_25
    7  A    between atoms: C_25  and  C_31
    8  A    between atoms: C_31  and  C_36
                            x       y       z     vdW  Elec       q    Type
                         _______ _______ _______ _____ _____    ______ ____

>  <TORSDO>
F 8

$$$$
=
 OpenBabel11062417093D

 36 39  0  0  1  0  0  0  0  0999 V2000
  184.0830  177.9300  142.1750 C   0  0  0  0  0  3  0  0  0  0  0  0
  183.8590  177.9730  140.8560 C   0  0  0  0  0  0  0  0  0  0  0  0
  184.2010  179.4230  144.1130 C   0  0  0  0  0  0  0  0  0  0  0  0
  186.5570  177.9390  144.5760 C   0  0  0  0  0  0  0  0  0  0  0  0
  185.6120  178.2530  145.6530 C   0  0  0  0  0  3  0  0  0  0  0  0
  187.7680  177.3110  144.8770 C   0  0  0  0  0  3  0  0  0  0  0  0
  188.7010  177.0570  143.8660 C   0  0  0  0  0  0  0  0  0  0  0  0
  184.5370  178.9440  145.4220 N   0  0  0  0  0  0  0  0  0  0  0  0
  187.2040  178.0580  142.2420 C   0  0  0  0  0  3  0  0  0  0  0  0
  188.4180  177.4330  142.5470 C   0  0  0  0  0  3  0  0  0  0  0  0
  183.2590  180.2450  143.9760 O   0  0  0  0  0  0  0  0  0  0  0  0
  184.9390  178.9290  142.8950 C   0  0  1  0  0  3  0  0  0  0  0  0
  186.2650  178.3110  143.2510 C   0  0  0  0  0  0  0  0  0  0  0  0
  189.9790  176.3570  144.1830 C   0  0  0  0  0  2  0  0  0  0  0  0
  191.4490  178.1330  143.6130 O   0  0  0  0  0  0  0  0  0  0  0  0
  192.0750  176.7530  148.2040 C   0  0  0  0  0  1  0  0  0  0  0  0
  191.2630  176.6600  146.9650 C   0  0  0  0  0  0  0  0  0  0  0  0
  191.6680  177.3990  145.8070 N   0  0  0  0  0  2  0  0  0  0  0  0
  191.0500  177.3480  144.5130 C   0  0  0  0  0  0  0  0  0  0  0  0
  190.2220  175.9500  146.9590 O   0  0  0  0  0  0  0  0  0  0  0  0
  181.6470  177.3890  140.2290 O   0  0  0  0  0  1  0  0  0  0  0  0
  182.9710  176.9430  140.2340 C   0  0  0  0  0  2  0  0  0  0  0  0
  184.4880  179.0180  139.9790 C   0  0  0  0  0  2  0  0  0  0  0  0
  183.6740  178.7700  137.7850 O   0  0  0  0  0  0  0  0  0  0  0  0
  184.5800  178.5330  138.5690 C   0  0  0  0  0  0  0  0  0  0  0  0
  185.7880  177.7610  138.1310 C   0  0  1  0  0  3  0  0  0  0  0  0
  185.4480  176.7730  137.0210 C   0  0  0  0  0  1  0  0  0  0  0  0
  189.9700  176.9670  139.2520 N   0  0  0  0  0  2  0  0  0  0  0  0
  186.9210  178.6530  137.8360 N   0  0  0  0  0  0  0  0  0  0  0  0
  188.8590  177.2220  138.3590 C   0  0  2  0  0  3  0  0  0  0  0  0
  187.3330  178.6840  136.4110 C   0  0  0  0  0  2  0  0  0  0  0  0
  189.4360  177.4990  137.0120 C   0  0  1  0  0  3  0  0  0  0  0  0
  190.8380  176.0250  138.5420 C   0  0  0  0  0  2  0  0  0  0  0  0
  190.5780  176.1430  136.7330 S   0  0  0  0  0  0  0  0  0  0  0  0
  188.2960  177.5500  136.0140 C   0  0  0  0  0  2  0  0  0  0  0  0
  188.0310  178.4270  138.7770 C   0  0  0  0  0  2  0  0  0  0  0  0
  2  1  2  0  0  0  0
  3  8  1  0  0  0  0
  4  6  1  0  0  0  0
  4  5  1  0  0  0  0
  7 14  1  0  0  0  0
  7  6  2  0  0  0  0
  8  5  2  0  0  0  0
  9 10  2  0  0  0  0
  9 13  1  0  0  0  0
 10  7  1  0  0  0  0
 11  3  2  0  0  0  0
 12  1  1  1  0  0  0
 12 13  1  0  0  0  0
 12  3  1  0  0  0  0
 13  4  2  0  0  0  0
 14 19  1  0  0  0  0
 15 19  2  0  0  0  0
 17 16  1  0  0  0  0
 18 17  1  0  0  0  0
 19 18  1  0  0  0  0
 20 17  2  0  0  0  0
 21 22  1  0  0  0  0
 22  2  1  0  0  0  0
 23  2  1  0  0  0  0
 24 25  2  0  0  0  0
 25 23  1  0  0  0  0
 26 27  1  6  0  0  0
 26 25  1  0  0  0  0
 29 26  1  0  0  0  0
 29 36  1  0  0  0  0
 30 36  1  1  0  0  0
 30 28  1  0  0  0  0
 31 29  1  0  0  0  0
 32 35  1  6  0  0  0
 32 30  1  0  0  0  0
 33 28  1  0  0  0  0
 34 32  1  0  0  0  0
 34 33  1  0  0  0  0
 35 31  1  0  0  0  0
M  END
>  <MODEL>
2

>  <REMARK>
 VINA RESULT:      -9.3      2.392      6.500
  Name = 
  8 active torsions:
  status: ('A' for Active; 'I' for Inactive)
    1  A    between atoms: N_8  and  C_12
    2  A    between atoms: C_9  and  C_15
    3  A    between atoms: C_9  and  C_28
    4  A    between atoms: C_12  and  C_36
    5  A    between atoms: C_16  and  C_32
    6  A    between atoms: C_18  and  C_25
    7  A    between atoms: C_25  and  C_31
    8  A    between atoms: C_31  and  C_36
                            x       y       z     vdW  Elec       q    Type
                         _______ _______ _______ _____ _____    ______ ____

>  <TORSDO>
F 8

$$$$
=
 OpenBabel11062417093D

 36 39  0  0  1  0  0  0  0  0999 V2000
  183.7890  177.9590  142.2030 C   0  0  0  0  0  3  0  0  0  0  0  0
  183.6750  177.9570  140.8680 C   0  0  0  0  0  0  0  0  0  0  0  0
  183.7580  179.4520  144.1440 C   0  0  0  0  0  0  0  0  0  0  0  0
  186.1580  178.0760  144.7040 C   0  0  0  0  0  0  0  0  0  0  0  0
  185.1550  178.3440  145.7410 C   0  0  0  0  0  3  0  0  0  0  0  0
  187.3820  177.5030  145.0550 C   0  0  0  0  0  3  0  0  0  0  0  0
  188.3670  177.2940  144.0840 C   0  0  0  0  0  0  0  0  0  0  0  0
  184.0600  178.9850  145.4660 N   0  0  0  0  0  0  0  0  0  0  0  0
  186.8960  178.2300  142.3990 C   0  0  0  0  0  3  0  0  0  0  0  0
  188.1230  177.6610  142.7550 C   0  0  0  0  0  3  0  0  0  0  0  0
  182.7860  180.2300  143.9690 O   0  0  0  0  0  0  0  0  0  0  0  0
  184.5670  178.9950  142.9580 C   0  0  1  0  0  3  0  0  0  0  0  0
  185.9050  178.4380  143.3680 C   0  0  0  0  0  0  0  0  0  0  0  0
  189.6620  176.6520  144.4530 C   0  0  0  0  0  2  0  0  0  0  0  0
  190.9700  178.3660  145.4520 O   0  0  0  0  0  0  0  0  0  0  0  0
  192.3940  177.5030  140.9130 C   0  0  0  0  0  1  0  0  0  0  0  0
  191.5600  177.0850  142.0670 C   0  0  0  0  0  0  0  0  0  0  0  0
  191.5800  177.8710  143.2650 N   0  0  0  0  0  2  0  0  0  0  0  0
  190.7700  177.6580  144.4290 C   0  0  0  0  0  0  0  0  0  0  0  0
  190.8660  176.0370  141.9830 O   0  0  0  0  0  0  0  0  0  0  0  0
  181.5070  177.2520  140.2150 O   0  0  0  0  0  1  0  0  0  0  0  0
  182.8560  176.8940  140.2090 C   0  0  0  0  0  2  0  0  0  0  0  0
  184.3600  178.9860  140.0130 C   0  0  0  0  0  2  0  0  0  0  0  0
  183.4290  178.8370  137.8570 O   0  0  0  0  0  0  0  0  0  0  0  0
  184.3700  178.5540  138.5820 C   0  0  0  0  0  0  0  0  0  0  0  0
  185.5390  177.7790  138.0530 C   0  0  1  0  0  3  0  0  0  0  0  0
  185.1720  177.0020  136.7940 C   0  0  0  0  0  1  0  0  0  0  0  0
  189.6560  176.4600  138.8810 N   0  0  0  0  0  2  0  0  0  0  0  0
  186.7350  178.6280  137.9260 N   0  0  0  0  0  0  0  0  0  0  0  0
  188.5610  176.9800  138.0890 C   0  0  2  0  0  3  0  0  0  0  0  0
  187.1370  178.9300  136.5300 C   0  0  0  0  0  2  0  0  0  0  0  0
  189.1470  177.4930  136.8180 C   0  0  1  0  0  3  0  0  0  0  0  0
  190.4430  175.6290  137.9690 C   0  0  0  0  0  2  0  0  0  0  0  0
  190.1790  176.1460  136.2320 S   0  0  0  0  0  0  0  0  0  0  0  0
  188.0070  177.8380  135.8800 C   0  0  0  0  0  2  0  0  0  0  0  0
  187.8320  178.1260  138.7720 C   0  0  0  0  0  2  0  0  0  0  0  0
  2  1  2  0  0  0  0
  3  8  1  0  0  0  0
  4  6  1  0  0  0  0
  4  5  1  0  0  0  0
  7 14  1  0  0  0  0
  7  6  2  0  0  0  0
  8  5  2  0  0  0  0
  9 10  2  0  0  0  0
  9 13  1  0  0  0  0
 10  7  1  0  0  0  0
 11  3  2  0  0  0  0
 12  1  1  1  0  0  0
 12 13  1  0  0  0  0
 12  3  1  0  0  0  0
 13  4  2  0  0  0  0
 16 17  1  0  0  0  0
 17 18  1  0  0  0  0
 18 19  1  0  0  0  0
 19 14  1  0  0  0  0
 19 15  2  0  0  0  0
 20 17  2  0  0  0  0
 22 21  1  0  0  0  0
 22  2  1  0  0  0  0
 23  2  1  0  0  0  0
 24 25  2  0  0  0  0
 25 23  1  0  0  0  0
 26 27  1  6  0  0  0
 26 25  1  0  0  0  0
 29 26  1  0  0  0  0
 29 36  1  0  0  0  0
 30 36  1  1  0  0  0
 30 28  1  0  0  0  0
 31 29  1  0  0  0  0
 32 35  1  6  0  0  0
 32 30  1  0  0  0  0
 33 28  1  0  0  0  0
 34 32  1  0  0  0  0
 34 33  1  0  0  0  0
 35 31  1  0  0  0  0
M  END
>  <MODEL>
3

>  <REMARK>
 VINA RESULT:      -9.1      2.369      6.452
  Name = 
  8 active torsions:
  status: ('A' for Active; 'I' for Inactive)
    1  A    between atoms: N_8  and  C_12
    2  A    between atoms: C_9  and  C_15
    3  A    between atoms: C_9  and  C_28
    4  A    between atoms: C_12  and  C_36
    5  A    between atoms: C_16  and  C_32
    6  A    between atoms: C_18  and  C_25
    7  A    between atoms: C_25  and  C_31
    8  A    between atoms: C_31  and  C_36
                            x       y       z     vdW  Elec       q    Type
                         _______ _______ _______ _____ _____    ______ ____

>  <TORSDO>
F 8

$$$$
=
 OpenBabel11062417093D

 36 39  0  0  1  0  0  0  0  0999 V2000
  182.6900  177.2530  139.9150 C   0  0  0  0  0  3  0  0  0  0  0  0
  183.2730  176.9540  138.7470 C   0  0  0  0  0  0  0  0  0  0  0  0
  181.2010  179.0820  140.5730 C   0  0  0  0  0  0  0  0  0  0  0  0
  182.6030  178.7810  143.0050 C   0  0  0  0  0  0  0  0  0  0  0  0
  181.1450  178.9450  142.9630 C   0  0  0  0  0  3  0  0  0  0  0  0
  183.2630  178.7600  144.2350 C   0  0  0  0  0  3  0  0  0  0  0  0
  184.6580  178.6600  144.2850 C   0  0  0  0  0  0  0  0  0  0  0  0
  180.5190  179.0900  141.8350 N   0  0  0  0  0  0  0  0  0  0  0  0
  184.7340  178.5940  141.8620 C   0  0  0  0  0  3  0  0  0  0  0  0
  185.3930  178.5790  143.0960 C   0  0  0  0  0  3  0  0  0  0  0  0
  180.5810  179.4180  139.5320 O   0  0  0  0  0  0  0  0  0  0  0  0
  182.6390  178.6440  140.4740 C   0  0  1  0  0  3  0  0  0  0  0  0
  183.3370  178.6900  141.8080 C   0  0  0  0  0  0  0  0  0  0  0  0
  185.3590  178.6050  145.6000 C   0  0  0  0  0  2  0  0  0  0  0  0
  186.6750  176.9590  144.5020 O   0  0  0  0  0  0  0  0  0  0  0  0
  188.4520  177.9800  148.8810 C   0  0  0  0  0  1  0  0  0  0  0  0
  187.4920  178.3280  147.8040 C   0  0  0  0  0  0  0  0  0  0  0  0
  187.4510  177.5260  146.6180 N   0  0  0  0  0  2  0  0  0  0  0  0
  186.5260  177.6700  145.5320 C   0  0  0  0  0  0  0  0  0  0  0  0
  186.7440  179.3320  147.9410 O   0  0  0  0  0  0  0  0  0  0  0  0
  182.2050  175.3570  137.3570 O   0  0  0  0  0  1  0  0  0  0  0  0
  183.2510  175.5400  138.2640 C   0  0  0  0  0  2  0  0  0  0  0  0
  183.9620  177.9990  137.9150 C   0  0  0  0  0  2  0  0  0  0  0  0
  184.7100  177.1360  135.8580 O   0  0  0  0  0  0  0  0  0  0  0  0
  184.9840  177.3690  137.0250 C   0  0  0  0  0  0  0  0  0  0  0  0
  186.3360  177.0320  137.5770 C   0  0  1  0  0  3  0  0  0  0  0  0
  187.0710  176.0360  136.6860 C   0  0  0  0  0  1  0  0  0  0  0  0
  188.8860  177.5030  141.1330 N   0  0  0  0  0  2  0  0  0  0  0  0
  187.1010  178.2450  137.9070 N   0  0  0  0  0  0  0  0  0  0  0  0
  188.5720  177.4540  139.7210 C   0  0  2  0  0  3  0  0  0  0  0  0
  188.2900  178.4820  137.0510 C   0  0  0  0  0  2  0  0  0  0  0  0
  189.7640  177.9710  138.9900 C   0  0  1  0  0  3  0  0  0  0  0  0
  190.2220  176.9160  141.2610 C   0  0  0  0  0  2  0  0  0  0  0  0
  191.1400  177.0510  139.6820 S   0  0  0  0  0  0  0  0  0  0  0  0
  189.5510  177.7240  137.5090 C   0  0  0  0  0  2  0  0  0  0  0  0
  187.3770  178.3190  139.3520 C   0  0  0  0  0  2  0  0  0  0  0  0
  2  1  2  0  0  0  0
  3  8  1  0  0  0  0
  4  6  1  0  0  0  0
  5  4  1  0  0  0  0
  6  7  2  0  0  0  0
  7 14  1  0  0  0  0
  8  5  2  0  0  0  0
  9 10  2  0  0  0  0
 10  7  1  0  0  0  0
 11  3  2  0  0  0  0
 12  1  1  1  0  0  0
 12  3  1  0  0  0  0
 12 13  1  0  0  0  0
 13  9  1  0  0  0  0
 13  4  2  0  0  0  0
 15 19  2  0  0  0  0
 17 20  2  0  0  0  0
 17 16  1  0  0  0  0
 18 17  1  0  0  0  0
 19 14  1  0  0  0  0
 19 18  1  0  0  0  0
 21 22  1  0  0  0  0
 22  2  1  0  0  0  0
 23  2  1  0  0  0  0
 24 25  2  0  0  0  0
 25 26  1  0  0  0  0
 25 23  1  0  0  0  0
 26 27  1  6  0  0  0
 26 29  1  0  0  0  0
 28 33  1  0  0  0  0
 29 36  1  0  0  0  0
 30 36  1  1  0  0  0
 30 28  1  0  0  0  0
 31 35  1  0  0  0  0
 31 29  1  0  0  0  0
 32 35  1  6  0  0  0
 32 34  1  0  0  0  0
 32 30  1  0  0  0  0
 34 33  1  0  0  0  0
M  END
>  <MODEL>
4

>  <REMARK>
 VINA RESULT:      -8.9      3.071      6.878
  Name = 
  8 active torsions:
  status: ('A' for Active; 'I' for Inactive)
    1  A    between atoms: N_8  and  C_12
    2  A    between atoms: C_9  and  C_15
    3  A    between atoms: C_9  and  C_28
    4  A    between atoms: C_12  and  C_36
    5  A    between atoms: C_16  and  C_32
    6  A    between atoms: C_18  and  C_25
    7  A    between atoms: C_25  and  C_31
    8  A    between atoms: C_31  and  C_36
                            x       y       z     vdW  Elec       q    Type
                         _______ _______ _______ _____ _____    ______ ____

>  <TORSDO>
F 8

$$$$
=
 OpenBabel11062417093D

 36 39  0  0  1  0  0  0  0  0999 V2000
  189.0290  178.3270  145.0360 C   0  0  0  0  0  3  0  0  0  0  0  0
  189.8900  178.1120  144.0330 C   0  0  0  0  0  0  0  0  0  0  0  0
  187.9110  177.1490  146.8690 C   0  0  0  0  0  0  0  0  0  0  0  0
  185.6660  178.4700  145.7820 C   0  0  0  0  0  0  0  0  0  0  0  0
  185.9100  178.4140  147.2280 C   0  0  0  0  0  3  0  0  0  0  0  0
  184.4800  179.0270  145.3000 C   0  0  0  0  0  3  0  0  0  0  0  0
  184.2110  179.0350  143.9270 C   0  0  0  0  0  0  0  0  0  0  0  0
  186.9450  177.7950  147.7090 N   0  0  0  0  0  0  0  0  0  0  0  0
  186.3300  177.9300  143.5120 C   0  0  0  0  0  3  0  0  0  0  0  0
  185.1380  178.4840  143.0330 C   0  0  0  0  0  3  0  0  0  0  0  0
  188.7830  176.4040  147.3870 O   0  0  0  0  0  0  0  0  0  0  0  0
  187.9190  177.3790  145.3800 C   0  0  1  0  0  3  0  0  0  0  0  0
  186.6040  177.9230  144.8870 C   0  0  0  0  0  0  0  0  0  0  0  0
  182.9590  179.6590  143.4110 C   0  0  0  0  0  2  0  0  0  0  0  0
  181.2660  178.3020  144.3800 O   0  0  0  0  0  0  0  0  0  0  0  0
  181.6100  177.5280  139.6210 C   0  0  0  0  0  1  0  0  0  0  0  0
  182.0060  178.3520  140.7900 C   0  0  0  0  0  0  0  0  0  0  0  0
  181.5080  178.0080  142.0880 N   0  0  0  0  0  2  0  0  0  0  0  0
  181.8640  178.6410  143.3250 C   0  0  0  0  0  0  0  0  0  0  0  0
  182.7560  179.3500  140.6190 O   0  0  0  0  0  0  0  0  0  0  0  0
  192.0730  178.8390  144.6090 O   0  0  0  0  0  1  0  0  0  0  0  0
  190.9790  179.1050  143.7830 C   0  0  0  0  0  2  0  0  0  0  0  0
  189.7840  176.9070  143.1410 C   0  0  0  0  0  2  0  0  0  0  0  0
  192.0280  176.3100  142.7640 O   0  0  0  0  0  0  0  0  0  0  0  0
  191.0050  176.7770  142.2890 C   0  0  0  0  0  0  0  0  0  0  0  0
  190.9570  177.2200  140.8580 C   0  0  1  0  0  3  0  0  0  0  0  0
  192.3470  177.5530  140.3290 C   0  0  0  0  0  1  0  0  0  0  0  0
  187.5650  178.3220  138.2770 N   0  0  0  0  0  2  0  0  0  0  0  0
  190.1920  176.2760  140.0270 N   0  0  0  0  0  0  0  0  0  0  0  0
  188.8740  177.7920  138.5970 C   0  0  2  0  0  3  0  0  0  0  0  0
  190.9120  175.7780  138.8290 C   0  0  0  0  0  2  0  0  0  0  0  0
  189.3690  177.0870  137.3810 C   0  0  1  0  0  3  0  0  0  0  0  0
  187.7120  178.9760  136.9760 C   0  0  0  0  0  2  0  0  0  0  0  0
  189.1300  178.2720  136.0550 S   0  0  0  0  0  0  0  0  0  0  0  0
  190.8210  176.7160  137.6100 C   0  0  0  0  0  2  0  0  0  0  0  0
  188.8420  176.7940  139.7440 C   0  0  0  0  0  2  0  0  0  0  0  0
  2  1  2  0  0  0  0
  3 11  2  0  0  0  0
  3  8  1  0  0  0  0
  4  5  1  0  0  0  0
  5  8  2  0  0  0  0
  6  4  1  0  0  0  0
  7  6  2  0  0  0  0
  9 13  1  0  0  0  0
 10  9  2  0  0  0  0
 10  7  1  0  0  0  0
 12  1  1  1  0  0  0
 12  3  1  0  0  0  0
 13 12  1  0  0  0  0
 13  4  2  0  0  0  0
 14  7  1  0  0  0  0
 16 17  1  0  0  0  0
 17 18  1  0  0  0  0
 18 19  1  0  0  0  0
 19 14  1  0  0  0  0
 19 15  2  0  0  0  0
 20 17  2  0  0  0  0
 22  2  1  0  0  0  0
 22 21  1  0  0  0  0
 23  2  1  0  0  0  0
 25 24  2  0  0  0  0
 25 23  1  0  0  0  0
 26 27  1  6  0  0  0
 26 25  1  0  0  0  0
 28 30  1  0  0  0  0
 29 26  1  0  0  0  0
 30 36  1  1  0  0  0
 31 29  1  0  0  0  0
 32 35  1  1  0  0  0
 32 30  1  0  0  0  0
 33 28  1  0  0  0  0
 34 33  1  0  0  0  0
 34 32  1  0  0  0  0
 35 31  1  0  0  0  0
 36 29  1  0  0  0  0
M  END
>  <MODEL>
5

>  <REMARK>
 VINA RESULT:      -8.7      1.492      2.250
  Name = 
  8 active torsions:
  status: ('A' for Active; 'I' for Inactive)
    1  A    between atoms: N_8  and  C_12
    2  A    between atoms: C_9  and  C_15
    3  A    between atoms: C_9  and  C_28
    4  A    between atoms: C_12  and  C_36
    5  A    between atoms: C_16  and  C_32
    6  A    between atoms: C_18  and  C_25
    7  A    between atoms: C_25  and  C_31
    8  A    between atoms: C_31  and  C_36
                            x       y       z     vdW  Elec       q    Type
                         _______ _______ _______ _____ _____    ______ ____

>  <TORSDO>
F 8

$$$$
=
 OpenBabel11062417093D

 36 39  0  0  1  0  0  0  0  0999 V2000
  181.8560  177.3620  140.1010 C   0  0  0  0  0  3  0  0  0  0  0  0
  182.1970  176.9600  138.8700 C   0  0  0  0  0  0  0  0  0  0  0  0
  180.8710  179.3630  141.1140 C   0  0  0  0  0  0  0  0  0  0  0  0
  182.8400  178.8240  143.0640 C   0  0  0  0  0  0  0  0  0  0  0  0
  181.4640  179.1860  143.4260 C   0  0  0  0  0  3  0  0  0  0  0  0
  183.8070  178.6890  144.0620 C   0  0  0  0  0  3  0  0  0  0  0  0
  185.1330  178.3990  143.7240 C   0  0  0  0  0  0  0  0  0  0  0  0
  180.5750  179.4370  142.5150 N   0  0  0  0  0  0  0  0  0  0  0  0
  184.5230  178.3740  141.3770 C   0  0  0  0  0  3  0  0  0  0  0  0
  185.4900  178.2440  142.3790 C   0  0  0  0  0  3  0  0  0  0  0  0
  180.0380  179.8000  140.2800 O   0  0  0  0  0  0  0  0  0  0  0  0
  182.1520  178.7360  140.6260 C   0  0  1  0  0  3  0  0  0  0  0  0
  183.1920  178.6600  141.7120 C   0  0  0  0  0  0  0  0  0  0  0  0
  186.1590  178.2230  144.7920 C   0  0  0  0  0  2  0  0  0  0  0  0
  184.4060  179.0080  146.1900 O   0  0  0  0  0  0  0  0  0  0  0  0
  188.3580  177.9590  148.7680 C   0  0  0  0  0  1  0  0  0  0  0  0
  187.6600  177.8950  147.4610 C   0  0  0  0  0  0  0  0  0  0  0  0
  186.3540  178.4700  147.3370 N   0  0  0  0  0  2  0  0  0  0  0  0
  185.5860  178.5720  146.1300 C   0  0  0  0  0  0  0  0  0  0  0  0
  188.2170  177.3190  146.4890 O   0  0  0  0  0  0  0  0  0  0  0  0
  180.9040  175.0200  139.3070 O   0  0  0  0  0  1  0  0  0  0  0  0
  181.8370  175.5770  138.4300 C   0  0  0  0  0  2  0  0  0  0  0  0
  182.9460  177.8540  137.9220 C   0  0  0  0  0  2  0  0  0  0  0  0
  183.1010  176.8590  135.7960 O   0  0  0  0  0  0  0  0  0  0  0  0
  183.6400  177.0440  136.8760 C   0  0  0  0  0  0  0  0  0  0  0  0
  184.9940  176.4700  137.1650 C   0  0  1  0  0  3  0  0  0  0  0  0
  185.0790  175.0040  136.7550 C   0  0  0  0  0  1  0  0  0  0  0  0
  187.9690  178.6040  139.6080 N   0  0  0  0  0  2  0  0  0  0  0  0
  186.0670  177.3220  136.6270 N   0  0  0  0  0  0  0  0  0  0  0  0
  187.4940  177.6720  138.6070 C   0  0  2  0  0  3  0  0  0  0  0  0
  187.1730  176.5860  135.9650 C   0  0  0  0  0  2  0  0  0  0  0  0
  188.6850  177.2110  137.8390 C   0  0  1  0  0  3  0  0  0  0  0  0
  189.1240  177.9580  140.2320 C   0  0  0  0  0  2  0  0  0  0  0  0
  189.8620  176.7200  139.1020 S   0  0  0  0  0  0  0  0  0  0  0  0
  188.2510  176.0720  136.9370 C   0  0  0  0  0  2  0  0  0  0  0  0
  186.5150  178.3040  137.6300 C   0  0  0  0  0  2  0  0  0  0  0  0
  2  1  2  0  0  0  0
  3  8  1  0  0  0  0
  4  5  1  0  0  0  0
  4  6  1  0  0  0  0
  7  6  2  0  0  0  0
  7 14  1  0  0  0  0
  8  5  2  0  0  0  0
  9 13  1  0  0  0  0
  9 10  2  0  0  0  0
 10  7  1  0  0  0  0
 11  3  2  0  0  0  0
 12  1  1  1  0  0  0
 12  3  1  0  0  0  0
 12 13  1  0  0  0  0
 13  4  2  0  0  0  0
 14 19  1  0  0  0  0
 17 16  1  0  0  0  0
 18 17  1  0  0  0  0
 19 15  2  0  0  0  0
 19 18  1  0  0  0  0
 20 17  2  0  0  0  0
 22  2  1  0  0  0  0
 22 21  1  0  0  0  0
 23  2  1  0  0  0  0
 24 25  2  0  0  0  0
 25 26  1  0  0  0  0
 25 23  1  0  0  0  0
 26 27  1  6  0  0  0
 28 33  1  0  0  0  0
 29 26  1  0  0  0  0
 29 36  1  0  0  0  0
 30 36  1  6  0  0  0
 30 28  1  0  0  0  0
 31 29  1  0  0  0  0
 31 35  1  0  0  0  0
 32 35  1  6  0  0  0
 32 30  1  0  0  0  0
 32 34  1  0  0  0  0
 34 33  1  0  0  0  0
M  END
>  <MODEL>
6

>  <REMARK>
 VINA RESULT:      -8.6      3.134      7.158
  Name = 
  8 active torsions:
  status: ('A' for Active; 'I' for Inactive)
    1  A    between atoms: N_8  and  C_12
    2  A    between atoms: C_9  and  C_15
    3  A    between atoms: C_9  and  C_28
    4  A    between atoms: C_12  and  C_36
    5  A    between atoms: C_16  and  C_32
    6  A    between atoms: C_18  and  C_25
    7  A    between atoms: C_25  and  C_31
    8  A    between atoms: C_31  and  C_36
                            x       y       z     vdW  Elec       q    Type
                         _______ _______ _______ _____ _____    ______ ____

>  <TORSDO>
F 8

$$$$
=
 OpenBabel11062417093D

 36 39  0  0  1  0  0  0  0  0999 V2000
  189.2450  178.0310  144.8210 C   0  0  0  0  0  3  0  0  0  0  0  0
  189.7030  177.9520  143.5650 C   0  0  0  0  0  0  0  0  0  0  0  0
  188.1590  177.1360  146.8250 C   0  0  0  0  0  0  0  0  0  0  0  0
  185.9660  178.5500  145.7500 C   0  0  0  0  0  0  0  0  0  0  0  0
  186.3030  178.6060  147.1770 C   0  0  0  0  0  3  0  0  0  0  0  0
  184.8010  179.1650  145.2880 C   0  0  0  0  0  3  0  0  0  0  0  0
  184.4400  179.0710  143.9390 C   0  0  0  0  0  0  0  0  0  0  0  0
  187.3120  177.9430  147.6550 N   0  0  0  0  0  0  0  0  0  0  0  0
  186.4230  177.7440  143.5090 C   0  0  0  0  0  3  0  0  0  0  0  0
  185.2530  178.3570  143.0510 C   0  0  0  0  0  3  0  0  0  0  0  0
  188.9980  176.3660  147.3600 O   0  0  0  0  0  0  0  0  0  0  0  0
  188.0840  177.2250  145.3230 C   0  0  1  0  0  3  0  0  0  0  0  0
  186.7900  177.8390  144.8580 C   0  0  0  0  0  0  0  0  0  0  0  0
  183.2130  179.7560  143.4410 C   0  0  0  0  0  2  0  0  0  0  0  0
  181.4140  178.4960  144.3460 O   0  0  0  0  0  0  0  0  0  0  0  0
  181.9880  177.5820  139.6340 C   0  0  0  0  0  1  0  0  0  0  0  0
  182.3530  178.4200  140.8030 C   0  0  0  0  0  0  0  0  0  0  0  0
  181.7700  178.1310  142.0790 N   0  0  0  0  0  2  0  0  0  0  0  0
  182.0830  178.7820  143.3180 C   0  0  0  0  0  0  0  0  0  0  0  0
  183.1520  179.3810  140.6500 O   0  0  0  0  0  0  0  0  0  0  0  0
  192.0170  177.9750  143.0440 O   0  0  0  0  0  1  0  0  0  0  0  0
  190.8820  178.7800  143.1670 C   0  0  0  0  0  2  0  0  0  0  0  0
  189.0560  177.0640  142.5400 C   0  0  0  0  0  2  0  0  0  0  0  0
  188.3670  179.0040  141.4020 O   0  0  0  0  0  0  0  0  0  0  0  0
  188.7270  177.8410  141.3070 C   0  0  0  0  0  0  0  0  0  0  0  0
  188.8460  177.1830  139.9660 C   0  0  1  0  0  3  0  0  0  0  0  0
  187.5540  177.3040  139.1670 C   0  0  0  0  0  1  0  0  0  0  0  0
  191.7110  174.5040  137.9680 N   0  0  0  0  0  2  0  0  0  0  0  0
  190.0550  177.6270  139.2530 N   0  0  0  0  0  0  0  0  0  0  0  0
  190.7430  175.5760  138.0700 C   0  0  2  0  0  3  0  0  0  0  0  0
  189.8000  178.2880  137.9490 C   0  0  0  0  0  2  0  0  0  0  0  0
  190.7820  176.3240  136.7810 C   0  0  1  0  0  3  0  0  0  0  0  0
  191.4670  173.8750  136.6690 C   0  0  0  0  0  2  0  0  0  0  0  0
  190.6470  175.0480  135.5260 S   0  0  0  0  0  0  0  0  0  0  0  0
  189.6290  177.3080  136.7740 C   0  0  0  0  0  2  0  0  0  0  0  0
  191.0590  176.5500  139.1940 C   0  0  0  0  0  2  0  0  0  0  0  0
  2  1  2  0  0  0  0
  3 11  2  0  0  0  0
  3  8  1  0  0  0  0
  4  5  1  0  0  0  0
  5  8  2  0  0  0  0
  6  4  1  0  0  0  0
  7  6  2  0  0  0  0
  9 13  1  0  0  0  0
 10  9  2  0  0  0  0
 10  7  1  0  0  0  0
 12  1  1  1  0  0  0
 12  3  1  0  0  0  0
 13 12  1  0  0  0  0
 13  4  2  0  0  0  0
 14  7  1  0  0  0  0
 16 17  1  0  0  0  0
 17 18  1  0  0  0  0
 18 19  1  0  0  0  0
 19 14  1  0  0  0  0
 19 15  2  0  0  0  0
 20 17  2  0  0  0  0
 21 22  1  0  0  0  0
 22  2  1  0  0  0  0
 23  2  1  0  0  0  0
 25 24  2  0  0  0  0
 25 23  1  0  0  0  0
 26 27  1  6  0  0  0
 26 25  1  0  0  0  0
 28 30  1  0  0  0  0
 29 26  1  0  0  0  0
 30 36  1  1  0  0  0
 31 29  1  0  0  0  0
 32 35  1  1  0  0  0
 32 30  1  0  0  0  0
 33 28  1  0  0  0  0
 34 33  1  0  0  0  0
 34 32  1  0  0  0  0
 35 31  1  0  0  0  0
 36 29  1  0  0  0  0
M  END
>  <MODEL>
7

>  <REMARK>
 VINA RESULT:      -8.4      1.665      2.035
  Name = 
  8 active torsions:
  status: ('A' for Active; 'I' for Inactive)
    1  A    between atoms: N_8  and  C_12
    2  A    between atoms: C_9  and  C_15
    3  A    between atoms: C_9  and  C_28
    4  A    between atoms: C_12  and  C_36
    5  A    between atoms: C_16  and  C_32
    6  A    between atoms: C_18  and  C_25
    7  A    between atoms: C_25  and  C_31
    8  A    between atoms: C_31  and  C_36
                            x       y       z     vdW  Elec       q    Type
                         _______ _______ _______ _____ _____    ______ ____

>  <TORSDO>
F 8

$$$$
=
 OpenBabel11062417093D

 36 39  0  0  1  0  0  0  0  0999 V2000
  190.1370  176.0860  137.9600 C   0  0  0  0  0  3  0  0  0  0  0  0
  191.2530  175.4320  137.6140 C   0  0  0  0  0  0  0  0  0  0  0  0
  189.1520  178.3280  137.9760 C   0  0  0  0  0  0  0  0  0  0  0  0
  188.6040  177.6050  140.6490 C   0  0  0  0  0  0  0  0  0  0  0  0
  187.6030  178.2610  139.8000 C   0  0  0  0  0  3  0  0  0  0  0  0
  188.3280  177.3790  141.9990 C   0  0  0  0  0  3  0  0  0  0  0  0
  189.2960  176.8060  142.8300 C   0  0  0  0  0  0  0  0  0  0  0  0
  187.8760  178.5930  138.5750 N   0  0  0  0  0  0  0  0  0  0  0  0
  190.8230  176.6750  140.9520 C   0  0  0  0  0  3  0  0  0  0  0  0
  190.5450  176.4550  142.3050 C   0  0  0  0  0  3  0  0  0  0  0  0
  189.4300  178.8380  136.8610 O   0  0  0  0  0  0  0  0  0  0  0  0
  190.1490  177.4200  138.6480 C   0  0  1  0  0  3  0  0  0  0  0  0
  189.8550  177.2460  140.1150 C   0  0  0  0  0  0  0  0  0  0  0  0
  188.9890  176.5360  144.2650 C   0  0  0  0  0  2  0  0  0  0  0  0
  190.3870  178.2610  145.1080 O   0  0  0  0  0  0  0  0  0  0  0  0
  185.9050  178.6220  146.8840 C   0  0  0  0  0  1  0  0  0  0  0  0
  186.8210  177.9750  145.9120 C   0  0  0  0  0  0  0  0  0  0  0  0
  188.2040  178.3490  145.8990 N   0  0  0  0  0  2  0  0  0  0  0  0
  189.2320  177.7590  145.0920 C   0  0  0  0  0  0  0  0  0  0  0  0
  186.3650  177.1260  145.1010 O   0  0  0  0  0  0  0  0  0  0  0  0
  189.8290  173.6400  136.9950 O   0  0  0  0  0  1  0  0  0  0  0  0
  191.1380  174.1180  136.9100 C   0  0  0  0  0  2  0  0  0  0  0  0
  192.6200  175.9740  137.9260 C   0  0  0  0  0  2  0  0  0  0  0  0
  193.3820  176.9180  135.9100 O   0  0  0  0  0  0  0  0  0  0  0  0
  193.4700  175.9890  136.6970 C   0  0  0  0  0  0  0  0  0  0  0  0
  194.4250  174.8610  136.4480 C   0  0  1  0  0  3  0  0  0  0  0  0
  195.0760  174.9730  135.0740 C   0  0  0  0  0  1  0  0  0  0  0  0
  195.4300  171.0180  138.3440 N   0  0  0  0  0  2  0  0  0  0  0  0
  195.3700  174.6970  137.5650 N   0  0  0  0  0  0  0  0  0  0  0  0
  195.6790  172.2510  137.6280 C   0  0  2  0  0  3  0  0  0  0  0  0
  196.7980  174.8640  137.2000 C   0  0  0  0  0  2  0  0  0  0  0  0
  197.1580  172.4300  137.5660 C   0  0  1  0  0  3  0  0  0  0  0  0
  196.3320  170.0290  137.7520 C   0  0  0  0  0  2  0  0  0  0  0  0
  197.7680  170.8520  136.9670 S   0  0  0  0  0  0  0  0  0  0  0  0
  197.4530  173.5890  136.6360 C   0  0  0  0  0  2  0  0  0  0  0  0
  195.0840  173.4660  138.3230 C   0  0  0  0  0  2  0  0  0  0  0  0
  2 23  1  0  0  0  0
  2  1  2  0  0  0  0
  3  8  1  0  0  0  0
  3 12  1  0  0  0  0
  4  6  1  0  0  0  0
  5  4  1  0  0  0  0
  6  7  2  0  0  0  0
  7 14  1  0  0  0  0
  8  5  2  0  0  0  0
  9 10  2  0  0  0  0
 10  7  1  0  0  0  0
 11  3  2  0  0  0  0
 12  1  1  6  0  0  0
 12 13  1  0  0  0  0
 13  4  2  0  0  0  0
 13  9  1  0  0  0  0
 14 19  1  0  0  0  0
 17 16  1  0  0  0  0
 18 17  1  0  0  0  0
 19 15  2  0  0  0  0
 19 18  1  0  0  0  0
 20 17  2  0  0  0  0
 22 21  1  0  0  0  0
 22  2  1  0  0  0  0
 24 25  2  0  0  0  0
 25 23  1  0  0  0  0
 26 27  1  6  0  0  0
 26 25  1  0  0  0  0
 26 29  1  0  0  0  0
 29 36  1  0  0  0  0
 30 36  1  1  0  0  0
 30 28  1  0  0  0  0
 31 29  1  0  0  0  0
 32 35  1  6  0  0  0
 32 30  1  0  0  0  0
 33 28  1  0  0  0  0
 34 32  1  0  0  0  0
 34 33  1  0  0  0  0
 35 31  1  0  0  0  0
M  END
>  <MODEL>
8

>  <REMARK>
 VINA RESULT:      -8.2      4.648      7.654
  Name = 
  8 active torsions:
  status: ('A' for Active; 'I' for Inactive)
    1  A    between atoms: N_8  and  C_12
    2  A    between atoms: C_9  and  C_15
    3  A    between atoms: C_9  and  C_28
    4  A    between atoms: C_12  and  C_36
    5  A    between atoms: C_16  and  C_32
    6  A    between atoms: C_18  and  C_25
    7  A    between atoms: C_25  and  C_31
    8  A    between atoms: C_31  and  C_36
                            x       y       z     vdW  Elec       q    Type
                         _______ _______ _______ _____ _____    ______ ____

>  <TORSDO>
F 8

$$$$
=
 OpenBabel11062417093D

 36 39  0  0  1  0  0  0  0  0999 V2000
  183.5000  177.6920  141.6050 C   0  0  0  0  0  3  0  0  0  0  0  0
  182.9690  177.8550  140.3870 C   0  0  0  0  0  0  0  0  0  0  0  0
  183.1320  179.1410  143.5450 C   0  0  0  0  0  0  0  0  0  0  0  0
  185.6710  178.1280  144.2480 C   0  0  0  0  0  0  0  0  0  0  0  0
  184.5780  178.2330  145.2220 C   0  0  0  0  0  3  0  0  0  0  0  0
  186.9430  177.7370  144.6710 C   0  0  0  0  0  3  0  0  0  0  0  0
  188.0050  177.6880  143.7620 C   0  0  0  0  0  0  0  0  0  0  0  0
  183.4200  178.7090  144.8810 N   0  0  0  0  0  0  0  0  0  0  0  0
  186.5150  178.4160  141.9930 C   0  0  0  0  0  3  0  0  0  0  0  0
  187.7890  178.0290  142.4220 C   0  0  0  0  0  3  0  0  0  0  0  0
  182.0670  179.7690  143.3120 O   0  0  0  0  0  0  0  0  0  0  0  0
  184.0700  178.8220  142.4090 C   0  0  1  0  0  3  0  0  0  0  0  0
  185.4480  178.4630  142.9000 C   0  0  0  0  0  0  0  0  0  0  0  0
  189.3550  177.2390  144.2090 C   0  0  0  0  0  2  0  0  0  0  0  0
  190.6130  179.2140  144.6080 O   0  0  0  0  0  0  0  0  0  0  0  0
  191.7920  177.2220  140.3640 C   0  0  0  0  0  1  0  0  0  0  0  0
  191.0630  177.0950  141.6500 C   0  0  0  0  0  0  0  0  0  0  0  0
  191.1110  178.1750  142.5900 N   0  0  0  0  0  2  0  0  0  0  0  0
  190.3930  178.2490  143.8300 C   0  0  0  0  0  0  0  0  0  0  0  0
  190.4340  176.0340  141.9030 O   0  0  0  0  0  0  0  0  0  0  0  0
  181.1430  176.3540  140.1860 O   0  0  0  0  0  1  0  0  0  0  0  0
  182.4040  176.6680  139.6740 C   0  0  0  0  0  2  0  0  0  0  0  0
  182.9380  179.1960  139.7080 C   0  0  0  0  0  2  0  0  0  0  0  0
  183.5450  178.5010  137.5440 O   0  0  0  0  0  0  0  0  0  0  0  0
  182.6970  179.0350  138.2420 C   0  0  0  0  0  0  0  0  0  0  0  0
  181.4140  179.5290  137.6470 C   0  0  1  0  0  3  0  0  0  0  0  0
  180.5520  178.3780  137.1400 C   0  0  0  0  0  1  0  0  0  0  0  0
  181.8230  183.9100  137.5220 N   0  0  0  0  0  2  0  0  0  0  0  0
  180.7240  180.4640  138.5510 N   0  0  0  0  0  0  0  0  0  0  0  0
  181.1340  182.6380  137.4630 C   0  0  2  0  0  3  0  0  0  0  0  0
  179.2700  180.6150  138.2970 C   0  0  0  0  0  2  0  0  0  0  0  0
  179.6730  182.9310  137.4820 C   0  0  1  0  0  3  0  0  0  0  0  0
  181.1630  184.7610  136.5300 C   0  0  0  0  0  2  0  0  0  0  0  0
  179.4570  184.1790  136.2110 S   0  0  0  0  0  0  0  0  0  0  0  0
  178.9310  181.6390  137.1980 C   0  0  0  0  0  2  0  0  0  0  0  0
  181.4530  181.7400  138.6490 C   0  0  0  0  0  2  0  0  0  0  0  0
  2  1  2  0  0  0  0
  3  8  1  0  0  0  0
  4  6  1  0  0  0  0
  4  5  1  0  0  0  0
  7 14  1  0  0  0  0
  7  6  2  0  0  0  0
  8  5  2  0  0  0  0
  9 10  2  0  0  0  0
  9 13  1  0  0  0  0
 10  7  1  0  0  0  0
 11  3  2  0  0  0  0
 12  1  1  1  0  0  0
 12 13  1  0  0  0  0
 12  3  1  0  0  0  0
 13  4  2  0  0  0  0
 16 17  1  0  0  0  0
 17 20  2  0  0  0  0
 17 18  1  0  0  0  0
 18 19  1  0  0  0  0
 19 14  1  0  0  0  0
 19 15  2  0  0  0  0
 22 21  1  0  0  0  0
 22  2  1  0  0  0  0
 23  2  1  0  0  0  0
 24 25  2  0  0  0  0
 25 23  1  0  0  0  0
 26 27  1  1  0  0  0
 26 25  1  0  0  0  0
 26 29  1  0  0  0  0
 29 36  1  0  0  0  0
 30 32  1  0  0  0  0
 30 28  1  0  0  0  0
 30 36  1  1  0  0  0
 31 29  1  0  0  0  0
 32 35  1  6  0  0  0
 33 28  1  0  0  0  0
 34 33  1  0  0  0  0
 34 32  1  0  0  0  0
 35 31  1  0  0  0  0
M  END
>  <MODEL>
9

>  <REMARK>
 VINA RESULT:      -8.2      4.281      8.634
  Name = 
  8 active torsions:
  status: ('A' for Active; 'I' for Inactive)
    1  A    between atoms: N_8  and  C_12
    2  A    between atoms: C_9  and  C_15
    3  A    between atoms: C_9  and  C_28
    4  A    between atoms: C_12  and  C_36
    5  A    between atoms: C_16  and  C_32
    6  A    between atoms: C_18  and  C_25
    7  A    between atoms: C_25  and  C_31
    8  A    between atoms: C_31  and  C_36
                            x       y       z     vdW  Elec       q    Type
                         _______ _______ _______ _____ _____    ______ ____

>  <TORSDO>
F 8

$$$$
