=
 OpenBabel11062417013D

 26 29  0  0  1  0  0  0  0  0999 V2000
  186.2670  177.7290  143.6210 C   0  0  2  0  0  3  0  0  0  0  0  0
  184.1260  178.2010  139.4230 C   0  0  0  0  0  2  0  0  0  0  0  0
  185.0650  178.4350  140.5700 C   0  0  0  0  0  0  0  0  0  0  0  0
  183.0510  177.2120  139.7650 C   0  0  0  0  0  0  0  0  0  0  0  0
  186.4560  178.5490  140.3510 N   0  0  0  0  0  0  0  0  0  0  0  0
  182.1340  177.4940  140.6940 C   0  0  0  0  0  3  0  0  0  0  0  0
  187.0830  178.9660  141.5920 C   0  0  0  0  0  2  0  0  0  0  0  0
  185.9780  178.9050  142.6580 C   0  0  1  0  0  3  0  0  0  0  0  0
  184.7380  178.6930  141.8370 C   0  0  0  0  0  0  0  0  0  0  0  0
  182.1840  178.7820  141.4540 C   0  0  0  0  0  2  0  0  0  0  0  0
  182.9810  175.6830  138.9130 Cl  0  0  0  0  0  0  0  0  0  0  0  0
  183.3510  178.7810  142.4370 C   0  0  0  0  0  3  0  0  0  0  0  0
  186.7580  177.2650  146.1890 C   0  0  0  0  0  1  0  0  0  0  0  0
  184.6230  178.5530  145.4220 C   0  0  1  0  0  3  0  0  0  0  0  0
  184.2670  178.2740  146.7450 O   0  0  0  0  0  1  0  0  0  0  0  0
  185.8020  179.5130  145.4110 C   0  0  0  0  0  2  0  0  0  0  0  0
  186.0270  178.0490  145.1020 C   0  0  2  0  0  0  0  0  0  0  0  0
  187.6590  177.1840  143.4320 C   0  0  0  0  0  0  0  0  0  0  0  0
  187.8020  176.0050  143.1430 O   0  0  0  0  0  0  0  0  0  0  0  0
  189.4860  177.7620  144.9390 N   0  0  0  0  0  0  0  0  0  0  0  0
  191.1350  177.6090  143.4260 O   0  0  0  0  0  0  0  0  0  0  0  0
  191.6260  177.2080  145.8050 N   0  0  0  0  0  1  0  0  0  0  0  0
  190.7350  177.5300  144.7440 C   0  0  0  0  0  0  0  0  0  0  0  0
  189.8250  176.8820  141.5480 C   0  0  0  0  0  1  0  0  0  0  0  0
  188.8650  178.0620  143.6560 C   0  0  1  0  0  3  0  0  0  0  0  0
  190.0160  177.9430  142.6230 C   0  0  1  0  0  3  0  0  0  0  0  0
  1 18  1  1  0  0  0
  1 17  1  0  0  0  0
  2  4  1  0  0  0  0
  2  3  1  0  0  0  0
  3  9  1  0  0  0  0
  4  6  2  0  0  0  0
  5  3  2  0  0  0  0
  5  7  1  0  0  0  0
  6 10  1  0  0  0  0
  7  8  1  0  0  0  0
  8  1  1  1  0  0  0
  9 12  2  0  0  0  0
  9  8  1  0  0  0  0
 10 12  1  0  0  0  0
 11  4  1  0  0  0  0
 14 15  1  1  0  0  0
 16 14  1  0  0  0  0
 17 16  1  0  0  0  0
 17 14  1  0  0  0  0
 17 13  1  1  0  0  0
 19 18  2  0  0  0  0
 21 23  1  0  0  0  0
 23 20  2  0  0  0  0
 23 22  1  0  0  0  0
 25 18  1  6  0  0  0
 25 20  1  0  0  0  0
 26 24  1  6  0  0  0
 26 21  1  0  0  0  0
 26 25  1  0  0  0  0
M  END
>  <MODEL>
1

>  <REMARK>
 VINA RESULT:      -7.6      0.000      0.000
  Name = 
  4 active torsions:
  status: ('A' for Active; 'I' for Inactive)
    1  A    between atoms: C_2  and  C_4
    2  A    between atoms: C_2  and  C_21
    3  A    between atoms: C_4  and  C_13
    4  A    between atoms: C_4  and  C_26
                            x       y       z     vdW  Elec       q    Type
                         _______ _______ _______ _____ _____    ______ ____

>  <TORSDO>
F 4

$$$$
=
 OpenBabel11062417013D

 26 29  0  0  1  0  0  0  0  0999 V2000
  186.4430  177.7630  142.7680 C   0  0  2  0  0  3  0  0  0  0  0  0
  186.4400  178.0880  138.0430 C   0  0  0  0  0  2  0  0  0  0  0  0
  186.8280  178.2930  139.4780 C   0  0  0  0  0  0  0  0  0  0  0  0
  185.1420  177.3490  137.9090 C   0  0  0  0  0  0  0  0  0  0  0  0
  188.1710  178.1370  139.8910 N   0  0  0  0  0  0  0  0  0  0  0  0
  183.9970  177.8950  138.3290 C   0  0  0  0  0  3  0  0  0  0  0  0
  188.2820  178.5860  141.2670 C   0  0  0  0  0  2  0  0  0  0  0  0
  186.8430  178.8460  141.7390 C   0  0  1  0  0  3  0  0  0  0  0  0
  186.0560  178.7540  140.4620 C   0  0  0  0  0  0  0  0  0  0  0  0
  183.9870  179.2370  138.9900 C   0  0  0  0  0  2  0  0  0  0  0  0
  185.1230  175.7630  137.1630 Cl  0  0  0  0  0  0  0  0  0  0  0  0
  184.5970  179.1530  140.3860 C   0  0  0  0  0  3  0  0  0  0  0  0
  185.8060  177.7990  145.3450 C   0  0  0  0  0  1  0  0  0  0  0  0
  184.1240  178.5920  143.5160 C   0  0  1  0  0  3  0  0  0  0  0  0
  183.2520  178.4750  144.6010 O   0  0  0  0  0  1  0  0  0  0  0  0
  185.1150  179.7130  143.7850 C   0  0  0  0  0  2  0  0  0  0  0  0
  185.5620  178.2730  143.9150 C   0  0  2  0  0  0  0  0  0  0  0  0
  187.6490  177.0510  143.3250 C   0  0  0  0  0  0  0  0  0  0  0  0
  187.6820  175.8300  143.3020 O   0  0  0  0  0  0  0  0  0  0  0  0
  188.7210  177.7230  145.4080 N   0  0  0  0  0  0  0  0  0  0  0  0
  190.8040  177.1140  144.8420 O   0  0  0  0  0  0  0  0  0  0  0  0
  190.1450  177.1340  147.2140 N   0  0  0  0  0  1  0  0  0  0  0  0
  189.8700  177.3330  145.8330 C   0  0  0  0  0  0  0  0  0  0  0  0
  190.3230  176.1710  142.6860 C   0  0  0  0  0  1  0  0  0  0  0  0
  188.7770  177.8300  143.9560 C   0  0  1  0  0  3  0  0  0  0  0  0
  190.2180  177.3960  143.5840 C   0  0  1  0  0  3  0  0  0  0  0  0
  1 18  1  1  0  0  0
  1 17  1  0  0  0  0
  2  3  1  0  0  0  0
  3  5  2  0  0  0  0
  3  9  1  0  0  0  0
  4  2  1  0  0  0  0
  4  6  2  0  0  0  0
  5  7  1  0  0  0  0
  6 10  1  0  0  0  0
  7  8  1  0  0  0  0
  8  1  1  1  0  0  0
  9  8  1  0  0  0  0
 10 12  1  0  0  0  0
 11  4  1  0  0  0  0
 12  9  2  0  0  0  0
 14 16  1  0  0  0  0
 14 17  1  0  0  0  0
 14 15  1  1  0  0  0
 16 17  1  0  0  0  0
 17 13  1  1  0  0  0
 19 18  2  0  0  0  0
 20 23  2  0  0  0  0
 21 23  1  0  0  0  0
 23 22  1  0  0  0  0
 25 18  1  6  0  0  0
 25 20  1  0  0  0  0
 26 24  1  6  0  0  0
 26 25  1  0  0  0  0
 26 21  1  0  0  0  0
M  END
>  <MODEL>
2

>  <REMARK>
 VINA RESULT:      -7.5      1.571      1.880
  Name = 
  4 active torsions:
  status: ('A' for Active; 'I' for Inactive)
    1  A    between atoms: C_2  and  C_4
    2  A    between atoms: C_2  and  C_21
    3  A    between atoms: C_4  and  C_13
    4  A    between atoms: C_4  and  C_26
                            x       y       z     vdW  Elec       q    Type
                         _______ _______ _______ _____ _____    ______ ____

>  <TORSDO>
F 4

$$$$
=
 OpenBabel11062417013D

 26 29  0  0  1  0  0  0  0  0999 V2000
  189.5410  175.9530  137.5320 C   0  0  2  0  0  3  0  0  0  0  0  0
  188.6180  178.2980  141.5410 C   0  0  0  0  0  2  0  0  0  0  0  0
  188.8220  178.0080  140.0830 C   0  0  0  0  0  0  0  0  0  0  0  0
  189.0220  177.1440  142.4090 C   0  0  0  0  0  0  0  0  0  0  0  0
  187.8630  178.4110  139.1270 N   0  0  0  0  0  0  0  0  0  0  0  0
  190.2980  176.7560  142.4800 C   0  0  0  0  0  3  0  0  0  0  0  0
  188.4120  178.1810  137.8030 C   0  0  0  0  0  2  0  0  0  0  0  0
  189.7220  177.4080  138.0230 C   0  0  1  0  0  3  0  0  0  0  0  0
  189.9140  177.5020  139.5100 C   0  0  0  0  0  0  0  0  0  0  0  0
  191.3510  177.4310  141.6570 C   0  0  0  0  0  2  0  0  0  0  0  0
  187.8110  176.3150  143.3660 Cl  0  0  0  0  0  0  0  0  0  0  0  0
  191.1970  177.0640  140.1840 C   0  0  0  0  0  3  0  0  0  0  0  0
  191.2430  176.0180  135.4950 C   0  0  0  0  0  1  0  0  0  0  0  0
  190.9320  173.8690  136.9410 C   0  0  1  0  0  3  0  0  0  0  0  0
  191.6220  173.3240  135.8550 O   0  0  0  0  0  1  0  0  0  0  0  0
  191.8460  174.8290  137.6860 C   0  0  0  0  0  2  0  0  0  0  0  0
  190.7560  175.3770  136.7920 C   0  0  2  0  0  0  0  0  0  0  0  0
  188.3040  175.8000  136.6840 C   0  0  0  0  0  0  0  0  0  0  0  0
  188.2980  176.2610  135.5530 O   0  0  0  0  0  0  0  0  0  0  0  0
  185.8730  175.8740  136.8440 N   0  0  0  0  0  0  0  0  0  0  0  0
  185.5030  173.7490  136.2300 O   0  0  0  0  0  0  0  0  0  0  0  0
  183.7790  175.4550  135.8070 N   0  0  0  0  0  1  0  0  0  0  0  0
  185.0500  175.0500  136.3020 C   0  0  0  0  0  0  0  0  0  0  0  0
  187.7750  173.1100  135.7830 C   0  0  0  0  0  1  0  0  0  0  0  0
  187.0670  175.1410  137.2420 C   0  0  1  0  0  3  0  0  0  0  0  0
  186.7970  173.6790  136.8020 C   0  0  1  0  0  3  0  0  0  0  0  0
  1 18  1  6  0  0  0
  2  4  1  0  0  0  0
  3  2  1  0  0  0  0
  4  6  2  0  0  0  0
  4 11  1  0  0  0  0
  5  3  2  0  0  0  0
  7  8  1  0  0  0  0
  7  5  1  0  0  0  0
  8  1  1  1  0  0  0
  8  9  1  0  0  0  0
  9  3  1  0  0  0  0
  9 12  2  0  0  0  0
 10  6  1  0  0  0  0
 12 10  1  0  0  0  0
 14 15  1  6  0  0  0
 14 16  1  0  0  0  0
 17 13  1  6  0  0  0
 17 14  1  0  0  0  0
 17  1  1  0  0  0  0
 17 16  1  0  0  0  0
 19 18  2  0  0  0  0
 20 25  1  0  0  0  0
 21 23  1  0  0  0  0
 21 26  1  0  0  0  0
 22 23  1  0  0  0  0
 23 20  2  0  0  0  0
 25 18  1  6  0  0  0
 26 24  1  6  0  0  0
 26 25  1  0  0  0  0
M  END
>  <MODEL>
3

>  <REMARK>
 VINA RESULT:      -7.2      5.213      8.560
  Name = 
  4 active torsions:
  status: ('A' for Active; 'I' for Inactive)
    1  A    between atoms: C_2  and  C_4
    2  A    between atoms: C_2  and  C_21
    3  A    between atoms: C_4  and  C_13
    4  A    between atoms: C_4  and  C_26
                            x       y       z     vdW  Elec       q    Type
                         _______ _______ _______ _____ _____    ______ ____

>  <TORSDO>
F 4

$$$$
=
 OpenBabel11062417013D

 26 29  0  0  1  0  0  0  0  0999 V2000
  186.8280  178.3810  144.4300 C   0  0  2  0  0  3  0  0  0  0  0  0
  190.7010  176.1500  142.8630 C   0  0  0  0  0  2  0  0  0  0  0  0
  189.3530  176.3880  143.4770 C   0  0  0  0  0  0  0  0  0  0  0  0
  191.4300  177.4310  142.5860 C   0  0  0  0  0  0  0  0  0  0  0  0
  188.2330  175.6250  143.0770 N   0  0  0  0  0  0  0  0  0  0  0  0
  191.8260  178.2230  143.5860 C   0  0  0  0  0  3  0  0  0  0  0  0
  187.1290  175.9300  143.9670 C   0  0  0  0  0  2  0  0  0  0  0  0
  187.6040  177.1050  144.8350 C   0  0  1  0  0  3  0  0  0  0  0  0
  189.0680  177.1850  144.5070 C   0  0  0  0  0  0  0  0  0  0  0  0
  191.5080  177.8780  145.0080 C   0  0  0  0  0  2  0  0  0  0  0  0
  191.7950  177.8780  140.9310 Cl  0  0  0  0  0  0  0  0  0  0  0  0
  190.0200  178.0690  145.2870 C   0  0  0  0  0  3  0  0  0  0  0  0
  184.6460  179.7530  145.0660 C   0  0  0  0  0  1  0  0  0  0  0  0
  186.4080  179.0840  146.8700 C   0  0  1  0  0  3  0  0  0  0  0  0
  185.6810  180.0340  147.5930 O   0  0  0  0  0  1  0  0  0  0  0  0
  185.5220  177.8820  146.5860 C   0  0  0  0  0  2  0  0  0  0  0  0
  185.8210  178.8690  145.4790 C   0  0  2  0  0  0  0  0  0  0  0  0
  186.1450  178.2180  143.0970 C   0  0  0  0  0  0  0  0  0  0  0  0
  185.2530  177.3900  142.9840 O   0  0  0  0  0  0  0  0  0  0  0  0
  187.7900  178.4360  141.3120 N   0  0  0  0  0  0  0  0  0  0  0  0
  186.3250  178.6280  139.6250 O   0  0  0  0  0  0  0  0  0  0  0  0
  188.5620  177.6970  139.1920 N   0  0  0  0  0  1  0  0  0  0  0  0
  187.5790  178.2530  140.0570 C   0  0  0  0  0  0  0  0  0  0  0  0
  184.2980  178.3470  140.8830 C   0  0  0  0  0  1  0  0  0  0  0  0
  186.5930  179.0210  141.9010 C   0  0  1  0  0  3  0  0  0  0  0  0
  185.5900  179.1370  140.7240 C   0  0  1  0  0  3  0  0  0  0  0  0
  1 18  1  6  0  0  0
  1 17  1  0  0  0  0
  2  3  1  0  0  0  0
  3  9  1  0  0  0  0
  4  2  1  0  0  0  0
  4  6  2  0  0  0  0
  5  3  2  0  0  0  0
  5  7  1  0  0  0  0
  6 10  1  0  0  0  0
  7  8  1  0  0  0  0
  8  1  1  6  0  0  0
  9  8  1  0  0  0  0
  9 12  2  0  0  0  0
 10 12  1  0  0  0  0
 11  4  1  0  0  0  0
 14 15  1  1  0  0  0
 16 14  1  0  0  0  0
 17 13  1  6  0  0  0
 17 16  1  0  0  0  0
 17 14  1  0  0  0  0
 19 18  2  0  0  0  0
 20 25  1  0  0  0  0
 21 23  1  0  0  0  0
 21 26  1  0  0  0  0
 22 23  1  0  0  0  0
 23 20  2  0  0  0  0
 25 18  1  1  0  0  0
 26 24  1  1  0  0  0
 26 25  1  0  0  0  0
M  END
>  <MODEL>
4

>  <REMARK>
 VINA RESULT:      -7.2      2.826      5.662
  Name = 
  4 active torsions:
  status: ('A' for Active; 'I' for Inactive)
    1  A    between atoms: C_2  and  C_4
    2  A    between atoms: C_2  and  C_21
    3  A    between atoms: C_4  and  C_13
    4  A    between atoms: C_4  and  C_26
                            x       y       z     vdW  Elec       q    Type
                         _______ _______ _______ _____ _____    ______ ____

>  <TORSDO>
F 4

$$$$
=
 OpenBabel11062417013D

 26 29  0  0  1  0  0  0  0  0999 V2000
  187.2880  177.4950  142.2060 C   0  0  2  0  0  3  0  0  0  0  0  0
  189.0940  177.2110  137.8370 C   0  0  0  0  0  2  0  0  0  0  0  0
  188.8940  177.6310  139.2640 C   0  0  0  0  0  0  0  0  0  0  0  0
  187.9730  176.3490  137.3380 C   0  0  0  0  0  0  0  0  0  0  0  0
  189.9780  177.6480  140.1700 N   0  0  0  0  0  0  0  0  0  0  0  0
  186.7380  176.8420  137.2080 C   0  0  0  0  0  3  0  0  0  0  0  0
  189.5360  178.2780  141.4010 C   0  0  0  0  0  3  0  0  0  0  0  0
  188.0190  178.4680  141.2510 C   0  0  1  0  0  3  0  0  0  0  0  0
  187.7870  178.1450  139.8020 C   0  0  0  0  0  0  0  0  0  0  0  0
  186.4310  178.2520  137.6050 C   0  0  0  0  0  2  0  0  0  0  0  0
  188.2940  174.6860  136.8900 Cl  0  0  0  0  0  0  0  0  0  0  0  0
  186.4580  178.4010  139.1230 C   0  0  0  0  0  2  0  0  0  0  0  0
  185.9660  177.9050  144.4720 C   0  0  0  0  0  1  0  0  0  0  0  0
  184.8300  178.2560  142.1500 C   0  0  1  0  0  3  0  0  0  0  0  0
  183.6970  178.2530  142.9670 O   0  0  0  0  0  1  0  0  0  0  0  0
  185.6760  179.4780  142.4680 C   0  0  0  0  0  2  0  0  0  0  0  0
  186.1110  178.1180  142.9670 C   0  0  2  0  0  0  0  0  0  0  0  0
  188.2420  176.8470  143.1760 C   0  0  0  0  0  0  0  0  0  0  0  0
  188.3080  175.6270  143.2190 O   0  0  0  0  0  0  0  0  0  0  0  0
  188.5140  177.6130  145.4740 N   0  0  0  0  0  0  0  0  0  0  0  0
  190.6810  177.0750  145.6770 O   0  0  0  0  0  0  0  0  0  0  0  0
  189.2490  177.1270  147.6780 N   0  0  0  0  0  1  0  0  0  0  0  0
  189.4580  177.2800  146.2800 C   0  0  0  0  0  0  0  0  0  0  0  0
  190.9970  176.0610  143.5220 C   0  0  0  0  0  1  0  0  0  0  0  0
  189.0600  177.6860  144.1260 C   0  0  1  0  0  3  0  0  0  0  0  0
  190.5550  177.3020  144.2840 C   0  0  1  0  0  3  0  0  0  0  0  0
  1 17  1  0  0  0  0
  1 18  1  1  0  0  0
  2  3  1  0  0  0  0
  3  9  2  0  0  0  0
  3  5  1  0  0  0  0
  4  2  1  0  0  0  0
  5  7  2  0  0  0  0
  6  4  2  0  0  0  0
  6 10  1  0  0  0  0
  8  7  1  0  0  0  0
  8  1  1  1  0  0  0
  9  8  1  0  0  0  0
 10 12  1  0  0  0  0
 11  4  1  0  0  0  0
 12  9  1  0  0  0  0
 14 16  1  0  0  0  0
 14 15  1  1  0  0  0
 14 17  1  0  0  0  0
 16 17  1  0  0  0  0
 17 13  1  1  0  0  0
 18 19  2  0  0  0  0
 20 23  2  0  0  0  0
 21 23  1  0  0  0  0
 23 22  1  0  0  0  0
 25 18  1  6  0  0  0
 25 26  1  0  0  0  0
 25 20  1  0  0  0  0
 26 24  1  6  0  0  0
 26 21  1  0  0  0  0
M  END
>  <MODEL>
5

>  <REMARK>
 VINA RESULT:      -7.0      2.519      3.472
  Name = 
  4 active torsions:
  status: ('A' for Active; 'I' for Inactive)
    1  A    between atoms: C_2  and  C_4
    2  A    between atoms: C_2  and  C_21
    3  A    between atoms: C_4  and  C_13
    4  A    between atoms: C_4  and  C_26
                            x       y       z     vdW  Elec       q    Type
                         _______ _______ _______ _____ _____    ______ ____

>  <TORSDO>
F 4

$$$$
=
 OpenBabel11062417013D

 26 29  0  0  1  0  0  0  0  0999 V2000
  188.3730  175.6710  137.2540 C   0  0  2  0  0  3  0  0  0  0  0  0
  188.4400  178.2540  141.2230 C   0  0  0  0  0  2  0  0  0  0  0  0
  188.3170  177.8850  139.7740 C   0  0  0  0  0  0  0  0  0  0  0  0
  188.9540  177.1170  142.0550 C   0  0  0  0  0  0  0  0  0  0  0  0
  187.2030  178.3040  139.0140 N   0  0  0  0  0  0  0  0  0  0  0  0
  190.1940  176.6510  141.8840 C   0  0  0  0  0  3  0  0  0  0  0  0
  187.4480  177.9780  137.6220 C   0  0  0  0  0  2  0  0  0  0  0  0
  188.7310  177.1330  137.6110 C   0  0  1  0  0  3  0  0  0  0  0  0
  189.2360  177.2820  139.0180 C   0  0  0  0  0  0  0  0  0  0  0  0
  191.0850  177.2170  140.8230 C   0  0  0  0  0  2  0  0  0  0  0  0
  187.9270  176.4140  143.2880 Cl  0  0  0  0  0  0  0  0  0  0  0  0
  190.6070  176.7930  139.4370 C   0  0  0  0  0  3  0  0  0  0  0  0
  189.8330  175.4760  135.0460 C   0  0  0  0  0  1  0  0  0  0  0  0
  189.4790  173.4320  136.6280 C   0  0  1  0  0  3  0  0  0  0  0  0
  189.9850  172.7740  135.5050 O   0  0  0  0  0  1  0  0  0  0  0  0
  190.5600  174.3240  137.2180 C   0  0  0  0  0  2  0  0  0  0  0  0
  189.4350  174.9430  136.4200 C   0  0  2  0  0  0  0  0  0  0  0  0
  187.0310  175.5760  136.5750 C   0  0  0  0  0  0  0  0  0  0  0  0
  186.8430  176.2000  135.5410 O   0  0  0  0  0  0  0  0  0  0  0  0
  184.6810  175.5470  137.2200 N   0  0  0  0  0  0  0  0  0  0  0  0
  184.1510  173.6210  136.2010 O   0  0  0  0  0  0  0  0  0  0  0  0
  182.4160  175.3330  136.5430 N   0  0  0  0  0  1  0  0  0  0  0  0
  183.7490  174.8540  136.6680 C   0  0  0  0  0  0  0  0  0  0  0  0
  186.2760  173.1660  135.1780 C   0  0  0  0  0  1  0  0  0  0  0  0
  185.9140  174.7710  137.1900 C   0  0  1  0  0  3  0  0  0  0  0  0
  185.5310  173.4490  136.4750 C   0  0  1  0  0  3  0  0  0  0  0  0
  1 18  1  6  0  0  0
  2  4  1  0  0  0  0
  3  2  1  0  0  0  0
  4 11  1  0  0  0  0
  5  3  2  0  0  0  0
  6  4  2  0  0  0  0
  7  5  1  0  0  0  0
  8  1  1  1  0  0  0
  8  7  1  0  0  0  0
  8  9  1  0  0  0  0
  9 12  2  0  0  0  0
  9  3  1  0  0  0  0
 10  6  1  0  0  0  0
 12 10  1  0  0  0  0
 14 15  1  6  0  0  0
 14 16  1  0  0  0  0
 17 13  1  6  0  0  0
 17 14  1  0  0  0  0
 17 16  1  0  0  0  0
 17  1  1  0  0  0  0
 19 18  2  0  0  0  0
 21 26  1  0  0  0  0
 21 23  1  0  0  0  0
 22 23  1  0  0  0  0
 23 20  2  0  0  0  0
 25 18  1  6  0  0  0
 25 20  1  0  0  0  0
 26 24  1  6  0  0  0
 26 25  1  0  0  0  0
M  END
>  <MODEL>
6

>  <REMARK>
 VINA RESULT:      -6.9      5.246      8.657
  Name = 
  4 active torsions:
  status: ('A' for Active; 'I' for Inactive)
    1  A    between atoms: C_2  and  C_4
    2  A    between atoms: C_2  and  C_21
    3  A    between atoms: C_4  and  C_13
    4  A    between atoms: C_4  and  C_26
                            x       y       z     vdW  Elec       q    Type
                         _______ _______ _______ _____ _____    ______ ____

>  <TORSDO>
F 4

$$$$
=
 OpenBabel11062417013D

 26 29  0  0  1  0  0  0  0  0999 V2000
  186.1850  178.0740  143.4140 C   0  0  2  0  0  3  0  0  0  0  0  0
  183.7750  178.2090  139.3390 C   0  0  0  0  0  2  0  0  0  0  0  0
  184.7270  178.5850  140.4360 C   0  0  0  0  0  0  0  0  0  0  0  0
  182.8850  177.0670  139.7300 C   0  0  0  0  0  0  0  0  0  0  0  0
  186.0700  178.9120  140.1450 N   0  0  0  0  0  0  0  0  0  0  0  0
  181.9860  177.2040  140.7080 C   0  0  0  0  0  3  0  0  0  0  0  0
  186.6910  179.4210  141.3540 C   0  0  0  0  0  2  0  0  0  0  0  0
  185.6680  179.1910  142.4770 C   0  0  1  0  0  3  0  0  0  0  0  0
  184.4330  178.7910  141.7200 C   0  0  0  0  0  0  0  0  0  0  0  0
  181.8780  178.4850  141.4740 C   0  0  0  0  0  2  0  0  0  0  0  0
  183.0050  175.5450  138.8700 Cl  0  0  0  0  0  0  0  0  0  0  0  0
  183.0820  178.6640  142.3940 C   0  0  0  0  0  3  0  0  0  0  0  0
  186.5090  177.4270  145.9680 C   0  0  0  0  0  1  0  0  0  0  0  0
  184.3990  178.7230  145.1500 C   0  0  1  0  0  3  0  0  0  0  0  0
  183.9600  178.3380  146.4190 O   0  0  0  0  0  1  0  0  0  0  0  0
  185.5500  179.7070  145.2930 C   0  0  0  0  0  2  0  0  0  0  0  0
  185.8350  178.2760  144.8940 C   0  0  2  0  0  0  0  0  0  0  0  0
  187.6690  177.8620  143.2610 C   0  0  0  0  0  0  0  0  0  0  0  0
  188.4380  178.7080  143.6940 O   0  0  0  0  0  0  0  0  0  0  0  0
  188.7300  177.0350  141.2290 N   0  0  0  0  0  0  0  0  0  0  0  0
  190.3810  175.9000  142.2360 O   0  0  0  0  0  0  0  0  0  0  0  0
  190.7230  176.7830  139.9640 N   0  0  0  0  0  1  0  0  0  0  0  0
  189.9290  176.5830  141.1270 C   0  0  0  0  0  0  0  0  0  0  0  0
  189.8790  176.4890  144.5100 C   0  0  0  0  0  1  0  0  0  0  0  0
  188.2010  176.6540  142.5320 C   0  0  1  0  0  3  0  0  0  0  0  0
  189.3580  175.8800  143.2160 C   0  0  1  0  0  3  0  0  0  0  0  0
  1 18  1  1  0  0  0
  1 17  1  0  0  0  0
  2  4  1  0  0  0  0
  2  3  1  0  0  0  0
  3  9  1  0  0  0  0
  4  6  2  0  0  0  0
  5  3  2  0  0  0  0
  5  7  1  0  0  0  0
  6 10  1  0  0  0  0
  7  8  1  0  0  0  0
  8  1  1  1  0  0  0
  9 12  2  0  0  0  0
  9  8  1  0  0  0  0
 10 12  1  0  0  0  0
 11  4  1  0  0  0  0
 14 16  1  0  0  0  0
 14 15  1  1  0  0  0
 17 14  1  0  0  0  0
 17 16  1  0  0  0  0
 17 13  1  1  0  0  0
 18 19  2  0  0  0  0
 20 25  1  0  0  0  0
 21 26  1  0  0  0  0
 22 23  1  0  0  0  0
 23 20  2  0  0  0  0
 23 21  1  0  0  0  0
 25 26  1  0  0  0  0
 25 18  1  1  0  0  0
 26 24  1  1  0  0  0
M  END
>  <MODEL>
7

>  <REMARK>
 VINA RESULT:      -6.7      1.614      1.945
  Name = 
  4 active torsions:
  status: ('A' for Active; 'I' for Inactive)
    1  A    between atoms: C_2  and  C_4
    2  A    between atoms: C_2  and  C_21
    3  A    between atoms: C_4  and  C_13
    4  A    between atoms: C_4  and  C_26
                            x       y       z     vdW  Elec       q    Type
                         _______ _______ _______ _____ _____    ______ ____

>  <TORSDO>
F 4

$$$$
=
 OpenBabel11062417013D

 26 29  0  0  1  0  0  0  0  0999 V2000
  184.9080  178.4060  142.6930 C   0  0  2  0  0  3  0  0  0  0  0  0
  182.1400  177.3430  139.0010 C   0  0  0  0  0  2  0  0  0  0  0  0
  183.2510  177.9390  139.8150 C   0  0  0  0  0  0  0  0  0  0  0  0
  181.1190  176.6530  139.8560 C   0  0  0  0  0  0  0  0  0  0  0  0
  184.5920  177.8520  139.3780 N   0  0  0  0  0  0  0  0  0  0  0  0
  180.3630  177.3470  140.7110 C   0  0  0  0  0  3  0  0  0  0  0  0
  185.4110  178.6770  140.2470 C   0  0  0  0  0  2  0  0  0  0  0  0
  184.4870  179.1250  141.3900 C   0  0  1  0  0  3  0  0  0  0  0  0
  183.1310  178.7000  140.9030 C   0  0  0  0  0  0  0  0  0  0  0  0
  180.5490  178.8230  140.8740 C   0  0  0  0  0  2  0  0  0  0  0  0
  180.8950  174.9220  139.7090 Cl  0  0  0  0  0  0  0  0  0  0  0  0
  181.8560  179.1220  141.6030 C   0  0  0  0  0  3  0  0  0  0  0  0
  184.8560  180.5020  144.3220 C   0  0  0  0  0  1  0  0  0  0  0  0
  184.1530  178.1260  145.1380 C   0  0  1  0  0  3  0  0  0  0  0  0
  184.2850  178.7690  146.3720 O   0  0  0  0  0  1  0  0  0  0  0  0
  182.9920  178.7420  144.3720 C   0  0  0  0  0  2  0  0  0  0  0  0
  184.4130  179.0830  143.9780 C   0  0  2  0  0  0  0  0  0  0  0  0
  186.4000  178.2040  142.7620 C   0  0  0  0  0  0  0  0  0  0  0  0
  187.1380  179.0880  142.3540 O   0  0  0  0  0  0  0  0  0  0  0  0
  188.0580  176.4540  142.4060 N   0  0  0  0  0  0  0  0  0  0  0  0
  188.9180  176.4800  144.4770 O   0  0  0  0  0  0  0  0  0  0  0  0
  190.3240  175.7690  142.5860 N   0  0  0  0  0  1  0  0  0  0  0  0
  189.0950  176.2290  143.1330 C   0  0  0  0  0  0  0  0  0  0  0  0
  187.6160  178.2870  145.3770 C   0  0  0  0  0  1  0  0  0  0  0  0
  186.9760  176.9070  143.2700 C   0  0  1  0  0  3  0  0  0  0  0  0
  187.5910  176.9270  144.6940 C   0  0  1  0  0  3  0  0  0  0  0  0
  1 18  1  1  0  0  0
  1 17  1  0  0  0  0
  2  3  1  0  0  0  0
  2  4  1  0  0  0  0
  3  9  1  0  0  0  0
  4  6  2  0  0  0  0
  5  3  2  0  0  0  0
  5  7  1  0  0  0  0
  6 10  1  0  0  0  0
  7  8  1  0  0  0  0
  8  1  1  1  0  0  0
  9  8  1  0  0  0  0
  9 12  2  0  0  0  0
 10 12  1  0  0  0  0
 11  4  1  0  0  0  0
 14 15  1  1  0  0  0
 16 14  1  0  0  0  0
 17 13  1  1  0  0  0
 17 16  1  0  0  0  0
 17 14  1  0  0  0  0
 19 18  2  0  0  0  0
 20 23  2  0  0  0  0
 20 25  1  0  0  0  0
 21 26  1  0  0  0  0
 22 23  1  0  0  0  0
 23 21  1  0  0  0  0
 25 18  1  6  0  0  0
 25 26  1  0  0  0  0
 26 24  1  6  0  0  0
M  END
>  <MODEL>
8

>  <REMARK>
 VINA RESULT:      -6.5      1.801      2.563
  Name = 
  4 active torsions:
  status: ('A' for Active; 'I' for Inactive)
    1  A    between atoms: C_2  and  C_4
    2  A    between atoms: C_2  and  C_21
    3  A    between atoms: C_4  and  C_13
    4  A    between atoms: C_4  and  C_26
                            x       y       z     vdW  Elec       q    Type
                         _______ _______ _______ _____ _____    ______ ____

>  <TORSDO>
F 4

$$$$
=
 OpenBabel11062417013D

 26 29  0  0  1  0  0  0  0  0999 V2000
  185.0140  176.9690  137.9770 C   0  0  2  0  0  3  0  0  0  0  0  0
  187.6020  178.7090  141.5410 C   0  0  0  0  0  2  0  0  0  0  0  0
  186.6160  178.6280  140.4130 C   0  0  0  0  0  0  0  0  0  0  0  0
  188.4370  177.4680  141.6530 C   0  0  0  0  0  0  0  0  0  0  0  0
  185.2980  179.1120  140.5710 N   0  0  0  0  0  0  0  0  0  0  0  0
  189.2960  177.1330  140.6870 C   0  0  0  0  0  3  0  0  0  0  0  0
  184.6420  179.0870  139.2760 C   0  0  0  0  0  3  0  0  0  0  0  0
  185.6080  178.3520  138.3340 C   0  0  1  0  0  3  0  0  0  0  0  0
  186.8610  178.2530  139.1570 C   0  0  0  0  0  0  0  0  0  0  0  0
  189.4130  177.9590  139.4450 C   0  0  0  0  0  2  0  0  0  0  0  0
  188.3050  176.4640  143.0830 Cl  0  0  0  0  0  0  0  0  0  0  0  0
  188.1760  177.7870  138.5680 C   0  0  0  0  0  2  0  0  0  0  0  0
  185.4790  177.2680  135.3800 C   0  0  0  0  0  1  0  0  0  0  0  0
  185.2520  174.9030  136.4590 C   0  0  1  0  0  3  0  0  0  0  0  0
  185.1430  174.5570  135.1100 O   0  0  0  0  0  1  0  0  0  0  0  0
  186.6520  175.4310  136.7310 C   0  0  0  0  0  2  0  0  0  0  0  0
  185.4940  176.4000  136.6360 C   0  0  2  0  0  0  0  0  0  0  0  0
  183.5080  176.9810  138.0200 C   0  0  0  0  0  0  0  0  0  0  0  0
  182.9010  177.8080  137.3560 O   0  0  0  0  0  0  0  0  0  0  0  0
  181.9050  176.7590  139.8430 N   0  0  0  0  0  0  0  0  0  0  0  0
  180.5560  175.2810  138.8300 O   0  0  0  0  0  0  0  0  0  0  0  0
  179.6350  176.7990  140.5360 N   0  0  0  0  0  1  0  0  0  0  0  0
  180.7100  176.2950  139.7530 C   0  0  0  0  0  0  0  0  0  0  0  0
  181.6800  175.1720  136.7100 C   0  0  0  0  0  1  0  0  0  0  0  0
  182.7570  176.0270  138.9150 C   0  0  1  0  0  3  0  0  0  0  0  0
  181.8070  175.0180  138.2190 C   0  0  1  0  0  3  0  0  0  0  0  0
  1 18  1  6  0  0  0
  2  4  1  0  0  0  0
  3  5  1  0  0  0  0
  3  2  1  0  0  0  0
  4 11  1  0  0  0  0
  6  4  2  0  0  0  0
  7  5  2  0  0  0  0
  8  1  1  1  0  0  0
  8  9  1  0  0  0  0
  8  7  1  0  0  0  0
  9  3  2  0  0  0  0
 10  6  1  0  0  0  0
 12  9  1  0  0  0  0
 12 10  1  0  0  0  0
 14 15  1  6  0  0  0
 14 17  1  0  0  0  0
 14 16  1  0  0  0  0
 17 13  1  6  0  0  0
 17 16  1  0  0  0  0
 17  1  1  0  0  0  0
 19 18  2  0  0  0  0
 21 23  1  0  0  0  0
 23 20  2  0  0  0  0
 23 22  1  0  0  0  0
 25 18  1  6  0  0  0
 25 20  1  0  0  0  0
 26 24  1  6  0  0  0
 26 21  1  0  0  0  0
 26 25  1  0  0  0  0
M  END
>  <MODEL>
9

>  <REMARK>
 VINA RESULT:      -6.4      4.672      8.168
  Name = 
  4 active torsions:
  status: ('A' for Active; 'I' for Inactive)
    1  A    between atoms: C_2  and  C_4
    2  A    between atoms: C_2  and  C_21
    3  A    between atoms: C_4  and  C_13
    4  A    between atoms: C_4  and  C_26
                            x       y       z     vdW  Elec       q    Type
                         _______ _______ _______ _____ _____    ______ ____

>  <TORSDO>
F 4

$$$$
