=
 OpenBabel11062413153D

 42 45  0  0  1  0  0  0  0  0999 V2000
  191.4470  176.7190  137.7330 C   0  0  2  0  0  3  0  0  0  0  0  0
  190.7840  176.0350  139.3000 S   0  0  0  0  0  0  0  0  0  0  0  0
  190.8370  176.1680  136.5830 O   0  0  0  0  0  0  0  0  0  0  0  0
  188.7630  178.2300  138.0980 C   0  0  0  0  0  0  0  0  0  0  0  0
  188.7640  176.3150  141.5120 C   0  0  0  0  0  1  0  0  0  0  0  0
  188.8550  175.9810  135.2950 C   0  0  0  0  0  2  0  0  0  0  0  0
  190.2710  177.6890  139.9550 C   0  0  2  0  0  3  0  0  0  0  0  0
  187.9700  178.1480  135.8330 O   0  0  0  0  0  0  0  0  0  0  0  0
  189.4450  176.4170  136.5930 C   0  0  2  0  0  3  0  0  0  0  0  0
  189.0740  177.8930  136.6690 C   0  0  2  0  0  3  0  0  0  0  0  0
  187.1190  178.2570  140.0270 C   0  0  0  0  0  2  0  0  0  0  0  0
  187.8050  177.0300  134.9920 C   0  0  2  0  0  3  0  0  0  0  0  0
  189.3610  177.6990  141.2240 C   0  0  1  0  0  0  0  0  0  0  0  0
  189.8290  178.5680  138.9220 O   0  0  0  0  0  0  0  0  0  0  0  0
  188.2020  178.7240  141.0110 C   0  0  2  0  0  3  0  0  0  0  0  0
  187.5310  178.0710  138.5900 C   0  0  0  0  0  3  0  0  0  0  0  0
  187.5750  179.0660  142.2110 O   0  0  0  0  0  1  0  0  0  0  0  0
  191.6490  176.5080  143.5090 C   0  0  0  0  0  2  0  0  0  0  0  0
  191.6450  177.5110  142.3800 C   0  0  0  0  0  2  0  0  0  0  0  0
  189.7130  177.8010  143.7940 C   0  0  0  0  0  2  0  0  0  0  0  0
  190.6310  176.8980  144.4790 N   0  0  0  0  0  0  0  0  0  0  0  0
  190.2680  178.1410  142.4110 C   0  0  2  0  0  3  0  0  0  0  0  0
  191.2800  177.6780  145.5260 C   0  0  0  0  0  2  0  0  0  0  0  0
  191.0300  177.0570  146.8990 C   0  0  2  0  0  3  0  0  0  0  0  0
  192.3840  175.1020  146.5770 O   0  0  0  0  0  0  0  0  0  0  0  0
  192.8310  176.3260  148.4590 O   0  0  0  0  0  1  0  0  0  0  0  0
  192.1220  176.1100  147.2860 C   0  0  0  0  0  0  0  0  0  0  0  0
  189.6390  176.4190  147.0110 C   0  0  0  0  0  2  0  0  0  0  0  0
  188.6720  178.0930  148.4080 O   0  0  0  0  0  0  0  0  0  0  0  0
  187.4210  177.5320  146.5140 N   0  0  0  0  0  2  0  0  0  0  0  0
  188.5670  177.4040  147.3580 C   0  0  0  0  0  0  0  0  0  0  0  0
  186.3460  178.4760  146.7870 C   0  0  0  0  0  2  0  0  0  0  0  0
  185.4860  178.1960  144.4860 C   0  0  0  0  0  1  0  0  0  0  0  0
  184.1100  179.0710  146.2110 O   0  0  0  0  0  1  0  0  0  0  0  0
  185.1200  178.1420  145.9540 C   0  0  2  0  0  3  0  0  0  0  0  0
  186.2520  175.2480  135.8190 O   0  0  0  0  0  1  0  0  0  0  0  0
  185.4380  177.0910  134.7280 O   0  0  0  0  0  0  0  0  0  0  0  0
  186.4360  176.4620  135.1670 C   0  0  0  0  0  0  0  0  0  0  0  0
  192.9510  176.5160  137.6810 C   0  0  0  0  0  2  0  0  0  0  0  0
  193.0220  174.1370  137.5810 O   0  0  0  0  0  1  0  0  0  0  0  0
  193.8350  175.2280  135.7360 O   0  0  0  0  0  0  0  0  0  0  0  0
  193.2740  175.2270  137.0070 C   0  0  0  0  0  0  0  0  0  0  0  0
  1 39  1  6  0  0  0
  1  2  1  0  0  0  0
  2  7  1  0  0  0  0
  3  9  1  0  0  0  0
  3  1  1  0  0  0  0
  4 16  2  0  0  0  0
  4 14  1  0  0  0  0
  7 14  1  6  0  0  0
  7 13  1  0  0  0  0
  9  6  1  6  0  0  0
  9 10  1  0  0  0  0
 10  8  1  6  0  0  0
 10  4  1  0  0  0  0
 11 15  1  0  0  0  0
 12 38  1  1  0  0  0
 12  6  1  0  0  0  0
 12  8  1  0  0  0  0
 13  5  1  1  0  0  0
 13 22  1  0  0  0  0
 15 13  1  0  0  0  0
 15 17  1  1  0  0  0
 16 11  1  0  0  0  0
 18 21  1  0  0  0  0
 19 18  1  0  0  0  0
 20 21  1  0  0  0  0
 21 23  1  0  0  0  0
 22 19  1  6  0  0  0
 22 20  1  0  0  0  0
 24 23  1  6  0  0  0
 24 28  1  0  0  0  0
 24 27  1  0  0  0  0
 25 27  2  0  0  0  0
 27 26  1  0  0  0  0
 28 31  1  0  0  0  0
 30 32  1  0  0  0  0
 30 31  1  0  0  0  0
 31 29  2  0  0  0  0
 35 33  1  6  0  0  0
 35 34  1  0  0  0  0
 35 32  1  0  0  0  0
 37 38  2  0  0  0  0
 38 36  1  0  0  0  0
 41 42  2  0  0  0  0
 42 40  1  0  0  0  0
 42 39  1  0  0  0  0
M  END
>  <MODEL>
1

>  <REMARK>
 VINA RESULT:      -7.3      0.000      0.000
  Name = 
  11 active torsions:
  status: ('A' for Active; 'I' for Inactive)
    1  A    between atoms: C_3  and  N_18
    2  A    between atoms: C_3  and  C_40
    3  A    between atoms: C_4  and  C_13
    4  A    between atoms: C_13  and  C_33
    5  A    between atoms: N_14  and  C_32
    6  A    between atoms: C_20  and  C_30
    7  A    between atoms: C_20  and  C_38
    8  A    between atoms: C_24  and  C_38
    9  A    between atoms: C_25  and  C_34
   10  A    between atoms: C_32  and  C_38
   11  A    between atoms: C_35  and  C_39
                            x       y       z     vdW  Elec       q    Type
                         _______ _______ _______ _____ _____    ______ ____

>  <TORSDO>
F 11

$$$$
=
 OpenBabel11062413153D

 42 45  0  0  1  0  0  0  0  0999 V2000
  190.0620  176.8250  144.1020 C   0  0  2  0  0  3  0  0  0  0  0  0
  190.1680  178.2550  142.9600 S   0  0  0  0  0  0  0  0  0  0  0  0
  189.5950  177.1740  145.3900 O   0  0  0  0  0  0  0  0  0  0  0  0
  187.1200  177.2590  143.2170 C   0  0  0  0  0  0  0  0  0  0  0  0
  188.7810  179.9140  140.8680 C   0  0  0  0  0  1  0  0  0  0  0  0
  187.7660  177.9440  146.6870 C   0  0  0  0  0  2  0  0  0  0  0  0
  189.0350  177.5020  141.7050 C   0  0  2  0  0  3  0  0  0  0  0  0
  186.0380  176.9600  145.3400 O   0  0  0  0  0  0  0  0  0  0  0  0
  188.3040  177.7450  145.3110 C   0  0  2  0  0  3  0  0  0  0  0  0
  187.2620  176.8470  144.6540 C   0  0  2  0  0  3  0  0  0  0  0  0
  186.1180  178.8080  141.4790 C   0  0  0  0  0  2  0  0  0  0  0  0
  186.2940  177.6090  146.5640 C   0  0  2  0  0  3  0  0  0  0  0  0
  188.5240  178.4320  140.5600 C   0  0  1  0  0  0  0  0  0  0  0  0
  188.0110  176.7100  142.3030 O   0  0  0  0  0  0  0  0  0  0  0  0
  186.9910  178.2070  140.3660 C   0  0  2  0  0  3  0  0  0  0  0  0
  186.2680  178.2230  142.8590 C   0  0  0  0  0  3  0  0  0  0  0  0
  186.5360  178.7070  139.1450 O   0  0  0  0  0  1  0  0  0  0  0  0
  188.9660  175.8250  138.3510 C   0  0  0  0  0  2  0  0  0  0  0  0
  188.4570  177.2450  138.2850 C   0  0  0  0  0  2  0  0  0  0  0  0
  190.5190  177.1290  139.5300 C   0  0  0  0  0  2  0  0  0  0  0  0
  190.3330  175.8470  138.8600 N   0  0  0  0  0  0  0  0  0  0  0  0
  189.3030  178.0180  139.2760 C   0  0  2  0  0  3  0  0  0  0  0  0
  191.2410  175.8370  137.7190 C   0  0  0  0  0  2  0  0  0  0  0  0
  192.5920  175.2370  138.1060 C   0  0  2  0  0  3  0  0  0  0  0  0
  194.1570  176.5240  139.3920 O   0  0  0  0  0  1  0  0  0  0  0  0
  194.0240  177.0490  137.1680 O   0  0  0  0  0  0  0  0  0  0  0  0
  193.6410  176.2920  138.2660 C   0  0  0  0  0  0  0  0  0  0  0  0
  193.0330  174.1170  137.1560 C   0  0  0  0  0  2  0  0  0  0  0  0
  194.7060  173.0280  138.4610 O   0  0  0  0  0  0  0  0  0  0  0  0
  195.4590  173.9560  136.4520 N   0  0  0  0  0  2  0  0  0  0  0  0
  194.4350  173.6550  137.4020 C   0  0  0  0  0  0  0  0  0  0  0  0
  196.8410  173.5290  136.6240 C   0  0  0  0  0  2  0  0  0  0  0  0
  197.8060  174.7550  138.5420 C   0  0  0  0  0  1  0  0  0  0  0  0
  197.1480  175.8930  136.5640 O   0  0  0  0  0  1  0  0  0  0  0  0
  197.7130  174.7040  137.0320 C   0  0  2  0  0  3  0  0  0  0  0  0
  185.8880  179.9170  147.4460 O   0  0  0  0  0  1  0  0  0  0  0  0
  184.3840  178.9280  146.0270 O   0  0  0  0  0  0  0  0  0  0  0  0
  185.4670  178.8480  146.6630 C   0  0  0  0  0  0  0  0  0  0  0  0
  191.4150  176.1440  144.1980 C   0  0  0  0  0  2  0  0  0  0  0  0
  191.9750  177.2680  146.2220 O   0  0  0  0  0  0  0  0  0  0  0  0
  192.2790  174.9950  146.2380 O   0  0  0  0  0  1  0  0  0  0  0  0
  191.9100  176.1750  145.6030 C   0  0  0  0  0  0  0  0  0  0  0  0
  1 39  1  1  0  0  0
  1  3  1  0  0  0  0
  2  1  1  0  0  0  0
  7 14  1  1  0  0  0
  7  2  1  0  0  0  0
  8 12  1  0  0  0  0
  9  3  1  0  0  0  0
  9  6  1  1  0  0  0
 10  4  1  6  0  0  0
 10  9  1  0  0  0  0
 10  8  1  0  0  0  0
 11 16  1  0  0  0  0
 12 38  1  6  0  0  0
 12  6  1  0  0  0  0
 13  5  1  1  0  0  0
 13  7  1  0  0  0  0
 14  4  1  0  0  0  0
 15 17  1  6  0  0  0
 15 13  1  0  0  0  0
 15 11  1  0  0  0  0
 16  4  2  0  0  0  0
 18 21  1  0  0  0  0
 19 18  1  0  0  0  0
 21 20  1  0  0  0  0
 22 19  1  6  0  0  0
 22 20  1  0  0  0  0
 22 13  1  0  0  0  0
 23 24  1  0  0  0  0
 23 21  1  0  0  0  0
 24 28  1  6  0  0  0
 24 27  1  0  0  0  0
 26 27  2  0  0  0  0
 27 25  1  0  0  0  0
 28 31  1  0  0  0  0
 30 32  1  0  0  0  0
 30 31  1  0  0  0  0
 31 29  2  0  0  0  0
 32 35  1  0  0  0  0
 34 35  1  0  0  0  0
 35 33  1  1  0  0  0
 37 38  2  0  0  0  0
 38 36  1  0  0  0  0
 39 42  1  0  0  0  0
 42 40  2  0  0  0  0
 42 41  1  0  0  0  0
M  END
>  <MODEL>
2

>  <REMARK>
 VINA RESULT:      -6.8      2.816      9.271
  Name = 
  11 active torsions:
  status: ('A' for Active; 'I' for Inactive)
    1  A    between atoms: C_3  and  N_18
    2  A    between atoms: C_3  and  C_40
    3  A    between atoms: C_4  and  C_13
    4  A    between atoms: C_13  and  C_33
    5  A    between atoms: N_14  and  C_32
    6  A    between atoms: C_20  and  C_30
    7  A    between atoms: C_20  and  C_38
    8  A    between atoms: C_24  and  C_38
    9  A    between atoms: C_25  and  C_34
   10  A    between atoms: C_32  and  C_38
   11  A    between atoms: C_35  and  C_39
                            x       y       z     vdW  Elec       q    Type
                         _______ _______ _______ _____ _____    ______ ____

>  <TORSDO>
F 11

$$$$
=
 OpenBabel11062413153D

 42 45  0  0  1  0  0  0  0  0999 V2000
  187.5790  177.9200  144.8480 C   0  0  2  0  0  3  0  0  0  0  0  0
  187.8330  176.8480  143.3830 S   0  0  0  0  0  0  0  0  0  0  0  0
  187.9140  177.2850  146.0660 O   0  0  0  0  0  0  0  0  0  0  0  0
  190.6440  178.0460  144.3860 C   0  0  0  0  0  0  0  0  0  0  0  0
  189.7110  175.9680  141.2030 C   0  0  0  0  0  1  0  0  0  0  0  0
  189.6450  176.3870  147.4150 C   0  0  0  0  0  2  0  0  0  0  0  0
  189.0040  178.0250  142.5630 C   0  0  2  0  0  3  0  0  0  0  0  0
  191.3790  177.8710  146.6660 O   0  0  0  0  0  0  0  0  0  0  0  0
  189.2730  176.8940  146.0630 C   0  0  2  0  0  3  0  0  0  0  0  0
  190.2540  178.0380  145.8350 C   0  0  2  0  0  3  0  0  0  0  0  0
  192.0810  177.1360  142.5070 C   0  0  0  0  0  2  0  0  0  0  0  0
  191.0570  176.8930  147.6270 C   0  0  2  0  0  3  0  0  0  0  0  0
  189.7910  177.4960  141.3240 C   0  0  1  0  0  0  0  0  0  0  0  0
  189.8140  178.7270  143.5040 O   0  0  0  0  0  0  0  0  0  0  0  0
  191.2880  177.9220  141.4510 C   0  0  2  0  0  3  0  0  0  0  0  0
  191.6660  177.3080  143.9450 C   0  0  0  0  0  3  0  0  0  0  0  0
  191.9700  177.8200  140.2370 O   0  0  0  0  0  1  0  0  0  0  0  0
  186.7620  178.0080  139.7640 C   0  0  0  0  0  2  0  0  0  0  0  0
  187.8380  178.8680  140.3800 C   0  0  0  0  0  2  0  0  0  0  0  0
  188.8010  177.1870  138.9440 C   0  0  0  0  0  2  0  0  0  0  0  0
  187.3620  177.2040  138.7040 N   0  0  0  0  0  0  0  0  0  0  0  0
  189.1410  178.1590  140.0730 C   0  0  2  0  0  3  0  0  0  0  0  0
  187.1580  177.8980  137.4380 C   0  0  0  0  0  2  0  0  0  0  0  0
  186.3820  177.0220  136.4580 C   0  0  2  0  0  3  0  0  0  0  0  0
  184.5180  175.5760  136.9020 O   0  0  0  0  0  0  0  0  0  0  0  0
  184.2080  177.7880  137.4080 O   0  0  0  0  0  1  0  0  0  0  0  0
  184.9940  176.7420  136.9420 C   0  0  0  0  0  0  0  0  0  0  0  0
  187.1390  175.7400  136.0880 C   0  0  0  0  0  2  0  0  0  0  0  0
  188.7590  176.8390  134.7250 O   0  0  0  0  0  0  0  0  0  0  0  0
  189.6210  175.2600  136.2190 N   0  0  0  0  0  2  0  0  0  0  0  0
  188.5420  175.9960  135.6360 C   0  0  0  0  0  0  0  0  0  0  0  0
  191.0100  175.4660  135.8330 C   0  0  0  0  0  2  0  0  0  0  0  0
  193.2970  175.9070  136.6630 C   0  0  0  0  0  1  0  0  0  0  0  0
  191.5960  175.1120  138.1160 O   0  0  0  0  0  1  0  0  0  0  0  0
  191.8260  175.9460  137.0210 C   0  0  2  0  0  3  0  0  0  0  0  0
  192.1830  175.0420  146.3710 O   0  0  0  0  0  0  0  0  0  0  0  0
  192.7270  175.4700  148.5550 O   0  0  0  0  0  1  0  0  0  0  0  0
  192.0320  175.7650  147.5490 C   0  0  0  0  0  0  0  0  0  0  0  0
  186.1420  178.4060  144.8850 C   0  0  0  0  0  2  0  0  0  0  0  0
  186.4910  179.4130  147.0160 O   0  0  0  0  0  1  0  0  0  0  0  0
  184.5220  178.2620  146.7770 O   0  0  0  0  0  0  0  0  0  0  0  0
  185.7380  178.7190  146.2850 C   0  0  0  0  0  0  0  0  0  0  0  0
  1 39  1  1  0  0  0
  1  3  1  0  0  0  0
  2  1  1  0  0  0  0
  6 12  1  0  0  0  0
  7  2  1  1  0  0  0
  7 14  1  0  0  0  0
  8 12  1  0  0  0  0
  9  3  1  0  0  0  0
  9  6  1  1  0  0  0
 10  4  1  6  0  0  0
 10  9  1  0  0  0  0
 10  8  1  0  0  0  0
 11 16  1  0  0  0  0
 12 38  1  6  0  0  0
 13  5  1  6  0  0  0
 13 15  1  0  0  0  0
 13  7  1  0  0  0  0
 14  4  1  0  0  0  0
 15 17  1  6  0  0  0
 15 11  1  0  0  0  0
 16  4  2  0  0  0  0
 18 19  1  0  0  0  0
 21 20  1  0  0  0  0
 21 18  1  0  0  0  0
 22 20  1  6  0  0  0
 22 19  1  0  0  0  0
 22 13  1  0  0  0  0
 23 21  1  0  0  0  0
 24 28  1  1  0  0  0
 24 27  1  0  0  0  0
 24 23  1  0  0  0  0
 25 27  2  0  0  0  0
 27 26  1  0  0  0  0
 29 31  2  0  0  0  0
 31 28  1  0  0  0  0
 31 30  1  0  0  0  0
 32 30  1  0  0  0  0
 32 35  1  0  0  0  0
 35 33  1  6  0  0  0
 35 34  1  0  0  0  0
 36 38  2  0  0  0  0
 38 37  1  0  0  0  0
 39 42  1  0  0  0  0
 42 41  2  0  0  0  0
 42 40  1  0  0  0  0
M  END
>  <MODEL>
3

>  <REMARK>
 VINA RESULT:      -6.5      2.368      9.991
  Name = 
  11 active torsions:
  status: ('A' for Active; 'I' for Inactive)
    1  A    between atoms: C_3  and  N_18
    2  A    between atoms: C_3  and  C_40
    3  A    between atoms: C_4  and  C_13
    4  A    between atoms: C_13  and  C_33
    5  A    between atoms: N_14  and  C_32
    6  A    between atoms: C_20  and  C_30
    7  A    between atoms: C_20  and  C_38
    8  A    between atoms: C_24  and  C_38
    9  A    between atoms: C_25  and  C_34
   10  A    between atoms: C_32  and  C_38
   11  A    between atoms: C_35  and  C_39
                            x       y       z     vdW  Elec       q    Type
                         _______ _______ _______ _____ _____    ______ ____

>  <TORSDO>
F 11

$$$$
=
 OpenBabel11062413153D

 42 45  0  0  1  0  0  0  0  0999 V2000
  187.5830  177.8310  144.7770 C   0  0  2  0  0  3  0  0  0  0  0  0
  187.8960  176.7630  143.3200 S   0  0  0  0  0  0  0  0  0  0  0  0
  187.9140  177.2110  146.0030 O   0  0  0  0  0  0  0  0  0  0  0  0
  190.6510  178.0500  144.3710 C   0  0  0  0  0  0  0  0  0  0  0  0
  189.8410  175.9340  141.1800 C   0  0  0  0  0  1  0  0  0  0  0  0
  189.6460  176.3710  147.3870 C   0  0  0  0  0  2  0  0  0  0  0  0
  189.0460  177.9720  142.5180 C   0  0  2  0  0  3  0  0  0  0  0  0
  191.3470  177.9050  146.6650 O   0  0  0  0  0  0  0  0  0  0  0  0
  189.2840  176.8620  146.0270 C   0  0  2  0  0  3  0  0  0  0  0  0
  190.2340  178.0350  145.8130 C   0  0  2  0  0  3  0  0  0  0  0  0
  192.1490  177.1780  142.5230 C   0  0  0  0  0  2  0  0  0  0  0  0
  191.0380  176.9210  147.6240 C   0  0  2  0  0  3  0  0  0  0  0  0
  189.8720  177.4640  141.2960 C   0  0  1  0  0  0  0  0  0  0  0  0
  189.8160  178.7020  143.4710 O   0  0  0  0  0  0  0  0  0  0  0  0
  191.3530  177.9360  141.4490 C   0  0  2  0  0  3  0  0  0  0  0  0
  191.7030  177.3420  143.9520 C   0  0  0  0  0  3  0  0  0  0  0  0
  192.0600  177.8510  140.2480 O   0  0  0  0  0  1  0  0  0  0  0  0
  186.8330  178.0740  139.7890 C   0  0  0  0  0  2  0  0  0  0  0  0
  187.9740  178.9000  140.3350 C   0  0  0  0  0  2  0  0  0  0  0  0
  188.7990  177.0990  138.9600 C   0  0  0  0  0  2  0  0  0  0  0  0
  187.3570  177.1870  138.7560 N   0  0  0  0  0  0  0  0  0  0  0  0
  189.2250  178.1020  140.0310 C   0  0  2  0  0  3  0  0  0  0  0  0
  187.1570  177.8300  137.4630 C   0  0  0  0  0  2  0  0  0  0  0  0
  186.7080  176.8140  136.4150 C   0  0  2  0  0  3  0  0  0  0  0  0
  187.7500  175.6490  134.5940 O   0  0  0  0  0  0  0  0  0  0  0  0
  188.6040  177.7190  135.0720 O   0  0  0  0  0  1  0  0  0  0  0  0
  187.7010  176.6890  135.3030 C   0  0  0  0  0  0  0  0  0  0  0  0
  185.2890  177.0860  135.9010 C   0  0  0  0  0  2  0  0  0  0  0  0
  184.1730  175.7430  137.5260 O   0  0  0  0  0  0  0  0  0  0  0  0
  183.2880  177.8860  137.2290 N   0  0  0  0  0  2  0  0  0  0  0  0
  184.2350  176.8550  136.9370 C   0  0  0  0  0  0  0  0  0  0  0  0
  182.2420  177.7310  138.2310 C   0  0  0  0  0  2  0  0  0  0  0  0
  183.4800  179.6380  139.2030 C   0  0  0  0  0  1  0  0  0  0  0  0
  183.3850  177.5420  140.3150 O   0  0  0  0  0  1  0  0  0  0  0  0
  182.6410  178.4200  139.5250 C   0  0  2  0  0  3  0  0  0  0  0  0
  192.1870  175.0480  146.4220 O   0  0  0  0  0  0  0  0  0  0  0  0
  192.7850  175.6020  148.5640 O   0  0  0  0  0  1  0  0  0  0  0  0
  192.0480  175.8230  147.5680 C   0  0  0  0  0  0  0  0  0  0  0  0
  186.1300  178.2740  144.7850 C   0  0  0  0  0  2  0  0  0  0  0  0
  184.5200  178.4490  146.5310 O   0  0  0  0  0  0  0  0  0  0  0  0
  186.6340  179.1620  147.0610 O   0  0  0  0  0  1  0  0  0  0  0  0
  185.7090  178.6370  146.1670 C   0  0  0  0  0  0  0  0  0  0  0  0
  1 39  1  1  0  0  0
  1  3  1  0  0  0  0
  2  1  1  0  0  0  0
  3  9  1  0  0  0  0
  6 12  1  0  0  0  0
  7  2  1  1  0  0  0
  7 14  1  0  0  0  0
  8 12  1  0  0  0  0
  9  6  1  1  0  0  0
 10  4  1  6  0  0  0
 10  9  1  0  0  0  0
 10  8  1  0  0  0  0
 11 16  1  0  0  0  0
 12 38  1  6  0  0  0
 13  5  1  6  0  0  0
 13 15  1  0  0  0  0
 13  7  1  0  0  0  0
 14  4  1  0  0  0  0
 15 17  1  6  0  0  0
 15 11  1  0  0  0  0
 16  4  2  0  0  0  0
 18 19  1  0  0  0  0
 21 20  1  0  0  0  0
 21 18  1  0  0  0  0
 22 20  1  6  0  0  0
 22 19  1  0  0  0  0
 22 13  1  0  0  0  0
 23 21  1  0  0  0  0
 24 28  1  6  0  0  0
 24 23  1  0  0  0  0
 25 27  2  0  0  0  0
 26 27  1  0  0  0  0
 27 24  1  0  0  0  0
 28 31  1  0  0  0  0
 30 32  1  0  0  0  0
 31 30  1  0  0  0  0
 31 29  2  0  0  0  0
 32 35  1  0  0  0  0
 35 33  1  6  0  0  0
 35 34  1  0  0  0  0
 36 38  2  0  0  0  0
 38 37  1  0  0  0  0
 39 42  1  0  0  0  0
 42 40  2  0  0  0  0
 42 41  1  0  0  0  0
M  END
>  <MODEL>
4

>  <REMARK>
 VINA RESULT:      -6.5      2.857      9.511
  Name = 
  11 active torsions:
  status: ('A' for Active; 'I' for Inactive)
    1  A    between atoms: C_3  and  N_18
    2  A    between atoms: C_3  and  C_40
    3  A    between atoms: C_4  and  C_13
    4  A    between atoms: C_13  and  C_33
    5  A    between atoms: N_14  and  C_32
    6  A    between atoms: C_20  and  C_30
    7  A    between atoms: C_20  and  C_38
    8  A    between atoms: C_24  and  C_38
    9  A    between atoms: C_25  and  C_34
   10  A    between atoms: C_32  and  C_38
   11  A    between atoms: C_35  and  C_39
                            x       y       z     vdW  Elec       q    Type
                         _______ _______ _______ _____ _____    ______ ____

>  <TORSDO>
F 11

$$$$
=
 OpenBabel11062413153D

 42 45  0  0  1  0  0  0  0  0999 V2000
  190.1100  176.8040  144.2090 C   0  0  2  0  0  3  0  0  0  0  0  0
  190.1800  178.2150  143.0400 S   0  0  0  0  0  0  0  0  0  0  0  0
  189.6970  177.1780  145.5080 O   0  0  0  0  0  0  0  0  0  0  0  0
  187.1380  177.2440  143.4340 C   0  0  0  0  0  0  0  0  0  0  0  0
  188.7210  179.8480  140.9770 C   0  0  0  0  0  1  0  0  0  0  0  0
  187.9240  177.9810  146.8630 C   0  0  0  0  0  2  0  0  0  0  0  0
  188.9940  177.4490  141.8430 C   0  0  2  0  0  3  0  0  0  0  0  0
  186.1390  176.9870  145.6020 O   0  0  0  0  0  0  0  0  0  0  0  0
  188.4070  177.7560  145.4710 C   0  0  2  0  0  3  0  0  0  0  0  0
  187.3340  176.8550  144.8700 C   0  0  2  0  0  3  0  0  0  0  0  0
  186.0780  178.7700  141.7100 C   0  0  0  0  0  2  0  0  0  0  0  0
  186.4470  177.6540  146.8040 C   0  0  2  0  0  3  0  0  0  0  0  0
  188.4440  178.3630  140.7040 C   0  0  1  0  0  0  0  0  0  0  0  0
  187.9890  176.6730  142.4950 O   0  0  0  0  0  0  0  0  0  0  0  0
  186.9030  178.1450  140.5740 C   0  0  2  0  0  3  0  0  0  0  0  0
  186.2780  178.2070  143.0930 C   0  0  0  0  0  3  0  0  0  0  0  0
  186.4030  178.6280  139.3640 O   0  0  0  0  0  1  0  0  0  0  0  0
  188.1120  178.3190  137.2740 C   0  0  0  0  0  2  0  0  0  0  0  0
  189.0560  178.9370  138.2780 C   0  0  0  0  0  2  0  0  0  0  0  0
  188.6520  176.6160  138.7950 C   0  0  0  0  0  2  0  0  0  0  0  0
  188.1210  176.8720  137.4600 N   0  0  0  0  0  0  0  0  0  0  0  0
  189.1680  177.9230  139.3970 C   0  0  2  0  0  3  0  0  0  0  0  0
  189.0740  176.3000  136.5160 C   0  0  0  0  0  2  0  0  0  0  0  0
  188.6310  174.9070  136.0750 C   0  0  2  0  0  3  0  0  0  0  0  0
  186.3880  175.3000  135.3180 O   0  0  0  0  0  0  0  0  0  0  0  0
  186.5940  174.0060  137.1950 O   0  0  0  0  0  1  0  0  0  0  0  0
  187.1450  174.7460  136.1580 C   0  0  0  0  0  0  0  0  0  0  0  0
  189.3800  173.7900  136.8130 C   0  0  0  0  0  2  0  0  0  0  0  0
  191.3840  173.4610  135.5620 O   0  0  0  0  0  0  0  0  0  0  0  0
  191.6810  174.3560  137.7020 N   0  0  0  0  0  2  0  0  0  0  0  0
  190.8640  173.8620  136.6380 C   0  0  0  0  0  0  0  0  0  0  0  0
  193.1300  174.4620  137.5940 C   0  0  0  0  0  2  0  0  0  0  0  0
  192.4430  176.6130  138.6010 C   0  0  0  0  0  1  0  0  0  0  0  0
  193.9820  176.5400  136.7950 O   0  0  0  0  0  1  0  0  0  0  0  0
  193.5880  175.8650  137.9520 C   0  0  2  0  0  3  0  0  0  0  0  0
  186.0560  179.9520  147.7200 O   0  0  0  0  0  1  0  0  0  0  0  0
  184.5580  179.0030  146.2680 O   0  0  0  0  0  0  0  0  0  0  0  0
  185.6330  178.9000  146.9150 C   0  0  0  0  0  0  0  0  0  0  0  0
  191.4620  176.1150  144.2630 C   0  0  0  0  0  2  0  0  0  0  0  0
  192.2250  174.8770  146.1500 O   0  0  0  0  0  0  0  0  0  0  0  0
  192.0540  177.1430  146.4590 O   0  0  0  0  0  1  0  0  0  0  0  0
  191.9270  176.0030  145.6740 C   0  0  0  0  0  0  0  0  0  0  0  0
  1 39  1  1  0  0  0
  1  3  1  0  0  0  0
  2  1  1  0  0  0  0
  7 14  1  1  0  0  0
  7  2  1  0  0  0  0
  8 12  1  0  0  0  0
  9  3  1  0  0  0  0
  9  6  1  1  0  0  0
 10  4  1  6  0  0  0
 10  9  1  0  0  0  0
 10  8  1  0  0  0  0
 11 16  1  0  0  0  0
 12  6  1  0  0  0  0
 12 38  1  6  0  0  0
 13  5  1  1  0  0  0
 13  7  1  0  0  0  0
 14  4  1  0  0  0  0
 15 17  1  6  0  0  0
 15 13  1  0  0  0  0
 15 11  1  0  0  0  0
 16  4  2  0  0  0  0
 18 21  1  0  0  0  0
 18 19  1  0  0  0  0
 20 22  1  0  0  0  0
 21 20  1  0  0  0  0
 22 19  1  6  0  0  0
 22 13  1  0  0  0  0
 23 21  1  0  0  0  0
 24 27  1  0  0  0  0
 24 23  1  1  0  0  0
 24 28  1  0  0  0  0
 25 27  2  0  0  0  0
 27 26  1  0  0  0  0
 29 31  2  0  0  0  0
 31 28  1  0  0  0  0
 31 30  1  0  0  0  0
 32 30  1  0  0  0  0
 32 35  1  0  0  0  0
 34 35  1  0  0  0  0
 35 33  1  6  0  0  0
 37 38  2  0  0  0  0
 38 36  1  0  0  0  0
 39 42  1  0  0  0  0
 42 40  2  0  0  0  0
 42 41  1  0  0  0  0
M  END
>  <MODEL>
5

>  <REMARK>
 VINA RESULT:      -6.4      2.570      9.176
  Name = 
  11 active torsions:
  status: ('A' for Active; 'I' for Inactive)
    1  A    between atoms: C_3  and  N_18
    2  A    between atoms: C_3  and  C_40
    3  A    between atoms: C_4  and  C_13
    4  A    between atoms: C_13  and  C_33
    5  A    between atoms: N_14  and  C_32
    6  A    between atoms: C_20  and  C_30
    7  A    between atoms: C_20  and  C_38
    8  A    between atoms: C_24  and  C_38
    9  A    between atoms: C_25  and  C_34
   10  A    between atoms: C_32  and  C_38
   11  A    between atoms: C_35  and  C_39
                            x       y       z     vdW  Elec       q    Type
                         _______ _______ _______ _____ _____    ______ ____

>  <TORSDO>
F 11

$$$$
=
 OpenBabel11062413153D

 42 45  0  0  1  0  0  0  0  0999 V2000
  190.0950  176.7300  144.3140 C   0  0  2  0  0  3  0  0  0  0  0  0
  190.2130  178.1210  143.1250 S   0  0  0  0  0  0  0  0  0  0  0  0
  189.6850  177.1350  145.6050 O   0  0  0  0  0  0  0  0  0  0  0  0
  187.1430  177.2420  143.5120 C   0  0  0  0  0  0  0  0  0  0  0  0
  188.8150  179.7630  141.0280 C   0  0  0  0  0  1  0  0  0  0  0  0
  187.9270  178.0070  146.9350 C   0  0  0  0  0  2  0  0  0  0  0  0
  189.0140  177.3710  141.9310 C   0  0  2  0  0  3  0  0  0  0  0  0
  186.1220  177.0450  145.6760 O   0  0  0  0  0  0  0  0  0  0  0  0
  188.4120  177.7480  145.5500 C   0  0  2  0  0  3  0  0  0  0  0  0
  187.3180  176.8680  144.9550 C   0  0  2  0  0  3  0  0  0  0  0  0
  186.1380  178.7720  141.7590 C   0  0  0  0  0  2  0  0  0  0  0  0
  186.4410  177.7210  146.8710 C   0  0  2  0  0  3  0  0  0  0  0  0
  188.4980  178.2830  140.7750 C   0  0  1  0  0  0  0  0  0  0  0  0
  187.9840  176.6340  142.5870 O   0  0  0  0  0  0  0  0  0  0  0  0
  186.9520  178.1070  140.6380 C   0  0  2  0  0  3  0  0  0  0  0  0
  186.3130  178.2240  143.1510 C   0  0  0  0  0  3  0  0  0  0  0  0
  186.4740  178.5860  139.4170 O   0  0  0  0  0  1  0  0  0  0  0  0
  188.4620  178.6080  137.3450 C   0  0  0  0  0  2  0  0  0  0  0  0
  189.4280  178.9090  138.4660 C   0  0  0  0  0  2  0  0  0  0  0  0
  188.4820  176.7040  138.7140 C   0  0  0  0  0  2  0  0  0  0  0  0
  188.1380  177.1860  137.3810 N   0  0  0  0  0  0  0  0  0  0  0  0
  189.2180  177.8030  139.4800 C   0  0  2  0  0  3  0  0  0  0  0  0
  189.0200  176.4960  136.4480 C   0  0  0  0  0  2  0  0  0  0  0  0
  189.2040  175.0360  136.8550 C   0  0  2  0  0  3  0  0  0  0  0  0
  191.2950  174.6340  137.9610 O   0  0  0  0  0  1  0  0  0  0  0  0
  191.2930  174.3280  135.6920 O   0  0  0  0  0  0  0  0  0  0  0  0
  190.6490  174.6460  136.8800 C   0  0  0  0  0  0  0  0  0  0  0  0
  188.3570  174.0770  136.0090 C   0  0  0  0  0  2  0  0  0  0  0  0
  187.7670  172.0860  137.1830 O   0  0  0  0  0  0  0  0  0  0  0  0
  186.1290  173.7550  137.1670 N   0  0  0  0  0  2  0  0  0  0  0  0
  187.4200  173.2440  136.8250 C   0  0  0  0  0  0  0  0  0  0  0  0
  185.1730  173.0020  137.9670 C   0  0  0  0  0  2  0  0  0  0  0  0
  184.1910  171.4590  136.3030 C   0  0  0  0  0  1  0  0  0  0  0  0
  183.6280  173.7650  136.3200 O   0  0  0  0  0  1  0  0  0  0  0  0
  183.9310  172.6850  137.1510 C   0  0  2  0  0  3  0  0  0  0  0  0
  184.5000  179.1600  146.2120 O   0  0  0  0  0  0  0  0  0  0  0  0
  186.0550  179.9140  147.7170 O   0  0  0  0  0  1  0  0  0  0  0  0
  185.6620  178.9910  146.9580 C   0  0  0  0  0  0  0  0  0  0  0  0
  191.4270  176.0040  144.3880 C   0  0  0  0  0  2  0  0  0  0  0  0
  192.2920  174.9010  146.3140 O   0  0  0  0  0  0  0  0  0  0  0  0
  192.0130  177.1690  146.5160 O   0  0  0  0  0  1  0  0  0  0  0  0
  191.9280  175.9860  145.7910 C   0  0  0  0  0  0  0  0  0  0  0  0
  1 39  1  1  0  0  0
  1  3  1  0  0  0  0
  2  1  1  0  0  0  0
  7 14  1  1  0  0  0
  7  2  1  0  0  0  0
  8 12  1  0  0  0  0
  9  3  1  0  0  0  0
  9  6  1  1  0  0  0
 10  4  1  6  0  0  0
 10  9  1  0  0  0  0
 10  8  1  0  0  0  0
 11 16  1  0  0  0  0
 12  6  1  0  0  0  0
 12 38  1  6  0  0  0
 13  5  1  1  0  0  0
 13  7  1  0  0  0  0
 14  4  1  0  0  0  0
 15 17  1  6  0  0  0
 15 13  1  0  0  0  0
 15 11  1  0  0  0  0
 16  4  2  0  0  0  0
 18 21  1  0  0  0  0
 18 19  1  0  0  0  0
 20 22  1  0  0  0  0
 21 20  1  0  0  0  0
 22 19  1  6  0  0  0
 22 13  1  0  0  0  0
 23 24  1  0  0  0  0
 23 21  1  0  0  0  0
 24 28  1  6  0  0  0
 24 27  1  0  0  0  0
 26 27  2  0  0  0  0
 27 25  1  0  0  0  0
 28 31  1  0  0  0  0
 30 32  1  0  0  0  0
 31 30  1  0  0  0  0
 31 29  2  0  0  0  0
 34 35  1  0  0  0  0
 35 33  1  6  0  0  0
 35 32  1  0  0  0  0
 36 38  2  0  0  0  0
 38 37  1  0  0  0  0
 39 42  1  0  0  0  0
 42 40  2  0  0  0  0
 42 41  1  0  0  0  0
M  END
>  <MODEL>
6

>  <REMARK>
 VINA RESULT:      -6.4      2.979      8.842
  Name = 
  11 active torsions:
  status: ('A' for Active; 'I' for Inactive)
    1  A    between atoms: C_3  and  N_18
    2  A    between atoms: C_3  and  C_40
    3  A    between atoms: C_4  and  C_13
    4  A    between atoms: C_13  and  C_33
    5  A    between atoms: N_14  and  C_32
    6  A    between atoms: C_20  and  C_30
    7  A    between atoms: C_20  and  C_38
    8  A    between atoms: C_24  and  C_38
    9  A    between atoms: C_25  and  C_34
   10  A    between atoms: C_32  and  C_38
   11  A    between atoms: C_35  and  C_39
                            x       y       z     vdW  Elec       q    Type
                         _______ _______ _______ _____ _____    ______ ____

>  <TORSDO>
F 11

$$$$
=
 OpenBabel11062413153D

 42 45  0  0  1  0  0  0  0  0999 V2000
  190.2130  177.0040  144.2840 C   0  0  2  0  0  3  0  0  0  0  0  0
  190.2280  178.4410  143.1450 S   0  0  0  0  0  0  0  0  0  0  0  0
  189.7050  177.3160  145.5660 O   0  0  0  0  0  0  0  0  0  0  0  0
  187.2590  177.2220  143.3610 C   0  0  0  0  0  0  0  0  0  0  0  0
  188.7480  179.9960  141.0370 C   0  0  0  0  0  1  0  0  0  0  0  0
  187.8070  177.9450  146.8390 C   0  0  0  0  0  2  0  0  0  0  0  0
  189.1700  177.6090  141.8740 C   0  0  2  0  0  3  0  0  0  0  0  0
  186.1740  176.8390  145.4690 O   0  0  0  0  0  0  0  0  0  0  0  0
  188.3760  177.7890  145.4710 C   0  0  2  0  0  3  0  0  0  0  0  0
  187.4120  176.8190  144.7990 C   0  0  2  0  0  3  0  0  0  0  0  0
  186.1680  178.6960  141.6110 C   0  0  0  0  0  2  0  0  0  0  0  0
  186.3660  177.5030  146.6970 C   0  0  2  0  0  3  0  0  0  0  0  0
  188.6060  178.5010  140.7230 C   0  0  1  0  0  0  0  0  0  0  0  0
  188.2000  176.7420  142.4580 O   0  0  0  0  0  0  0  0  0  0  0  0
  187.0970  178.1630  140.5090 C   0  0  2  0  0  3  0  0  0  0  0  0
  186.3420  178.1200  142.9930 C   0  0  0  0  0  3  0  0  0  0  0  0
  186.6210  178.6310  139.2830 O   0  0  0  0  0  1  0  0  0  0  0  0
  189.3530  175.9080  138.5800 C   0  0  0  0  0  2  0  0  0  0  0  0
  188.6810  177.2570  138.4800 C   0  0  0  0  0  2  0  0  0  0  0  0
  190.7410  177.4140  139.7240 C   0  0  0  0  0  2  0  0  0  0  0  0
  190.7070  176.1020  139.0870 N   0  0  0  0  0  0  0  0  0  0  0  0
  189.4290  178.1480  139.4490 C   0  0  2  0  0  3  0  0  0  0  0  0
  191.6120  176.1690  137.9450 C   0  0  0  0  0  2  0  0  0  0  0  0
  191.1950  175.1750  136.8630 C   0  0  2  0  0  3  0  0  0  0  0  0
  193.0880  173.8880  137.5850 O   0  0  0  0  0  1  0  0  0  0  0  0
  191.6710  172.8430  136.1210 O   0  0  0  0  0  0  0  0  0  0  0  0
  192.0360  173.9370  136.8930 C   0  0  0  0  0  0  0  0  0  0  0  0
  191.1430  175.8100  135.4680 C   0  0  0  0  0  2  0  0  0  0  0  0
  189.6460  177.5040  134.7050 O   0  0  0  0  0  0  0  0  0  0  0  0
  188.6470  175.4570  135.2360 N   0  0  0  0  0  2  0  0  0  0  0  0
  189.7830  176.3150  135.1030 C   0  0  0  0  0  0  0  0  0  0  0  0
  187.2980  175.8820  134.8900 C   0  0  0  0  0  2  0  0  0  0  0  0
  185.6500  176.2900  136.6870 C   0  0  0  0  0  1  0  0  0  0  0  0
  186.9200  174.2850  136.6200 O   0  0  0  0  0  1  0  0  0  0  0  0
  186.2820  175.2290  135.8120 C   0  0  2  0  0  3  0  0  0  0  0  0
  184.1810  178.6290  146.2180 O   0  0  0  0  0  0  0  0  0  0  0  0
  185.8230  179.7170  147.3890 O   0  0  0  0  0  1  0  0  0  0  0  0
  185.4480  178.6770  146.7870 C   0  0  0  0  0  0  0  0  0  0  0  0
  191.6110  176.4250  144.3970 C   0  0  0  0  0  2  0  0  0  0  0  0
  192.0880  174.9070  146.1700 O   0  0  0  0  0  0  0  0  0  0  0  0
  192.0550  177.1260  146.7500 O   0  0  0  0  0  1  0  0  0  0  0  0
  191.9240  176.1040  145.8170 C   0  0  0  0  0  0  0  0  0  0  0  0
  1 39  1  1  0  0  0
  1  3  1  0  0  0  0
  2  1  1  0  0  0  0
  7 14  1  1  0  0  0
  7  2  1  0  0  0  0
  8 12  1  0  0  0  0
  9  3  1  0  0  0  0
  9  6  1  1  0  0  0
 10  4  1  6  0  0  0
 10  8  1  0  0  0  0
 10  9  1  0  0  0  0
 11 16  1  0  0  0  0
 12 38  1  6  0  0  0
 12  6  1  0  0  0  0
 13  5  1  1  0  0  0
 13  7  1  0  0  0  0
 14  4  1  0  0  0  0
 15 17  1  6  0  0  0
 15 13  1  0  0  0  0
 15 11  1  0  0  0  0
 16  4  2  0  0  0  0
 18 21  1  0  0  0  0
 19 18  1  0  0  0  0
 21 20  1  0  0  0  0
 22 19  1  6  0  0  0
 22 20  1  0  0  0  0
 22 13  1  0  0  0  0
 23 21  1  0  0  0  0
 24 28  1  6  0  0  0
 24 27  1  0  0  0  0
 24 23  1  0  0  0  0
 26 27  2  0  0  0  0
 27 25  1  0  0  0  0
 29 31  2  0  0  0  0
 31 30  1  0  0  0  0
 31 28  1  0  0  0  0
 32 30  1  0  0  0  0
 32 35  1  0  0  0  0
 35 34  1  0  0  0  0
 35 33  1  1  0  0  0
 36 38  2  0  0  0  0
 38 37  1  0  0  0  0
 39 42  1  0  0  0  0
 42 40  2  0  0  0  0
 42 41  1  0  0  0  0
M  END
>  <MODEL>
7

>  <REMARK>
 VINA RESULT:      -6.4      2.465      8.783
  Name = 
  11 active torsions:
  status: ('A' for Active; 'I' for Inactive)
    1  A    between atoms: C_3  and  N_18
    2  A    between atoms: C_3  and  C_40
    3  A    between atoms: C_4  and  C_13
    4  A    between atoms: C_13  and  C_33
    5  A    between atoms: N_14  and  C_32
    6  A    between atoms: C_20  and  C_30
    7  A    between atoms: C_20  and  C_38
    8  A    between atoms: C_24  and  C_38
    9  A    between atoms: C_25  and  C_34
   10  A    between atoms: C_32  and  C_38
   11  A    between atoms: C_35  and  C_39
                            x       y       z     vdW  Elec       q    Type
                         _______ _______ _______ _____ _____    ______ ____

>  <TORSDO>
F 11

$$$$
=
 OpenBabel11062413153D

 42 45  0  0  1  0  0  0  0  0999 V2000
  187.5230  173.1650  136.0800 C   0  0  2  0  0  3  0  0  0  0  0  0
  187.0820  174.5940  135.0190 S   0  0  0  0  0  0  0  0  0  0  0  0
  188.7470  172.5580  135.7150 O   0  0  0  0  0  0  0  0  0  0  0  0
  189.3020  175.4560  137.1800 C   0  0  0  0  0  0  0  0  0  0  0  0
  187.2380  177.5700  134.6130 C   0  0  0  0  0  1  0  0  0  0  0  0
  191.1030  172.7860  135.5830 C   0  0  0  0  0  2  0  0  0  0  0  0
  186.9880  175.7820  136.4350 C   0  0  2  0  0  3  0  0  0  0  0  0
  191.3480  174.2360  137.4820 O   0  0  0  0  0  0  0  0  0  0  0  0
  189.8070  173.4890  135.8030 C   0  0  2  0  0  3  0  0  0  0  0  0
  189.9780  174.1160  137.1820 C   0  0  2  0  0  3  0  0  0  0  0  0
  189.3580  177.9290  136.6270 C   0  0  0  0  0  2  0  0  0  0  0  0
  192.0580  173.4530  136.5500 C   0  0  2  0  0  3  0  0  0  0  0  0
  186.8920  177.3000  136.0830 C   0  0  1  0  0  0  0  0  0  0  0  0
  187.9400  175.4860  137.4550 O   0  0  0  0  0  0  0  0  0  0  0  0
  187.8770  178.0980  136.9960 C   0  0  2  0  0  3  0  0  0  0  0  0
  189.9530  176.5540  136.7880 C   0  0  0  0  0  3  0  0  0  0  0  0
  187.5900  179.4640  137.0120 O   0  0  0  0  0  1  0  0  0  0  0  0
  184.0340  176.3240  137.7430 C   0  0  0  0  0  2  0  0  0  0  0  0
  184.9940  177.4890  137.8000 C   0  0  0  0  0  2  0  0  0  0  0  0
  184.3760  176.9970  135.5210 C   0  0  0  0  0  2  0  0  0  0  0  0
  183.4800  176.2470  136.3950 N   0  0  0  0  0  0  0  0  0  0  0  0
  185.4210  177.7250  136.3660 C   0  0  2  0  0  3  0  0  0  0  0  0
  182.2040  176.9530  136.3890 C   0  0  0  0  0  2  0  0  0  0  0  0
  181.6600  177.1020  137.8080 C   0  0  2  0  0  3  0  0  0  0  0  0
  179.4330  176.2410  137.5720 O   0  0  0  0  0  0  0  0  0  0  0  0
  180.8140  175.0650  138.9690 O   0  0  0  0  0  1  0  0  0  0  0  0
  180.5730  176.1140  138.0920 C   0  0  0  0  0  0  0  0  0  0  0  0
  181.2370  178.5410  138.1280 C   0  0  0  0  0  2  0  0  0  0  0  0
  180.7420  179.7930  140.0970 O   0  0  0  0  0  0  0  0  0  0  0  0
  182.5390  178.3090  140.2870 N   0  0  0  0  0  2  0  0  0  0  0  0
  181.4710  178.9190  139.5570 C   0  0  0  0  0  0  0  0  0  0  0  0
  182.8160  178.6230  141.6820 C   0  0  0  0  0  2  0  0  0  0  0  0
  184.5390  178.6940  143.4540 C   0  0  0  0  0  1  0  0  0  0  0  0
  185.0230  179.4130  141.2430 O   0  0  0  0  0  1  0  0  0  0  0  0
  184.2990  178.4700  141.9760 C   0  0  2  0  0  3  0  0  0  0  0  0
  193.7050  175.3380  136.4610 O   0  0  0  0  0  1  0  0  0  0  0  0
  193.2600  174.0870  134.5940 O   0  0  0  0  0  0  0  0  0  0  0  0
  193.0360  174.3070  135.8120 C   0  0  0  0  0  0  0  0  0  0  0  0
  186.4000  172.1430  136.0580 C   0  0  0  0  0  2  0  0  0  0  0  0
  185.5060  172.9850  138.0990 O   0  0  0  0  0  1  0  0  0  0  0  0
  183.9770  172.6010  136.4340 O   0  0  0  0  0  0  0  0  0  0  0  0
  185.2760  172.5930  136.9260 C   0  0  0  0  0  0  0  0  0  0  0  0
  1 39  1  6  0  0  0
  2  1  1  0  0  0  0
  3  9  1  0  0  0  0
  3  1  1  0  0  0  0
  4 14  1  0  0  0  0
  6 12  1  0  0  0  0
  7  2  1  6  0  0  0
  7 14  1  0  0  0  0
  9  6  1  1  0  0  0
  9 10  1  0  0  0  0
 10  4  1  6  0  0  0
 10  8  1  0  0  0  0
 11 16  1  0  0  0  0
 11 15  1  0  0  0  0
 12 38  1  6  0  0  0
 12  8  1  0  0  0  0
 13  5  1  6  0  0  0
 13 22  1  0  0  0  0
 13  7  1  0  0  0  0
 13 15  1  0  0  0  0
 15 17  1  6  0  0  0
 16  4  2  0  0  0  0
 18 19  1  0  0  0  0
 20 21  1  0  0  0  0
 21 18  1  0  0  0  0
 22 20  1  6  0  0  0
 22 19  1  0  0  0  0
 23 21  1  0  0  0  0
 24 23  1  6  0  0  0
 24 27  1  0  0  0  0
 24 28  1  0  0  0  0
 25 27  2  0  0  0  0
 27 26  1  0  0  0  0
 28 31  1  0  0  0  0
 30 32  1  0  0  0  0
 31 29  2  0  0  0  0
 31 30  1  0  0  0  0
 32 35  1  0  0  0  0
 34 35  1  0  0  0  0
 35 33  1  1  0  0  0
 37 38  2  0  0  0  0
 38 36  1  0  0  0  0
 39 42  1  0  0  0  0
 41 42  2  0  0  0  0
 42 40  1  0  0  0  0
M  END
>  <MODEL>
8

>  <REMARK>
 VINA RESULT:      -6.1      5.033      8.290
  Name = 
  11 active torsions:
  status: ('A' for Active; 'I' for Inactive)
    1  A    between atoms: C_3  and  N_18
    2  A    between atoms: C_3  and  C_40
    3  A    between atoms: C_4  and  C_13
    4  A    between atoms: C_13  and  C_33
    5  A    between atoms: N_14  and  C_32
    6  A    between atoms: C_20  and  C_30
    7  A    between atoms: C_20  and  C_38
    8  A    between atoms: C_24  and  C_38
    9  A    between atoms: C_25  and  C_34
   10  A    between atoms: C_32  and  C_38
   11  A    between atoms: C_35  and  C_39
                            x       y       z     vdW  Elec       q    Type
                         _______ _______ _______ _____ _____    ______ ____

>  <TORSDO>
F 11

$$$$
=
 OpenBabel11062413153D

 42 45  0  0  1  0  0  0  0  0999 V2000
  190.2770  176.9700  144.7270 C   0  0  2  0  0  3  0  0  0  0  0  0
  190.4190  178.4060  143.5960 S   0  0  0  0  0  0  0  0  0  0  0  0
  189.6460  177.2870  145.9520 O   0  0  0  0  0  0  0  0  0  0  0  0
  187.4330  177.2130  143.5130 C   0  0  0  0  0  0  0  0  0  0  0  0
  189.1720  179.9730  141.3500 C   0  0  0  0  0  1  0  0  0  0  0  0
  187.6350  177.9340  147.0290 C   0  0  0  0  0  2  0  0  0  0  0  0
  189.4870  177.5820  142.2250 C   0  0  2  0  0  3  0  0  0  0  0  0
  186.1380  176.8410  145.5010 O   0  0  0  0  0  0  0  0  0  0  0  0
  188.3370  177.7720  145.7240 C   0  0  2  0  0  3  0  0  0  0  0  0
  187.4370  176.8090  144.9580 C   0  0  2  0  0  3  0  0  0  0  0  0
  186.5360  178.6950  141.6630 C   0  0  0  0  0  2  0  0  0  0  0  0
  186.2120  177.5030  146.7420 C   0  0  2  0  0  3  0  0  0  0  0  0
  189.0490  178.4790  141.0240 C   0  0  1  0  0  0  0  0  0  0  0  0
  188.4550  176.7240  142.7090 O   0  0  0  0  0  0  0  0  0  0  0  0
  187.5660  178.1540  140.6590 C   0  0  2  0  0  3  0  0  0  0  0  0
  186.5650  178.1190  143.0540 C   0  0  0  0  0  3  0  0  0  0  0  0
  187.2200  178.6250  139.3910 O   0  0  0  0  0  1  0  0  0  0  0  0
  189.3840  176.3320  138.3490 C   0  0  0  0  0  2  0  0  0  0  0  0
  189.2530  177.8230  138.5510 C   0  0  0  0  0  2  0  0  0  0  0  0
  190.8700  176.8890  140.0770 C   0  0  0  0  0  2  0  0  0  0  0  0
  190.5550  175.8670  139.0850 N   0  0  0  0  0  0  0  0  0  0  0  0
  189.9930  178.1180  139.8390 C   0  0  2  0  0  3  0  0  0  0  0  0
  191.6820  175.8210  138.1610 C   0  0  0  0  0  2  0  0  0  0  0  0
  191.2440  175.2880  136.7980 C   0  0  2  0  0  3  0  0  0  0  0  0
  191.8390  172.9810  136.5100 O   0  0  0  0  0  0  0  0  0  0  0  0
  189.6990  173.3780  137.2190 O   0  0  0  0  0  1  0  0  0  0  0  0
  190.9590  173.8200  136.8420 C   0  0  0  0  0  0  0  0  0  0  0  0
  192.2250  175.6580  135.6780 C   0  0  0  0  0  2  0  0  0  0  0  0
  194.0600  176.9800  136.4360 O   0  0  0  0  0  0  0  0  0  0  0  0
  194.4840  174.6860  136.2790 N   0  0  0  0  0  2  0  0  0  0  0  0
  193.6310  175.8270  136.1620 C   0  0  0  0  0  0  0  0  0  0  0  0
  195.8590  174.7790  136.7510 C   0  0  0  0  0  2  0  0  0  0  0  0
  195.0570  173.0220  138.2940 C   0  0  0  0  0  1  0  0  0  0  0  0
  195.6080  175.1920  139.0850 O   0  0  0  0  0  1  0  0  0  0  0  0
  195.9770  174.2170  138.1570 C   0  0  2  0  0  3  0  0  0  0  0  0
  185.6800  179.8720  147.3570 O   0  0  0  0  0  1  0  0  0  0  0  0
  184.1810  178.6100  146.1690 O   0  0  0  0  0  0  0  0  0  0  0  0
  185.3000  178.6860  146.7400 C   0  0  0  0  0  0  0  0  0  0  0  0
  191.6520  176.3790  144.9800 C   0  0  0  0  0  2  0  0  0  0  0  0
  191.1050  174.8450  143.2420 O   0  0  0  0  0  0  0  0  0  0  0  0
  192.7010  174.1300  144.7250 O   0  0  0  0  0  1  0  0  0  0  0  0
  191.7940  175.0780  144.2690 C   0  0  0  0  0  0  0  0  0  0  0  0
  1 39  1  1  0  0  0
  1  3  1  0  0  0  0
  2  1  1  0  0  0  0
  7 14  1  1  0  0  0
  7  2  1  0  0  0  0
  8 12  1  0  0  0  0
  9  3  1  0  0  0  0
  9  6  1  1  0  0  0
 10  4  1  6  0  0  0
 10  8  1  0  0  0  0
 10  9  1  0  0  0  0
 11 16  1  0  0  0  0
 12 38  1  6  0  0  0
 12  6  1  0  0  0  0
 13  5  1  1  0  0  0
 13  7  1  0  0  0  0
 14  4  1  0  0  0  0
 15 17  1  6  0  0  0
 15 13  1  0  0  0  0
 15 11  1  0  0  0  0
 16  4  2  0  0  0  0
 18 19  1  0  0  0  0
 18 21  1  0  0  0  0
 21 20  1  0  0  0  0
 22 19  1  6  0  0  0
 22 20  1  0  0  0  0
 22 13  1  0  0  0  0
 23 21  1  0  0  0  0
 24 28  1  6  0  0  0
 24 27  1  0  0  0  0
 24 23  1  0  0  0  0
 25 27  2  0  0  0  0
 27 26  1  0  0  0  0
 28 31  1  0  0  0  0
 30 32  1  0  0  0  0
 31 30  1  0  0  0  0
 31 29  2  0  0  0  0
 32 35  1  0  0  0  0
 35 33  1  6  0  0  0
 35 34  1  0  0  0  0
 37 38  2  0  0  0  0
 38 36  1  0  0  0  0
 40 42  2  0  0  0  0
 42 41  1  0  0  0  0
 42 39  1  0  0  0  0
M  END
>  <MODEL>
9

>  <REMARK>
 VINA RESULT:      -6.1      2.826      9.109
  Name = 
  11 active torsions:
  status: ('A' for Active; 'I' for Inactive)
    1  A    between atoms: C_3  and  N_18
    2  A    between atoms: C_3  and  C_40
    3  A    between atoms: C_4  and  C_13
    4  A    between atoms: C_13  and  C_33
    5  A    between atoms: N_14  and  C_32
    6  A    between atoms: C_20  and  C_30
    7  A    between atoms: C_20  and  C_38
    8  A    between atoms: C_24  and  C_38
    9  A    between atoms: C_25  and  C_34
   10  A    between atoms: C_32  and  C_38
   11  A    between atoms: C_35  and  C_39
                            x       y       z     vdW  Elec       q    Type
                         _______ _______ _______ _____ _____    ______ ____

>  <TORSDO>
F 11

$$$$
