=
 OpenBabel11062413493D

 52 57  0  0  1  0  0  0  0  0999 V2000
  191.5750  176.6630  143.3690 C   0  0  0  0  0  1  0  0  0  0  0  0
  187.8030  176.3890  144.2350 C   0  0  0  0  0  2  0  0  0  0  0  0
  188.9400  177.1430  144.9420 C   0  0  1  0  0  3  0  0  0  0  0  0
  186.8910  177.2840  143.5290 N   0  0  0  0  0  0  0  0  0  0  0  0
  186.2570  178.6260  141.6450 N   0  0  0  0  0  0  0  0  0  0  0  0
  186.8160  178.9370  140.5430 N   0  0  0  0  0  0  0  0  0  0  0  0
  188.3350  177.5890  141.5420 C   0  0  0  0  0  0  0  0  0  0  0  0
  190.4560  177.5630  142.8900 C   0  0  1  0  0  3  0  0  0  0  0  0
  188.0990  178.3040  140.4550 C   0  0  0  0  0  0  0  0  0  0  0  0
  189.5750  176.8150  141.8870 C   0  0  0  0  0  2  0  0  0  0  0  0
  187.1370  177.7690  142.3480 C   0  0  0  0  0  0  0  0  0  0  0  0
  189.6850  178.1670  144.0730 C   0  0  0  0  0  2  0  0  0  0  0  0
  189.4850  177.8990  147.2710 C   0  0  0  0  0  0  0  0  0  0  0  0
  189.3760  178.8660  148.0790 O   0  0  0  0  0  0  0  0  0  0  0  0
  191.9390  175.2410  147.2480 C   0  0  0  0  0  3  0  0  0  0  0  0
  190.5920  176.9910  147.4190 N   0  0  0  0  0  0  0  0  0  0  0  0
  188.5170  177.7420  146.2090 N   0  0  0  0  0  0  0  0  0  0  0  0
  190.7350  175.7910  146.8270 C   0  0  0  0  0  3  0  0  0  0  0  0
  191.6300  177.2300  148.2020 N   0  0  0  0  0  0  0  0  0  0  0  0
  192.4750  176.1800  148.1140 C   0  0  0  0  0  3  0  0  0  0  0  0
  187.2500  178.4660  146.2660 C   0  0  0  0  0  2  0  0  0  0  0  0
  186.2520  177.7200  147.1390 C   0  0  0  0  0  2  0  0  0  0  0  0
  185.0310  178.4010  147.1410 O   0  0  0  0  0  0  0  0  0  0  0  0
  185.0250  179.1130  145.9890 N   0  0  0  0  0  2  0  0  0  0  0  0
  183.6870  178.9860  145.4370 C   0  0  0  0  0  2  0  0  0  0  0  0
  183.6470  179.5430  144.0230 C   0  0  0  0  0  2  0  0  0  0  0  0
  182.5400  178.8700  143.2320 C   0  0  0  0  0  2  0  0  0  0  0  0
  181.4280  178.6790  144.0540 O   0  0  0  0  0  1  0  0  0  0  0  0
  189.0270  178.4490  139.2920 C   0  0  0  0  0  2  0  0  0  0  0  0
  188.6130  174.8740  135.2900 C   0  0  0  0  0  2  0  0  0  0  0  0
  188.0260  177.2540  137.3500 C   0  0  0  0  0  2  0  0  0  0  0  0
  190.4660  177.1170  137.8160 C   0  0  0  0  0  2  0  0  0  0  0  0
  188.1520  174.7810  136.7460 C   0  0  0  0  0  2  0  0  0  0  0  0
  189.0820  177.1880  138.4460 C   0  0  1  0  0  3  0  0  0  0  0  0
  191.0800  175.4730  135.9700 C   0  0  2  0  0  3  0  0  0  0  0  0
  189.8630  175.7310  135.0520 C   0  0  2  0  0  3  0  0  0  0  0  0
  189.5530  177.1930  134.7770 C   0  0  0  0  0  1  0  0  0  0  0  0
  187.2660  175.9460  137.1840 C   0  0  0  0  0  2  0  0  0  0  0  0
  190.8280  175.6820  137.4660 C   0  0  0  0  0  2  0  0  0  0  0  0
  193.5810  175.7480  135.5830 C   0  0  0  0  0  0  0  0  0  0  0  0
  194.5030  176.4280  135.0600 O   0  0  0  0  0  0  0  0  0  0  0  0
  192.2430  176.2440  135.5420 N   0  0  0  0  0  2  0  0  0  0  0  0
  193.8730  174.4150  136.2220 C   0  0  2  0  0  3  0  0  0  0  0  0
  195.3360  174.0540  136.0000 C   0  0  2  0  0  3  0  0  0  0  0  0
  194.2510  173.3480  135.2030 C   0  0  0  0  0  2  0  0  0  0  0  0
  197.8670  174.5470  137.9180 C   0  0  0  0  0  2  0  0  0  0  0  0
  197.7030  175.6560  140.0270 O   0  0  0  0  0  1  0  0  0  0  0  0
  195.7740  174.4700  139.2810 C   0  0  0  0  0  2  0  0  0  0  0  0
  197.2950  174.5150  139.3330 C   0  0  1  0  0  3  0  0  0  0  0  0
  197.4480  173.2850  137.1610 C   0  0  0  0  0  2  0  0  0  0  0  0
  195.9260  173.1520  137.1050 C   0  0  1  0  0  3  0  0  0  0  0  0
  195.3010  173.2310  138.5160 C   0  0  0  0  0  2  0  0  0  0  0  0
  2  3  1  0  0  0  0
  3 17  1  1  0  0  0
  4  2  1  0  0  0  0
  5 11  1  0  0  0  0
  6  5  2  0  0  0  0
  7 10  1  0  0  0  0
  7 11  1  0  0  0  0
  8  1  1  1  0  0  0
  8 12  1  0  0  0  0
  9  6  1  0  0  0  0
  9  7  2  0  0  0  0
 10  8  1  0  0  0  0
 11  4  2  0  0  0  0
 12  3  1  0  0  0  0
 13 16  1  0  0  0  0
 13 14  2  0  0  0  0
 15 20  1  0  0  0  0
 16 19  1  0  0  0  0
 17 21  1  0  0  0  0
 17 13  1  0  0  0  0
 18 15  2  0  0  0  0
 18 16  1  0  0  0  0
 20 19  2  0  0  0  0
 21 22  1  0  0  0  0
 22 23  1  0  0  0  0
 24 23  1  0  0  0  0
 25 24  1  0  0  0  0
 26 25  1  0  0  0  0
 27 26  1  0  0  0  0
 27 28  1  0  0  0  0
 29  9  1  0  0  0  0
 30 33  1  0  0  0  0
 31 34  1  0  0  0  0
 32 34  1  0  0  0  0
 33 38  1  0  0  0  0
 34 29  1  1  0  0  0
 35 42  1  6  0  0  0
 35 39  1  0  0  0  0
 36 37  1  1  0  0  0
 36 30  1  0  0  0  0
 36 35  1  0  0  0  0
 38 31  1  0  0  0  0
 39 32  1  0  0  0  0
 41 40  2  0  0  0  0
 42 40  1  0  0  0  0
 43 40  1  6  0  0  0
 44 45  1  6  0  0  0
 44 43  1  0  0  0  0
 44 51  1  0  0  0  0
 45 43  1  0  0  0  0
 46 49  1  0  0  0  0
 48 49  1  0  0  0  0
 49 47  1  1  0  0  0
 50 46  1  0  0  0  0
 51 50  1  1  0  0  0
 51 52  1  0  0  0  0
 52 48  1  0  0  0  0
M  END
>  <MODEL>
1

>  <REMARK>
 VINA RESULT:      -8.7      0.000      0.000
  Name = 
  13 active torsions:
  status: ('A' for Active; 'I' for Inactive)
    1  A    between atoms: N_1  and  O_19
    2  A    between atoms: N_1  and  C_28
    3  A    between atoms: C_3  and  N_39
    4  A    between atoms: C_3  and  C_48
    5  A    between atoms: C_4  and  C_8
    6  A    between atoms: C_6  and  C_25
    7  A    between atoms: C_6  and  C_28
    8  A    between atoms: C_13  and  N_39
    9  A    between atoms: O_19  and  C_48
   10  A    between atoms: C_27  and  C_30
   11  A    between atoms: C_30  and  C_43
   12  A    between atoms: C_32  and  N_42
   13  A    between atoms: C_36  and  C_37
                            x       y       z     vdW  Elec       q    Type
                         _______ _______ _______ _____ _____    ______ ____

>  <TORSDO>
F 13

$$$$
=
 OpenBabel11062413493D

 52 57  0  0  1  0  0  0  0  0999 V2000
  191.8120  175.7310  143.6830 C   0  0  0  0  0  1  0  0  0  0  0  0
  187.9790  176.2720  143.9380 C   0  0  0  0  0  2  0  0  0  0  0  0
  189.1280  176.8270  144.7960 C   0  0  1  0  0  3  0  0  0  0  0  0
  187.3890  177.2840  143.0670 N   0  0  0  0  0  0  0  0  0  0  0  0
  187.3400  178.6030  141.0650 N   0  0  0  0  0  0  0  0  0  0  0  0
  188.1110  178.7250  140.0580 N   0  0  0  0  0  0  0  0  0  0  0  0
  189.1490  177.1670  141.3300 C   0  0  0  0  0  0  0  0  0  0  0  0
  190.9890  176.8040  143.0020 C   0  0  1  0  0  3  0  0  0  0  0  0
  189.2330  177.8440  140.1980 C   0  0  0  0  0  0  0  0  0  0  0  0
  190.1350  176.1850  141.8950 C   0  0  0  0  0  2  0  0  0  0  0  0
  187.9060  177.6340  141.9260 C   0  0  0  0  0  0  0  0  0  0  0  0
  190.1910  177.6240  144.0260 C   0  0  0  0  0  2  0  0  0  0  0  0
  189.5670  177.8470  147.0450 C   0  0  0  0  0  0  0  0  0  0  0  0
  189.4350  178.9040  147.7260 O   0  0  0  0  0  0  0  0  0  0  0  0
  191.9650  175.1730  147.4670 C   0  0  0  0  0  3  0  0  0  0  0  0
  190.6460  176.9480  147.3580 N   0  0  0  0  0  0  0  0  0  0  0  0
  188.6520  177.5780  145.9590 N   0  0  0  0  0  0  0  0  0  0  0  0
  190.7960  175.6850  146.9200 C   0  0  0  0  0  3  0  0  0  0  0  0
  191.6470  177.2650  148.1620 N   0  0  0  0  0  0  0  0  0  0  0  0
  192.4740  176.2000  148.2440 C   0  0  0  0  0  3  0  0  0  0  0  0
  187.3980  178.3200  145.8620 C   0  0  0  0  0  2  0  0  0  0  0  0
  186.3710  177.7560  146.8330 C   0  0  0  0  0  2  0  0  0  0  0  0
  185.5090  178.7760  147.2480 O   0  0  0  0  0  0  0  0  0  0  0  0
  185.0690  179.3500  146.1030 N   0  0  0  0  0  2  0  0  0  0  0  0
  184.2140  178.3690  145.4570 C   0  0  0  0  0  2  0  0  0  0  0  0
  183.1080  179.0660  144.6810 C   0  0  0  0  0  2  0  0  0  0  0  0
  183.3360  178.8980  143.1900 C   0  0  0  0  0  2  0  0  0  0  0  0
  184.6190  179.3390  142.8600 O   0  0  0  0  0  1  0  0  0  0  0  0
  190.3360  177.7260  139.1950 C   0  0  0  0  0  2  0  0  0  0  0  0
  189.6650  174.8960  134.6660 C   0  0  0  0  0  2  0  0  0  0  0  0
  190.9590  176.4550  137.1460 C   0  0  0  0  0  2  0  0  0  0  0  0
  188.6880  176.2440  138.1420 C   0  0  0  0  0  2  0  0  0  0  0  0
  189.8060  176.4060  134.8740 C   0  0  0  0  0  2  0  0  0  0  0  0
  189.8380  177.2000  137.8590 C   0  0  1  0  0  3  0  0  0  0  0  0
  187.6760  174.7130  136.3750 C   0  0  2  0  0  3  0  0  0  0  0  0
  188.9990  174.1360  135.8210 C   0  0  2  0  0  3  0  0  0  0  0  0
  189.9830  173.6400  136.8680 C   0  0  0  0  0  1  0  0  0  0  0  0
  191.0500  176.8020  135.6670 C   0  0  0  0  0  2  0  0  0  0  0  0
  187.7660  176.1340  136.9370 C   0  0  0  0  0  2  0  0  0  0  0  0
  185.6680  173.6410  137.5140 C   0  0  0  0  0  0  0  0  0  0  0  0
  185.2450  172.7430  138.2890 O   0  0  0  0  0  0  0  0  0  0  0  0
  187.0770  173.8180  137.3600 N   0  0  0  0  0  2  0  0  0  0  0  0
  184.7080  174.5040  136.7370 C   0  0  2  0  0  3  0  0  0  0  0  0
  183.7470  175.1900  137.6980 C   0  0  2  0  0  3  0  0  0  0  0  0
  183.2670  174.0230  136.8500 C   0  0  0  0  0  2  0  0  0  0  0  0
  183.0700  177.8820  139.3160 C   0  0  0  0  0  2  0  0  0  0  0  0
  184.6870  179.5890  139.7330 O   0  0  0  0  0  1  0  0  0  0  0  0
  184.9790  178.2900  137.7570 C   0  0  0  0  0  2  0  0  0  0  0  0
  183.9890  178.9410  138.7130 C   0  0  1  0  0  3  0  0  0  0  0  0
  182.2800  177.1870  138.2050 C   0  0  0  0  0  2  0  0  0  0  0  0
  183.2140  176.5430  137.1810 C   0  0  1  0  0  3  0  0  0  0  0  0
  184.2360  177.5630  136.6320 C   0  0  0  0  0  2  0  0  0  0  0  0
  2  3  1  0  0  0  0
  3 17  1  1  0  0  0
  4  2  1  0  0  0  0
  5 11  1  0  0  0  0
  6  9  1  0  0  0  0
  6  5  2  0  0  0  0
  7 10  1  0  0  0  0
  7 11  1  0  0  0  0
  8  1  1  1  0  0  0
  8 12  1  0  0  0  0
  9  7  2  0  0  0  0
 10  8  1  0  0  0  0
 11  4  2  0  0  0  0
 12  3  1  0  0  0  0
 13 16  1  0  0  0  0
 13 14  2  0  0  0  0
 15 20  1  0  0  0  0
 16 19  1  0  0  0  0
 17 13  1  0  0  0  0
 18 16  1  0  0  0  0
 18 15  2  0  0  0  0
 19 20  2  0  0  0  0
 21 17  1  0  0  0  0
 21 22  1  0  0  0  0
 22 23  1  0  0  0  0
 24 23  1  0  0  0  0
 25 24  1  0  0  0  0
 26 25  1  0  0  0  0
 27 26  1  0  0  0  0
 28 27  1  0  0  0  0
 29  9  1  0  0  0  0
 30 33  1  0  0  0  0
 30 36  1  0  0  0  0
 31 34  1  0  0  0  0
 33 38  1  0  0  0  0
 34 32  1  0  0  0  0
 34 29  1  1  0  0  0
 35 39  1  0  0  0  0
 35 42  1  1  0  0  0
 36 35  1  0  0  0  0
 36 37  1  1  0  0  0
 38 31  1  0  0  0  0
 39 32  1  0  0  0  0
 40 41  2  0  0  0  0
 42 40  1  0  0  0  0
 43 45  1  0  0  0  0
 43 40  1  1  0  0  0
 43 44  1  0  0  0  0
 44 45  1  6  0  0  0
 48 49  1  0  0  0  0
 49 46  1  0  0  0  0
 49 47  1  1  0  0  0
 50 46  1  0  0  0  0
 51 52  1  1  0  0  0
 51 44  1  0  0  0  0
 51 50  1  0  0  0  0
 52 48  1  0  0  0  0
M  END
>  <MODEL>
2

>  <REMARK>
 VINA RESULT:      -7.8      3.498      6.183
  Name = 
  13 active torsions:
  status: ('A' for Active; 'I' for Inactive)
    1  A    between atoms: N_1  and  O_19
    2  A    between atoms: N_1  and  C_28
    3  A    between atoms: C_3  and  N_39
    4  A    between atoms: C_3  and  C_48
    5  A    between atoms: C_4  and  C_8
    6  A    between atoms: C_6  and  C_25
    7  A    between atoms: C_6  and  C_28
    8  A    between atoms: C_13  and  N_39
    9  A    between atoms: O_19  and  C_48
   10  A    between atoms: C_27  and  C_30
   11  A    between atoms: C_30  and  C_43
   12  A    between atoms: C_32  and  N_42
   13  A    between atoms: C_36  and  C_37
                            x       y       z     vdW  Elec       q    Type
                         _______ _______ _______ _____ _____    ______ ____

>  <TORSDO>
F 13

$$$$
=
 OpenBabel11062413493D

 52 57  0  0  1  0  0  0  0  0999 V2000
  191.7390  176.8860  143.0830 C   0  0  0  0  0  1  0  0  0  0  0  0
  187.9900  176.3840  143.9450 C   0  0  0  0  0  2  0  0  0  0  0  0
  189.0890  177.1720  144.6770 C   0  0  1  0  0  3  0  0  0  0  0  0
  187.0290  177.2540  143.2730 N   0  0  0  0  0  0  0  0  0  0  0  0
  186.3190  178.6270  141.4390 N   0  0  0  0  0  0  0  0  0  0  0  0
  186.8570  179.0050  140.3490 N   0  0  0  0  0  0  0  0  0  0  0  0
  188.4480  177.7050  141.2960 C   0  0  0  0  0  0  0  0  0  0  0  0
  190.5720  177.7420  142.6380 C   0  0  1  0  0  3  0  0  0  0  0  0
  188.1710  178.4440  140.2360 C   0  0  0  0  0  0  0  0  0  0  0  0
  189.7290  176.9860  141.6110 C   0  0  0  0  0  2  0  0  0  0  0  0
  187.2450  177.7930  142.1100 C   0  0  0  0  0  0  0  0  0  0  0  0
  189.7750  178.2630  143.8440 C   0  0  0  0  0  2  0  0  0  0  0  0
  189.5830  177.7940  147.0560 C   0  0  0  0  0  0  0  0  0  0  0  0
  189.4600  178.7160  147.9130 O   0  0  0  0  0  0  0  0  0  0  0  0
  192.0240  175.1270  146.9420 C   0  0  0  0  0  3  0  0  0  0  0  0
  190.6820  176.8730  147.1780 N   0  0  0  0  0  0  0  0  0  0  0  0
  188.6390  177.7030  145.9650 N   0  0  0  0  0  0  0  0  0  0  0  0
  190.8330  175.7070  146.5250 C   0  0  0  0  0  3  0  0  0  0  0  0
  191.7030  177.0620  147.9970 N   0  0  0  0  0  0  0  0  0  0  0  0
  192.5440  176.0130  147.8700 C   0  0  0  0  0  3  0  0  0  0  0  0
  187.3750  178.4290  146.0330 C   0  0  0  0  0  2  0  0  0  0  0  0
  186.3300  177.6090  146.7740 C   0  0  0  0  0  2  0  0  0  0  0  0
  185.3570  178.4600  147.3070 O   0  0  0  0  0  0  0  0  0  0  0  0
  185.0570  179.3190  146.3050 N   0  0  0  0  0  2  0  0  0  0  0  0
  184.1120  178.6290  145.4430 C   0  0  0  0  0  2  0  0  0  0  0  0
  184.0330  179.3180  144.0910 C   0  0  0  0  0  2  0  0  0  0  0  0
  182.6710  179.0760  143.4650 C   0  0  0  0  0  2  0  0  0  0  0  0
  182.8330  178.5860  142.1680 O   0  0  0  0  0  1  0  0  0  0  0  0
  189.0860  178.6790  139.0770 C   0  0  0  0  0  2  0  0  0  0  0  0
  187.5300  176.0860  134.6240 C   0  0  0  0  0  2  0  0  0  0  0  0
  189.2640  177.2230  137.0640 C   0  0  0  0  0  2  0  0  0  0  0  0
  187.0490  177.7620  138.0600 C   0  0  0  0  0  2  0  0  0  0  0  0
  188.1390  177.4800  134.7910 C   0  0  0  0  0  2  0  0  0  0  0  0
  188.4390  178.3010  137.7540 C   0  0  1  0  0  3  0  0  0  0  0  0
  185.5950  176.5820  136.3330 C   0  0  2  0  0  3  0  0  0  0  0  0
  186.6670  175.6040  135.7970 C   0  0  2  0  0  3  0  0  0  0  0  0
  187.4520  174.8510  136.8590 C   0  0  0  0  0  1  0  0  0  0  0  0
  189.4500  177.4860  135.5760 C   0  0  0  0  0  2  0  0  0  0  0  0
  186.1310  177.9170  136.8570 C   0  0  0  0  0  2  0  0  0  0  0  0
  183.3990  176.3280  137.5950 C   0  0  0  0  0  0  0  0  0  0  0  0
  182.7030  175.6300  138.3800 O   0  0  0  0  0  0  0  0  0  0  0  0
  184.7520  175.9460  137.3410 N   0  0  0  0  0  2  0  0  0  0  0  0
  182.8120  177.5330  136.9090 C   0  0  2  0  0  3  0  0  0  0  0  0
  181.2970  177.5190  137.0620 C   0  0  2  0  0  3  0  0  0  0  0  0
  181.9280  177.1600  135.7260 C   0  0  0  0  0  2  0  0  0  0  0  0
  179.3720  178.9240  139.2170 C   0  0  0  0  0  2  0  0  0  0  0  0
  180.1980  180.1980  141.0620 O   0  0  0  0  0  1  0  0  0  0  0  0
  181.5450  180.1520  139.0960 C   0  0  0  0  0  2  0  0  0  0  0  0
  180.1340  180.1680  139.6680 C   0  0  1  0  0  3  0  0  0  0  0  0
  179.2740  178.9010  137.6910 C   0  0  0  0  0  2  0  0  0  0  0  0
  180.6590  178.9240  137.0450 C   0  0  1  0  0  3  0  0  0  0  0  0
  181.5030  180.1100  137.5660 C   0  0  0  0  0  2  0  0  0  0  0  0
  2  3  1  0  0  0  0
  3 17  1  1  0  0  0
  4  2  1  0  0  0  0
  5 11  1  0  0  0  0
  6  5  2  0  0  0  0
  7 10  1  0  0  0  0
  7 11  1  0  0  0  0
  8  1  1  1  0  0  0
  8 12  1  0  0  0  0
  9  6  1  0  0  0  0
  9  7  2  0  0  0  0
 10  8  1  0  0  0  0
 11  4  2  0  0  0  0
 12  3  1  0  0  0  0
 13 16  1  0  0  0  0
 13 14  2  0  0  0  0
 15 20  1  0  0  0  0
 16 19  1  0  0  0  0
 17 21  1  0  0  0  0
 17 13  1  0  0  0  0
 18 15  2  0  0  0  0
 18 16  1  0  0  0  0
 20 19  2  0  0  0  0
 21 22  1  0  0  0  0
 22 23  1  0  0  0  0
 24 23  1  0  0  0  0
 25 24  1  0  0  0  0
 26 25  1  0  0  0  0
 27 26  1  0  0  0  0
 28 27  1  0  0  0  0
 29  9  1  0  0  0  0
 30 33  1  0  0  0  0
 30 36  1  0  0  0  0
 31 34  1  0  0  0  0
 33 38  1  0  0  0  0
 34 32  1  0  0  0  0
 34 29  1  1  0  0  0
 35 39  1  0  0  0  0
 35 42  1  1  0  0  0
 36 35  1  0  0  0  0
 36 37  1  1  0  0  0
 38 31  1  0  0  0  0
 39 32  1  0  0  0  0
 40 41  2  0  0  0  0
 42 40  1  0  0  0  0
 43 44  1  0  0  0  0
 43 40  1  1  0  0  0
 44 45  1  6  0  0  0
 45 43  1  0  0  0  0
 46 49  1  0  0  0  0
 48 49  1  0  0  0  0
 49 47  1  1  0  0  0
 50 46  1  0  0  0  0
 51 44  1  0  0  0  0
 51 52  1  1  0  0  0
 51 50  1  0  0  0  0
 52 48  1  0  0  0  0
M  END
>  <MODEL>
3

>  <REMARK>
 VINA RESULT:      -7.8      4.082      7.696
  Name = 
  13 active torsions:
  status: ('A' for Active; 'I' for Inactive)
    1  A    between atoms: N_1  and  O_19
    2  A    between atoms: N_1  and  C_28
    3  A    between atoms: C_3  and  N_39
    4  A    between atoms: C_3  and  C_48
    5  A    between atoms: C_4  and  C_8
    6  A    between atoms: C_6  and  C_25
    7  A    between atoms: C_6  and  C_28
    8  A    between atoms: C_13  and  N_39
    9  A    between atoms: O_19  and  C_48
   10  A    between atoms: C_27  and  C_30
   11  A    between atoms: C_30  and  C_43
   12  A    between atoms: C_32  and  N_42
   13  A    between atoms: C_36  and  C_37
                            x       y       z     vdW  Elec       q    Type
                         _______ _______ _______ _____ _____    ______ ____

>  <TORSDO>
F 13

$$$$
=
 OpenBabel11062413493D

 52 57  0  0  1  0  0  0  0  0999 V2000
  184.6000  179.0900  140.4210 C   0  0  0  0  0  1  0  0  0  0  0  0
  182.2550  176.9160  138.2250 C   0  0  0  0  0  2  0  0  0  0  0  0
  182.0770  178.3410  138.7720 C   0  0  1  0  0  3  0  0  0  0  0  0
  182.5170  176.8940  136.7890 N   0  0  0  0  0  0  0  0  0  0  0  0
  183.9650  177.0740  134.8860 N   0  0  0  0  0  0  0  0  0  0  0  0
  185.1980  177.3520  134.7270 N   0  0  0  0  0  0  0  0  0  0  0  0
  184.9220  177.4520  136.9710 C   0  0  0  0  0  0  0  0  0  0  0  0
  184.5700  179.0110  138.9100 C   0  0  1  0  0  3  0  0  0  0  0  0
  185.8110  177.5850  136.0020 C   0  0  0  0  0  0  0  0  0  0  0  0
  185.1220  177.6640  138.4440 C   0  0  0  0  0  2  0  0  0  0  0  0
  183.6920  177.1040  136.2740 C   0  0  0  0  0  0  0  0  0  0  0  0
  183.1710  179.3380  138.3650 C   0  0  0  0  0  2  0  0  0  0  0  0
  180.1060  179.7110  139.5020 C   0  0  0  0  0  0  0  0  0  0  0  0
  179.3190  180.6330  139.1430 O   0  0  0  0  0  0  0  0  0  0  0  0
  181.0010  178.6820  142.8520 C   0  0  0  0  0  3  0  0  0  0  0  0
  180.3640  179.5240  140.9050 N   0  0  0  0  0  0  0  0  0  0  0  0
  180.7450  178.8870  138.5010 N   0  0  0  0  0  0  0  0  0  0  0  0
  180.9610  178.4650  141.4820 C   0  0  0  0  0  3  0  0  0  0  0  0
  180.0110  180.3970  141.8330 N   0  0  0  0  0  0  0  0  0  0  0  0
  180.3920  179.9120  143.0350 C   0  0  0  0  0  3  0  0  0  0  0  0
  180.2380  178.8790  137.1320 C   0  0  0  0  0  2  0  0  0  0  0  0
  180.9570  179.9250  136.2930 C   0  0  0  0  0  2  0  0  0  0  0  0
  180.0820  180.9770  136.0050 O   0  0  0  0  0  0  0  0  0  0  0  0
  180.7700  182.1000  136.3190 N   0  0  0  0  0  2  0  0  0  0  0  0
  180.4990  183.0560  135.2580 C   0  0  0  0  0  2  0  0  0  0  0  0
  180.9110  184.4530  135.6920 C   0  0  0  0  0  2  0  0  0  0  0  0
  181.0360  184.5100  137.2040 C   0  0  0  0  0  2  0  0  0  0  0  0
  182.3790  184.6410  137.5580 O   0  0  0  0  0  1  0  0  0  0  0  0
  187.2530  177.9330  136.1880 C   0  0  0  0  0  2  0  0  0  0  0  0
  191.0400  174.3000  137.3820 C   0  0  0  0  0  2  0  0  0  0  0  0
  189.0590  176.2610  135.8060 C   0  0  0  0  0  2  0  0  0  0  0  0
  188.7640  177.3410  138.0290 C   0  0  0  0  0  2  0  0  0  0  0  0
  189.5510  174.1100  137.0820 C   0  0  0  0  0  2  0  0  0  0  0  0
  188.0400  176.7900  136.8080 C   0  0  1  0  0  3  0  0  0  0  0  0
  190.5690  176.0540  139.2820 C   0  0  2  0  0  3  0  0  0  0  0  0
  191.4080  175.6290  138.0550 C   0  0  2  0  0  3  0  0  0  0  0  0
  191.7290  176.7400  137.0690 C   0  0  0  0  0  1  0  0  0  0  0  0
  189.1060  174.7400  135.7630 C   0  0  0  0  0  2  0  0  0  0  0  0
  189.0710  176.2310  139.0220 C   0  0  0  0  0  2  0  0  0  0  0  0
  191.2280  177.4220  141.3260 C   0  0  0  0  0  0  0  0  0  0  0  0
  191.8440  178.4250  141.7750 O   0  0  0  0  0  0  0  0  0  0  0  0
  191.1170  177.2510  139.9120 N   0  0  0  0  0  2  0  0  0  0  0  0
  190.6370  176.3980  142.2590 C   0  0  2  0  0  3  0  0  0  0  0  0
  190.1660  177.0840  143.5340 C   0  0  2  0  0  3  0  0  0  0  0  0
  191.4370  176.2500  143.5470 C   0  0  0  0  0  2  0  0  0  0  0  0
  188.0650  178.1980  145.6960 C   0  0  0  0  0  2  0  0  0  0  0  0
  186.0110  179.2530  145.0870 O   0  0  0  0  0  1  0  0  0  0  0  0
  186.8740  177.6250  143.5750 C   0  0  0  0  0  2  0  0  0  0  0  0
  186.7000  178.0410  145.0290 C   0  0  1  0  0  3  0  0  0  0  0  0
  188.8150  176.8650  145.6620 C   0  0  0  0  0  2  0  0  0  0  0  0
  188.9910  176.3640  144.2280 C   0  0  1  0  0  3  0  0  0  0  0  0
  187.6380  176.3010  143.4840 C   0  0  0  0  0  2  0  0  0  0  0  0
  2  3  1  0  0  0  0
  3 17  1  6  0  0  0
  4  2  1  0  0  0  0
  5 11  1  0  0  0  0
  6  5  2  0  0  0  0
  6  9  1  0  0  0  0
  7 10  1  0  0  0  0
  8  1  1  1  0  0  0
  9 29  1  0  0  0  0
  9  7  2  0  0  0  0
 10  8  1  0  0  0  0
 11  4  2  0  0  0  0
 11  7  1  0  0  0  0
 12  3  1  0  0  0  0
 12  8  1  0  0  0  0
 13 16  1  0  0  0  0
 14 13  2  0  0  0  0
 15 20  1  0  0  0  0
 16 18  1  0  0  0  0
 16 19  1  0  0  0  0
 17 13  1  0  0  0  0
 18 15  2  0  0  0  0
 19 20  2  0  0  0  0
 21 17  1  0  0  0  0
 22 21  1  0  0  0  0
 23 22  1  0  0  0  0
 23 24  1  0  0  0  0
 25 26  1  0  0  0  0
 25 24  1  0  0  0  0
 26 27  1  0  0  0  0
 27 28  1  0  0  0  0
 30 36  1  0  0  0  0
 31 34  1  0  0  0  0
 32 39  1  0  0  0  0
 33 30  1  0  0  0  0
 34 29  1  6  0  0  0
 34 32  1  0  0  0  0
 35 42  1  6  0  0  0
 36 37  1  6  0  0  0
 36 35  1  0  0  0  0
 38 31  1  0  0  0  0
 38 33  1  0  0  0  0
 39 35  1  0  0  0  0
 40 41  2  0  0  0  0
 42 40  1  0  0  0  0
 43 40  1  6  0  0  0
 43 44  1  0  0  0  0
 43 45  1  0  0  0  0
 44 45  1  1  0  0  0
 44 51  1  0  0  0  0
 48 49  1  0  0  0  0
 49 47  1  6  0  0  0
 49 46  1  0  0  0  0
 50 46  1  0  0  0  0
 51 52  1  6  0  0  0
 51 50  1  0  0  0  0
 52 48  1  0  0  0  0
M  END
>  <MODEL>
4

>  <REMARK>
 VINA RESULT:      -7.1      4.598      9.039
  Name = 
  13 active torsions:
  status: ('A' for Active; 'I' for Inactive)
    1  A    between atoms: N_1  and  O_19
    2  A    between atoms: N_1  and  C_28
    3  A    between atoms: C_3  and  N_39
    4  A    between atoms: C_3  and  C_48
    5  A    between atoms: C_4  and  C_8
    6  A    between atoms: C_6  and  C_25
    7  A    between atoms: C_6  and  C_28
    8  A    between atoms: C_13  and  N_39
    9  A    between atoms: O_19  and  C_48
   10  A    between atoms: C_27  and  C_30
   11  A    between atoms: C_30  and  C_43
   12  A    between atoms: C_32  and  N_42
   13  A    between atoms: C_36  and  C_37
                            x       y       z     vdW  Elec       q    Type
                         _______ _______ _______ _____ _____    ______ ____

>  <TORSDO>
F 13

$$$$
=
 OpenBabel11062413493D

 52 57  0  0  1  0  0  0  0  0999 V2000
  192.1600  175.3870  137.9680 C   0  0  0  0  0  1  0  0  0  0  0  0
  189.7240  176.2850  135.0870 C   0  0  0  0  0  2  0  0  0  0  0  0
  190.0040  174.9410  135.7780 C   0  0  1  0  0  3  0  0  0  0  0  0
  188.4290  176.8490  135.4590 N   0  0  0  0  0  0  0  0  0  0  0  0
  186.9860  178.0780  136.9280 N   0  0  0  0  0  0  0  0  0  0  0  0
  187.1320  178.6280  138.0670 N   0  0  0  0  0  0  0  0  0  0  0  0
  189.1810  177.7740  137.6290 C   0  0  0  0  0  0  0  0  0  0  0  0
  190.7220  175.8440  138.0910 C   0  0  1  0  0  3  0  0  0  0  0  0
  188.4810  178.4570  138.5190 C   0  0  0  0  0  0  0  0  0  0  0  0
  190.6110  177.3250  137.7260 C   0  0  0  0  0  2  0  0  0  0  0  0
  188.2300  177.5150  136.5580 C   0  0  0  0  0  0  0  0  0  0  0  0
  189.7790  174.9290  137.2970 C   0  0  0  0  0  2  0  0  0  0  0  0
  189.9780  172.5440  135.0400 C   0  0  0  0  0  0  0  0  0  0  0  0
  189.2970  171.4790  135.0640 O   0  0  0  0  0  0  0  0  0  0  0  0
  193.5540  172.9290  134.6480 C   0  0  0  0  0  3  0  0  0  0  0  0
  191.4110  172.4510  134.9400 N   0  0  0  0  0  0  0  0  0  0  0  0
  189.3100  173.8220  135.1370 N   0  0  0  0  0  0  0  0  0  0  0  0
  192.2660  173.4500  134.6560 C   0  0  0  0  0  3  0  0  0  0  0  0
  192.0800  171.3220  135.1020 N   0  0  0  0  0  0  0  0  0  0  0  0
  193.3940  171.5840  134.9350 C   0  0  0  0  0  3  0  0  0  0  0  0
  187.8700  173.9100  134.9190 C   0  0  0  0  0  2  0  0  0  0  0  0
  187.1160  173.5270  136.1840 C   0  0  0  0  0  2  0  0  0  0  0  0
  186.0020  174.3590  136.3360 O   0  0  0  0  0  0  0  0  0  0  0  0
  184.9710  173.5190  136.5900 N   0  0  0  0  0  2  0  0  0  0  0  0
  183.9080  174.3360  137.1510 C   0  0  0  0  0  2  0  0  0  0  0  0
  184.4340  175.7200  137.4930 C   0  0  0  0  0  2  0  0  0  0  0  0
  183.5780  176.7800  136.8220 C   0  0  0  0  0  2  0  0  0  0  0  0
  183.8540  176.8070  135.4540 O   0  0  0  0  0  1  0  0  0  0  0  0
  189.0040  178.9800  139.8180 C   0  0  0  0  0  2  0  0  0  0  0  0
  189.7230  176.0790  144.2960 C   0  0  0  0  0  2  0  0  0  0  0  0
  190.2220  177.7590  141.6160 C   0  0  0  0  0  2  0  0  0  0  0  0
  187.8720  178.5080  141.9450 C   0  0  0  0  0  2  0  0  0  0  0  0
  189.5590  175.6260  142.8430 C   0  0  0  0  0  2  0  0  0  0  0  0
  188.8730  177.9590  140.9380 C   0  0  1  0  0  3  0  0  0  0  0  0
  187.5010  177.4840  144.2470 C   0  0  2  0  0  3  0  0  0  0  0  0
  188.9860  177.3740  144.6650 C   0  0  2  0  0  3  0  0  0  0  0  0
  189.8180  178.6280  144.4500 C   0  0  0  0  0  1  0  0  0  0  0  0
  190.5380  176.2940  141.8790 C   0  0  0  0  0  2  0  0  0  0  0  0
  187.2350  177.3810  142.7430 C   0  0  0  0  0  2  0  0  0  0  0  0
  185.5010  179.0090  144.6350 C   0  0  0  0  0  0  0  0  0  0  0  0
  185.0270  179.9970  145.2570 O   0  0  0  0  0  0  0  0  0  0  0  0
  186.8850  178.6910  144.7880 N   0  0  0  0  0  2  0  0  0  0  0  0
  184.6200  178.1530  143.7620 C   0  0  2  0  0  3  0  0  0  0  0  0
  184.1000  178.9820  142.5960 C   0  0  2  0  0  3  0  0  0  0  0  0
  183.1730  178.6280  143.7480 C   0  0  0  0  0  2  0  0  0  0  0  0
  181.7500  179.3210  140.4310 C   0  0  0  0  0  2  0  0  0  0  0  0
  181.9530  180.7100  138.4990 O   0  0  0  0  0  1  0  0  0  0  0  0
  183.9620  179.7520  139.3530 C   0  0  0  0  0  2  0  0  0  0  0  0
  182.4710  179.5660  139.1080 C   0  0  1  0  0  3  0  0  0  0  0  0
  182.2920  178.0520  141.0910 C   0  0  0  0  0  2  0  0  0  0  0  0
  183.7990  178.1520  141.3310 C   0  0  1  0  0  3  0  0  0  0  0  0
  184.5530  178.5120  140.0310 C   0  0  0  0  0  2  0  0  0  0  0  0
  2  4  1  0  0  0  0
  2  3  1  0  0  0  0
  3 17  1  6  0  0  0
  3 12  1  0  0  0  0
  4 11  2  0  0  0  0
  5  6  2  0  0  0  0
  6  9  1  0  0  0  0
  7 10  1  0  0  0  0
  7  9  2  0  0  0  0
  8  1  1  6  0  0  0
  9 29  1  0  0  0  0
 10  8  1  0  0  0  0
 11  5  1  0  0  0  0
 11  7  1  0  0  0  0
 12  8  1  0  0  0  0
 13 14  2  0  0  0  0
 13 17  1  0  0  0  0
 15 18  2  0  0  0  0
 15 20  1  0  0  0  0
 16 13  1  0  0  0  0
 16 19  1  0  0  0  0
 18 16  1  0  0  0  0
 20 19  2  0  0  0  0
 21 17  1  0  0  0  0
 21 22  1  0  0  0  0
 22 23  1  0  0  0  0
 23 24  1  0  0  0  0
 24 25  1  0  0  0  0
 25 26  1  0  0  0  0
 27 26  1  0  0  0  0
 28 27  1  0  0  0  0
 30 36  1  0  0  0  0
 31 38  1  0  0  0  0
 32 39  1  0  0  0  0
 33 30  1  0  0  0  0
 34 29  1  6  0  0  0
 34 31  1  0  0  0  0
 34 32  1  0  0  0  0
 35 36  1  0  0  0  0
 35 42  1  6  0  0  0
 36 37  1  6  0  0  0
 38 33  1  0  0  0  0
 39 35  1  0  0  0  0
 40 42  1  0  0  0  0
 40 41  2  0  0  0  0
 43 40  1  1  0  0  0
 44 45  1  1  0  0  0
 44 43  1  0  0  0  0
 45 43  1  0  0  0  0
 46 50  1  0  0  0  0
 48 52  1  0  0  0  0
 49 47  1  1  0  0  0
 49 48  1  0  0  0  0
 49 46  1  0  0  0  0
 50 51  1  0  0  0  0
 51 52  1  6  0  0  0
 51 44  1  0  0  0  0
M  END
>  <MODEL>
5

>  <REMARK>
 VINA RESULT:      -6.8      3.278     10.650
  Name = 
  13 active torsions:
  status: ('A' for Active; 'I' for Inactive)
    1  A    between atoms: N_1  and  O_19
    2  A    between atoms: N_1  and  C_28
    3  A    between atoms: C_3  and  N_39
    4  A    between atoms: C_3  and  C_48
    5  A    between atoms: C_4  and  C_8
    6  A    between atoms: C_6  and  C_25
    7  A    between atoms: C_6  and  C_28
    8  A    between atoms: C_13  and  N_39
    9  A    between atoms: O_19  and  C_48
   10  A    between atoms: C_27  and  C_30
   11  A    between atoms: C_30  and  C_43
   12  A    between atoms: C_32  and  N_42
   13  A    between atoms: C_36  and  C_37
                            x       y       z     vdW  Elec       q    Type
                         _______ _______ _______ _____ _____    ______ ____

>  <TORSDO>
F 13

$$$$
=
 OpenBabel11062413493D

 52 57  0  0  1  0  0  0  0  0999 V2000
  187.4130  177.1150  146.1870 C   0  0  0  0  0  1  0  0  0  0  0  0
  189.2150  178.8790  143.2400 C   0  0  0  0  0  2  0  0  0  0  0  0
  189.4100  177.4760  143.8360 C   0  0  1  0  0  3  0  0  0  0  0  0
  188.5530  178.8500  141.9400 N   0  0  0  0  0  0  0  0  0  0  0  0
  186.6060  178.7290  140.5440 N   0  0  0  0  0  0  0  0  0  0  0  0
  185.3600  178.5850  140.7630 N   0  0  0  0  0  0  0  0  0  0  0  0
  186.2620  178.5810  142.8380 C   0  0  0  0  0  0  0  0  0  0  0  0
  187.0120  177.1040  144.7280 C   0  0  1  0  0  3  0  0  0  0  0  0
  185.1220  178.4960  142.1740 C   0  0  0  0  0  0  0  0  0  0  0  0
  186.4770  178.4770  144.3220 C   0  0  0  0  0  2  0  0  0  0  0  0
  187.2650  178.7460  141.7970 C   0  0  0  0  0  0  0  0  0  0  0  0
  188.1570  176.5890  143.8420 C   0  0  0  0  0  2  0  0  0  0  0  0
  191.3510  175.9080  144.0920 C   0  0  0  0  0  0  0  0  0  0  0  0
  191.9070  174.8870  143.5930 O   0  0  0  0  0  0  0  0  0  0  0  0
  191.5330  177.1470  147.4850 C   0  0  0  0  0  3  0  0  0  0  0  0
  191.5130  176.1710  145.4970 N   0  0  0  0  0  0  0  0  0  0  0  0
  190.5500  176.7670  143.2510 N   0  0  0  0  0  0  0  0  0  0  0  0
  191.2130  177.3120  146.1440 C   0  0  0  0  0  3  0  0  0  0  0  0
  192.0160  175.2940  146.3490 N   0  0  0  0  0  0  0  0  0  0  0  0
  192.0350  175.8600  147.5750 C   0  0  0  0  0  3  0  0  0  0  0  0
  190.6560  176.6690  141.7980 C   0  0  0  0  0  2  0  0  0  0  0  0
  191.8400  177.4820  141.2960 C   0  0  0  0  0  2  0  0  0  0  0  0
  192.0000  177.2780  139.9220 O   0  0  0  0  0  0  0  0  0  0  0  0
  190.7410  177.2160  139.4280 N   0  0  0  0  0  2  0  0  0  0  0  0
  190.8730  177.1040  137.9850 C   0  0  0  0  0  2  0  0  0  0  0  0
  189.5460  177.4130  137.3110 C   0  0  0  0  0  2  0  0  0  0  0  0
  188.8130  178.4950  138.0840 C   0  0  0  0  0  2  0  0  0  0  0  0
  189.0540  179.7370  137.4940 O   0  0  0  0  0  1  0  0  0  0  0  0
  183.7700  178.3250  142.7880 C   0  0  0  0  0  2  0  0  0  0  0  0
  180.1760  178.8770  138.8190 C   0  0  0  0  0  2  0  0  0  0  0  0
  181.9720  179.3780  141.4220 C   0  0  0  0  0  2  0  0  0  0  0  0
  183.3880  177.5560  140.4880 C   0  0  0  0  0  2  0  0  0  0  0  0
  180.0160  178.2740  140.2160 C   0  0  0  0  0  2  0  0  0  0  0  0
  182.6960  178.0760  141.7410 C   0  0  1  0  0  3  0  0  0  0  0  0
  182.2170  177.3260  138.2380 C   0  0  2  0  0  3  0  0  0  0  0  0
  181.5710  178.7310  138.1980 C   0  0  2  0  0  3  0  0  0  0  0  0
  182.5040  179.8860  138.5210 C   0  0  0  0  0  1  0  0  0  0  0  0
  180.4620  179.2070  141.3410 C   0  0  0  0  0  2  0  0  0  0  0  0
  182.4260  176.7420  139.6370 C   0  0  0  0  0  2  0  0  0  0  0  0
  183.5680  176.8350  136.1370 C   0  0  0  0  0  0  0  0  0  0  0  0
  184.6570  176.9790  135.5210 O   0  0  0  0  0  0  0  0  0  0  0  0
  183.4670  177.2940  137.4860 N   0  0  0  0  0  2  0  0  0  0  0  0
  182.3750  176.2140  135.4590 C   0  0  2  0  0  3  0  0  0  0  0  0
  182.0390  174.8900  136.1320 C   0  0  2  0  0  3  0  0  0  0  0  0
  182.7140  174.8990  134.7690 C   0  0  0  0  0  2  0  0  0  0  0  0
  180.3100  172.9090  137.9780 C   0  0  0  0  0  2  0  0  0  0  0  0
  179.1780  173.6310  139.9540 O   0  0  0  0  0  1  0  0  0  0  0  0
  179.4680  175.2490  138.2280 C   0  0  0  0  0  2  0  0  0  0  0  0
  179.2090  173.7870  138.5670 C   0  0  1  0  0  3  0  0  0  0  0  0
  180.3300  173.0540  136.4550 C   0  0  0  0  0  2  0  0  0  0  0  0
  180.5460  174.5080  136.0400 C   0  0  1  0  0  3  0  0  0  0  0  0
  179.5160  175.4450  136.7100 C   0  0  0  0  0  2  0  0  0  0  0  0
  2  3  1  0  0  0  0
  3 17  1  6  0  0  0
  3 12  1  0  0  0  0
  4  2  1  0  0  0  0
  5  6  2  0  0  0  0
  5 11  1  0  0  0  0
  6  9  1  0  0  0  0
  7 10  1  0  0  0  0
  8  1  1  1  0  0  0
  9 29  1  0  0  0  0
  9  7  2  0  0  0  0
 10  8  1  0  0  0  0
 11  4  2  0  0  0  0
 11  7  1  0  0  0  0
 12  8  1  0  0  0  0
 13 16  1  0  0  0  0
 14 13  2  0  0  0  0
 15 20  1  0  0  0  0
 16 18  1  0  0  0  0
 16 19  1  0  0  0  0
 17 13  1  0  0  0  0
 18 15  2  0  0  0  0
 19 20  2  0  0  0  0
 21 17  1  0  0  0  0
 22 21  1  0  0  0  0
 23 22  1  0  0  0  0
 24 23  1  0  0  0  0
 25 24  1  0  0  0  0
 26 25  1  0  0  0  0
 26 27  1  0  0  0  0
 28 27  1  0  0  0  0
 30 33  1  0  0  0  0
 31 34  1  0  0  0  0
 32 34  1  0  0  0  0
 33 38  1  0  0  0  0
 34 29  1  1  0  0  0
 35 42  1  1  0  0  0
 35 39  1  0  0  0  0
 36 35  1  0  0  0  0
 36 37  1  1  0  0  0
 36 30  1  0  0  0  0
 38 31  1  0  0  0  0
 39 32  1  0  0  0  0
 40 42  1  0  0  0  0
 41 40  2  0  0  0  0
 43 44  1  0  0  0  0
 43 40  1  1  0  0  0
 44 45  1  6  0  0  0
 45 43  1  0  0  0  0
 46 49  1  0  0  0  0
 48 49  1  0  0  0  0
 49 47  1  1  0  0  0
 50 46  1  0  0  0  0
 51 44  1  0  0  0  0
 51 50  1  1  0  0  0
 51 52  1  0  0  0  0
 52 48  1  0  0  0  0
M  END
>  <MODEL>
6

>  <REMARK>
 VINA RESULT:      -6.7      4.278      9.213
  Name = 
  13 active torsions:
  status: ('A' for Active; 'I' for Inactive)
    1  A    between atoms: N_1  and  O_19
    2  A    between atoms: N_1  and  C_28
    3  A    between atoms: C_3  and  N_39
    4  A    between atoms: C_3  and  C_48
    5  A    between atoms: C_4  and  C_8
    6  A    between atoms: C_6  and  C_25
    7  A    between atoms: C_6  and  C_28
    8  A    between atoms: C_13  and  N_39
    9  A    between atoms: O_19  and  C_48
   10  A    between atoms: C_27  and  C_30
   11  A    between atoms: C_30  and  C_43
   12  A    between atoms: C_32  and  N_42
   13  A    between atoms: C_36  and  C_37
                            x       y       z     vdW  Elec       q    Type
                         _______ _______ _______ _____ _____    ______ ____

>  <TORSDO>
F 13

$$$$
=
 OpenBabel11062413493D

 52 57  0  0  1  0  0  0  0  0999 V2000
  185.4670  178.4320  138.4930 C   0  0  0  0  0  1  0  0  0  0  0  0
  186.0060  176.8660  134.9860 C   0  0  0  0  0  2  0  0  0  0  0  0
  186.7200  176.6000  136.3210 C   0  0  1  0  0  3  0  0  0  0  0  0
  185.1160  175.7760  134.5980 N   0  0  0  0  0  0  0  0  0  0  0  0
  183.0330  174.5900  134.6960 N   0  0  0  0  0  0  0  0  0  0  0  0
  181.9590  174.7300  135.3650 N   0  0  0  0  0  0  0  0  0  0  0  0
  183.2490  176.4460  136.0790 C   0  0  0  0  0  0  0  0  0  0  0  0
  184.7810  177.2110  137.9180 C   0  0  1  0  0  3  0  0  0  0  0  0
  182.0670  175.8720  136.2240 C   0  0  0  0  0  0  0  0  0  0  0  0
  183.7990  177.6290  136.8230 C   0  0  0  0  0  2  0  0  0  0  0  0
  183.9130  175.6340  135.0700 C   0  0  0  0  0  0  0  0  0  0  0  0
  185.8060  176.1580  137.4730 C   0  0  0  0  0  2  0  0  0  0  0  0
  188.8250  175.6050  137.2530 C   0  0  0  0  0  0  0  0  0  0  0  0
  189.4290  174.5140  137.4630 O   0  0  0  0  0  0  0  0  0  0  0  0
  189.2190  178.7690  138.9620 C   0  0  0  0  0  3  0  0  0  0  0  0
  189.1000  176.7280  138.1110 N   0  0  0  0  0  0  0  0  0  0  0  0
  187.8610  175.6940  136.1800 N   0  0  0  0  0  0  0  0  0  0  0  0
  188.7520  178.0100  137.8970 C   0  0  0  0  0  3  0  0  0  0  0  0
  189.7720  176.6300  139.2450 N   0  0  0  0  0  0  0  0  0  0  0  0
  189.8560  177.8620  139.7930 C   0  0  0  0  0  3  0  0  0  0  0  0
  187.8300  174.6680  135.1420 C   0  0  0  0  0  2  0  0  0  0  0  0
  187.6690  173.2880  135.7630 C   0  0  0  0  0  2  0  0  0  0  0  0
  186.3210  172.9190  135.7420 O   0  0  0  0  0  0  0  0  0  0  0  0
  186.1070  172.3090  136.9320 N   0  0  0  0  0  2  0  0  0  0  0  0
  184.6760  172.3820  137.1770 C   0  0  0  0  0  2  0  0  0  0  0  0
  183.9120  171.7850  136.0060 C   0  0  0  0  0  2  0  0  0  0  0  0
  182.6230  171.1520  136.4980 C   0  0  0  0  0  2  0  0  0  0  0  0
  181.7650  170.9400  135.4180 O   0  0  0  0  0  1  0  0  0  0  0  0
  180.9860  176.3310  137.1490 C   0  0  0  0  0  2  0  0  0  0  0  0
  180.8410  181.2780  139.2660 C   0  0  0  0  0  2  0  0  0  0  0  0
  180.4160  178.7480  137.3500 C   0  0  0  0  0  2  0  0  0  0  0  0
  181.1530  177.4380  139.3330 C   0  0  0  0  0  2  0  0  0  0  0  0
  181.8270  180.6590  138.2740 C   0  0  0  0  0  2  0  0  0  0  0  0
  181.3420  177.6400  137.8360 C   0  0  1  0  0  3  0  0  0  0  0  0
  181.1880  179.3480  141.0180 C   0  0  2  0  0  3  0  0  0  0  0  0
  180.2210  180.2980  140.2710 C   0  0  2  0  0  3  0  0  0  0  0  0
  178.9310  179.6610  139.7820 C   0  0  0  0  0  1  0  0  0  0  0  0
  181.1570  180.0430  137.0470 C   0  0  0  0  0  2  0  0  0  0  0  0
  182.0090  178.4150  140.1240 C   0  0  0  0  0  2  0  0  0  0  0  0
  180.8290  178.6240  143.4310 C   0  0  0  0  0  0  0  0  0  0  0  0
  180.0830  178.0400  144.2620 O   0  0  0  0  0  0  0  0  0  0  0  0
  180.4920  178.5800  142.0440 N   0  0  0  0  0  2  0  0  0  0  0  0
  182.0480  179.3820  143.8880 C   0  0  2  0  0  3  0  0  0  0  0  0
  183.2910  178.5350  143.6560 C   0  0  2  0  0  3  0  0  0  0  0  0
  182.7460  178.7120  145.0650 C   0  0  0  0  0  2  0  0  0  0  0  0
  186.3140  177.9500  144.5770 C   0  0  0  0  0  2  0  0  0  0  0  0
  187.8520  176.6840  143.2580 O   0  0  0  0  0  1  0  0  0  0  0  0
  186.1610  177.8850  142.0830 C   0  0  0  0  0  2  0  0  0  0  0  0
  187.1080  177.8650  143.2760 C   0  0  1  0  0  3  0  0  0  0  0  0
  185.5180  179.2560  144.6150 C   0  0  0  0  0  2  0  0  0  0  0  0
  184.5720  179.3640  143.4200 C   0  0  1  0  0  3  0  0  0  0  0  0
  185.3250  179.1690  142.0850 C   0  0  0  0  0  2  0  0  0  0  0  0
  2  3  1  0  0  0  0
  3 17  1  6  0  0  0
  3 12  1  0  0  0  0
  4  2  1  0  0  0  0
  4 11  2  0  0  0  0
  5 11  1  0  0  0  0
  5  6  2  0  0  0  0
  6  9  1  0  0  0  0
  7  9  2  0  0  0  0
  7 10  1  0  0  0  0
  8  1  1  6  0  0  0
  9 29  1  0  0  0  0
 10  8  1  0  0  0  0
 11  7  1  0  0  0  0
 12  8  1  0  0  0  0
 13 14  2  0  0  0  0
 13 16  1  0  0  0  0
 15 20  1  0  0  0  0
 16 19  1  0  0  0  0
 17 13  1  0  0  0  0
 18 16  1  0  0  0  0
 18 15  2  0  0  0  0
 19 20  2  0  0  0  0
 21 22  1  0  0  0  0
 21 17  1  0  0  0  0
 23 22  1  0  0  0  0
 23 24  1  0  0  0  0
 24 25  1  0  0  0  0
 26 27  1  0  0  0  0
 26 25  1  0  0  0  0
 28 27  1  0  0  0  0
 30 36  1  0  0  0  0
 31 34  1  0  0  0  0
 32 39  1  0  0  0  0
 33 30  1  0  0  0  0
 34 29  1  6  0  0  0
 34 32  1  0  0  0  0
 35 42  1  1  0  0  0
 36 37  1  6  0  0  0
 36 35  1  0  0  0  0
 38 31  1  0  0  0  0
 38 33  1  0  0  0  0
 39 35  1  0  0  0  0
 40 41  2  0  0  0  0
 42 40  1  0  0  0  0
 43 40  1  6  0  0  0
 43 45  1  0  0  0  0
 44 43  1  0  0  0  0
 44 45  1  1  0  0  0
 46 50  1  0  0  0  0
 48 52  1  0  0  0  0
 48 49  1  0  0  0  0
 49 47  1  1  0  0  0
 49 46  1  0  0  0  0
 51 52  1  6  0  0  0
 51 44  1  0  0  0  0
 51 50  1  0  0  0  0
M  END
>  <MODEL>
7

>  <REMARK>
 VINA RESULT:      -6.4      4.926     10.963
  Name = 
  13 active torsions:
  status: ('A' for Active; 'I' for Inactive)
    1  A    between atoms: N_1  and  O_19
    2  A    between atoms: N_1  and  C_28
    3  A    between atoms: C_3  and  N_39
    4  A    between atoms: C_3  and  C_48
    5  A    between atoms: C_4  and  C_8
    6  A    between atoms: C_6  and  C_25
    7  A    between atoms: C_6  and  C_28
    8  A    between atoms: C_13  and  N_39
    9  A    between atoms: O_19  and  C_48
   10  A    between atoms: C_27  and  C_30
   11  A    between atoms: C_30  and  C_43
   12  A    between atoms: C_32  and  N_42
   13  A    between atoms: C_36  and  C_37
                            x       y       z     vdW  Elec       q    Type
                         _______ _______ _______ _____ _____    ______ ____

>  <TORSDO>
F 13

$$$$
=
 OpenBabel11062413493D

 52 57  0  0  1  0  0  0  0  0999 V2000
  185.4970  178.4180  138.4770 C   0  0  0  0  0  1  0  0  0  0  0  0
  186.3030  176.7200  135.0840 C   0  0  0  0  0  2  0  0  0  0  0  0
  186.9320  176.5280  136.4730 C   0  0  1  0  0  3  0  0  0  0  0  0
  185.4650  175.5930  134.6860 N   0  0  0  0  0  0  0  0  0  0  0  0
  183.4060  174.3620  134.6970 N   0  0  0  0  0  0  0  0  0  0  0  0
  182.2870  174.5030  135.2870 N   0  0  0  0  0  0  0  0  0  0  0  0
  183.4890  176.2790  136.0100 C   0  0  0  0  0  0  0  0  0  0  0  0
  184.8780  177.1570  137.9110 C   0  0  1  0  0  3  0  0  0  0  0  0
  182.3120  175.6830  136.1010 C   0  0  0  0  0  0  0  0  0  0  0  0
  183.9620  177.5050  136.7370 C   0  0  0  0  0  2  0  0  0  0  0  0
  184.2360  175.4420  135.0830 C   0  0  0  0  0  0  0  0  0  0  0  0
  185.9530  176.1110  137.5800 C   0  0  0  0  0  2  0  0  0  0  0  0
  188.9530  175.5730  137.6110 C   0  0  0  0  0  0  0  0  0  0  0  0
  189.5540  174.4940  137.8800 O   0  0  0  0  0  0  0  0  0  0  0  0
  189.1120  178.7420  139.3480 C   0  0  0  0  0  3  0  0  0  0  0  0
  189.1180  176.7000  138.4910 N   0  0  0  0  0  0  0  0  0  0  0  0
  188.0980  175.6440  136.4470 N   0  0  0  0  0  0  0  0  0  0  0  0
  188.7690  177.9750  138.2430 C   0  0  0  0  0  3  0  0  0  0  0  0
  189.6760  176.6140  139.6870 N   0  0  0  0  0  0  0  0  0  0  0  0
  189.6810  177.8470  140.2380 C   0  0  0  0  0  3  0  0  0  0  0  0
  188.1920  174.6190  135.4120 C   0  0  0  0  0  2  0  0  0  0  0  0
  189.4750  174.7870  134.6120 C   0  0  0  0  0  2  0  0  0  0  0  0
  190.4470  173.9070  135.0950 O   0  0  0  0  0  0  0  0  0  0  0  0
  191.6150  174.5860  134.9950 N   0  0  0  0  0  2  0  0  0  0  0  0
  192.5220  173.9840  135.9570 C   0  0  0  0  0  2  0  0  0  0  0  0
  193.7610  174.8480  136.1230 C   0  0  0  0  0  2  0  0  0  0  0  0
  194.0120  175.1160  137.5960 C   0  0  0  0  0  2  0  0  0  0  0  0
  195.3820  175.2530  137.8200 O   0  0  0  0  0  1  0  0  0  0  0  0
  181.1620  176.1540  136.9320 C   0  0  0  0  0  2  0  0  0  0  0  0
  180.8010  181.1150  138.9880 C   0  0  0  0  0  2  0  0  0  0  0  0
  180.5110  178.5530  137.0900 C   0  0  0  0  0  2  0  0  0  0  0  0
  181.2330  177.2880  139.1080 C   0  0  0  0  0  2  0  0  0  0  0  0
  181.8340  180.5180  138.0300 C   0  0  0  0  0  2  0  0  0  0  0  0
  181.4570  177.4800  137.6140 C   0  0  1  0  0  3  0  0  0  0  0  0
  181.1610  179.2170  140.7700 C   0  0  2  0  0  3  0  0  0  0  0  0
  180.1860  180.1260  139.9870 C   0  0  2  0  0  3  0  0  0  0  0  0
  178.9310  179.4440  139.4700 C   0  0  0  0  0  1  0  0  0  0  0  0
  181.2180  179.8680  136.7920 C   0  0  0  0  0  2  0  0  0  0  0  0
  182.0360  178.3010  139.9100 C   0  0  0  0  0  2  0  0  0  0  0  0
  180.7540  178.5130  143.1820 C   0  0  0  0  0  0  0  0  0  0  0  0
  180.0050  177.9130  143.9980 O   0  0  0  0  0  0  0  0  0  0  0  0
  180.4620  178.4370  141.7860 N   0  0  0  0  0  2  0  0  0  0  0  0
  181.9290  179.3210  143.6650 C   0  0  2  0  0  3  0  0  0  0  0  0
  183.2060  178.5070  143.5100 C   0  0  2  0  0  3  0  0  0  0  0  0
  182.5980  178.7080  144.8890 C   0  0  0  0  0  2  0  0  0  0  0  0
  186.1870  178.0850  144.6350 C   0  0  0  0  0  2  0  0  0  0  0  0
  187.8420  176.8060  143.4810 O   0  0  0  0  0  1  0  0  0  0  0  0
  186.1850  177.8780  142.1440 C   0  0  0  0  0  2  0  0  0  0  0  0
  187.0590  177.9580  143.3880 C   0  0  1  0  0  3  0  0  0  0  0  0
  185.3470  179.3610  144.5530 C   0  0  0  0  0  2  0  0  0  0  0  0
  184.4700  179.3680  143.3010 C   0  0  1  0  0  3  0  0  0  0  0  0
  185.3080  179.1280  142.0250 C   0  0  0  0  0  2  0  0  0  0  0  0
  2  3  1  0  0  0  0
  3 17  1  6  0  0  0
  3 12  1  0  0  0  0
  4 11  2  0  0  0  0
  4  2  1  0  0  0  0
  5 11  1  0  0  0  0
  5  6  2  0  0  0  0
  6  9  1  0  0  0  0
  7  9  2  0  0  0  0
  7 10  1  0  0  0  0
  8  1  1  6  0  0  0
  9 29  1  0  0  0  0
 10  8  1  0  0  0  0
 11  7  1  0  0  0  0
 12  8  1  0  0  0  0
 13 14  2  0  0  0  0
 13 16  1  0  0  0  0
 15 20  1  0  0  0  0
 16 19  1  0  0  0  0
 17 13  1  0  0  0  0
 18 16  1  0  0  0  0
 18 15  2  0  0  0  0
 19 20  2  0  0  0  0
 21 17  1  0  0  0  0
 22 23  1  0  0  0  0
 22 21  1  0  0  0  0
 24 23  1  0  0  0  0
 24 25  1  0  0  0  0
 25 26  1  0  0  0  0
 26 27  1  0  0  0  0
 27 28  1  0  0  0  0
 30 36  1  0  0  0  0
 31 34  1  0  0  0  0
 32 39  1  0  0  0  0
 33 30  1  0  0  0  0
 34 29  1  6  0  0  0
 34 32  1  0  0  0  0
 35 42  1  1  0  0  0
 36 37  1  6  0  0  0
 36 35  1  0  0  0  0
 38 31  1  0  0  0  0
 38 33  1  0  0  0  0
 39 35  1  0  0  0  0
 40 41  2  0  0  0  0
 42 40  1  0  0  0  0
 43 40  1  6  0  0  0
 43 45  1  0  0  0  0
 44 43  1  0  0  0  0
 44 45  1  1  0  0  0
 48 49  1  0  0  0  0
 49 47  1  1  0  0  0
 49 46  1  0  0  0  0
 50 46  1  0  0  0  0
 51 52  1  6  0  0  0
 51 44  1  0  0  0  0
 51 50  1  0  0  0  0
 52 48  1  0  0  0  0
M  END
>  <MODEL>
8

>  <REMARK>
 VINA RESULT:      -6.2      3.895     11.257
  Name = 
  13 active torsions:
  status: ('A' for Active; 'I' for Inactive)
    1  A    between atoms: N_1  and  O_19
    2  A    between atoms: N_1  and  C_28
    3  A    between atoms: C_3  and  N_39
    4  A    between atoms: C_3  and  C_48
    5  A    between atoms: C_4  and  C_8
    6  A    between atoms: C_6  and  C_25
    7  A    between atoms: C_6  and  C_28
    8  A    between atoms: C_13  and  N_39
    9  A    between atoms: O_19  and  C_48
   10  A    between atoms: C_27  and  C_30
   11  A    between atoms: C_30  and  C_43
   12  A    between atoms: C_32  and  N_42
   13  A    between atoms: C_36  and  C_37
                            x       y       z     vdW  Elec       q    Type
                         _______ _______ _______ _____ _____    ______ ____

>  <TORSDO>
F 13

$$$$
=
 OpenBabel11062413493D

 52 57  0  0  1  0  0  0  0  0999 V2000
  187.4870  177.3050  146.1360 C   0  0  0  0  0  1  0  0  0  0  0  0
  189.2060  178.8330  143.0120 C   0  0  0  0  0  2  0  0  0  0  0  0
  189.3700  177.4540  143.6710 C   0  0  1  0  0  3  0  0  0  0  0  0
  188.4750  178.7700  141.7510 N   0  0  0  0  0  0  0  0  0  0  0  0
  186.4520  178.6710  140.4640 N   0  0  0  0  0  0  0  0  0  0  0  0
  185.2150  178.5960  140.7540 N   0  0  0  0  0  0  0  0  0  0  0  0
  186.2250  178.6540  142.7780 C   0  0  0  0  0  0  0  0  0  0  0  0
  187.0090  177.2400  144.7010 C   0  0  1  0  0  3  0  0  0  0  0  0
  185.0490  178.5890  142.1780 C   0  0  0  0  0  0  0  0  0  0  0  0
  186.5140  178.6150  144.2520 C   0  0  0  0  0  2  0  0  0  0  0  0
  187.1770  178.7190  141.6790 C   0  0  0  0  0  0  0  0  0  0  0  0
  188.0810  176.6290  143.7870 C   0  0  0  0  0  2  0  0  0  0  0  0
  191.2290  175.7860  143.9040 C   0  0  0  0  0  0  0  0  0  0  0  0
  191.7070  174.7210  143.4180 O   0  0  0  0  0  0  0  0  0  0  0  0
  191.6140  177.1170  147.2450 C   0  0  0  0  0  3  0  0  0  0  0  0
  191.4610  176.0830  145.2920 N   0  0  0  0  0  0  0  0  0  0  0  0
  190.4440  176.6640  143.0660 N   0  0  0  0  0  0  0  0  0  0  0  0
  191.2510  177.2580  145.9120 C   0  0  0  0  0  3  0  0  0  0  0  0
  191.9480  175.2050  146.1530 N   0  0  0  0  0  0  0  0  0  0  0  0
  192.0480  175.8060  147.3580 C   0  0  0  0  0  3  0  0  0  0  0  0
  190.4870  176.5160  141.6140 C   0  0  0  0  0  2  0  0  0  0  0  0
  191.7330  177.1810  141.0490 C   0  0  0  0  0  2  0  0  0  0  0  0
  191.6630  177.1970  139.6520 O   0  0  0  0  0  0  0  0  0  0  0  0
  192.9130  176.8850  139.2360 N   0  0  0  0  0  2  0  0  0  0  0  0
  192.7890  176.4610  137.8510 C   0  0  0  0  0  2  0  0  0  0  0  0
  191.4590  175.7580  137.6350 C   0  0  0  0  0  2  0  0  0  0  0  0
  191.5300  174.8880  136.3920 C   0  0  0  0  0  2  0  0  0  0  0  0
  191.4460  173.5440  136.7570 O   0  0  0  0  0  1  0  0  0  0  0  0
  183.7250  178.5130  142.8680 C   0  0  0  0  0  2  0  0  0  0  0  0
  178.9310  178.4840  140.4210 C   0  0  0  0  0  2  0  0  0  0  0  0
  181.2510  178.3570  142.6240 C   0  0  0  0  0  2  0  0  0  0  0  0
  182.6470  179.4060  140.8510 C   0  0  0  0  0  2  0  0  0  0  0  0
  179.8850  177.3300  140.7330 C   0  0  0  0  0  2  0  0  0  0  0  0
  182.5830  178.2930  141.8880 C   0  0  1  0  0  3  0  0  0  0  0  0
  180.7900  179.8570  139.1680 C   0  0  2  0  0  3  0  0  0  0  0  0
  179.6040  179.8380  140.1610 C   0  0  2  0  0  3  0  0  0  0  0  0
  179.7920  180.6740  141.4160 C   0  0  0  0  0  1  0  0  0  0  0  0
  180.2930  177.2520  142.2040 C   0  0  0  0  0  2  0  0  0  0  0  0
  181.9810  178.9760  139.5540 C   0  0  0  0  0  2  0  0  0  0  0  0
  180.8890  181.9490  137.7220 C   0  0  0  0  0  0  0  0  0  0  0  0
  181.2000  183.1680  137.6420 O   0  0  0  0  0  0  0  0  0  0  0  0
  181.2370  181.2200  138.8990 N   0  0  0  0  0  2  0  0  0  0  0  0
  180.1380  181.2710  136.6070 C   0  0  2  0  0  3  0  0  0  0  0  0
  181.0090  180.1820  135.9950 C   0  0  2  0  0  3  0  0  0  0  0  0
  180.7880  181.4870  135.2460 C   0  0  0  0  0  2  0  0  0  0  0  0
  181.8640  177.1200  135.5270 C   0  0  0  0  0  2  0  0  0  0  0  0
  181.5460  175.4170  137.1710 O   0  0  0  0  0  1  0  0  0  0  0  0
  180.0040  177.2350  137.1920 C   0  0  0  0  0  2  0  0  0  0  0  0
  180.8620  176.3070  136.3420 C   0  0  1  0  0  3  0  0  0  0  0  0
  181.1200  178.0780  134.5950 C   0  0  0  0  0  2  0  0  0  0  0  0
  180.2050  179.0170  135.3800 C   0  0  1  0  0  3  0  0  0  0  0  0
  179.2490  178.2290  136.3050 C   0  0  0  0  0  2  0  0  0  0  0  0
  2  3  1  0  0  0  0
  3 17  1  6  0  0  0
  3 12  1  0  0  0  0
  4  2  1  0  0  0  0
  5  6  2  0  0  0  0
  5 11  1  0  0  0  0
  6  9  1  0  0  0  0
  7 10  1  0  0  0  0
  8  1  1  1  0  0  0
  9  7  2  0  0  0  0
  9 29  1  0  0  0  0
 10  8  1  0  0  0  0
 11  4  2  0  0  0  0
 11  7  1  0  0  0  0
 12  8  1  0  0  0  0
 13 16  1  0  0  0  0
 14 13  2  0  0  0  0
 15 20  1  0  0  0  0
 16 18  1  0  0  0  0
 16 19  1  0  0  0  0
 17 13  1  0  0  0  0
 18 15  2  0  0  0  0
 19 20  2  0  0  0  0
 21 17  1  0  0  0  0
 22 21  1  0  0  0  0
 23 22  1  0  0  0  0
 24 23  1  0  0  0  0
 25 24  1  0  0  0  0
 26 25  1  0  0  0  0
 27 28  1  0  0  0  0
 27 26  1  0  0  0  0
 30 33  1  0  0  0  0
 32 34  1  0  0  0  0
 33 38  1  0  0  0  0
 34 31  1  0  0  0  0
 34 29  1  1  0  0  0
 35 42  1  1  0  0  0
 35 39  1  0  0  0  0
 35 36  1  0  0  0  0
 36 30  1  0  0  0  0
 36 37  1  1  0  0  0
 38 31  1  0  0  0  0
 39 32  1  0  0  0  0
 40 42  1  0  0  0  0
 41 40  2  0  0  0  0
 43 40  1  1  0  0  0
 44 45  1  6  0  0  0
 44 43  1  0  0  0  0
 45 43  1  0  0  0  0
 46 49  1  0  0  0  0
 49 47  1  1  0  0  0
 49 48  1  0  0  0  0
 50 46  1  0  0  0  0
 51 50  1  1  0  0  0
 51 44  1  0  0  0  0
 51 52  1  0  0  0  0
 52 48  1  0  0  0  0
M  END
>  <MODEL>
9

>  <REMARK>
 VINA RESULT:      -6.1      4.346     10.239
  Name = 
  13 active torsions:
  status: ('A' for Active; 'I' for Inactive)
    1  A    between atoms: N_1  and  O_19
    2  A    between atoms: N_1  and  C_28
    3  A    between atoms: C_3  and  N_39
    4  A    between atoms: C_3  and  C_48
    5  A    between atoms: C_4  and  C_8
    6  A    between atoms: C_6  and  C_25
    7  A    between atoms: C_6  and  C_28
    8  A    between atoms: C_13  and  N_39
    9  A    between atoms: O_19  and  C_48
   10  A    between atoms: C_27  and  C_30
   11  A    between atoms: C_30  and  C_43
   12  A    between atoms: C_32  and  N_42
   13  A    between atoms: C_36  and  C_37
                            x       y       z     vdW  Elec       q    Type
                         _______ _______ _______ _____ _____    ______ ____

>  <TORSDO>
F 13

$$$$
