=
 OpenBabel11062417563D

 39 41  0  0  1  0  0  0  0  0999 V2000
  187.6620  178.5660  143.3610 C   0  0  2  0  0  3  0  0  0  0  0  0
  189.6560  177.2610  145.9720 C   0  0  0  0  0  0  0  0  0  0  0  0
  191.1580  177.0660  142.8430 C   0  0  0  0  0  2  0  0  0  0  0  0
  187.7360  177.4010  144.3450 C   0  0  2  0  0  3  0  0  0  0  0  0
  193.2270  175.7660  147.6290 N   0  0  0  0  0  1  0  0  0  0  0  0
  190.3560  174.7470  143.3630 C   0  0  0  0  0  1  0  0  0  0  0  0
  190.5240  176.4750  145.1710 C   0  0  0  0  0  0  0  0  0  0  0  0
  191.7170  175.9900  145.7290 C   0  0  0  0  0  3  0  0  0  0  0  0
  186.2140  177.4820  144.5430 C   0  0  2  0  0  3  0  0  0  0  0  0
  189.1720  178.2950  148.1430 N   0  0  0  0  0  1  0  0  0  0  0  0
  189.5550  178.5570  141.6640 C   0  0  0  0  0  2  0  0  0  0  0  0
  190.4900  177.3560  141.5020 C   0  0  1  0  0  3  0  0  0  0  0  0
  191.1800  177.0190  147.8100 N   0  0  0  0  0  0  0  0  0  0  0  0
  188.4460  177.8110  145.5130 O   0  0  0  0  0  0  0  0  0  0  0  0
  187.7960  176.8610  141.5990 O   0  0  0  0  0  1  0  0  0  0  0  0
  186.1450  178.6680  143.5900 C   0  0  2  0  0  3  0  0  0  0  0  0
  192.0250  176.2680  147.0590 C   0  0  0  0  0  0  0  0  0  0  0  0
  190.0230  177.5180  147.3030 C   0  0  0  0  0  0  0  0  0  0  0  0
  188.0920  178.1920  141.9300 C   0  0  1  0  0  3  0  0  0  0  0  0
  190.2490  176.2220  143.7200 C   0  0  1  0  0  3  0  0  0  0  0  0
  185.7930  177.8400  145.9450 C   0  0  0  0  0  0  0  0  0  0  0  0
  185.8470  176.9900  146.8760 O   0  0  0  0  0  0  0  0  0  0  0  0
  185.2980  179.1160  146.1980 O   0  0  0  0  0  0  0  0  0  0  0  0
  185.6460  179.7750  147.3100 O   0  0  0  0  0  1  0  0  0  0  0  0
  191.5450  177.6360  140.4160 C   0  0  1  0  0  3  0  0  0  0  0  0
  193.9410  176.9820  139.8810 C   0  0  0  0  0  1  0  0  0  0  0  0
  192.9780  177.4960  140.9430 C   0  0  0  0  0  2  0  0  0  0  0  0
  191.3630  176.7360  139.1940 C   0  0  0  0  0  2  0  0  0  0  0  0
  190.1180  176.1020  139.2320 O   0  0  0  0  0  0  0  0  0  0  0  0
  189.5350  176.4060  138.0010 C   0  0  0  0  0  2  0  0  0  0  0  0
  188.0750  176.7830  138.1950 C   0  0  1  0  0  3  0  0  0  0  0  0
  188.8900  179.0430  138.2150 O   0  0  0  0  0  1  0  0  0  0  0  0
  187.9110  178.2660  138.0550 C   0  0  0  0  0  0  0  0  0  0  0  0
  186.6630  178.7940  137.7370 O   0  0  0  0  0  0  0  0  0  0  0  0
  187.2820  176.1010  137.2660 O   0  0  0  0  0  0  0  0  0  0  0  0
  188.0990  175.9460  136.1440 C   0  0  0  0  0  1  0  0  0  0  0  0
  185.2700  178.3370  142.3820 C   0  0  0  0  0  2  0  0  0  0  0  0
  183.9530  179.0940  142.4480 C   0  0  0  0  0  2  0  0  0  0  0  0
  183.2190  178.6800  143.5610 O   0  0  0  0  0  1  0  0  0  0  0  0
  1 16  1  0  0  0  0
  1  4  1  0  0  0  0
  2 18  1  0  0  0  0
  3 20  1  0  0  0  0
  4  9  1  0  0  0  0
  4 14  1  0  0  0  0
  6 20  1  0  0  0  0
  7  8  1  0  0  0  0
  7  2  2  0  0  0  0
  8 17  2  0  0  0  0
  9 21  1  0  0  0  0
 11 19  1  0  0  0  0
 12 11  1  0  0  0  0
 12  3  1  0  0  0  0
 14  2  1  0  0  0  0
 15 19  1  0  0  0  0
 16  9  1  0  0  0  0
 17  5  1  0  0  0  0
 17 13  1  0  0  0  0
 18 13  2  0  0  0  0
 18 10  1  0  0  0  0
 19  1  1  0  0  0  0
 20  7  1  0  0  0  0
 21 23  1  0  0  0  0
 21 22  2  0  0  0  0
 23 24  1  0  0  0  0
 25 27  1  0  0  0  0
 25 12  1  0  0  0  0
 26 27  1  0  0  0  0
 28 29  1  0  0  0  0
 28 25  1  0  0  0  0
 30 31  1  0  0  0  0
 30 29  1  0  0  0  0
 33 31  1  0  0  0  0
 33 32  1  0  0  0  0
 34 33  2  0  0  0  0
 35 31  1  0  0  0  0
 36 35  1  0  0  0  0
 37 38  1  0  0  0  0
 37 16  1  0  0  0  0
 38 39  1  0  0  0  0
M  END
>  <MODEL>
1

>  <REMARK>
 VINA RESULT:      -6.0      0.000      0.000
  Name = 
  12 active torsions:
  status: ('A' for Active; 'I' for Inactive)
    1  A    between atoms: C_1  and  C_34
    2  A    between atoms: O_5  and  C_9
    3  A    between atoms: O_5  and  C_18
    4  A    between atoms: C_7  and  O_10
    5  A    between atoms: C_7  and  C_20
    6  A    between atoms: C_9  and  C_12
    7  A    between atoms: C_12  and  C_24
    8  A    between atoms: C_12  and  C_29
    9  A    between atoms: C_13  and  C_38
   10  A    between atoms: O_17  and  C_38
   11  A    between atoms: C_18  and  C_38
   12  A    between atoms: C_28  and  C_34
                            x       y       z     vdW  Elec       q    Type
                         _______ _______ _______ _____ _____    ______ ____

>  <TORSDO>
F 12

$$$$
=
 OpenBabel11062417563D

 39 41  0  0  1  0  0  0  0  0999 V2000
  183.7230  178.1340  142.6650 C   0  0  2  0  0  3  0  0  0  0  0  0
  181.3800  178.1470  140.0170 C   0  0  0  0  0  0  0  0  0  0  0  0
  184.6870  178.2690  138.9500 C   0  0  0  0  0  2  0  0  0  0  0  0
  182.6530  179.0080  142.0150 C   0  0  2  0  0  3  0  0  0  0  0  0
  180.2270  177.8940  135.9750 N   0  0  0  0  0  1  0  0  0  0  0  0
  183.7980  180.6010  138.6950 C   0  0  0  0  0  1  0  0  0  0  0  0
  182.2350  178.6670  139.0120 C   0  0  0  0  0  0  0  0  0  0  0  0
  181.8470  178.5690  137.6670 C   0  0  0  0  0  3  0  0  0  0  0  0
  182.2010  179.4760  143.4080 C   0  0  2  0  0  3  0  0  0  0  0  0
  179.2760  177.0330  140.6070 N   0  0  0  0  0  1  0  0  0  0  0  0
  185.7150  177.7060  141.1430 C   0  0  0  0  0  2  0  0  0  0  0  0
  185.9120  178.4750  139.8340 C   0  0  1  0  0  3  0  0  0  0  0  0
  179.8220  177.4930  138.3130 N   0  0  0  0  0  0  0  0  0  0  0  0
  181.6740  178.1760  141.3920 O   0  0  0  0  0  0  0  0  0  0  0  0
  185.2970  179.9260  142.0770 O   0  0  0  0  0  1  0  0  0  0  0  0
  183.2450  178.5760  144.0570 C   0  0  2  0  0  3  0  0  0  0  0  0
  180.6270  177.9820  137.3360 C   0  0  0  0  0  0  0  0  0  0  0  0
  180.1670  177.5570  139.6250 C   0  0  0  0  0  0  0  0  0  0  0  0
  185.1610  178.5470  142.2970 C   0  0  1  0  0  3  0  0  0  0  0  0
  183.5820  179.2380  139.3350 C   0  0  1  0  0  3  0  0  0  0  0  0
  180.7920  179.0790  143.7640 C   0  0  0  0  0  0  0  0  0  0  0  0
  180.5370  177.9320  144.2240 O   0  0  0  0  0  0  0  0  0  0  0  0
  179.7560  179.9810  143.5390 O   0  0  0  0  0  0  0  0  0  0  0  0
  179.3960  180.3090  142.2910 O   0  0  0  0  0  1  0  0  0  0  0  0
  187.1890  178.0000  139.1170 C   0  0  1  0  0  3  0  0  0  0  0  0
  188.5130  178.8010  137.1020 C   0  0  0  0  0  1  0  0  0  0  0  0
  187.1660  178.3090  137.6150 C   0  0  0  0  0  2  0  0  0  0  0  0
  188.4520  178.5940  139.7390 C   0  0  0  0  0  2  0  0  0  0  0  0
  188.9940  177.7180  140.6830 O   0  0  0  0  0  0  0  0  0  0  0  0
  189.0750  178.4720  141.8530 C   0  0  0  0  0  2  0  0  0  0  0  0
  189.6110  177.6160  142.9890 C   0  0  1  0  0  3  0  0  0  0  0  0
  188.0020  177.5210  144.7710 O   0  0  0  0  0  1  0  0  0  0  0  0
  188.4710  176.9860  143.7310 C   0  0  0  0  0  0  0  0  0  0  0  0
  187.9160  175.7980  143.2630 O   0  0  0  0  0  0  0  0  0  0  0  0
  190.4760  176.6410  142.4790 O   0  0  0  0  0  0  0  0  0  0  0  0
  191.7580  177.1530  142.6940 C   0  0  0  0  0  1  0  0  0  0  0  0
  184.2400  179.4040  144.8670 C   0  0  0  0  0  2  0  0  0  0  0  0
  184.8550  178.5710  145.9790 C   0  0  0  0  0  2  0  0  0  0  0  0
  185.3850  179.4050  146.9650 O   0  0  0  0  0  1  0  0  0  0  0  0
  1 16  1  0  0  0  0
  2 14  1  0  0  0  0
  3 20  1  0  0  0  0
  3 12  1  0  0  0  0
  4  1  1  0  0  0  0
  4  9  1  0  0  0  0
  5 17  1  0  0  0  0
  6 20  1  0  0  0  0
  7 20  1  0  0  0  0
  7  2  2  0  0  0  0
  8  7  1  0  0  0  0
  9 21  1  0  0  0  0
  9 16  1  0  0  0  0
 11 19  1  0  0  0  0
 12 11  1  0  0  0  0
 13 18  2  0  0  0  0
 14  4  1  0  0  0  0
 15 19  1  0  0  0  0
 16 37  1  0  0  0  0
 17  8  2  0  0  0  0
 17 13  1  0  0  0  0
 18  2  1  0  0  0  0
 18 10  1  0  0  0  0
 19  1  1  0  0  0  0
 21 22  2  0  0  0  0
 23 21  1  0  0  0  0
 24 23  1  0  0  0  0
 25 28  1  0  0  0  0
 25 12  1  0  0  0  0
 26 27  1  0  0  0  0
 27 25  1  0  0  0  0
 28 29  1  0  0  0  0
 29 30  1  0  0  0  0
 30 31  1  0  0  0  0
 31 33  1  0  0  0  0
 33 32  1  0  0  0  0
 34 33  2  0  0  0  0
 35 36  1  0  0  0  0
 35 31  1  0  0  0  0
 37 38  1  0  0  0  0
 38 39  1  0  0  0  0
M  END
>  <MODEL>
2

>  <REMARK>
 VINA RESULT:      -5.2      4.663      7.989
  Name = 
  12 active torsions:
  status: ('A' for Active; 'I' for Inactive)
    1  A    between atoms: C_1  and  C_34
    2  A    between atoms: O_5  and  C_9
    3  A    between atoms: O_5  and  C_18
    4  A    between atoms: C_7  and  O_10
    5  A    between atoms: C_7  and  C_20
    6  A    between atoms: C_9  and  C_12
    7  A    between atoms: C_12  and  C_24
    8  A    between atoms: C_12  and  C_29
    9  A    between atoms: C_13  and  C_38
   10  A    between atoms: O_17  and  C_38
   11  A    between atoms: C_18  and  C_38
   12  A    between atoms: C_28  and  C_34
                            x       y       z     vdW  Elec       q    Type
                         _______ _______ _______ _____ _____    ______ ____

>  <TORSDO>
F 12

$$$$
=
 OpenBabel11062417563D

 39 41  0  0  1  0  0  0  0  0999 V2000
  185.8970  177.8820  141.6610 C   0  0  2  0  0  3  0  0  0  0  0  0
  185.9760  177.2540  138.1830 C   0  0  0  0  0  0  0  0  0  0  0  0
  189.1030  177.1070  139.6950 C   0  0  0  0  0  2  0  0  0  0  0  0
  185.7050  178.5730  140.3140 C   0  0  2  0  0  3  0  0  0  0  0  0
  187.8040  176.0270  134.5940 N   0  0  0  0  0  1  0  0  0  0  0  0
  189.0250  179.3090  138.4950 C   0  0  0  0  0  1  0  0  0  0  0  0
  187.3550  177.5120  137.9770 C   0  0  0  0  0  0  0  0  0  0  0  0
  187.9580  177.0900  136.7820 C   0  0  0  0  0  3  0  0  0  0  0  0
  184.5250  179.3660  140.8980 C   0  0  2  0  0  3  0  0  0  0  0  0
  183.8700  176.3200  137.3400 N   0  0  0  0  0  1  0  0  0  0  0  0
  188.2840  177.0930  142.0430 C   0  0  0  0  0  2  0  0  0  0  0  0
  189.4330  177.5200  141.1260 C   0  0  1  0  0  3  0  0  0  0  0  0
  185.8790  176.2070  136.0250 N   0  0  0  0  0  0  0  0  0  0  0  0
  185.2740  177.6160  139.3460 O   0  0  0  0  0  0  0  0  0  0  0  0
  187.7320  179.4730  142.0220 O   0  0  0  0  0  1  0  0  0  0  0  0
  184.6940  178.6490  142.2310 C   0  0  2  0  0  3  0  0  0  0  0  0
  187.1980  176.4420  135.8100 C   0  0  0  0  0  0  0  0  0  0  0  0
  185.2610  176.5880  137.1740 C   0  0  0  0  0  0  0  0  0  0  0  0
  187.2530  178.1900  142.3240 C   0  0  1  0  0  3  0  0  0  0  0  0
  188.2100  178.1430  139.0340 C   0  0  1  0  0  3  0  0  0  0  0  0
  183.2000  179.0710  140.2450 C   0  0  0  0  0  0  0  0  0  0  0  0
  182.4240  178.1950  140.7180 O   0  0  0  0  0  0  0  0  0  0  0  0
  182.8550  179.7450  139.0780 O   0  0  0  0  0  0  0  0  0  0  0  0
  183.4740  180.8830  138.7380 O   0  0  0  0  0  1  0  0  0  0  0  0
  190.7560  176.8820  141.5870 C   0  0  1  0  0  3  0  0  0  0  0  0
  192.8180  177.5680  140.2690 C   0  0  0  0  0  1  0  0  0  0  0  0
  191.6890  176.5570  140.4140 C   0  0  0  0  0  2  0  0  0  0  0  0
  191.4960  177.7600  142.5950 C   0  0  0  0  0  2  0  0  0  0  0  0
  191.6500  177.0890  143.8110 O   0  0  0  0  0  0  0  0  0  0  0  0
  190.8910  177.8310  144.7170 C   0  0  0  0  0  2  0  0  0  0  0  0
  190.3970  176.9320  145.8390 C   0  0  1  0  0  3  0  0  0  0  0  0
  191.8480  177.1360  147.7440 O   0  0  0  0  0  1  0  0  0  0  0  0
  191.5520  176.5050  146.6940 C   0  0  0  0  0  0  0  0  0  0  0  0
  192.3040  175.3920  146.3300 O   0  0  0  0  0  0  0  0  0  0  0  0
  189.4350  177.6080  146.5980 O   0  0  0  0  0  0  0  0  0  0  0  0
  188.2750  177.5690  145.8220 C   0  0  0  0  0  1  0  0  0  0  0  0
  185.0120  179.6480  143.3420 C   0  0  0  0  0  2  0  0  0  0  0  0
  184.6590  179.0710  144.7030 C   0  0  0  0  0  2  0  0  0  0  0  0
  183.2930  178.7920  144.7640 O   0  0  0  0  0  1  0  0  0  0  0  0
  1 16  1  0  0  0  0
  1 19  1  0  0  0  0
  2 14  1  0  0  0  0
  3 12  1  0  0  0  0
  4  9  1  0  0  0  0
  4  1  1  0  0  0  0
  5 17  1  0  0  0  0
  6 20  1  0  0  0  0
  7  2  1  0  0  0  0
  7 20  1  0  0  0  0
  8  7  2  0  0  0  0
  9 16  1  0  0  0  0
 11 19  1  0  0  0  0
 12 25  1  0  0  0  0
 12 11  1  0  0  0  0
 13 18  1  0  0  0  0
 14  4  1  0  0  0  0
 15 19  1  0  0  0  0
 16 37  1  0  0  0  0
 17 13  2  0  0  0  0
 17  8  1  0  0  0  0
 18 10  1  0  0  0  0
 18  2  2  0  0  0  0
 20  3  1  0  0  0  0
 21 22  2  0  0  0  0
 21  9  1  0  0  0  0
 23 21  1  0  0  0  0
 24 23  1  0  0  0  0
 25 28  1  0  0  0  0
 26 27  1  0  0  0  0
 27 25  1  0  0  0  0
 28 29  1  0  0  0  0
 29 30  1  0  0  0  0
 30 31  1  0  0  0  0
 31 35  1  0  0  0  0
 31 33  1  0  0  0  0
 33 32  1  0  0  0  0
 34 33  2  0  0  0  0
 36 35  1  0  0  0  0
 37 38  1  0  0  0  0
 38 39  1  0  0  0  0
M  END
>  <MODEL>
3

>  <REMARK>
 VINA RESULT:      -5.2      4.126      7.380
  Name = 
  12 active torsions:
  status: ('A' for Active; 'I' for Inactive)
    1  A    between atoms: C_1  and  C_34
    2  A    between atoms: O_5  and  C_9
    3  A    between atoms: O_5  and  C_18
    4  A    between atoms: C_7  and  O_10
    5  A    between atoms: C_7  and  C_20
    6  A    between atoms: C_9  and  C_12
    7  A    between atoms: C_12  and  C_24
    8  A    between atoms: C_12  and  C_29
    9  A    between atoms: C_13  and  C_38
   10  A    between atoms: O_17  and  C_38
   11  A    between atoms: C_18  and  C_38
   12  A    between atoms: C_28  and  C_34
                            x       y       z     vdW  Elec       q    Type
                         _______ _______ _______ _____ _____    ______ ____

>  <TORSDO>
F 12

$$$$
=
 OpenBabel11062417563D

 39 41  0  0  1  0  0  0  0  0999 V2000
  183.3510  174.3280  137.5130 C   0  0  2  0  0  3  0  0  0  0  0  0
  186.8060  174.5360  136.7950 C   0  0  0  0  0  0  0  0  0  0  0  0
  185.4170  177.5480  137.8360 C   0  0  0  0  0  2  0  0  0  0  0  0
  184.3390  174.2760  136.3500 C   0  0  2  0  0  3  0  0  0  0  0  0
  190.5660  176.4330  136.7760 N   0  0  0  0  0  1  0  0  0  0  0  0
  185.6950  177.7450  135.3510 C   0  0  0  0  0  1  0  0  0  0  0  0
  186.8790  175.9430  136.6290 C   0  0  0  0  0  0  0  0  0  0  0  0
  188.1360  176.5670  136.6350 C   0  0  0  0  0  3  0  0  0  0  0  0
  183.5150  173.1460  135.7110 C   0  0  2  0  0  3  0  0  0  0  0  0
  187.9710  172.4010  137.1100 N   0  0  0  0  0  1  0  0  0  0  0  0
  183.2620  176.6050  138.6410 C   0  0  0  0  0  2  0  0  0  0  0  0
  183.9320  177.8370  138.0280 C   0  0  1  0  0  3  0  0  0  0  0  0
  189.2010  174.4580  136.9380 N   0  0  0  0  0  0  0  0  0  0  0  0
  185.6030  173.8090  136.8220 O   0  0  0  0  0  0  0  0  0  0  0  0
  182.3880  176.2830  136.3820 O   0  0  0  0  0  1  0  0  0  0  0  0
  182.5500  173.1740  136.8900 C   0  0  2  0  0  3  0  0  0  0  0  0
  189.2920  175.8030  136.7840 C   0  0  0  0  0  0  0  0  0  0  0  0
  188.0030  173.8170  136.9510 C   0  0  0  0  0  0  0  0  0  0  0  0
  182.6010  175.6690  137.6240 C   0  0  1  0  0  3  0  0  0  0  0  0
  185.6500  176.7950  136.5380 C   0  0  1  0  0  3  0  0  0  0  0  0
  184.2510  171.8370  135.5950 C   0  0  0  0  0  0  0  0  0  0  0  0
  185.1350  171.6650  134.7110 O   0  0  0  0  0  0  0  0  0  0  0  0
  183.9140  170.7920  136.4500 O   0  0  0  0  0  0  0  0  0  0  0  0
  183.0810  169.8230  136.0480 O   0  0  0  0  0  1  0  0  0  0  0  0
  183.7270  179.0670  138.9320 C   0  0  1  0  0  3  0  0  0  0  0  0
  181.6430  179.6510  137.6010 C   0  0  0  0  0  1  0  0  0  0  0  0
  182.2620  179.5160  138.9860 C   0  0  0  0  0  2  0  0  0  0  0  0
  184.2380  178.8270  140.3520 C   0  0  0  0  0  2  0  0  0  0  0  0
  185.3210  179.6630  140.6330 O   0  0  0  0  0  0  0  0  0  0  0  0
  185.6810  179.3410  141.9420 C   0  0  0  0  0  2  0  0  0  0  0  0
  186.5150  178.0710  141.9540 C   0  0  1  0  0  3  0  0  0  0  0  0
  188.8960  178.2840  142.2020 O   0  0  0  0  0  1  0  0  0  0  0  0
  187.8930  178.3630  141.4420 C   0  0  0  0  0  0  0  0  0  0  0  0
  188.0720  178.7200  140.1090 O   0  0  0  0  0  0  0  0  0  0  0  0
  186.5640  177.5480  143.2520 O   0  0  0  0  0  0  0  0  0  0  0  0
  185.5220  178.1830  143.9320 C   0  0  0  0  0  1  0  0  0  0  0  0
  181.1390  173.5240  136.4210 C   0  0  0  0  0  2  0  0  0  0  0  0
  180.1000  172.7440  137.2110 C   0  0  0  0  0  2  0  0  0  0  0  0
  180.6870  171.6200  137.7930 O   0  0  0  0  0  1  0  0  0  0  0  0
  1 19  1  0  0  0  0
  2 14  1  0  0  0  0
  2 18  1  0  0  0  0
  3 12  1  0  0  0  0
  4 14  1  0  0  0  0
  4  1  1  0  0  0  0
  5 17  1  0  0  0  0
  6 20  1  0  0  0  0
  7  8  1  0  0  0  0
  7  2  2  0  0  0  0
  8 17  2  0  0  0  0
  9  4  1  0  0  0  0
  9 16  1  0  0  0  0
 12 11  1  0  0  0  0
 12 25  1  0  0  0  0
 13 18  2  0  0  0  0
 15 19  1  0  0  0  0
 16  1  1  0  0  0  0
 17 13  1  0  0  0  0
 18 10  1  0  0  0  0
 19 11  1  0  0  0  0
 20  7  1  0  0  0  0
 20  3  1  0  0  0  0
 21  9  1  0  0  0  0
 21 23  1  0  0  0  0
 22 21  2  0  0  0  0
 24 23  1  0  0  0  0
 25 27  1  0  0  0  0
 25 28  1  0  0  0  0
 26 27  1  0  0  0  0
 28 29  1  0  0  0  0
 29 30  1  0  0  0  0
 30 31  1  0  0  0  0
 31 35  1  0  0  0  0
 33 31  1  0  0  0  0
 33 32  1  0  0  0  0
 34 33  2  0  0  0  0
 35 36  1  0  0  0  0
 37 16  1  0  0  0  0
 37 38  1  0  0  0  0
 38 39  1  0  0  0  0
M  END
>  <MODEL>
4

>  <REMARK>
 VINA RESULT:      -5.1      5.291      9.397
  Name = 
  12 active torsions:
  status: ('A' for Active; 'I' for Inactive)
    1  A    between atoms: C_1  and  C_34
    2  A    between atoms: O_5  and  C_9
    3  A    between atoms: O_5  and  C_18
    4  A    between atoms: C_7  and  O_10
    5  A    between atoms: C_7  and  C_20
    6  A    between atoms: C_9  and  C_12
    7  A    between atoms: C_12  and  C_24
    8  A    between atoms: C_12  and  C_29
    9  A    between atoms: C_13  and  C_38
   10  A    between atoms: O_17  and  C_38
   11  A    between atoms: C_18  and  C_38
   12  A    between atoms: C_28  and  C_34
                            x       y       z     vdW  Elec       q    Type
                         _______ _______ _______ _____ _____    ______ ____

>  <TORSDO>
F 12

$$$$
=
 OpenBabel11062417563D

 39 41  0  0  1  0  0  0  0  0999 V2000
  189.6690  177.9500  139.7230 C   0  0  2  0  0  3  0  0  0  0  0  0
  186.4220  178.4050  141.0440 C   0  0  0  0  0  0  0  0  0  0  0  0
  188.8560  177.9070  143.4760 C   0  0  0  0  0  2  0  0  0  0  0  0
  188.3070  177.2660  139.8200 C   0  0  2  0  0  3  0  0  0  0  0  0
  183.6470  179.0470  144.1460 N   0  0  0  0  0  1  0  0  0  0  0  0
  187.6180  175.7330  143.2910 C   0  0  0  0  0  1  0  0  0  0  0  0
  186.6570  177.8360  142.3220 C   0  0  0  0  0  0  0  0  0  0  0  0
  185.7320  178.0650  143.3520 C   0  0  0  0  0  3  0  0  0  0  0  0
  188.4570  176.7810  138.3690 C   0  0  2  0  0  3  0  0  0  0  0  0
  184.9840  179.7530  139.5830 N   0  0  0  0  0  1  0  0  0  0  0  0
  190.8190  178.1980  141.9770 C   0  0  0  0  0  2  0  0  0  0  0  0
  190.3020  177.4880  143.2310 C   0  0  1  0  0  3  0  0  0  0  0  0
  184.3830  179.3600  141.8770 N   0  0  0  0  0  0  0  0  0  0  0  0
  187.2870  178.2560  139.9460 O   0  0  0  0  0  0  0  0  0  0  0  0
  190.5400  176.0030  140.9400 O   0  0  0  0  0  1  0  0  0  0  0  0
  189.7990  177.4940  138.2610 C   0  0  2  0  0  3  0  0  0  0  0  0
  184.5920  178.8270  143.1070 C   0  0  0  0  0  0  0  0  0  0  0  0
  185.2610  179.1730  140.8560 C   0  0  0  0  0  0  0  0  0  0  0  0
  190.7180  177.3720  140.6920 C   0  0  1  0  0  3  0  0  0  0  0  0
  187.9090  177.0730  142.6310 C   0  0  1  0  0  3  0  0  0  0  0  0
  187.4260  177.3400  137.4230 C   0  0  0  0  0  0  0  0  0  0  0  0
  187.4720  178.5450  137.0510 O   0  0  0  0  0  0  0  0  0  0  0  0
  186.3860  176.5210  136.9940 O   0  0  0  0  0  0  0  0  0  0  0  0
  186.4180  175.2010  137.2200 O   0  0  0  0  0  1  0  0  0  0  0  0
  191.1830  177.8310  144.4460 C   0  0  1  0  0  3  0  0  0  0  0  0
  191.3400  180.3570  144.6830 C   0  0  0  0  0  1  0  0  0  0  0  0
  192.0360  179.0850  144.2160 C   0  0  0  0  0  2  0  0  0  0  0  0
  190.3590  178.0050  145.7210 C   0  0  0  0  0  2  0  0  0  0  0  0
  190.3180  176.8110  146.4470 O   0  0  0  0  0  0  0  0  0  0  0  0
  189.0260  176.7670  146.9730 C   0  0  0  0  0  2  0  0  0  0  0  0
  188.4740  178.1760  147.1150 C   0  0  1  0  0  3  0  0  0  0  0  0
  186.3280  179.2340  146.8900 O   0  0  0  0  0  1  0  0  0  0  0  0
  187.0220  178.1920  146.7430 C   0  0  0  0  0  0  0  0  0  0  0  0
  186.4320  177.0450  146.2200 O   0  0  0  0  0  0  0  0  0  0  0  0
  188.6600  178.6280  148.4260 O   0  0  0  0  0  0  0  0  0  0  0  0
  187.9310  177.7370  149.2180 C   0  0  0  0  0  1  0  0  0  0  0  0
  190.9170  176.4940  137.9760 C   0  0  0  0  0  2  0  0  0  0  0  0
  191.1670  176.3780  136.4800 C   0  0  0  0  0  2  0  0  0  0  0  0
  191.1320  175.0370  136.0930 O   0  0  0  0  0  1  0  0  0  0  0  0
  1  4  1  0  0  0  0
  1 19  1  0  0  0  0
  2  7  1  0  0  0  0
  4 14  1  0  0  0  0
  7 20  1  0  0  0  0
  7  8  2  0  0  0  0
  9  4  1  0  0  0  0
 10 18  1  0  0  0  0
 11 12  1  0  0  0  0
 12  3  1  0  0  0  0
 12 25  1  0  0  0  0
 13 17  2  0  0  0  0
 14  2  1  0  0  0  0
 16  9  1  0  0  0  0
 16  1  1  0  0  0  0
 17  8  1  0  0  0  0
 17  5  1  0  0  0  0
 18  2  2  0  0  0  0
 18 13  1  0  0  0  0
 19 15  1  0  0  0  0
 19 11  1  0  0  0  0
 20  6  1  0  0  0  0
 20  3  1  0  0  0  0
 21  9  1  0  0  0  0
 22 21  2  0  0  0  0
 23 24  1  0  0  0  0
 23 21  1  0  0  0  0
 25 28  1  0  0  0  0
 27 25  1  0  0  0  0
 27 26  1  0  0  0  0
 28 29  1  0  0  0  0
 29 30  1  0  0  0  0
 30 31  1  0  0  0  0
 31 35  1  0  0  0  0
 33 32  1  0  0  0  0
 33 31  1  0  0  0  0
 34 33  2  0  0  0  0
 35 36  1  0  0  0  0
 37 16  1  0  0  0  0
 38 37  1  0  0  0  0
 39 38  1  0  0  0  0
M  END
>  <MODEL>
5

>  <REMARK>
 VINA RESULT:      -5.1      2.990      7.671
  Name = 
  12 active torsions:
  status: ('A' for Active; 'I' for Inactive)
    1  A    between atoms: C_1  and  C_34
    2  A    between atoms: O_5  and  C_9
    3  A    between atoms: O_5  and  C_18
    4  A    between atoms: C_7  and  O_10
    5  A    between atoms: C_7  and  C_20
    6  A    between atoms: C_9  and  C_12
    7  A    between atoms: C_12  and  C_24
    8  A    between atoms: C_12  and  C_29
    9  A    between atoms: C_13  and  C_38
   10  A    between atoms: O_17  and  C_38
   11  A    between atoms: C_18  and  C_38
   12  A    between atoms: C_28  and  C_34
                            x       y       z     vdW  Elec       q    Type
                         _______ _______ _______ _____ _____    ______ ____

>  <TORSDO>
F 12

$$$$
=
 OpenBabel11062417563D

 39 41  0  0  1  0  0  0  0  0999 V2000
  189.5590  176.5970  144.1600 C   0  0  2  0  0  3  0  0  0  0  0  0
  186.4950  178.0680  143.1880 C   0  0  0  0  0  0  0  0  0  0  0  0
  188.6390  177.4330  140.5270 C   0  0  0  0  0  2  0  0  0  0  0  0
  188.7770  177.9060  144.2460 C   0  0  2  0  0  3  0  0  0  0  0  0
  183.6040  179.3050  140.3870 N   0  0  0  0  0  1  0  0  0  0  0  0
  188.7820  179.9020  140.9470 C   0  0  0  0  0  1  0  0  0  0  0  0
  186.9100  178.5470  141.9200 C   0  0  0  0  0  0  0  0  0  0  0  0
  185.9390  178.9470  140.9890 C   0  0  0  0  0  3  0  0  0  0  0  0
  189.2640  178.0920  145.6930 C   0  0  2  0  0  3  0  0  0  0  0  0
  184.6630  177.5540  144.7370 N   0  0  0  0  0  1  0  0  0  0  0  0
  190.2360  175.9990  141.7830 C   0  0  0  0  0  2  0  0  0  0  0  0
  190.0970  176.9940  140.6280 C   0  0  1  0  0  3  0  0  0  0  0  0
  184.2110  178.4290  142.5450 N   0  0  0  0  0  0  0  0  0  0  0  0
  187.3780  177.6260  144.1890 O   0  0  0  0  0  0  0  0  0  0  0  0
  191.2540  177.8930  142.9440 O   0  0  0  0  0  1  0  0  0  0  0  0
  190.0140  176.7680  145.6180 C   0  0  2  0  0  3  0  0  0  0  0  0
  184.5880  178.8870  141.3240 C   0  0  0  0  0  0  0  0  0  0  0  0
  185.1190  178.0200  143.4690 C   0  0  0  0  0  0  0  0  0  0  0  0
  190.6850  176.6220  143.1080 C   0  0  1  0  0  3  0  0  0  0  0  0
  188.3520  178.5550  141.5090 C   0  0  1  0  0  3  0  0  0  0  0  0
  188.1620  178.0760  146.7200 C   0  0  0  0  0  0  0  0  0  0  0  0
  187.1910  178.8780  146.6440 O   0  0  0  0  0  0  0  0  0  0  0  0
  188.2480  177.1920  147.7920 O   0  0  0  0  0  0  0  0  0  0  0  0
  187.9290  177.5880  149.0310 O   0  0  0  0  0  1  0  0  0  0  0  0
  190.5680  176.3570  139.3080 C   0  0  1  0  0  3  0  0  0  0  0  0
  189.0440  175.6000  137.4210 C   0  0  0  0  0  1  0  0  0  0  0  0
  189.7070  176.7840  138.1130 C   0  0  0  0  0  2  0  0  0  0  0  0
  192.0350  176.6650  139.0130 C   0  0  0  0  0  2  0  0  0  0  0  0
  192.3760  176.2460  137.7250 O   0  0  0  0  0  0  0  0  0  0  0  0
  192.7360  174.9060  137.8780 C   0  0  0  0  0  2  0  0  0  0  0  0
  194.1910  174.7100  137.4830 C   0  0  1  0  0  3  0  0  0  0  0  0
  193.9550  174.9020  135.0990 O   0  0  0  0  0  0  0  0  0  0  0  0
  194.4510  175.3660  136.1610 C   0  0  0  0  0  0  0  0  0  0  0  0
  195.2440  176.5080  136.1020 O   0  0  0  0  0  1  0  0  0  0  0  0
  195.0260  175.2340  138.4750 O   0  0  0  0  0  0  0  0  0  0  0  0
  195.7190  174.1310  138.9790 C   0  0  0  0  0  1  0  0  0  0  0  0
  191.5120  176.9880  145.8220 C   0  0  0  0  0  2  0  0  0  0  0  0
  192.0680  175.9980  146.8330 C   0  0  0  0  0  2  0  0  0  0  0  0
  192.2940  176.6360  148.0530 O   0  0  0  0  0  1  0  0  0  0  0  0
  1  4  1  0  0  0  0
  1 16  1  0  0  0  0
  2 18  1  0  0  0  0
  2 14  1  0  0  0  0
  3 12  1  0  0  0  0
  3 20  1  0  0  0  0
  4  9  1  0  0  0  0
  5 17  1  0  0  0  0
  6 20  1  0  0  0  0
  7  2  2  0  0  0  0
  8 17  2  0  0  0  0
  8  7  1  0  0  0  0
  9 21  1  0  0  0  0
 11 19  1  0  0  0  0
 12 11  1  0  0  0  0
 13 18  2  0  0  0  0
 14  4  1  0  0  0  0
 15 19  1  0  0  0  0
 16  9  1  0  0  0  0
 16 37  1  0  0  0  0
 17 13  1  0  0  0  0
 18 10  1  0  0  0  0
 19  1  1  0  0  0  0
 20  7  1  0  0  0  0
 21 23  1  0  0  0  0
 22 21  2  0  0  0  0
 23 24  1  0  0  0  0
 25 12  1  0  0  0  0
 26 27  1  0  0  0  0
 27 25  1  0  0  0  0
 28 25  1  0  0  0  0
 29 30  1  0  0  0  0
 29 28  1  0  0  0  0
 31 30  1  0  0  0  0
 31 35  1  0  0  0  0
 32 33  2  0  0  0  0
 33 31  1  0  0  0  0
 34 33  1  0  0  0  0
 35 36  1  0  0  0  0
 37 38  1  0  0  0  0
 38 39  1  0  0  0  0
M  END
>  <MODEL>
6

>  <REMARK>
 VINA RESULT:      -5.1      3.269      5.960
  Name = 
  12 active torsions:
  status: ('A' for Active; 'I' for Inactive)
    1  A    between atoms: C_1  and  C_34
    2  A    between atoms: O_5  and  C_9
    3  A    between atoms: O_5  and  C_18
    4  A    between atoms: C_7  and  O_10
    5  A    between atoms: C_7  and  C_20
    6  A    between atoms: C_9  and  C_12
    7  A    between atoms: C_12  and  C_24
    8  A    between atoms: C_12  and  C_29
    9  A    between atoms: C_13  and  C_38
   10  A    between atoms: O_17  and  C_38
   11  A    between atoms: C_18  and  C_38
   12  A    between atoms: C_28  and  C_34
                            x       y       z     vdW  Elec       q    Type
                         _______ _______ _______ _____ _____    ______ ____

>  <TORSDO>
F 12

$$$$
=
 OpenBabel11062417563D

 39 41  0  0  1  0  0  0  0  0999 V2000
  185.8380  179.1890  141.8900 C   0  0  2  0  0  3  0  0  0  0  0  0
  186.8550  178.2650  145.1470 C   0  0  0  0  0  0  0  0  0  0  0  0
  189.3040  177.7640  142.7310 C   0  0  0  0  0  2  0  0  0  0  0  0
  185.5790  178.1480  142.9770 C   0  0  2  0  0  3  0  0  0  0  0  0
  189.6730  177.0990  148.0510 N   0  0  0  0  0  1  0  0  0  0  0  0
  188.3640  175.4930  143.2360 C   0  0  0  0  0  1  0  0  0  0  0  0
  187.9340  177.4240  144.7760 C   0  0  0  0  0  0  0  0  0  0  0  0
  188.8740  177.0490  145.7490 C   0  0  0  0  0  3  0  0  0  0  0  0
  184.0770  178.1970  142.6540 C   0  0  2  0  0  3  0  0  0  0  0  0
  185.6860  179.5250  146.8980 N   0  0  0  0  0  1  0  0  0  0  0  0
  188.1850  179.0510  140.9210 C   0  0  0  0  0  2  0  0  0  0  0  0
  189.1160  177.8730  141.2210 C   0  0  1  0  0  3  0  0  0  0  0  0
  187.6870  178.2910  147.3980 N   0  0  0  0  0  0  0  0  0  0  0  0
  185.8660  178.7160  144.2550 O   0  0  0  0  0  0  0  0  0  0  0  0
  186.5390  177.2980  140.4880 O   0  0  0  0  0  1  0  0  0  0  0  0
  184.3320  179.2620  141.5950 C   0  0  2  0  0  3  0  0  0  0  0  0
  188.7290  177.4890  147.0620 C   0  0  0  0  0  0  0  0  0  0  0  0
  186.7630  178.6870  146.4840 C   0  0  0  0  0  0  0  0  0  0  0  0
  186.7150  178.6670  140.7350 C   0  0  1  0  0  3  0  0  0  0  0  0
  188.1530  176.9950  143.3570 C   0  0  1  0  0  3  0  0  0  0  0  0
  183.2200  178.6990  143.7860 C   0  0  0  0  0  0  0  0  0  0  0  0
  183.3470  178.2350  144.9520 O   0  0  0  0  0  0  0  0  0  0  0  0
  182.2450  179.6570  143.5240 O   0  0  0  0  0  0  0  0  0  0  0  0
  181.0120  179.2930  143.1490 O   0  0  0  0  0  1  0  0  0  0  0  0
  190.4710  178.0630  140.5150 C   0  0  1  0  0  3  0  0  0  0  0  0
  192.9200  177.3840  140.5020 C   0  0  0  0  0  1  0  0  0  0  0  0
  191.6370  177.4720  141.3180 C   0  0  0  0  0  2  0  0  0  0  0  0
  190.4730  177.4710  139.1070 C   0  0  0  0  0  2  0  0  0  0  0  0
  189.3640  176.6400  138.9220 O   0  0  0  0  0  0  0  0  0  0  0  0
  189.0170  176.8140  137.5820 C   0  0  0  0  0  2  0  0  0  0  0  0
  187.5400  176.5160  137.3840 C   0  0  1  0  0  3  0  0  0  0  0  0
  185.5290  177.7960  137.0760 O   0  0  0  0  0  0  0  0  0  0  0  0
  186.7840  177.7970  137.1970 C   0  0  0  0  0  0  0  0  0  0  0  0
  187.4730  179.0050  137.1620 O   0  0  0  0  0  1  0  0  0  0  0  0
  187.3710  175.6690  136.2830 O   0  0  0  0  0  0  0  0  0  0  0  0
  186.7470  174.5310  136.7990 C   0  0  0  0  0  1  0  0  0  0  0  0
  183.9020  178.7630  140.2170 C   0  0  0  0  0  2  0  0  0  0  0  0
  183.0660  179.8110  139.5010 C   0  0  0  0  0  2  0  0  0  0  0  0
  182.1170  179.1920  138.6860 O   0  0  0  0  0  1  0  0  0  0  0  0
  1  4  1  0  0  0  0
  2 18  1  0  0  0  0
  3 20  1  0  0  0  0
  4 14  1  0  0  0  0
  6 20  1  0  0  0  0
  7  2  2  0  0  0  0
  7  8  1  0  0  0  0
  8 17  2  0  0  0  0
  9  4  1  0  0  0  0
  9 21  1  0  0  0  0
 11 12  1  0  0  0  0
 12  3  1  0  0  0  0
 14  2  1  0  0  0  0
 15 19  1  0  0  0  0
 16  1  1  0  0  0  0
 16  9  1  0  0  0  0
 17 13  1  0  0  0  0
 17  5  1  0  0  0  0
 18 10  1  0  0  0  0
 18 13  2  0  0  0  0
 19 11  1  0  0  0  0
 19  1  1  0  0  0  0
 20  7  1  0  0  0  0
 21 22  2  0  0  0  0
 23 21  1  0  0  0  0
 24 23  1  0  0  0  0
 25 12  1  0  0  0  0
 25 27  1  0  0  0  0
 26 27  1  0  0  0  0
 28 25  1  0  0  0  0
 29 28  1  0  0  0  0
 30 29  1  0  0  0  0
 31 30  1  0  0  0  0
 32 33  2  0  0  0  0
 33 31  1  0  0  0  0
 34 33  1  0  0  0  0
 35 36  1  0  0  0  0
 35 31  1  0  0  0  0
 37 16  1  0  0  0  0
 38 37  1  0  0  0  0
 39 38  1  0  0  0  0
M  END
>  <MODEL>
7

>  <REMARK>
 VINA RESULT:      -4.9      1.788      2.826
  Name = 
  12 active torsions:
  status: ('A' for Active; 'I' for Inactive)
    1  A    between atoms: C_1  and  C_34
    2  A    between atoms: O_5  and  C_9
    3  A    between atoms: O_5  and  C_18
    4  A    between atoms: C_7  and  O_10
    5  A    between atoms: C_7  and  C_20
    6  A    between atoms: C_9  and  C_12
    7  A    between atoms: C_12  and  C_24
    8  A    between atoms: C_12  and  C_29
    9  A    between atoms: C_13  and  C_38
   10  A    between atoms: O_17  and  C_38
   11  A    between atoms: C_18  and  C_38
   12  A    between atoms: C_28  and  C_34
                            x       y       z     vdW  Elec       q    Type
                         _______ _______ _______ _____ _____    ______ ____

>  <TORSDO>
F 12

$$$$
=
 OpenBabel11062417563D

 39 41  0  0  1  0  0  0  0  0999 V2000
  187.6280  178.5290  142.9080 C   0  0  2  0  0  3  0  0  0  0  0  0
  189.4660  177.3630  145.6930 C   0  0  0  0  0  0  0  0  0  0  0  0
  191.1790  177.0850  142.6800 C   0  0  0  0  0  2  0  0  0  0  0  0
  187.6580  177.4030  143.9380 C   0  0  2  0  0  3  0  0  0  0  0  0
  192.9450  176.0060  147.6390 N   0  0  0  0  0  1  0  0  0  0  0  0
  190.3870  174.7700  143.2340 C   0  0  0  0  0  1  0  0  0  0  0  0
  190.4000  176.5670  144.9820 C   0  0  0  0  0  0  0  0  0  0  0  0
  191.5620  176.1280  145.6360 C   0  0  0  0  0  3  0  0  0  0  0  0
  186.1250  177.4580  144.0310 C   0  0  2  0  0  3  0  0  0  0  0  0
  188.8180  178.4660  147.7860 N   0  0  0  0  0  1  0  0  0  0  0  0
  189.6310  178.4980  141.3410 C   0  0  0  0  0  2  0  0  0  0  0  0
  190.5970  177.3120  141.2880 C   0  0  1  0  0  3  0  0  0  0  0  0
  190.8680  177.2210  147.6360 N   0  0  0  0  0  0  0  0  0  0  0  0
  188.2800  177.8700  145.1340 O   0  0  0  0  0  0  0  0  0  0  0  0
  187.9120  176.7640  141.2240 O   0  0  0  0  0  1  0  0  0  0  0  0
  186.0980  178.6070  143.0310 C   0  0  2  0  0  3  0  0  0  0  0  0
  191.7760  176.4610  146.9720 C   0  0  0  0  0  0  0  0  0  0  0  0
  189.7380  177.6760  147.0350 C   0  0  0  0  0  0  0  0  0  0  0  0
  188.1600  178.1120  141.5230 C   0  0  1  0  0  3  0  0  0  0  0  0
  190.2290  176.2550  143.5260 C   0  0  1  0  0  3  0  0  0  0  0  0
  185.6040  177.8590  145.3870 C   0  0  0  0  0  0  0  0  0  0  0  0
  185.7880  177.1240  146.3960 O   0  0  0  0  0  0  0  0  0  0  0  0
  184.8720  179.0350  145.5110 O   0  0  0  0  0  0  0  0  0  0  0  0
  183.5730  179.0000  145.8380 O   0  0  0  0  0  1  0  0  0  0  0  0
  191.7170  177.5740  140.2650 C   0  0  1  0  0  3  0  0  0  0  0  0
  194.0330  176.6870  139.7110 C   0  0  0  0  0  1  0  0  0  0  0  0
  193.1020  177.1970  140.8040 C   0  0  0  0  0  2  0  0  0  0  0  0
  191.4700  176.8450  138.9450 C   0  0  0  0  0  2  0  0  0  0  0  0
  190.5520  175.8060  139.1210 O   0  0  0  0  0  0  0  0  0  0  0  0
  189.9700  175.6370  137.8640 C   0  0  0  0  0  2  0  0  0  0  0  0
  190.4650  174.3480  137.2310 C   0  0  1  0  0  3  0  0  0  0  0  0
  188.5690  172.8730  137.1890 O   0  0  0  0  0  1  0  0  0  0  0  0
  189.3290  173.6480  136.5490 C   0  0  0  0  0  0  0  0  0  0  0  0
  189.1030  173.8610  135.1920 O   0  0  0  0  0  0  0  0  0  0  0  0
  191.4960  174.6290  136.3270 O   0  0  0  0  0  0  0  0  0  0  0  0
  192.5870  173.8870  136.7860 C   0  0  0  0  0  1  0  0  0  0  0  0
  185.3120  178.2130  141.7810 C   0  0  0  0  0  2  0  0  0  0  0  0
  184.9250  179.4450  140.9780 C   0  0  0  0  0  2  0  0  0  0  0  0
  185.3040  179.2850  139.6450 O   0  0  0  0  0  1  0  0  0  0  0  0
  1 16  1  0  0  0  0
  1  4  1  0  0  0  0
  2 18  1  0  0  0  0
  3 20  1  0  0  0  0
  4  9  1  0  0  0  0
  4 14  1  0  0  0  0
  6 20  1  0  0  0  0
  7  8  1  0  0  0  0
  7  2  2  0  0  0  0
  8 17  2  0  0  0  0
  9 21  1  0  0  0  0
 11 19  1  0  0  0  0
 12 11  1  0  0  0  0
 12  3  1  0  0  0  0
 14  2  1  0  0  0  0
 15 19  1  0  0  0  0
 16  9  1  0  0  0  0
 17 13  1  0  0  0  0
 17  5  1  0  0  0  0
 18 13  2  0  0  0  0
 18 10  1  0  0  0  0
 19  1  1  0  0  0  0
 20  7  1  0  0  0  0
 21 23  1  0  0  0  0
 21 22  2  0  0  0  0
 23 24  1  0  0  0  0
 25 27  1  0  0  0  0
 25 12  1  0  0  0  0
 26 27  1  0  0  0  0
 28 29  1  0  0  0  0
 28 25  1  0  0  0  0
 30 29  1  0  0  0  0
 31 30  1  0  0  0  0
 33 32  1  0  0  0  0
 33 31  1  0  0  0  0
 34 33  2  0  0  0  0
 35 36  1  0  0  0  0
 35 31  1  0  0  0  0
 37 16  1  0  0  0  0
 38 37  1  0  0  0  0
 39 38  1  0  0  0  0
M  END
>  <MODEL>
8

>  <REMARK>
 VINA RESULT:      -4.9      1.462      2.242
  Name = 
  12 active torsions:
  status: ('A' for Active; 'I' for Inactive)
    1  A    between atoms: C_1  and  C_34
    2  A    between atoms: O_5  and  C_9
    3  A    between atoms: O_5  and  C_18
    4  A    between atoms: C_7  and  O_10
    5  A    between atoms: C_7  and  C_20
    6  A    between atoms: C_9  and  C_12
    7  A    between atoms: C_12  and  C_24
    8  A    between atoms: C_12  and  C_29
    9  A    between atoms: C_13  and  C_38
   10  A    between atoms: O_17  and  C_38
   11  A    between atoms: C_18  and  C_38
   12  A    between atoms: C_28  and  C_34
                            x       y       z     vdW  Elec       q    Type
                         _______ _______ _______ _____ _____    ______ ____

>  <TORSDO>
F 12

$$$$
=
 OpenBabel11062417563D

 39 41  0  0  1  0  0  0  0  0999 V2000
  186.2130  177.6600  139.8510 C   0  0  2  0  0  3  0  0  0  0  0  0
  187.5910  177.5120  143.1030 C   0  0  0  0  0  0  0  0  0  0  0  0
  184.2120  178.3260  143.0600 C   0  0  0  0  0  2  0  0  0  0  0  0
  187.1870  178.3880  140.7750 C   0  0  2  0  0  3  0  0  0  0  0  0
  187.3840  177.4510  147.3090 N   0  0  0  0  0  1  0  0  0  0  0  0
  185.4290  180.4750  143.5000 C   0  0  0  0  0  1  0  0  0  0  0  0
  186.5930  178.2710  143.7660 C   0  0  0  0  0  0  0  0  0  0  0  0
  186.5250  178.2360  145.1670 C   0  0  0  0  0  3  0  0  0  0  0  0
  188.1250  178.6290  139.5810 C   0  0  2  0  0  3  0  0  0  0  0  0
  189.5070  175.9870  143.2520 N   0  0  0  0  0  1  0  0  0  0  0  0
  183.8090  177.7450  140.6760 C   0  0  0  0  0  2  0  0  0  0  0  0
  183.3810  178.6610  141.8260 C   0  0  1  0  0  3  0  0  0  0  0  0
  188.3930  176.7590  145.2360 N   0  0  0  0  0  0  0  0  0  0  0  0
  187.7410  177.4590  141.7060 O   0  0  0  0  0  0  0  0  0  0  0  0
  184.9270  179.7520  139.8440 O   0  0  0  0  0  1  0  0  0  0  0  0
  187.1700  177.8720  138.6680 C   0  0  2  0  0  3  0  0  0  0  0  0
  187.4430  177.4760  145.8890 C   0  0  0  0  0  0  0  0  0  0  0  0
  188.4840  176.7560  143.8810 C   0  0  0  0  0  0  0  0  0  0  0  0
  184.8440  178.3570  139.7280 C   0  0  1  0  0  3  0  0  0  0  0  0
  185.5510  179.0400  143.0110 C   0  0  1  0  0  3  0  0  0  0  0  0
  189.4660  177.9550  139.7050 C   0  0  0  0  0  0  0  0  0  0  0  0
  190.2590  178.2520  140.6420 O   0  0  0  0  0  0  0  0  0  0  0  0
  189.8470  177.0230  138.7440 O   0  0  0  0  0  0  0  0  0  0  0  0
  190.5060  175.9110  139.0950 O   0  0  0  0  0  1  0  0  0  0  0  0
  181.8780  178.4930  142.1170 C   0  0  1  0  0  3  0  0  0  0  0  0
  180.1140  178.4270  143.9450 C   0  0  0  0  0  1  0  0  0  0  0  0
  181.5150  178.8800  143.5560 C   0  0  0  0  0  2  0  0  0  0  0  0
  181.0120  179.2900  141.1430 C   0  0  0  0  0  2  0  0  0  0  0  0
  180.3190  178.4310  140.2860 O   0  0  0  0  0  0  0  0  0  0  0  0
  180.1550  179.1670  139.1120 C   0  0  0  0  0  2  0  0  0  0  0  0
  181.4840  179.2890  138.3840 C   0  0  1  0  0  3  0  0  0  0  0  0
  180.6410  177.4660  137.0650 O   0  0  0  0  0  1  0  0  0  0  0  0
  181.6350  178.1600  137.4100 C   0  0  0  0  0  0  0  0  0  0  0  0
  182.8870  177.8760  136.8730 O   0  0  0  0  0  0  0  0  0  0  0  0
  181.5560  180.5250  137.7330 O   0  0  0  0  0  0  0  0  0  0  0  0
  180.2440  181.0060  137.7310 C   0  0  0  0  0  1  0  0  0  0  0  0
  186.6550  178.7820  137.5540 C   0  0  0  0  0  2  0  0  0  0  0  0
  186.8220  178.1190  136.1960 C   0  0  0  0  0  2  0  0  0  0  0  0
  188.1750  177.8980  135.9350 O   0  0  0  0  0  1  0  0  0  0  0  0
  1  4  1  0  0  0  0
  2  7  2  0  0  0  0
  2 18  1  0  0  0  0
  4 14  1  0  0  0  0
  7  8  1  0  0  0  0
  8 17  2  0  0  0  0
  9 21  1  0  0  0  0
  9  4  1  0  0  0  0
 10 18  1  0  0  0  0
 11 12  1  0  0  0  0
 12 25  1  0  0  0  0
 12  3  1  0  0  0  0
 13 17  1  0  0  0  0
 14  2  1  0  0  0  0
 16  9  1  0  0  0  0
 16  1  1  0  0  0  0
 17  5  1  0  0  0  0
 18 13  2  0  0  0  0
 19 15  1  0  0  0  0
 19  1  1  0  0  0  0
 19 11  1  0  0  0  0
 20  3  1  0  0  0  0
 20  6  1  0  0  0  0
 20  7  1  0  0  0  0
 21 22  2  0  0  0  0
 23 24  1  0  0  0  0
 23 21  1  0  0  0  0
 25 27  1  0  0  0  0
 27 26  1  0  0  0  0
 28 25  1  0  0  0  0
 29 28  1  0  0  0  0
 30 29  1  0  0  0  0
 31 30  1  0  0  0  0
 32 33  1  0  0  0  0
 33 31  1  0  0  0  0
 34 33  2  0  0  0  0
 35 31  1  0  0  0  0
 36 35  1  0  0  0  0
 37 16  1  0  0  0  0
 38 37  1  0  0  0  0
 39 38  1  0  0  0  0
M  END
>  <MODEL>
9

>  <REMARK>
 VINA RESULT:      -4.9      3.094      7.310
  Name = 
  12 active torsions:
  status: ('A' for Active; 'I' for Inactive)
    1  A    between atoms: C_1  and  C_34
    2  A    between atoms: O_5  and  C_9
    3  A    between atoms: O_5  and  C_18
    4  A    between atoms: C_7  and  O_10
    5  A    between atoms: C_7  and  C_20
    6  A    between atoms: C_9  and  C_12
    7  A    between atoms: C_12  and  C_24
    8  A    between atoms: C_12  and  C_29
    9  A    between atoms: C_13  and  C_38
   10  A    between atoms: O_17  and  C_38
   11  A    between atoms: C_18  and  C_38
   12  A    between atoms: C_28  and  C_34
                            x       y       z     vdW  Elec       q    Type
                         _______ _______ _______ _____ _____    ______ ____

>  <TORSDO>
F 12

$$$$
