=
 OpenBabel11062416333D

 29 33  0  0  1  0  0  0  0  0999 V2000
  190.8370  177.0830  141.1100 C   0  0  0  0  0  3  0  0  0  0  0  0
  188.6940  177.9240  140.4050 C   0  0  0  0  0  3  0  0  0  0  0  0
  189.0070  177.5890  139.0830 C   0  0  0  0  0  0  0  0  0  0  0  0
  189.6320  176.9000  136.4690 C   0  0  0  0  0  3  0  0  0  0  0  0
  188.1000  177.8150  138.0380 C   0  0  0  0  0  0  0  0  0  0  0  0
  189.6130  177.6720  141.4270 C   0  0  0  0  0  0  0  0  0  0  0  0
  186.8260  178.4030  138.2890 N   0  0  0  0  0  1  0  0  0  0  0  0
  190.2620  177.0020  138.7990 C   0  0  0  0  0  0  0  0  0  0  0  0
  188.4330  177.4620  136.7690 N   0  0  0  0  0  0  0  0  0  0  0  0
  190.5830  176.6610  137.4650 C   0  0  0  0  0  0  0  0  0  0  0  0
  191.1300  176.7640  139.8210 N   0  0  0  0  0  0  0  0  0  0  0  0
  190.1060  177.2240  143.7610 N   0  0  0  0  0  0  0  0  0  0  0  0
  184.7090  178.5220  146.9100 O   0  0  0  0  0  1  0  0  0  0  0  0
  188.6160  177.8670  145.5370 C   0  0  1  0  0  3  0  0  0  0  0  0
  185.8410  177.8360  146.4700 C   0  0  2  0  0  3  0  0  0  0  0  0
  189.3070  178.0230  142.8460 C   0  0  2  0  0  3  0  0  0  0  0  0
  187.7910  177.9360  143.1310 C   0  0  0  0  0  2  0  0  0  0  0  0
  189.8230  177.1550  145.0160 C   0  0  0  0  0  3  0  0  0  0  0  0
  187.0040  178.1040  147.4260 C   0  0  0  0  0  2  0  0  0  0  0  0
  187.4550  177.5700  144.5850 C   0  0  2  0  0  3  0  0  0  0  0  0
  188.2700  177.3950  146.9450 C   0  0  0  0  0  2  0  0  0  0  0  0
  186.1920  178.2840  145.0520 C   0  0  0  0  0  2  0  0  0  0  0  0
  191.8010  176.0830  137.0690 O   0  0  0  0  0  0  0  0  0  0  0  0
  193.7030  174.7630  137.6460 C   0  0  0  0  0  0  0  0  0  0  0  0
  193.3060  172.7140  136.1250 S   0  0  0  0  0  0  0  0  0  0  0  0
  192.2400  174.7760  137.4210 C   0  0  2  0  0  3  0  0  0  0  0  0
  194.2950  175.5810  138.3980 O   0  0  0  0  0  0  0  0  0  0  0  0
  194.3720  173.7570  137.0000 O   0  0  0  0  0  0  0  0  0  0  0  0
  191.9490  173.8560  136.3190 N   0  0  0  0  0  2  0  0  0  0  0  0
  1  6  1  0  0  0  0
  2  6  2  0  0  0  0
  3  2  1  0  0  0  0
  4  9  2  0  0  0  0
  4 10  1  0  0  0  0
  5  7  1  0  0  0  0
  5  3  2  0  0  0  0
  8  3  1  0  0  0  0
  8 11  1  0  0  0  0
  9  5  1  0  0  0  0
 10  8  2  0  0  0  0
 11  1  2  0  0  0  0
 12 18  2  0  0  0  0
 14 18  1  6  0  0  0
 14 21  1  0  0  0  0
 15 13  1  1  0  0  0
 15 19  1  0  0  0  0
 16  6  1  6  0  0  0
 16 17  1  0  0  0  0
 16 12  1  0  0  0  0
 20 17  1  6  0  0  0
 20 22  1  0  0  0  0
 20 14  1  0  0  0  0
 21 19  1  0  0  0  0
 22 15  1  0  0  0  0
 23 10  1  0  0  0  0
 24 27  2  0  0  0  0
 25 29  1  0  0  0  0
 25 28  1  0  0  0  0
 26 23  1  6  0  0  0
 26 24  1  0  0  0  0
 28 24  1  0  0  0  0
 29 26  1  0  0  0  0
M  END
>  <MODEL>
1

>  <REMARK>
 VINA RESULT:      -9.5      0.000      0.000
  Name = 
  3 active torsions:
  status: ('A' for Active; 'I' for Inactive)
    1  A    between atoms: O_2  and  C_15
    2  A    between atoms: O_2  and  C_25
    3  A    between atoms: C_12  and  C_14
                            x       y       z     vdW  Elec       q    Type
                         _______ _______ _______ _____ _____    ______ ____

>  <TORSDO>
F 3

$$$$
=
 OpenBabel11062416333D

 29 33  0  0  1  0  0  0  0  0999 V2000
  183.1590  178.6090  143.7100 C   0  0  0  0  0  3  0  0  0  0  0  0
  185.1680  178.4090  142.3980 C   0  0  0  0  0  3  0  0  0  0  0  0
  184.4410  178.7370  141.2490 C   0  0  0  0  0  0  0  0  0  0  0  0
  182.9900  179.4110  138.9820 C   0  0  0  0  0  3  0  0  0  0  0  0
  185.0590  178.8280  139.9940 C   0  0  0  0  0  0  0  0  0  0  0  0
  184.5260  178.3420  143.6380 C   0  0  0  0  0  0  0  0  0  0  0  0
  186.4560  178.5800  139.8470 N   0  0  0  0  0  1  0  0  0  0  0  0
  183.0540  178.9920  141.3600 C   0  0  0  0  0  0  0  0  0  0  0  0
  184.3230  179.1650  138.9030 N   0  0  0  0  0  0  0  0  0  0  0  0
  182.3140  179.3250  140.2020 C   0  0  0  0  0  0  0  0  0  0  0  0
  182.4620  178.9250  142.5850 N   0  0  0  0  0  0  0  0  0  0  0  0
  185.0710  178.9940  145.9110 N   0  0  0  0  0  0  0  0  0  0  0  0
  190.8810  176.5960  147.0120 O   0  0  0  0  0  1  0  0  0  0  0  0
  186.9670  178.0940  147.0880 C   0  0  1  0  0  3  0  0  0  0  0  0
  189.8310  177.5100  146.9320 C   0  0  2  0  0  3  0  0  0  0  0  0
  185.2770  177.9900  144.8790 C   0  0  2  0  0  3  0  0  0  0  0  0
  186.7700  177.7300  144.5770 C   0  0  0  0  0  2  0  0  0  0  0  0
  185.8230  179.0480  146.9560 C   0  0  0  0  0  3  0  0  0  0  0  0
  189.0970  177.5650  148.2720 C   0  0  0  0  0  2  0  0  0  0  0  0
  187.7060  178.0680  145.7480 C   0  0  2  0  0  3  0  0  0  0  0  0
  187.9160  178.5310  148.1990 C   0  0  0  0  0  2  0  0  0  0  0  0
  188.8800  177.0970  145.8100 C   0  0  0  0  0  2  0  0  0  0  0  0
  180.9340  179.5880  140.1960 O   0  0  0  0  0  0  0  0  0  0  0  0
  179.3380  178.2900  141.4040 C   0  0  0  0  0  0  0  0  0  0  0  0
  179.7700  175.9650  140.3670 S   0  0  0  0  0  0  0  0  0  0  0  0
  179.9130  178.6040  140.0770 C   0  0  2  0  0  3  0  0  0  0  0  0
  178.9310  179.1700  142.2070 O   0  0  0  0  0  0  0  0  0  0  0  0
  179.2420  176.9530  141.6840 O   0  0  0  0  0  0  0  0  0  0  0  0
  180.4910  177.3720  139.5370 N   0  0  0  0  0  2  0  0  0  0  0  0
  2  6  2  0  0  0  0
  3  8  1  0  0  0  0
  3  2  1  0  0  0  0
  4 10  1  0  0  0  0
  5  3  2  0  0  0  0
  6  1  1  0  0  0  0
  7  5  1  0  0  0  0
  8 11  1  0  0  0  0
  9  4  2  0  0  0  0
  9  5  1  0  0  0  0
 10  8  2  0  0  0  0
 11  1  2  0  0  0  0
 12 18  2  0  0  0  0
 14 18  1  6  0  0  0
 14 21  1  0  0  0  0
 15 13  1  1  0  0  0
 15 19  1  0  0  0  0
 16  6  1  6  0  0  0
 16 12  1  0  0  0  0
 17 16  1  0  0  0  0
 20 17  1  6  0  0  0
 20 22  1  0  0  0  0
 20 14  1  0  0  0  0
 21 19  1  0  0  0  0
 22 15  1  0  0  0  0
 23 10  1  0  0  0  0
 24 28  1  0  0  0  0
 24 27  2  0  0  0  0
 25 28  1  0  0  0  0
 26 23  1  1  0  0  0
 26 24  1  0  0  0  0
 29 26  1  0  0  0  0
 29 25  1  0  0  0  0
M  END
>  <MODEL>
2

>  <REMARK>
 VINA RESULT:      -9.4      6.129      8.455
  Name = 
  3 active torsions:
  status: ('A' for Active; 'I' for Inactive)
    1  A    between atoms: O_2  and  C_15
    2  A    between atoms: O_2  and  C_25
    3  A    between atoms: C_12  and  C_14
                            x       y       z     vdW  Elec       q    Type
                         _______ _______ _______ _____ _____    ______ ____

>  <TORSDO>
F 3

$$$$
=
 OpenBabel11062416333D

 29 33  0  0  1  0  0  0  0  0999 V2000
  186.5390  178.2530  141.9640 C   0  0  0  0  0  3  0  0  0  0  0  0
  184.2320  178.3280  142.6510 C   0  0  0  0  0  3  0  0  0  0  0  0
  183.8580  178.6190  141.3350 C   0  0  0  0  0  0  0  0  0  0  0  0
  183.1280  179.1730  138.7160 C   0  0  0  0  0  3  0  0  0  0  0  0
  182.5130  178.7920  140.9790 C   0  0  0  0  0  0  0  0  0  0  0  0
  185.5800  178.1450  142.9720 C   0  0  0  0  0  0  0  0  0  0  0  0
  181.4790  178.6850  141.9550 N   0  0  0  0  0  1  0  0  0  0  0  0
  184.8590  178.7290  140.3420 C   0  0  0  0  0  0  0  0  0  0  0  0
  182.1860  179.0580  139.6880 N   0  0  0  0  0  0  0  0  0  0  0  0
  184.4860  179.0220  139.0100 C   0  0  0  0  0  0  0  0  0  0  0  0
  186.1620  178.5370  140.6880 N   0  0  0  0  0  0  0  0  0  0  0  0
  185.5110  178.8430  145.2950 N   0  0  0  0  0  0  0  0  0  0  0  0
  190.9460  176.7060  147.8670 O   0  0  0  0  0  1  0  0  0  0  0  0
  187.0840  178.0380  146.9280 C   0  0  1  0  0  3  0  0  0  0  0  0
  189.9160  177.5750  147.5070 C   0  0  2  0  0  3  0  0  0  0  0  0
  186.0080  177.8380  144.3690 C   0  0  2  0  0  3  0  0  0  0  0  0
  187.5380  177.6380  144.4560 C   0  0  0  0  0  2  0  0  0  0  0  0
  185.9730  178.9410  146.4940 C   0  0  0  0  0  3  0  0  0  0  0  0
  188.8670  177.6130  148.6190 C   0  0  0  0  0  2  0  0  0  0  0  0
  188.1360  178.0280  145.8170 C   0  0  2  0  0  3  0  0  0  0  0  0
  187.7050  178.5270  148.2320 C   0  0  0  0  0  2  0  0  0  0  0  0
  189.2930  177.1100  146.1920 C   0  0  0  0  0  2  0  0  0  0  0  0
  185.3960  179.1630  137.9480 O   0  0  0  0  0  0  0  0  0  0  0  0
  187.3310  178.6480  136.6510 C   0  0  0  0  0  0  0  0  0  0  0  0
  186.3210  176.9420  134.9950 S   0  0  0  0  0  0  0  0  0  0  0  0
  186.1620  178.1070  137.3800 C   0  0  2  0  0  3  0  0  0  0  0  0
  188.1340  179.4780  137.1510 O   0  0  0  0  0  0  0  0  0  0  0  0
  187.5010  178.1440  135.3890 O   0  0  0  0  0  0  0  0  0  0  0  0
  185.3350  177.3750  136.4190 N   0  0  0  0  0  2  0  0  0  0  0  0
  1  6  1  0  0  0  0
  2  6  2  0  0  0  0
  3  2  1  0  0  0  0
  4 10  2  0  0  0  0
  4  9  1  0  0  0  0
  5  3  1  0  0  0  0
  5  7  1  0  0  0  0
  8 11  1  0  0  0  0
  8  3  2  0  0  0  0
  9  5  2  0  0  0  0
 10  8  1  0  0  0  0
 11  1  2  0  0  0  0
 12 18  2  0  0  0  0
 14 18  1  6  0  0  0
 14 21  1  0  0  0  0
 15 13  1  1  0  0  0
 15 19  1  0  0  0  0
 16  6  1  6  0  0  0
 16 17  1  0  0  0  0
 16 12  1  0  0  0  0
 20 17  1  6  0  0  0
 20 22  1  0  0  0  0
 20 14  1  0  0  0  0
 21 19  1  0  0  0  0
 22 15  1  0  0  0  0
 23 10  1  0  0  0  0
 24 27  2  0  0  0  0
 24 26  1  0  0  0  0
 25 28  1  0  0  0  0
 25 29  1  0  0  0  0
 26 23  1  6  0  0  0
 28 24  1  0  0  0  0
 29 26  1  0  0  0  0
M  END
>  <MODEL>
3

>  <REMARK>
 VINA RESULT:      -9.3      4.499      5.706
  Name = 
  3 active torsions:
  status: ('A' for Active; 'I' for Inactive)
    1  A    between atoms: O_2  and  C_15
    2  A    between atoms: O_2  and  C_25
    3  A    between atoms: C_12  and  C_14
                            x       y       z     vdW  Elec       q    Type
                         _______ _______ _______ _____ _____    ______ ____

>  <TORSDO>
F 3

$$$$
=
 OpenBabel11062416333D

 29 33  0  0  1  0  0  0  0  0999 V2000
  188.3230  178.4770  141.2970 C   0  0  0  0  0  3  0  0  0  0  0  0
  189.9840  177.0970  140.2320 C   0  0  0  0  0  3  0  0  0  0  0  0
  189.2600  177.1600  139.0380 C   0  0  0  0  0  0  0  0  0  0  0  0
  187.8230  177.3120  136.6690 C   0  0  0  0  0  3  0  0  0  0  0  0
  189.7120  176.5220  137.8740 C   0  0  0  0  0  0  0  0  0  0  0  0
  189.5160  177.7570  141.3720 C   0  0  0  0  0  0  0  0  0  0  0  0
  190.9280  175.7780  137.8740 N   0  0  0  0  0  1  0  0  0  0  0  0
  188.0500  177.8920  139.0030 C   0  0  0  0  0  0  0  0  0  0  0  0
  188.9890  176.6190  136.7280 N   0  0  0  0  0  0  0  0  0  0  0  0
  187.3140  177.9600  137.7980 C   0  0  0  0  0  0  0  0  0  0  0  0
  187.6270  178.5300  140.1300 N   0  0  0  0  0  0  0  0  0  0  0  0
  191.0640  176.4890  142.7450 N   0  0  0  0  0  0  0  0  0  0  0  0
  189.5770  177.9600  148.7730 O   0  0  0  0  0  1  0  0  0  0  0  0
  191.2960  176.8700  145.1090 C   0  0  1  0  0  3  0  0  0  0  0  0
  189.8590  177.2010  147.6380 C   0  0  2  0  0  3  0  0  0  0  0  0
  190.2670  177.7020  142.6610 C   0  0  2  0  0  3  0  0  0  0  0  0
  189.3220  177.8900  143.8690 C   0  0  0  0  0  2  0  0  0  0  0  0
  191.5740  176.0950  143.8610 C   0  0  0  0  0  3  0  0  0  0  0  0
  191.3510  176.8700  147.6030 C   0  0  0  0  0  2  0  0  0  0  0  0
  189.7960  177.1730  145.1430 C   0  0  2  0  0  3  0  0  0  0  0  0
  191.6950  176.0720  146.3460 C   0  0  0  0  0  2  0  0  0  0  0  0
  189.4480  177.9790  146.3890 C   0  0  0  0  0  2  0  0  0  0  0  0
  186.0980  178.6500  137.6530 O   0  0  0  0  0  0  0  0  0  0  0  0
  183.8410  177.8790  137.7010 C   0  0  0  0  0  0  0  0  0  0  0  0
  182.7230  179.8380  138.9580 S   0  0  0  0  0  0  0  0  0  0  0  0
  184.9520  178.4720  138.4780 C   0  0  2  0  0  3  0  0  0  0  0  0
  183.9660  176.8470  136.9910 O   0  0  0  0  0  0  0  0  0  0  0  0
  182.6380  178.5190  137.8430 O   0  0  0  0  0  0  0  0  0  0  0  0
  184.5070  179.7760  138.9720 N   0  0  0  0  0  2  0  0  0  0  0  0
  1  6  1  0  0  0  0
  2  6  2  0  0  0  0
  3  2  1  0  0  0  0
  4  9  2  0  0  0  0
  4 10  1  0  0  0  0
  5  7  1  0  0  0  0
  5  3  2  0  0  0  0
  8  3  1  0  0  0  0
  8 11  1  0  0  0  0
  9  5  1  0  0  0  0
 10  8  2  0  0  0  0
 11  1  2  0  0  0  0
 12 18  2  0  0  0  0
 14 18  1  6  0  0  0
 14 20  1  0  0  0  0
 14 21  1  0  0  0  0
 15 13  1  1  0  0  0
 16  6  1  6  0  0  0
 16 12  1  0  0  0  0
 16 17  1  0  0  0  0
 19 15  1  0  0  0  0
 20 17  1  6  0  0  0
 20 22  1  0  0  0  0
 21 19  1  0  0  0  0
 22 15  1  0  0  0  0
 23 10  1  0  0  0  0
 24 28  1  0  0  0  0
 24 26  1  0  0  0  0
 25 29  1  0  0  0  0
 26 23  1  6  0  0  0
 26 29  1  0  0  0  0
 27 24  2  0  0  0  0
 28 25  1  0  0  0  0
M  END
>  <MODEL>
4

>  <REMARK>
 VINA RESULT:      -9.2      4.180      5.722
  Name = 
  3 active torsions:
  status: ('A' for Active; 'I' for Inactive)
    1  A    between atoms: O_2  and  C_15
    2  A    between atoms: O_2  and  C_25
    3  A    between atoms: C_12  and  C_14
                            x       y       z     vdW  Elec       q    Type
                         _______ _______ _______ _____ _____    ______ ____

>  <TORSDO>
F 3

$$$$
=
 OpenBabel11062416333D

 29 33  0  0  1  0  0  0  0  0999 V2000
  189.3100  177.0870  141.4140 C   0  0  0  0  0  3  0  0  0  0  0  0
  187.5670  178.2710  140.2500 C   0  0  0  0  0  3  0  0  0  0  0  0
  186.8350  178.3490  141.4390 C   0  0  0  0  0  0  0  0  0  0  0  0
  185.4060  178.5140  143.8110 C   0  0  0  0  0  3  0  0  0  0  0  0
  185.5910  178.9930  141.4920 C   0  0  0  0  0  0  0  0  0  0  0  0
  188.8110  177.6360  140.2320 C   0  0  0  0  0  0  0  0  0  0  0  0
  185.0250  179.5860  140.3250 N   0  0  0  0  0  1  0  0  0  0  0  0
  187.3690  177.7720  142.6150 C   0  0  0  0  0  0  0  0  0  0  0  0
  184.9170  179.0620  142.6690 N   0  0  0  0  0  0  0  0  0  0  0  0
  186.6340  177.8480  143.8210 C   0  0  0  0  0  0  0  0  0  0  0  0
  188.5890  177.1680  142.5640 N   0  0  0  0  0  0  0  0  0  0  0  0
  188.8870  176.7870  137.9600 N   0  0  0  0  0  0  0  0  0  0  0  0
  195.0660  175.7560  136.7430 O   0  0  0  0  0  1  0  0  0  0  0  0
  190.9490  176.5480  136.7440 C   0  0  1  0  0  3  0  0  0  0  0  0
  193.6930  175.5330  136.8510 C   0  0  2  0  0  3  0  0  0  0  0  0
  189.6110  177.5350  138.9750 C   0  0  2  0  0  3  0  0  0  0  0  0
  191.0220  176.9690  139.2530 C   0  0  0  0  0  2  0  0  0  0  0  0
  189.4770  176.3410  136.9050 C   0  0  0  0  0  3  0  0  0  0  0  0
  193.0150  175.8690  135.5220 C   0  0  0  0  0  2  0  0  0  0  0  0
  191.6170  176.1850  138.0730 C   0  0  2  0  0  3  0  0  0  0  0  0
  191.5030  175.6720  135.6250 C   0  0  0  0  0  2  0  0  0  0  0  0
  193.1240  176.3900  137.9810 C   0  0  0  0  0  2  0  0  0  0  0  0
  187.0640  177.3040  145.0430 O   0  0  0  0  0  0  0  0  0  0  0  0
  189.0530  177.2860  146.3600 C   0  0  0  0  0  0  0  0  0  0  0  0
  188.0630  177.8440  148.6790 S   0  0  0  0  0  0  0  0  0  0  0  0
  187.8010  178.0060  146.0380 C   0  0  2  0  0  3  0  0  0  0  0  0
  189.8690  176.8910  145.4870 O   0  0  0  0  0  0  0  0  0  0  0  0
  189.2850  177.1110  147.6990 O   0  0  0  0  0  0  0  0  0  0  0  0
  187.0020  178.0850  147.2630 N   0  0  0  0  0  2  0  0  0  0  0  0
  1 11  1  0  0  0  0
  2  3  2  0  0  0  0
  3  5  1  0  0  0  0
  3  8  1  0  0  0  0
  4 10  2  0  0  0  0
  5  9  2  0  0  0  0
  6  2  1  0  0  0  0
  6  1  2  0  0  0  0
  7  5  1  0  0  0  0
  8 10  1  0  0  0  0
  9  4  1  0  0  0  0
 10 23  1  0  0  0  0
 11  8  2  0  0  0  0
 12 16  1  0  0  0  0
 14 21  1  6  0  0  0
 14 18  1  0  0  0  0
 14 20  1  0  0  0  0
 15 13  1  6  0  0  0
 15 22  1  0  0  0  0
 16 17  1  0  0  0  0
 16  6  1  1  0  0  0
 18 12  2  0  0  0  0
 19 21  1  0  0  0  0
 19 15  1  0  0  0  0
 20 22  1  6  0  0  0
 20 17  1  0  0  0  0
 24 28  1  0  0  0  0
 26 23  1  6  0  0  0
 26 24  1  0  0  0  0
 26 29  1  0  0  0  0
 27 24  2  0  0  0  0
 28 25  1  0  0  0  0
 29 25  1  0  0  0  0
M  END
>  <MODEL>
5

>  <REMARK>
 VINA RESULT:      -9.1      3.617      8.809
  Name = 
  3 active torsions:
  status: ('A' for Active; 'I' for Inactive)
    1  A    between atoms: O_2  and  C_15
    2  A    between atoms: O_2  and  C_25
    3  A    between atoms: C_12  and  C_14
                            x       y       z     vdW  Elec       q    Type
                         _______ _______ _______ _____ _____    ______ ____

>  <TORSDO>
F 3

$$$$
=
 OpenBabel11062416333D

 29 33  0  0  1  0  0  0  0  0999 V2000
  188.3860  178.5740  141.0360 C   0  0  0  0  0  3  0  0  0  0  0  0
  189.8480  176.8440  140.2200 C   0  0  0  0  0  3  0  0  0  0  0  0
  189.1690  176.8570  138.9970 C   0  0  0  0  0  0  0  0  0  0  0  0
  187.8260  176.9100  136.5700 C   0  0  0  0  0  3  0  0  0  0  0  0
  189.5490  176.0170  137.9420 C   0  0  0  0  0  0  0  0  0  0  0  0
  189.4560  177.7050  141.2490 C   0  0  0  0  0  0  0  0  0  0  0  0
  190.6410  175.1110  138.0840 N   0  0  0  0  0  1  0  0  0  0  0  0
  188.0820  177.7460  138.8220 C   0  0  0  0  0  0  0  0  0  0  0  0
  188.8760  176.0690  136.7630 N   0  0  0  0  0  0  0  0  0  0  0  0
  187.3920  177.7630  137.5880 C   0  0  0  0  0  0  0  0  0  0  0  0
  187.7320  178.5760  139.8430 N   0  0  0  0  0  0  0  0  0  0  0  0
  191.0600  176.5720  142.6740 N   0  0  0  0  0  0  0  0  0  0  0  0
  189.2230  177.8620  148.6480 O   0  0  0  0  0  1  0  0  0  0  0  0
  191.1690  176.9550  145.0480 C   0  0  1  0  0  3  0  0  0  0  0  0
  189.6140  177.1390  147.5210 C   0  0  2  0  0  3  0  0  0  0  0  0
  190.1610  177.7090  142.5660 C   0  0  2  0  0  3  0  0  0  0  0  0
  189.1580  177.8030  143.7380 C   0  0  0  0  0  2  0  0  0  0  0  0
  191.5610  176.2170  143.8070 C   0  0  0  0  0  3  0  0  0  0  0  0
  191.1310  176.9420  147.5410 C   0  0  0  0  0  2  0  0  0  0  0  0
  189.6470  177.1230  145.0260 C   0  0  2  0  0  3  0  0  0  0  0  0
  191.5910  176.1870  146.2960 C   0  0  0  0  0  2  0  0  0  0  0  0
  189.1820  177.8850  146.2600 C   0  0  0  0  0  2  0  0  0  0  0  0
  186.2960  178.5960  137.3090 O   0  0  0  0  0  0  0  0  0  0  0  0
  184.4090  178.7090  138.7640 C   0  0  0  0  0  0  0  0  0  0  0  0
  183.6110  176.2560  138.6580 S   0  0  0  0  0  0  0  0  0  0  0  0
  184.9300  178.2310  137.4630 C   0  0  2  0  0  3  0  0  0  0  0  0
  184.5380  179.8950  139.1680 O   0  0  0  0  0  0  0  0  0  0  0  0
  183.7330  177.7660  139.4920 O   0  0  0  0  0  0  0  0  0  0  0  0
  184.8150  176.7720  137.4450 N   0  0  0  0  0  2  0  0  0  0  0  0
  1  6  1  0  0  0  0
  2  6  2  0  0  0  0
  3  2  1  0  0  0  0
  4  9  2  0  0  0  0
  4 10  1  0  0  0  0
  5  7  1  0  0  0  0
  5  3  2  0  0  0  0
  8  3  1  0  0  0  0
  8 11  1  0  0  0  0
  9  5  1  0  0  0  0
 10  8  2  0  0  0  0
 11  1  2  0  0  0  0
 12 18  2  0  0  0  0
 14 18  1  6  0  0  0
 14 21  1  0  0  0  0
 15 19  1  0  0  0  0
 15 13  1  1  0  0  0
 16  6  1  6  0  0  0
 16 12  1  0  0  0  0
 16 17  1  0  0  0  0
 20 17  1  6  0  0  0
 20 14  1  0  0  0  0
 20 22  1  0  0  0  0
 21 19  1  0  0  0  0
 22 15  1  0  0  0  0
 23 10  1  0  0  0  0
 24 27  2  0  0  0  0
 24 28  1  0  0  0  0
 25 28  1  0  0  0  0
 26 23  1  1  0  0  0
 26 24  1  0  0  0  0
 29 26  1  0  0  0  0
 29 25  1  0  0  0  0
M  END
>  <MODEL>
6

>  <REMARK>
 VINA RESULT:      -9.0      3.858      5.295
  Name = 
  3 active torsions:
  status: ('A' for Active; 'I' for Inactive)
    1  A    between atoms: O_2  and  C_15
    2  A    between atoms: O_2  and  C_25
    3  A    between atoms: C_12  and  C_14
                            x       y       z     vdW  Elec       q    Type
                         _______ _______ _______ _____ _____    ______ ____

>  <TORSDO>
F 3

$$$$
=
 OpenBabel11062416333D

 29 33  0  0  1  0  0  0  0  0999 V2000
  188.9290  177.3450  140.6570 C   0  0  0  0  0  3  0  0  0  0  0  0
  191.2840  177.4500  141.1450 C   0  0  0  0  0  3  0  0  0  0  0  0
  191.5670  177.0910  139.8220 C   0  0  0  0  0  0  0  0  0  0  0  0
  192.1100  176.4000  137.1910 C   0  0  0  0  0  3  0  0  0  0  0  0
  192.8850  176.9710  139.3630 C   0  0  0  0  0  0  0  0  0  0  0  0
  189.9590  177.5770  141.5690 C   0  0  0  0  0  0  0  0  0  0  0  0
  193.9880  177.2040  140.2360 N   0  0  0  0  0  1  0  0  0  0  0  0
  190.4950  176.8550  138.9290 C   0  0  0  0  0  0  0  0  0  0  0  0
  193.1200  176.6360  138.0680 N   0  0  0  0  0  0  0  0  0  0  0  0
  190.7750  176.4920  137.5910 C   0  0  0  0  0  0  0  0  0  0  0  0
  189.2160  176.9950  139.3740 N   0  0  0  0  0  0  0  0  0  0  0  0
  190.4220  177.1800  143.9180 N   0  0  0  0  0  0  0  0  0  0  0  0
  184.9710  178.4980  146.9630 O   0  0  0  0  0  1  0  0  0  0  0  0
  188.9010  177.8470  145.6590 C   0  0  1  0  0  3  0  0  0  0  0  0
  186.1140  177.8120  146.5540 C   0  0  2  0  0  3  0  0  0  0  0  0
  189.6300  177.9540  142.9760 C   0  0  2  0  0  3  0  0  0  0  0  0
  188.1100  177.8600  143.2400 C   0  0  0  0  0  2  0  0  0  0  0  0
  190.1210  177.1340  145.1700 C   0  0  0  0  0  3  0  0  0  0  0  0
  187.2610  178.1090  147.5200 C   0  0  0  0  0  2  0  0  0  0  0  0
  187.7560  177.5220  144.6970 C   0  0  2  0  0  3  0  0  0  0  0  0
  188.5390  177.4010  147.0720 C   0  0  0  0  0  2  0  0  0  0  0  0
  186.4810  178.2340  145.1320 C   0  0  0  0  0  2  0  0  0  0  0  0
  189.7910  176.2260  136.6240 O   0  0  0  0  0  0  0  0  0  0  0  0
  188.1890  174.9340  135.4170 C   0  0  0  0  0  0  0  0  0  0  0  0
  188.2120  172.7650  136.8180 S   0  0  0  0  0  0  0  0  0  0  0  0
  189.5240  174.9490  136.0570 C   0  0  2  0  0  3  0  0  0  0  0  0
  187.8060  175.8070  134.5940 O   0  0  0  0  0  0  0  0  0  0  0  0
  187.4020  173.8660  135.7590 O   0  0  0  0  0  0  0  0  0  0  0  0
  189.5220  173.9400  137.1180 N   0  0  0  0  0  2  0  0  0  0  0  0
  1  6  1  0  0  0  0
  2  6  2  0  0  0  0
  3  2  1  0  0  0  0
  4 10  2  0  0  0  0
  4  9  1  0  0  0  0
  5  3  1  0  0  0  0
  5  7  1  0  0  0  0
  8 11  1  0  0  0  0
  8  3  2  0  0  0  0
  9  5  2  0  0  0  0
 10  8  1  0  0  0  0
 11  1  2  0  0  0  0
 12 18  2  0  0  0  0
 14 18  1  6  0  0  0
 14 21  1  0  0  0  0
 15 13  1  1  0  0  0
 15 19  1  0  0  0  0
 16  6  1  6  0  0  0
 16 17  1  0  0  0  0
 16 12  1  0  0  0  0
 20 17  1  6  0  0  0
 20 22  1  0  0  0  0
 20 14  1  0  0  0  0
 21 19  1  0  0  0  0
 22 15  1  0  0  0  0
 23 10  1  0  0  0  0
 24 28  1  0  0  0  0
 24 26  1  0  0  0  0
 25 29  1  0  0  0  0
 26 23  1  1  0  0  0
 26 29  1  0  0  0  0
 27 24  2  0  0  0  0
 28 25  1  0  0  0  0
M  END
>  <MODEL>
7

>  <REMARK>
 VINA RESULT:      -9.0      2.132      3.352
  Name = 
  3 active torsions:
  status: ('A' for Active; 'I' for Inactive)
    1  A    between atoms: O_2  and  C_15
    2  A    between atoms: O_2  and  C_25
    3  A    between atoms: C_12  and  C_14
                            x       y       z     vdW  Elec       q    Type
                         _______ _______ _______ _____ _____    ______ ____

>  <TORSDO>
F 3

$$$$
=
 OpenBabel11062416333D

 29 33  0  0  1  0  0  0  0  0999 V2000
  183.7140  178.5760  143.2320 C   0  0  0  0  0  3  0  0  0  0  0  0
  185.8690  178.2970  142.1940 C   0  0  0  0  0  3  0  0  0  0  0  0
  185.3040  178.6140  140.9540 C   0  0  0  0  0  0  0  0  0  0  0  0
  184.1750  179.2660  138.5060 C   0  0  0  0  0  3  0  0  0  0  0  0
  186.0810  178.6600  139.7880 C   0  0  0  0  0  0  0  0  0  0  0  0
  185.0720  178.2750  143.3420 C   0  0  0  0  0  0  0  0  0  0  0  0
  187.4780  178.3740  139.8280 N   0  0  0  0  0  1  0  0  0  0  0  0
  183.9220  178.9050  140.8800 C   0  0  0  0  0  0  0  0  0  0  0  0
  185.5010  178.9870  138.6040 N   0  0  0  0  0  0  0  0  0  0  0  0
  183.3460  179.2260  139.6290 C   0  0  0  0  0  0  0  0  0  0  0  0
  183.1770  178.8820  142.0200 N   0  0  0  0  0  0  0  0  0  0  0  0
  185.3080  178.9520  145.6610 N   0  0  0  0  0  0  0  0  0  0  0  0
  190.9070  176.5510  147.5610 O   0  0  0  0  0  1  0  0  0  0  0  0
  187.0250  178.0610  147.0920 C   0  0  1  0  0  3  0  0  0  0  0  0
  189.8820  177.4680  147.3290 C   0  0  2  0  0  3  0  0  0  0  0  0
  185.6470  177.9360  144.6780 C   0  0  2  0  0  3  0  0  0  0  0  0
  187.1660  177.6680  144.5820 C   0  0  0  0  0  2  0  0  0  0  0  0
  185.9130  179.0160  146.7970 C   0  0  0  0  0  3  0  0  0  0  0  0
  188.9740  177.5400  148.5580 C   0  0  0  0  0  2  0  0  0  0  0  0
  187.9370  178.0170  145.8640 C   0  0  2  0  0  3  0  0  0  0  0  0
  187.8170  178.5080  148.3160 C   0  0  0  0  0  2  0  0  0  0  0  0
  189.0880  177.0440  146.0950 C   0  0  0  0  0  2  0  0  0  0  0  0
  181.9860  179.5220  139.4400 O   0  0  0  0  0  0  0  0  0  0  0  0
  181.3910  181.5490  138.3310 C   0  0  0  0  0  0  0  0  0  0  0  0
  179.0230  180.9310  137.5050 S   0  0  0  0  0  0  0  0  0  0  0  0
  181.4250  180.0710  138.2530 C   0  0  2  0  0  3  0  0  0  0  0  0
  182.3900  182.2490  138.6420 O   0  0  0  0  0  0  0  0  0  0  0  0
  180.1870  182.1120  137.9970 O   0  0  0  0  0  0  0  0  0  0  0  0
  180.0460  179.5990  138.1080 N   0  0  0  0  0  2  0  0  0  0  0  0
  1  6  1  0  0  0  0
  2  6  2  0  0  0  0
  3  2  1  0  0  0  0
  4  9  2  0  0  0  0
  4 10  1  0  0  0  0
  5  7  1  0  0  0  0
  5  3  2  0  0  0  0
  8  3  1  0  0  0  0
  8 11  1  0  0  0  0
  9  5  1  0  0  0  0
 10  8  2  0  0  0  0
 11  1  2  0  0  0  0
 12 18  2  0  0  0  0
 14 18  1  6  0  0  0
 14 21  1  0  0  0  0
 15 13  1  1  0  0  0
 15 19  1  0  0  0  0
 16  6  1  6  0  0  0
 16 12  1  0  0  0  0
 17 16  1  0  0  0  0
 20 17  1  6  0  0  0
 20 22  1  0  0  0  0
 20 14  1  0  0  0  0
 21 19  1  0  0  0  0
 22 15  1  0  0  0  0
 23 10  1  0  0  0  0
 24 27  2  0  0  0  0
 25 28  1  0  0  0  0
 25 29  1  0  0  0  0
 26 24  1  0  0  0  0
 26 23  1  1  0  0  0
 28 24  1  0  0  0  0
 29 26  1  0  0  0  0
M  END
>  <MODEL>
8

>  <REMARK>
 VINA RESULT:      -8.9      6.039      8.063
  Name = 
  3 active torsions:
  status: ('A' for Active; 'I' for Inactive)
    1  A    between atoms: O_2  and  C_15
    2  A    between atoms: O_2  and  C_25
    3  A    between atoms: C_12  and  C_14
                            x       y       z     vdW  Elec       q    Type
                         _______ _______ _______ _____ _____    ______ ____

>  <TORSDO>
F 3

$$$$
=
 OpenBabel11062416333D

 29 33  0  0  1  0  0  0  0  0999 V2000
  190.7390  176.5930  140.6800 C   0  0  0  0  0  3  0  0  0  0  0  0
  188.6620  177.8100  140.6220 C   0  0  0  0  0  3  0  0  0  0  0  0
  188.5160  177.4820  139.2700 C   0  0  0  0  0  0  0  0  0  0  0  0
  188.2290  176.8050  136.5950 C   0  0  0  0  0  3  0  0  0  0  0  0
  187.3990  177.8990  138.5340 C   0  0  0  0  0  0  0  0  0  0  0  0
  189.7800  177.3660  141.3350 C   0  0  0  0  0  0  0  0  0  0  0  0
  186.3730  178.6820  139.1410 N   0  0  0  0  0  1  0  0  0  0  0  0
  189.5140  176.7040  138.6380 C   0  0  0  0  0  0  0  0  0  0  0  0
  187.2840  177.5480  137.2270 N   0  0  0  0  0  0  0  0  0  0  0  0
  189.3710  176.3690  137.2720 C   0  0  0  0  0  0  0  0  0  0  0  0
  190.5860  176.2820  139.3650 N   0  0  0  0  0  0  0  0  0  0  0  0
  191.0420  176.9230  143.3590 N   0  0  0  0  0  0  0  0  0  0  0  0
  186.9970  178.0770  148.1590 O   0  0  0  0  0  1  0  0  0  0  0  0
  190.2250  177.5240  145.5420 C   0  0  1  0  0  3  0  0  0  0  0  0
  187.9300  177.4210  147.3560 C   0  0  2  0  0  3  0  0  0  0  0  0
  189.9630  177.7050  142.7770 C   0  0  2  0  0  3  0  0  0  0  0  0
  188.6340  177.5790  143.5560 C   0  0  0  0  0  2  0  0  0  0  0  0
  191.2010  176.8430  144.6360 C   0  0  0  0  0  3  0  0  0  0  0  0
  189.3410  177.7150  147.8660 C   0  0  0  0  0  2  0  0  0  0  0  0
  188.8170  177.2010  145.0340 C   0  0  2  0  0  3  0  0  0  0  0  0
  190.3850  177.0400  146.9790 C   0  0  0  0  0  2  0  0  0  0  0  0
  187.7700  177.8810  145.9080 C   0  0  0  0  0  2  0  0  0  0  0  0
  190.3040  175.6110  136.5440 O   0  0  0  0  0  0  0  0  0  0  0  0
  191.8050  173.7650  136.7130 C   0  0  0  0  0  0  0  0  0  0  0  0
  190.9380  172.3000  134.7710 S   0  0  0  0  0  0  0  0  0  0  0  0
  190.3960  174.1910  136.5590 C   0  0  2  0  0  3  0  0  0  0  0  0
  192.5690  174.2090  137.6100 O   0  0  0  0  0  0  0  0  0  0  0  0
  192.2140  172.8090  135.8210 O   0  0  0  0  0  0  0  0  0  0  0  0
  189.9050  173.6620  135.2850 N   0  0  0  0  0  2  0  0  0  0  0  0
  1  6  1  0  0  0  0
  2  6  2  0  0  0  0
  3  2  1  0  0  0  0
  4  9  2  0  0  0  0
  4 10  1  0  0  0  0
  5  7  1  0  0  0  0
  5  3  2  0  0  0  0
  8  3  1  0  0  0  0
  8 11  1  0  0  0  0
  9  5  1  0  0  0  0
 10  8  2  0  0  0  0
 11  1  2  0  0  0  0
 12 18  2  0  0  0  0
 14 18  1  6  0  0  0
 14 21  1  0  0  0  0
 15 19  1  0  0  0  0
 15 13  1  1  0  0  0
 16  6  1  6  0  0  0
 16 12  1  0  0  0  0
 16 17  1  0  0  0  0
 20 17  1  6  0  0  0
 20 14  1  0  0  0  0
 20 22  1  0  0  0  0
 21 19  1  0  0  0  0
 22 15  1  0  0  0  0
 23 10  1  0  0  0  0
 24 27  2  0  0  0  0
 25 29  1  0  0  0  0
 25 28  1  0  0  0  0
 26 23  1  6  0  0  0
 26 24  1  0  0  0  0
 28 24  1  0  0  0  0
 29 26  1  0  0  0  0
M  END
>  <MODEL>
9

>  <REMARK>
 VINA RESULT:      -8.9      1.466      1.692
  Name = 
  3 active torsions:
  status: ('A' for Active; 'I' for Inactive)
    1  A    between atoms: O_2  and  C_15
    2  A    between atoms: O_2  and  C_25
    3  A    between atoms: C_12  and  C_14
                            x       y       z     vdW  Elec       q    Type
                         _______ _______ _______ _____ _____    ______ ____

>  <TORSDO>
F 3

$$$$
