=
 OpenBabel11062415263D

 37 40  0  0  1  0  0  0  0  0999 V2000
  189.1350  177.4210  141.4870 C   0  0  0  0  0  0  0  0  0  0  0  0
  190.0400  176.4570  141.1590 N   0  0  0  0  0  0  0  0  0  0  0  0
  187.5310  179.1450  140.7280 O   0  0  0  0  0  1  0  0  0  0  0  0
  190.6580  176.4450  139.9530 C   0  0  0  0  0  3  0  0  0  0  0  0
  188.6600  178.3360  140.5450 C   0  0  0  0  0  0  0  0  0  0  0  0
  189.3570  178.3020  139.3160 C   0  0  0  0  0  0  0  0  0  0  0  0
  190.3240  177.4270  139.0230 C   0  0  0  0  0  3  0  0  0  0  0  0
  188.7760  178.2090  147.6750 O   0  0  0  0  0  1  0  0  0  0  0  0
  191.6720  177.3670  144.8080 C   0  0  0  0  0  2  0  0  0  0  0  0
  189.2430  177.1700  144.0310 C   0  0  0  0  0  0  0  0  0  0  0  0
  191.7010  176.7180  146.2020 C   0  0  0  0  0  2  0  0  0  0  0  0
  190.4040  176.6070  147.0190 C   0  0  0  0  0  2  0  0  0  0  0  0
  186.4830  177.4270  144.0440 N   0  0  0  0  0  0  0  0  0  0  0  0
  187.1080  177.3920  145.2790 C   0  0  0  0  0  0  0  0  0  0  0  0
  190.6830  176.7100  143.8240 C   0  0  0  0  0  2  0  0  0  0  0  0
  187.1350  177.4220  142.8270 C   0  0  0  0  0  3  0  0  0  0  0  0
  188.5090  177.3050  142.8510 C   0  0  0  0  0  0  0  0  0  0  0  0
  188.5980  177.3530  145.3300 C   0  0  0  0  0  0  0  0  0  0  0  0
  189.4870  177.7140  146.5430 C   0  0  1  0  0  3  0  0  0  0  0  0
  186.1550  177.7480  146.4700 C   0  0  0  0  0  2  0  0  0  0  0  0
  185.4280  179.0340  146.3870 C   0  0  0  0  0  2  0  0  0  0  0  0
  184.0380  178.7090  146.3010 N   0  0  0  0  0  2  0  0  0  0  0  0
  183.7210  179.1430  144.9460 C   0  0  0  0  0  1  0  0  0  0  0  0
  189.0520  179.1960  138.3020 O   0  0  0  0  0  0  0  0  0  0  0  0
  188.7580  178.6370  137.0450 C   0  0  0  0  0  2  0  0  0  0  0  0
  187.1060  177.0300  136.3570 N   0  0  0  0  0  0  0  0  0  0  0  0
  185.7910  174.5330  135.8720 C   0  0  2  0  0  3  0  0  0  0  0  0
  187.7900  175.7930  136.6730 C   0  0  0  0  0  2  0  0  0  0  0  0
  187.3730  178.1470  137.1070 C   0  0  0  0  0  0  0  0  0  0  0  0
  185.4010  175.6940  134.9490 C   0  0  0  0  0  2  0  0  0  0  0  0
  186.4380  178.8840  137.5390 O   0  0  0  0  0  0  0  0  0  0  0  0
  186.6820  174.8710  137.0600 C   0  0  0  0  0  2  0  0  0  0  0  0
  186.0470  177.0230  135.2970 C   0  0  0  0  0  2  0  0  0  0  0  0
  186.3850  173.5320  135.0340 O   0  0  0  0  0  0  0  0  0  0  0  0
  186.0600  172.1540  135.8130 P   0  0  0  0  0  0  0  0  0  0  0  0
  186.9000  171.0020  135.4330 O   0  0  0  0  0  0  0  0  0  0  0  0
  184.5910  171.8880  136.3180 O   0  0  0  0  0  0  0  0  0  0  0  0
  1 17  1  0  0  0  0
  2  1  1  0  0  0  0
  4  2  2  0  0  0  0
  5  3  1  0  0  0  0
  5  1  2  0  0  0  0
  6  5  1  0  0  0  0
  7  6  2  0  0  0  0
  7  4  1  0  0  0  0
  9 11  1  0  0  0  0
 10 18  1  0  0  0  0
 11 12  1  0  0  0  0
 13 14  1  0  0  0  0
 14 18  2  0  0  0  0
 14 20  1  0  0  0  0
 15 10  1  0  0  0  0
 15  9  1  0  0  0  0
 16 17  1  0  0  0  0
 16 13  2  0  0  0  0
 17 10  2  0  0  0  0
 18 19  1  0  0  0  0
 19 12  1  0  0  0  0
 19  8  1  1  0  0  0
 21 20  1  0  0  0  0
 22 21  1  0  0  0  0
 23 22  1  0  0  0  0
 24  6  1  0  0  0  0
 25 29  1  0  0  0  0
 25 24  1  0  0  0  0
 26 28  1  0  0  0  0
 26 29  1  0  0  0  0
 27 34  1  6  0  0  0
 27 32  1  0  0  0  0
 28 32  1  0  0  0  0
 29 31  2  0  0  0  0
 30 33  1  0  0  0  0
 30 27  1  0  0  0  0
 33 26  1  0  0  0  0
 34 35  1  0  0  0  0
 35 37  2  0  0  0  0
 36 35  2  0  0  0  0
M  END
>  <MODEL>
1

>  <REMARK>
 VINA RESULT:      -8.9      0.000      0.000
  Name = 
  9 active torsions:
  status: ('A' for Active; 'I' for Inactive)
    1  A    between atoms: C_4  and  C_29
    2  A    between atoms: P_9  and  O_31
    3  A    between atoms: C_12  and  O_31
    4  A    between atoms: C_14  and  C_23
    5  A    between atoms: C_17  and  C_36
    6  A    between atoms: N_21  and  C_27
    7  A    between atoms: C_23  and  C_27
    8  A    between atoms: C_28  and  O_32
    9  A    between atoms: O_32  and  C_36
                            x       y       z     vdW  Elec       q    Type
                         _______ _______ _______ _____ _____    ______ ____

>  <TORSDO>
F 9

$$$$
=
 OpenBabel11062415263D

 37 40  0  0  1  0  0  0  0  0999 V2000
  189.2100  177.7200  141.1700 C   0  0  0  0  0  0  0  0  0  0  0  0
  188.7760  178.7280  140.3640 N   0  0  0  0  0  0  0  0  0  0  0  0
  190.6490  175.7280  141.4560 O   0  0  0  0  0  1  0  0  0  0  0  0
  188.8590  178.6430  139.0130 C   0  0  0  0  0  3  0  0  0  0  0  0
  189.9250  176.6310  140.6670 C   0  0  0  0  0  0  0  0  0  0  0  0
  189.9560  176.5730  139.2550 C   0  0  0  0  0  0  0  0  0  0  0  0
  189.4370  177.5060  138.4520 C   0  0  0  0  0  3  0  0  0  0  0  0
  186.4910  177.3030  146.7800 O   0  0  0  0  0  1  0  0  0  0  0  0
  185.3640  177.7880  142.8040 C   0  0  0  0  0  2  0  0  0  0  0  0
  187.8520  178.1040  143.3050 C   0  0  0  0  0  0  0  0  0  0  0  0
  184.6300  178.5100  143.9470 C   0  0  0  0  0  2  0  0  0  0  0  0
  185.3500  178.7530  145.2820 C   0  0  0  0  0  2  0  0  0  0  0  0
  190.2520  178.0340  144.6890 N   0  0  0  0  0  0  0  0  0  0  0  0
  189.0990  178.0950  145.4520 C   0  0  0  0  0  0  0  0  0  0  0  0
  186.6890  178.4550  142.3810 C   0  0  0  0  0  2  0  0  0  0  0  0
  190.2870  177.9270  143.3130 C   0  0  0  0  0  3  0  0  0  0  0  0
  189.0770  177.9530  142.6510 C   0  0  0  0  0  0  0  0  0  0  0  0
  187.7770  178.0380  144.7630 C   0  0  0  0  0  0  0  0  0  0  0  0
  186.4170  177.6850  145.4090 C   0  0  1  0  0  3  0  0  0  0  0  0
  189.3500  177.8710  146.9820 C   0  0  0  0  0  2  0  0  0  0  0  0
  190.0610  176.6330  147.3710 C   0  0  0  0  0  2  0  0  0  0  0  0
  191.4080  177.0140  147.6600 N   0  0  0  0  0  2  0  0  0  0  0  0
  192.1410  175.8180  147.2600 C   0  0  0  0  0  1  0  0  0  0  0  0
  190.5680  175.5150  138.6020 O   0  0  0  0  0  0  0  0  0  0  0  0
  191.0580  175.7780  137.3110 C   0  0  0  0  0  2  0  0  0  0  0  0
  193.2040  174.8670  136.7150 N   0  0  0  0  0  0  0  0  0  0  0  0
  195.9790  174.1710  136.8310 C   0  0  2  0  0  3  0  0  0  0  0  0
  194.0070  175.3250  137.8310 C   0  0  0  0  0  2  0  0  0  0  0  0
  191.8700  174.6170  136.9160 C   0  0  0  0  0  0  0  0  0  0  0  0
  195.3700  174.2970  135.4280 C   0  0  0  0  0  2  0  0  0  0  0  0
  191.3280  173.5620  136.4700 O   0  0  0  0  0  0  0  0  0  0  0  0
  195.0130  174.2380  138.0060 C   0  0  0  0  0  2  0  0  0  0  0  0
  193.8770  174.5730  135.4100 C   0  0  0  0  0  2  0  0  0  0  0  0
  196.9940  175.1800  136.9230 O   0  0  0  0  0  0  0  0  0  0  0  0
  197.9960  174.5980  138.0500 P   0  0  0  0  0  0  0  0  0  0  0  0
  198.4180  175.5670  139.0790 O   0  0  0  0  0  0  0  0  0  0  0  0
  198.9710  173.4200  137.6730 O   0  0  0  0  0  0  0  0  0  0  0  0
  1 17  1  0  0  0  0
  2  1  2  0  0  0  0
  4  2  1  0  0  0  0
  5  1  1  0  0  0  0
  5  3  1  0  0  0  0
  6  5  2  0  0  0  0
  7  4  2  0  0  0  0
  7  6  1  0  0  0  0
  9 11  1  0  0  0  0
 10 18  1  0  0  0  0
 11 12  1  0  0  0  0
 12 19  1  0  0  0  0
 13 14  1  0  0  0  0
 14 20  1  0  0  0  0
 15  9  1  0  0  0  0
 15 10  1  0  0  0  0
 16 13  2  0  0  0  0
 17 10  2  0  0  0  0
 17 16  1  0  0  0  0
 18 19  1  0  0  0  0
 18 14  2  0  0  0  0
 19  8  1  1  0  0  0
 20 21  1  0  0  0  0
 21 22  1  0  0  0  0
 23 22  1  0  0  0  0
 24  6  1  0  0  0  0
 25 24  1  0  0  0  0
 26 29  1  0  0  0  0
 26 28  1  0  0  0  0
 27 34  1  1  0  0  0
 27 32  1  0  0  0  0
 28 32  1  0  0  0  0
 29 25  1  0  0  0  0
 30 27  1  0  0  0  0
 31 29  2  0  0  0  0
 33 30  1  0  0  0  0
 33 26  1  0  0  0  0
 34 35  1  0  0  0  0
 35 36  2  0  0  0  0
 37 35  2  0  0  0  0
M  END
>  <MODEL>
2

>  <REMARK>
 VINA RESULT:      -8.5      4.770      6.646
  Name = 
  9 active torsions:
  status: ('A' for Active; 'I' for Inactive)
    1  A    between atoms: C_4  and  C_29
    2  A    between atoms: P_9  and  O_31
    3  A    between atoms: C_12  and  O_31
    4  A    between atoms: C_14  and  C_23
    5  A    between atoms: C_17  and  C_36
    6  A    between atoms: N_21  and  C_27
    7  A    between atoms: C_23  and  C_27
    8  A    between atoms: C_28  and  O_32
    9  A    between atoms: O_32  and  C_36
                            x       y       z     vdW  Elec       q    Type
                         _______ _______ _______ _____ _____    ______ ____

>  <TORSDO>
F 9

$$$$
=
 OpenBabel11062415263D

 37 40  0  0  1  0  0  0  0  0999 V2000
  189.1720  177.4200  141.5910 C   0  0  0  0  0  0  0  0  0  0  0  0
  190.2100  176.5640  141.3790 N   0  0  0  0  0  0  0  0  0  0  0  0
  187.3980  178.8520  140.6290 O   0  0  0  0  0  1  0  0  0  0  0  0
  190.8840  176.5420  140.2030 C   0  0  0  0  0  3  0  0  0  0  0  0
  188.6300  178.1890  140.5580 C   0  0  0  0  0  0  0  0  0  0  0  0
  189.3870  178.1560  139.3650 C   0  0  0  0  0  0  0  0  0  0  0  0
  190.4720  177.3980  139.1830 C   0  0  0  0  0  3  0  0  0  0  0  0
  188.6130  178.2750  147.7550 O   0  0  0  0  0  1  0  0  0  0  0  0
  191.5940  177.3700  144.9950 C   0  0  0  0  0  2  0  0  0  0  0  0
  189.1900  177.1940  144.1390 C   0  0  0  0  0  0  0  0  0  0  0  0
  191.5680  176.7350  146.3960 C   0  0  0  0  0  2  0  0  0  0  0  0
  190.2430  176.6470  147.1700 C   0  0  0  0  0  2  0  0  0  0  0  0
  186.4350  177.4830  144.0550 N   0  0  0  0  0  0  0  0  0  0  0  0
  187.0170  177.4530  145.3110 C   0  0  0  0  0  0  0  0  0  0  0  0
  190.6310  176.7140  143.9850 C   0  0  0  0  0  2  0  0  0  0  0  0
  187.1280  177.4580  142.8610 C   0  0  0  0  0  3  0  0  0  0  0  0
  188.4990  177.3250  142.9330 C   0  0  0  0  0  0  0  0  0  0  0  0
  188.5040  177.3970  145.4130 C   0  0  0  0  0  0  0  0  0  0  0  0
  189.3560  177.7610  146.6520 C   0  0  1  0  0  3  0  0  0  0  0  0
  186.0280  177.8320  146.4650 C   0  0  0  0  0  2  0  0  0  0  0  0
  185.3030  179.1150  146.3330 C   0  0  0  0  0  2  0  0  0  0  0  0
  183.9130  178.7870  146.2480 N   0  0  0  0  0  2  0  0  0  0  0  0
  183.6150  179.1460  144.8660 C   0  0  0  0  0  1  0  0  0  0  0  0
  189.0190  178.9210  138.2690 O   0  0  0  0  0  0  0  0  0  0  0  0
  188.6730  178.2160  137.1030 C   0  0  0  0  0  2  0  0  0  0  0  0
  186.3550  177.8400  136.5820 N   0  0  0  0  0  0  0  0  0  0  0  0
  183.6110  177.0640  136.8400 C   0  0  2  0  0  3  0  0  0  0  0  0
  185.9080  177.1990  137.8030 C   0  0  0  0  0  2  0  0  0  0  0  0
  187.3800  178.7490  136.6480 C   0  0  0  0  0  0  0  0  0  0  0  0
  184.1830  177.0690  135.4160 C   0  0  0  0  0  2  0  0  0  0  0  0
  187.3090  179.8610  136.0450 O   0  0  0  0  0  0  0  0  0  0  0  0
  184.4920  177.6500  137.9340 C   0  0  0  0  0  2  0  0  0  0  0  0
  185.6090  177.5770  135.3100 C   0  0  0  0  0  2  0  0  0  0  0  0
  183.2480  175.7060  137.1240 O   0  0  0  0  0  0  0  0  0  0  0  0
  181.9180  175.8580  138.0300 P   0  0  0  0  0  0  0  0  0  0  0  0
  182.0570  175.4220  139.4320 O   0  0  0  0  0  0  0  0  0  0  0  0
  180.5050  175.7530  137.3400 O   0  0  0  0  0  0  0  0  0  0  0  0
  1 17  1  0  0  0  0
  2  1  1  0  0  0  0
  4  2  2  0  0  0  0
  5  3  1  0  0  0  0
  5  1  2  0  0  0  0
  6  5  1  0  0  0  0
  7  6  2  0  0  0  0
  7  4  1  0  0  0  0
  9 11  1  0  0  0  0
 10 18  1  0  0  0  0
 11 12  1  0  0  0  0
 13 14  1  0  0  0  0
 14 18  2  0  0  0  0
 14 20  1  0  0  0  0
 15 10  1  0  0  0  0
 15  9  1  0  0  0  0
 16 17  1  0  0  0  0
 16 13  2  0  0  0  0
 17 10  2  0  0  0  0
 18 19  1  0  0  0  0
 19 12  1  0  0  0  0
 19  8  1  1  0  0  0
 21 20  1  0  0  0  0
 22 21  1  0  0  0  0
 23 22  1  0  0  0  0
 24  6  1  0  0  0  0
 25 24  1  0  0  0  0
 26 29  1  0  0  0  0
 26 28  1  0  0  0  0
 27 34  1  1  0  0  0
 27 32  1  0  0  0  0
 28 32  1  0  0  0  0
 29 25  1  0  0  0  0
 30 27  1  0  0  0  0
 31 29  2  0  0  0  0
 33 30  1  0  0  0  0
 33 26  1  0  0  0  0
 34 35  1  0  0  0  0
 35 36  2  0  0  0  0
 37 35  2  0  0  0  0
M  END
>  <MODEL>
3

>  <REMARK>
 VINA RESULT:      -8.3      1.987      2.263
  Name = 
  9 active torsions:
  status: ('A' for Active; 'I' for Inactive)
    1  A    between atoms: C_4  and  C_29
    2  A    between atoms: P_9  and  O_31
    3  A    between atoms: C_12  and  O_31
    4  A    between atoms: C_14  and  C_23
    5  A    between atoms: C_17  and  C_36
    6  A    between atoms: N_21  and  C_27
    7  A    between atoms: C_23  and  C_27
    8  A    between atoms: C_28  and  O_32
    9  A    between atoms: O_32  and  C_36
                            x       y       z     vdW  Elec       q    Type
                         _______ _______ _______ _____ _____    ______ ____

>  <TORSDO>
F 9

$$$$
=
 OpenBabel11062415263D

 37 40  0  0  1  0  0  0  0  0999 V2000
  186.3330  178.2430  138.1090 C   0  0  0  0  0  0  0  0  0  0  0  0
  186.6300  178.4350  136.7940 N   0  0  0  0  0  0  0  0  0  0  0  0
  187.0560  178.3910  140.4710 O   0  0  0  0  0  1  0  0  0  0  0  0
  187.9120  178.4990  136.3570 C   0  0  0  0  0  3  0  0  0  0  0  0
  187.3180  178.2830  139.0990 C   0  0  0  0  0  0  0  0  0  0  0  0
  188.6360  178.3170  138.5900 C   0  0  0  0  0  0  0  0  0  0  0  0
  188.9400  178.3980  137.2920 C   0  0  0  0  0  3  0  0  0  0  0  0
  180.9690  175.6150  139.9410 O   0  0  0  0  0  1  0  0  0  0  0  0
  184.2740  174.6420  137.6060 C   0  0  0  0  0  2  0  0  0  0  0  0
  184.0440  177.1090  138.2410 C   0  0  0  0  0  0  0  0  0  0  0  0
  182.8530  174.1920  137.2250 C   0  0  0  0  0  2  0  0  0  0  0  0
  181.6390  174.9720  137.7530 C   0  0  0  0  0  2  0  0  0  0  0  0
  183.1370  179.3830  139.5400 N   0  0  0  0  0  0  0  0  0  0  0  0
  182.2540  178.3200  139.4630 C   0  0  0  0  0  0  0  0  0  0  0  0
  184.5960  176.1040  137.2350 C   0  0  0  0  0  2  0  0  0  0  0  0
  184.4430  179.3610  139.0930 C   0  0  0  0  0  3  0  0  0  0  0  0
  184.8710  178.2130  138.4600 C   0  0  0  0  0  0  0  0  0  0  0  0
  182.7220  177.0380  138.8610 C   0  0  0  0  0  0  0  0  0  0  0  0
  182.0720  175.6460  139.0390 C   0  0  1  0  0  3  0  0  0  0  0  0
  180.9710  178.5090  140.3420 C   0  0  0  0  0  2  0  0  0  0  0  0
  181.1730  178.6660  141.8000 C   0  0  0  0  0  2  0  0  0  0  0  0
  179.9290  178.3310  142.4200 N   0  0  0  0  0  2  0  0  0  0  0  0
  180.2370  178.5540  143.8280 C   0  0  0  0  0  1  0  0  0  0  0  0
  189.7280  178.2900  139.4450 O   0  0  0  0  0  0  0  0  0  0  0  0
  190.3090  177.0300  139.6740 C   0  0  0  0  0  2  0  0  0  0  0  0
  190.8740  177.2960  141.9980 N   0  0  0  0  0  0  0  0  0  0  0  0
  191.0600  176.8120  144.8140 C   0  0  2  0  0  3  0  0  0  0  0  0
  190.1920  176.1520  142.5700 C   0  0  0  0  0  2  0  0  0  0  0  0
  191.3370  177.2150  140.7090 C   0  0  0  0  0  0  0  0  0  0  0  0
  191.1580  178.2780  144.3700 C   0  0  0  0  0  2  0  0  0  0  0  0
  192.5030  177.6070  140.4080 O   0  0  0  0  0  0  0  0  0  0  0  0
  191.0680  175.7610  143.7130 C   0  0  0  0  0  2  0  0  0  0  0  0
  191.1510  178.4850  142.8660 C   0  0  0  0  0  2  0  0  0  0  0  0
  189.8850  176.7140  145.6290 O   0  0  0  0  0  0  0  0  0  0  0  0
  190.4600  176.8700  147.1320 P   0  0  0  0  0  0  0  0  0  0  0  0
  189.7000  177.7830  148.0060 O   0  0  0  0  0  0  0  0  0  0  0  0
  192.0050  176.6910  147.3820 O   0  0  0  0  0  0  0  0  0  0  0  0
  1 17  1  0  0  0  0
  1  5  1  0  0  0  0
  2  1  2  0  0  0  0
  4  2  1  0  0  0  0
  4  7  2  0  0  0  0
  5  3  1  0  0  0  0
  6  5  2  0  0  0  0
  6 24  1  0  0  0  0
  7  6  1  0  0  0  0
 10 17  2  0  0  0  0
 10 18  1  0  0  0  0
 11  9  1  0  0  0  0
 11 12  1  0  0  0  0
 12 19  1  0  0  0  0
 14 13  1  0  0  0  0
 14 20  1  0  0  0  0
 15  9  1  0  0  0  0
 15 10  1  0  0  0  0
 16 13  2  0  0  0  0
 17 16  1  0  0  0  0
 18 19  1  0  0  0  0
 18 14  2  0  0  0  0
 19  8  1  1  0  0  0
 20 21  1  0  0  0  0
 21 22  1  0  0  0  0
 22 23  1  0  0  0  0
 24 25  1  0  0  0  0
 25 29  1  0  0  0  0
 26 28  1  0  0  0  0
 26 33  1  0  0  0  0
 27 34  1  6  0  0  0
 28 32  1  0  0  0  0
 29 26  1  0  0  0  0
 30 27  1  0  0  0  0
 31 29  2  0  0  0  0
 32 27  1  0  0  0  0
 33 30  1  0  0  0  0
 34 35  1  0  0  0  0
 35 37  2  0  0  0  0
 35 36  2  0  0  0  0
M  END
>  <MODEL>
4

>  <REMARK>
 VINA RESULT:      -7.9      3.990      8.357
  Name = 
  9 active torsions:
  status: ('A' for Active; 'I' for Inactive)
    1  A    between atoms: C_4  and  C_29
    2  A    between atoms: P_9  and  O_31
    3  A    between atoms: C_12  and  O_31
    4  A    between atoms: C_14  and  C_23
    5  A    between atoms: C_17  and  C_36
    6  A    between atoms: N_21  and  C_27
    7  A    between atoms: C_23  and  C_27
    8  A    between atoms: C_28  and  O_32
    9  A    between atoms: O_32  and  C_36
                            x       y       z     vdW  Elec       q    Type
                         _______ _______ _______ _____ _____    ______ ____

>  <TORSDO>
F 9

$$$$
=
 OpenBabel11062415263D

 37 40  0  0  1  0  0  0  0  0999 V2000
  190.0860  177.2190  140.8510 C   0  0  0  0  0  0  0  0  0  0  0  0
  191.3270  177.7420  140.6470 N   0  0  0  0  0  0  0  0  0  0  0  0
  188.3400  176.5100  142.4550 O   0  0  0  0  0  1  0  0  0  0  0  0
  192.2830  177.6960  141.6080 C   0  0  0  0  0  3  0  0  0  0  0  0
  189.6720  176.7750  142.1090 C   0  0  0  0  0  0  0  0  0  0  0  0
  190.7120  176.7180  143.0640 C   0  0  0  0  0  0  0  0  0  0  0  0
  191.9630  177.1290  142.8400 C   0  0  0  0  0  3  0  0  0  0  0  0
  186.6950  175.2360  135.9930 O   0  0  0  0  0  1  0  0  0  0  0  0
  190.4590  174.5710  137.6400 C   0  0  0  0  0  2  0  0  0  0  0  0
  189.1930  176.6070  138.5330 C   0  0  0  0  0  0  0  0  0  0  0  0
  190.2340  174.5950  136.1180 C   0  0  0  0  0  2  0  0  0  0  0  0
  189.0250  175.3450  135.5380 C   0  0  0  0  0  2  0  0  0  0  0  0
  187.0980  178.3540  139.0210 N   0  0  0  0  0  0  0  0  0  0  0  0
  187.0200  177.6010  137.8620 C   0  0  0  0  0  0  0  0  0  0  0  0
  190.5570  175.9670  138.2880 C   0  0  0  0  0  2  0  0  0  0  0  0
  188.0910  178.2400  139.9740 C   0  0  0  0  0  3  0  0  0  0  0  0
  189.1150  177.3540  139.7100 C   0  0  0  0  0  0  0  0  0  0  0  0
  188.0700  176.5760  137.5980 C   0  0  0  0  0  0  0  0  0  0  0  0
  187.9660  175.3810  136.6200 C   0  0  1  0  0  3  0  0  0  0  0  0
  185.6290  177.6990  137.1470 C   0  0  0  0  0  2  0  0  0  0  0  0
  184.4460  177.2560  137.9170 C   0  0  0  0  0  2  0  0  0  0  0  0
  183.4110  178.2070  137.6520 N   0  0  0  0  0  2  0  0  0  0  0  0
  183.4820  179.0510  138.8390 C   0  0  0  0  0  1  0  0  0  0  0  0
  190.4780  176.2320  144.3410 O   0  0  0  0  0  0  0  0  0  0  0  0
  190.5650  177.1650  145.3890 C   0  0  0  0  0  2  0  0  0  0  0  0
  188.4300  177.7610  146.3240 N   0  0  0  0  0  0  0  0  0  0  0  0
  185.6600  178.4600  146.5260 C   0  0  2  0  0  3  0  0  0  0  0  0
  187.6480  177.9290  145.1150 C   0  0  0  0  0  2  0  0  0  0  0  0
  189.4690  176.8650  146.3220 C   0  0  0  0  0  0  0  0  0  0  0  0
  186.5690  178.9550  147.6600 C   0  0  0  0  0  2  0  0  0  0  0  0
  189.6290  176.0480  147.2770 O   0  0  0  0  0  0  0  0  0  0  0  0
  186.2790  177.4960  145.5230 C   0  0  0  0  0  2  0  0  0  0  0  0
  188.0090  178.4840  147.5660 C   0  0  0  0  0  2  0  0  0  0  0  0
  185.1420  179.6320  145.8830 O   0  0  0  0  0  0  0  0  0  0  0  0
  184.3170  179.0340  144.6280 P   0  0  0  0  0  0  0  0  0  0  0  0
  184.7670  179.4940  143.3010 O   0  0  0  0  0  0  0  0  0  0  0  0
  182.8020  178.6460  144.8230 O   0  0  0  0  0  0  0  0  0  0  0  0
  1  5  1  0  0  0  0
  2  1  2  0  0  0  0
  2  4  1  0  0  0  0
  4  7  2  0  0  0  0
  5  3  1  0  0  0  0
  5  6  2  0  0  0  0
  6 24  1  0  0  0  0
  7  6  1  0  0  0  0
  9 15  1  0  0  0  0
 10 17  1  0  0  0  0
 11  9  1  0  0  0  0
 12 11  1  0  0  0  0
 12 19  1  0  0  0  0
 13 16  1  0  0  0  0
 14 13  2  0  0  0  0
 15 10  1  0  0  0  0
 17 16  2  0  0  0  0
 17  1  1  0  0  0  0
 18 14  1  0  0  0  0
 18 10  2  0  0  0  0
 19  8  1  6  0  0  0
 19 18  1  0  0  0  0
 20 14  1  0  0  0  0
 20 21  1  0  0  0  0
 22 21  1  0  0  0  0
 22 23  1  0  0  0  0
 24 25  1  0  0  0  0
 25 29  1  0  0  0  0
 26 33  1  0  0  0  0
 27 34  1  6  0  0  0
 27 30  1  0  0  0  0
 28 32  1  0  0  0  0
 28 26  1  0  0  0  0
 29 26  1  0  0  0  0
 29 31  2  0  0  0  0
 32 27  1  0  0  0  0
 33 30  1  0  0  0  0
 35 37  2  0  0  0  0
 35 34  1  0  0  0  0
 36 35  2  0  0  0  0
M  END
>  <MODEL>
5

>  <REMARK>
 VINA RESULT:      -7.9      3.123      8.558
  Name = 
  9 active torsions:
  status: ('A' for Active; 'I' for Inactive)
    1  A    between atoms: C_4  and  C_29
    2  A    between atoms: P_9  and  O_31
    3  A    between atoms: C_12  and  O_31
    4  A    between atoms: C_14  and  C_23
    5  A    between atoms: C_17  and  C_36
    6  A    between atoms: N_21  and  C_27
    7  A    between atoms: C_23  and  C_27
    8  A    between atoms: C_28  and  O_32
    9  A    between atoms: O_32  and  C_36
                            x       y       z     vdW  Elec       q    Type
                         _______ _______ _______ _____ _____    ______ ____

>  <TORSDO>
F 9

$$$$
=
 OpenBabel11062415263D

 37 40  0  0  1  0  0  0  0  0999 V2000
  190.2680  177.4330  141.7920 C   0  0  0  0  0  0  0  0  0  0  0  0
  191.5680  177.5000  142.1930 N   0  0  0  0  0  0  0  0  0  0  0  0
  188.6380  176.8040  140.0410 O   0  0  0  0  0  1  0  0  0  0  0  0
  192.5880  177.4980  141.3000 C   0  0  0  0  0  3  0  0  0  0  0  0
  189.9200  177.1770  140.4640 C   0  0  0  0  0  0  0  0  0  0  0  0
  191.0140  177.2170  139.5700 C   0  0  0  0  0  0  0  0  0  0  0  0
  192.2850  177.3900  139.9440 C   0  0  0  0  0  3  0  0  0  0  0  0
  188.1210  178.2660  147.6010 O   0  0  0  0  0  1  0  0  0  0  0  0
  191.5960  176.9510  145.7260 C   0  0  0  0  0  2  0  0  0  0  0  0
  189.5330  177.1660  144.2280 C   0  0  0  0  0  0  0  0  0  0  0  0
  191.0830  176.3050  147.0240 C   0  0  0  0  0  2  0  0  0  0  0  0
  189.5950  176.4130  147.3940 C   0  0  0  0  0  2  0  0  0  0  0  0
  186.9860  177.8820  143.4030 N   0  0  0  0  0  0  0  0  0  0  0  0
  187.1790  177.7420  144.7660 C   0  0  0  0  0  0  0  0  0  0  0  0
  190.8730  176.4700  144.4510 C   0  0  0  0  0  2  0  0  0  0  0  0
  187.9770  177.7690  142.4470 C   0  0  0  0  0  3  0  0  0  0  0  0
  189.2370  177.4230  142.8880 C   0  0  0  0  0  0  0  0  0  0  0  0
  188.5510  177.4530  145.2730 C   0  0  0  0  0  0  0  0  0  0  0  0
  189.0620  177.6600  146.7180 C   0  0  1  0  0  3  0  0  0  0  0  0
  185.9700  178.2520  145.6230 C   0  0  0  0  0  2  0  0  0  0  0  0
  185.0960  179.2750  145.0070 C   0  0  0  0  0  2  0  0  0  0  0  0
  183.7670  178.9950  145.4550 N   0  0  0  0  0  2  0  0  0  0  0  0
  183.0380  178.9530  144.1930 C   0  0  0  0  0  1  0  0  0  0  0  0
  190.8240  177.0520  138.2070 O   0  0  0  0  0  0  0  0  0  0  0  0
  190.7280  175.7280  137.7460 C   0  0  0  0  0  2  0  0  0  0  0  0
  192.8420  175.3410  136.6630 N   0  0  0  0  0  0  0  0  0  0  0  0
  195.2840  174.0810  135.8600 C   0  0  2  0  0  3  0  0  0  0  0  0
  193.2010  174.0570  137.2320 C   0  0  0  0  0  2  0  0  0  0  0  0
  191.5140  175.6480  136.5060 C   0  0  0  0  0  0  0  0  0  0  0  0
  195.2690  175.6150  135.8220 C   0  0  0  0  0  2  0  0  0  0  0  0
  191.0840  176.1540  135.4270 O   0  0  0  0  0  0  0  0  0  0  0  0
  193.9560  173.3890  136.1320 C   0  0  0  0  0  2  0  0  0  0  0  0
  193.9290  176.2420  136.1630 C   0  0  0  0  0  2  0  0  0  0  0  0
  196.2800  173.7110  136.8240 O   0  0  0  0  0  0  0  0  0  0  0  0
  197.6040  174.4800  136.3050 P   0  0  0  0  0  0  0  0  0  0  0  0
  198.2600  173.8820  135.1270 O   0  0  0  0  0  0  0  0  0  0  0  0
  198.4850  175.2730  137.3440 O   0  0  0  0  0  0  0  0  0  0  0  0
  1  2  1  0  0  0  0
  1 17  1  0  0  0  0
  3  5  1  0  0  0  0
  4  2  2  0  0  0  0
  5  1  2  0  0  0  0
  6  7  2  0  0  0  0
  6  5  1  0  0  0  0
  7  4  1  0  0  0  0
  9 11  1  0  0  0  0
 10 15  1  0  0  0  0
 10 18  1  0  0  0  0
 11 12  1  0  0  0  0
 13 14  1  0  0  0  0
 14 18  2  0  0  0  0
 14 20  1  0  0  0  0
 15  9  1  0  0  0  0
 16 17  1  0  0  0  0
 16 13  2  0  0  0  0
 17 10  2  0  0  0  0
 18 19  1  0  0  0  0
 19 12  1  0  0  0  0
 19  8  1  1  0  0  0
 21 22  1  0  0  0  0
 21 20  1  0  0  0  0
 23 22  1  0  0  0  0
 24  6  1  0  0  0  0
 25 24  1  0  0  0  0
 26 28  1  0  0  0  0
 27 32  1  0  0  0  0
 27 34  1  1  0  0  0
 29 26  1  0  0  0  0
 29 25  1  0  0  0  0
 30 27  1  0  0  0  0
 30 33  1  0  0  0  0
 31 29  2  0  0  0  0
 32 28  1  0  0  0  0
 33 26  1  0  0  0  0
 35 34  1  0  0  0  0
 35 37  2  0  0  0  0
 36 35  2  0  0  0  0
M  END
>  <MODEL>
6

>  <REMARK>
 VINA RESULT:      -7.8      4.413      5.404
  Name = 
  9 active torsions:
  status: ('A' for Active; 'I' for Inactive)
    1  A    between atoms: C_4  and  C_29
    2  A    between atoms: P_9  and  O_31
    3  A    between atoms: C_12  and  O_31
    4  A    between atoms: C_14  and  C_23
    5  A    between atoms: C_17  and  C_36
    6  A    between atoms: N_21  and  C_27
    7  A    between atoms: C_23  and  C_27
    8  A    between atoms: C_28  and  O_32
    9  A    between atoms: O_32  and  C_36
                            x       y       z     vdW  Elec       q    Type
                         _______ _______ _______ _____ _____    ______ ____

>  <TORSDO>
F 9

$$$$
=
 OpenBabel11062415263D

 37 40  0  0  1  0  0  0  0  0999 V2000
  188.3420  177.5700  141.8210 C   0  0  0  0  0  0  0  0  0  0  0  0
  189.3030  176.6640  142.1520 N   0  0  0  0  0  0  0  0  0  0  0  0
  187.1870  178.8600  140.0540 O   0  0  0  0  0  1  0  0  0  0  0  0
  190.3610  176.4210  141.3390 C   0  0  0  0  0  3  0  0  0  0  0  0
  188.2930  178.1620  140.5570 C   0  0  0  0  0  0  0  0  0  0  0  0
  189.4310  177.9030  139.7610 C   0  0  0  0  0  0  0  0  0  0  0  0
  190.4340  177.0980  140.1220 C   0  0  0  0  0  3  0  0  0  0  0  0
  185.6530  179.3830  147.1620 O   0  0  0  0  0  1  0  0  0  0  0  0
  189.3070  177.8600  145.8770 C   0  0  0  0  0  2  0  0  0  0  0  0
  187.3890  177.7300  144.1900 C   0  0  0  0  0  0  0  0  0  0  0  0
  188.6860  177.4470  147.2230 C   0  0  0  0  0  2  0  0  0  0  0  0
  187.1690  177.5730  147.4330 C   0  0  0  0  0  2  0  0  0  0  0  0
  184.9180  178.2000  143.0240 N   0  0  0  0  0  0  0  0  0  0  0  0
  184.9860  178.3190  144.4020 C   0  0  0  0  0  0  0  0  0  0  0  0
  188.7130  177.1310  144.6550 C   0  0  0  0  0  2  0  0  0  0  0  0
  185.9950  177.9460  142.1980 C   0  0  0  0  0  3  0  0  0  0  0  0
  187.2140  177.7280  142.8040 C   0  0  0  0  0  0  0  0  0  0  0  0
  186.3100  178.1720  145.0720 C   0  0  0  0  0  0  0  0  0  0  0  0
  186.6810  178.6560  146.4940 C   0  0  1  0  0  3  0  0  0  0  0  0
  183.6950  178.9370  145.0390 C   0  0  0  0  0  2  0  0  0  0  0  0
  182.7230  179.5600  144.1140 C   0  0  0  0  0  2  0  0  0  0  0  0
  181.6320  178.6430  143.9960 N   0  0  0  0  0  2  0  0  0  0  0  0
  180.7950  179.3130  143.0070 C   0  0  0  0  0  1  0  0  0  0  0  0
  189.5660  178.4760  138.5060 O   0  0  0  0  0  0  0  0  0  0  0  0
  188.4210  178.4690  137.6910 C   0  0  0  0  0  2  0  0  0  0  0  0
  188.0160  176.1880  137.0400 N   0  0  0  0  0  0  0  0  0  0  0  0
  186.6490  173.7540  136.4040 C   0  0  2  0  0  3  0  0  0  0  0  0
  186.5740  176.1250  137.1760 C   0  0  0  0  0  2  0  0  0  0  0  0
  188.5990  177.3860  136.7120 C   0  0  0  0  0  0  0  0  0  0  0  0
  188.0890  173.6090  136.9140 C   0  0  0  0  0  2  0  0  0  0  0  0
  189.4940  177.4550  135.8180 O   0  0  0  0  0  0  0  0  0  0  0  0
  186.1660  175.1670  136.1080 C   0  0  0  0  0  2  0  0  0  0  0  0
  188.8110  174.9240  137.1500 C   0  0  0  0  0  2  0  0  0  0  0  0
  185.8120  173.1000  137.3670 O   0  0  0  0  0  0  0  0  0  0  0  0
  184.8310  172.1950  136.4540 P   0  0  0  0  0  0  0  0  0  0  0  0
  183.6140  171.7070  137.1290 O   0  0  0  0  0  0  0  0  0  0  0  0
  185.4500  171.3340  135.2890 O   0  0  0  0  0  0  0  0  0  0  0  0
  1  2  1  0  0  0  0
  1 17  1  0  0  0  0
  3  5  1  0  0  0  0
  4  2  2  0  0  0  0
  5  1  2  0  0  0  0
  6  7  2  0  0  0  0
  6  5  1  0  0  0  0
  7  4  1  0  0  0  0
  9 11  1  0  0  0  0
 10 15  1  0  0  0  0
 10 18  1  0  0  0  0
 11 12  1  0  0  0  0
 13 14  1  0  0  0  0
 14 20  1  0  0  0  0
 14 18  2  0  0  0  0
 15  9  1  0  0  0  0
 16 17  1  0  0  0  0
 16 13  2  0  0  0  0
 17 10  2  0  0  0  0
 18 19  1  0  0  0  0
 19  8  1  1  0  0  0
 19 12  1  0  0  0  0
 21 20  1  0  0  0  0
 22 21  1  0  0  0  0
 23 22  1  0  0  0  0
 24  6  1  0  0  0  0
 25 24  1  0  0  0  0
 26 33  1  0  0  0  0
 26 28  1  0  0  0  0
 27 30  1  0  0  0  0
 27 34  1  1  0  0  0
 29 26  1  0  0  0  0
 29 25  1  0  0  0  0
 30 33  1  0  0  0  0
 31 29  2  0  0  0  0
 32 27  1  0  0  0  0
 32 28  1  0  0  0  0
 35 36  2  0  0  0  0
 35 34  1  0  0  0  0
 37 35  2  0  0  0  0
M  END
>  <MODEL>
7

>  <REMARK>
 VINA RESULT:      -7.8      1.603      2.384
  Name = 
  9 active torsions:
  status: ('A' for Active; 'I' for Inactive)
    1  A    between atoms: C_4  and  C_29
    2  A    between atoms: P_9  and  O_31
    3  A    between atoms: C_12  and  O_31
    4  A    between atoms: C_14  and  C_23
    5  A    between atoms: C_17  and  C_36
    6  A    between atoms: N_21  and  C_27
    7  A    between atoms: C_23  and  C_27
    8  A    between atoms: C_28  and  O_32
    9  A    between atoms: O_32  and  C_36
                            x       y       z     vdW  Elec       q    Type
                         _______ _______ _______ _____ _____    ______ ____

>  <TORSDO>
F 9

$$$$
=
 OpenBabel11062415263D

 37 40  0  0  1  0  0  0  0  0999 V2000
  181.8000  178.5120  141.3620 C   0  0  0  0  0  0  0  0  0  0  0  0
  180.8520  178.6450  142.3310 N   0  0  0  0  0  0  0  0  0  0  0  0
  184.1710  178.1050  140.7830 O   0  0  0  0  0  1  0  0  0  0  0  0
  181.1780  178.9730  143.6050 C   0  0  0  0  0  3  0  0  0  0  0  0
  183.1650  178.5260  141.6620 C   0  0  0  0  0  0  0  0  0  0  0  0
  183.4520  178.9030  142.9930 C   0  0  0  0  0  0  0  0  0  0  0  0
  182.5240  179.1410  143.9250 C   0  0  0  0  0  3  0  0  0  0  0  0
  181.3090  178.9380  135.1480 O   0  0  0  0  0  1  0  0  0  0  0  0
  181.6370  181.4810  138.4260 C   0  0  0  0  0  2  0  0  0  0  0  0
  181.0990  179.0380  138.9590 C   0  0  0  0  0  0  0  0  0  0  0  0
  180.7550  181.8310  137.2150 C   0  0  0  0  0  2  0  0  0  0  0  0
  180.2290  180.7100  136.3060 C   0  0  0  0  0  2  0  0  0  0  0  0
  180.7780  176.3090  138.5930 N   0  0  0  0  0  0  0  0  0  0  0  0
  180.6390  177.1060  137.4690 C   0  0  0  0  0  0  0  0  0  0  0  0
  180.9910  180.4900  139.4150 C   0  0  0  0  0  2  0  0  0  0  0  0
  181.1390  176.7640  139.8460 C   0  0  0  0  0  3  0  0  0  0  0  0
  181.3020  178.1260  139.9960 C   0  0  0  0  0  0  0  0  0  0  0  0
  180.8960  178.5700  137.5890 C   0  0  0  0  0  0  0  0  0  0  0  0
  181.1950  179.5500  136.4300 C   0  0  1  0  0  3  0  0  0  0  0  0
  180.5590  176.2920  136.1330 C   0  0  0  0  0  2  0  0  0  0  0  0
  181.7880  175.5890  135.7020 C   0  0  0  0  0  2  0  0  0  0  0  0
  181.3810  174.2840  135.2800 N   0  0  0  0  0  2  0  0  0  0  0  0
  182.1140  173.4360  136.2120 C   0  0  0  0  0  1  0  0  0  0  0  0
  184.7620  179.0320  143.4280 O   0  0  0  0  0  0  0  0  0  0  0  0
  185.2370  178.0250  144.2860 C   0  0  0  0  0  2  0  0  0  0  0  0
  186.9440  177.8950  145.9760 N   0  0  0  0  0  0  0  0  0  0  0  0
  189.4600  177.4130  147.2550 C   0  0  2  0  0  3  0  0  0  0  0  0
  188.0280  177.3070  145.2150 C   0  0  0  0  0  2  0  0  0  0  0  0
  186.0340  178.6900  145.3270 C   0  0  0  0  0  0  0  0  0  0  0  0
  188.2200  177.3550  148.1560 C   0  0  0  0  0  2  0  0  0  0  0  0
  185.6720  179.8020  145.8150 O   0  0  0  0  0  0  0  0  0  0  0  0
  189.2490  177.9050  145.8300 C   0  0  0  0  0  2  0  0  0  0  0  0
  186.9170  177.7090  147.4620 C   0  0  0  0  0  2  0  0  0  0  0  0
  190.0400  176.1010  147.2810 O   0  0  0  0  0  0  0  0  0  0  0  0
  191.6020  176.3780  146.9690 P   0  0  0  0  0  0  0  0  0  0  0  0
  192.0540  175.9850  145.6210 O   0  0  0  0  0  0  0  0  0  0  0  0
  192.6370  176.3470  148.1560 O   0  0  0  0  0  0  0  0  0  0  0  0
  1  5  2  0  0  0  0
  1  2  1  0  0  0  0
  2  4  2  0  0  0  0
  3  5  1  0  0  0  0
  4  7  1  0  0  0  0
  5  6  1  0  0  0  0
  6 24  1  0  0  0  0
  6  7  2  0  0  0  0
  9 15  1  0  0  0  0
 10 15  1  0  0  0  0
 10 17  1  0  0  0  0
 11  9  1  0  0  0  0
 12 19  1  0  0  0  0
 12 11  1  0  0  0  0
 13 16  1  0  0  0  0
 14 18  1  0  0  0  0
 14 13  2  0  0  0  0
 16 17  2  0  0  0  0
 17  1  1  0  0  0  0
 18 10  2  0  0  0  0
 19  8  1  6  0  0  0
 19 18  1  0  0  0  0
 20 14  1  0  0  0  0
 21 20  1  0  0  0  0
 22 21  1  0  0  0  0
 22 23  1  0  0  0  0
 24 25  1  0  0  0  0
 25 29  1  0  0  0  0
 26 33  1  0  0  0  0
 27 34  1  6  0  0  0
 27 30  1  0  0  0  0
 28 32  1  0  0  0  0
 28 26  1  0  0  0  0
 29 31  2  0  0  0  0
 29 26  1  0  0  0  0
 32 27  1  0  0  0  0
 33 30  1  0  0  0  0
 35 34  1  0  0  0  0
 35 37  2  0  0  0  0
 36 35  2  0  0  0  0
M  END
>  <MODEL>
8

>  <REMARK>
 VINA RESULT:      -7.8      5.013     10.803
  Name = 
  9 active torsions:
  status: ('A' for Active; 'I' for Inactive)
    1  A    between atoms: C_4  and  C_29
    2  A    between atoms: P_9  and  O_31
    3  A    between atoms: C_12  and  O_31
    4  A    between atoms: C_14  and  C_23
    5  A    between atoms: C_17  and  C_36
    6  A    between atoms: N_21  and  C_27
    7  A    between atoms: C_23  and  C_27
    8  A    between atoms: C_28  and  O_32
    9  A    between atoms: O_32  and  C_36
                            x       y       z     vdW  Elec       q    Type
                         _______ _______ _______ _____ _____    ______ ____

>  <TORSDO>
F 9

$$$$
=
 OpenBabel11062415263D

 37 40  0  0  1  0  0  0  0  0999 V2000
  190.6590  177.4240  142.2500 C   0  0  0  0  0  0  0  0  0  0  0  0
  191.3020  178.6110  142.4350 N   0  0  0  0  0  0  0  0  0  0  0  0
  189.3260  175.5810  143.2250 O   0  0  0  0  0  1  0  0  0  0  0  0
  191.7210  179.0090  143.6610 C   0  0  0  0  0  3  0  0  0  0  0  0
  190.2370  176.6410  143.3270 C   0  0  0  0  0  0  0  0  0  0  0  0
  190.7260  177.0810  144.5780 C   0  0  0  0  0  0  0  0  0  0  0  0
  191.4510  178.1890  144.7550 C   0  0  0  0  0  3  0  0  0  0  0  0
  187.6900  178.4400  136.8470 O   0  0  0  0  0  1  0  0  0  0  0  0
  187.0280  179.0070  140.9170 C   0  0  0  0  0  2  0  0  0  0  0  0
  188.9960  177.4910  140.3070 C   0  0  0  0  0  0  0  0  0  0  0  0
  185.8950  178.5950  139.9620 C   0  0  0  0  0  2  0  0  0  0  0  0
  186.2300  177.8890  138.6400 C   0  0  0  0  0  2  0  0  0  0  0  0
  190.9420  176.2520  138.7700 N   0  0  0  0  0  0  0  0  0  0  0  0
  189.7970  176.6600  138.1090 C   0  0  0  0  0  0  0  0  0  0  0  0
  187.9430  177.8440  141.3530 C   0  0  0  0  0  2  0  0  0  0  0  0
  191.2120  176.4870  140.1040 C   0  0  0  0  0  3  0  0  0  0  0  0
  190.2300  177.1150  140.8420 C   0  0  0  0  0  0  0  0  0  0  0  0
  188.7590  177.4180  138.8660 C   0  0  0  0  0  0  0  0  0  0  0  0
  187.6390  178.2990  138.2650 C   0  0  1  0  0  3  0  0  0  0  0  0
  189.9080  176.5620  136.5490 C   0  0  0  0  0  2  0  0  0  0  0  0
  189.0130  175.5970  135.8720 C   0  0  0  0  0  2  0  0  0  0  0  0
  188.8190  174.5150  136.7870 N   0  0  0  0  0  2  0  0  0  0  0  0
  187.3660  174.3910  136.7840 C   0  0  0  0  0  1  0  0  0  0  0  0
  190.4540  176.3700  145.7370 O   0  0  0  0  0  0  0  0  0  0  0  0
  190.1690  177.1320  146.8840 C   0  0  0  0  0  2  0  0  0  0  0  0
  187.8490  177.7530  146.7320 N   0  0  0  0  0  0  0  0  0  0  0  0
  185.2940  178.4380  145.6380 C   0  0  2  0  0  3  0  0  0  0  0  0
  187.6960  177.8600  145.2950 C   0  0  0  0  0  2  0  0  0  0  0  0
  188.7660  176.8660  147.2370 C   0  0  0  0  0  0  0  0  0  0  0  0
  185.6030  178.9910  147.0360 C   0  0  0  0  0  2  0  0  0  0  0  0
  188.4700  176.0940  148.1970 O   0  0  0  0  0  0  0  0  0  0  0  0
  186.2840  177.4350  145.0630 C   0  0  0  0  0  2  0  0  0  0  0  0
  186.9250  178.5280  147.6200 C   0  0  0  0  0  2  0  0  0  0  0  0
  185.1350  179.5760  144.7800 O   0  0  0  0  0  0  0  0  0  0  0  0
  183.7980  179.2270  143.9410 P   0  0  0  0  0  0  0  0  0  0  0  0
  182.5870  179.0000  144.7520 O   0  0  0  0  0  0  0  0  0  0  0  0
  183.9340  178.4870  142.5570 O   0  0  0  0  0  0  0  0  0  0  0  0
  1  2  2  0  0  0  0
  1  5  1  0  0  0  0
  2  4  1  0  0  0  0
  3  5  1  0  0  0  0
  4  7  2  0  0  0  0
  5  6  2  0  0  0  0
  6  7  1  0  0  0  0
  6 24  1  0  0  0  0
  9 15  1  0  0  0  0
 10 17  1  0  0  0  0
 10 15  1  0  0  0  0
 11  9  1  0  0  0  0
 12 11  1  0  0  0  0
 13 16  1  0  0  0  0
 14 13  2  0  0  0  0
 14 18  1  0  0  0  0
 16 17  2  0  0  0  0
 17  1  1  0  0  0  0
 18 10  2  0  0  0  0
 19  8  1  6  0  0  0
 19 12  1  0  0  0  0
 19 18  1  0  0  0  0
 20 14  1  0  0  0  0
 21 20  1  0  0  0  0
 21 22  1  0  0  0  0
 23 22  1  0  0  0  0
 24 25  1  0  0  0  0
 25 29  1  0  0  0  0
 26 29  1  0  0  0  0
 26 33  1  0  0  0  0
 27 34  1  6  0  0  0
 27 30  1  0  0  0  0
 28 26  1  0  0  0  0
 29 31  2  0  0  0  0
 30 33  1  0  0  0  0
 32 28  1  0  0  0  0
 32 27  1  0  0  0  0
 35 36  2  0  0  0  0
 35 34  1  0  0  0  0
 37 35  2  0  0  0  0
M  END
>  <MODEL>
9

>  <REMARK>
 VINA RESULT:      -7.7      3.228      8.711
  Name = 
  9 active torsions:
  status: ('A' for Active; 'I' for Inactive)
    1  A    between atoms: C_4  and  C_29
    2  A    between atoms: P_9  and  O_31
    3  A    between atoms: C_12  and  O_31
    4  A    between atoms: C_14  and  C_23
    5  A    between atoms: C_17  and  C_36
    6  A    between atoms: N_21  and  C_27
    7  A    between atoms: C_23  and  C_27
    8  A    between atoms: C_28  and  O_32
    9  A    between atoms: O_32  and  C_36
                            x       y       z     vdW  Elec       q    Type
                         _______ _______ _______ _____ _____    ______ ____

>  <TORSDO>
F 9

$$$$
