=
 OpenBabel11062412313D

 33 36  0  0  1  0  0  0  0  0999 V2000
  190.4070  176.8110  141.9270 C   0  0  0  0  0  0  0  0  0  0  0  0
  190.3450  177.2920  140.5810 N   0  0  0  0  0  2  0  0  0  0  0  0
  190.2330  175.5860  142.1670 O   0  0  0  0  0  0  0  0  0  0  0  0
  191.5060  179.4910  144.2750 N   0  0  0  0  0  0  0  0  0  0  0  0
  190.6760  177.7590  143.0220 C   0  0  0  0  0  0  0  0  0  0  0  0
  190.6300  178.8870  144.9660 N   0  0  0  0  0  2  0  0  0  0  0  0
  190.1040  177.8040  144.2160 C   0  0  0  0  0  0  0  0  0  0  0  0
  191.6680  178.8740  142.9640 C   0  0  0  0  0  3  0  0  0  0  0  0
  187.6710  177.4930  144.4440 C   0  0  0  0  0  0  0  0  0  0  0  0
  187.0430  177.7300  145.6380 C   0  0  0  0  0  0  0  0  0  0  0  0
  185.7620  178.2760  145.7050 C   0  0  0  0  0  3  0  0  0  0  0  0
  185.7590  178.3340  143.2630 C   0  0  0  0  0  3  0  0  0  0  0  0
  187.9500  177.3060  146.6800 C   0  0  0  0  0  0  0  0  0  0  0  0
  187.0500  177.7810  143.2280 C   0  0  0  0  0  3  0  0  0  0  0  0
  189.0470  176.8280  146.1800 N   0  0  0  0  0  0  0  0  0  0  0  0
  189.0150  176.9000  144.7140 C   0  0  2  0  0  3  0  0  0  0  0  0
  185.1190  178.5810  144.4950 C   0  0  0  0  0  3  0  0  0  0  0  0
  188.5250  178.3780  148.8190 C   0  0  0  0  0  1  0  0  0  0  0  0
  187.6660  177.3280  148.1420 C   0  0  0  0  0  2  0  0  0  0  0  0
  190.1150  176.4130  139.4460 C   0  0  0  0  0  2  0  0  0  0  0  0
  189.5390  177.1690  138.3490 N   0  0  0  0  0  2  0  0  0  0  0  0
  188.2220  177.6050  138.7820 C   0  0  0  0  0  2  0  0  0  0  0  0
  187.2210  177.5760  137.6260 C   0  0  2  0  0  3  0  0  0  0  0  0
  184.6430  178.7980  139.7130 C   0  0  0  0  0  2  0  0  0  0  0  0
  185.9690  178.8200  139.2880 O   0  0  0  0  0  0  0  0  0  0  0  0
  184.8320  177.4250  137.8490 O   0  0  0  0  0  0  0  0  0  0  0  0
  185.9210  178.2980  137.9860 C   0  0  0  0  0  3  0  0  0  0  0  0
  183.9010  177.8940  138.7730 C   0  0  0  0  0  2  0  0  0  0  0  0
  186.9700  176.1620  137.1050 C   0  0  0  0  0  2  0  0  0  0  0  0
  187.4480  176.0090  135.6680 C   0  0  1  0  0  3  0  0  0  0  0  0
  186.2840  175.5630  134.8060 C   0  0  0  0  0  1  0  0  0  0  0  0
  187.9350  177.2290  135.1960 O   0  0  0  0  0  0  0  0  0  0  0  0
  189.1550  176.9210  134.5940 C   0  0  0  0  0  1  0  0  0  0  0  0
  1  3  2  0  0  0  0
  1  5  1  0  0  0  0
  2  1  1  0  0  0  0
  4  6  1  0  0  0  0
  5  7  2  0  0  0  0
  7  6  1  0  0  0  0
  8  5  1  0  0  0  0
  8  4  2  0  0  0  0
  9 16  1  0  0  0  0
  9 10  1  0  0  0  0
 10 11  2  0  0  0  0
 10 13  1  0  0  0  0
 12 17  2  0  0  0  0
 13 19  1  0  0  0  0
 14 12  1  0  0  0  0
 14  9  2  0  0  0  0
 15 13  2  0  0  0  0
 16  7  1  1  0  0  0
 16 15  1  0  0  0  0
 17 11  1  0  0  0  0
 19 18  1  0  0  0  0
 20  2  1  0  0  0  0
 21 22  1  0  0  0  0
 21 20  1  0  0  0  0
 23 29  1  1  0  0  0
 23 27  1  0  0  0  0
 23 22  1  0  0  0  0
 25 24  1  0  0  0  0
 26 27  1  0  0  0  0
 26 28  1  0  0  0  0
 27 25  1  0  0  0  0
 28 24  1  0  0  0  0
 30 31  1  6  0  0  0
 30 29  1  0  0  0  0
 32 30  1  0  0  0  0
 33 32  1  0  0  0  0
M  END
>  <MODEL>
1

>  <REMARK>
 VINA RESULT:      -7.1      0.000      0.000
  Name = 
  11 active torsions:
  status: ('A' for Active; 'I' for Inactive)
    1  A    between atoms: C_1  and  C_6
    2  A    between atoms: C_1  and  C_28
    3  A    between atoms: C_1  and  C_32
    4  A    between atoms: C_4  and  C_6
    5  A    between atoms: C_4  and  O_20
    6  A    between atoms: N_5  and  C_21
    7  A    between atoms: N_5  and  C_32
    8  A    between atoms: C_11  and  C_16
    9  A    between atoms: C_14  and  C_19
   10  A    between atoms: N_17  and  C_21
   11  A    between atoms: C_26  and  C_29
                            x       y       z     vdW  Elec       q    Type
                         _______ _______ _______ _____ _____    ______ ____

>  <TORSDO>
F 11

$$$$
=
 OpenBabel11062412313D

 33 36  0  0  1  0  0  0  0  0999 V2000
  184.8930  178.1940  138.4900 C   0  0  0  0  0  0  0  0  0  0  0  0
  186.0530  177.5600  137.9430 N   0  0  0  0  0  2  0  0  0  0  0  0
  184.8310  179.4520  138.5500 O   0  0  0  0  0  0  0  0  0  0  0  0
  182.2930  175.6470  139.3000 N   0  0  0  0  0  0  0  0  0  0  0  0
  183.7790  177.3640  138.9790 C   0  0  0  0  0  0  0  0  0  0  0  0
  182.0100  176.5740  140.1200 N   0  0  0  0  0  2  0  0  0  0  0  0
  182.9100  177.6540  139.9380 C   0  0  0  0  0  0  0  0  0  0  0  0
  183.4340  176.0060  138.4650 C   0  0  0  0  0  3  0  0  0  0  0  0
  183.7120  178.7280  142.0050 C   0  0  0  0  0  0  0  0  0  0  0  0
  182.8960  178.8360  143.0990 C   0  0  0  0  0  0  0  0  0  0  0  0
  183.3850  178.7260  144.4000 C   0  0  0  0  0  3  0  0  0  0  0  0
  185.6060  178.3910  143.4400 C   0  0  0  0  0  3  0  0  0  0  0  0
  181.5600  179.0760  142.6040 C   0  0  0  0  0  0  0  0  0  0  0  0
  185.0830  178.5090  142.1400 C   0  0  0  0  0  3  0  0  0  0  0  0
  181.5420  179.1290  141.3090 N   0  0  0  0  0  0  0  0  0  0  0  0
  182.8900  178.9020  140.7700 C   0  0  2  0  0  3  0  0  0  0  0  0
  184.7610  178.4980  144.5630 C   0  0  0  0  0  3  0  0  0  0  0  0
  179.8620  178.0000  144.0230 C   0  0  0  0  0  1  0  0  0  0  0  0
  180.3520  179.3120  143.4430 C   0  0  0  0  0  2  0  0  0  0  0  0
  187.1790  178.3120  137.4120 C   0  0  0  0  0  2  0  0  0  0  0  0
  188.1120  178.6180  138.4810 N   0  0  0  0  0  2  0  0  0  0  0  0
  188.5080  177.3500  139.0710 C   0  0  0  0  0  2  0  0  0  0  0  0
  189.9530  177.4010  139.5710 C   0  0  2  0  0  3  0  0  0  0  0  0
  191.0490  176.0130  136.5110 C   0  0  0  0  0  2  0  0  0  0  0  0
  190.6750  177.1150  137.2750 O   0  0  0  0  0  0  0  0  0  0  0  0
  190.7980  175.3190  138.7130 O   0  0  0  0  0  0  0  0  0  0  0  0
  190.9120  176.7120  138.5980 C   0  0  0  0  0  3  0  0  0  0  0  0
  191.1350  174.8450  137.4490 C   0  0  0  0  0  2  0  0  0  0  0  0
  190.0970  176.8680  140.9970 C   0  0  0  0  0  2  0  0  0  0  0  0
  188.9690  177.3630  141.8890 C   0  0  1  0  0  3  0  0  0  0  0  0
  188.6130  176.2760  142.8840 C   0  0  0  0  0  1  0  0  0  0  0  0
  189.3740  178.5090  142.5770 O   0  0  0  0  0  0  0  0  0  0  0  0
  190.5310  178.1300  143.2580 C   0  0  0  0  0  1  0  0  0  0  0  0
  1  3  2  0  0  0  0
  1  5  1  0  0  0  0
  2  1  1  0  0  0  0
  4  6  1  0  0  0  0
  5  7  2  0  0  0  0
  7  6  1  0  0  0  0
  8  5  1  0  0  0  0
  8  4  2  0  0  0  0
  9 14  2  0  0  0  0
  9 10  1  0  0  0  0
 10 11  2  0  0  0  0
 11 17  1  0  0  0  0
 12 17  2  0  0  0  0
 13 10  1  0  0  0  0
 13 19  1  0  0  0  0
 14 12  1  0  0  0  0
 15 13  2  0  0  0  0
 16  7  1  6  0  0  0
 16 15  1  0  0  0  0
 16  9  1  0  0  0  0
 19 18  1  0  0  0  0
 20  2  1  0  0  0  0
 20 21  1  0  0  0  0
 21 22  1  0  0  0  0
 23 22  1  6  0  0  0
 23 29  1  0  0  0  0
 24 25  1  0  0  0  0
 24 28  1  0  0  0  0
 25 27  1  0  0  0  0
 27 26  1  0  0  0  0
 27 23  1  0  0  0  0
 28 26  1  0  0  0  0
 29 30  1  0  0  0  0
 30 32  1  0  0  0  0
 30 31  1  1  0  0  0
 32 33  1  0  0  0  0
M  END
>  <MODEL>
2

>  <REMARK>
 VINA RESULT:      -7.0      3.349      6.864
  Name = 
  11 active torsions:
  status: ('A' for Active; 'I' for Inactive)
    1  A    between atoms: C_1  and  C_6
    2  A    between atoms: C_1  and  C_28
    3  A    between atoms: C_1  and  C_32
    4  A    between atoms: C_4  and  C_6
    5  A    between atoms: C_4  and  O_20
    6  A    between atoms: N_5  and  C_21
    7  A    between atoms: N_5  and  C_32
    8  A    between atoms: C_11  and  C_16
    9  A    between atoms: C_14  and  C_19
   10  A    between atoms: N_17  and  C_21
   11  A    between atoms: C_26  and  C_29
                            x       y       z     vdW  Elec       q    Type
                         _______ _______ _______ _____ _____    ______ ____

>  <TORSDO>
F 11

$$$$
=
 OpenBabel11062412313D

 33 36  0  0  1  0  0  0  0  0999 V2000
  184.3940  178.5040  141.8400 C   0  0  0  0  0  0  0  0  0  0  0  0
  184.9120  179.4350  140.8850 N   0  0  0  0  0  2  0  0  0  0  0  0
  183.7410  177.4980  141.4500 O   0  0  0  0  0  0  0  0  0  0  0  0
  184.4580  179.4520  145.4450 N   0  0  0  0  0  0  0  0  0  0  0  0
  184.6340  178.7320  143.2750 C   0  0  0  0  0  0  0  0  0  0  0  0
  185.4520  178.6660  145.3680 N   0  0  0  0  0  2  0  0  0  0  0  0
  185.5890  178.2110  144.0320 C   0  0  0  0  0  0  0  0  0  0  0  0
  183.8050  179.6120  144.1510 C   0  0  0  0  0  3  0  0  0  0  0  0
  187.8650  177.3590  144.4340 C   0  0  0  0  0  0  0  0  0  0  0  0
  188.9100  177.7520  143.6420 C   0  0  0  0  0  0  0  0  0  0  0  0
  190.1930  177.9440  144.1500 C   0  0  0  0  0  3  0  0  0  0  0  0
  189.3200  177.3080  146.3420 C   0  0  0  0  0  3  0  0  0  0  0  0
  188.3910  177.8870  142.3000 C   0  0  0  0  0  0  0  0  0  0  0  0
  188.0370  177.1210  145.7980 C   0  0  0  0  0  3  0  0  0  0  0  0
  187.1300  177.5890  142.2530 N   0  0  0  0  0  0  0  0  0  0  0  0
  186.6380  177.2340  143.5910 C   0  0  2  0  0  3  0  0  0  0  0  0
  190.3910  177.7180  145.5220 C   0  0  0  0  0  3  0  0  0  0  0  0
  190.0530  177.0740  140.6770 C   0  0  0  0  0  1  0  0  0  0  0  0
  189.1850  178.2460  141.0920 C   0  0  0  0  0  2  0  0  0  0  0  0
  184.7430  179.2600  139.4510 C   0  0  0  0  0  2  0  0  0  0  0  0
  185.8650  178.5110  138.9130 N   0  0  0  0  0  2  0  0  0  0  0  0
  185.3400  177.6670  137.8530 C   0  0  0  0  0  2  0  0  0  0  0  0
  186.4690  177.0100  137.0580 C   0  0  2  0  0  3  0  0  0  0  0  0
  184.6650  173.9710  137.0420 C   0  0  0  0  0  2  0  0  0  0  0  0
  184.7320  175.3400  136.7970 O   0  0  0  0  0  0  0  0  0  0  0  0
  186.8660  174.6550  137.3330 O   0  0  0  0  0  0  0  0  0  0  0  0
  186.1020  175.5910  136.6210 C   0  0  0  0  0  3  0  0  0  0  0  0
  186.0560  173.5230  137.3850 C   0  0  0  0  0  2  0  0  0  0  0  0
  187.8080  177.0580  137.7950 C   0  0  0  0  0  2  0  0  0  0  0  0
  188.8870  177.7060  136.9410 C   0  0  1  0  0  3  0  0  0  0  0  0
  188.9830  179.1760  137.2970 C   0  0  0  0  0  1  0  0  0  0  0  0
  190.1170  177.0890  137.1800 O   0  0  0  0  0  0  0  0  0  0  0  0
  190.0540  175.8800  136.4850 C   0  0  0  0  0  1  0  0  0  0  0  0
  1  5  1  0  0  0  0
  2  1  1  0  0  0  0
  3  1  2  0  0  0  0
  5  7  2  0  0  0  0
  5  8  1  0  0  0  0
  6  4  1  0  0  0  0
  7  6  1  0  0  0  0
  8  4  2  0  0  0  0
  9 14  1  0  0  0  0
 10 11  1  0  0  0  0
 10  9  2  0  0  0  0
 11 17  2  0  0  0  0
 13 10  1  0  0  0  0
 14 12  2  0  0  0  0
 15 13  2  0  0  0  0
 15 16  1  0  0  0  0
 16  7  1  1  0  0  0
 16  9  1  0  0  0  0
 17 12  1  0  0  0  0
 18 19  1  0  0  0  0
 19 13  1  0  0  0  0
 20  2  1  0  0  0  0
 21 20  1  0  0  0  0
 22 21  1  0  0  0  0
 23 29  1  1  0  0  0
 23 22  1  0  0  0  0
 24 28  1  0  0  0  0
 25 24  1  0  0  0  0
 26 28  1  0  0  0  0
 27 25  1  0  0  0  0
 27 23  1  0  0  0  0
 27 26  1  0  0  0  0
 30 32  1  0  0  0  0
 30 31  1  1  0  0  0
 30 29  1  0  0  0  0
 33 32  1  0  0  0  0
M  END
>  <MODEL>
3

>  <REMARK>
 VINA RESULT:      -7.0      2.495      4.890
  Name = 
  11 active torsions:
  status: ('A' for Active; 'I' for Inactive)
    1  A    between atoms: C_1  and  C_6
    2  A    between atoms: C_1  and  C_28
    3  A    between atoms: C_1  and  C_32
    4  A    between atoms: C_4  and  C_6
    5  A    between atoms: C_4  and  O_20
    6  A    between atoms: N_5  and  C_21
    7  A    between atoms: N_5  and  C_32
    8  A    between atoms: C_11  and  C_16
    9  A    between atoms: C_14  and  C_19
   10  A    between atoms: N_17  and  C_21
   11  A    between atoms: C_26  and  C_29
                            x       y       z     vdW  Elec       q    Type
                         _______ _______ _______ _____ _____    ______ ____

>  <TORSDO>
F 11

$$$$
=
 OpenBabel11062412313D

 33 36  0  0  1  0  0  0  0  0999 V2000
  184.2740  178.4960  142.0110 C   0  0  0  0  0  0  0  0  0  0  0  0
  184.8960  179.4210  141.1150 N   0  0  0  0  0  2  0  0  0  0  0  0
  183.5960  177.5350  141.5560 O   0  0  0  0  0  0  0  0  0  0  0  0
  184.1310  179.3090  145.6470 N   0  0  0  0  0  0  0  0  0  0  0  0
  184.4350  178.6760  143.4640 C   0  0  0  0  0  0  0  0  0  0  0  0
  185.1500  178.5550  145.5920 N   0  0  0  0  0  2  0  0  0  0  0  0
  185.3660  178.1540  144.2500 C   0  0  0  0  0  0  0  0  0  0  0  0
  183.5380  179.5000  144.3280 C   0  0  0  0  0  3  0  0  0  0  0  0
  187.6590  177.3800  144.7110 C   0  0  0  0  0  0  0  0  0  0  0  0
  188.7120  177.8230  143.9580 C   0  0  0  0  0  0  0  0  0  0  0  0
  189.9720  178.0540  144.5090 C   0  0  0  0  0  3  0  0  0  0  0  0
  189.0550  177.3520  146.6620 C   0  0  0  0  0  3  0  0  0  0  0  0
  188.2310  177.9610  142.6020 C   0  0  0  0  0  0  0  0  0  0  0  0
  187.7980  177.1270  146.0760 C   0  0  0  0  0  3  0  0  0  0  0  0
  186.9840  177.6180  142.5110 N   0  0  0  0  0  0  0  0  0  0  0  0
  186.4650  177.2240  143.8270 C   0  0  2  0  0  3  0  0  0  0  0  0
  190.1350  177.8140  145.8830 C   0  0  0  0  0  3  0  0  0  0  0  0
  188.2350  178.2210  140.1550 C   0  0  0  0  0  1  0  0  0  0  0  0
  189.0490  178.3690  141.4260 C   0  0  0  0  0  2  0  0  0  0  0  0
  184.8070  179.2900  139.6690 C   0  0  0  0  0  2  0  0  0  0  0  0
  183.9200  180.3080  139.1380 N   0  0  0  0  0  2  0  0  0  0  0  0
  182.6910  179.6370  138.7490 C   0  0  0  0  0  2  0  0  0  0  0  0
  181.5080  180.6060  138.7490 C   0  0  2  0  0  3  0  0  0  0  0  0
  179.5760  180.8630  141.6970 C   0  0  0  0  0  2  0  0  0  0  0  0
  179.9250  181.3330  140.4350 O   0  0  0  0  0  0  0  0  0  0  0  0
  181.0010  179.3150  140.7130 O   0  0  0  0  0  0  0  0  0  0  0  0
  180.4520  180.2080  139.7820 C   0  0  0  0  0  3  0  0  0  0  0  0
  180.2710  179.5450  141.8770 C   0  0  0  0  0  2  0  0  0  0  0  0
  180.9080  180.7970  137.3560 C   0  0  0  0  0  2  0  0  0  0  0  0
  180.7700  182.2720  137.0110 C   0  0  1  0  0  3  0  0  0  0  0  0
  179.3090  182.6660  137.0990 C   0  0  0  0  0  1  0  0  0  0  0  0
  181.5130  183.0430  137.9080 O   0  0  0  0  0  0  0  0  0  0  0  0
  181.6590  184.2820  137.2840 C   0  0  0  0  0  1  0  0  0  0  0  0
  1  5  1  0  0  0  0
  2  1  1  0  0  0  0
  3  1  2  0  0  0  0
  5  7  2  0  0  0  0
  5  8  1  0  0  0  0
  6  4  1  0  0  0  0
  7  6  1  0  0  0  0
  8  4  2  0  0  0  0
  9 14  1  0  0  0  0
 10 11  1  0  0  0  0
 10  9  2  0  0  0  0
 11 17  2  0  0  0  0
 13 10  1  0  0  0  0
 14 12  2  0  0  0  0
 15 13  2  0  0  0  0
 15 16  1  0  0  0  0
 16  7  1  1  0  0  0
 16  9  1  0  0  0  0
 17 12  1  0  0  0  0
 18 19  1  0  0  0  0
 19 13  1  0  0  0  0
 20  2  1  0  0  0  0
 21 20  1  0  0  0  0
 22 21  1  0  0  0  0
 23 29  1  6  0  0  0
 23 22  1  0  0  0  0
 23 27  1  0  0  0  0
 24 28  1  0  0  0  0
 25 24  1  0  0  0  0
 26 28  1  0  0  0  0
 27 25  1  0  0  0  0
 27 26  1  0  0  0  0
 30 31  1  1  0  0  0
 30 29  1  0  0  0  0
 30 32  1  0  0  0  0
 33 32  1  0  0  0  0
M  END
>  <MODEL>
4

>  <REMARK>
 VINA RESULT:      -7.0      3.990      6.428
  Name = 
  11 active torsions:
  status: ('A' for Active; 'I' for Inactive)
    1  A    between atoms: C_1  and  C_6
    2  A    between atoms: C_1  and  C_28
    3  A    between atoms: C_1  and  C_32
    4  A    between atoms: C_4  and  C_6
    5  A    between atoms: C_4  and  O_20
    6  A    between atoms: N_5  and  C_21
    7  A    between atoms: N_5  and  C_32
    8  A    between atoms: C_11  and  C_16
    9  A    between atoms: C_14  and  C_19
   10  A    between atoms: N_17  and  C_21
   11  A    between atoms: C_26  and  C_29
                            x       y       z     vdW  Elec       q    Type
                         _______ _______ _______ _____ _____    ______ ____

>  <TORSDO>
F 11

$$$$
=
 OpenBabel11062412313D

 33 36  0  0  1  0  0  0  0  0999 V2000
  186.6690  178.1170  137.8650 C   0  0  0  0  0  0  0  0  0  0  0  0
  187.5150  177.7770  138.9670 N   0  0  0  0  0  2  0  0  0  0  0  0
  187.0030  179.0420  137.0750 O   0  0  0  0  0  0  0  0  0  0  0  0
  183.8710  175.7720  137.1120 N   0  0  0  0  0  0  0  0  0  0  0  0
  185.4110  177.3770  137.6640 C   0  0  0  0  0  0  0  0  0  0  0  0
  183.2560  176.7390  137.6570 N   0  0  0  0  0  2  0  0  0  0  0  0
  184.1860  177.7520  138.0030 C   0  0  0  0  0  0  0  0  0  0  0  0
  185.3030  176.0300  137.0320 C   0  0  0  0  0  3  0  0  0  0  0  0
  183.7220  178.8080  140.1790 C   0  0  0  0  0  0  0  0  0  0  0  0
  182.4360  179.0360  140.5870 C   0  0  0  0  0  0  0  0  0  0  0  0
  182.0510  178.9210  141.9220 C   0  0  0  0  0  3  0  0  0  0  0  0
  184.3630  178.3280  142.4420 C   0  0  0  0  0  3  0  0  0  0  0  0
  181.6800  179.3940  139.4090 C   0  0  0  0  0  0  0  0  0  0  0  0
  184.7210  178.4550  141.0890 C   0  0  0  0  0  3  0  0  0  0  0  0
  182.4330  179.4050  138.3540 N   0  0  0  0  0  0  0  0  0  0  0  0
  183.8080  179.0230  138.7040 C   0  0  2  0  0  3  0  0  0  0  0  0
  183.0350  178.5590  142.8560 C   0  0  0  0  0  3  0  0  0  0  0  0
  180.0940  181.2470  139.7340 C   0  0  0  0  0  1  0  0  0  0  0  0
  180.2410  179.7800  139.3830 C   0  0  0  0  0  2  0  0  0  0  0  0
  188.7860  178.4410  139.2120 C   0  0  0  0  0  2  0  0  0  0  0  0
  189.3330  178.0000  140.4820 N   0  0  0  0  0  2  0  0  0  0  0  0
  188.2060  177.7700  141.3700 C   0  0  0  0  0  2  0  0  0  0  0  0
  188.6140  177.9280  142.8350 C   0  0  2  0  0  3  0  0  0  0  0  0
  191.4560  176.3860  144.2640 C   0  0  0  0  0  2  0  0  0  0  0  0
  190.2960  176.3120  143.4980 O   0  0  0  0  0  0  0  0  0  0  0  0
  190.6560  178.5430  143.9470 O   0  0  0  0  0  0  0  0  0  0  0  0
  190.1000  177.6260  143.0440 C   0  0  0  0  0  3  0  0  0  0  0  0
  191.6940  177.8390  144.5510 C   0  0  0  0  0  2  0  0  0  0  0  0
  187.7240  177.1230  143.7820 C   0  0  0  0  0  2  0  0  0  0  0  0
  187.5580  177.8280  145.1190 C   0  0  1  0  0  3  0  0  0  0  0  0
  186.1080  177.7340  145.5510 C   0  0  0  0  0  1  0  0  0  0  0  0
  188.3700  177.2210  146.0810 O   0  0  0  0  0  0  0  0  0  0  0  0
  187.8110  177.5850  147.3060 C   0  0  0  0  0  1  0  0  0  0  0  0
  1  2  1  0  0  0  0
  2 20  1  0  0  0  0
  3  1  2  0  0  0  0
  4  6  1  0  0  0  0
  5  1  1  0  0  0  0
  5  7  2  0  0  0  0
  6  7  1  0  0  0  0
  8  4  2  0  0  0  0
  8  5  1  0  0  0  0
  9 10  2  0  0  0  0
  9 14  1  0  0  0  0
 10 11  1  0  0  0  0
 11 17  2  0  0  0  0
 12 17  1  0  0  0  0
 13 10  1  0  0  0  0
 14 12  2  0  0  0  0
 15 16  1  0  0  0  0
 15 13  2  0  0  0  0
 16  7  1  6  0  0  0
 16  9  1  0  0  0  0
 19 13  1  0  0  0  0
 19 18  1  0  0  0  0
 20 21  1  0  0  0  0
 21 22  1  0  0  0  0
 23 22  1  6  0  0  0
 23 27  1  0  0  0  0
 23 29  1  0  0  0  0
 24 28  1  0  0  0  0
 25 24  1  0  0  0  0
 26 28  1  0  0  0  0
 27 25  1  0  0  0  0
 27 26  1  0  0  0  0
 29 30  1  0  0  0  0
 30 31  1  1  0  0  0
 30 32  1  0  0  0  0
 32 33  1  0  0  0  0
M  END
>  <MODEL>
5

>  <REMARK>
 VINA RESULT:      -6.9      2.940      8.097
  Name = 
  11 active torsions:
  status: ('A' for Active; 'I' for Inactive)
    1  A    between atoms: C_1  and  C_6
    2  A    between atoms: C_1  and  C_28
    3  A    between atoms: C_1  and  C_32
    4  A    between atoms: C_4  and  C_6
    5  A    between atoms: C_4  and  O_20
    6  A    between atoms: N_5  and  C_21
    7  A    between atoms: N_5  and  C_32
    8  A    between atoms: C_11  and  C_16
    9  A    between atoms: C_14  and  C_19
   10  A    between atoms: N_17  and  C_21
   11  A    between atoms: C_26  and  C_29
                            x       y       z     vdW  Elec       q    Type
                         _______ _______ _______ _____ _____    ______ ____

>  <TORSDO>
F 11

$$$$
=
 OpenBabel11062412313D

 33 36  0  0  1  0  0  0  0  0999 V2000
  185.6890  178.8130  142.0470 C   0  0  0  0  0  0  0  0  0  0  0  0
  186.5840  177.9000  142.6880 N   0  0  0  0  0  2  0  0  0  0  0  0
  186.1220  179.6110  141.1720 O   0  0  0  0  0  0  0  0  0  0  0  0
  182.2890  179.0680  143.5540 N   0  0  0  0  0  0  0  0  0  0  0  0
  184.2640  178.8100  142.4190 C   0  0  0  0  0  0  0  0  0  0  0  0
  182.0250  178.6130  142.3990 N   0  0  0  0  0  0  0  0  0  0  0  0
  183.2310  178.4370  141.6760 C   0  0  0  0  0  0  0  0  0  0  0  0
  183.7230  179.2530  143.7380 C   0  0  0  0  0  2  0  0  0  0  0  0
  182.4260  178.7980  139.3760 C   0  0  0  0  0  0  0  0  0  0  0  0
  181.4280  178.0190  138.8540 C   0  0  0  0  0  0  0  0  0  0  0  0
  180.4690  178.5320  137.9820 C   0  0  0  0  0  3  0  0  0  0  0  0
  181.5830  180.6980  138.1780 C   0  0  0  0  0  3  0  0  0  0  0  0
  181.6200  176.6860  139.3760 C   0  0  0  0  0  0  0  0  0  0  0  0
  182.5360  180.1510  139.0530 C   0  0  0  0  0  3  0  0  0  0  0  0
  182.6590  176.6300  140.1490 N   0  0  0  0  0  0  0  0  0  0  0  0
  183.2870  177.9530  140.2570 C   0  0  2  0  0  3  0  0  0  0  0  0
  180.5540  179.8930  137.6470 C   0  0  0  0  0  3  0  0  0  0  0  0
  181.1830  174.9740  137.6630 C   0  0  0  0  0  1  0  0  0  0  0  0
  180.7970  175.4920  139.0340 C   0  0  0  0  0  2  0  0  0  0  0  0
  187.9970  177.8230  142.3510 C   0  0  0  0  0  2  0  0  0  0  0  0
  188.7050  177.0780  143.3770 N   0  0  0  0  0  2  0  0  0  0  0  0
  189.7400  177.9550  143.8980 C   0  0  0  0  0  2  0  0  0  0  0  0
  189.8640  177.8230  145.4170 C   0  0  2  0  0  3  0  0  0  0  0  0
  192.2900  175.2800  145.7980 C   0  0  0  0  0  2  0  0  0  0  0  0
  191.5390  176.1240  144.9850 O   0  0  0  0  0  0  0  0  0  0  0  0
  191.1500  176.7790  147.1590 O   0  0  0  0  0  0  0  0  0  0  0  0
  191.2000  177.1990  145.8220 C   0  0  0  0  0  3  0  0  0  0  0  0
  192.0420  175.7110  147.2140 C   0  0  0  0  0  2  0  0  0  0  0  0
  188.6740  177.0930  146.0400 C   0  0  0  0  0  2  0  0  0  0  0  0
  187.7630  178.0570  146.7860 C   0  0  1  0  0  3  0  0  0  0  0  0
  186.4230  178.1170  146.0800 C   0  0  0  0  0  1  0  0  0  0  0  0
  187.5780  177.6160  148.0990 O   0  0  0  0  0  0  0  0  0  0  0  0
  188.5730  178.2570  148.8370 C   0  0  0  0  0  1  0  0  0  0  0  0
  1  5  1  0  0  0  0
  1  2  1  0  0  0  0
  3  1  2  0  0  0  0
  4  8  1  0  0  0  0
  5  8  1  0  0  0  0
  6  4  2  0  0  0  0
  7  6  1  0  0  0  0
  7  5  2  0  0  0  0
  9 16  1  0  0  0  0
 10  9  2  0  0  0  0
 10 13  1  0  0  0  0
 11 10  1  0  0  0  0
 12 14  2  0  0  0  0
 13 15  2  0  0  0  0
 14  9  1  0  0  0  0
 15 16  1  0  0  0  0
 16  7  1  1  0  0  0
 17 11  2  0  0  0  0
 17 12  1  0  0  0  0
 18 19  1  0  0  0  0
 19 13  1  0  0  0  0
 20  2  1  0  0  0  0
 20 21  1  0  0  0  0
 21 22  1  0  0  0  0
 23 22  1  6  0  0  0
 23 27  1  0  0  0  0
 23 29  1  0  0  0  0
 24 28  1  0  0  0  0
 25 24  1  0  0  0  0
 25 27  1  0  0  0  0
 26 28  1  0  0  0  0
 27 26  1  0  0  0  0
 29 30  1  0  0  0  0
 30 31  1  6  0  0  0
 30 32  1  0  0  0  0
 32 33  1  0  0  0  0
M  END
>  <MODEL>
6

>  <REMARK>
 VINA RESULT:      -6.7      3.674      9.094
  Name = 
  11 active torsions:
  status: ('A' for Active; 'I' for Inactive)
    1  A    between atoms: C_1  and  C_6
    2  A    between atoms: C_1  and  C_28
    3  A    between atoms: C_1  and  C_32
    4  A    between atoms: C_4  and  C_6
    5  A    between atoms: C_4  and  O_20
    6  A    between atoms: N_5  and  C_21
    7  A    between atoms: N_5  and  C_32
    8  A    between atoms: C_11  and  C_16
    9  A    between atoms: C_14  and  C_19
   10  A    between atoms: N_17  and  C_21
   11  A    between atoms: C_26  and  C_29
                            x       y       z     vdW  Elec       q    Type
                         _______ _______ _______ _____ _____    ______ ____

>  <TORSDO>
F 11

$$$$
=
 OpenBabel11062412313D

 33 36  0  0  1  0  0  0  0  0999 V2000
  187.9210  178.2540  138.6680 C   0  0  0  0  0  0  0  0  0  0  0  0
  186.5650  177.8870  138.9370 N   0  0  0  0  0  2  0  0  0  0  0  0
  188.1720  179.2610  137.9510 O   0  0  0  0  0  0  0  0  0  0  0  0
  190.7550  175.9780  139.4970 N   0  0  0  0  0  0  0  0  0  0  0  0
  189.0150  177.4480  139.2370 C   0  0  0  0  0  0  0  0  0  0  0  0
  190.5550  176.5550  140.6090 N   0  0  0  0  0  2  0  0  0  0  0  0
  189.4770  177.4670  140.4790 C   0  0  0  0  0  0  0  0  0  0  0  0
  189.8210  176.4450  138.4790 C   0  0  0  0  0  3  0  0  0  0  0  0
  189.8070  178.1320  142.8270 C   0  0  0  0  0  0  0  0  0  0  0  0
  188.9890  177.6490  143.8130 C   0  0  0  0  0  0  0  0  0  0  0  0
  189.4630  177.3570  145.0910 C   0  0  0  0  0  3  0  0  0  0  0  0
  191.6720  178.0780  144.3360 C   0  0  0  0  0  3  0  0  0  0  0  0
  187.6640  177.5470  143.2470 C   0  0  0  0  0  0  0  0  0  0  0  0
  191.1630  178.3650  143.0580 C   0  0  0  0  0  3  0  0  0  0  0  0
  187.6490  177.9470  142.0130 N   0  0  0  0  0  0  0  0  0  0  0  0
  188.9970  178.3510  141.5910 C   0  0  2  0  0  3  0  0  0  0  0  0
  190.8270  177.5750  145.3460 C   0  0  0  0  0  3  0  0  0  0  0  0
  185.4410  178.2560  144.0290 C   0  0  0  0  0  1  0  0  0  0  0  0
  186.4380  177.1150  143.9750 C   0  0  0  0  0  2  0  0  0  0  0  0
  185.4330  178.6530  138.4360 C   0  0  0  0  0  2  0  0  0  0  0  0
  184.9190  179.5110  139.4880 N   0  0  0  0  0  2  0  0  0  0  0  0
  184.3210  178.6420  140.4880 C   0  0  0  0  0  2  0  0  0  0  0  0
  182.8870  178.2690  140.1110 C   0  0  2  0  0  3  0  0  0  0  0  0
  181.2220  178.9330  143.1570 C   0  0  0  0  0  2  0  0  0  0  0  0
  182.3610  179.0050  142.3600 O   0  0  0  0  0  0  0  0  0  0  0  0
  180.6640  178.2020  141.0240 O   0  0  0  0  0  0  0  0  0  0  0  0
  181.8680  178.9200  141.0480 C   0  0  0  0  0  3  0  0  0  0  0  0
  180.1150  178.4160  142.2860 C   0  0  0  0  0  2  0  0  0  0  0  0
  182.6850  176.7580  140.0000 C   0  0  0  0  0  2  0  0  0  0  0  0
  182.4350  176.3370  138.5600 C   0  0  1  0  0  3  0  0  0  0  0  0
  183.4110  175.2390  138.1890 C   0  0  0  0  0  1  0  0  0  0  0  0
  181.1280  175.8630  138.4230 O   0  0  0  0  0  0  0  0  0  0  0  0
  181.2270  174.7860  137.5410 C   0  0  0  0  0  1  0  0  0  0  0  0
  1  2  1  0  0  0  0
  1  5  1  0  0  0  0
  3  1  2  0  0  0  0
  4  6  1  0  0  0  0
  5  7  2  0  0  0  0
  7  6  1  0  0  0  0
  8  5  1  0  0  0  0
  8  4  2  0  0  0  0
  9 14  2  0  0  0  0
  9 10  1  0  0  0  0
 10 11  2  0  0  0  0
 11 17  1  0  0  0  0
 12 17  2  0  0  0  0
 13 10  1  0  0  0  0
 13 19  1  0  0  0  0
 14 12  1  0  0  0  0
 15 13  2  0  0  0  0
 16  7  1  6  0  0  0
 16 15  1  0  0  0  0
 16  9  1  0  0  0  0
 19 18  1  0  0  0  0
 20  2  1  0  0  0  0
 20 21  1  0  0  0  0
 21 22  1  0  0  0  0
 23 29  1  1  0  0  0
 23 22  1  0  0  0  0
 23 27  1  0  0  0  0
 25 24  1  0  0  0  0
 26 27  1  0  0  0  0
 26 28  1  0  0  0  0
 27 25  1  0  0  0  0
 28 24  1  0  0  0  0
 30 31  1  1  0  0  0
 30 29  1  0  0  0  0
 32 30  1  0  0  0  0
 33 32  1  0  0  0  0
M  END
>  <MODEL>
7

>  <REMARK>
 VINA RESULT:      -6.7      2.743      5.073
  Name = 
  11 active torsions:
  status: ('A' for Active; 'I' for Inactive)
    1  A    between atoms: C_1  and  C_6
    2  A    between atoms: C_1  and  C_28
    3  A    between atoms: C_1  and  C_32
    4  A    between atoms: C_4  and  C_6
    5  A    between atoms: C_4  and  O_20
    6  A    between atoms: N_5  and  C_21
    7  A    between atoms: N_5  and  C_32
    8  A    between atoms: C_11  and  C_16
    9  A    between atoms: C_14  and  C_19
   10  A    between atoms: N_17  and  C_21
   11  A    between atoms: C_26  and  C_29
                            x       y       z     vdW  Elec       q    Type
                         _______ _______ _______ _____ _____    ______ ____

>  <TORSDO>
F 11

$$$$
=
 OpenBabel11062412313D

 33 36  0  0  1  0  0  0  0  0999 V2000
  185.0950  178.9370  139.6050 C   0  0  0  0  0  0  0  0  0  0  0  0
  185.5900  178.5250  140.8820 N   0  0  0  0  0  2  0  0  0  0  0  0
  184.5560  180.0700  139.4740 O   0  0  0  0  0  0  0  0  0  0  0  0
  184.7650  176.5610  136.7510 N   0  0  0  0  0  0  0  0  0  0  0  0
  185.2210  178.0290  138.4530 C   0  0  0  0  0  0  0  0  0  0  0  0
  186.0010  176.8450  136.7080 N   0  0  0  0  0  0  0  0  0  0  0  0
  186.3130  177.7470  137.7560 C   0  0  0  0  0  0  0  0  0  0  0  0
  184.0980  177.2530  137.8480 C   0  0  0  0  0  2  0  0  0  0  0  0
  188.6720  177.7060  137.0470 C   0  0  0  0  0  0  0  0  0  0  0  0
  189.6130  177.0380  137.7830 C   0  0  0  0  0  0  0  0  0  0  0  0
  190.6780  176.3640  137.1870 C   0  0  0  0  0  3  0  0  0  0  0  0
  189.7990  177.0800  135.0230 C   0  0  0  0  0  3  0  0  0  0  0  0
  189.2560  177.2070  139.1730 C   0  0  0  0  0  0  0  0  0  0  0  0
  188.7380  177.7520  135.6540 C   0  0  0  0  0  3  0  0  0  0  0  0
  188.1890  177.9330  139.2980 N   0  0  0  0  0  0  0  0  0  0  0  0
  187.6800  178.3250  137.9760 C   0  0  2  0  0  3  0  0  0  0  0  0
  190.7630  176.3890  135.7860 C   0  0  0  0  0  3  0  0  0  0  0  0
  191.2980  177.5040  140.5130 C   0  0  0  0  0  1  0  0  0  0  0  0
  190.0280  176.6940  140.3380 C   0  0  0  0  0  2  0  0  0  0  0  0
  185.5290  179.3790  142.0580 C   0  0  0  0  0  2  0  0  0  0  0  0
  185.4670  178.5600  143.2550 N   0  0  0  0  0  2  0  0  0  0  0  0
  186.5800  177.6280  143.1890 C   0  0  0  0  0  2  0  0  0  0  0  0
  187.6430  177.9600  144.2360 C   0  0  2  0  0  3  0  0  0  0  0  0
  190.8400  176.4620  144.0710 C   0  0  0  0  0  2  0  0  0  0  0  0
  189.4580  176.3810  143.9320 O   0  0  0  0  0  0  0  0  0  0  0  0
  189.9600  178.5990  144.3040 O   0  0  0  0  0  0  0  0  0  0  0  0
  189.0560  177.7080  143.7080 C   0  0  0  0  0  3  0  0  0  0  0  0
  191.1690  177.9070  144.3060 C   0  0  0  0  0  2  0  0  0  0  0  0
  187.3920  177.2550  145.5690 C   0  0  0  0  0  2  0  0  0  0  0  0
  187.1710  178.2570  146.6920 C   0  0  1  0  0  3  0  0  0  0  0  0
  185.6830  178.4960  146.8550 C   0  0  0  0  0  1  0  0  0  0  0  0
  187.6950  177.7560  147.8860 O   0  0  0  0  0  0  0  0  0  0  0  0
  189.0060  177.3920  147.5790 C   0  0  0  0  0  1  0  0  0  0  0  0
  1  2  1  0  0  0  0
  2 20  1  0  0  0  0
  3  1  2  0  0  0  0
  4  8  1  0  0  0  0
  5  1  1  0  0  0  0
  6  4  2  0  0  0  0
  6  7  1  0  0  0  0
  7  5  2  0  0  0  0
  8  5  1  0  0  0  0
  9 10  1  0  0  0  0
  9 16  1  0  0  0  0
 10 13  1  0  0  0  0
 11 10  2  0  0  0  0
 12 14  1  0  0  0  0
 12 17  2  0  0  0  0
 13 15  2  0  0  0  0
 13 19  1  0  0  0  0
 14  9  2  0  0  0  0
 16  7  1  6  0  0  0
 16 15  1  0  0  0  0
 17 11  1  0  0  0  0
 19 18  1  0  0  0  0
 20 21  1  0  0  0  0
 22 21  1  0  0  0  0
 23 22  1  6  0  0  0
 23 29  1  0  0  0  0
 24 28  1  0  0  0  0
 25 24  1  0  0  0  0
 26 28  1  0  0  0  0
 27 25  1  0  0  0  0
 27 23  1  0  0  0  0
 27 26  1  0  0  0  0
 29 30  1  0  0  0  0
 30 31  1  1  0  0  0
 30 32  1  0  0  0  0
 33 32  1  0  0  0  0
M  END
>  <MODEL>
8

>  <REMARK>
 VINA RESULT:      -6.7      2.511      8.583
  Name = 
  11 active torsions:
  status: ('A' for Active; 'I' for Inactive)
    1  A    between atoms: C_1  and  C_6
    2  A    between atoms: C_1  and  C_28
    3  A    between atoms: C_1  and  C_32
    4  A    between atoms: C_4  and  C_6
    5  A    between atoms: C_4  and  O_20
    6  A    between atoms: N_5  and  C_21
    7  A    between atoms: N_5  and  C_32
    8  A    between atoms: C_11  and  C_16
    9  A    between atoms: C_14  and  C_19
   10  A    between atoms: N_17  and  C_21
   11  A    between atoms: C_26  and  C_29
                            x       y       z     vdW  Elec       q    Type
                         _______ _______ _______ _____ _____    ______ ____

>  <TORSDO>
F 11

$$$$
=
 OpenBabel11062412313D

 33 36  0  0  1  0  0  0  0  0999 V2000
  185.2210  178.2920  141.9500 C   0  0  0  0  0  0  0  0  0  0  0  0
  186.3800  178.6660  141.2000 N   0  0  0  0  0  2  0  0  0  0  0  0
  184.3150  177.6000  141.4090 O   0  0  0  0  0  0  0  0  0  0  0  0
  184.4220  179.7540  145.2850 N   0  0  0  0  0  0  0  0  0  0  0  0
  185.0990  178.7200  143.3540 C   0  0  0  0  0  0  0  0  0  0  0  0
  185.3450  178.9350  145.5780 N   0  0  0  0  0  2  0  0  0  0  0  0
  185.7890  178.2840  144.3990 C   0  0  0  0  0  0  0  0  0  0  0  0
  184.1360  179.7450  143.8550 C   0  0  0  0  0  3  0  0  0  0  0  0
  187.6800  177.2860  145.6210 C   0  0  0  0  0  0  0  0  0  0  0  0
  188.9710  177.5750  145.2690 C   0  0  0  0  0  0  0  0  0  0  0  0
  189.9880  177.6920  146.2150 C   0  0  0  0  0  3  0  0  0  0  0  0
  188.3200  177.1990  147.9320 C   0  0  0  0  0  3  0  0  0  0  0  0
  188.9960  177.6990  143.8300 C   0  0  0  0  0  0  0  0  0  0  0  0
  187.3180  177.0850  146.9530 C   0  0  0  0  0  3  0  0  0  0  0  0
  187.8220  177.4900  143.3210 N   0  0  0  0  0  0  0  0  0  0  0  0
  186.8450  177.2200  144.3840 C   0  0  2  0  0  3  0  0  0  0  0  0
  189.6480  177.5020  147.5650 C   0  0  0  0  0  3  0  0  0  0  0  0
  190.9930  176.6730  142.8200 C   0  0  0  0  0  1  0  0  0  0  0  0
  190.2060  177.9570  143.0000 C   0  0  0  0  0  2  0  0  0  0  0  0
  186.5850  178.2550  139.8190 C   0  0  0  0  0  2  0  0  0  0  0  0
  187.9210  178.6280  139.3910 N   0  0  0  0  0  2  0  0  0  0  0  0
  188.7980  177.5200  139.7310 C   0  0  0  0  0  2  0  0  0  0  0  0
  189.2440  176.7630  138.4800 C   0  0  2  0  0  3  0  0  0  0  0  0
  192.6480  176.1090  137.7870 C   0  0  0  0  0  2  0  0  0  0  0  0
  191.6430  176.9770  138.2030 O   0  0  0  0  0  0  0  0  0  0  0  0
  190.6800  174.8940  138.0020 O   0  0  0  0  0  0  0  0  0  0  0  0
  190.6240  176.1290  138.6640 C   0  0  0  0  0  3  0  0  0  0  0  0
  192.0230  174.7510  137.6620 C   0  0  0  0  0  2  0  0  0  0  0  0
  189.1690  177.6220  137.2180 C   0  0  0  0  0  2  0  0  0  0  0  0
  188.5350  176.8580  136.0650 C   0  0  1  0  0  3  0  0  0  0  0  0
  187.4840  175.9140  136.6160 C   0  0  0  0  0  1  0  0  0  0  0  0
  187.9350  177.7520  135.1740 O   0  0  0  0  0  0  0  0  0  0  0  0
  186.8220  178.2450  135.8550 C   0  0  0  0  0  1  0  0  0  0  0  0
  1  5  1  0  0  0  0
  2  1  1  0  0  0  0
  3  1  2  0  0  0  0
  4  6  1  0  0  0  0
  5  8  1  0  0  0  0
  5  7  2  0  0  0  0
  7  6  1  0  0  0  0
  8  4  2  0  0  0  0
  9 14  1  0  0  0  0
 10  9  2  0  0  0  0
 10 11  1  0  0  0  0
 11 17  2  0  0  0  0
 13 10  1  0  0  0  0
 14 12  2  0  0  0  0
 15 13  2  0  0  0  0
 15 16  1  0  0  0  0
 16  7  1  1  0  0  0
 16  9  1  0  0  0  0
 17 12  1  0  0  0  0
 18 19  1  0  0  0  0
 19 13  1  0  0  0  0
 20  2  1  0  0  0  0
 21 22  1  0  0  0  0
 21 20  1  0  0  0  0
 23 29  1  6  0  0  0
 23 27  1  0  0  0  0
 23 22  1  0  0  0  0
 24 25  1  0  0  0  0
 25 27  1  0  0  0  0
 26 27  1  0  0  0  0
 28 24  1  0  0  0  0
 28 26  1  0  0  0  0
 30 31  1  1  0  0  0
 30 29  1  0  0  0  0
 32 33  1  0  0  0  0
 32 30  1  0  0  0  0
M  END
>  <MODEL>
9

>  <REMARK>
 VINA RESULT:      -6.7      2.371      4.879
  Name = 
  11 active torsions:
  status: ('A' for Active; 'I' for Inactive)
    1  A    between atoms: C_1  and  C_6
    2  A    between atoms: C_1  and  C_28
    3  A    between atoms: C_1  and  C_32
    4  A    between atoms: C_4  and  C_6
    5  A    between atoms: C_4  and  O_20
    6  A    between atoms: N_5  and  C_21
    7  A    between atoms: N_5  and  C_32
    8  A    between atoms: C_11  and  C_16
    9  A    between atoms: C_14  and  C_19
   10  A    between atoms: N_17  and  C_21
   11  A    between atoms: C_26  and  C_29
                            x       y       z     vdW  Elec       q    Type
                         _______ _______ _______ _____ _____    ______ ____

>  <TORSDO>
F 11

$$$$
